data_functionalizedCrystal
_audit_creation_method	'MofGen! by Chris Wilmer'
_symmetry_space_group_name_H-M	'P1'
_symmetry_Int_Tables_number	1
_symmetry_cell_setting	triclinic
loop_
_symmetry_equiv_pos_as_xyz
  x,y,z
_cell_length_a	19.077105
_cell_length_b	18.101397
_cell_length_c	19.076919
_cell_angle_alpha	92.268541
_cell_angle_beta	90.076224
_cell_angle_gamma	87.716700
loop_
_atom_site_label
_atom_site_type_symbol
_atom_site_fract_x
_atom_site_fract_y
_atom_site_fract_z
Zn1	Zn	1.058295	-0.358273	-0.440399
Zn2	Zn	1.558295	0.141727	0.059601
Zn3	Zn	1.062943	-0.477346	-0.322885
Zn4	Zn	1.562943	0.022654	0.177115
Zn5	Zn	0.945512	-0.348352	-0.318192
Zn6	Zn	1.445512	0.151648	0.181808
Zn7	Zn	0.940765	-0.476900	-0.435638
Zn8	Zn	1.440765	0.023100	0.064362
O9	O	1.001879	-0.415218	-0.379279
O10	O	1.501879	0.084782	0.120721
O11	O	1.157243	-0.378407	-0.428767
O12	O	1.657243	0.121593	0.071233
O13	O	1.051297	-0.456270	-0.223932
O14	O	1.551297	0.043730	0.276068
O15	O	0.960514	-0.246038	-0.334432
O16	O	1.460514	0.253962	0.165568
O17	O	1.160658	-0.465890	-0.342430
O18	O	1.660658	0.034110	0.157570
O19	O	1.043375	-0.253327	-0.424216
O20	O	1.543375	0.246673	0.075784
O21	O	0.965021	-0.361499	-0.220484
O22	O	1.465021	0.138501	0.279516
O23	O	0.846550	-0.361066	-0.329816
O24	O	1.346550	0.138934	0.170184
O25	O	0.952423	-0.465128	-0.534601
O26	O	1.452423	0.034872	-0.034601
O27	O	0.843062	-0.455509	-0.416102
O28	O	1.343062	0.044491	0.083898
O29	O	1.038772	-0.377974	-0.538098
O30	O	1.538772	0.122026	-0.038098
O31	O	1.046694	-0.580917	-0.337814
O32	O	1.546694	-0.080917	0.162186
O33	O	0.956930	-0.580589	-0.420653
O34	O	1.456930	-0.080589	0.079347
C35	C	0.819310	-0.407163	-0.371934
C36	C	1.319310	0.092837	0.128066
C37	C	0.741205	-0.403735	-0.368808
C38	C	1.241205	0.096265	0.131192
C39	C	1.001820	-0.607624	-0.379242
C40	C	1.501820	-0.107624	0.120758
C41	C	1.001858	-0.689940	-0.379253
C42	C	1.501858	-0.189940	0.120747
C43	C	0.702717	-0.451365	-0.412194
C44	C	1.202717	0.048635	0.087806
C45	C	0.629329	-0.448135	-0.409260
C46	C	1.129329	0.051865	0.090740
C47	C	0.594432	-0.397278	-0.362937
C48	C	1.094432	0.102722	0.137063
C49	C	0.632925	-0.349643	-0.319549
C50	C	1.132925	0.150357	0.180451
C51	C	0.706311	-0.352870	-0.322487
C52	C	1.206311	0.147130	0.177513
C53	C	0.375144	-0.382343	-0.349345
C54	C	0.875144	0.117657	0.150655
C55	C	0.301752	-0.379121	-0.346409
C56	C	0.801752	0.120879	0.153591
C57	C	0.298161	-0.477612	-0.436122
C58	C	0.798161	0.022388	0.063878
C59	C	0.371549	-0.480838	-0.439052
C60	C	0.871549	0.019162	0.060948
C61	C	0.410036	-0.433200	-0.395667
C62	C	0.910036	0.066800	0.104333
N63	N	0.519418	-0.393977	-0.359936
N64	N	1.019418	0.106023	0.140064
N65	N	0.485048	-0.436499	-0.398672
N66	N	0.985048	0.063501	0.101328
C67	C	1.001945	-0.989038	-0.379320
C68	C	1.501945	-0.489038	0.120680
C69	C	1.058277	-0.957876	-0.327049
C70	C	1.558277	-0.457876	0.172951
C71	C	1.058458	-0.872271	-0.327197
C72	C	1.558458	-0.372271	0.172803
C73	C	1.001902	-0.840652	-0.379286
C74	C	1.501902	-0.340652	0.120714
C75	C	1.018998	-0.875550	-0.454158
C76	C	1.518998	-0.375550	0.045842
C77	C	1.019429	-0.961201	-0.453878
C78	C	1.519429	-0.461201	0.046122
C79	C	0.928348	-0.953502	-0.357355
C80	C	1.428348	-0.453502	0.142645
C81	C	0.928782	-0.867801	-0.355717
C82	C	1.428782	-0.367801	0.144283
C83	C	1.001876	-0.756791	-0.379271
C84	C	1.501876	-0.256791	0.120729
C85	C	1.001972	-1.072899	-0.379340
C86	C	1.501972	-0.572899	0.120660
C87	C	1.185160	-0.423305	-0.386653
C88	C	1.685160	0.076695	0.113347
C89	C	1.263264	-0.426751	-0.389795
C90	C	1.763264	0.073249	0.110205
C91	C	0.994550	-0.422608	-0.562558
C92	C	1.494550	0.077392	-0.062558
C93	C	0.991426	-0.425757	-0.640661
C94	C	1.491426	0.074243	-0.140661
C95	C	1.001956	-0.222061	-0.379331
C96	C	1.501956	0.277939	0.120669
C97	C	1.001989	-0.139750	-0.379354
C98	C	1.501989	0.360250	0.120646
C99	C	1.034914	-0.381862	-0.679176
C100	C	1.534914	0.118138	-0.179176
C101	C	1.031971	-0.384818	-0.752562
C102	C	1.531971	0.115182	-0.252562
C103	C	0.985543	-0.431674	-0.787431
C104	C	1.485543	0.068326	-0.287431
C105	C	0.942051	-0.475570	-0.748911
C106	C	1.442051	0.024430	-0.248911
C107	C	0.944991	-0.472610	-0.675527
C108	C	1.444991	0.027390	-0.175527
C109	C	0.971926	-0.445389	-1.006712
C110	C	1.471926	0.054611	-0.506712
C111	C	0.968991	-0.448348	-1.080102
C112	C	1.468991	0.051652	-0.580102
C113	C	1.058911	-0.357594	-1.083747
C114	C	1.558911	0.142406	-0.583747
C115	C	1.061850	-0.354641	-1.010361
C116	C	1.561850	0.145359	-0.510361
C117	C	1.018355	-0.398535	-0.971847
C118	C	1.518355	0.101465	-0.471847
N119	N	0.982535	-0.434698	-0.862443
N120	N	1.482535	0.065302	-0.362443
N121	N	1.021359	-0.395507	-0.896837
N122	N	1.521359	0.104493	-0.396837
C123	C	1.009219	-0.407805	-0.196713
C124	C	1.509219	0.092195	0.303287
C125	C	1.012479	-0.404453	-0.118616
C126	C	1.512479	0.095547	0.381384
H127	H	0.731125	-0.492781	-0.449913
H128	H	1.231125	0.007219	0.050087
Br129	Br	0.952483	-0.841643	-0.521033
Br130	Br	1.452483	-0.341643	-0.021033
Br131	Br	1.107481	-0.844757	-0.485008
Br132	Br	1.607481	-0.344757	0.014992
Br133	Br	0.879036	-0.539156	-0.796233
Br134	Br	1.379036	-0.039156	-0.296233
H135	H	0.936520	-0.481142	-0.975363
H136	H	1.436520	0.018858	-0.475363
Br137	Br	0.905975	-0.511939	-1.127424
Br138	Br	1.405975	-0.011939	-0.627424
Br139	Br	0.577098	-0.512777	-0.468146
Br140	Br	1.077098	-0.012777	0.031854
Br141	Br	0.885965	-0.532179	-0.623255
Br142	Br	1.385965	-0.032179	-0.123255
H143	H	0.604506	-0.308232	-0.281835
H144	H	1.104506	0.191768	0.218165
H145	H	1.048084	-0.975737	-0.271467
H146	H	1.548084	-0.475737	0.228533
H147	H	0.915837	-0.844664	-0.300602
H148	H	1.415837	-0.344664	0.199398
H149	H	0.406471	-0.343559	-0.314013
H150	H	0.906471	0.156441	0.185987
H151	H	0.737648	-0.314081	-0.287161
H152	H	1.237648	0.185919	0.212839
H153	H	0.399958	-0.522253	-0.476772
H154	H	0.899958	-0.022253	0.023228
Br155	Br	0.245926	-0.542262	-0.494995
Br156	Br	0.745926	-0.042262	0.005005
H157	H	1.048108	-0.848527	-0.271774
H158	H	1.548108	-0.348527	0.228226
H159	H	0.886413	-0.973600	-0.395390
H160	H	1.386413	-0.473600	0.104610
Br161	Br	1.148753	-0.998514	-0.351401
Br162	Br	1.648753	-0.498514	0.148599
Br163	Br	1.117935	-0.298026	-1.136019
Br164	Br	1.617935	0.201974	-0.636019
Br165	Br	0.855461	-0.831525	-0.414126
Br166	Br	1.355461	-0.331525	0.085874
Br167	Br	0.254392	-0.310104	-0.283530
Br168	Br	0.754392	0.189896	0.216470
H169	H	1.113036	-0.854663	-0.341966
H170	H	1.613036	-0.354663	0.158034
H171	H	1.073136	-0.984166	-0.472138
H172	H	1.573136	-0.484166	0.027862
H173	H	1.067385	-0.349076	-0.783918
H174	H	1.567385	0.150924	-0.283918
H175	H	0.980034	-0.981971	-0.494328
H176	H	1.480034	-0.481971	0.005672
Br177	Br	0.901464	-0.984674	-0.267677
Br178	Br	1.401464	-0.484674	0.232323
Br179	Br	1.097932	-0.318276	-0.631861
Br180	Br	1.597932	0.181724	-0.131861
H181	H	1.099658	-0.316489	-0.981976
H182	H	1.599658	0.183511	-0.481976
