data_functionalizedCrystal
_audit_creation_method	'MofGen! by Chris Wilmer'
_symmetry_space_group_name_H-M	'P1'
_symmetry_Int_Tables_number	1
_symmetry_cell_setting	triclinic
loop_
_symmetry_equiv_pos_as_xyz
  x,y,z
_cell_length_a	10.540539
_cell_length_b	14.519709
_cell_length_c	12.996460
_cell_angle_alpha	90.007090
_cell_angle_beta	90.003509
_cell_angle_gamma	84.102818
loop_
_atom_site_label
_atom_site_type_symbol
_atom_site_fract_x
_atom_site_fract_y
_atom_site_fract_z
O1	O	-1.684562	-0.129969	-0.085521
O2	O	-1.184562	0.370031	0.414479
O3	O	-1.315024	-0.142215	-0.085534
O4	O	-0.815024	0.357785	0.414466
O5	O	-1.509591	-0.001906	-0.085518
O6	O	-1.009591	0.498094	0.414482
O7	O	-1.489995	-0.270278	-0.085537
O8	O	-0.989995	0.229722	0.414463
O9	O	-1.509571	-0.001899	0.085616
O10	O	-1.009571	0.498101	0.585616
O11	O	-1.315004	-0.142207	0.085600
O12	O	-0.815004	0.357793	0.585600
O13	O	-1.684542	-0.129961	0.085613
O14	O	-1.184542	0.370039	0.585613
Cu15	Cu	-1.499771	-0.136083	0.101232
Cu16	Cu	-0.999771	0.363917	0.601232
Cu17	Cu	-1.499795	-0.136093	-0.101153
Cu18	Cu	-0.999795	0.363907	0.398847
O19	O	-1.489975	-0.270270	0.085597
O20	O	-0.989975	0.229730	0.585597
C21	C	-1.267720	-0.141293	0.000032
C22	C	-0.767720	0.358707	0.500032
C23	C	-1.126800	-0.138545	0.000027
C24	C	-0.626800	0.361455	0.500027
C25	C	-1.508668	0.032462	0.000049
C26	C	-1.008668	0.532462	0.500049
C27	C	-1.505931	0.134858	0.000050
C28	C	-1.005931	0.634858	0.500050
C29	C	-1.731846	-0.130884	0.000045
C30	C	-1.231846	0.369116	0.500045
C31	C	-1.872766	-0.133631	0.000043
C32	C	-1.372766	0.366369	0.500043
C33	C	-0.944448	-0.033266	0.000434
C34	C	-0.444448	0.466734	0.500434
C35	C	-1.091038	-0.036051	0.000037
C36	C	-0.591038	0.463949	0.500037
C37	C	-1.064636	-0.187874	-0.097699
C38	C	-0.564636	0.312126	0.402301
C39	C	-0.918127	-0.184376	-0.097770
C40	C	-0.418127	0.315624	0.402230
C41	C	-0.917594	-0.186452	0.096841
C42	C	-0.417594	0.313548	0.596841
C43	C	-1.064567	-0.187396	0.098122
C44	C	-0.564567	0.312604	0.598122
C45	C	-1.490899	-0.304639	0.000028
C46	C	-0.990899	0.195361	0.500028
C47	C	-1.493635	-0.407035	0.000020
C48	C	-0.993635	0.092965	0.500020
N49	N	-1.499763	-0.136076	0.243579
N50	N	-0.999763	0.363924	0.743579
C51	C	-1.495856	0.509808	0.000023
C52	C	-0.995856	1.009808	0.500023
C53	C	-1.498654	0.405485	0.000031
C54	C	-0.998654	0.905485	0.500031
C55	C	-1.500893	0.322337	0.000037
C56	C	-1.000893	0.822337	0.500037
C57	C	-1.503692	0.218007	0.000043
C58	C	-1.003692	0.718007	0.500043
N59	N	-1.499813	-0.136093	-0.243500
N60	N	-0.999813	0.363907	0.256500
C61	C	-1.499793	-0.136094	0.663394
C62	C	-0.999793	0.363906	1.163394
C63	C	-1.499781	-0.136092	0.546589
C64	C	-0.999781	0.363908	1.046589
C65	C	-1.499779	-0.136086	0.453490
C66	C	-0.999779	0.363914	0.953490
C67	C	-1.499766	-0.136083	0.336678
C68	C	-0.999766	0.363917	0.836678
H69	H	-1.134040	0.002763	0.070092
H70	H	-0.634040	0.502763	0.570092
H71	H	-1.107583	-0.153614	-0.170423
H72	H	-0.607583	0.346386	0.329577
H73	H	-0.916268	0.007229	0.070519
H74	H	-0.416268	0.507229	0.570519
H75	H	-0.886378	-0.153279	0.170917
H76	H	-0.386378	0.346721	0.670917
C77	C	-1.160393	-0.304136	-0.193404
C78	C	-0.660393	0.195864	0.306596
C79	C	-1.093775	-0.289484	-0.102630
C80	C	-0.593775	0.210516	0.397370
H81	H	-1.178375	-0.366867	-0.196448
H82	H	-0.678375	0.133133	0.303552
H83	H	-1.238049	-0.264667	-0.194303
H84	H	-0.738049	0.235333	0.305697
H85	H	-1.109921	-0.290823	-0.251025
H86	H	-0.609921	0.209177	0.248975
H87	H	-1.144251	-0.302790	-0.045009
H88	H	-0.644251	0.197210	0.454991
H89	H	-1.016107	-0.328966	-0.101722
H90	H	-0.516107	0.171034	0.398278
H91	H	-0.914661	0.007051	-0.069255
H92	H	-0.414661	0.507051	0.430745
C93	C	-0.889531	-0.325986	-0.194309
C94	C	-0.389531	0.174014	0.305691
C95	C	-0.852337	-0.283878	-0.103786
C96	C	-0.352337	0.216122	0.396214
H97	H	-0.848910	-0.387410	-0.198031
H98	H	-0.348910	0.112590	0.301969
H99	H	-0.979414	-0.327446	-0.194212
H100	H	-0.479414	0.172554	0.305788
H101	H	-0.865474	-0.291666	-0.252078
H102	H	-0.365474	0.208334	0.247922
H103	H	-0.876403	-0.318194	-0.046016
H104	H	-0.376403	0.181806	0.453984
H105	H	-0.762435	-0.282423	-0.103873
H106	H	-0.262435	0.217577	0.396127
H107	H	-1.133191	0.003030	-0.070132
H108	H	-0.633191	0.503030	0.429868
C109	C	-1.022142	-0.104703	0.252279
C110	C	-0.522142	0.395297	0.752279
C111	C	-1.120334	-0.138740	0.195722
C112	C	-0.620334	0.361260	0.695722
H113	H	-1.056582	-0.074659	0.312527
H114	H	-0.556582	0.425341	0.812527
H115	H	-0.961193	-0.154588	0.271188
H116	H	-0.461193	0.345412	0.771188
H117	H	-0.982073	-0.061767	0.211482
H118	H	-0.482073	0.438233	0.711482
H119	H	-1.160397	-0.181682	0.236517
H120	H	-0.660397	0.318318	0.736517
H121	H	-1.181305	-0.088848	0.176815
H122	H	-0.681305	0.411152	0.676815
C123	C	-0.893306	-0.332912	0.184201
C124	C	-0.393306	0.167088	0.684201
C125	C	-0.852822	-0.286391	0.097735
C126	C	-0.352822	0.213609	0.597735
H127	H	-0.853319	-0.394608	0.184741
H128	H	-0.353319	0.105392	0.684741
H129	H	-0.870824	-0.301842	0.244817
H130	H	-0.370824	0.198158	0.744817
H131	H	-0.983234	-0.333850	0.181673
H132	H	-0.483234	0.166150	0.681673
H133	H	-0.762894	-0.285447	0.100266
H134	H	-0.262894	0.214553	0.600266
H135	H	-0.875295	-0.317470	0.037103
H136	H	-0.375295	0.182530	0.537103
H137	H	-0.890298	-0.147924	-0.170815
H138	H	-0.390298	0.352076	0.329185
C139	C	-1.161849	-0.300192	0.198018
C140	C	-0.661849	0.199808	0.698018
C141	C	-1.096237	-0.288274	0.106081
C142	C	-0.596237	0.211726	0.606081
H143	H	-1.181408	-0.362471	0.202919
H144	H	-0.681408	0.137529	0.702919
H145	H	-1.110023	-0.286460	0.254649
H146	H	-0.610023	0.213540	0.754649
H147	H	-1.238627	-0.259737	0.198827
H148	H	-0.738627	0.240263	0.698827
H149	H	-1.019455	-0.328725	0.105275
H150	H	-0.519455	0.171275	0.605275
H151	H	-1.148065	-0.302016	0.049436
H152	H	-0.648065	0.197984	0.549436
