data_functionalizedCrystal
_audit_creation_method	'MofGen! by Chris Wilmer'
_symmetry_space_group_name_H-M	'P1'
_symmetry_Int_Tables_number	1
_symmetry_cell_setting	triclinic
loop_
_symmetry_equiv_pos_as_xyz
  x,y,z
_cell_length_a	12.837943
_cell_length_b	19.188930
_cell_length_c	11.892095
_cell_angle_alpha	93.870839
_cell_angle_beta	85.689438
_cell_angle_gamma	88.986861
loop_
_atom_site_label
_atom_site_type_symbol
_atom_site_fract_x
_atom_site_fract_y
_atom_site_fract_z
O1	O	1.381278	0.177430	-0.094009
O2	O	1.079513	0.168466	-0.094014
O3	O	1.239102	0.071891	-0.093990
O4	O	1.221689	0.274006	-0.094034
O5	O	1.225796	0.079929	0.094016
O6	O	1.066207	0.176505	0.093991
O7	O	1.367972	0.185469	0.093996
Zn8	Zn	1.214977	0.182263	0.123844
Zn9	Zn	1.232508	0.171672	-0.123862
O10	O	1.208383	0.282044	0.093971
C11	C	1.034253	0.169458	-0.000012
C12	C	0.919217	0.160427	-0.000013
C13	C	0.677767	0.268994	-0.000021
C14	C	0.569680	0.260512	-0.000021
C15	C	0.594952	0.134982	-0.000005
C16	C	0.703040	0.143464	-0.000005
C17	C	0.744443	0.210472	-0.000015
C18	C	0.852533	0.218953	-0.000023
C19	C	0.877803	0.093423	0.000001
C20	C	0.769716	0.084941	0.000001
C21	C	1.231885	0.049861	0.000016
C22	C	1.230191	-0.027760	0.000026
C23	C	1.323833	-0.066260	0.000033
C24	C	1.322244	-0.139194	0.000015
C25	C	1.227006	-0.173623	0.000012
C26	C	1.133352	-0.135114	-0.000001
C27	C	1.134944	-0.062182	0.000006
N28	N	1.149679	-0.283886	0.063993
N29	N	1.148172	-0.353168	0.063989
C30	C	1.222201	-0.393362	-0.000010
N31	N	1.297809	-0.361657	-0.063992
N32	N	1.299318	-0.292369	-0.063982
C33	C	1.225268	-0.252705	0.000004
C34	C	1.314126	-0.510946	-0.000025
C35	C	1.312534	-0.583882	-0.000050
C36	C	1.123638	-0.579799	-0.000054
C37	C	1.125234	-0.506866	-0.000041
C38	C	1.220481	-0.472444	-0.000020
C39	C	1.413232	0.184477	-0.000009
C40	C	1.528268	0.193508	-0.000015
C41	C	1.215600	0.304074	-0.000037
C42	C	1.217294	0.381694	-0.000054
N43	N	1.203020	0.189491	0.292896
N44	N	1.244474	0.164439	-0.292914
C45	C	1.327677	0.114101	0.529563
C46	C	1.319327	0.119160	0.647904
C47	C	1.177964	0.204661	0.647920
C48	C	1.186314	0.199603	0.529579
C49	C	1.261175	0.154323	0.470405
C50	C	1.269529	0.149269	0.352062
C51	C	1.128162	0.234767	0.352080
C52	C	1.119812	0.239825	0.470421
H53	H	0.561216	0.080430	0.000095
H54	H	1.330487	0.112401	0.303884
H55	H	1.388792	-0.615228	-0.000050
O56	O	0.505062	0.317433	-0.000082
C57	C	0.564787	0.378392	-0.000060
H58	H	0.648059	0.364517	-0.035649
H59	H	0.528584	0.417507	-0.054650
H60	H	0.566013	0.402446	0.090133
H61	H	0.735989	0.030385	0.000021
H62	H	0.932104	0.045770	-0.000002
O63	O	0.892818	0.284019	-0.000232
C64	C	0.961491	0.288520	-0.097589
H65	H	0.940906	0.247440	-0.165641
H66	H	0.953850	0.342732	-0.130277
H67	H	1.045247	0.279029	-0.075576
O68	O	1.416448	-0.032936	-0.000005
C69	C	1.498756	-0.082563	0.000027
H70	H	1.472452	-0.135470	-0.035573
H71	H	1.569138	-0.065246	-0.054547
H72	H	1.521237	-0.087101	0.090225
O73	O	1.034169	-0.469565	0.000017
C74	C	0.949767	-0.515591	-0.000017
H75	H	0.973800	-0.566660	0.035570
H76	H	0.880311	-0.490764	0.054568
H77	H	0.926940	-0.526564	-0.090214
O78	O	0.718059	0.334059	-0.000235
C79	C	0.786737	0.338550	-0.097590
H80	H	0.766149	0.297468	-0.165638
H81	H	0.779106	0.392761	-0.130286
H82	H	0.870490	0.329055	-0.075571
O83	O	1.044033	-0.024696	0.000155
C84	C	1.032397	0.021749	0.097546
H85	H	1.112338	0.032285	0.130016
H86	H	0.995099	0.072967	0.075653
H87	H	0.980347	-0.002445	0.165720
H88	H	1.398501	-0.170548	0.000016
H89	H	1.388638	0.077237	0.481383
O90	O	1.384039	0.080061	0.705195
C91	C	1.451879	0.038998	0.627585
H92	H	1.458876	0.064089	0.543223
H93	H	1.532271	0.035342	0.661760
H94	H	1.419348	-0.015639	0.615014
H95	H	1.055808	-0.163150	-0.000005
O96	O	1.105336	0.248629	0.705587
C97	C	1.112209	0.244449	0.822722
H98	H	1.193575	0.224562	0.838865
H99	H	1.097266	0.298456	0.867700
H100	H	1.051345	0.206951	0.856318
H101	H	1.391682	-0.482919	-0.000013
H102	H	1.058859	0.276689	0.518614
O103	O	1.063613	0.273773	0.294438
C104	C	1.087057	0.259619	0.177298
H105	H	1.127169	0.206022	0.161130
H106	H	1.011722	0.260224	0.132333
H107	H	1.141234	0.301164	0.143708
H108	H	1.046093	-0.607831	-0.000062
