data_functionalizedCrystal
_audit_creation_method	'MofGen! by Chris Wilmer'
_symmetry_space_group_name_H-M	'P1'
_symmetry_Int_Tables_number	1
_symmetry_cell_setting	triclinic
loop_
_symmetry_equiv_pos_as_xyz
  x,y,z
_cell_length_a	14.853567
_cell_length_b	15.995350
_cell_length_c	13.930277
_cell_angle_alpha	89.997676
_cell_angle_beta	89.995755
_cell_angle_gamma	83.563653
loop_
_atom_site_label
_atom_site_type_symbol
_atom_site_fract_x
_atom_site_fract_y
_atom_site_fract_z
O1	O	1.196221	0.109317	-0.079760
O2	O	1.696221	0.609317	0.420240
O3	O	0.933744	0.122339	-0.079776
O4	O	1.433744	0.622339	0.420224
O5	O	1.072157	-0.006051	-0.079766
O6	O	1.572157	0.493949	0.420234
O7	O	1.057808	0.237707	-0.079769
O8	O	1.557808	0.737707	0.420231
O9	O	1.072138	-0.006054	0.079895
O10	O	1.572138	0.493946	0.579895
O11	O	0.933725	0.122336	0.079886
O12	O	1.433725	0.622336	0.579886
O13	O	1.196202	0.109314	0.079902
O14	O	1.696202	0.609314	0.579902
Zn15	Zn	1.064960	0.115825	0.105244
Zn16	Zn	1.564960	0.615825	0.605244
Zn17	Zn	1.064986	0.115828	-0.105117
Zn18	Zn	1.564986	0.615828	0.394883
O19	O	1.057788	0.237705	0.079893
O20	O	1.557788	0.737705	0.579893
C21	C	0.900146	0.121748	0.000053
C22	C	1.400146	0.621748	0.500053
C23	C	0.800065	0.119980	0.000047
C24	C	1.300065	0.619980	0.500047
C25	C	1.071555	-0.037248	0.000063
C26	C	1.571555	0.462752	0.500063
C27	C	1.069776	-0.130201	0.000057
C28	C	1.569776	0.369799	0.500057
C29	C	0.387644	0.036238	0.000069
C30	C	0.887644	0.536238	0.500069
C31	C	0.366158	0.188769	0.000067
C32	C	0.866158	0.688769	0.500067
C33	C	0.460189	0.190432	0.000064
C34	C	0.960189	0.690432	0.500064
C35	C	0.517953	0.114996	0.000062
C36	C	1.017953	0.614996	0.500062
C37	C	0.481685	0.037899	0.000063
C38	C	0.981685	0.537899	0.500063
C39	C	0.496464	0.267528	0.000053
C40	C	0.996464	0.767528	0.500053
C41	C	0.590501	0.269194	0.000048
C42	C	1.090501	0.769194	0.500048
C43	C	0.648266	0.193758	0.000054
C44	C	1.148266	0.693758	0.500054
C45	C	0.611993	0.116657	0.000056
C46	C	1.111993	0.616657	0.500056
C47	C	0.669757	0.041221	0.000054
C48	C	1.169757	0.541221	0.500054
C49	C	0.633485	-0.035880	0.000064
C50	C	1.133485	0.464120	0.500064
C51	C	0.539450	-0.037538	0.000069
C52	C	1.039450	0.462462	0.500069
C53	C	0.742302	0.195415	0.000049
C54	C	1.242302	0.695415	0.500049
C55	C	0.763797	0.042882	0.000048
C56	C	1.263797	0.542882	0.500048
C57	C	1.063389	-0.467956	0.000060
C58	C	1.563389	0.032044	0.500060
C59	C	0.964813	-0.420636	-0.000304
C60	C	1.464813	0.079364	0.499696
C61	C	0.966592	-0.323944	0.000056
C62	C	1.466592	0.176056	0.500056
C63	C	1.066557	-0.300391	0.000058
C64	C	1.566557	0.199609	0.500058
C65	C	1.115167	-0.341414	0.091234
C66	C	1.615167	0.158586	0.591234
C67	C	1.112691	-0.438052	0.091310
C68	C	1.612691	0.061948	0.591310
C69	C	1.114749	-0.438405	-0.090255
C70	C	1.614749	0.061595	0.409745
C71	C	1.114726	-0.341460	-0.091460
C72	C	1.614726	0.158540	0.408540
C73	C	1.068353	-0.205692	0.000060
C74	C	1.568353	0.294308	0.500060
C75	C	1.061596	-0.562655	0.000064
C76	C	1.561596	-0.062655	0.500064
C77	C	1.229799	0.109906	0.000071
C78	C	1.729799	0.609906	0.500071
C79	C	1.329881	0.111674	0.000071
C80	C	1.829881	0.611674	0.500071
C81	C	1.058391	0.268901	0.000062
C82	C	1.558391	0.768901	0.500062
C83	C	1.060170	0.361854	0.000061
C84	C	1.560170	0.861854	0.500061
N85	N	1.064950	0.115822	0.248810
N86	N	1.564950	0.615822	0.748810
N87	N	1.065003	0.115825	-0.248684
N88	N	1.565003	0.615825	0.251316
C89	C	1.003694	0.172657	0.701075
C90	C	1.503694	0.672657	1.201075
C91	C	1.126302	0.058993	0.701053
C92	C	1.626302	0.558993	1.201053
C93	C	1.126292	0.058990	0.600557
C94	C	1.626292	0.558990	1.100557
C95	C	1.064982	0.115823	0.550316
C96	C	1.564982	0.615823	1.050316
C97	C	1.003683	0.172658	0.600570
C98	C	1.503683	0.672658	1.100570
C99	C	1.187595	0.002162	0.550295
C100	C	1.687595	0.502162	1.050295
C101	C	1.187588	0.002158	0.449793
C102	C	1.687588	0.502158	0.949793
C103	C	1.126273	0.058987	0.399550
C104	C	1.626273	0.558987	0.899550
C105	C	1.064971	0.115824	0.449811
C106	C	1.564971	0.615824	0.949811
C107	C	1.003661	0.172656	0.399569
C108	C	1.503661	0.672656	0.899569
C109	C	0.942354	0.229490	0.449828
C110	C	1.442354	0.729490	0.949828
C111	C	0.942368	0.229487	0.550327
C112	C	1.442368	0.729487	1.050327
C113	C	1.126259	0.058989	0.299051
C114	C	1.626259	0.558989	0.799051
C115	C	1.003651	0.172657	0.299064
C116	C	1.503651	0.672657	0.799064
H117	H	0.810823	-0.018548	0.000051
H118	H	1.310823	0.481452	0.500051
C119	C	0.782202	0.280213	0.000035
C120	C	1.282202	0.780213	0.500035
H121	H	0.846479	0.270399	0.000027
H122	H	1.346479	0.770399	0.500027
H123	H	0.762374	0.311282	0.055708
H124	H	1.262374	0.811282	0.555708
H125	H	0.762380	0.311271	-0.055654
H126	H	1.262380	0.811271	0.444346
C127	C	0.499554	-0.122341	0.000067
C128	C	0.999554	0.377659	0.500067
H129	H	0.547421	-0.167032	0.000073
H130	H	1.047421	0.332968	0.500073
H131	H	0.463320	-0.126154	-0.055611
H132	H	0.963320	0.373846	0.444389
H133	H	0.463314	-0.126161	0.055751
H134	H	0.963314	0.373839	0.555751
C135	C	0.630397	0.353998	0.000042
C136	C	1.130397	0.853998	0.500042
H137	H	0.694674	0.344186	0.000034
H138	H	1.194674	0.844186	0.500034
H139	H	0.610567	0.385063	0.055718
H140	H	1.110567	0.885063	0.555718
H141	H	0.610574	0.385059	-0.055644
H142	H	1.110574	0.885059	0.444356
C143	C	0.914960	-0.285600	-0.088227
C144	C	1.414960	0.214400	0.411773
H145	H	0.892703	-0.329114	-0.124633
H146	H	1.392703	0.170886	0.375367
H147	H	0.954688	-0.257263	-0.126804
H148	H	1.454688	0.242737	0.373196
H149	H	0.865615	-0.246780	-0.067702
H150	H	1.365615	0.253220	0.432298
H151	H	0.925421	-0.439212	-0.065688
H152	H	1.425421	0.060788	0.434312
C153	C	0.347751	-0.048567	0.000075
C154	C	0.847751	0.451433	0.500075
H155	H	0.283474	-0.038756	0.000074
H156	H	0.783474	0.461244	0.500074
H157	H	0.367580	-0.079633	0.055750
H158	H	0.867580	0.420367	0.555750
H159	H	0.367577	-0.079626	-0.055612
H160	H	0.867577	0.420374	0.444388
C161	C	0.697030	-0.118854	0.000062
C162	C	1.197030	0.381146	0.500062
H163	H	0.758227	-0.106817	0.000060
H164	H	1.258227	0.393183	0.500060
H165	H	0.686037	-0.150466	-0.055610
H166	H	1.186037	0.349534	0.444390
H167	H	0.686042	-0.150460	0.055752
H168	H	1.186042	0.349540	0.555752
H169	H	1.077228	-0.456396	0.159464
H170	H	1.577228	0.043604	0.659464
C171	C	0.302626	0.271743	0.000059
C172	C	0.802626	0.771743	0.500059
H173	H	0.337695	0.317897	0.000049
H174	H	0.837695	0.817897	0.500049
H175	H	0.265488	0.274268	0.055733
H176	H	0.765488	0.774268	0.555733
H177	H	0.265504	0.274261	-0.055629
H178	H	0.765504	0.774261	0.444371
C179	C	0.911813	-0.447156	0.087529
C180	C	1.411813	0.052844	0.587529
H181	H	0.949499	-0.486939	0.124423
H182	H	1.449499	0.013061	0.624423
H183	H	0.859919	-0.471761	0.066566
H184	H	1.359919	0.028239	0.566566
H185	H	0.893338	-0.399126	0.125800
H186	H	1.393338	0.100874	0.625800
C187	C	1.193687	-0.003519	0.243771
C188	C	1.693687	0.496481	0.743771
H189	H	1.230201	-0.037368	0.288086
H190	H	1.730201	0.462632	0.788086
H191	H	1.231204	0.026666	0.204553
H192	H	1.731204	0.526666	0.704553
H193	H	1.161252	-0.038436	0.204579
H194	H	1.661252	0.461564	0.704579
H195	H	0.449427	0.328943	0.000044
H196	H	0.949427	0.828943	0.500044
C197	C	1.066796	-0.304627	-0.182587
C198	C	1.566796	0.195373	0.317413
H199	H	1.096247	-0.329718	-0.237704
H200	H	1.596247	0.170282	0.262296
H201	H	1.069223	-0.245552	-0.184261
H202	H	1.569223	0.254448	0.315739
H203	H	1.005349	-0.315898	-0.182019
H204	H	1.505349	0.184102	0.317981
H205	H	0.928108	-0.296125	0.065521
H206	H	1.428108	0.203875	0.565521
C207	C	1.210453	-0.481507	0.096919
C208	C	1.710453	0.018493	0.596919
H209	H	1.251504	-0.440076	0.099149
H210	H	1.751504	0.059924	0.599149
H211	H	1.222897	-0.516010	0.041944
H212	H	1.722897	-0.016010	0.541944
H213	H	1.217273	-0.515234	0.153147
H214	H	1.717273	-0.015234	0.653147
H215	H	1.188608	-0.327203	0.094626
H216	H	1.688608	0.172797	0.594626
H217	H	1.081389	-0.313073	0.159082
H218	H	1.581389	0.186927	0.659082
C219	C	1.071220	-0.466193	-0.183612
C220	C	1.571220	0.033807	0.316388
H221	H	1.021310	-0.496080	-0.168378
H222	H	1.521310	0.003920	0.331622
H223	H	1.114721	-0.501617	-0.219212
H224	H	1.614721	-0.001617	0.280788
H225	H	1.050752	-0.418018	-0.220831
H226	H	1.550752	0.081982	0.279169
H227	H	1.187625	-0.326013	-0.096963
H228	H	1.687625	0.173987	0.403037
C229	C	1.212927	-0.481202	-0.091091
C230	C	1.712927	0.018798	0.408909
H231	H	1.222608	-0.516911	-0.036700
H232	H	1.722608	-0.016911	0.463300
H233	H	1.253657	-0.439493	-0.089090
H234	H	1.753657	0.060507	0.410910
H235	H	1.223077	-0.513625	-0.147994
H236	H	1.723077	-0.013625	0.352006
C237	C	0.936210	0.235176	0.243806
C238	C	1.436210	0.735176	0.743806
H239	H	0.899708	0.269024	0.288134
H240	H	1.399708	0.769024	0.788134
H241	H	0.898683	0.204994	0.204605
H242	H	1.398683	0.704994	0.704605
H243	H	0.968640	0.270092	0.204600
H244	H	1.468640	0.770092	0.704600
H245	H	1.237517	-0.044106	0.591205
H246	H	1.737517	0.455894	1.091205
H247	H	0.892439	0.275767	0.408910
H248	H	1.392439	0.775767	0.908910
H249	H	0.892455	0.275760	0.591254
H250	H	1.392455	0.775760	1.091254
C251	C	0.936237	0.235150	0.756349
C252	C	1.436237	0.735150	1.256349
H253	H	0.899713	0.268985	0.712030
H254	H	1.399713	0.768985	1.212030
H255	H	0.968639	0.270070	0.795564
H256	H	1.468639	0.770070	1.295564
H257	H	0.898720	0.204937	0.795543
H258	H	1.398720	0.704937	1.295543
C259	C	1.193737	-0.003517	0.756315
C260	C	1.693737	0.496483	1.256315
H261	H	1.184961	0.004620	0.823367
H262	H	1.684961	0.504620	1.323367
H263	H	1.253901	0.005675	0.739831
H264	H	1.753901	0.505675	1.239831
H265	H	1.183939	-0.059419	0.739853
H266	H	1.683939	0.440581	1.239853
C267	C	1.255014	-0.060363	0.394517
C268	C	1.755014	0.439637	0.894517
H269	H	1.291523	-0.094213	0.438834
H270	H	1.791523	0.405787	0.938834
H271	H	1.292534	-0.030184	0.355297
H272	H	1.792534	0.469816	0.855297
H273	H	1.222572	-0.095277	0.355328
H274	H	1.722572	0.404723	0.855328
