data_functionalizedCrystal
_audit_creation_method	'MofGen! by Chris Wilmer'
_symmetry_space_group_name_H-M	'P1'
_symmetry_Int_Tables_number	1
_symmetry_cell_setting	triclinic
loop_
_symmetry_equiv_pos_as_xyz
  x,y,z
_cell_length_a	12.759401
_cell_length_b	16.625546
_cell_length_c	12.759393
_cell_angle_alpha	89.963806
_cell_angle_beta	89.981504
_cell_angle_gamma	90.022629
loop_
_atom_site_label
_atom_site_type_symbol
_atom_site_fract_x
_atom_site_fract_y
_atom_site_fract_z
Zn1	Zn	1.606199	-0.320951	-0.593948
Zn2	Zn	1.606069	-0.455807	-0.418253
Zn3	Zn	1.430501	-0.320993	-0.418287
Zn4	Zn	1.430465	-0.455745	-0.593895
O5	O	1.518308	-0.388374	-0.506096
O6	O	1.753203	-0.338848	-0.570649
O7	O	1.582740	-0.437968	-0.271237
O8	O	1.453876	-0.208155	-0.441625
O9	O	1.753107	-0.437927	-0.441568
O10	O	1.582961	-0.208124	-0.570682
O11	O	1.453751	-0.338920	-0.271261
O12	O	1.283475	-0.338860	-0.441574
O13	O	1.453816	-0.437821	-0.740923
O14	O	1.283449	-0.437862	-0.570592
O15	O	1.582927	-0.338788	-0.740962
O16	O	1.582706	-0.568632	-0.441517
O17	O	1.453691	-0.568586	-0.570560
C18	C	1.245341	-0.388359	-0.506081
C19	C	1.128564	-0.388372	-0.506100
C20	C	1.073717	-0.440005	-0.573169
C21	C	0.963992	-0.440015	-0.573180
C22	C	0.963974	-0.336758	-0.439045
C23	C	1.073696	-0.336744	-0.439040
C24	C	1.128585	-0.491634	-0.640229
C25	C	1.073737	-0.543271	-0.707303
C26	C	0.964013	-0.543282	-0.707314
C27	C	0.909137	-0.491654	-0.640252
C28	C	1.518209	-0.597865	-0.506052
C29	C	1.518263	-0.687486	-0.506068
C30	C	1.518446	-1.015662	-0.506177
C31	C	1.518392	-0.924353	-0.506150
C32	C	1.518353	-0.851577	-0.506122
C33	C	1.518301	-0.760262	-0.506096
C34	C	1.792342	-0.388390	-0.506111
C35	C	1.909118	-0.388396	-0.506117
C36	C	1.518382	-0.388293	-0.780129
C37	C	1.518413	-0.388258	-0.896906
C38	C	1.518437	-0.178065	-0.506163
C39	C	1.518492	-0.088444	-0.506191
C40	C	1.585650	-0.336687	-0.951790
C41	C	1.585675	-0.336657	-1.061514
C42	C	1.451223	-0.439778	-1.061461
C43	C	1.451194	-0.439803	-0.951739
C44	C	1.652870	-0.285142	-0.896957
C45	C	1.720113	-0.233567	-0.951841
C46	C	1.720138	-0.233538	-1.061565
C47	C	1.652920	-0.285084	-1.116405
C48	C	1.518296	-0.388397	-0.233128
C49	C	1.518468	-0.388204	-0.116352
H50	H	0.919358	-0.585322	-0.761936
O51	O	1.127200	-0.593391	-0.772348
C52	C	1.296241	-0.639102	-0.831828
C53	C	1.235828	-0.582315	-0.758092
H54	H	1.384076	-0.630155	-0.820344
H55	H	1.274715	-0.704122	-0.813226
H56	H	1.274644	-0.625030	-0.916568
H57	H	1.257392	-0.596315	-0.673327
H58	H	1.257359	-0.517313	-0.776784
O59	O	1.126940	-0.286682	-0.373734
C60	C	1.160427	-0.247357	-0.195114
C61	C	1.100079	-0.304115	-0.268951
H62	H	1.138716	-0.261420	-0.110383
H63	H	1.248284	-0.256223	-0.206544
H64	H	1.138902	-0.182362	-0.213765
H65	H	1.121517	-0.369131	-0.250346
H66	H	1.012237	-0.295179	-0.257507
H67	H	1.396497	-0.481744	-1.106120
O68	O	1.785547	-0.183535	-0.898688
C69	C	1.964278	-0.144447	-0.865096
C70	C	1.890294	-0.201148	-0.925372
H71	H	2.048982	-0.158678	-0.886631
H72	H	1.945960	-0.079411	-0.886713
H73	H	1.952657	-0.153313	-0.777252
H74	H	1.901873	-0.192354	-1.013230
H75	H	1.908630	-0.266163	-0.903669
O76	O	0.802550	-0.491765	-0.640395
C77	C	0.645104	-0.548345	-0.714127
C78	C	0.765808	-0.548326	-0.714039
H79	H	0.615361	-0.594057	-0.773677
H80	H	0.615172	-0.565042	-0.632775
H81	H	0.615419	-0.485895	-0.736045
H82	H	0.795583	-0.610756	-0.692166
H83	H	0.795669	-0.531583	-0.795401
H84	H	1.396427	-0.481784	-0.907051
O85	O	0.910508	-0.286694	-0.373928
C86	C	0.741465	-0.240934	-0.314520
C87	C	0.801882	-0.297680	-0.388308
H88	H	0.653630	-0.249784	-0.326136
H89	H	0.762928	-0.255021	-0.229749
H90	H	0.763121	-0.175938	-0.333102
H91	H	0.780258	-0.362695	-0.369821
H92	H	0.780413	-0.283524	-0.473057
H93	H	1.217928	-0.491633	-0.640226
H94	H	1.652859	-0.285162	-0.807614
O95	O	1.785399	-0.183325	-1.114763
C96	C	1.836461	-0.046164	-1.148429
C97	C	1.762497	-0.102939	-1.088105
H98	H	1.817956	0.018841	-1.126916
H99	H	1.921178	-0.060272	-1.126834
H100	H	1.824956	-0.055034	-1.236266
H101	H	1.773907	-0.094100	-1.000255
H102	H	1.677806	-0.088817	-1.109787
H103	H	1.652934	-0.285046	-1.205750
