data_functionalizedCrystal
_audit_creation_method	'MofGen! by Chris Wilmer'
_symmetry_space_group_name_H-M	'P1'
_symmetry_Int_Tables_number	1
_symmetry_cell_setting	triclinic
loop_
_symmetry_equiv_pos_as_xyz
  x,y,z
_cell_length_a	30.700809
_cell_length_b	30.711276
_cell_length_c	30.700862
_cell_angle_alpha	59.998386
_cell_angle_beta	89.999414
_cell_angle_gamma	60.000191
loop_
_atom_site_label
_atom_site_type_symbol
_atom_site_fract_x
_atom_site_fract_y
_atom_site_fract_z
O1	O	-0.371254	-0.311651	0.012944
O2	O	-0.307913	-0.222487	-0.012907
O3	O	-0.307911	-0.311650	0.076286
O4	O	-0.371257	-0.222488	-0.076249
O5	O	-0.235466	-0.384070	0.076286
O6	O	-0.235468	-0.294907	-0.012907
O7	O	-0.298809	-0.384071	0.012944
Zn8	Zn	-0.255636	-0.350987	0.000018
Zn9	Zn	-0.351086	-0.255571	0.000019
O10	O	-0.298812	-0.294908	-0.076249
C11	C	-0.234796	-0.137097	-0.018777
C12	C	-0.261674	-0.083360	-0.015076
C13	C	-0.182374	-0.163176	-0.019143
C14	C	-0.234798	-0.215942	-0.018783
C15	C	-0.261678	-0.246507	-0.015089
C16	C	-0.182376	-0.241901	-0.019150
C17	C	-0.155920	-0.215947	-0.018777
C18	C	-0.098463	-0.246515	-0.015075
C19	C	-0.261132	-0.163172	-0.019150
C20	C	-0.574961	-0.535511	0.039265
C21	C	-0.548506	-0.588283	0.039634
C22	C	-0.496086	-0.535509	0.039262
C23	C	-0.469751	-0.588281	0.039632
C24	C	-0.496085	-0.614360	0.039265
C25	C	-0.548507	-0.509552	0.039632
C26	C	-0.765169	-0.393516	0.024987
C27	C	-0.819034	-0.364488	0.020950
C28	C	-0.846055	-0.389406	0.018925
C29	C	-0.904462	-0.357927	0.014538
C30	C	-0.819206	-0.443357	0.020941
C31	C	-0.765344	-0.472385	0.024984
C32	C	-0.738325	-0.447463	0.027007
C33	C	-0.447920	-0.790230	0.024988
C34	C	-0.423094	-0.840041	0.020951
C35	C	-0.371150	-0.865027	0.018921
C36	C	-0.344230	-0.919028	0.014536
C37	C	-0.344030	-0.840201	0.020935
C38	C	-0.368852	-0.790399	0.024981
C39	C	-0.420803	-0.765414	0.027004
C40	C	-0.447922	-0.393510	0.024977
C41	C	-0.423099	-0.364475	0.020931
C42	C	-0.371152	-0.389391	0.018903
C43	C	-0.344235	-0.357911	0.014513
C44	C	-0.344034	-0.443338	0.020916
C45	C	-0.368860	-0.472368	0.024960
C46	C	-0.420804	-0.447452	0.026995
C47	C	-0.679920	-0.478941	0.031387
C48	C	-0.633366	-0.504032	0.034880
C49	C	-0.469171	-0.504029	0.034875
C50	C	-0.447717	-0.478936	0.031380
C51	C	-0.469170	-0.668361	0.034880
C52	C	-0.447716	-0.711408	0.031386
C53	C	-0.496432	-0.071057	-0.503890
C54	C	-0.548853	-0.018285	-0.530226
C55	C	-0.496432	-0.071056	-0.425015
C56	C	-0.548854	-0.018284	-0.451470
C57	C	-0.575308	0.007793	-0.503892
C58	C	-0.470097	-0.097014	-0.451469
C59	C	-0.368666	-0.213054	-0.552051
C60	C	-0.343664	-0.242084	-0.576877
C61	C	-0.370616	-0.217167	-0.628824
C62	C	-0.343513	-0.248647	-0.655741
C63	C	-0.422570	-0.163216	-0.655945
C64	C	-0.447565	-0.134187	-0.631122
C65	C	-0.420611	-0.159108	-0.579173
C66	C	-0.765518	0.183662	-0.631659
C67	C	-0.819384	0.233473	-0.656662
C68	C	-0.846408	0.258459	-0.629712
C69	C	-0.904813	0.312461	-0.656813
C70	C	-0.819559	0.233635	-0.577758
C71	C	-0.765694	0.183833	-0.552761
C72	C	-0.738677	0.158847	-0.579717
C73	C	-0.368668	-0.213052	-0.234803
C74	C	-0.343669	-0.242086	-0.180935
C75	C	-0.370621	-0.217169	-0.153914
C76	C	-0.343519	-0.248648	-0.095506
C77	C	-0.422573	-0.163222	-0.180762
C78	C	-0.447570	-0.134193	-0.234627
C79	C	-0.420610	-0.159111	-0.261646
C80	C	-0.447720	-0.127629	-0.552258
C81	C	-0.469327	-0.102536	-0.530805
C82	C	-0.469328	-0.102535	-0.366609
C83	C	-0.447721	-0.127627	-0.320054
C84	C	-0.633714	0.061794	-0.530997
C85	C	-0.680269	0.104841	-0.552605
O86	O	0.076277	-0.384081	0.012960
O87	O	-0.076257	-0.294916	-0.012894
O88	O	0.012931	-0.384083	0.076300
O89	O	-0.012910	-0.294914	-0.076234
O90	O	0.012933	-0.311666	0.076306
O91	O	-0.076254	-0.222499	-0.012888
O92	O	0.076280	-0.311664	0.012966
Zn93	Zn	0.000013	-0.255584	0.000040
Zn94	Zn	0.000010	-0.350996	0.000032
O95	O	-0.012908	-0.222497	-0.076228
O96	O	-0.298805	0.063292	0.012964
O97	O	-0.235462	-0.063346	-0.012888
O98	O	-0.235465	-0.063353	0.076305
O99	O	-0.298803	0.063300	-0.076229
O100	O	-0.307912	-0.063350	0.076299
O101	O	-0.307909	-0.063342	-0.012895
O102	O	-0.371252	0.063295	0.012958
Zn103	Zn	-0.351083	-0.000023	0.000031
Zn104	Zn	-0.255631	-0.000027	0.000039
O105	O	-0.371250	0.063303	-0.076236
O106	O	-1.076607	0.456783	-0.692421
O107	O	-0.924074	0.330140	-0.629074
O108	O	-1.013262	0.330138	-0.629073
O109	O	-0.987418	0.456785	-0.692422
O110	O	-1.013261	0.330136	-0.701518
O111	O	-0.924072	0.330138	-0.701518
O112	O	-1.076605	0.456781	-0.764865
Zn113	Zn	-1.000338	0.393459	-0.744694
Zn114	Zn	-1.000340	0.393461	-0.649245
O115	O	-0.987417	0.456783	-0.764866
O116	O	-0.307911	-0.311650	-0.764507
O117	O	-0.371254	-0.222491	-0.701165
O118	O	-0.371252	-0.311652	-0.701162
O119	O	-0.307912	-0.222489	-0.764510
O120	O	-0.298806	-0.384074	-0.628716
O121	O	-0.298807	-0.294912	-0.628719
O122	O	-0.235464	-0.384072	-0.692061
Zn123	Zn	-0.255634	-0.350991	-0.648887
Zn124	Zn	-0.351085	-0.255572	-0.744338
O125	O	-0.235466	-0.294910	-0.692064
C126	C	-0.155920	-0.469469	0.234827
C127	C	-0.098464	-0.523208	0.261706
C128	C	-0.182375	-0.443392	0.261162
C129	C	-0.234797	-0.390619	0.155950
C130	C	-0.261676	-0.360052	0.098494
C131	C	-0.261132	-0.364662	0.182405
C132	C	-0.234797	-0.390620	0.234826
C133	C	-0.261675	-0.360052	0.261704
C134	C	-0.182375	-0.443391	0.182406
C135	C	0.018810	-0.390643	0.234846
C136	C	0.015111	-0.360079	0.261727
C137	C	0.019176	-0.443414	0.261179
C138	C	0.018812	-0.390637	0.155967
C139	C	0.015115	-0.360067	0.098511
C140	C	0.019178	-0.443408	0.182420
C141	C	0.018807	-0.469488	0.234841
C142	C	0.015106	-0.523226	0.261717
C143	C	0.019180	-0.364683	0.182425
C144	C	-0.234799	-0.215977	0.234834
C145	C	-0.261678	-0.246545	0.261708
C146	C	-0.182376	-0.241940	0.261172
C147	C	-0.234798	-0.137119	0.155964
C148	C	-0.261676	-0.083372	0.098509
C149	C	-0.182375	-0.163202	0.182421
C150	C	-0.155921	-0.215981	0.234841
C151	C	-0.098464	-0.246554	0.261721
C152	C	-0.261134	-0.163198	0.182415
C153	C	-0.039199	0.007461	-0.503869
C154	C	-0.039568	-0.018614	-0.530207
C155	C	-0.039203	-0.071390	-0.424995
C156	C	-0.039572	-0.097344	-0.451452
C157	C	-0.039201	-0.071385	-0.503874
C158	C	-0.039570	-0.018618	-0.451448
C159	C	-0.024912	0.183325	-0.552025
C160	C	-0.020873	0.233135	-0.576849
C161	C	-0.018844	0.258123	-0.628796
C162	C	-0.014454	0.312124	-0.655711
C163	C	-0.020859	0.233301	-0.655918
C164	C	-0.024906	0.183500	-0.631097
C165	C	-0.026932	0.158512	-0.579148
C166	C	-0.024920	-0.133799	-0.631644
C167	C	-0.020882	-0.162650	-0.656647
C168	C	-0.018855	-0.216605	-0.629699
C169	C	-0.014470	-0.247897	-0.656801
C170	C	-0.020872	-0.241704	-0.577746
C171	C	-0.024919	-0.212847	-0.552747
C172	C	-0.026939	-0.158893	-0.579702
C173	C	-0.024929	-0.133823	-0.234783
C174	C	-0.020887	-0.162684	-0.180915
C175	C	-0.018862	-0.216639	-0.153896
C176	C	-0.014477	-0.247936	-0.095488
C177	C	-0.020875	-0.241733	-0.180745
C178	C	-0.024915	-0.212872	-0.234610
C179	C	-0.026947	-0.158912	-0.261627
C180	C	-0.031316	0.104507	-0.552235
C181	C	-0.034811	0.061462	-0.530782
C182	C	-0.034820	-0.102682	-0.366590
C183	C	-0.031328	-0.127624	-0.320035
C184	C	-0.034816	-0.102672	-0.530980
C185	C	-0.031322	-0.127610	-0.552588
O186	O	-0.012940	-0.294936	0.371303
O187	O	0.012923	-0.384099	0.307961
O188	O	-0.076273	-0.294935	0.307950
O189	O	0.076257	-0.384100	0.371315
O190	O	-0.076265	-0.222515	0.235508
O191	O	0.012932	-0.311679	0.235520
O192	O	-0.012931	-0.222517	0.298862
Zn193	Zn	0.000002	-0.255600	0.255689
Zn194	Zn	-0.000010	-0.351016	0.351134
O195	O	0.076266	-0.311681	0.298873
C196	C	-0.574962	0.464558	-0.503864
C197	C	-0.548506	0.490518	-0.530195
C198	C	-0.496085	0.385697	-0.424987
C199	C	-0.469749	0.411776	-0.451438
C200	C	-0.496084	0.464555	-0.503857
C201	C	-0.548507	0.411779	-0.451444
C202	C	-0.765173	0.526994	-0.552039
C203	C	-0.819039	0.555852	-0.576867
C204	C	-0.846061	0.609814	-0.628812
C205	C	-0.904469	0.641114	-0.655732
C206	C	-0.819211	0.634913	-0.655928
C207	C	-0.765348	0.606050	-0.631102
C208	C	-0.738329	0.552088	-0.579155
C209	C	-0.447916	0.606561	-0.631604
C210	C	-0.423088	0.635592	-0.656601
C211	C	-0.371143	0.610674	-0.629648
C212	C	-0.344222	0.642150	-0.656742
C213	C	-0.344023	0.556716	-0.577696
C214	C	-0.368845	0.527681	-0.552704
C215	C	-0.420798	0.552613	-0.579664
C216	C	-0.447920	0.209802	-0.234786
C217	C	-0.423096	0.159988	-0.180919
C218	C	-0.371148	0.134996	-0.153895
C219	C	-0.344230	0.080987	-0.095489
C220	C	-0.344029	0.159823	-0.180737
C221	C	-0.368856	0.209637	-0.234602
C222	C	-0.420801	0.234620	-0.261624
C223	C	-0.679923	0.520797	-0.552238
C224	C	-0.633367	0.495853	-0.530781
C225	C	-0.469169	0.331687	-0.366583
C226	C	-0.447714	0.288634	-0.320030
C227	C	-0.469167	0.496035	-0.530956
C228	C	-0.447712	0.521128	-0.552558
H229	H	-0.426680	-0.610102	0.040221
C230	C	-0.318591	-0.134084	-0.020027
C231	C	-0.350738	-0.116596	-0.065913
C232	C	-0.403667	-0.089810	-0.066736
H233	H	-0.330632	-0.098833	-0.020215
H234	H	-0.320647	-0.163036	0.010726
H235	H	-0.348683	-0.087647	-0.096659
H236	H	-0.338713	-0.151836	-0.065736
H237	H	-0.405724	-0.118761	-0.035982
H238	H	-0.415704	-0.054561	-0.066922
H239	H	-0.425485	-0.077946	-0.097866
H240	H	-0.019237	-0.142213	-0.698946
C241	C	-0.503955	-0.075596	-0.660487
C242	C	-0.520073	-0.055500	-0.627631
C243	C	-0.572015	-0.001524	-0.654666
H244	H	-0.527468	-0.083592	-0.669462
H245	H	-0.504741	-0.044610	-0.692136
H246	H	-0.519291	-0.086478	-0.595992
H247	H	-0.496574	-0.047490	-0.618655
H248	H	-0.572801	0.029461	-0.686315
H249	H	-0.595523	-0.009527	-0.663640
H250	H	-0.582955	0.012121	-0.632380
H251	H	-0.743490	0.626486	-0.653184
C252	C	-0.576916	-0.617291	0.040419
C253	C	-0.628588	-0.583133	0.040650
C254	C	-0.654772	-0.609838	0.041374
H255	H	-0.557783	-0.658357	0.071523
H256	H	-0.578769	-0.617501	0.009640
H257	H	-0.626732	-0.582931	0.071426
H258	H	-0.647735	-0.542068	0.009549
H259	H	-0.656624	-0.610048	0.010596
H260	H	-0.635634	-0.650903	0.072479
H261	H	-0.689835	-0.586663	0.041526
H262	H	0.019779	-0.465234	0.161179
H263	H	-0.301364	-0.286010	-0.554791
H264	H	-0.304205	-0.141373	0.161175
H265	H	-0.346713	-0.233351	-0.509753
C266	C	0.019880	-0.472533	0.318582
C267	C	-0.025515	-0.472790	0.321423
C268	C	-0.024881	-0.499618	0.374293
H269	H	0.020015	-0.449474	0.330610
H270	H	0.050969	-0.513624	0.340492
H271	H	-0.056595	-0.431706	0.299521
H272	H	-0.025659	-0.495852	0.309406
H273	H	0.006207	-0.540709	0.396202
H274	H	-0.024745	-0.476556	0.386315
H275	H	-0.055679	-0.499801	0.376228
C276	C	-0.451876	-0.136044	-0.151518
C277	C	-0.465040	-0.076400	-0.176640
C278	C	-0.492042	-0.051343	-0.149723
H279	H	-0.429601	-0.160980	-0.115591
H280	H	-0.483547	-0.134559	-0.152152
H281	H	-0.433375	-0.077889	-0.176001
H282	H	-0.487321	-0.051449	-0.212565
H283	H	-0.523712	-0.049858	-0.150357
H284	H	-0.469764	-0.076283	-0.113797
H285	H	-0.500982	-0.010870	-0.166767
C286	C	-0.153971	-0.472459	0.154091
C287	C	-0.108338	-0.472675	0.151486
C288	C	-0.082159	-0.499433	0.125400
H289	H	-0.177194	-0.449375	0.119001
H290	H	-0.143934	-0.513557	0.173261
H291	H	-0.118376	-0.431584	0.132315
H292	H	-0.085102	-0.495761	0.186569
H293	H	-0.072123	-0.540531	0.144570
H294	H	-0.105387	-0.476347	0.090312
H295	H	-0.051193	-0.499588	0.123634
C296	C	-0.018699	0.260183	-0.547500
C297	C	-0.014735	0.309157	-0.580361
C298	C	-0.012737	0.334093	-0.553344
H299	H	0.011494	0.229370	-0.515845
H300	H	-0.050233	0.274702	-0.538543
H301	H	0.016795	0.294637	-0.589310
H302	H	-0.044924	0.339983	-0.612015
H303	H	-0.044271	0.348611	-0.544388
H304	H	0.017455	0.303275	-0.521691
H305	H	-0.010053	0.367327	-0.575639
H306	H	-0.161139	-0.284365	-0.019743
C307	C	-0.154135	-0.133951	-0.020071
C308	C	-0.182542	-0.073440	-0.065972
C309	C	-0.156545	-0.046493	-0.066867
H310	H	-0.119075	-0.156989	-0.020284
H311	H	-0.152299	-0.133671	0.010671
H312	H	-0.184372	-0.073723	-0.096706
H313	H	-0.217601	-0.050386	-0.065768
H314	H	-0.154709	-0.046213	-0.036125
H315	H	-0.121486	-0.069536	-0.067079
H316	H	-0.175818	-0.005432	-0.098008
H317	H	-0.304201	-0.322192	0.161160
C318	C	-0.339497	0.469154	-0.496275
C319	C	-0.368181	0.478962	-0.462888
C320	C	-0.341166	0.425060	-0.410903
H321	H	-0.305005	0.458417	-0.483726
H322	H	-0.336215	0.436674	-0.496207
H323	H	-0.371457	0.511433	-0.462954
H324	H	-0.402672	0.489691	-0.475421
H325	H	-0.337884	0.392580	-0.410835
H326	H	-0.306675	0.414327	-0.398358
H327	H	-0.360627	0.431706	-0.388244
C328	C	-0.452620	-0.305926	0.018775
C329	C	-0.503418	-0.290330	0.021434
C330	C	-0.530626	-0.236404	0.019459
H331	H	-0.455982	-0.273393	-0.013655
H332	H	-0.433259	-0.312465	0.048071
H333	H	-0.522775	-0.283787	-0.007859
H334	H	-0.500073	-0.322848	0.053862
H335	H	-0.511265	-0.242942	0.048755
H336	H	-0.533984	-0.203875	-0.012971
H337	H	-0.565094	-0.225818	0.021267
H338	H	-0.040166	-0.139808	-0.430213
H339	H	-0.346770	0.229846	-0.256454
C340	C	-0.576833	0.382717	-0.423060
C341	C	-0.579439	0.382472	-0.377414
C342	C	-0.605531	0.355712	-0.351256
H343	H	-0.557680	0.341631	-0.413033
H344	H	-0.611925	0.405827	-0.446306
H345	H	-0.544352	0.359362	-0.354173
H346	H	-0.598595	0.423551	-0.387426
H347	H	-0.640624	0.378821	-0.374502
H348	H	-0.586376	0.314627	-0.341233
H349	H	-0.607307	0.355547	-0.320285
C350	C	-0.736189	0.156659	-0.661003
C351	C	-0.737174	0.202190	-0.707609
C352	C	-0.710157	0.177338	-0.734652
H353	H	-0.753126	0.142122	-0.670026
H354	H	-0.700250	0.123457	-0.638709
H355	H	-0.773106	0.235381	-0.729899
H356	H	-0.720234	0.216731	-0.698601
H357	H	-0.674218	0.144136	-0.712358
H358	H	-0.727097	0.162801	-0.743671
H359	H	-0.710818	0.208225	-0.766274
C360	C	-0.154107	-0.472374	0.318571
C361	C	-0.151521	-0.429589	0.321432
C362	C	-0.125499	-0.456261	0.374310
H363	H	-0.119014	-0.507595	0.330603
H364	H	-0.173312	-0.484260	0.340469
H365	H	-0.132316	-0.417711	0.299543
H366	H	-0.186606	-0.394366	0.309411
H367	H	-0.144704	-0.468147	0.396207
H368	H	-0.090408	-0.491482	0.386337
H369	H	-0.123745	-0.427234	0.376259
H370	H	-0.301736	-0.463624	0.019263
H371	H	-0.161141	-0.284407	0.304244
H372	H	-0.301723	0.536422	-0.555753
H373	H	0.019773	-0.322218	0.161189
H374	H	-0.346767	-0.770191	0.026621
C375	C	-0.154114	-0.134004	0.154123
C376	C	-0.182491	-0.073493	0.139487
C377	C	-0.156468	-0.046581	0.113428
H378	H	-0.152280	-0.133719	0.123105
H379	H	-0.119047	-0.157077	0.177401
H380	H	-0.217549	-0.050425	0.116210
H381	H	-0.184326	-0.073760	0.170495
H382	H	-0.121401	-0.069655	0.136706
H383	H	-0.154635	-0.046301	0.082412
H384	H	-0.175715	-0.005524	0.103498
C385	C	-0.576908	-0.452944	0.040441
C386	C	-0.628575	-0.435689	0.040686
C387	C	-0.654750	-0.383550	0.041435
H388	H	-0.578777	-0.420098	0.009676
H389	H	-0.557749	-0.462133	0.071557
H390	H	-0.647729	-0.426498	0.009573
H391	H	-0.626721	-0.468521	0.071450
H392	H	-0.635591	-0.392739	0.072551
H393	H	-0.656615	-0.350708	0.010669
H394	H	-0.689807	-0.371840	0.041607
C395	C	-0.451752	-0.136279	-0.712329
C396	C	-0.418749	-0.173257	-0.728260
C397	C	-0.445619	-0.148465	-0.780195
H398	H	-0.460723	-0.095815	-0.735906
H399	H	-0.483395	-0.134852	-0.713172
H400	H	-0.387116	-0.174677	-0.727421
H401	H	-0.409776	-0.213722	-0.704697
H402	H	-0.477262	-0.147038	-0.781038
H403	H	-0.454589	-0.108001	-0.803768
H404	H	-0.423232	-0.173554	-0.791009
C405	C	-0.040287	0.010532	-0.587615
C406	C	-0.040487	0.062397	-0.605105
C407	C	-0.041123	0.089241	-0.657975
H408	H	-0.071371	0.022511	-0.609601
H409	H	-0.009488	-0.018420	-0.589626
H410	H	-0.071282	0.091343	-0.603098
H411	H	-0.009406	0.050434	-0.583133
H412	H	-0.010325	0.060289	-0.659986
H413	H	-0.072208	0.101216	-0.679957
H414	H	-0.041254	0.124430	-0.669847
C415	C	-0.040394	0.010590	-0.423225
C416	C	-0.040642	0.062487	-0.457631
C417	C	-0.041411	0.089413	-0.431654
H418	H	-0.009635	-0.018291	-0.392232
H419	H	-0.071515	0.022542	-0.413267
H420	H	-0.009524	0.050534	-0.467582
H421	H	-0.071399	0.091381	-0.488625
H422	H	-0.072532	0.101366	-0.421696
H423	H	-0.010651	0.060529	-0.400662
H424	H	-0.041584	0.124632	-0.454996
C425	C	-0.848494	0.693428	-0.712362
C426	C	-0.823397	0.681477	-0.746917
C427	C	-0.850362	0.735367	-0.798910
H428	H	-0.847889	0.724487	-0.713264
H429	H	-0.884417	0.707025	-0.723294
H430	H	-0.787484	0.667889	-0.735989
H431	H	-0.824002	0.650427	-0.746032
H432	H	-0.886285	0.748964	-0.809842
H433	H	-0.849756	0.766422	-0.799807
H434	H	-0.833341	0.727265	-0.822363
C435	C	-0.412657	-0.153616	-0.423245
C436	C	-0.395150	-0.170870	-0.457651
C437	C	-0.342239	-0.223001	-0.431673
H438	H	-0.410557	-0.186467	-0.392254
H439	H	-0.390738	-0.144419	-0.413284
H440	H	-0.417062	-0.180070	-0.467606
H441	H	-0.397236	-0.138034	-0.488643
H442	H	-0.320321	-0.213804	-0.421711
H443	H	-0.340145	-0.255847	-0.400682
H444	H	-0.330352	-0.234711	-0.455015
H445	H	-0.445180	-0.860248	0.019309
H446	H	-0.490220	-0.373215	0.026628
C447	C	-0.735916	-0.366395	0.027230
C448	C	-0.770947	-0.312955	0.024626
C449	C	-0.744012	-0.287968	0.026707
H450	H	-0.723062	-0.356508	-0.002039
H451	H	-0.706737	-0.395583	0.059684
H452	H	-0.800117	-0.283774	-0.007825
H453	H	-0.783802	-0.322826	0.053892
H454	H	-0.714833	-0.317156	0.059161
H455	H	-0.731160	-0.278085	-0.002563
H456	H	-0.767776	-0.251710	0.024945
C457	C	-0.018737	-0.135326	-0.151868
C458	C	-0.021395	-0.081887	-0.187062
C459	C	-0.019427	-0.056660	-0.160326
H460	H	0.013689	-0.164384	-0.122681
H461	H	-0.048036	-0.125394	-0.139051
H462	H	0.007901	-0.091820	-0.199871
H463	H	-0.053819	-0.052815	-0.216249
H464	H	-0.048726	-0.046729	-0.147509
H465	H	0.013000	-0.085723	-0.131140
H466	H	-0.021235	-0.020396	-0.184202
H467	H	-0.026581	-0.089888	-0.256777
H468	H	-0.570087	0.003544	-0.573301
C469	C	-0.027137	0.156307	-0.495634
C470	C	-0.024524	0.188714	-0.477202
C471	C	-0.026578	0.163845	-0.425260
H472	H	0.002137	0.114201	-0.472903
H473	H	-0.059586	0.159571	-0.495637
H474	H	0.007921	0.185444	-0.477195
H475	H	-0.053795	0.230820	-0.499918
H476	H	-0.059027	0.167109	-0.425263
H477	H	0.002697	0.121740	-0.402534
H478	H	-0.024810	0.185833	-0.412749
H479	H	-0.019210	0.253653	-0.698214
C480	C	-0.027059	0.156618	-0.660619
C481	C	-0.024403	0.189149	-0.711419
C482	C	-0.026376	0.164396	-0.738627
H483	H	-0.059487	0.159861	-0.663979
H484	H	0.002238	0.114516	-0.641258
H485	H	-0.053698	0.231240	-0.730776
H486	H	0.008023	0.185909	-0.708075
H487	H	0.002922	0.122294	-0.719266
H488	H	-0.058804	0.167639	-0.741983
H489	H	-0.024569	0.186460	-0.773095
H490	H	-0.026568	-0.089866	-0.653596
C491	C	-0.018643	-0.300300	-0.548564
C492	C	-0.014657	-0.320210	-0.581569
C493	C	-0.012592	-0.374194	-0.554702
H494	H	-0.050151	-0.292370	-0.539596
H495	H	0.011570	-0.331352	-0.516919
H496	H	-0.044867	-0.289165	-0.613204
H497	H	0.016850	-0.328153	-0.590539
H498	H	0.017621	-0.405245	-0.523057
H499	H	-0.044101	-0.366258	-0.545735
H500	H	-0.009882	-0.387712	-0.577090
C501	C	-0.339317	-0.530953	0.027174
C502	C	-0.288507	-0.546571	0.024549
C503	C	-0.261273	-0.600542	0.026594
H504	H	-0.358635	-0.524477	-0.002100
H505	H	-0.335984	-0.563451	0.059624
H506	H	-0.291842	-0.514081	-0.007898
H507	H	-0.269175	-0.553060	0.053820
H508	H	-0.257940	-0.633040	0.059044
H509	H	-0.280595	-0.594060	-0.002680
H510	H	-0.226794	-0.611148	0.024818
H511	H	-0.570092	0.003538	-0.430229
C512	C	-0.848271	-0.305857	0.018666
C513	C	-0.891257	-0.258112	-0.029179
C514	C	-0.918206	-0.204093	-0.031301
H515	H	-0.824532	-0.295086	0.020416
H516	H	-0.861140	-0.312370	0.047930
H517	H	-0.878388	-0.251599	-0.058436
H518	H	-0.915008	-0.268862	-0.030940
H519	H	-0.931076	-0.210605	-0.002037
H520	H	-0.894463	-0.193328	-0.029549
H521	H	-0.947378	-0.171693	-0.063761
C522	C	-0.504354	0.633664	-0.660810
C523	C	-0.537654	0.648099	-0.632037
C524	C	-0.589649	0.673072	-0.658926
H525	H	-0.504416	0.604514	-0.664055
H526	H	-0.516978	0.669974	-0.695322
H527	H	-0.525033	0.611793	-0.597534
H528	H	-0.537608	0.677254	-0.628791
H529	H	-0.602273	0.709383	-0.693438
H530	H	-0.589705	0.643919	-0.662170
H531	H	-0.612250	0.682874	-0.639410
H532	H	-0.026564	-0.233284	-0.510448
C533	C	-0.027117	-0.240196	-0.263672
C534	C	-0.024491	-0.293616	-0.228486
C535	C	-0.026521	-0.318803	-0.255239
H536	H	0.002161	-0.250148	-0.276505
H537	H	-0.059563	-0.211093	-0.292852
H538	H	0.007951	-0.322713	-0.199315
H539	H	-0.053767	-0.283680	-0.215651
H540	H	-0.058966	-0.289699	-0.284419
H541	H	0.002758	-0.328751	-0.268071
H542	H	-0.024744	-0.355047	-0.231371
C543	C	-0.287253	-0.300633	-0.151888
C544	C	-0.268992	-0.316230	-0.187083
C545	C	-0.217021	-0.370153	-0.160347
H546	H	-0.287136	-0.333168	-0.122703
H547	H	-0.264500	-0.294091	-0.139070
H548	H	-0.291739	-0.322775	-0.199893
H549	H	-0.269097	-0.283710	-0.216269
H550	H	-0.194268	-0.363611	-0.147529
H551	H	-0.216908	-0.402683	-0.131163
H552	H	-0.204622	-0.380739	-0.184225
C553	C	-0.452618	0.133102	-0.151877
C554	C	-0.503417	0.165636	-0.187075
C555	C	-0.530626	0.140880	-0.160344
H556	H	-0.455977	0.136339	-0.122690
H557	H	-0.433258	0.091002	-0.139062
H558	H	-0.522772	0.207726	-0.199882
H559	H	-0.500074	0.162402	-0.216263
H560	H	-0.511266	0.098780	-0.147529
H561	H	-0.533981	0.144118	-0.131157
H562	H	-0.565094	0.162946	-0.184222
C563	C	-0.848641	-0.470297	0.018710
C564	C	-0.901563	-0.433321	0.014725
C565	C	-0.928695	-0.458117	0.012662
H566	H	-0.831738	-0.510761	0.050219
H567	H	-0.848059	-0.471726	-0.011504
H568	H	-0.902143	-0.431899	0.044936
H569	H	-0.918481	-0.392857	-0.016782
H570	H	-0.928112	-0.459546	-0.017552
H571	H	-0.911788	-0.498581	0.044171
H572	H	-0.964607	-0.433030	0.009953
H573	H	-0.019226	-0.285667	-0.158742
H574	H	-0.743487	-0.516312	0.026628
C575	C	-0.412310	0.382566	-0.423035
C576	C	-0.394804	0.330665	-0.371371
C577	C	-0.341895	0.303741	-0.345195
H578	H	-0.410213	0.411446	-0.421159
H579	H	-0.390389	0.370618	-0.442197
H580	H	-0.416719	0.342615	-0.352213
H581	H	-0.396888	0.301772	-0.373231
H582	H	-0.319974	0.291792	-0.364357
H583	H	-0.339803	0.332625	-0.343323
H584	H	-0.330009	0.268520	-0.310140
C585	C	-0.504310	-0.763216	0.027213
C586	C	-0.522740	-0.795628	0.024602
C587	C	-0.574680	-0.770763	0.026657
H588	H	-0.527042	-0.721110	-0.002062
H589	H	-0.504308	-0.766480	0.059662
H590	H	-0.522746	-0.792358	-0.007843
H591	H	-0.500023	-0.837733	0.053875
H592	H	-0.574678	-0.774026	0.059106
H593	H	-0.597407	-0.728657	-0.002619
H594	H	-0.587189	-0.792753	0.024891
C595	C	-0.287644	-0.867393	0.018702
C596	C	-0.271712	-0.916313	0.014717
C597	C	-0.219776	-0.941370	0.012649
H598	H	-0.264069	-0.881994	0.050209
H599	H	-0.286800	-0.836604	-0.011513
H600	H	-0.272552	-0.947096	0.044930
H601	H	-0.295273	-0.901728	-0.016789
H602	H	-0.218932	-0.910581	-0.017566
H603	H	-0.196206	-0.955967	0.044157
H604	H	-0.208961	-0.974561	0.009940
C605	C	-0.576932	0.547182	-0.587606
C606	C	-0.628612	0.564465	-0.605104
C607	C	-0.654818	0.616672	-0.657980
H608	H	-0.557822	0.538076	-0.609583
H609	H	-0.578771	0.579985	-0.589625
H610	H	-0.626770	0.531670	-0.603089
H611	H	-0.647736	0.573584	-0.583142
H612	H	-0.656657	0.649475	-0.659998
H613	H	-0.635703	0.607561	-0.679952
H614	H	-0.689886	0.628409	-0.669857
C615	C	-0.339391	-0.240003	-0.264199
C616	C	-0.334695	-0.196856	-0.307180
C617	C	-0.307728	-0.221658	-0.334272
H618	H	-0.358812	-0.249820	-0.277095
H619	H	-0.304856	-0.276277	-0.240525
H620	H	-0.369224	-0.160593	-0.330851
H621	H	-0.315269	-0.187034	-0.294300
H622	H	-0.273192	-0.257932	-0.310598
H623	H	-0.327152	-0.231475	-0.347164
H624	H	-0.304533	-0.192389	-0.363435
C625	C	-0.735925	0.468391	-0.495651
C626	C	-0.770960	0.452579	-0.477225
C627	C	-0.744032	0.398595	-0.425287
H628	H	-0.723079	0.474925	-0.472914
H629	H	-0.706742	0.435959	-0.495656
H630	H	-0.800133	0.485004	-0.477216
H631	H	-0.783808	0.446032	-0.499947
H632	H	-0.714849	0.366162	-0.425292
H633	H	-0.731186	0.405135	-0.402555
H634	H	-0.767797	0.387856	-0.412780
H635	H	-0.490217	0.230142	-0.256784
C636	C	-0.848536	0.260311	-0.713020
C637	C	-0.847453	0.214689	-0.713993
C638	C	-0.874310	0.239389	-0.765899
H639	H	-0.831535	0.274788	-0.736532
H640	H	-0.884499	0.293533	-0.724056
H641	H	-0.811497	0.181477	-0.702964
H642	H	-0.864458	0.200207	-0.690492
H643	H	-0.910272	0.272612	-0.776935
H644	H	-0.857305	0.253866	-0.789407
H645	H	-0.873582	0.208440	-0.766565
C646	C	-0.287620	0.132588	-0.151314
C647	C	-0.271675	0.083640	-0.098401
C648	C	-0.219715	0.058533	-0.071284
H649	H	-0.286724	0.163327	-0.151865
H650	H	-0.264083	0.118009	-0.168258
H651	H	-0.295205	0.098219	-0.081461
H652	H	-0.272559	0.052887	-0.097834
H653	H	-0.196178	0.043954	-0.088228
H654	H	-0.218823	0.089277	-0.071839
H655	H	-0.208887	0.025315	-0.035381
C656	C	-0.848275	0.528688	-0.547524
C657	C	-0.901228	0.565506	-0.580389
C658	C	-0.928174	0.540497	-0.553377
H659	H	-0.847645	0.527222	-0.515868
H660	H	-0.831267	0.488213	-0.538571
H661	H	-0.918231	0.605970	-0.589334
H662	H	-0.901874	0.566975	-0.612044
H663	H	-0.911166	0.500022	-0.544424
H664	H	-0.927540	0.539033	-0.521722
H665	H	-0.964104	0.565471	-0.575673
C666	C	-0.452636	0.694192	-0.712987
C667	C	-0.503449	0.709819	-0.731236
C668	C	-0.530689	0.763805	-0.783172
H669	H	-0.433325	0.687732	-0.735792
H670	H	-0.455963	0.726678	-0.713030
H671	H	-0.500120	0.677339	-0.731197
H672	H	-0.522774	0.716291	-0.708446
H673	H	-0.534016	0.796292	-0.783215
H674	H	-0.511374	0.757340	-0.805972
H675	H	-0.565170	0.774418	-0.795559
H676	H	-0.841561	0.253985	-0.555818
H677	H	-0.489870	-0.090268	-0.256484
C678	C	-0.736645	0.156952	-0.496348
C679	C	-0.771838	0.189483	-0.478089
C680	C	-0.745100	0.164732	-0.426121
H681	H	-0.707462	0.160196	-0.496237
H682	H	-0.723825	0.114850	-0.473589
H683	H	-0.784651	0.231575	-0.500842
H684	H	-0.801022	0.186241	-0.478187
H685	H	-0.732280	0.122630	-0.403362
H686	H	-0.715917	0.167978	-0.426016
H687	H	-0.768976	0.186797	-0.413724
