data_functionalizedCrystal
_audit_creation_method	'MofGen! by Chris Wilmer'
_symmetry_space_group_name_H-M	'P1'
_symmetry_Int_Tables_number	1
_symmetry_cell_setting	triclinic
loop_
_symmetry_equiv_pos_as_xyz
  x,y,z
_cell_length_a	15.995350
_cell_length_b	23.532357
_cell_length_c	15.072220
_cell_angle_alpha	89.993295
_cell_angle_beta	89.991149
_cell_angle_gamma	83.160334
loop_
_atom_site_label
_atom_site_type_symbol
_atom_site_fract_x
_atom_site_fract_y
_atom_site_fract_z
O1	O	1.110366	0.073406	-0.073718
O2	O	1.610366	0.573406	0.426282
O3	O	0.866513	0.082471	-0.073738
O4	O	1.366513	0.582471	0.426262
O5	O	0.995815	-0.004967	-0.073709
O6	O	1.495815	0.495033	0.426291
O7	O	0.981064	0.160843	-0.073747
O8	O	1.481064	0.660843	0.426253
O9	O	0.995783	-0.004962	0.073856
O10	O	1.495783	0.495038	0.573856
O11	O	0.866481	0.082476	0.073827
O12	O	1.366481	0.582476	0.573827
O13	O	1.110334	0.073410	0.073847
O14	O	1.610334	0.573410	0.573847
Zn15	Zn	0.988403	0.077944	0.097266
Zn16	Zn	1.488403	0.577944	0.597266
Zn17	Zn	0.988444	0.077937	-0.097157
Zn18	Zn	1.488444	0.577937	0.402843
O19	O	0.981032	0.160848	0.073818
O20	O	1.481032	0.660848	0.573818
C21	C	0.835305	0.082098	0.000042
C22	C	1.335305	0.582098	0.500042
C23	C	0.742365	0.080975	0.000036
C24	C	1.242365	0.580975	0.500036
C25	C	0.404652	0.076940	0.000055
C26	C	0.904652	0.576940	0.500055
C27	C	0.452620	0.014668	0.000398
C28	C	0.952620	0.514668	0.500398
C29	C	0.549301	0.015792	0.000059
C30	C	1.049301	0.515792	0.500059
C31	C	0.572195	0.078941	0.000046
C32	C	1.072195	0.578941	0.500046
C33	C	0.530863	0.109653	-0.084224
C34	C	1.030863	0.609653	0.415776
C35	C	0.434240	0.108089	-0.084288
C36	C	0.934240	0.608089	0.415712
C37	C	0.433854	0.109381	0.083520
C38	C	0.933854	0.609381	0.583520
C39	C	0.530800	0.109366	0.084628
C40	C	1.030800	0.609366	0.584628
C41	C	0.666883	0.080076	0.000038
C42	C	1.166883	0.580076	0.500038
C43	C	0.309964	0.075807	0.000057
C44	C	0.809964	0.575807	0.500057
C45	C	0.995430	-0.026183	0.000076
C46	C	1.495430	0.473817	0.500076
C47	C	0.994321	-0.089406	0.000084
C48	C	1.494321	0.410594	0.500084
C49	C	0.987374	-0.481446	-0.080402
C50	C	1.487374	0.018554	0.419598
C51	C	0.986319	-0.540850	-0.080407
C52	C	1.486319	-0.040850	0.419593
O53	O	0.985760	-0.571571	-0.148816
O54	O	1.485760	-0.071571	0.351184
N55	N	0.985779	-0.570560	0.000029
N56	N	1.485779	-0.070560	0.500029
C57	C	0.986285	-0.540864	0.080476
C58	C	1.486285	-0.040864	0.580476
O59	O	0.985728	-0.571589	0.148894
O60	O	1.485728	-0.071589	0.648894
C61	C	0.987333	-0.481461	0.080481
C62	C	1.487333	0.018539	0.580481
C63	C	0.987882	-0.451754	0.000039
C64	C	1.487882	0.048246	0.500039
C65	C	0.987922	-0.451740	-0.160837
C66	C	1.487922	0.048260	0.339163
C67	C	0.988978	-0.392340	-0.160832
C68	C	1.488978	0.107660	0.339168
C69	C	0.989486	-0.362648	-0.080391
C70	C	1.489486	0.137352	0.419609
C71	C	0.988938	-0.392355	0.000044
C72	C	1.488938	0.107645	0.500044
C73	C	0.987833	-0.451764	0.160927
C74	C	1.487833	0.048236	0.660927
C75	C	0.988881	-0.392357	0.160924
C76	C	1.488881	0.107643	0.660924
C77	C	0.989430	-0.362651	0.080482
C78	C	1.489430	0.137349	0.580482
C79	C	0.990502	-0.303263	0.080491
C80	C	1.490502	0.196737	0.580491
N81	N	0.991043	-0.273553	0.000054
N82	N	1.491043	0.226447	0.500054
C83	C	0.990534	-0.303245	-0.080387
C84	C	1.490534	0.196755	0.419613
C85	C	0.984082	-0.665614	0.080461
C86	C	1.484082	-0.165614	0.580461
C87	C	0.983039	-0.725016	0.080458
C88	C	1.483039	-0.225016	0.580458
C89	C	0.983072	-0.724998	-0.080426
C90	C	1.483072	-0.224998	0.419574
C91	C	0.984121	-0.665595	-0.080422
C92	C	1.484121	-0.165595	0.419578
C93	C	0.984622	-0.635903	0.000025
C94	C	1.484622	-0.135903	0.500025
C95	C	0.992753	-0.178502	-0.080369
C96	C	1.492753	0.321498	0.419631
C97	C	0.993812	-0.119098	-0.080357
C98	C	1.493812	0.380902	0.419643
C99	C	0.993775	-0.119121	0.080527
C100	C	1.493775	0.380879	0.580527
C101	C	0.992720	-0.178520	0.080515
C102	C	1.492720	0.321480	0.580515
C103	C	0.992206	-0.208209	0.000059
C104	C	1.492206	0.291791	0.500059
O105	O	0.991059	-0.272504	0.148865
O106	O	1.491059	0.227496	0.648865
O107	O	0.991081	-0.272511	-0.148792
O108	O	1.491081	0.227489	0.351208
C109	C	1.141542	0.073783	0.000064
C110	C	1.641542	0.573783	0.500064
C111	C	1.234482	0.074906	0.000065
C112	C	1.734482	0.574906	0.500065
C113	C	0.981417	0.182064	0.000031
C114	C	1.481417	0.682064	0.500031
C115	C	0.982527	0.245287	0.000017
C116	C	1.482527	0.745287	0.500017
N117	N	0.988380	0.077948	0.229955
N118	N	1.488380	0.577948	0.729955
N119	N	0.988474	0.077929	-0.229846
N120	N	1.488474	0.577929	0.270154
C121	C	0.988443	0.077935	0.589156
C122	C	1.488443	0.577935	1.089156
C123	C	0.919026	0.124564	0.551534
C124	C	1.419026	0.624564	1.051534
C125	C	0.919183	0.124735	0.448708
C126	C	1.419183	0.624735	0.948708
C127	C	0.988411	0.077941	0.410952
C128	C	1.488411	0.577941	0.910952
C129	C	1.075664	0.090920	0.448247
C130	C	1.575664	0.590920	0.948247
C131	C	1.075275	0.091252	0.551105
C132	C	1.575275	0.591252	1.051105
C133	C	0.971386	0.018189	0.551269
C134	C	1.471386	0.518189	1.051269
C135	C	0.969378	0.018587	0.448405
C136	C	1.469378	0.518587	0.948405
C137	C	0.988398	0.077944	0.310239
C138	C	1.488398	0.577944	0.810239
C139	C	0.988461	0.077934	0.689870
C140	C	1.488461	0.577934	1.189870
H141	H	0.559434	0.088318	-0.146931
H142	H	1.059434	0.588318	0.353069
H143	H	0.853942	0.116959	0.576292
H144	H	1.353942	0.616959	1.076292
H145	H	0.558295	0.086947	0.146971
H146	H	1.058295	0.586947	0.646971
H147	H	0.982605	-0.749199	0.145962
H148	H	1.482605	-0.249199	0.645962
H149	H	0.401600	0.153807	-0.088122
H150	H	0.901600	0.653807	0.411878
H151	H	0.987505	-0.475909	-0.226346
H152	H	1.487505	0.024091	0.273654
H153	H	0.929713	0.168652	0.577364
H154	H	1.429713	0.668652	1.077364
H155	H	0.989421	-0.368158	-0.226336
H156	H	1.489421	0.131842	0.273664
H157	H	0.930022	0.169072	0.424085
H158	H	1.430022	0.669072	0.924085
H159	H	0.982656	-0.749184	-0.145925
H160	H	1.482656	-0.249184	0.354075
H161	H	1.128532	0.057861	0.423789
H162	H	1.628532	0.557861	0.923789
H163	H	0.984566	-0.641412	-0.145925
H164	H	1.484566	-0.141412	0.354075
H165	H	1.090383	0.134824	0.575078
H166	H	1.590383	0.634824	1.075078
H167	H	0.577924	-0.008349	0.060468
H168	H	1.077924	0.491651	0.560468
H169	H	1.128516	0.058628	0.575991
H170	H	1.628516	0.558628	1.075991
H171	H	0.545769	0.155417	0.089708
H172	H	1.045769	0.655417	0.589708
H173	H	0.413480	0.089025	0.147395
H174	H	0.913480	0.589025	0.647395
H175	H	0.994192	-0.094935	0.146020
H176	H	1.494192	0.405065	0.646020
H177	H	0.401699	0.155293	0.084080
H178	H	0.901699	0.655293	0.584080
H179	H	0.854310	0.117002	0.423494
H180	H	1.354310	0.617002	0.923494
H181	H	1.091147	0.133996	0.422469
H182	H	1.591147	0.633996	0.922469
H183	H	0.909170	0.005708	0.577257
H184	H	1.409170	0.505708	1.077257
H185	H	0.544590	0.156047	-0.087368
H186	H	1.044590	0.656047	0.412632
H187	H	0.905196	0.008737	0.424030
H188	H	1.405196	0.508737	0.924030
H189	H	1.022014	-0.016512	0.575598
H190	H	1.522014	0.483488	1.075598
H191	H	0.994261	-0.094914	-0.145865
H192	H	1.494261	0.405086	0.354135
H193	H	0.992330	-0.202668	-0.145884
H194	H	1.492330	0.297332	0.354116
H195	H	0.984492	-0.641442	0.145975
H196	H	1.484492	-0.141442	0.645975
H197	H	1.016692	-0.017738	0.422708
H198	H	1.516692	0.482262	0.922708
H199	H	0.434299	-0.010221	0.060833
H200	H	0.934299	0.489779	0.560833
H201	H	0.433252	-0.010111	-0.059691
H202	H	0.933252	0.489889	0.440309
H203	H	0.989277	-0.368184	0.226435
H204	H	1.489277	0.131816	0.726435
H205	H	0.577380	-0.008516	-0.060444
H206	H	1.077380	0.491484	0.439556
H207	H	0.987388	-0.475942	0.226431
H208	H	1.487388	0.024058	0.726431
H209	H	0.416138	0.085688	-0.147273
H210	H	0.916138	0.585688	0.352727
H211	H	0.992281	-0.202709	0.146017
H212	H	1.492281	0.297291	0.646017
