data_functionalizedCrystal
_audit_creation_method	'MofGen! by Chris Wilmer'
_symmetry_space_group_name_H-M	'P1'
_symmetry_Int_Tables_number	1
_symmetry_cell_setting	triclinic
loop_
_symmetry_equiv_pos_as_xyz
  x,y,z
_cell_length_a	16.120490
_cell_length_b	12.594516
_cell_length_c	16.120297
_cell_angle_alpha	92.876309
_cell_angle_beta	90.129683
_cell_angle_gamma	87.104371
loop_
_atom_site_label
_atom_site_type_symbol
_atom_site_fract_x
_atom_site_fract_y
_atom_site_fract_z
Zn1	Zn	1.247532	-0.539337	-0.534562
Zn2	Zn	1.254509	-0.708781	-0.395513
Zn3	Zn	1.115519	-0.521341	-0.388482
Zn4	Zn	1.108465	-0.707790	-0.527485
O5	O	1.181506	-0.619312	-0.461510
O6	O	1.364825	-0.569759	-0.522020
O7	O	1.241944	-0.676800	-0.278214
O8	O	1.133062	-0.374786	-0.407879
O9	O	1.369952	-0.694249	-0.419862
O10	O	1.230052	-0.388007	-0.515203
O11	O	1.139828	-0.539089	-0.273049
O12	O	0.998215	-0.538129	-0.401017
O13	O	1.121040	-0.692561	-0.644790
O14	O	0.993032	-0.675112	-0.503142
O15	O	1.223212	-0.568799	-0.649989
O16	O	1.235104	-0.857592	-0.413000
O17	O	1.127806	-0.856864	-0.509960
C18	C	0.965450	-0.604561	-0.450550
C19	C	0.873020	-0.598277	-0.445880
C20	C	0.660066	-0.651900	-0.485733
C21	C	0.703793	-0.586814	-0.437354
C22	C	0.797960	-0.593194	-0.442099
C23	C	0.565891	-0.645521	-0.480988
C24	C	1.181468	-0.895850	-0.461494
C25	C	1.181527	-1.014161	-0.461519
C26	C	1.239948	-1.083779	-0.408845
C27	C	1.256420	-1.160534	-0.485772
C28	C	1.165156	-1.148214	-0.384645
C29	C	1.198036	-1.089362	-0.538487
C30	C	1.106739	-1.077031	-0.437308
C31	C	1.123180	-1.153756	-0.514286
C32	C	1.398405	-0.634122	-0.472515
C33	C	1.490835	-0.640433	-0.477204
C34	C	1.170561	-0.632577	-0.678406
C35	C	1.165897	-0.638230	-0.770833
C36	C	1.181566	-0.341698	-0.461546
C37	C	1.181591	-0.223395	-0.461562
C38	C	1.157351	-0.648524	-0.940059
C39	C	1.205825	-0.589793	-0.983822
C40	C	1.201070	-0.595520	-1.077985
C41	C	1.162105	-0.642798	-0.845887
C42	C	1.192456	-0.606026	-0.245462
C43	C	1.197282	-0.600084	-0.153042
H44	H	1.319693	-1.197004	-0.506272
H45	H	1.043486	-1.040538	-0.416786
O46	O	1.214705	-1.058277	-0.616036
C47	C	1.233320	-0.911198	-0.703024
C48	C	1.214449	-0.946258	-0.615161
H49	H	1.233102	-0.820628	-0.702350
H50	H	1.296914	-0.946324	-0.723799
H51	H	1.183851	-0.940696	-0.747989
H52	H	1.263864	-0.916770	-0.570136
H53	H	1.150831	-0.911144	-0.594456
O54	O	1.298824	-1.046926	-0.355758
C55	C	1.364330	-0.893325	-0.295776
C56	C	1.297609	-0.934916	-0.355902
H57	H	1.363382	-0.802762	-0.295885
H58	H	1.350979	-0.918545	-0.230392
H59	H	1.428072	-0.927895	-0.316584
H60	H	1.233841	-0.900365	-0.335170
H61	H	1.311032	-0.909707	-0.421273
O62	O	0.699900	-0.724064	-0.539317
C63	C	0.831445	-0.796224	-0.593008
C64	C	0.786427	-0.714464	-0.532278
H65	H	0.901409	-0.788475	-0.587350
H66	H	0.815230	-0.880015	-0.577445
H67	H	0.811014	-0.780659	-0.659237
H68	H	0.806834	-0.729930	-0.466028
H69	H	0.802643	-0.630700	-0.547912
O70	O	1.064358	-1.190166	-0.567627
C71	C	1.015188	-1.201443	-0.708913
C72	C	1.081864	-1.160166	-0.648597
H73	H	1.029308	-1.177185	-0.774387
H74	H	1.015277	-1.291918	-0.708212
H75	H	0.951575	-1.165719	-0.688773
H76	H	1.145509	-1.195811	-0.668694
H77	H	1.081701	-1.069688	-0.649306
O78	O	1.259511	-0.524515	-0.944201
C79	C	1.301284	-0.344634	-0.919545
C80	C	1.240419	-0.418433	-0.964448
H81	H	1.285881	-0.258854	-0.935912
H82	H	1.295594	-0.351454	-0.849557
H83	H	1.367482	-0.368980	-0.939970
H84	H	1.174195	-0.394136	-0.944091
H85	H	1.246182	-0.411603	-1.034428
O86	O	1.103659	-0.713624	-0.979852
C87	C	1.049859	-0.778677	-1.111356
C88	C	1.110711	-0.704924	-1.066384
H89	H	1.055527	-0.771652	-1.181324
H90	H	1.065289	-0.864511	-1.095144
H91	H	0.983661	-0.754412	-1.090883
H92	H	1.176930	-0.729093	-1.086833
H93	H	1.095209	-0.619109	-1.082597
H94	H	1.151283	-1.174266	-0.319617
H95	H	0.670508	-0.526301	-0.392372
