data_functionalizedCrystal
_audit_creation_method	'MofGen! by Chris Wilmer'
_symmetry_space_group_name_H-M	'P1'
_symmetry_Int_Tables_number	1
_symmetry_cell_setting	triclinic
loop_
_symmetry_equiv_pos_as_xyz
  x,y,z
_cell_length_a	14.971506
_cell_length_b	14.971486
_cell_length_c	14.048226
_cell_angle_alpha	89.998499
_cell_angle_beta	89.995147
_cell_angle_gamma	83.618258
loop_
_atom_site_label
_atom_site_type_symbol
_atom_site_fract_x
_atom_site_fract_y
_atom_site_fract_z
O1	O	0.116563	1.186955	-0.079048
O2	O	0.130522	0.926556	-0.079073
O3	O	-0.006656	1.063726	-0.079057
O4	O	0.253742	1.049786	-0.079064
O5	O	-0.006664	1.063709	0.079264
O6	O	0.130514	0.926540	0.079248
O7	O	0.116555	1.186939	0.079274
Zn8	Zn	0.123533	1.056737	0.104398
Zn9	Zn	0.123544	1.056759	-0.104197
O10	O	0.253734	1.049769	0.079258
C11	C	0.129894	0.893223	0.000084
C12	C	0.128023	0.793926	0.000074
C13	C	-0.039984	1.063091	0.000102
C14	C	-0.139281	1.061213	0.000098
C15	C	0.208612	0.736707	0.000074
C16	C	0.206849	0.643407	0.000088
C17	C	0.124496	0.607329	0.000096
C18	C	0.043901	0.664556	0.000099
C19	C	0.045665	0.757853	0.000092
C20	C	0.040230	0.470093	0.000113
C21	C	0.038466	0.376789	0.000118
C22	C	0.201414	0.355647	0.000109
C23	C	0.203178	0.448944	0.000101
C24	C	0.122582	0.506165	0.000103
C25	C	-0.577563	1.134631	0.000105
C26	C	-0.484263	1.136389	0.000112
C27	C	-0.427043	1.055796	0.000100
C28	C	-0.463127	0.973441	0.000092
C29	C	-0.556426	0.971685	0.000093
C30	C	-0.268664	0.977108	0.000089
C31	C	-0.175359	0.978864	0.000087
C32	C	-0.196501	1.141812	0.000108
C33	C	-0.289800	1.140055	0.000108
C34	C	-0.325878	1.057700	0.000099
C35	C	0.287062	1.050404	0.000096
C36	C	0.386358	1.052282	0.000094
C37	C	0.117184	1.220272	0.000114
C38	C	0.119054	1.319569	0.000118
N39	N	0.123526	1.056728	0.246758
N40	N	0.123545	1.056774	-0.246558
C41	C	0.062808	1.117486	0.296584
C42	C	0.062808	1.117492	0.396241
C43	C	0.123530	1.056744	0.446072
C44	C	0.184250	0.995980	0.396240
C45	C	0.184245	0.995970	0.296584
C46	C	0.184256	0.996006	0.603954
C47	C	0.184262	0.996016	0.703617
C48	C	0.062819	1.117528	0.703611
C49	C	0.062814	1.117518	0.603955
C50	C	0.123536	1.056755	0.554130
H51	H	0.275673	0.766074	0.000066
H52	H	0.233700	0.946523	0.563390
H53	H	-0.624146	1.200259	0.000107
Cl54	Cl	0.260583	0.919605	0.458882
Cl55	Cl	-0.391194	0.872124	0.000082
H56	H	0.013365	1.166958	0.256018
Cl57	Cl	-0.314018	0.873574	0.000082
Cl58	Cl	0.260600	0.919641	0.766254
H59	H	0.272472	0.596822	0.000086
H60	H	0.233686	0.946494	0.256017
H61	H	0.270236	0.478316	0.000086
Cl62	Cl	-0.013516	1.193892	0.541309
Cl63	Cl	-0.438911	1.239918	0.000101
H64	H	-0.128772	0.913239	0.000083
H65	H	0.267037	0.309053	0.000111
Cl66	Cl	-0.065064	0.331434	0.000160
H67	H	0.013367	1.166965	0.436808
H68	H	-0.585799	0.904628	0.000092
Cl69	Cl	-0.151147	1.245345	0.000119
Cl70	Cl	-0.061091	0.542026	0.000116
Cl71	Cl	-0.059628	0.619200	0.000115
H72	H	0.013377	1.167003	0.744185
H73	H	-0.019958	0.804441	0.000092
H74	H	-0.336387	1.205681	0.000111
