data_functionalizedCrystal
_audit_creation_method	'MofGen! by Chris Wilmer'
_symmetry_space_group_name_H-M	'P1'
_symmetry_Int_Tables_number	1
_symmetry_cell_setting	triclinic
loop_
_symmetry_equiv_pos_as_xyz
  x,y,z
_cell_length_a	14.044220
_cell_length_b	10.654550
_cell_length_c	9.730223
_cell_angle_alpha	90.003749
_cell_angle_beta	89.997406
_cell_angle_gamma	91.163110
loop_
_atom_site_label
_atom_site_type_symbol
_atom_site_fract_x
_atom_site_fract_y
_atom_site_fract_z
O1	O	0.133227	-1.681222	-0.114408
O2	O	0.145921	-1.317019	-0.114387
O3	O	0.001554	-1.493654	-0.114384
O4	O	0.277595	-1.504587	-0.114411
O5	O	0.001557	-1.493652	0.114196
O6	O	0.145925	-1.317017	0.114193
O7	O	0.133231	-1.681220	0.114172
Zn8	Zn	0.139578	-1.499118	0.150474
Zn9	Zn	0.139574	-1.499121	-0.150689
O10	O	0.277598	-1.504585	0.114169
C11	C	0.144991	-1.270127	-0.000094
C12	C	0.142202	-1.130403	-0.000085
C13	C	-0.033790	-1.488867	-0.000093
C14	C	-0.139110	-1.474592	-0.000090
N15	N	0.139581	-1.499126	0.356011
C16	C	-0.331943	-1.448493	-0.000108
C17	C	-0.388911	-1.549741	-0.000119
C18	C	-0.496210	-1.535219	-0.000129
C19	C	-0.224634	-1.463013	-0.000098
C20	C	0.312942	-1.509372	-0.000125
C21	C	0.418262	-1.523648	-0.000137
C22	C	0.134161	-1.728113	-0.000124
C23	C	0.136950	-1.867836	-0.000142
C24	C	0.227203	-1.059459	-0.000114
C25	C	0.224578	-0.928175	-0.000137
C26	C	0.051942	-0.938790	-0.000109
C27	C	0.054569	-1.070072	-0.000076
C28	C	0.326873	-1.053329	-0.000136
C29	C	0.324247	-0.922045	-0.000159
N30	N	0.139563	-1.499123	-0.356226
C31	C	0.075677	-1.577364	0.427938
C32	C	0.075666	-1.577359	0.571821
C33	C	0.203470	-1.420876	0.571837
C34	C	0.203477	-1.420875	0.427956
C35	C	0.001893	-1.667713	0.427931
C36	C	0.001881	-1.667708	0.571814
H37	H	-0.363754	-1.350913	-0.000106
C38	C	-0.037823	-1.146878	-0.000096
C39	C	-0.115126	-1.065939	-0.000130
C40	C	-0.200255	-1.136647	-0.000163
H41	H	-0.040512	-1.198300	0.079609
H42	H	-0.040449	-1.198312	-0.079823
H43	H	-0.112501	-1.014526	0.079589
H44	H	-0.112469	-1.014516	-0.079829
H45	H	-0.202882	-1.188081	-0.079891
H46	H	-0.202935	-1.188067	0.079543
H47	H	-0.252715	-1.081741	-0.000199
C48	C	-0.043104	-0.873051	-0.000178
C49	C	-0.027214	-0.742894	-0.000243
C50	C	-0.114750	-0.682299	-0.000328
H51	H	-0.078211	-0.896581	0.079520
H52	H	-0.078151	-0.896694	-0.079913
H53	H	0.007818	-0.719261	0.079483
H54	H	0.007878	-0.719328	-0.079935
H55	H	-0.149796	-0.705942	-0.080062
H56	H	-0.149850	-0.705839	0.079372
H57	H	-0.103980	-0.593982	-0.000384
C58	C	0.374311	-0.871172	-0.127610
C59	C	0.371575	-0.739884	-0.127279
C60	C	0.417691	-0.692976	-0.244651
H61	H	0.343079	-0.902698	-0.207419
H62	H	0.438694	-0.896870	-0.127628
H63	H	0.307204	-0.714198	-0.127274
H64	H	0.402813	-0.708324	-0.047496
H65	H	0.482074	-0.718674	-0.244669
H66	H	0.386454	-0.724511	-0.324451
H67	H	0.415849	-0.603893	-0.244436
C68	C	0.378834	-1.097429	0.127532
C69	C	0.407993	-0.993156	0.205593
C70	C	0.455847	-1.033733	0.323216
H71	H	0.433012	-1.143625	0.101147
H72	H	0.337325	-1.149478	0.180772
H73	H	0.449499	-0.941128	0.152364
H74	H	0.353833	-0.946949	0.232014
H75	H	0.414339	-1.085782	0.376455
H76	H	0.510021	-1.079930	0.296817
H77	H	0.475629	-0.962992	0.376201
C78	C	-0.095264	-1.629409	0.375583
C79	C	-0.095008	-1.629535	0.231689
C80	C	-0.184490	-1.594263	0.183418
H81	H	-0.108899	-1.547614	0.407983
H82	H	-0.142505	-1.687214	0.408032
H83	H	-0.047781	-1.571732	0.199253
H84	H	-0.081390	-1.711318	0.199252
H85	H	-0.231731	-1.652068	0.215867
H86	H	-0.198116	-1.512469	0.215827
H87	H	-0.184330	-1.594354	0.085782
C88	C	0.273008	-1.336081	0.349941
C89	C	0.366367	-1.366905	0.384917
C90	C	0.430448	-1.288827	0.313066
H91	H	0.262236	-1.251016	0.373472
H92	H	0.263930	-1.347293	0.253932
H93	H	0.375442	-1.355683	0.480905
H94	H	0.377170	-1.451957	0.361383
H95	H	0.421369	-1.300039	0.217057
H96	H	0.419667	-1.203766	0.336602
H97	H	0.493799	-1.309738	0.336778
H98	H	-0.357098	-1.647328	-0.000217
H99	H	0.354370	-0.879400	0.098522
H100	H	0.358608	-1.092175	-0.098826
H101	H	0.255492	-1.357165	0.630430
H102	H	0.024996	-1.761218	0.383296
C103	C	-0.089896	-1.617576	0.631387
C104	C	-0.069107	-1.511846	0.712278
C105	C	-0.153629	-1.465622	0.767157
H106	H	-0.119890	-1.680506	0.686419
H107	H	-0.131335	-1.594990	0.558698
H108	H	-0.027683	-1.534436	0.784957
H109	H	-0.039126	-1.448890	0.657276
H110	H	-0.195068	-1.443036	0.694468
H111	H	-0.183616	-1.528560	0.822183
H112	H	-0.139536	-1.393873	0.822037
C113	C	0.023606	-1.798639	0.623618
C114	C	0.036906	-1.878731	0.511462
C115	C	0.056930	-1.999344	0.559131
H116	H	-0.028079	-1.829338	0.677813
H117	H	0.079866	-1.795428	0.677823
H118	H	-0.019348	-1.881946	0.457280
H119	H	0.088593	-1.848072	0.457256
H120	H	0.113190	-1.996132	0.613336
H121	H	0.005242	-2.030030	0.613326
H122	H	0.065965	-2.053698	0.483042
