data_functionalizedCrystal
_audit_creation_method	'MofGen! by Chris Wilmer'
_symmetry_space_group_name_H-M	'P1'
_symmetry_Int_Tables_number	1
_symmetry_cell_setting	triclinic
loop_
_symmetry_equiv_pos_as_xyz
  x,y,z
_cell_length_a	19.288862
_cell_length_b	12.996460
_cell_length_c	19.288857
_cell_angle_alpha	90.008298
_cell_angle_beta	96.865805
_cell_angle_gamma	89.977761
loop_
_atom_site_label
_atom_site_type_symbol
_atom_site_fract_x
_atom_site_fract_y
_atom_site_fract_z
O1	O	-0.921348	0.085969	0.086641
O2	O	-0.421348	0.585969	0.586641
O3	O	-0.719087	0.085884	0.098332
O4	O	-0.219087	0.585884	0.598332
O5	O	-0.826064	0.085916	-0.008644
O6	O	-0.326064	0.585916	0.491356
O7	O	-0.814370	0.085936	0.193617
O8	O	-0.314370	0.585936	0.693617
O9	O	-0.826053	-0.085217	-0.008650
O10	O	-0.326053	0.414783	0.491350
O11	O	-0.719076	-0.085250	0.098326
O12	O	-0.219076	0.414750	0.598326
O13	O	-0.921337	-0.085165	0.086636
O14	O	-0.421337	0.414835	0.586636
Cu15	Cu	-0.820205	-0.100833	0.092480
Cu16	Cu	-0.320205	0.399167	0.592480
Cu17	Cu	-0.820218	0.101552	0.092487
Cu18	Cu	-0.320218	0.601552	0.592487
O19	O	-0.814359	-0.085198	0.193612
O20	O	-0.314359	0.414802	0.693612
C21	C	-0.693205	0.000306	0.097953
C22	C	-0.193205	0.500306	0.597953
C23	C	-0.616101	0.000274	0.096825
C24	C	-0.116101	0.500274	0.596825
N25	N	-0.820201	-0.243180	0.092475
N26	N	-0.320201	0.256820	0.592475
C27	C	-0.571403	0.000293	0.159593
C28	C	-0.071403	0.500293	0.659593
C29	C	-0.498956	0.000299	0.158533
C30	C	0.001044	0.500299	0.658533
C31	C	-0.471210	0.000306	0.094701
C32	C	0.028790	0.500306	0.594701
C33	C	-0.515918	0.000281	0.031924
C34	C	-0.015918	0.500281	0.531924
C35	C	-0.588363	0.000265	0.032986
C36	C	-0.088363	0.500265	0.532986
C37	C	-0.362953	0.060284	0.044525
C38	C	0.137047	0.560284	0.544525
C39	C	-0.290509	0.060306	0.043465
C40	C	0.209491	0.560306	0.543465
C41	C	-0.247764	0.000352	0.091423
C42	C	0.252236	0.500352	0.591423
C43	C	-0.277472	-0.059612	0.140452
C44	C	0.222528	0.440388	0.640452
C45	C	-0.349917	-0.059628	0.141514
C46	C	0.150083	0.440372	0.641514
C47	C	-0.392656	0.000323	0.093543
C48	C	0.107344	0.500323	0.593543
C49	C	-0.124510	0.000376	0.153047
C50	C	0.375490	0.500376	0.653047
C51	C	-0.052062	0.000376	0.151984
C52	C	0.447938	0.500376	0.651984
C53	C	-0.069026	0.000369	0.025373
C54	C	0.430974	0.500369	0.525373
C55	C	-0.141472	0.000359	0.026438
C56	C	0.358528	0.500359	0.526438
C57	C	-0.169210	0.000367	0.090276
C58	C	0.330790	0.500367	0.590276
C59	C	-0.820217	-0.662995	0.092488
C60	C	-0.320217	-0.162995	0.592488
C61	C	-0.820211	-0.546190	0.092487
C62	C	-0.320211	-0.046190	0.592487
C63	C	-0.820210	-0.453091	0.092482
C64	C	-0.320210	0.046909	0.592482
C65	C	-0.820202	-0.336279	0.092480
C66	C	-0.320202	0.163721	0.592480
C67	C	0.052781	0.000397	0.087017
C68	C	0.552781	0.500397	0.587017
C69	C	-0.024321	0.000382	0.088151
C70	C	0.475679	0.500382	0.588151
C71	C	-0.825684	0.000348	-0.034523
C72	C	-0.325684	0.500348	0.465477
C73	C	-0.824557	0.000345	-0.111627
C74	C	-0.324557	0.500345	0.388373
N75	N	-0.820228	0.243899	0.092487
N76	N	-0.320228	0.743899	0.592487
C77	C	-0.824037	0.093630	-0.147835
C78	C	-0.324037	0.593630	0.352165
C79	C	-0.822968	0.093637	-0.220281
C80	C	-0.322968	0.593637	0.279719
C81	C	-0.822433	0.000354	-0.256518
C82	C	-0.322433	0.500354	0.243482
C83	C	-0.822949	-0.092943	-0.220302
C84	C	-0.322949	0.407057	0.279698
C85	C	-0.824011	-0.092948	-0.147856
C86	C	-0.324011	0.407052	0.352144
C87	C	-0.861430	-0.071090	-0.376753
C88	C	-0.361430	0.428910	0.123247
C89	C	-0.860373	-0.071081	-0.449197
C90	C	-0.360373	0.428919	0.050803
C91	C	-0.819156	0.000364	-0.479964
C92	C	-0.319156	0.500364	0.020036
C93	C	-0.779005	0.071819	-0.438279
C94	C	-0.279005	0.571819	0.061721
C95	C	-0.780066	0.071815	-0.365833
C96	C	-0.280066	0.571815	0.134167
C97	C	-0.821282	0.000349	-0.335073
C98	C	-0.321282	0.500349	0.164927
C99	C	-0.817476	0.093664	-0.594726
C100	C	-0.317476	0.593664	-0.094726
C101	C	-0.816403	0.093667	-0.667173
C102	C	-0.316403	0.593667	-0.167173
C103	C	-0.816391	-0.092916	-0.667193
C104	C	-0.316391	0.407084	-0.167193
C105	C	-0.817457	-0.092917	-0.594747
C106	C	-0.317457	0.407083	-0.094747
C107	C	-0.818003	0.000376	-0.558518
C108	C	-0.318003	0.500376	-0.058518
C109	C	-0.814740	0.000373	0.219491
C110	C	-0.314740	0.500373	0.719491
C111	C	-0.815867	0.000383	0.296595
C112	C	-0.315867	0.500383	0.796595
H113	H	-0.593982	0.000302	0.211576
H114	H	-0.093982	0.500302	0.711576
F115	F	-0.189045	0.000343	-0.040370
F116	F	0.310955	0.500343	0.459630
H117	H	-0.046436	0.000438	-0.026600
H118	H	0.453564	0.500438	0.473400
H119	H	-0.624757	0.000250	-0.018129
H120	H	-0.124757	0.500250	0.481871
F121	F	-0.824614	0.192921	-0.109281
F122	F	-0.324614	0.692921	0.390719
F123	F	-0.818010	-0.192205	-0.556211
F124	F	-0.318010	0.307795	-0.056211
F125	F	-0.818052	0.192952	-0.556165
F126	F	-0.318052	0.692952	-0.056165
H127	H	-0.824431	-0.168914	-0.118376
H128	H	-0.324431	0.331086	0.381624
F129	F	-0.815845	0.192959	-0.705706
F130	F	-0.315845	0.692959	-0.205706
F131	F	-0.451376	0.000317	0.225343
F132	F	0.048624	0.500317	0.725343
F133	F	-0.258898	0.124134	-0.008709
F134	F	0.241102	0.624134	0.491291
H135	H	-0.374102	-0.108456	0.181433
H136	H	0.125898	0.391544	0.681433
H137	H	-0.397751	0.109112	0.005470
H138	H	0.102249	0.609112	0.505470
H139	H	-0.493323	0.000301	-0.020048
H140	H	0.006677	0.500301	0.479952
F141	F	-0.154033	0.000378	0.220988
F142	F	0.345967	0.500378	0.720988
F143	F	-0.004490	0.000391	0.218795
F144	F	0.495510	0.500391	0.718795
F145	F	-0.822414	0.192928	-0.258823
F146	F	-0.322414	0.692928	0.241177
H147	H	-0.815950	-0.168869	-0.696696
H148	H	-0.315950	0.331131	-0.196696
H149	H	-0.747373	0.129993	-0.331895
H150	H	-0.247373	0.629993	0.168105
H151	H	-0.745442	0.129997	-0.463327
H152	H	-0.245442	0.629997	0.036673
H153	H	-0.893069	-0.129261	-0.483133
H154	H	-0.393069	0.370739	0.016867
F155	F	-0.822376	-0.192222	-0.258869
F156	F	-0.322376	0.307778	0.241131
F157	F	-0.231986	-0.123424	0.191497
F158	F	0.268014	0.376576	0.691497
H159	H	-0.894994	-0.129278	-0.351709
H160	H	-0.394994	0.370722	0.148291
