data_functionalizedCrystal
_audit_creation_method	'MofGen! by Chris Wilmer'
_symmetry_space_group_name_H-M	'P1'
_symmetry_Int_Tables_number	1
_symmetry_cell_setting	triclinic
loop_
_symmetry_equiv_pos_as_xyz
  x,y,z
_cell_length_a	6.817900
_cell_length_b	15.300912
_cell_length_c	16.015572
_cell_angle_alpha	77.749998
_cell_angle_beta	104.485554
_cell_angle_gamma	104.173621
loop_
_atom_site_label
_atom_site_type_symbol
_atom_site_fract_x
_atom_site_fract_y
_atom_site_fract_z
V1	V	-3.992605	-0.036345	-0.269469
O2	O	-3.977252	0.092637	-0.264070
O3	O	-3.947737	-0.159481	-0.267886
O4	O	-3.927765	0.004096	-0.386876
O5	O	-3.997363	-0.072072	-0.144256
V6	V	-4.477906	-0.025629	-0.254461
O7	O	-4.249964	-0.059850	-0.302391
O8	O	-4.670744	-0.002124	-0.221540
O9	O	-4.299567	0.097507	-0.256045
O10	O	-4.610655	-0.154611	-0.259860
O11	O	-4.590544	0.010097	-0.379675
O12	O	-4.319539	-0.066070	-0.137055
C13	C	-3.794129	-0.190745	-0.263701
C14	C	-3.838622	-0.291154	-0.263189
C15	C	-3.768652	0.017914	-0.415484
C16	C	-3.796944	0.050164	-0.511467
C17	C	-4.211988	-0.726825	-0.265302
C18	C	-4.170164	-0.632481	-0.265777
C19	C	-3.967617	-0.582138	-0.261702
C20	C	-3.806879	-0.626145	-0.257142
C21	C	-3.848701	-0.720488	-0.256661
C22	C	-3.719722	-0.429504	-0.258149
C23	C	-3.677897	-0.335154	-0.258632
C24	C	-4.041185	-0.341497	-0.267265
C25	C	-4.083007	-0.435840	-0.266784
C26	C	-3.922267	-0.479840	-0.262226
C27	C	-4.093790	-0.236084	-0.889701
C28	C	-4.120379	-0.205751	-0.979886
C29	C	-4.038889	-0.048820	-0.954850
C30	C	-4.012283	-0.079140	-0.864660
C31	C	-4.039739	-0.172773	-0.832093
C32	C	-3.958232	-0.015828	-0.807052
C33	C	-3.931638	-0.046146	-0.716871
C34	C	-3.959096	-0.139775	-0.684297
C35	C	-4.013146	-0.203090	-0.741912
C36	C	-3.930791	0.077804	-0.839621
C37	C	-3.876740	0.141116	-0.782014
C38	C	-3.850131	0.110799	-0.691830
C39	C	-3.877589	0.017170	-0.659256
C40	C	-3.796081	0.174114	-0.634215
C41	C	-3.769488	0.143797	-0.544033
C42	C	-3.850995	-0.013148	-0.569074
C43	C	-4.116517	0.128765	-0.260227
C44	C	-4.051262	0.229175	-0.260745
C45	C	-4.141995	-0.079892	-0.108442
C46	C	-4.092941	-0.112138	-0.012459
H47	H	-4.301048	-0.596660	-0.269491
O48	O	-3.930385	-0.172480	-0.587028
H49	H	-4.076761	-0.216632	-0.571937
H50	H	-4.247939	-0.476826	-0.270108
H51	H	-3.854398	0.217352	-0.808543
O52	O	-3.675355	-0.767949	-0.251758
H53	H	-3.558102	-0.758094	-0.190643
O54	O	-3.546358	-0.476960	-0.253246
H55	H	-3.534582	-0.529566	-0.193678
O56	O	-4.042749	-0.304081	-0.706773
H57	H	-4.084809	-0.343017	-0.761980
H58	H	-4.172064	-0.305668	-0.270975
O59	O	-3.588421	-0.571842	-0.252752
H60	H	-3.487233	-0.598196	-0.191444
O61	O	-4.430448	-0.781123	-0.269687
H62	H	-4.531649	-0.754757	-0.330985
O63	O	-3.880582	-0.114138	-0.533932
H64	H	-4.041028	-0.148240	-0.560523
O65	O	-3.766451	0.275101	-0.669346
H66	H	-3.877604	0.304631	-0.649326
O67	O	-3.711133	0.212084	-0.481895
H68	H	-3.697256	0.175270	-0.413715
H69	H	-4.116120	-0.312329	-0.863183
O70	O	-3.459434	-0.280851	-0.254222
H71	H	-3.354679	-0.327298	-0.250956
H72	H	-4.164385	-0.257314	-1.026789
H73	H	-4.016547	0.027416	-0.981379
O74	O	-3.959484	0.110529	-0.936886
H75	H	-3.848272	0.086957	-0.962794
