data_functionalizedCrystal
_audit_creation_method	'MofGen! by Chris Wilmer'
_symmetry_space_group_name_H-M	'P1'
_symmetry_Int_Tables_number	1
_symmetry_cell_setting	triclinic
loop_
_symmetry_equiv_pos_as_xyz
  x,y,z
_cell_length_a	14.446369
_cell_length_b	14.446369
_cell_length_c	14.446369
_cell_angle_alpha	90.001603
_cell_angle_beta	120.007204
_cell_angle_gamma	59.999699
loop_
_atom_site_label
_atom_site_type_symbol
_atom_site_fract_x
_atom_site_fract_y
_atom_site_fract_z
Zr1	Zr	1.013206	0.891778	0.121497
O2	O	1.206349	0.743968	0.269324
O3	O	0.820079	0.937088	0.076174
O4	O	1.013219	0.937087	0.269309
O5	O	1.013193	0.743972	-0.076151
O6	O	1.013211	1.089424	0.269303
O7	O	1.013209	0.743969	0.076190
O8	O	0.667719	1.089427	-0.076180
O9	O	1.358685	0.743969	0.269331
O10	O	0.899503	1.070102	0.056847
O11	O	0.899497	0.956416	-0.056839
O12	O	1.126894	0.956414	0.170552
O13	O	1.126888	0.842729	0.056866
Zr14	Zr	1.013166	1.134742	-0.121478
Zr15	Zr	1.013192	1.134738	0.121488
Zr16	Zr	1.013180	0.891782	-0.121470
Zr17	Zr	1.256164	0.891780	0.121508
Zr18	Zr	0.770209	1.134740	-0.121490
O19	O	1.206293	1.089431	-0.076155
O20	O	1.206330	1.089426	0.269312
O21	O	1.206312	0.743973	-0.076143
O22	O	0.820023	1.282552	-0.269306
O23	O	0.820060	1.282546	0.076161
O24	O	0.820042	0.937094	-0.269293
O25	O	1.013180	1.282548	0.076170
O26	O	1.013153	1.089433	-0.269290
O27	O	1.013161	0.937096	-0.269284
O28	O	1.013163	1.282551	-0.076171
O29	O	1.358674	0.937090	0.269324
O30	O	0.667698	1.089430	-0.269306
O31	O	0.667688	1.282551	-0.269313
O32	O	0.667708	1.282547	-0.076187
O33	O	1.358664	0.743972	0.076206
O34	O	1.358653	0.937093	0.076198
O35	O	0.899478	1.070105	-0.170534
O36	O	0.899484	1.183791	-0.056847
O37	O	1.126876	1.070104	0.056858
O38	O	1.126870	0.956418	-0.056829
C39	C	0.709283	1.013257	-0.000005
C40	C	0.606141	1.013256	-0.000009
C41	C	0.459127	0.941898	-0.072040
C42	C	0.566747	0.941510	-0.071749
C43	C	0.655153	0.960948	0.123537
C44	C	0.547920	0.960412	0.123163
C45	C	0.372671	1.136973	-0.050463
C46	C	0.478821	1.136791	-0.052984
C47	C	1.013203	0.709354	0.000020
C48	C	1.013208	0.606211	0.000024
C49	C	1.156609	0.387842	0.071377
C50	C	1.156706	0.495074	0.071778
C51	C	0.941982	0.602886	0.052324
C52	C	0.942893	0.495117	0.052847
C53	C	0.939921	0.496483	-0.123718
C54	C	0.942623	0.602453	-0.123523
C55	C	1.317089	1.013263	0.000023
C56	C	1.420231	1.013264	0.000028
C57	C	1.013219	1.013255	0.303923
C58	C	1.013230	1.013253	0.407069
C59	C	1.013169	1.317166	-0.000002
C60	C	1.013164	1.420309	-0.000006
C61	C	1.156663	0.941539	0.518078
C62	C	1.156721	0.941151	0.625387
C63	C	0.941568	0.961324	0.518197
C64	C	0.942515	0.960786	0.411356
C65	C	0.940400	1.136928	0.410198
C66	C	0.943072	1.136737	0.518855
C67	C	1.013171	1.013259	0.696104
C68	C	1.013211	1.013245	0.592984
C69	C	0.709266	1.317163	-0.000016
C70	C	0.606118	1.420305	-0.000024
C71	C	0.709250	1.013262	-0.303919
C72	C	0.606097	1.013263	-0.407069
C73	C	0.709234	1.317168	-0.303930
C74	C	0.606075	1.420312	-0.407084
C75	C	1.317139	0.709352	0.303948
C76	C	1.420297	0.606208	0.407103
C77	C	1.317106	0.709357	0.000034
C78	C	1.420254	0.606215	0.000043
C79	C	1.317122	1.013258	0.303937
C80	C	1.420275	1.013257	0.407088
C81	C	0.459785	1.638674	-0.071369
C82	C	0.566714	1.531443	-0.071771
C83	C	0.479254	1.423633	-0.052331
C84	C	0.371871	1.531401	-0.052853
C85	C	0.546869	1.530027	0.123720
C86	C	0.655347	1.424059	0.123524
C87	C	0.459775	0.941214	-0.482062
C88	C	0.566713	0.941517	-0.374719
C89	C	0.479225	1.136796	-0.481639
C90	C	0.371833	1.136409	-0.588512
C91	C	0.546815	0.962804	-0.590083
C92	C	0.655303	0.960295	-0.481398
C93	C	0.459705	1.495301	-0.625468
C94	C	0.566666	1.387965	-0.518225
C95	C	0.479221	1.494854	-0.410404
C96	C	0.371806	1.601720	-0.518184
C97	C	0.546750	1.603336	-0.516838
C98	C	0.655260	1.494658	-0.410857
H99	H	0.588627	0.869378	0.163583
F100	F	0.775817	0.843098	0.176733
F101	F	0.805336	0.529950	-0.010704
F102	F	0.682837	0.822239	-0.025986
F103	F	0.773531	1.427466	-0.411545
F104	F	0.697349	1.320593	0.198886
H105	H	1.212900	0.333887	0.036474
F106	F	0.697265	1.528022	-0.307390
F107	F	0.508339	1.321331	0.012343
H108	H	1.212640	0.332856	0.162085
H109	H	0.281077	1.176817	-0.588243
F110	F	0.428836	1.420850	-0.170194
F111	F	0.773575	0.841329	-0.414188
H112	H	0.521954	1.681555	-0.489395
F113	F	1.011355	1.187444	0.586286
F114	F	1.230172	0.986615	0.696553
H115	H	0.497019	0.850016	-0.479722
F116	F	0.332639	1.704434	-0.483354
H117	H	0.837932	0.681611	-0.181183
F118	F	0.342574	0.986544	-0.480714
H119	H	0.525955	1.009034	0.179776
F120	F	0.999892	0.431098	-0.180831
F121	F	1.000826	1.193674	0.405050
F122	F	1.010486	0.601798	-0.174603
H123	H	0.656013	1.333704	-0.519844
F124	F	0.692840	1.025591	0.196774
H125	H	0.496924	1.492977	-0.679437
F126	F	0.514478	1.494148	0.193557
H127	H	0.834252	0.523922	-0.177156
F128	F	0.598604	1.595399	0.180827
H129	H	0.370248	0.976800	-0.163242
F130	F	0.683540	1.533514	-0.025851
F131	F	0.250159	1.194077	-0.167566
H132	H	0.836036	1.011070	0.490917
H133	H	0.990722	0.871201	0.569657
F134	F	0.697298	1.021763	-0.514754
F135	F	0.427040	1.187872	-0.171952
H136	H	1.213271	0.976151	0.520592
F137	F	0.505808	0.823346	-0.026716
F138	F	0.506924	1.212151	0.008488
H139	H	1.212394	0.850849	0.518983
F140	F	1.006661	0.605674	0.170185
F141	F	1.229832	0.821902	0.695512
F142	F	0.517753	0.987276	-0.304409
H143	H	0.341865	1.193021	-0.667101
H144	H	0.838406	1.194636	0.493321
H145	H	0.522013	1.015043	-0.668307
F146	F	0.804073	0.705185	-0.012360
H147	H	0.745839	1.424580	0.162598
H148	H	0.992829	0.869791	0.411490
F149	F	0.253184	1.601350	-0.583987
F150	F	0.683515	0.822618	-0.303767
H151	H	0.501466	1.192817	-0.508873
H152	H	0.837261	1.009665	0.332735
F153	F	0.428828	1.189984	-0.414187
H154	H	0.586392	0.873213	-0.594195
H155	H	0.370039	1.494256	-0.680446
H156	H	0.834737	1.190603	0.331957
H157	H	0.497028	1.692631	-0.036464
H158	H	0.346698	1.190395	0.001779
F159	F	0.598444	1.608738	-0.582230
F160	F	0.342572	1.710533	-0.189938
H161	H	0.529237	1.533902	-0.163031
F162	F	0.253229	1.597214	-0.171843
H163	H	1.212874	0.493315	0.036970
F164	F	0.517724	1.317639	-0.521416
F165	F	0.332720	1.496566	0.010704
H166	H	0.501478	1.522091	-0.332137
H167	H	1.212946	0.492627	0.163037
H168	H	0.530025	0.976598	-0.162724
F169	F	1.009081	0.429305	0.171837
F170	F	0.428843	1.427385	-0.407602
