data_functionalizedCrystal
_audit_creation_method	'MofGen! by Chris Wilmer'
_symmetry_space_group_name_H-M	'P1'
_symmetry_Int_Tables_number	1
_symmetry_cell_setting	triclinic
loop_
_symmetry_equiv_pos_as_xyz
  x,y,z
_cell_length_a	14.908571
_cell_length_b	16.959447
_cell_length_c	14.908520
_cell_angle_alpha	93.266084
_cell_angle_beta	90.205961
_cell_angle_gamma	86.691780
loop_
_atom_site_label
_atom_site_type_symbol
_atom_site_fract_x
_atom_site_fract_y
_atom_site_fract_z
Zn1	Zn	1.353918	-0.537362	-0.437386
Zn2	Zn	1.853918	-0.037362	0.062614
Zn3	Zn	1.345146	-0.412339	-0.587755
Zn4	Zn	1.845146	0.087661	-0.087755
Zn5	Zn	1.203565	-0.397172	-0.428733
Zn6	Zn	1.703565	0.102828	0.071267
Zn7	Zn	1.194846	-0.536448	-0.579010
Zn8	Zn	1.694846	-0.036448	-0.079010
O9	O	1.274369	-0.470830	-0.508221
O10	O	1.774369	0.029170	-0.008221
O11	O	1.478579	-0.527507	-0.464614
O12	O	1.978579	-0.027507	0.035386
O13	O	1.326343	-0.299717	-0.566700
O14	O	1.826343	0.200283	-0.066700
O15	O	1.230830	-0.409803	-0.304059
O16	O	1.730830	0.090197	0.195941
O17	O	1.472134	-0.435653	-0.575090
O18	O	1.972134	0.064347	-0.075090
O19	O	1.341294	-0.512800	-0.310416
O20	O	1.841294	-0.012800	0.189584
O21	O	1.222324	-0.288573	-0.449866
O22	O	1.722324	0.211427	0.050134
O23	O	1.076585	-0.408917	-0.441386
O24	O	1.576585	0.091083	0.058614
O25	O	1.215970	-0.647179	-0.560184
O26	O	1.715970	-0.147179	-0.060184
O27	O	1.070179	-0.511243	-0.551794
O28	O	1.570179	-0.011243	-0.051794
O29	O	1.332840	-0.647850	-0.456134
O30	O	1.832840	-0.147850	0.043866
O31	O	1.317888	-0.434768	-0.712417
O32	O	1.817888	0.065232	-0.212417
O33	O	1.207464	-0.525950	-0.705992
O34	O	1.707464	-0.025950	-0.205992
C35	C	1.040757	-0.458335	-0.494703
C36	C	1.540757	0.041665	0.005297
C37	C	0.940815	-0.453010	-0.488942
C38	C	1.440815	0.046990	0.011058
C39	C	0.746382	-0.549427	-0.593261
C40	C	1.246382	-0.049427	-0.093261
C41	C	0.652478	-0.544426	-0.587851
C42	C	1.152478	-0.044426	-0.087851
C43	C	0.659101	-0.438011	-0.472706
C44	C	1.159101	0.061989	0.027294
C45	C	0.753005	-0.443012	-0.478116
C46	C	1.253005	0.056988	0.021884
C47	C	0.796642	-0.498721	-0.538397
C48	C	1.296642	0.001279	-0.038397
C49	C	0.890548	-0.503718	-0.543812
C50	C	1.390548	-0.003718	-0.043812
C51	C	0.897170	-0.397307	-0.428663
C52	C	1.397170	0.102693	0.071337
C53	C	0.803266	-0.392306	-0.423252
C54	C	1.303266	0.107694	0.076748
C55	C	1.274411	-0.676997	-0.508149
C56	C	1.774411	-0.176997	-0.008149
C57	C	1.274429	-0.764853	-0.508118
C58	C	1.774429	-0.264853	-0.008118
C59	C	1.213693	-1.135983	-0.562204
C60	C	1.713693	-0.635983	-0.062204
C61	C	1.335390	-1.136677	-0.453855
C62	C	1.835390	-0.636677	0.046145
C63	C	1.335365	-1.054131	-0.453873
C64	C	1.835365	-0.554131	0.046127
C65	C	1.274504	-1.012507	-0.508058
C66	C	1.774504	-0.512507	-0.008058
C67	C	1.213668	-1.053429	-0.562225
C68	C	1.713668	-0.553429	-0.062225
C69	C	1.396206	-1.013203	-0.399713
C70	C	1.896206	-0.513203	0.100287
C71	C	1.396184	-0.930651	-0.399729
C72	C	1.896184	-0.430651	0.100271
C73	C	1.335318	-0.889025	-0.453910
C74	C	1.835318	-0.389025	0.046090
C75	C	1.274479	-0.929953	-0.508079
C76	C	1.774479	-0.429953	-0.008079
C77	C	1.213617	-0.888329	-0.562264
C78	C	1.713617	-0.388329	-0.062264
C79	C	1.152773	-0.929254	-0.616429
C80	C	1.652773	-0.429254	-0.116429
C81	C	1.152801	-1.011803	-0.616406
C82	C	1.652801	-0.511803	-0.116406
C83	C	1.335290	-0.806477	-0.453933
C84	C	1.835290	-0.306477	0.046067
C85	C	1.213592	-0.805775	-0.562285
C86	C	1.713592	-0.305775	-0.062285
C87	C	1.508893	-0.483374	-0.521793
C88	C	2.008893	0.016626	-0.021793
C89	C	1.608834	-0.488719	-0.527576
C90	C	2.108834	0.011281	-0.027576
C91	C	1.260802	-0.481924	-0.741830
C92	C	1.760802	0.018076	-0.241830
C93	C	1.255081	-0.486701	-0.841773
C94	C	1.755081	0.013299	-0.341773
C95	C	1.274383	-0.265465	-0.508231
C96	C	1.774383	0.234535	-0.008231
C97	C	1.274554	-0.177607	-0.508019
C98	C	1.774554	0.322393	-0.008019
C99	C	1.359432	-0.400817	-1.036214
C100	C	1.859432	0.099183	-0.536214
C101	C	1.354059	-0.405303	-1.130120
C102	C	1.854059	0.094697	-0.630120
C103	C	1.238967	-0.500163	-1.123494
C104	C	1.738967	-0.000163	-0.623494
C105	C	1.244340	-0.495677	-1.029587
C106	C	1.744340	0.004323	-0.529587
C107	C	1.304574	-0.446001	-0.985951
C108	C	1.804574	0.053999	-0.485951
C109	C	1.309941	-0.441512	-0.892043
C110	C	1.809941	0.058488	-0.392043
C111	C	1.194854	-0.536375	-0.885418
C112	C	1.694854	-0.036375	-0.385418
C113	C	1.189481	-0.540861	-0.979324
C114	C	1.689481	-0.040861	-0.479324
C115	C	1.288013	-0.459711	-0.273702
C116	C	1.788013	0.040289	0.226298
C117	C	1.293828	-0.454973	-0.173763
C118	C	1.793828	0.045027	0.326237
H119	H	0.781912	-0.594784	-0.642349
H120	H	1.281912	-0.094784	-0.142349
H121	H	0.938102	-0.356017	-0.383990
H122	H	1.438102	0.143983	0.116010
F123	F	0.598990	-0.598396	-0.646243
F124	F	1.098990	-0.098396	-0.146243
H125	H	1.398733	-0.368511	-1.171041
H126	H	1.898733	0.131489	-0.671041
F127	F	1.423525	-0.347939	-0.989771
F128	F	1.923525	0.152061	-0.489771
H129	H	1.103224	-0.895354	-0.660550
H130	H	1.603224	-0.395354	-0.160550
H131	H	0.767723	-0.346952	-0.374171
H132	H	1.267723	0.153048	0.125829
H133	H	0.926076	-0.549078	-0.592897
H134	H	1.426076	-0.049078	-0.092897
F135	F	0.612645	-0.378737	-0.408545
F136	F	1.112645	0.121263	0.091455
F137	F	1.148810	-0.761482	-0.619953
F138	F	1.648810	-0.261482	-0.119953
H139	H	1.103268	-1.045132	-0.660507
H140	H	1.603268	-0.545132	-0.160507
H141	H	1.164152	-1.169308	-0.606301
H142	H	1.664152	-0.669308	-0.106301
H143	H	1.189933	-0.540611	-1.159039
H144	H	1.689933	-0.040611	-0.659039
H145	H	1.384945	-1.170572	-0.409745
H146	H	1.884945	-0.670572	0.090255
F147	F	1.460980	-1.057506	-0.342056
F148	F	1.960980	-0.557506	0.157944
H149	H	1.445727	-0.897337	-0.355625
H150	H	1.945727	-0.397337	0.144375
H151	H	1.140443	-0.581307	-1.014866
H152	H	1.640443	-0.081307	-0.514866
F153	F	1.136456	-0.584458	-0.831917
F154	F	1.636456	-0.084458	-0.331917
H155	H	1.384831	-0.773159	-0.409836
H156	H	1.884831	-0.273159	0.090164
F157	F	1.374043	-0.388640	-0.845603
F158	F	1.874043	0.111360	-0.345603
