data_functionalizedCrystal
_audit_creation_method	'MofGen! by Chris Wilmer'
_symmetry_space_group_name_H-M	'P1'
_symmetry_Int_Tables_number	1
_symmetry_cell_setting	triclinic
loop_
_symmetry_equiv_pos_as_xyz
  x,y,z
_cell_length_a	12.827893
_cell_length_b	19.077068
_cell_length_c	19.077579
_cell_angle_alpha	89.936576
_cell_angle_beta	87.688646
_cell_angle_gamma	87.673061
loop_
_atom_site_label
_atom_site_type_symbol
_atom_site_fract_x
_atom_site_fract_y
_atom_site_fract_z
Zn1	Zn	1.606155	0.263803	-0.408505
Zn2	Zn	1.592009	0.386035	-0.295711
Zn3	Zn	1.424122	0.268544	-0.291015
Zn4	Zn	1.424616	0.381277	-0.413182
O5	O	1.511726	0.324915	-0.352103
O6	O	1.750515	0.280025	-0.393550
O7	O	1.563612	0.374425	-0.196756
O8	O	1.453983	0.169582	-0.302678
O9	O	1.740122	0.369828	-0.310681
O10	O	1.587722	0.166099	-0.388997
O11	O	1.440266	0.288104	-0.193306
O12	O	1.277952	0.283491	-0.307213
O13	O	1.454824	0.361719	-0.510894
O14	O	1.278314	0.366316	-0.396969
O15	O	1.588200	0.275411	-0.507457
O16	O	1.564091	0.483737	-0.315216
O17	O	1.441108	0.480242	-0.401522
C18	C	1.240216	0.324902	-0.352089
C19	C	1.124063	0.324913	-0.352101
C20	C	1.501147	0.507486	-0.359402
C21	C	1.496719	0.585589	-0.362547
C22	C	1.523145	0.317506	-0.535385
C23	C	1.528012	0.314348	-0.613488
C24	C	1.072477	0.365966	-0.396451
C25	C	0.952427	0.365978	-0.396464
C26	C	1.784296	0.324928	-0.352118
C27	C	1.900449	0.324934	-0.352124
C28	C	1.522375	0.141630	-0.344792
C29	C	1.526913	0.063525	-0.341676
C30	C	1.558723	0.624078	-0.319128
C31	C	1.554564	0.697464	-0.322091
C32	C	1.488395	0.732361	-0.368470
C33	C	1.426388	0.693867	-0.411894
C34	C	1.430553	0.620482	-0.408935
C35	C	1.469071	0.951647	-0.382140
C36	C	1.464909	1.025037	-0.385095
C37	C	1.593087	1.028629	-0.295292
C38	C	1.597241	0.955242	-0.292334
C39	C	1.535239	0.916755	-0.335760
N40	N	1.484140	0.807374	-0.371498
N41	N	1.539500	0.841743	-0.332735
C42	C	1.562912	0.291754	-1.052937
C43	C	1.558333	0.294724	-0.979551
C44	C	1.486597	0.341141	-0.944650
C45	C	1.419443	0.384595	-0.983140
C46	C	1.424028	0.381628	-1.056525
C47	C	1.465442	0.354836	-0.725363
C48	C	1.460860	0.357798	-0.651973
C49	C	1.599753	0.267927	-0.648389
C50	C	1.604327	0.264962	-0.721776
C51	C	1.537177	0.308419	-0.760259
N52	N	1.481912	0.344176	-0.869637
N53	N	1.541867	0.305386	-0.835271
C54	C	1.500413	0.332245	-0.169533
C55	C	1.495761	0.335204	-0.091422
H56	H	1.117190	0.401102	-0.434415
H57	H	1.411039	1.053447	-0.422875
Br58	Br	1.374317	0.413819	-0.777582
H59	H	1.643567	1.059973	-0.259938
H60	H	1.612600	0.595670	-0.281358
H61	H	1.402420	0.395583	-0.623558
H62	H	1.418584	0.920316	-0.417499
Br63	Br	1.336595	0.741226	-0.474845
Br64	Br	0.974375	0.266353	-0.288825
H65	H	1.605054	0.728798	-0.286733
Br66	Br	1.322089	0.447593	-0.935775
H67	H	1.380064	0.589145	-0.444292
Br68	Br	0.878492	0.424570	-0.459749
H69	H	1.651122	0.926831	-0.254568
H70	H	1.079351	0.289771	-0.314143
H71	H	1.621321	0.253952	-1.081348
H72	H	1.662747	0.227167	-0.750187
Br73	Br	1.649474	0.235756	-0.927324
Br74	Br	1.690871	0.208947	-0.596158
Br75	Br	1.332895	0.440602	-1.108755
