data_functionalizedCrystal
_audit_creation_method	'MofGen! by Chris Wilmer'
_symmetry_space_group_name_H-M	'P1'
_symmetry_Int_Tables_number	1
_symmetry_cell_setting	triclinic
loop_
_symmetry_equiv_pos_as_xyz
  x,y,z
_cell_length_a	12.784890
_cell_length_b	14.853567
_cell_length_c	11.295483
_cell_angle_alpha	94.104625
_cell_angle_beta	86.328828
_cell_angle_gamma	78.370744
loop_
_atom_site_label
_atom_site_type_symbol
_atom_site_fract_x
_atom_site_fract_y
_atom_site_fract_z
O1	O	1.417474	-0.000990	-0.098988
O2	O	1.108076	0.037616	-0.098995
O3	O	1.271039	-0.113574	-0.098995
O4	O	1.254510	0.150200	-0.098988
O5	O	1.256726	-0.100313	0.099056
O6	O	1.093762	0.050876	0.099055
O7	O	1.403160	0.012271	0.099063
Cu8	Cu	1.247154	0.032784	0.117143
Cu9	Cu	1.264082	0.017102	-0.117075
O10	O	1.240196	0.163460	0.099062
C11	C	1.061323	0.046757	0.000029
C12	C	0.943340	0.054228	0.000026
C13	C	0.764502	0.147861	0.000027
C14	C	0.875357	0.140847	0.000026
C15	C	0.900463	-0.025383	0.000022
C16	C	0.789608	-0.018370	0.000022
C17	C	0.721631	0.068256	0.000026
C18	C	0.610774	0.075269	0.000035
C19	C	0.635882	-0.090961	0.000022
C20	C	0.746737	-0.097975	0.000022
C21	C	1.263134	-0.140473	0.000027
C22	C	1.260890	-0.240379	0.000016
C23	C	1.154598	-0.644465	0.000037
C24	C	1.348202	-0.681130	0.000041
C25	C	1.350313	-0.587264	0.000034
C26	C	1.254564	-0.521995	0.000030
C27	C	1.156705	-0.550590	0.000033
C28	C	1.448170	-0.558660	0.000043
C29	C	1.450284	-0.464790	0.000037
C30	C	1.354535	-0.399519	0.000025
C31	C	1.256672	-0.428120	0.000027
C32	C	1.160924	-0.362850	0.000023
C33	C	1.063060	-0.391449	0.000016
C34	C	1.060956	-0.485319	0.000021
C35	C	1.356639	-0.305649	0.000020
C36	C	1.163031	-0.268975	0.000019
C37	C	1.449913	0.003129	0.000036
C38	C	1.567896	-0.004342	0.000031
C39	C	1.248102	0.190359	0.000038
C40	C	1.250346	0.290265	0.000040
N41	N	1.235256	0.043813	0.281879
N42	N	1.275988	0.006066	-0.281812
C43	C	1.361637	-0.073377	0.531168
C44	C	1.352653	-0.065036	0.655832
C45	C	1.208300	0.068830	0.655872
C46	C	1.217284	0.060489	0.531208
C47	C	1.293956	-0.010615	0.468861
C48	C	1.302944	-0.018951	0.344195
C49	C	1.158587	0.114910	0.344237
C50	C	1.149603	0.123251	0.468901
H51	H	0.910257	0.205670	0.000029
O52	O	0.973786	-0.118809	0.000024
H53	H	1.058071	-0.110307	0.000031
O54	O	0.820054	-0.191402	0.000032
H55	H	0.904341	-0.182907	0.000043
H56	H	1.103480	0.166017	0.293492
H57	H	1.085060	-0.215836	0.000011
O58	O	0.537449	0.168694	0.000034
H59	H	0.585890	0.222869	0.000021
H60	H	1.436317	-0.282366	0.000033
H61	H	0.600973	-0.155788	-0.000074
H62	H	0.985101	-0.338294	0.000021
H63	H	0.981281	-0.508614	0.000017
O64	O	1.451471	-0.751520	0.000057
H65	H	1.433565	-0.821598	0.000058
O66	O	1.444327	-0.150062	0.463909
H67	H	1.489880	-0.192306	0.528181
H68	H	0.709153	0.218395	0.000044
H69	H	1.529970	-0.441513	0.000041
H70	H	1.365377	-0.076846	0.293433
H71	H	1.407764	-0.116144	0.706559
H72	H	1.074920	-0.667756	0.000026
H73	H	1.526122	-0.611808	0.000057
O74	O	1.125609	0.145517	0.723126
H75	H	1.130739	0.140771	0.820279
H76	H	1.087175	0.181141	0.519679
