data_functionalizedCrystal
_audit_creation_method	'MofGen! by Chris Wilmer'
_symmetry_space_group_name_H-M	'P1'
_symmetry_Int_Tables_number	1
_symmetry_cell_setting	triclinic
loop_
_symmetry_equiv_pos_as_xyz
  x,y,z
_cell_length_a	19.805407
_cell_length_b	19.077068
_cell_length_c	19.077314
_cell_angle_alpha	89.878373
_cell_angle_beta	92.280666
_cell_angle_gamma	92.327086
loop_
_atom_site_label
_atom_site_type_symbol
_atom_site_fract_x
_atom_site_fract_y
_atom_site_fract_z
Zn1	Zn	1.008751	-0.263811	-0.408556
Zn2	Zn	1.258751	-0.013811	-0.158556
Zn3	Zn	1.508751	0.236189	0.091444
Zn4	Zn	1.758751	0.486189	0.341444
Zn5	Zn	1.008299	-0.386040	-0.295763
Zn6	Zn	1.258299	-0.136040	-0.045763
Zn7	Zn	1.508299	0.113960	0.204237
Zn8	Zn	1.758299	0.363960	0.454237
Zn9	Zn	0.899922	-0.268549	-0.291061
Zn10	Zn	1.149922	-0.018549	-0.041061
Zn11	Zn	1.399922	0.231451	0.208939
Zn12	Zn	1.649922	0.481451	0.458939
Zn13	Zn	0.890807	-0.381285	-0.413227
Zn14	Zn	1.140807	-0.131285	-0.163227
Zn15	Zn	1.390807	0.118715	0.086773
Zn16	Zn	1.640807	0.368715	0.336773
O17	O	0.951945	-0.324921	-0.352152
O18	O	1.201945	-0.074921	-0.102152
O19	O	1.451945	0.175079	0.147848
O20	O	1.701945	0.425079	0.397848
O21	O	1.103407	-0.280032	-0.393606
O22	O	1.353407	-0.030032	-0.143606
O23	O	1.603407	0.219968	0.106394
O24	O	1.853407	0.469968	0.356394
O25	O	0.997549	-0.374427	-0.196808
O26	O	1.247549	-0.124427	0.053192
O27	O	1.497549	0.125573	0.303192
O28	O	1.747549	0.375573	0.553192
O29	O	0.918362	-0.169587	-0.302725
O30	O	1.168362	0.080413	-0.052725
O31	O	1.418362	0.330413	0.197275
O32	O	1.668362	0.580413	0.447275
O33	O	1.103075	-0.369833	-0.310738
O34	O	1.353075	-0.119833	-0.060738
O35	O	1.603075	0.130167	0.189262
O36	O	1.853075	0.380167	0.439262
O37	O	0.998318	-0.166106	-0.389048
O38	O	1.248318	0.083894	-0.139048
O39	O	1.498318	0.333894	0.110952
O40	O	1.748318	0.583894	0.360952
O41	O	0.917925	-0.288107	-0.193354
O42	O	1.167925	-0.038107	0.056646
O43	O	1.417925	0.211893	0.306646
O44	O	1.667925	0.461893	0.556646
O45	O	0.803997	-0.283497	-0.307254
O46	O	1.053997	-0.033497	-0.057254
O47	O	1.303997	0.216503	0.192746
O48	O	1.553997	0.466503	0.442746
O49	O	0.902827	-0.361730	-0.510939
O50	O	1.152827	-0.111730	-0.260939
O51	O	1.402827	0.138270	-0.010939
O52	O	1.652827	0.388270	0.239061
O53	O	0.797301	-0.366324	-0.397009
O54	O	1.047301	-0.116324	-0.147009
O55	O	1.297301	0.133676	0.102991
O56	O	1.547301	0.383676	0.352991
O57	O	0.989479	-0.275422	-0.507507
O58	O	1.239479	-0.025422	-0.257507
O59	O	1.489479	0.224578	-0.007507
O60	O	1.739479	0.474578	0.242493
O61	O	0.988710	-0.483743	-0.315267
O62	O	1.238710	-0.233743	-0.065267
O63	O	1.488710	0.016257	0.184733
O64	O	1.738710	0.266257	0.434733
O65	O	0.902389	-0.480250	-0.401568
O66	O	1.152389	-0.230250	-0.151568
O67	O	1.402389	0.019750	0.098432
O68	O	1.652389	0.269750	0.348432
C69	C	0.776090	-0.324909	-0.352128
C70	C	1.026090	-0.074909	-0.102128
C71	C	1.276090	0.175091	0.147872
C72	C	1.526090	0.425091	0.397872
C73	C	0.700858	-0.324920	-0.352136
C74	C	0.950858	-0.074920	-0.102136
C75	C	1.200858	0.175080	0.147864
C76	C	1.450858	0.425080	0.397864
C77	C	0.662044	-0.368118	-0.398801
C78	C	0.912044	-0.118118	-0.148801
C79	C	1.162044	0.131882	0.101199
C80	C	1.412044	0.381882	0.351199
C81	C	0.591355	-0.368119	-0.398811
C82	C	0.841355	-0.118119	-0.148811
C83	C	1.091355	0.131881	0.101189
C84	C	1.341355	0.381881	0.351189
C85	C	0.559481	-0.324925	-0.352152
C86	C	0.809481	-0.074925	-0.102152
C87	C	1.059481	0.175075	0.147848
C88	C	1.309481	0.425075	0.397848
C89	C	0.598300	-0.281721	-0.305484
C90	C	0.848300	-0.031721	-0.055484
C91	C	1.098300	0.218279	0.194516
C92	C	1.348300	0.468279	0.444516
C93	C	0.668987	-0.281717	-0.305478
C94	C	0.918987	-0.031717	-0.055478
C95	C	1.168987	0.218283	0.194522
C96	C	1.418987	0.468283	0.444522
C97	C	0.313225	-0.281736	-0.305508
C98	C	0.563225	-0.031736	-0.055508
C99	C	0.813225	0.218264	0.194492
C100	C	1.063225	0.468264	0.444492
C101	C	0.242532	-0.281745	-0.305516
C102	C	0.492532	-0.031745	-0.055516
C103	C	0.742532	0.218255	0.194484
C104	C	0.992532	0.468255	0.444484
C105	C	0.235593	-0.368138	-0.398841
C106	C	0.485593	-0.118138	-0.148841
C107	C	0.735593	0.131862	0.101159
C108	C	0.985593	0.381862	0.351159
C109	C	0.306280	-0.368134	-0.398835
C110	C	0.556280	-0.118134	-0.148835
C111	C	0.806280	0.131866	0.101165
C112	C	1.056280	0.381866	0.351165
C113	C	0.345093	-0.324928	-0.352170
C114	C	0.595093	-0.074928	-0.102170
C115	C	0.845093	0.175072	0.147830
C116	C	1.095093	0.425072	0.397830
C117	C	0.421742	-0.324926	-0.352161
C118	C	0.671742	-0.074926	-0.102161
C119	C	0.921742	0.175074	0.147839
C120	C	1.171742	0.425074	0.397839
C121	C	0.482834	-0.324929	-0.352157
C122	C	0.732834	-0.074929	-0.102157
C123	C	0.982834	0.175071	0.147843
C124	C	1.232834	0.425071	0.397843
C125	C	0.944530	-0.507492	-0.359450
C126	C	1.194530	-0.257492	-0.109450
C127	C	1.444530	-0.007492	0.140550
C128	C	1.694530	0.242508	0.390550
C129	C	0.941418	-0.585596	-0.362595
C130	C	1.191418	-0.335596	-0.112595
C131	C	1.441418	-0.085596	0.137405
C132	C	1.691418	0.164404	0.387405
C133	C	0.984931	-0.624083	-0.319178
C134	C	1.234931	-0.374083	-0.069178
C135	C	1.484931	-0.124083	0.180822
C136	C	1.734931	0.125917	0.430822
C137	C	0.982009	-0.697470	-0.322141
C138	C	1.232009	-0.447470	-0.072141
C139	C	1.482009	-0.197470	0.177859
C140	C	1.732009	0.052530	0.427859
C141	C	0.935570	-0.732368	-0.368518
C142	C	1.185570	-0.482368	-0.118518
C143	C	1.435570	-0.232368	0.131482
C144	C	1.685570	0.017632	0.381482
C145	C	0.892055	-0.693875	-0.411939
C146	C	1.142055	-0.443875	-0.161939
C147	C	1.392055	-0.193875	0.088061
C148	C	1.642055	0.056125	0.338061
C149	C	0.894981	-0.620490	-0.408980
C150	C	1.144981	-0.370490	-0.158980
C151	C	1.394981	-0.120490	0.091020
C152	C	1.644981	0.129510	0.341020
C153	C	0.921998	-0.951654	-0.382187
C154	C	1.171998	-0.701654	-0.132187
C155	C	1.421998	-0.451654	0.117813
C156	C	1.671998	-0.201654	0.367813
C157	C	0.919074	-1.025044	-0.385142
C158	C	1.169074	-0.775044	-0.135142
C159	C	1.419074	-0.525044	0.114858
C160	C	1.669074	-0.275044	0.364858
C161	C	1.009030	-1.028634	-0.295344
C162	C	1.259030	-0.778634	-0.045344
C163	C	1.509030	-0.528634	0.204656
C164	C	1.759030	-0.278634	0.454656
C165	C	1.011949	-0.955247	-0.292386
C166	C	1.261949	-0.705247	-0.042386
C167	C	1.511949	-0.455247	0.207614
C168	C	1.761949	-0.205247	0.457614
C169	C	0.968436	-0.916761	-0.335810
C170	C	1.218436	-0.666761	-0.085810
C171	C	1.468436	-0.416761	0.164190
C172	C	1.718436	-0.166761	0.414190
N173	N	0.932580	-0.807381	-0.371546
N174	N	1.182580	-0.557381	-0.121546
N175	N	1.432580	-0.307381	0.128454
N176	N	1.682580	-0.057381	0.378454
N177	N	0.971430	-0.841749	-0.332785
N178	N	1.221430	-0.591749	-0.082785
N179	N	1.471430	-0.341749	0.167215
N180	N	1.721430	-0.091749	0.417215
C181	C	1.128486	-0.324934	-0.352175
C182	C	1.378486	-0.074934	-0.102175
C183	C	1.628486	0.175066	0.147825
C184	C	1.878486	0.425066	0.397825
C185	C	1.203718	-0.324940	-0.352186
C186	C	1.453718	-0.074940	-0.102186
C187	C	1.703718	0.175060	0.147814
C188	C	1.953718	0.425060	0.397814
C189	C	0.945187	-0.317517	-0.535432
C190	C	1.195187	-0.067517	-0.285432
C191	C	1.445187	0.182483	-0.035432
C192	C	1.695187	0.432483	0.214568
C193	C	0.942307	-0.314361	-0.613535
C194	C	1.192307	-0.064361	-0.363535
C195	C	1.442307	0.185639	-0.113535
C196	C	1.692307	0.435639	0.136465
C197	C	0.959407	-0.141637	-0.344841
C198	C	1.209407	0.108363	-0.094841
C199	C	1.459407	0.358363	0.155159
C200	C	1.709407	0.608363	0.405159
C201	C	0.962587	-0.063532	-0.341725
C202	C	1.212587	0.186468	-0.091725
C203	C	1.462587	0.436468	0.158275
C204	C	1.712587	0.686468	0.408275
C205	C	0.982407	-0.357819	-0.652029
C206	C	1.232407	-0.107819	-0.402029
C207	C	1.482407	0.142181	-0.152029
C208	C	1.732407	0.392181	0.097971
C209	C	0.979701	-0.354846	-0.725415
C210	C	1.229701	-0.104846	-0.475415
C211	C	1.479701	0.145154	-0.225415
C212	C	1.729701	0.395154	0.024585
C213	C	0.936891	-0.308418	-0.760305
C214	C	1.186891	-0.058418	-0.510305
C215	C	1.436891	0.191582	-0.260305
C216	C	1.686891	0.441582	-0.010305
C217	C	0.896790	-0.264956	-0.721806
C218	C	1.146790	-0.014956	-0.471806
C219	C	1.396790	0.235044	-0.221806
C220	C	1.646790	0.485044	0.028194
C221	C	0.899500	-0.267926	-0.648421
C222	C	1.149500	-0.017926	-0.398421
C223	C	1.399500	0.232074	-0.148421
C224	C	1.649500	0.482074	0.101579
C225	C	0.924345	-0.294712	-0.979588
C226	C	1.174345	-0.044712	-0.729588
C227	C	1.424345	0.205288	-0.479588
C228	C	1.674345	0.455288	-0.229588
C229	C	0.921637	-0.291746	-1.052978
C230	C	1.171637	-0.041746	-0.802978
C231	C	1.421637	0.208254	-0.552978
C232	C	1.671637	0.458254	-0.302978
C233	C	1.004549	-0.381636	-1.056582
C234	C	1.254549	-0.131636	-0.806582
C235	C	1.504549	0.118364	-0.556582
C236	C	1.754549	0.368364	-0.306582
C237	C	1.007252	-0.384605	-0.983196
C238	C	1.257252	-0.134605	-0.733196
C239	C	1.507252	0.115395	-0.483196
C240	C	1.757252	0.365395	-0.233196
C241	C	0.967153	-0.341140	-0.944703
C242	C	1.217153	-0.091140	-0.694703
C243	C	1.467153	0.158860	-0.444703
C244	C	1.717153	0.408860	-0.194703
N245	N	0.934123	-0.305379	-0.835317
N246	N	1.184123	-0.055379	-0.585317
N247	N	1.434123	0.194621	-0.335317
N248	N	1.684123	0.444621	-0.085317
N249	N	0.969926	-0.344176	-0.869692
N250	N	1.219926	-0.094176	-0.619692
N251	N	1.469926	0.155824	-0.369692
N252	N	1.719926	0.405824	-0.119692
C253	C	0.958718	-0.332246	-0.169583
C254	C	1.208718	-0.082246	0.080417
C255	C	1.458718	0.167754	0.330417
C256	C	1.708718	0.417754	0.580417
C257	C	0.961737	-0.335204	-0.091472
C258	C	1.211737	-0.085204	0.158528
C259	C	1.461737	0.164796	0.408528
C260	C	1.711737	0.414796	0.658528
H261	H	0.332229	-0.403310	-0.436827
H262	H	0.582229	-0.153310	-0.186827
H263	H	0.832229	0.096690	0.063173
H264	H	1.082229	0.346690	0.313173
H265	H	0.886567	-0.920324	-0.417544
H266	H	1.136567	-0.670324	-0.167544
H267	H	1.386567	-0.420324	0.082456
H268	H	1.636567	-0.170324	0.332456
N269	N	1.035018	-0.586446	-0.269155
N270	N	1.285018	-0.336446	-0.019155
N271	N	1.535018	-0.086446	0.230845
N272	N	1.785018	0.163554	0.480845
H273	H	1.062141	-0.621966	-0.242102
H274	H	1.312141	-0.371966	0.007898
H275	H	1.562141	-0.121966	0.257898
H276	H	1.812141	0.128034	0.507898
H277	H	1.066478	-0.554802	-0.296560
H278	H	1.316478	-0.304802	-0.046560
H279	H	1.566478	-0.054802	0.203440
H280	H	1.816478	0.195198	0.453440
N281	N	0.881100	-0.247822	-0.938088
N282	N	1.131100	0.002178	-0.688088
N283	N	1.381100	0.252178	-0.438088
N284	N	1.631100	0.502178	-0.188088
H285	H	0.831823	-0.258210	-0.951286
H286	H	1.081823	-0.008210	-0.701286
H287	H	1.331823	0.241790	-0.451286
H288	H	1.581823	0.491790	-0.201286
H289	H	0.889364	-0.256754	-0.886315
H290	H	1.139364	-0.006754	-0.636315
H291	H	1.389364	0.243246	-0.386315
H292	H	1.639364	0.493246	-0.136315
N293	N	0.848051	-0.578975	-0.455810
N294	N	1.098051	-0.328975	-0.205810
N295	N	1.348051	-0.078975	0.044190
N296	N	1.598051	0.171025	0.294190
H297	H	0.818187	-0.612217	-0.485638
H298	H	1.068187	-0.362217	-0.235638
H299	H	1.318187	-0.112217	0.014362
H300	H	1.568187	0.137783	0.264362
H301	H	0.819019	-0.549721	-0.425952
H302	H	1.069019	-0.299721	-0.175952
H303	H	1.319019	-0.049721	0.074048
H304	H	1.569019	0.200279	0.324048
H305	H	0.854245	-0.722295	-0.449703
H306	H	1.104245	-0.472295	-0.199703
H307	H	1.354245	-0.222295	0.050297
H308	H	1.604245	0.027705	0.300297
N309	N	0.563925	-0.235145	-0.255145
N310	N	0.813925	0.014855	-0.005145
N311	N	1.063925	0.264855	0.244855
N312	N	1.313925	0.514855	0.494855
H313	H	0.513255	-0.241709	-0.262222
H314	H	0.763255	0.008291	-0.012222
H315	H	1.013255	0.258291	0.237778
H316	H	1.263255	0.508291	0.487778
H317	H	0.577692	-0.248048	-0.205383
H318	H	0.827692	0.001952	0.044617
H319	H	1.077692	0.251952	0.294617
H320	H	1.327692	0.501952	0.544617
H321	H	1.042101	-0.422422	-0.954794
H322	H	1.292101	-0.172422	-0.704794
H323	H	1.542101	0.077578	-0.454794
H324	H	1.792101	0.327578	-0.204794
H325	H	0.861937	-0.227150	-0.750219
H326	H	1.111937	0.022850	-0.500219
H327	H	1.361937	0.272850	-0.250219
H328	H	1.611937	0.522850	-0.000219
H329	H	1.044456	-1.059977	-0.259992
H330	H	1.294456	-0.809977	-0.009992
H331	H	1.544456	-0.559977	0.240008
H332	H	1.794456	-0.309977	0.490008
H333	H	1.012354	-0.390233	-0.756754
H334	H	1.262354	-0.140233	-0.506754
H335	H	1.512354	0.109767	-0.256754
H336	H	1.762354	0.359767	-0.006754
N337	N	1.028938	-0.738979	-0.275308
N338	N	1.278938	-0.488979	-0.025308
N339	N	1.528938	-0.238979	0.224692
N340	N	1.778938	0.011021	0.474692
H341	H	1.020043	-0.790764	-0.284222
H342	H	1.270043	-0.540764	-0.034222
H343	H	1.520043	-0.290764	0.215778
H344	H	1.770043	-0.040764	0.465778
H345	H	1.077378	-0.725659	-0.285771
H346	H	1.327378	-0.475659	-0.035771
H347	H	1.577378	-0.225659	0.214229
H348	H	1.827378	0.024341	0.464229
N349	N	0.868983	-1.062687	-0.435164
N350	N	1.118983	-0.812687	-0.185164
N351	N	1.368983	-0.562687	0.064836
N352	N	1.618983	-0.312687	0.314836
H353	H	0.841863	-1.027171	-0.462226
H354	H	1.091863	-0.777171	-0.212226
H355	H	1.341863	-0.527171	0.037774
H356	H	1.591863	-0.277171	0.287774
H357	H	0.894100	-1.091786	-0.468931
H358	H	1.144100	-0.841786	-0.218931
H359	H	1.394100	-0.591786	0.031069
H360	H	1.644100	-0.341786	0.281069
H361	H	0.559756	-0.403296	-0.436810
H362	H	0.809756	-0.153296	-0.186810
H363	H	1.059756	0.096704	0.063190
H364	H	1.309756	0.346704	0.313190
H365	H	0.203983	-0.403315	-0.436840
H366	H	0.453983	-0.153315	-0.186840
H367	H	0.703983	0.096685	0.063160
H368	H	0.953983	0.346685	0.313160
N369	N	1.047805	-0.428503	-1.098101
N370	N	1.297805	-0.178503	-0.848101
N371	N	1.547805	0.071497	-0.598101
N372	N	1.797805	0.321497	-0.348101
H373	H	1.075336	-0.458363	-1.064862
H374	H	1.325336	-0.208363	-0.814862
H375	H	1.575336	0.041637	-0.564862
H376	H	1.825336	0.291637	-0.314862
H377	H	1.017808	-0.459789	-1.129844
H378	H	1.267808	-0.209789	-0.879844
H379	H	1.517808	0.040211	-0.629844
H380	H	1.767808	0.290211	-0.379844
N381	N	0.875460	-0.241670	-1.090613
N382	N	1.125460	0.008330	-0.840613
N383	N	1.375460	0.258330	-0.590613
N384	N	1.625460	0.508330	-0.340613
H385	H	0.850469	-0.214585	-1.055092
H386	H	1.100469	0.035415	-0.805092
H387	H	1.350469	0.285415	-0.555092
H388	H	1.600469	0.535415	-0.305092
H389	H	0.903213	-0.207926	-1.119770
H390	H	1.153213	0.042074	-0.869770
H391	H	1.403213	0.292074	-0.619770
H392	H	1.653213	0.542074	-0.369770
N393	N	0.208154	-0.235152	-0.255189
N394	N	0.458154	0.014848	-0.005189
N395	N	0.708154	0.264848	0.244811
N396	N	0.958154	0.514848	0.494811
H397	H	0.157484	-0.241717	-0.262272
H398	H	0.407484	0.008283	-0.012272
H399	H	0.657484	0.258283	0.237728
H400	H	0.907484	0.508283	0.487728
H401	H	0.221913	-0.248039	-0.205420
H402	H	0.471913	0.001961	0.044580
H403	H	0.721913	0.251961	0.294580
H404	H	0.971913	0.501961	0.544580
H405	H	0.344818	-0.246560	-0.267506
H406	H	0.594818	0.003440	-0.017506
H407	H	0.844818	0.253440	0.232494
H408	H	1.094818	0.503440	0.482494
H409	H	1.049764	-0.926835	-0.254622
H410	H	1.299764	-0.676835	-0.004622
H411	H	1.549764	-0.426835	0.245378
H412	H	1.799764	-0.176835	0.495378
H413	H	1.017269	-0.395623	-0.623627
H414	H	1.267269	-0.145623	-0.373627
H415	H	1.517269	0.104377	-0.123627
H416	H	1.767269	0.354377	0.126373
N417	N	0.710848	-0.235119	-0.255147
N418	N	0.960848	0.014881	-0.005147
N419	N	1.210848	0.264881	0.244853
N420	N	1.460848	0.514881	0.494853
H421	H	0.699951	-0.247982	-0.205356
H422	H	0.949951	0.002018	0.044644
H423	H	1.199951	0.252018	0.294644
H424	H	1.449951	0.502018	0.544644
H425	H	0.760450	-0.241685	-0.262284
H426	H	1.010450	0.008315	-0.012284
H427	H	1.260450	0.258315	0.237716
H428	H	1.510450	0.508315	0.487716
N429	N	0.696420	-0.414712	-0.449122
N430	N	0.946420	-0.164712	-0.199122
N431	N	1.196420	0.085288	0.050878
N432	N	1.446420	0.335288	0.300878
H433	H	0.661103	-0.442077	-0.478686
H434	H	0.911103	-0.192077	-0.228686
H435	H	1.161103	0.057923	0.021314
H436	H	1.411103	0.307923	0.271314
H437	H	0.725714	-0.384843	-0.480544
H438	H	0.975714	-0.134843	-0.230544
H439	H	1.225714	0.115157	0.019456
H440	H	1.475714	0.365157	0.269456
N441	N	0.856255	-0.221049	-0.606899
N442	N	1.106255	0.028951	-0.356899
N443	N	1.356255	0.278951	-0.106899
N444	N	1.606255	0.528951	0.143101
H445	H	0.828724	-0.191186	-0.640136
H446	H	1.078724	0.058814	-0.390136
H447	H	1.328724	0.308814	-0.140136
H448	H	1.578724	0.558814	0.109864
H449	H	0.824891	-0.250879	-0.577585
H450	H	1.074891	-0.000879	-0.327585
H451	H	1.324891	0.249121	-0.077585
H452	H	1.574891	0.499121	0.172415
