data_functionalizedCrystal
_audit_creation_method	'MofGen! by Chris Wilmer'
_symmetry_space_group_name_H-M	'P1'
_symmetry_Int_Tables_number	1
_symmetry_cell_setting	triclinic
loop_
_symmetry_equiv_pos_as_xyz
  x,y,z
_cell_length_a	10.489746
_cell_length_b	10.489741
_cell_length_c	13.596369
_cell_angle_alpha	89.994306
_cell_angle_beta	89.997615
_cell_angle_gamma	84.540238
loop_
_atom_site_label
_atom_site_type_symbol
_atom_site_fract_x
_atom_site_fract_y
_atom_site_fract_z
O1	O	1.694051	0.180002	-0.081725
O2	O	1.322856	0.196888	-0.081741
O3	O	1.516900	0.002847	-0.081727
O4	O	1.500007	0.374042	-0.081739
O5	O	1.516881	0.002836	0.081856
O6	O	1.322837	0.196877	0.081842
O7	O	1.694032	0.179991	0.081858
Zn8	Zn	1.508431	0.188432	0.107822
Zn9	Zn	1.508457	0.188446	-0.107705
O10	O	1.499988	0.374032	0.081844
C11	C	1.275315	0.195606	0.000048
C12	C	1.133686	0.191786	0.000042
C13	C	0.980828	0.066062	0.000060
C14	C	1.058212	0.128914	0.080710
C15	C	1.058187	0.128953	-0.080570
C16	C	0.958721	0.247895	0.080783
C17	C	0.958690	0.247918	-0.080569
C18	C	1.036025	0.310856	0.000100
C19	C	1.515614	-0.044690	0.000064
C20	C	1.511797	-0.186320	0.000062
C21	C	1.388333	-0.254462	0.000050
C22	C	1.446647	-0.346589	0.080707
C23	C	1.446695	-0.346553	-0.080573
C24	C	1.570162	-0.276581	0.080786
C25	C	1.570193	-0.276535	-0.080566
C26	C	1.628597	-0.368635	0.000111
C27	C	1.741573	0.181273	0.000067
C28	C	1.883202	0.185093	0.000066
C29	C	1.501273	0.421569	0.000051
C30	C	1.505091	0.563198	0.000046
N31	N	1.508423	0.188422	0.254914
N32	N	1.508475	0.188446	-0.254797
C33	C	1.508455	0.188448	0.656205
C34	C	1.508442	0.188445	0.544554
C35	C	1.508440	0.188436	0.455563
C36	C	1.508426	0.188431	0.343905
H37	H	1.286821	-0.204813	0.000126
O38	O	1.109892	0.068817	-0.161889
C39	C	1.141074	-0.128143	-0.253725
C40	C	1.082432	-0.060177	-0.161609
H41	H	1.118918	-0.232452	-0.253518
H42	H	1.098560	-0.078534	-0.322494
H43	H	1.249249	-0.123771	-0.253323
H44	H	0.974259	-0.064529	-0.161916
H45	H	1.125046	-0.109804	-0.092881
O46	O	1.632336	-0.239590	0.162200
C47	C	1.705757	-0.063777	0.253513
C48	C	1.635300	-0.105494	0.161284
H49	H	1.708199	0.044638	0.252792
H50	H	1.653470	-0.093128	0.322195
H51	H	1.807854	-0.111985	0.253797
H52	H	1.533201	-0.057307	0.160904
H53	H	1.687686	-0.076165	0.092643
H54	H	1.101680	0.078661	0.148899
O55	O	0.906874	0.307633	-0.162019
C56	C	0.899039	0.312418	-0.339119
C57	C	0.957799	0.244666	-0.246950
H58	H	0.940208	0.261553	-0.407809
H59	H	0.790658	0.309707	-0.338005
H60	H	0.922814	0.416224	-0.339770
H61	H	0.934121	0.140835	-0.246239
H62	H	1.066165	0.247481	-0.248099
H63	H	1.394398	-0.377605	0.148893
H64	H	0.915433	0.298105	0.149045
O65	O	1.065304	0.434399	-0.000029
C66	C	1.169727	0.597136	-0.085081
C67	C	1.136626	0.457210	-0.085077
H68	H	1.227419	0.615616	-0.153825
H69	H	1.077632	0.664262	-0.084460
H70	H	1.228714	0.615097	-0.016914
H71	H	1.077674	0.439127	-0.153233
H72	H	1.228770	0.390158	-0.085648
O73	O	1.749825	-0.427550	0.000339
C74	C	1.951809	-0.458628	0.085556
C75	C	1.814547	-0.391846	0.085425
H76	H	2.004185	-0.429765	0.154330
H77	H	1.948093	-0.566890	0.084965
H78	H	2.004797	-0.428597	0.017418
H79	H	1.761480	-0.421773	0.153551
H80	H	1.818355	-0.283597	0.085964
O81	O	1.632287	-0.239517	-0.162012
C82	C	1.637466	-0.232868	-0.339112
C83	C	1.567017	-0.274839	-0.246947
H84	H	1.584739	-0.261433	-0.407805
H85	H	1.640550	-0.124533	-0.338001
H86	H	1.739331	-0.281649	-0.339755
H87	H	1.465121	-0.226149	-0.246244
H88	H	1.564036	-0.383185	-0.248094
O89	O	1.384354	-0.383721	-0.161851
C90	C	1.312045	-0.559874	-0.253407
C91	C	1.382660	-0.517963	-0.161314
H92	H	1.310676	-0.668413	-0.253014
H93	H	1.209581	-0.512605	-0.253305
H94	H	1.363686	-0.529626	-0.322125
H95	H	1.331127	-0.548203	-0.092548
H96	H	1.485127	-0.565221	-0.161504
H97	H	0.956107	-0.037439	0.000145
