data_functionalizedCrystal
_audit_creation_method	'MofGen! by Chris Wilmer'
_symmetry_space_group_name_H-M	'P1'
_symmetry_Int_Tables_number	1
_symmetry_cell_setting	triclinic
loop_
_symmetry_equiv_pos_as_xyz
  x,y,z
_cell_length_a	18.101398
_cell_length_b	18.101396
_cell_length_c	21.395355
_cell_angle_alpha	89.984906
_cell_angle_beta	90.029870
_cell_angle_gamma	89.967710
loop_
_atom_site_label
_atom_site_type_symbol
_atom_site_fract_x
_atom_site_fract_y
_atom_site_fract_z
Zn1	Zn	1.132131	0.295009	0.354365
Zn2	Zn	1.132002	0.418832	0.249594
Zn3	Zn	1.008278	0.294999	0.249592
Zn4	Zn	1.008228	0.418803	0.354324
O5	O	1.070160	0.356911	0.301969
O6	O	1.235747	0.311451	0.340485
O7	O	1.115557	0.402413	0.161916
O8	O	1.024782	0.191367	0.263507
O9	O	1.235652	0.402423	0.263510
O10	O	1.115777	0.191375	0.340483
O11	O	1.024657	0.311434	0.161914
O12	O	0.904638	0.311405	0.263467
O13	O	1.024697	0.402373	0.442008
O14	O	0.904602	0.402364	0.340414
O15	O	1.115728	0.311422	0.442038
O16	O	1.115508	0.522461	0.263470
O17	O	1.024572	0.522440	0.340415
C18	C	0.877749	0.356881	0.301936
C19	C	0.795435	0.356886	0.301937
C20	C	1.070041	0.549321	0.301952
C21	C	1.070058	0.631635	0.301966
C22	C	0.496344	0.356932	0.301990
C23	C	0.527668	0.299417	0.253813
C24	C	0.613286	0.299572	0.253608
C25	C	0.644727	0.356908	0.301964
C26	C	0.613598	0.434916	0.283925
C27	C	0.527953	0.434596	0.283590
C28	C	0.527968	0.337117	0.368318
C29	C	0.613619	0.335380	0.367956
C30	C	0.728586	0.356900	0.301950
C31	C	0.412485	0.356946	0.302002
C32	C	1.070189	0.930726	0.302003
C33	C	1.013111	0.899418	0.350534
C34	C	1.012848	0.813800	0.350382
C35	C	1.070124	0.782344	0.301985
C36	C	1.048984	0.813478	0.235950
C37	C	1.048607	0.899123	0.236242
C38	C	1.148536	0.899081	0.318924
C39	C	1.148085	0.813430	0.320371
C40	C	1.070088	0.698484	0.301971
C41	C	1.070223	1.014586	0.302012
C42	C	1.263322	0.356941	0.302002
C43	C	1.345636	0.356955	0.302016
C44	C	1.070221	0.356896	0.465392
C45	C	1.070247	0.356889	0.535034
C46	C	1.070273	1.163749	0.302002
C47	C	1.070256	1.081435	0.302022
C48	C	1.070141	0.356872	0.139181
C49	C	1.070259	0.356670	0.069540
C50	C	1.117645	0.309529	0.567763
C51	C	1.117644	0.309497	0.633199
C52	C	1.070253	0.356839	0.665902
C53	C	1.022846	0.404202	0.633164
C54	C	1.022843	0.404228	0.567730
C55	C	1.064364	0.423520	0.769570
C56	C	1.064373	0.423496	0.835003
C57	C	1.070258	0.356761	0.867723
C58	C	1.076151	0.290047	0.835001
C59	C	1.076148	0.290073	0.769567
C60	C	1.070251	0.356816	0.736854
C61	C	1.117657	0.309362	0.971405
C62	C	1.117651	0.309329	1.036842
C63	C	1.022857	0.404040	1.036806
C64	C	1.022859	0.404067	0.971371
C65	C	1.070263	0.356729	0.938674
H66	H	0.634334	0.241725	0.264915
C67	C	1.205970	0.926355	0.271132
H68	H	1.182361	0.956889	0.241017
H69	H	1.227802	0.885120	0.250810
H70	H	1.243168	0.953878	0.292074
H71	H	1.167803	0.920641	0.366257
H72	H	1.026202	0.919979	0.399657
C73	C	1.030690	0.785358	0.416531
H74	H	1.038163	0.826146	0.443739
H75	H	1.074216	0.756057	0.415260
H76	H	0.990678	0.756334	0.431410
H77	H	0.507934	0.451402	0.235100
C78	C	0.934407	0.786191	0.335238
H79	H	0.933976	0.733709	0.335099
H80	H	0.919916	0.803975	0.295293
H81	H	0.900933	0.803848	0.365990
H82	H	1.088377	0.919835	0.198848
H83	H	0.991336	0.919158	0.221908
C84	C	0.970726	0.456169	0.935366
H85	H	0.942504	0.484364	0.964213
H86	H	0.938479	0.427845	0.909825
H87	H	0.999035	0.488454	0.909855
C88	C	1.082620	0.216696	0.733572
H89	H	1.081780	0.226273	0.689917
H90	H	1.042357	0.185535	0.744277
H91	H	1.127727	0.193018	0.744310
H92	H	0.506404	0.281225	0.384720
C93	C	0.970732	0.456120	1.072772
H94	H	0.977526	0.449327	1.116430
H95	H	0.920980	0.445285	1.062028
H96	H	0.981545	0.505885	1.062053
C97	C	0.499954	0.494383	0.328979
H98	H	0.540925	0.518770	0.347531
H99	H	0.470851	0.471984	0.360679
H100	H	0.470824	0.529272	0.306739
H101	H	1.089254	0.793102	0.198804
H102	H	0.992324	0.792085	0.221360
C103	C	0.498545	0.316898	0.187803
H104	H	0.517732	0.281888	0.158986
H105	H	0.513810	0.365112	0.175968
H106	H	0.446121	0.314466	0.187732
C107	C	0.641133	0.257845	0.386350
H108	H	0.622135	0.245140	0.426314
H109	H	0.693586	0.257698	0.387747
H110	H	0.624649	0.222864	0.356339
C111	C	1.169783	0.257402	0.669212
H112	H	1.162991	0.264164	0.712865
H113	H	1.219533	0.268254	0.658510
H114	H	1.158980	0.207642	0.658483
C115	C	1.169782	0.257453	0.531800
H116	H	1.198006	0.229238	0.560669
H117	H	1.202027	0.285796	0.506287
H118	H	1.141471	0.225186	0.506264
C119	C	1.083106	0.216679	0.870983
H120	H	1.082402	0.226228	0.914639
H121	H	1.128325	0.193335	0.860125
H122	H	1.043014	0.185228	0.860390
H123	H	1.156252	0.270812	0.944782
C124	C	1.169630	0.785930	0.386017
H125	H	1.131281	0.755626	0.402156
H126	H	1.176852	0.827069	0.412886
H127	H	1.214047	0.758110	0.383503
C128	C	0.642520	0.387855	0.419046
H129	H	0.674074	0.423743	0.400716
H130	H	0.669303	0.360318	0.449323
H131	H	0.602005	0.411897	0.438610
C132	C	1.169792	0.257230	1.072845
H133	H	1.198026	0.229049	1.043998
H134	H	1.141491	0.224945	1.098356
H135	H	1.202038	0.285563	1.098386
C136	C	1.057900	0.496875	0.870994
H137	H	1.058757	0.487304	0.914650
H138	H	1.012798	0.520553	0.860257
H139	H	1.098168	0.528034	0.860284
H140	H	1.192866	0.792013	0.287600
C141	C	0.499870	0.221035	0.268902
H142	H	0.468909	0.222681	0.304717
H143	H	0.540856	0.189642	0.276954
H144	H	0.472671	0.202431	0.234342
H145	H	0.635006	0.452013	0.235959
C146	C	1.057729	0.496919	0.733585
H147	H	1.054182	0.536642	0.762443
H148	H	1.014762	0.495854	0.708092
H149	H	1.100113	0.503543	0.708027
H150	H	0.507712	0.379009	0.404214
H151	H	0.984243	0.442793	0.541082
C152	C	0.640913	0.317258	0.187212
H153	H	0.599793	0.324385	0.160262
H154	H	0.670055	0.277350	0.172258
H155	H	0.669927	0.360961	0.188153
C156	C	0.641111	0.494361	0.329837
H157	H	0.671903	0.472080	0.360486
H158	H	0.599997	0.516990	0.349701
H159	H	0.668423	0.530680	0.307646
C160	C	0.935135	0.928560	0.335582
H161	H	0.937213	0.959721	0.299890
H162	H	0.916941	0.955810	0.370255
H163	H	0.903146	0.888120	0.327362
H164	H	0.984258	0.442746	0.659795
