data_functionalizedCrystal
_audit_creation_method	'MofGen! by Chris Wilmer'
_symmetry_space_group_name_H-M	'P1'
_symmetry_Int_Tables_number	1
_symmetry_cell_setting	triclinic
loop_
_symmetry_equiv_pos_as_xyz
  x,y,z
_cell_length_a	27.732048
_cell_length_b	10.489741
_cell_length_c	8.965430
_cell_angle_alpha	90.000707
_cell_angle_beta	90.001729
_cell_angle_gamma	83.590914
loop_
_atom_site_label
_atom_site_type_symbol
_atom_site_fract_x
_atom_site_fract_y
_atom_site_fract_z
O1	O	-0.641885	-0.151746	0.123847
O2	O	-0.501237	-0.174821	0.123892
O3	O	-0.574761	0.022455	0.123859
O4	O	-0.568361	-0.349022	0.123879
O5	O	-0.574755	0.022442	-0.124220
O6	O	-0.501231	-0.174834	-0.124187
O7	O	-0.641879	-0.151760	-0.124232
Cu8	Cu	-0.571554	-0.163298	-0.146861
Cu9	Cu	-0.571562	-0.163282	0.146521
O10	O	-0.568354	-0.349035	-0.124200
C11	C	-0.483224	-0.174343	-0.000142
C12	C	-0.429560	-0.172885	-0.000125
C13	C	-0.659892	-0.152237	-0.000195
C14	C	-0.713556	-0.153696	-0.000202
C15	C	-0.091423	-0.280280	-0.000184
C16	C	0.110271	-0.274868	-0.000198
O17	O	0.140907	-0.373073	-0.000257
N18	N	0.130133	-0.157892	-0.000201
C19	C	0.099568	-0.042260	-0.000211
O20	O	0.121090	0.057360	-0.000230
C21	C	-0.102124	-0.047673	-0.000208
C22	C	-0.121984	-0.164657	-0.000190
C23	C	-0.111282	-0.397254	-0.000167
C24	C	-0.161703	-0.398606	-0.000155
C25	C	-0.192264	-0.282983	-0.000161
C26	C	-0.172404	-0.166008	-0.000178
C27	C	-0.132688	0.067958	-0.000229
C28	C	-0.183114	0.066594	-0.000232
C29	C	-0.202973	-0.050390	-0.000213
C30	C	-0.253385	-0.051737	-0.000172
N31	N	-0.273247	-0.168714	-0.000168
C32	C	-0.242687	-0.284336	-0.000163
C33	C	0.205460	-0.039426	-0.000210
C34	C	0.255883	-0.038073	-0.000208
C35	C	0.266583	-0.270682	-0.000197
C36	C	0.216159	-0.272034	-0.000188
C37	C	0.185598	-0.156403	-0.000206
C38	C	-0.348574	-0.287166	-0.000137
C39	C	-0.398999	-0.288508	-0.000120
C40	C	-0.409694	-0.055900	-0.000138
C41	C	-0.359273	-0.054557	-0.000148
C42	C	-0.328714	-0.170201	-0.000153
O43	O	-0.284050	0.046415	-0.000129
O44	O	-0.264218	-0.383942	-0.000177
C45	C	-0.041002	-0.278928	-0.000196
C46	C	-0.021143	-0.161954	-0.000213
C47	C	-0.051703	-0.046331	-0.000218
C48	C	0.029280	-0.160600	-0.000211
C49	C	0.059841	-0.276223	-0.000205
C50	C	0.039979	-0.393199	-0.000202
C51	C	-0.010441	-0.394551	-0.000190
C52	C	-0.031841	0.070646	-0.000222
C53	C	0.018580	0.071988	-0.000232
C54	C	0.049140	-0.043635	-0.000226
C55	C	-0.574275	0.069959	-0.000179
C56	C	-0.572828	0.211525	-0.000176
C57	C	-0.568841	-0.396539	-0.000158
C58	C	-0.570287	-0.538105	-0.000151
N59	N	-0.571553	-0.163308	-0.353210
C60	C	-0.526047	0.277609	-0.000150
C61	C	-0.548143	0.370696	-0.122473
C62	C	-0.548160	0.370684	0.122113
C63	C	-0.594944	0.302747	-0.122600
C64	C	-0.594954	0.302726	0.122096
C65	C	-0.617084	0.395787	-0.000256
C66	C	-0.537539	-0.254512	-0.450501
C67	C	-0.581302	-0.278399	-0.549928
C68	C	-0.527809	-0.139431	-0.549911
C69	C	-0.615337	-0.187252	-0.450448
C70	C	-0.561815	-0.048235	-0.450423
C71	C	-0.605609	-0.072072	-0.549804
N72	N	-0.571567	-0.163262	0.352870
H73	H	-0.415165	-0.383774	-0.000103
H74	H	-0.652345	-0.207545	-0.406941
O75	O	-0.621158	0.262828	0.259102
H76	H	-0.658718	0.312099	0.260000
H77	H	-0.634411	0.005081	-0.593132
H78	H	-0.116528	0.163218	-0.000245
O79	O	-0.521940	0.410577	0.259105
H80	H	-0.484161	0.362749	0.258847
O81	O	-0.031859	-0.520726	-0.000200
H82	H	-0.002130	-0.600887	-0.000218
O83	O	-0.550878	0.080600	-0.392462
H84	H	-0.514523	0.100182	-0.432223
O85	O	-0.216077	0.191312	-0.000245
H86	H	-0.193793	0.272876	-0.000247
H87	H	-0.490810	-0.119256	-0.593606
H88	H	-0.343103	0.040700	-0.000142
H89	H	-0.177867	-0.493866	-0.000140
O90	O	-0.521921	0.410618	-0.259442
H91	H	-0.546882	0.477939	-0.326671
H92	H	-0.086404	-0.491414	-0.000168
O93	O	-0.315616	-0.411892	-0.000129
H94	H	-0.337904	-0.493448	-0.000101
H95	H	-0.614718	0.272779	-0.226130
O96	O	0.072948	-0.517907	-0.000216
H97	H	0.096185	-0.522845	0.100882
O98	O	0.194739	-0.398206	-0.000197
H99	H	0.224466	-0.478371	-0.000205
O100	O	-0.499474	-0.356756	-0.392722
H101	H	-0.507683	-0.452165	-0.432575
O102	O	0.039997	0.198171	-0.000266
H103	H	0.010270	0.278336	-0.000288
O104	O	-0.442665	0.068798	-0.000158
H105	H	-0.435560	0.124845	0.100949
O106	O	0.299549	-0.395395	-0.000214
H107	H	0.337946	-0.374788	-0.000232
H108	H	0.180582	0.054740	-0.000224
O109	O	0.277299	0.088105	-0.000227
H110	H	0.265051	0.143629	0.100871
O111	O	-0.064801	0.195359	-0.000225
H112	H	-0.042514	0.276917	-0.000222
O113	O	-0.592211	-0.407258	-0.607917
H114	H	-0.563917	-0.482822	-0.568187
H115	H	-0.487584	0.226267	-0.000261
H116	H	-0.655582	0.446903	-0.000336
