data_functionalizedCrystal
_audit_creation_method	'MofGen! by Chris Wilmer'
_symmetry_space_group_name_H-M	'P1'
_symmetry_Int_Tables_number	1
_symmetry_cell_setting	triclinic
loop_
_symmetry_equiv_pos_as_xyz
  x,y,z
_cell_length_a	18.050591
_cell_length_b	19.121063
_cell_length_c	19.120904
_cell_angle_alpha	94.741613
_cell_angle_beta	92.416941
_cell_angle_gamma	92.465257
loop_
_atom_site_label
_atom_site_type_symbol
_atom_site_fract_x
_atom_site_fract_y
_atom_site_fract_z
Zn1	Zn	1.103413	-0.297188	-0.409883
Zn2	Zn	1.603413	0.202812	0.090117
Zn3	Zn	1.103321	-0.409835	-0.297234
Zn4	Zn	1.603321	0.090165	0.202766
Zn5	Zn	0.984762	-0.292181	-0.292224
Zn6	Zn	1.484762	0.207819	0.207776
Zn7	Zn	0.973652	-0.414806	-0.414841
Zn8	Zn	1.473652	0.085194	0.085159
O9	O	1.041287	-0.353503	-0.353546
O10	O	1.541287	0.146497	0.146454
O11	O	1.207324	-0.312146	-0.394962
O12	O	1.707324	0.187854	0.105038
O13	O	1.092205	-0.390052	-0.198110
O14	O	1.592205	0.109948	0.301890
O15	O	1.005189	-0.194383	-0.303660
O16	O	1.505189	0.305617	0.196340
O17	O	1.207256	-0.394908	-0.312199
O18	O	1.707256	0.105092	0.187801
O19	O	1.092361	-0.198062	-0.390104
O20	O	1.592361	0.301938	0.109896
O21	O	1.005100	-0.303612	-0.194429
O22	O	1.505100	0.196388	0.305571
O23	O	0.879365	-0.308432	-0.308468
O24	O	1.379365	0.191568	0.191532
O25	O	0.986254	-0.403380	-0.512643
O26	O	1.486254	0.096620	-0.012643
O27	O	0.871203	-0.398524	-0.398554
O28	O	1.371203	0.101476	0.101446
O29	O	1.081589	-0.316967	-0.509001
O30	O	1.581589	0.183033	-0.009001
O31	O	1.081432	-0.508957	-0.317006
O32	O	1.581432	-0.008957	0.182994
O33	O	0.986165	-0.512609	-0.403412
O34	O	1.486165	-0.012609	0.096588
C35	C	0.848338	-0.353475	-0.353506
C36	C	1.348338	0.146525	0.146494
C37	C	0.765792	-0.353480	-0.353506
C38	C	1.265792	0.146520	0.146494
C39	C	0.570756	-0.304438	-0.304623
C40	C	1.070756	0.195562	0.195377
C41	C	0.519132	-0.367877	-0.290041
C42	C	1.019132	0.132123	0.209959
C43	C	0.614659	-0.353503	-0.353539
C44	C	1.114659	0.146497	0.146461
C45	C	0.519200	-0.290086	-0.368119
C46	C	1.019200	0.209914	0.131881
C47	C	0.468672	-0.353519	-0.353569
C48	C	0.968672	0.146481	0.146431
C49	C	0.564122	-0.416974	-0.338925
C50	C	1.064122	0.083026	0.161075
C51	C	0.564195	-0.339142	-0.417031
C52	C	1.064195	0.160858	0.082969
C53	C	0.512591	-0.402626	-0.402476
C54	C	1.012591	0.097374	0.097524
C55	C	0.698758	-0.353493	-0.353519
C56	C	1.198758	0.146507	0.146481
C57	C	0.384573	-0.353537	-0.353588
C58	C	0.884573	0.146463	0.146412
C59	C	1.032602	-0.536314	-0.361306
C60	C	1.532602	-0.036314	0.138694
C61	C	1.028954	-0.614522	-0.364650
C62	C	1.528954	-0.114522	0.135350
C63	C	1.076876	-0.649342	-0.321271
C64	C	1.576876	-0.149342	0.178729
C65	C	1.073449	-0.722827	-0.324420
C66	C	1.573449	-0.222827	0.175580
C67	C	1.022096	-0.761492	-0.370944
C68	C	1.522096	-0.261492	0.129056
C69	C	0.974172	-0.726668	-0.414328
C70	C	1.474172	-0.226668	0.085672
C71	C	0.977603	-0.653184	-0.411182
C72	C	1.477603	-0.153184	0.088818
C73	C	1.009256	-0.983462	-0.382694
C74	C	1.509256	-0.483462	0.117306
C75	C	1.005827	-1.056951	-0.385835
C76	C	1.505827	-0.556951	0.114165
C77	C	1.105105	-1.053106	-0.295928
C78	C	1.605105	-0.553106	0.204072
C79	C	1.108528	-0.979621	-0.292784
C80	C	1.608528	-0.479621	0.207216
C81	C	1.060607	-0.944803	-0.336169
C82	C	1.560607	-0.444803	0.163831
C83	C	1.018590	-0.836606	-0.374162
C84	C	1.518590	-0.336606	0.125838
C85	C	1.064117	-0.869690	-0.332954
C86	C	1.564117	-0.369690	0.167046
C87	C	1.234989	-0.353531	-0.353586
C88	C	1.734989	0.146469	0.146414
C89	C	1.317534	-0.353543	-0.353604
C90	C	1.817534	0.146457	0.146396
C91	C	1.032692	-0.361286	-0.537065
C92	C	1.532692	0.138714	-0.037065
C93	C	1.029030	-0.364603	-0.615271
C94	C	1.529030	0.135397	-0.115271
C95	C	1.050025	-0.169978	-0.345770
C96	C	1.550025	0.330022	0.154230
C97	C	1.053748	-0.091771	-0.342457
C98	C	1.553748	0.408229	0.157543
C99	C	1.076942	-0.321173	-0.650116
C100	C	1.576942	0.178827	-0.150116
C101	C	1.073492	-0.324287	-0.723598
C102	C	1.573492	0.175713	-0.223598
C103	C	1.022133	-0.370835	-0.762233
C104	C	1.522133	0.129165	-0.262233
C105	C	0.974215	-0.414268	-0.727383
C106	C	1.474215	0.085732	-0.227383
C107	C	0.977662	-0.411150	-0.653902
C108	C	1.477662	0.088850	-0.153902
C109	C	1.009238	-0.382497	-0.984193
C110	C	1.509238	0.117503	-0.484193
C111	C	1.005796	-0.385614	-1.057679
C112	C	1.505796	0.114386	-0.557679
C113	C	1.105073	-0.295631	-1.053889
C114	C	1.605073	0.204369	-0.553889
C115	C	1.108518	-0.292521	-0.980407
C116	C	1.608518	0.207479	-0.480407
C117	C	1.060598	-0.335950	-0.945563
C118	C	1.560598	0.164050	-0.445563
C119	C	1.018606	-0.374021	-0.837344
C120	C	1.518606	0.125979	-0.337344
C121	C	1.064121	-0.332760	-0.870453
C122	C	1.564121	0.167240	-0.370453
C123	C	1.049893	-0.345698	-0.170738
C124	C	1.549893	0.154302	0.329262
C125	C	1.053709	-0.342183	-0.092524
C126	C	1.553709	0.157817	0.407476
H127	H	0.584081	-0.326962	-0.470695
H128	H	1.084081	0.173038	0.029305
N129	N	1.119520	-0.282562	-0.828785
N130	N	1.619520	0.217438	-0.328785
H131	H	1.149355	-0.255521	-0.862007
H132	H	1.649355	0.244479	-0.362007
H133	H	1.092273	-0.248701	-0.796909
H134	H	1.592273	0.251299	-0.296909
H135	H	1.105931	-0.838208	-0.295077
H136	H	1.605931	-0.338208	0.204923
N137	N	0.492967	-0.219040	-0.384445
N138	N	0.992967	0.280960	0.115555
H139	H	0.459968	-0.224333	-0.428728
H140	H	0.959968	0.275667	0.071272
H141	H	0.464146	-0.198580	-0.344108
H142	H	0.964146	0.301420	0.155892
H143	H	0.583839	-0.470625	-0.326545
H144	H	1.083839	0.029375	0.173455
H145	H	0.499266	-0.380037	-0.236360
H146	H	0.999266	0.119963	0.263640
H147	H	0.487330	-0.444171	-0.443857
H148	H	0.987330	0.055829	0.056143
H149	H	0.976792	-0.411924	-0.868809
H150	H	1.476792	0.088076	-0.368809
N151	N	1.132262	-0.607641	-0.271089
N152	N	1.632262	-0.107641	0.228911
H153	H	1.162101	-0.640853	-0.244088
H154	H	1.662101	-0.140853	0.255912
H155	H	1.166687	-0.578332	-0.298457
H156	H	1.666687	-0.078332	0.201543
H157	H	1.112471	-0.751174	-0.289096
H158	H	1.612471	-0.251174	0.210904
H159	H	0.932394	-0.452166	-0.758845
H160	H	1.432394	0.047834	-0.258845
N161	N	1.163926	-0.937920	-0.242614
N162	N	1.663926	-0.437920	0.257386
H163	H	1.193770	-0.971129	-0.215615
H164	H	1.693770	-0.471129	0.284385
H165	H	1.198347	-0.908616	-0.269993
H166	H	1.698347	-0.408616	0.230007
N167	N	1.163901	-0.242289	-0.938754
N168	N	1.663901	0.257711	-0.438754
H169	H	1.136692	-0.208386	-0.906887
H170	H	1.636692	0.291614	-0.406887
H171	H	1.198385	-0.269625	-0.909522
H172	H	1.698385	0.230375	-0.409522
N173	N	1.156785	-1.090658	-0.249133
N174	N	1.656785	-0.590658	0.250867
H175	H	1.146821	-1.143077	-0.258182
H176	H	1.646821	-0.643077	0.241818
H177	H	1.209903	-1.078239	-0.259581
H178	H	1.709903	-0.578239	0.240419
H179	H	0.964017	-1.088431	-0.423733
H180	H	1.464017	-0.588431	0.076267
H181	H	0.970235	-0.955120	-0.418020
H182	H	1.470235	-0.455120	0.081980
H183	H	0.963970	-0.423521	-1.089134
H184	H	1.463970	0.076479	-0.589134
H185	H	0.932362	-0.758154	-0.452212
H186	H	1.432362	-0.258154	0.047788
N187	N	0.604408	-0.249535	-0.249780
N188	N	1.104408	0.250465	0.250220
H189	H	0.587377	-0.201720	-0.260288
H190	H	1.087377	0.298280	0.239712
H191	H	0.588061	-0.260548	-0.201869
H192	H	1.088061	0.239452	0.298131
H193	H	0.976777	-0.868095	-0.412041
H194	H	1.476777	-0.368095	0.087959
H195	H	0.938581	-0.624835	-0.446506
H196	H	1.438581	-0.124835	0.053494
N197	N	0.957532	-0.429314	-0.946615
N198	N	1.457532	0.070686	-0.446615
H199	H	0.924469	-0.459268	-0.982242
H200	H	1.424469	0.040732	-0.482242
H201	H	0.987613	-0.460596	-0.917500
H202	H	1.487613	0.039404	-0.417500
H203	H	1.118767	-0.283270	-0.618665
H204	H	1.618767	0.216730	-0.118665
H205	H	1.112510	-0.288923	-0.751966
H206	H	1.612510	0.211077	-0.251966
H207	H	1.144086	-0.260273	-1.082267
H208	H	1.644086	0.239727	-0.582267
H209	H	0.938639	-0.446508	-0.625531
H210	H	1.438639	0.053492	-0.125531
