data_functionalizedCrystal
_audit_creation_method	'MofGen! by Chris Wilmer'
_symmetry_space_group_name_H-M	'P1'
_symmetry_Int_Tables_number	1
_symmetry_cell_setting	triclinic
loop_
_symmetry_equiv_pos_as_xyz
  x,y,z
_cell_length_a	23.532407
_cell_length_b	23.532407
_cell_length_c	22.010155
_cell_angle_alpha	89.999577
_cell_angle_beta	89.996931
_cell_angle_gamma	82.848678
loop_
_atom_site_label
_atom_site_type_symbol
_atom_site_fract_x
_atom_site_fract_y
_atom_site_fract_z
O1	O	0.755264	0.069127	-0.050455
O2	O	1.255264	0.569127	0.449545
O3	O	0.589400	0.079130	-0.050474
O4	O	1.089400	0.579130	0.449526
O5	O	0.677334	-0.008803	-0.050453
O6	O	1.177334	0.491197	0.449547
O7	O	0.667330	0.157060	-0.050476
O8	O	1.167330	0.657060	0.449524
O9	O	0.677318	-0.008790	0.050597
O10	O	1.177318	0.491210	0.550597
O11	O	0.589384	0.079143	0.050576
O12	O	1.089384	0.579143	0.550576
O13	O	0.755248	0.069140	0.050595
O14	O	1.255248	0.569140	0.550595
Cu15	Cu	0.672315	0.074143	0.059812
Cu16	Cu	1.172315	0.574143	0.559812
Cu17	Cu	0.672333	0.074127	-0.059691
Cu18	Cu	1.172333	0.574127	0.440309
O19	O	0.667314	0.157073	0.050574
O20	O	1.167314	0.657073	0.550574
C21	C	0.568176	0.078882	0.000049
C22	C	1.068176	0.578882	0.500049
C23	C	0.504959	0.078116	0.000042
C24	C	1.004959	0.578116	0.500042
C25	C	0.677071	-0.030013	0.000074
C26	C	1.177071	0.469987	0.500074
C27	C	0.676305	-0.093230	0.000078
C28	C	1.176305	0.406770	0.500078
C29	C	0.105856	0.125350	0.000063
C30	C	0.605856	0.625350	0.500063
C31	C	0.046456	0.124638	0.000067
C32	C	0.546456	0.624638	0.500067
O33	O	0.009711	0.168424	0.000083
O34	O	0.509711	0.668424	0.500083
N35	N	0.023830	0.072362	0.000073
N36	N	0.523830	0.572362	0.500073
C37	C	0.060607	0.020794	0.000082
C38	C	0.560607	0.520794	0.500082
O39	O	0.035908	-0.023737	0.000088
O40	O	0.535908	0.476263	0.500088
C41	C	0.120006	0.021506	0.000082
C42	C	0.620006	0.521506	0.500082
C43	C	0.142629	0.073785	0.000070
C44	C	0.642629	0.573785	0.500070
C45	C	0.128479	0.177625	0.000051
C46	C	0.628479	0.677625	0.500051
C47	C	0.187876	0.178336	0.000046
C48	C	0.687876	0.678336	0.500046
C49	C	0.224649	0.126772	0.000053
C50	C	0.724649	0.626772	0.500053
C51	C	0.202025	0.074497	0.000065
C52	C	0.702025	0.574497	0.500065
C53	C	0.156783	-0.030062	0.000096
C54	C	0.656783	0.469938	0.500096
C55	C	0.216185	-0.029345	0.000097
C56	C	0.716185	0.470655	0.500097
C57	C	0.238808	0.022934	0.000084
C58	C	0.738808	0.522934	0.500084
C59	C	0.298194	0.023643	0.000067
C60	C	0.798194	0.523643	0.500067
N61	N	0.320820	0.075920	0.000061
N62	N	0.820820	0.575920	0.500061
C63	C	0.284048	0.127484	0.000054
C64	C	0.784048	0.627484	0.500054
C65	C	-0.064135	0.019302	0.000082
C66	C	0.435865	0.519302	0.500082
C67	C	-0.123533	0.018589	0.000077
C68	C	0.376467	0.518589	0.500077
C69	C	-0.137680	0.122434	0.000063
C70	C	0.362320	0.622434	0.500063
C71	C	-0.078281	0.123146	0.000064
C72	C	0.421719	0.623146	0.500064
C73	C	-0.041509	0.071578	0.000076
C74	C	0.458491	0.571578	0.500076
C75	C	0.408784	0.128974	0.000043
C76	C	0.908784	0.628974	0.500043
C77	C	0.468186	0.129680	0.000035
C78	C	0.968186	0.629680	0.500035
C79	C	0.482329	0.025836	0.000052
C80	C	0.982329	0.525836	0.500052
C81	C	0.422932	0.025129	0.000057
C82	C	0.922932	0.525129	0.500057
C83	C	0.386160	0.076702	0.000054
C84	C	0.886160	0.576702	0.500054
O85	O	0.334974	-0.020119	0.000054
O86	O	0.834974	0.479881	0.500054
O87	O	0.308755	0.172007	0.000055
O88	O	0.808755	0.672007	0.500055
C89	C	0.723539	-0.492333	0.000050
C90	C	1.223539	0.007667	0.500050
C91	C	0.722827	-0.551733	0.000046
C92	C	1.222827	-0.051733	0.500046
O93	O	0.766613	-0.588478	0.000028
O94	O	1.266613	-0.088478	0.500028
N95	N	0.670551	-0.574359	0.000040
N96	N	1.170551	-0.074359	0.500040
C97	C	0.618983	-0.537582	0.000033
C98	C	1.118983	-0.037582	0.500033
O99	O	0.574452	-0.562281	0.000027
O100	O	1.074452	-0.062281	0.500027
C101	C	0.619695	-0.478182	0.000033
C102	C	1.119695	0.021818	0.500033
C103	C	0.671974	-0.455560	0.000045
C104	C	1.171974	0.044440	0.500045
C105	C	0.775814	-0.469710	0.000061
C106	C	1.275814	0.030290	0.500061
C107	C	0.776525	-0.410313	0.000067
C108	C	1.276525	0.089687	0.500067
C109	C	0.724961	-0.373540	0.000062
C110	C	1.224961	0.126460	0.500062
C111	C	0.672685	-0.396164	0.000051
C112	C	1.172685	0.103836	0.500051
C113	C	0.568127	-0.441406	0.000022
C114	C	1.068127	0.058594	0.500022
C115	C	0.568844	-0.382004	0.000022
C116	C	1.068844	0.117996	0.500022
C117	C	0.621123	-0.359381	0.000034
C118	C	1.121123	0.140619	0.500034
C119	C	0.621832	-0.299995	0.000052
C120	C	1.121832	0.200005	0.500052
N121	N	0.674109	-0.277368	0.000057
N122	N	1.174109	0.222632	0.500057
C123	C	0.725673	-0.314141	0.000062
C124	C	1.225673	0.185859	0.500062
C125	C	0.617491	-0.662324	0.000031
C126	C	1.117491	-0.162324	0.500031
C127	C	0.616778	-0.721722	0.000035
C128	C	1.116778	-0.221722	0.500035
C129	C	0.720623	-0.735869	0.000047
C130	C	1.220623	-0.235869	0.500047
C131	C	0.721335	-0.676470	0.000047
C132	C	1.221335	-0.176470	0.500047
C133	C	0.669767	-0.639698	0.000037
C134	C	1.169767	-0.139698	0.500037
C135	C	0.727163	-0.189405	0.000075
C136	C	1.227163	0.310595	0.500075
C137	C	0.727869	-0.130003	0.000083
C138	C	1.227869	0.369997	0.500083
C139	C	0.624025	-0.115860	0.000069
C140	C	1.124025	0.384140	0.500069
C141	C	0.623318	-0.175257	0.000064
C142	C	1.123318	0.324743	0.500064
C143	C	0.674891	-0.212029	0.000065
C144	C	1.174891	0.287971	0.500065
O145	O	0.578070	-0.263215	0.000067
O146	O	1.078070	0.236785	0.500067
O147	O	0.770196	-0.289433	0.000060
O148	O	1.270196	0.210567	0.500060
C149	C	0.776472	0.069388	0.000071
C150	C	1.276472	0.569388	0.500071
C151	C	0.839689	0.070154	0.000073
C152	C	1.339689	0.570154	0.500073
C153	C	0.667577	0.178283	0.000046
C154	C	1.167577	0.678283	0.500046
C155	C	0.668343	0.241500	0.000037
C156	C	1.168343	0.741500	0.500037
N157	N	0.672305	0.074153	0.143865
N158	N	1.172305	0.574153	0.643865
N159	N	0.672347	0.074112	-0.143744
N160	N	1.172347	0.574112	0.356256
C161	C	0.711273	0.035196	0.563653
C162	C	1.211273	0.535196	1.063653
C163	C	0.711275	0.035192	0.627261
C164	C	1.211275	0.535192	1.127261
O165	O	0.744384	0.002076	0.660160
O166	O	1.244384	0.502076	1.160160
N167	N	0.672333	0.074115	0.659072
N168	N	1.172333	0.574115	1.159072
C169	C	0.633382	0.113041	0.627272
C170	C	1.133382	0.613041	1.127272
O171	O	0.600259	0.146148	0.660170
O172	O	1.100259	0.646148	1.160170
C173	C	0.633377	0.113042	0.563665
C174	C	1.133377	0.613042	1.063665
C175	C	0.672326	0.074120	0.531858
C176	C	1.172326	0.574120	1.031858
C177	C	0.750217	-0.003723	0.531846
C178	C	1.250217	0.496277	1.031846
C179	C	0.750215	-0.003719	0.468243
C180	C	1.250215	0.496281	0.968243
C181	C	0.711268	0.035205	0.436447
C182	C	1.211268	0.535205	0.936447
C183	C	0.672324	0.074125	0.468255
C184	C	1.172324	0.574125	0.968255
C185	C	0.594424	0.151965	0.531866
C186	C	1.094424	0.651965	1.031866
C187	C	0.594422	0.151962	0.468256
C188	C	1.094422	0.651962	0.968256
C189	C	0.633370	0.113040	0.436448
C190	C	1.133370	0.613040	0.936448
C191	C	0.633374	0.113054	0.372856
C192	C	1.133374	0.613054	0.872856
N193	N	0.672317	0.074130	0.341045
N194	N	1.172317	0.574130	0.841045
C195	C	0.711263	0.035206	0.372841
C196	C	1.211263	0.535206	0.872841
C197	C	0.633395	0.113036	0.760850
C198	C	1.133395	0.613036	1.260850
C199	C	0.633402	0.113039	0.824455
C200	C	1.133402	0.613039	1.324455
C201	C	0.711294	0.035188	0.824440
C202	C	1.211294	0.535188	1.324440
C203	C	0.711290	0.035189	0.760833
C204	C	1.211290	0.535189	1.260833
C205	C	0.672337	0.074113	0.729039
C206	C	1.172337	0.574113	1.229039
C207	C	0.711256	0.035220	0.239269
C208	C	1.211256	0.535220	0.739269
C209	C	0.711252	0.035229	0.175660
C210	C	1.211252	0.535229	0.675660
C211	C	0.633358	0.113077	0.175681
C212	C	1.133358	0.613077	0.675681
C213	C	0.633364	0.113070	0.239284
C214	C	1.133364	0.613070	0.739284
C215	C	0.672315	0.074136	0.271077
C216	C	1.172315	0.574136	0.771077
O217	O	0.600282	0.146151	0.339916
O218	O	1.100282	0.646151	0.839916
O219	O	0.744376	0.002100	0.339935
O220	O	1.244376	0.502100	0.839935
H221	H	0.486602	0.172255	0.000025
H222	H	0.986602	0.672255	0.500025
H223	H	0.601654	0.144769	0.265183
H224	H	1.101654	0.644769	0.765183
O225	O	0.778707	-0.108123	0.000065
O226	O	1.278707	0.391877	0.500065
C227	C	0.824064	-0.153322	0.000081
C228	C	1.324064	0.346678	0.500081
H229	H	0.808335	-0.193587	-0.019055
H230	H	1.308335	0.306413	0.480945
H231	H	0.860588	-0.141108	-0.029251
H232	H	1.360588	0.358892	0.470749
H233	H	0.839946	-0.161818	0.048561
H234	H	1.339946	0.338182	0.548561
O235	O	0.401018	-0.025689	-0.000019
O236	O	0.901018	0.474311	0.499981
C237	C	0.419821	-0.057102	-0.052359
C238	C	0.919821	0.442898	0.447641
H239	H	0.460936	-0.041825	-0.069816
H240	H	0.960936	0.458175	0.430184
H241	H	0.428326	-0.104575	-0.040583
H242	H	0.928326	0.395425	0.459417
H243	H	0.385407	-0.050309	-0.089002
H244	H	0.885407	0.449691	0.410998
O245	O	0.770729	-0.771574	0.000153
O246	O	1.270729	-0.271574	0.500153
C247	C	0.802495	-0.761364	0.052482
C248	C	1.302495	-0.261364	0.552482
H249	H	0.772311	-0.740893	0.089062
H250	H	1.272311	-0.240893	0.589062
H251	H	0.825570	-0.803641	0.070046
H252	H	1.325570	-0.303641	0.570046
H253	H	0.835289	-0.731302	0.040654
H254	H	1.335289	-0.231302	0.540654
O255	O	0.518712	-0.346341	-0.000068
O256	O	1.018712	0.153659	0.499932
C257	C	0.486970	-0.356541	-0.052417
C258	C	0.986970	0.143459	0.447583
H259	H	0.501223	-0.401679	-0.069866
H260	H	1.001223	0.098321	0.430134
H261	H	0.439444	-0.352104	-0.040656
H262	H	0.939444	0.147896	0.459344
H263	H	0.494574	-0.324089	-0.089060
H264	H	0.994574	0.175911	0.410940
O265	O	-0.145410	-0.032245	0.000109
O266	O	0.354590	0.467755	0.500109
C267	C	-0.100209	-0.077600	0.000097
C268	C	0.399791	0.422400	0.500097
H269	H	-0.059944	-0.061864	0.019223
H270	H	0.440056	0.438136	0.519223
H271	H	-0.112418	-0.114118	0.029441
H272	H	0.387582	0.385882	0.529441
H273	H	-0.091715	-0.093494	-0.048380
H274	H	0.408285	0.406506	0.451620
H275	H	-0.034198	-0.022693	0.000086
H276	H	0.465802	0.477307	0.500086
O277	O	0.572485	-0.197142	0.000028
O278	O	1.072485	0.302858	0.500028
C279	C	0.527126	-0.151944	0.000042
C280	C	1.027126	0.348056	0.500042
H281	H	0.542861	-0.111674	-0.019075
H282	H	1.042861	0.388326	0.480925
H283	H	0.490613	-0.164152	-0.029307
H284	H	0.990613	0.335848	0.470693
H285	H	0.511225	-0.143460	0.048519
H286	H	1.011225	0.356540	0.548519
H287	H	0.743006	0.003493	0.850339
H288	H	1.243006	0.503493	1.350339
O289	O	0.749109	-0.002638	0.144857
O290	O	1.249109	0.497362	0.644857
C291	C	0.783492	-0.036985	0.186566
C292	C	1.283492	0.463015	0.686566
H293	H	0.760146	-0.037510	0.231908
H294	H	1.260146	0.462490	0.731908
H295	H	0.792440	-0.082511	0.168187
H296	H	1.292440	0.417489	0.668187
H297	H	0.825692	-0.018707	0.193329
H298	H	1.325692	0.481293	0.693329
O299	O	0.749028	-0.002675	0.729889
O300	O	1.249028	0.497325	1.229889
C301	C	0.718702	-0.037667	0.693141
C302	C	1.218702	0.462333	1.193141
H303	H	0.674024	-0.014731	0.683596
H304	H	1.174024	0.485269	1.183596
H305	H	0.742521	-0.046849	0.648419
H306	H	1.242521	0.453151	1.148419
H307	H	0.715038	-0.079714	0.717691
H308	H	1.215038	0.420286	1.217691
H309	H	-0.059867	0.165717	0.000057
H310	H	0.440133	0.665717	0.500057
H311	H	0.817806	-0.499645	0.000063
H312	H	1.317806	0.000355	0.500063
O313	O	0.595493	0.150795	0.855322
O314	O	1.095493	0.650795	1.355322
C315	C	0.539173	0.141832	0.839767
C316	C	1.039173	0.641832	1.339767
H317	H	0.539156	0.096234	0.822283
H318	H	1.039156	0.596234	1.322283
H319	H	0.510552	0.148528	0.881597
H320	H	1.010552	0.648528	1.381597
H321	H	0.522268	0.173483	0.802845
H322	H	1.022268	0.673483	1.302845
H323	H	0.574207	-0.740136	0.000036
H324	H	1.074207	-0.240136	0.500036
O325	O	0.567432	-0.626547	0.000111
O326	O	1.067432	-0.126547	0.500111
C327	C	0.564718	-0.591776	0.052454
C328	C	1.064718	-0.091776	0.552454
H329	H	0.609902	-0.589014	0.069906
H330	H	1.109902	-0.089014	0.569906
H331	H	0.543240	-0.547014	0.040683
H332	H	1.043240	-0.047014	0.540683
H333	H	0.538821	-0.611181	0.089098
H334	H	1.038821	-0.111181	0.589098
O335	O	0.827275	-0.388276	-0.000011
O336	O	1.327275	0.111724	0.499989
C337	C	0.830811	-0.354355	-0.052354
C338	C	1.330811	0.145645	0.447646
H339	H	0.785840	-0.339304	-0.069802
H340	H	1.285840	0.160696	0.430198
H341	H	0.853295	-0.315586	-0.040584
H342	H	1.353295	0.184414	0.459416
H343	H	0.856156	-0.380744	-0.089000
H344	H	1.356156	0.119256	0.411000
H345	H	0.562708	0.183658	0.557755
H346	H	1.062708	0.683658	1.057755
O347	O	-0.173489	0.172473	0.000086
O348	O	0.326511	0.672473	0.500086
C349	C	-0.230765	0.160628	0.000074
C350	C	0.269235	0.660628	0.500074
H351	H	-0.232791	0.115910	0.019211
H352	H	0.267209	0.615910	0.519211
H353	H	-0.257864	0.193518	0.029408
H354	H	0.242136	0.693518	0.529408
H355	H	-0.247955	0.162880	-0.048404
H356	H	0.252045	0.662880	0.451596
H357	H	0.098544	0.219617	0.000048
H358	H	0.598544	0.719617	0.500048
O359	O	0.373151	0.179124	0.000009
O360	O	0.873151	0.679124	0.500009
C361	C	0.405867	0.225410	0.000011
C362	C	0.905867	0.725410	0.500011
H363	H	0.450283	0.210684	-0.019117
H364	H	0.950283	0.710684	0.480883
H365	H	0.383764	0.261514	-0.029335
H366	H	0.883764	0.761514	0.470665
H367	H	0.410009	0.241460	0.048486
H368	H	0.910009	0.741460	0.548486
H369	H	0.246123	-0.071339	0.000107
H370	H	0.746123	0.428661	0.500107
O371	O	0.573990	-0.080053	0.000036
O372	O	1.073990	0.419947	0.500036
C373	C	0.585835	-0.022777	0.000056
C374	C	1.085835	0.477223	0.500056
H375	H	0.630560	-0.020751	-0.019065
H376	H	1.130560	0.479249	0.480935
H377	H	0.552957	0.004321	-0.029289
H378	H	1.052957	0.504321	0.470711
H379	H	0.583566	-0.005585	0.048535
H380	H	1.083566	0.494415	0.548535
H381	H	0.601676	0.144737	0.734966
H382	H	1.101676	0.644737	1.234966
H383	H	0.525555	-0.459814	0.000009
H384	H	1.025555	0.040186	0.500009
H385	H	0.742973	0.003516	0.265148
H386	H	1.242973	0.503516	0.765148
H387	H	0.763906	-0.658056	0.000056
H388	H	1.263906	-0.158056	0.500056
H389	H	0.206289	0.220908	0.000036
H390	H	0.706289	0.720908	0.500036
O391	O	0.788067	-0.041588	0.437444
O392	O	1.288067	0.458412	0.937444
C393	C	0.822447	-0.075931	0.479157
C394	C	1.322447	0.424069	0.979157
H395	H	0.799100	-0.076448	0.524499
H396	H	1.299100	0.423552	1.024499
H397	H	0.831391	-0.121460	0.460786
H398	H	1.331391	0.378540	0.960786
H399	H	0.864648	-0.057656	0.485918
H400	H	1.364648	0.442344	0.985918
O401	O	0.556562	0.189831	0.437466
O402	O	1.056562	0.689831	0.937466
C403	C	0.522180	0.224170	0.479185
C404	C	1.022180	0.724170	0.979185
H405	H	0.545529	0.224690	0.524523
H406	H	1.045529	0.724690	1.024523
H407	H	0.513229	0.269699	0.460814
H408	H	1.013229	0.769699	0.960814
H409	H	0.479982	0.205889	0.485953
H410	H	0.979982	0.705889	0.985953
O411	O	0.788078	-0.041458	0.562793
O412	O	1.288078	0.458542	1.062793
C413	C	0.823053	-0.011137	0.599566
C414	C	1.323053	0.488863	1.099566
H415	H	0.800116	0.033541	0.609108
H416	H	1.300116	0.533541	1.109108
H417	H	0.832212	-0.034960	0.644288
H418	H	1.332212	0.465040	1.144288
H419	H	0.865113	-0.007474	0.575038
H420	H	1.365113	0.492526	1.075038
O421	O	0.595603	0.150908	0.144721
O422	O	1.095603	0.650908	0.644721
C423	C	0.625897	0.185900	0.107934
C424	C	1.125897	0.685900	0.607934
H425	H	0.670592	0.162996	0.098407
H426	H	1.170592	0.662996	0.598407
H427	H	0.602076	0.195022	0.063206
H428	H	1.102076	0.695022	0.563206
H429	H	0.629518	0.227977	0.132443
H430	H	1.129518	0.727977	0.632443
O431	O	0.134886	-0.080884	0.000032
O432	O	0.634886	0.419116	0.500032
C433	C	0.153702	-0.112302	-0.052302
C434	C	0.653702	0.387698	0.447698
H435	H	0.194812	-0.097015	-0.069759
H436	H	0.694812	0.402985	0.430241
H437	H	0.162219	-0.159772	-0.040516
H438	H	0.662219	0.340228	0.459484
H439	H	0.119290	-0.105524	-0.088948
H440	H	0.619290	0.394476	0.411052
O441	O	0.777223	-0.225176	0.000160
O442	O	1.277223	0.274824	0.500160
C443	C	0.779920	-0.259950	0.052501
C444	C	1.279920	0.240050	0.552501
H445	H	0.734731	-0.262715	0.069939
H446	H	1.234731	0.237285	0.569939
H447	H	0.801405	-0.304711	0.040732
H448	H	1.301405	0.195289	0.540732
H449	H	0.805804	-0.240546	0.089154
H450	H	1.305804	0.259454	0.589154
H451	H	0.512280	-0.016146	0.000056
H452	H	1.012280	0.483854	0.500056
