data_functionalizedCrystal
_audit_creation_method	'MofGen! by Chris Wilmer'
_symmetry_space_group_name_H-M	'P1'
_symmetry_Int_Tables_number	1
_symmetry_cell_setting	triclinic
loop_
_symmetry_equiv_pos_as_xyz
  x,y,z
_cell_length_a	18.215407
_cell_length_b	12.759387
_cell_length_c	18.215405
_cell_angle_alpha	89.967142
_cell_angle_beta	90.019465
_cell_angle_gamma	89.979423
loop_
_atom_site_label
_atom_site_type_symbol
_atom_site_fract_x
_atom_site_fract_y
_atom_site_fract_z
Zn1	Zn	1.125110	-0.593992	-0.292996
Zn2	Zn	1.125018	-0.418306	-0.416081
Zn3	Zn	1.002036	-0.418329	-0.293027
Zn4	Zn	1.002014	-0.593945	-0.416019
O5	O	1.063544	-0.506143	-0.354531
O6	O	1.228082	-0.570697	-0.309336
O7	O	1.108674	-0.271288	-0.399796
O8	O	1.018409	-0.441660	-0.190039
O9	O	1.228014	-0.441621	-0.399766
O10	O	1.108831	-0.570719	-0.190016
O11	O	1.018320	-0.271304	-0.309389
O12	O	0.899049	-0.441614	-0.309330
O13	O	1.018373	-0.740972	-0.399661
O14	O	0.899033	-0.570639	-0.399692
O15	O	1.108811	-0.741007	-0.309276
O16	O	1.108653	-0.441576	-0.519057
O17	O	1.018284	-0.570617	-0.519012
C18	C	0.872338	-0.506124	-0.354508
C19	C	0.790539	-0.506141	-0.354516
C20	C	0.602380	-0.573457	-0.307526
C21	C	0.525521	-0.573461	-0.307532
C22	C	0.525461	-0.438847	-0.401556
C23	C	0.602318	-0.438839	-0.401545
C24	C	0.640776	-0.506150	-0.354532
C25	C	0.487060	-0.506162	-0.354548
C26	C	0.403726	-0.506165	-0.354556
C27	C	0.724115	-0.506146	-0.354523
C28	C	1.063600	-0.780176	-0.354459
C29	C	1.063624	-0.896953	-0.354428
C30	C	1.157803	-0.897009	-0.260316
C31	C	1.204903	-0.951898	-0.213249
C32	C	1.204920	-1.061619	-0.213222
C33	C	1.157832	-1.116455	-0.260266
C34	C	1.110732	-1.061566	-0.307333
C35	C	1.110721	-0.951842	-0.307356
C36	C	1.016550	-1.061510	-0.401440
C37	C	1.016535	-0.951789	-0.401471
C38	C	0.969462	-1.116346	-0.448483
C39	C	0.922365	-1.061457	-0.495555
C40	C	0.922349	-0.951729	-0.495581
C41	C	0.969435	-0.896900	-0.448538
C42	C	1.255497	-0.506162	-0.354554
C43	C	1.337296	-0.506170	-0.354564
C44	C	1.063476	-0.506112	-0.545737
C45	C	1.063514	-0.506134	-0.627536
C46	C	1.063531	-0.233175	-0.354549
C47	C	1.063650	-0.116399	-0.354373
C48	C	1.110641	-0.573437	-0.892524
C49	C	1.110616	-0.573421	-0.815665
C50	C	1.016542	-0.438909	-0.815796
C51	C	1.016571	-0.438921	-0.892654
C52	C	1.063619	-0.506191	-0.931015
C53	C	1.063566	-0.506163	-0.777299
C54	C	1.063539	-0.506145	-0.693966
C55	C	1.063648	-0.506207	-1.014354
C56	C	1.063633	-0.506197	-0.162578
C57	C	1.063671	-0.506220	-0.080779
H58	H	0.633581	-0.384023	-0.439824
H59	H	0.494140	-0.384045	-0.439834
C60	C	1.161646	-0.646423	-0.934307
C61	C	1.151596	-0.632064	-1.009855
C62	C	1.198565	-0.699289	-1.048366
H63	H	1.211124	-0.631176	-0.921772
H64	H	1.150836	-0.717020	-0.921727
H65	H	1.162411	-0.561482	-1.022430
H66	H	1.102128	-0.647318	-1.022412
H67	H	1.187755	-0.769886	-1.035786
H68	H	1.248040	-0.684036	-1.035825
H69	H	1.191747	-0.689562	-1.099629
C70	C	0.969341	-1.235473	-0.448383
C71	C	0.899297	-1.271770	-0.429566
C72	C	0.899160	-1.381503	-0.429460
H73	H	0.981995	-1.260407	-0.495848
H74	H	1.004101	-1.260356	-0.413595
H75	H	0.864547	-1.246898	-0.464352
H76	H	0.886628	-1.246864	-0.382100
H77	H	0.933921	-1.406386	-0.394673
H78	H	0.911817	-1.406427	-0.476927
H79	H	0.851639	-1.406145	-0.416687
H80	H	1.157800	-0.807668	-0.260340
H81	H	0.978235	-0.384141	-0.784555
H82	H	0.884025	-1.106113	-0.533850
H83	H	1.148907	-0.628178	-0.784327
H84	H	0.883987	-0.907045	-0.533900
C85	C	0.483966	-0.646657	-0.256471
C86	C	0.534099	-0.705617	-0.215312
C87	C	0.495847	-0.773067	-0.168272
H88	H	0.453978	-0.606668	-0.224310
H89	H	0.454007	-0.692422	-0.284648
H90	H	0.564046	-0.659857	-0.187138
H91	H	0.564089	-0.745627	-0.247454
H92	H	0.465887	-0.818833	-0.196448
H93	H	0.465859	-0.733070	-0.136116
H94	H	0.529856	-0.813086	-0.140345
C95	C	0.644267	-0.646488	-0.256559
C96	C	0.719794	-0.632099	-0.266622
C97	C	0.758401	-0.699365	-0.219688
H98	H	0.631765	-0.631298	-0.207072
H99	H	0.631731	-0.717076	-0.267393
H100	H	0.732324	-0.561526	-0.255783
H101	H	0.732318	-0.647296	-0.316099
H102	H	0.745865	-0.769954	-0.230522
H103	H	0.745893	-0.684170	-0.170204
H104	H	0.809650	-0.689618	-0.226514
H105	H	0.978279	-0.384155	-0.923994
H106	H	1.243240	-0.907238	-0.174946
C107	C	1.256136	-1.121030	-0.162094
C108	C	1.297382	-1.049531	-0.120911
C109	C	1.344575	-1.104221	-0.073811
H110	H	1.228089	-1.163843	-0.129950
H111	H	1.288231	-1.163806	-0.190228
H112	H	1.265291	-1.006772	-0.092778
H113	H	1.325444	-1.006715	-0.153036
H114	H	1.376670	-1.146997	-0.101946
H115	H	1.316522	-1.147032	-0.041672
H116	H	1.372571	-1.055717	-0.045869
H117	H	1.157844	-1.205796	-0.260234
H118	H	0.969430	-0.807559	-0.448558
