data_functionalizedCrystal
_audit_creation_method	'MofGen! by Chris Wilmer'
_symmetry_space_group_name_H-M	'P1'
_symmetry_Int_Tables_number	1
_symmetry_cell_setting	triclinic
loop_
_symmetry_equiv_pos_as_xyz
  x,y,z
_cell_length_a	6.817900
_cell_length_b	17.253917
_cell_length_c	11.168136
_cell_angle_alpha	97.542561
_cell_angle_beta	108.508683
_cell_angle_gamma	102.659311
loop_
_atom_site_label
_atom_site_type_symbol
_atom_site_fract_x
_atom_site_fract_y
_atom_site_fract_z
V1	V	-4.086985	-0.111307	-0.405685
O2	O	-4.070564	0.005336	-0.385630
O3	O	-4.040772	-0.220690	-0.414771
O4	O	-4.063627	-0.109600	-0.577207
O5	O	-4.047551	-0.106523	-0.222070
V6	V	-4.567085	-0.097354	-0.382282
O7	O	-4.355753	-0.141912	-0.457021
O8	O	-4.748515	-0.066748	-0.330947
O9	O	-4.390092	0.012030	-0.373196
O10	O	-4.700903	-0.213997	-0.402337
O11	O	-4.723916	-0.102138	-0.565898
O12	O	-4.367237	-0.099061	-0.210760
C13	C	-3.885494	-0.247355	-0.411432
C14	C	-3.929163	-0.336778	-0.420004
C15	C	-3.892259	-0.367298	-0.307161
C16	C	-3.933311	-0.451320	-0.315220
C17	C	-4.011252	-0.504822	-0.436123
C18	C	-4.048164	-0.474297	-0.548976
C19	C	-4.007127	-0.390276	-0.540916
C20	C	-4.140156	-0.757342	-0.472761
C21	C	-4.181186	-0.841368	-0.480812
C22	C	-4.066333	-0.818385	-0.247055
C23	C	-4.025288	-0.734364	-0.239006
C24	C	-4.062214	-0.703846	-0.351858
N25	N	-4.053209	-0.590707	-0.444364
N26	N	-4.020272	-0.617963	-0.343617
C27	C	-3.914647	-0.105648	-0.618633
C28	C	-3.976847	-0.104976	-0.758931
C29	C	-4.178632	-0.108492	-0.828002
C30	C	-4.242923	-0.107798	-0.973007
C31	C	-4.208711	0.038691	-0.376533
C32	C	-4.144282	0.128112	-0.367968
C33	C	-4.179558	-0.103016	-0.169328
C34	C	-4.096596	-0.103683	-0.029028
H35	H	-4.244648	-0.884928	-0.579271
O36	O	-3.949647	-0.682509	-0.121458
C37	C	-3.925808	-0.727463	-0.023582
H38	H	-4.035523	-0.792143	-0.065921
H39	H	-3.971283	-0.697324	0.056913
H40	H	-3.751345	-0.729273	0.017409
O41	O	-3.827642	-0.100665	-0.816548
C42	C	-3.808205	-0.030061	-0.867700
H43	H	-3.961829	-0.010119	-0.885052
H44	H	-3.781543	-0.043662	-0.963113
H45	H	-3.665530	0.020689	-0.796302
H46	H	-3.903262	-0.476165	-0.223330
H47	H	-4.036278	-0.843242	-0.155177
H48	H	-4.170200	-0.732505	-0.564653
H49	H	-4.111642	-0.517865	-0.647419
O50	O	-4.043322	-0.360729	-0.650632
C51	C	-4.262291	-0.392125	-0.730092
H52	H	-4.333762	-0.451161	-0.704846
H53	H	-4.277096	-0.404634	-0.835848
H54	H	-4.353076	-0.345970	-0.713836
O55	O	-3.816652	-0.315445	-0.189613
C56	C	-3.792846	-0.360404	-0.091743
H57	H	-3.902527	-0.425088	-0.134100
H58	H	-3.838388	-0.330278	-0.011270
H59	H	-3.618376	-0.362200	-0.050719
H60	H	-4.415787	-0.110811	-1.032383
O61	O	-4.327969	-0.112838	-0.770482
C62	C	-4.347321	-0.183419	-0.719266
H63	H	-4.290757	-0.229872	-0.772429
H64	H	-4.522819	-0.210471	-0.731986
H65	H	-4.244040	-0.166988	-0.611972
H66	H	-3.923733	-0.100678	-0.969664
