data_functionalizedCrystal
_audit_creation_method	'MofGen! by Chris Wilmer'
_symmetry_space_group_name_H-M	'P1'
_symmetry_Int_Tables_number	1
_symmetry_cell_setting	triclinic
loop_
_symmetry_equiv_pos_as_xyz
  x,y,z
_cell_length_a	21.395362
_cell_length_b	12.594516
_cell_length_c	21.395355
_cell_angle_alpha	89.988593
_cell_angle_beta	89.956060
_cell_angle_gamma	90.031933
loop_
_atom_site_label
_atom_site_type_symbol
_atom_site_fract_x
_atom_site_fract_y
_atom_site_fract_z
Zn1	Zn	0.957923	-0.423414	-0.354617
Zn2	Zn	1.457923	0.076586	0.145383
Zn3	Zn	0.957853	-0.601379	-0.249852
Zn4	Zn	1.457853	-0.101379	0.250148
Zn5	Zn	0.853138	-0.423464	-0.249818
Zn6	Zn	1.353138	0.076536	0.250182
Zn7	Zn	0.853134	-0.601400	-0.354557
Zn8	Zn	1.353134	-0.101400	0.145443
O9	O	0.905512	-0.512414	-0.302211
O10	O	1.405512	-0.012414	0.197789
O11	O	1.045592	-0.446992	-0.340759
O12	O	1.545592	0.053008	0.159241
O13	O	0.943934	-0.577789	-0.162170
O14	O	1.443934	-0.077789	0.337830
O15	O	0.867069	-0.274511	-0.263730
O16	O	1.367069	0.225489	0.236270
O17	O	1.045540	-0.577741	-0.263789
O18	O	1.545540	-0.077741	0.236211
O19	O	0.944055	-0.274475	-0.340725
O20	O	1.444055	0.225525	0.159275
O21	O	0.867001	-0.447076	-0.162144
O22	O	1.367001	0.052924	0.337856
O23	O	0.765460	-0.447097	-0.263672
O24	O	1.265460	0.052903	0.236328
O25	O	0.867063	-0.577779	-0.442243
O26	O	1.367063	-0.077779	0.057757
O27	O	0.765457	-0.577827	-0.340624
O28	O	1.265457	-0.077827	0.159376
O29	O	0.944051	-0.447013	-0.442287
O30	O	1.444051	0.052987	0.057713
O31	O	0.943930	-0.750327	-0.263731
O32	O	1.443930	-0.250327	0.236269
O33	O	0.866994	-0.750343	-0.340657
O34	O	1.366994	-0.250343	0.159343
C35	C	0.742724	-0.512471	-0.302138
C36	C	1.242724	-0.012471	0.197862
C37	C	0.673083	-0.512520	-0.302122
C38	C	1.173083	-0.012520	0.197878
C39	C	0.905471	-0.788955	-0.302205
C40	C	1.405471	-0.288955	0.197795
C41	C	0.905511	-0.907261	-0.302223
C42	C	1.405511	-0.407261	0.197777
C43	C	0.640385	-0.580681	-0.342130
C44	C	1.140385	-0.080681	0.157870
C45	C	0.574949	-0.580655	-0.342158
C46	C	1.074949	-0.080655	0.157842
C47	C	0.542215	-0.512479	-0.302167
C48	C	1.042215	-0.012479	0.197833
C49	C	0.574921	-0.444305	-0.262155
C50	C	1.074921	0.055695	0.237845
C51	C	0.640355	-0.444326	-0.262133
C52	C	1.140355	0.055674	0.237867
C53	C	0.438489	-0.503905	-0.245761
C54	C	0.938489	-0.003905	0.254239
C55	C	0.373056	-0.503892	-0.245782
C56	C	0.873056	-0.003892	0.254218
C57	C	0.340394	-0.512410	-0.302236
C58	C	0.840394	-0.012410	0.197764
C59	C	0.373173	-0.520963	-0.358670
C60	C	0.873173	-0.020963	0.141330
C61	C	0.438608	-0.520984	-0.358648
C62	C	0.938608	-0.020984	0.141352
C63	C	0.471262	-0.512449	-0.302187
C64	C	0.971262	-0.012449	0.197813
C65	C	0.236743	-0.580546	-0.342278
C66	C	0.736743	-0.080546	0.157722
C67	C	0.171307	-0.580513	-0.342307
C68	C	0.671307	-0.080513	0.157693
C69	C	0.171280	-0.444168	-0.262298
C70	C	0.671280	0.055832	0.237702
C71	C	0.236715	-0.444196	-0.262275
C72	C	0.736715	0.055804	0.237725
C73	C	0.269443	-0.512391	-0.302264
C74	C	0.769443	-0.012391	0.197736
C75	C	0.863661	-0.976561	-0.344034
C76	C	1.363661	-0.476561	0.155966
C77	C	0.848392	-1.047409	-0.286856
C78	C	1.348392	-0.547409	0.213144
C79	C	0.920837	-1.047212	-0.359410
C80	C	1.420837	-0.547212	0.140590
C81	C	0.890211	-0.976550	-0.245015
C82	C	1.390211	-0.476550	0.254985
C83	C	0.962683	-0.976347	-0.317608
C84	C	1.462683	-0.476347	0.182392
C85	C	0.947436	-1.047163	-0.260391
C86	C	1.447436	-0.547163	0.239609
C87	C	1.068935	-0.512359	-0.302284
C88	C	1.568935	-0.012359	0.197716
C89	C	1.138577	-0.512335	-0.302315
C90	C	1.638577	-0.012335	0.197685
C91	C	0.905564	-0.512393	-0.465634
C92	C	1.405564	-0.012393	0.034366
C93	C	0.905586	-0.512384	-0.535275
C94	C	1.405586	-0.012384	-0.035275
C95	C	0.905570	-0.234793	-0.302231
C96	C	1.405570	0.265207	0.197769
C97	C	0.905595	-0.116488	-0.302239
C98	C	1.405595	0.383512	0.197761
C99	C	0.945672	-0.444291	-0.568012
C100	C	1.445672	0.055709	-0.068012
C101	C	0.945671	-0.444245	-0.633448
C102	C	1.445671	0.055755	-0.133448
C103	C	0.905591	-0.512311	-0.666144
C104	C	1.405591	-0.012311	-0.166144
C105	C	0.865497	-0.580408	-0.633399
C106	C	1.365497	-0.080408	-0.133399
C107	C	0.865495	-0.580445	-0.567965
C108	C	1.365495	-0.080445	-0.067965
C109	C	0.900630	-0.608151	-0.769815
C110	C	1.400630	-0.108151	-0.269815
C111	C	0.900636	-0.608116	-0.835248
C112	C	1.400636	-0.108116	-0.335248
C113	C	0.905595	-0.512199	-0.867965
C114	C	1.405595	-0.012199	-0.367965
C115	C	0.910560	-0.416312	-0.835241
C116	C	1.410560	0.083688	-0.335241
C117	C	0.910557	-0.416349	-0.769806
C118	C	1.410557	0.083651	-0.269806
C119	C	0.905589	-0.512279	-0.737096
C120	C	1.405589	-0.012279	-0.237096
C121	C	0.945682	-0.444051	-0.971654
C122	C	1.445682	0.055949	-0.471654
C123	C	0.945677	-0.444003	-1.037091
C124	C	1.445677	0.055997	-0.537091
C125	C	0.865506	-0.580176	-1.037041
C126	C	1.365506	-0.080176	-0.537041
C127	C	0.865508	-0.580214	-0.971605
C128	C	1.365508	-0.080214	-0.471605
C129	C	0.905599	-0.512153	-0.938916
C130	C	1.405599	-0.012153	-0.438916
C131	C	0.905496	-0.512359	-0.139423
C132	C	1.405496	-0.012359	0.360577
C133	C	0.905596	-0.512068	-0.069782
C134	C	1.405596	-0.012068	0.430218
H135	H	0.548321	-0.636159	-0.374740
H136	H	1.048321	-0.136159	0.125260
N137	N	0.675689	-0.654211	-0.385267
N138	N	1.175689	-0.154211	0.114733
H139	H	0.702790	-0.703480	-0.359749
H140	H	1.202790	-0.203480	0.140251
H141	H	0.645005	-0.697316	-0.410612
H142	H	1.145005	-0.197316	0.089388
H143	H	0.346372	-0.496933	-0.199830
H144	H	0.846372	0.003067	0.300170
H145	H	1.010983	-0.945114	-0.330634
H146	H	1.510983	-0.445114	0.169366
N147	N	0.473964	-0.530207	-0.419510
N148	N	0.973964	-0.030207	0.080490
H149	H	0.443348	-0.535602	-0.455279
H150	H	0.943348	-0.035602	0.044721
H151	H	0.501147	-0.465378	-0.425380
H152	H	1.001147	0.034622	0.074620
N153	N	0.937965	-1.088339	-0.423459
N154	N	1.437965	-0.588339	0.076541
H155	H	0.906290	-1.062658	-0.454998
H156	H	1.406290	-0.562658	0.045002
H157	H	0.980821	-1.061373	-0.435344
H158	H	1.480821	-0.561373	0.064656
N159	N	0.337956	-0.530158	-0.419565
N160	N	0.837956	-0.030158	0.080435
H161	H	0.291530	-0.528842	-0.411019
H162	H	0.791530	-0.028842	0.088981
H163	H	0.349455	-0.468682	-0.447633
H164	H	0.849455	0.031318	0.052367
N165	N	0.994359	-1.087986	-0.213513
N166	N	1.494359	-0.587986	0.286487
H167	H	1.026943	-1.132062	-0.235728
H168	H	1.526943	-0.632062	0.264272
H169	H	1.015237	-1.025978	-0.192068
H170	H	1.515237	-0.525978	0.307932
H171	H	0.828207	-0.945559	-0.379340
H172	H	1.328207	-0.445559	0.120660
H173	H	0.978319	-0.388548	-1.063744
H174	H	1.478319	0.111452	-0.563744
N175	N	0.988910	-0.370884	-0.532755
N176	N	1.488910	0.129116	-0.032755
H177	H	1.014304	-0.327739	-0.563427
H178	H	1.514304	0.172261	-0.063427
H179	H	0.963417	-0.321647	-0.505584
H180	H	1.463417	0.178353	-0.005584
N181	N	0.873013	-0.935612	-0.180944
N182	N	1.373013	-0.435612	0.319056
H183	H	0.833900	-0.891044	-0.183938
H184	H	1.333900	-0.391044	0.316062
H185	H	0.865308	-0.997573	-0.151967
H186	H	1.365308	-0.497573	0.348033
H187	H	0.832870	-0.635669	-0.944951
H188	H	1.332870	-0.135669	-0.444951
H189	H	0.978313	-0.388790	-0.660108
H190	H	1.478313	0.111210	-0.160108
H191	H	0.832866	-0.635585	-1.063661
H192	H	1.332866	-0.135585	-0.563661
H193	H	0.548264	-0.388794	-0.229595
H194	H	1.048264	0.111206	0.270405
H195	H	0.800081	-1.078645	-0.273857
H196	H	1.300081	-0.578645	0.226143
N197	N	0.675625	-0.370817	-0.218971
N198	N	1.175625	0.129183	0.281029
H199	H	0.722044	-0.381179	-0.225023
H200	H	1.222044	0.118821	0.274977
H201	H	0.664235	-0.294820	-0.228801
H202	H	1.164235	0.205180	0.271199
H203	H	0.914599	-0.338207	-0.861877
H204	H	1.414599	0.161793	-0.361877
H205	H	0.978323	-0.388625	-0.945037
H206	H	1.478323	0.111375	-0.445037
N207	N	0.271993	-0.370696	-0.219117
N208	N	0.771993	0.129304	0.280883
H209	H	0.299192	-0.321447	-0.244621
H210	H	0.799192	0.178553	0.255379
H211	H	0.241294	-0.327569	-0.193791
H212	H	0.741294	0.172431	0.306209
N213	N	0.822265	-0.653892	-0.532644
N214	N	1.322265	-0.153892	-0.032644
H215	H	0.793242	-0.610656	-0.505469
H216	H	1.293242	-0.110656	-0.005469
H217	H	0.796910	-0.696996	-0.563317
H218	H	1.296910	-0.196996	-0.063317
N219	N	0.895286	-0.711530	-0.870540
N220	N	1.395286	-0.211530	-0.370540
H221	H	0.892137	-0.772298	-0.839887
H222	H	1.392137	-0.272298	-0.339887
H223	H	0.856683	-0.709992	-0.897663
H224	H	1.356683	-0.209992	-0.397663
N225	N	0.915914	-0.312939	-0.734510
N226	N	1.415914	0.187061	-0.234510
H227	H	0.919057	-0.252166	-0.765160
H228	H	1.419057	0.247834	-0.265160
H229	H	0.877740	-0.303084	-0.707331
H230	H	1.377740	0.196916	-0.207331
N231	N	0.895290	-0.711612	-0.734530
N232	N	1.395290	-0.211612	-0.234530
H233	H	0.892154	-0.772349	-0.765187
H234	H	1.392154	-0.272349	-0.265187
H235	H	0.933467	-0.721483	-0.707414
H236	H	1.433467	-0.221483	-0.207414
N237	N	0.822257	-0.653806	-0.668659
N238	N	1.322257	-0.153806	-0.168659
H239	H	0.828340	-0.643449	-0.715080
H240	H	1.328340	-0.143449	-0.215080
H241	H	0.831983	-0.729831	-0.657237
H242	H	1.331983	-0.229831	-0.157237
H243	H	0.263392	-0.636069	-0.374843
H244	H	0.763392	-0.136069	0.125157
N245	N	0.473711	-0.494712	-0.184866
N246	N	0.973711	0.005288	0.315134
H247	H	0.462267	-0.556186	-0.156772
H248	H	0.962267	-0.056186	0.343228
H249	H	0.520126	-0.495987	-0.193468
H250	H	1.020126	0.004013	0.306532
N251	N	0.136036	-0.654038	-0.385458
N252	N	0.636036	-0.154038	0.114542
H253	H	0.147482	-0.637640	-0.430239
H254	H	0.647482	-0.137640	0.069761
H255	H	0.147394	-0.730033	-0.375584
H256	H	0.647394	-0.230033	0.124416
N257	N	0.135983	-0.370625	-0.219168
N258	N	0.635983	0.129375	0.280832
H259	H	0.089568	-0.380952	-0.225253
H260	H	0.589568	0.119048	0.274747
H261	H	0.147362	-0.387081	-0.174399
H262	H	0.647362	0.112919	0.325601
