data_functionalizedCrystal
_audit_creation_method	'MofGen! by Chris Wilmer'
_symmetry_space_group_name_H-M	'P1'
_symmetry_Int_Tables_number	1
_symmetry_cell_setting	triclinic
loop_
_symmetry_equiv_pos_as_xyz
  x,y,z
_cell_length_a	6.817900
_cell_length_b	14.858565
_cell_length_c	10.943624
_cell_angle_alpha	93.396226
_cell_angle_beta	108.838799
_cell_angle_gamma	104.523916
loop_
_atom_site_label
_atom_site_type_symbol
_atom_site_fract_x
_atom_site_fract_y
_atom_site_fract_z
V1	V	-4.093440	-0.128646	-0.402911
V2	V	-3.593440	0.371354	0.097089
O3	O	-4.074268	0.006207	-0.394871
O4	O	-3.574268	0.506207	0.105129
O5	O	-4.049710	-0.255107	-0.400512
O6	O	-3.549710	0.244893	0.099488
O7	O	-4.071744	-0.126656	-0.578472
O8	O	-3.571744	0.373344	-0.078472
O9	O	-4.052082	-0.123133	-0.215679
O10	O	-3.552082	0.376867	0.284321
V11	V	-4.573003	-0.112517	-0.380473
V12	V	-4.073003	0.387483	0.119527
O13	O	-4.363386	-0.164025	-0.452130
O14	O	-3.863386	0.335975	0.047870
O15	O	-4.753254	-0.077137	-0.331254
O16	O	-4.253254	0.422863	0.168746
O17	O	-4.393526	0.013944	-0.382873
O18	O	-3.893526	0.513944	0.117127
O19	O	-4.709572	-0.247370	-0.388514
O20	O	-4.209572	0.252630	0.111486
O21	O	-4.731758	-0.118029	-0.567706
O22	O	-4.231758	0.381971	-0.067706
O23	O	-4.371493	-0.114507	-0.204912
O24	O	-3.871493	0.385493	0.295088
C25	C	-3.894983	-0.285936	-0.394248
C26	C	-3.394983	0.214064	0.105752
C27	C	-3.940693	-0.389319	-0.393456
C28	C	-3.440693	0.110681	0.106544
C29	C	-4.108001	-0.767890	-0.390576
C30	C	-3.608001	-0.267890	0.109424
C31	C	-4.061442	-0.662560	-0.391376
C32	C	-3.561442	-0.162560	0.108624
C33	C	-4.024347	-0.578608	-0.392015
C34	C	-3.524347	-0.078608	0.107985
C35	C	-3.977788	-0.473271	-0.392818
C36	C	-3.477788	0.026729	0.107182
C37	C	-3.923088	-0.122082	-0.621252
C38	C	-3.423088	0.377918	-0.121252
C39	C	-3.986663	-0.121292	-0.764776
C40	C	-3.486663	0.378708	-0.264776
C41	C	-3.832405	-0.115971	-0.841909
C42	C	-3.332405	0.384029	-0.341909
C43	C	-4.008224	-0.194950	-0.948120
C44	C	-3.508224	0.305050	-0.448120
C45	C	-3.924150	-0.040915	-0.914302
C46	C	-3.424150	0.459085	-0.414302
C47	C	-4.161680	-0.200345	-0.869111
C48	C	-3.661680	0.299655	-0.369111
C49	C	-4.077537	-0.046240	-0.835269
C50	C	-3.577537	0.453760	-0.335269
C51	C	-4.253489	-0.125241	-0.941451
C52	C	-3.753489	0.374759	-0.441451
C53	C	-4.211595	0.044768	-0.389133
C54	C	-3.711595	0.544768	0.110867
C55	C	-4.145124	0.148151	-0.389933
C56	C	-3.645124	0.648151	0.110067
C57	C	-4.183490	-0.119083	-0.162126
C58	C	-3.683490	0.380917	0.337874
C59	C	-4.099153	-0.119869	-0.018600
C60	C	-3.599153	0.380131	0.481400
H61	H	-3.653858	-0.112158	-0.798450
H62	H	-3.153858	0.387842	-0.298450
H63	H	-4.432128	-0.129179	-0.984706
H64	H	-3.932128	0.370821	-0.484706
H65	H	-3.979584	-0.257819	-0.997245
H66	H	-3.479584	0.242181	-0.497245
H67	H	-4.261498	-0.267798	-0.848755
H68	H	-3.761498	0.232202	-0.348755
H69	H	-4.106094	0.016632	-0.786110
H70	H	-3.606094	0.516632	-0.286110
H71	H	-3.824350	0.026448	-0.934876
H72	H	-3.324350	0.526448	-0.434876
