data_functionalizedCrystal
_audit_creation_method	'MofGen! by Chris Wilmer'
_symmetry_space_group_name_H-M	'P1'
_symmetry_Int_Tables_number	1
_symmetry_cell_setting	triclinic
loop_
_symmetry_equiv_pos_as_xyz
  x,y,z
_cell_length_a	29.839134
_cell_length_b	29.839131
_cell_length_c	29.839135
_cell_angle_alpha	90.007589
_cell_angle_beta	90.016207
_cell_angle_gamma	90.036281
loop_
_atom_site_label
_atom_site_type_symbol
_atom_site_fract_x
_atom_site_fract_y
_atom_site_fract_z
Zn1	Zn	0.686694	-0.179023	0.254125
Zn2	Zn	1.020027	0.154311	0.587458
Zn3	Zn	1.353361	0.487644	0.920792
Zn4	Zn	0.686634	-0.254122	0.178995
Zn5	Zn	1.019967	0.079212	0.512328
Zn6	Zn	1.353300	0.412545	0.845662
Zn7	Zn	0.611584	-0.179000	0.178995
Zn8	Zn	0.944918	0.154334	0.512328
Zn9	Zn	1.278251	0.487667	0.845661
Zn10	Zn	0.611524	-0.254120	0.254083
Zn11	Zn	0.944858	0.079214	0.587417
Zn12	Zn	1.278191	0.412547	0.920750
O13	O	0.649109	-0.216566	0.216549
O14	O	0.982442	0.116767	0.549883
O15	O	1.315776	0.450101	0.883216
O16	O	0.749553	-0.188995	0.244176
O17	O	1.082886	0.144338	0.577510
O18	O	1.416220	0.477671	0.910843
O19	O	0.676678	-0.244148	0.116128
O20	O	1.010011	0.089186	0.449461
O21	O	1.343345	0.422519	0.782794
O22	O	0.621598	-0.116136	0.188978
O23	O	0.954931	0.217198	0.522311
O24	O	1.288265	0.550531	0.855645
O25	O	0.749509	-0.244170	0.188979
O26	O	1.082842	0.089163	0.522312
O27	O	1.416175	0.422497	0.855645
O28	O	0.676781	-0.116153	0.244176
O29	O	1.010114	0.217181	0.577509
O30	O	1.343447	0.550514	0.910843
O31	O	0.621540	-0.188956	0.116127
O32	O	0.954873	0.144378	0.449461
O33	O	1.288206	0.477711	0.782794
O34	O	0.548709	-0.188954	0.188938
O35	O	0.882043	0.144379	0.522271
O36	O	1.215376	0.477713	0.855604
O37	O	0.621496	-0.244167	0.316956
O38	O	0.954829	0.089166	0.650289
O39	O	1.288163	0.422500	0.983623
O40	O	0.548665	-0.244144	0.244105
O41	O	0.881999	0.089189	0.577438
O42	O	1.215332	0.422522	0.910772
O43	O	0.676723	-0.188994	0.316987
O44	O	1.010056	0.144340	0.650320
O45	O	1.343389	0.477673	0.983653
O46	O	0.676620	-0.316988	0.188938
O47	O	1.009953	0.016345	0.522272
O48	O	1.343287	0.349678	0.855605
O49	O	0.621438	-0.316987	0.244105
O50	O	0.954771	0.016346	0.577439
O51	O	1.288104	0.349680	0.910772
C52	C	0.532387	-0.216547	0.216517
C53	C	0.865720	0.116786	0.549850
C54	C	1.199053	0.450120	0.883184
C55	C	0.482452	-0.216550	0.216514
C56	C	0.815785	0.116784	0.549847
C57	C	1.149119	0.450117	0.883180
C58	C	0.172795	-0.245346	0.245240
C59	C	0.506129	0.087987	0.578573
C60	C	0.839462	0.421321	0.911907
C61	C	-0.014878	-0.245359	0.245260
C62	C	0.318456	0.087975	0.578593
C63	C	0.651789	0.421308	0.911926
O64	O	-0.039154	-0.269821	0.269665
O65	O	0.294179	0.063512	0.602998
O66	O	0.627513	0.396845	0.936331
N67	N	-0.038333	-0.216582	0.216583
N68	N	0.295000	0.116751	0.549917
N69	N	0.628334	0.450084	0.883250
C70	C	-0.014867	-0.187799	0.187902
C71	C	0.318466	0.145535	0.521235
C72	C	0.651800	0.478868	0.854568
O73	O	-0.039123	-0.163320	0.163514
O74	O	0.294210	0.170014	0.496848
O75	O	0.627543	0.503347	0.830181
C76	C	0.172805	-0.187784	0.187884
C77	C	0.506138	0.145549	0.521218
C78	C	0.839472	0.478882	0.854551
C79	C	0.196258	-0.216566	0.216560
C80	C	0.529591	0.116768	0.549893
C81	C	0.862925	0.450101	0.883226
C82	C	0.196248	-0.274125	0.273913
C83	C	0.529581	0.059209	0.607246
C84	C	0.862915	0.392542	0.940580
C85	C	0.243164	-0.274123	0.273906
C86	C	0.576497	0.059210	0.607239
C87	C	0.909830	0.392544	0.940573
C88	C	0.266626	-0.245343	0.245226
C89	C	0.599960	0.087991	0.578559
C90	C	0.933293	0.421324	0.911892
C91	C	0.243173	-0.216564	0.216553
C92	C	0.576507	0.116769	0.549886
C93	C	0.909840	0.450103	0.883219
C94	C	0.196270	-0.158999	0.159205
C95	C	0.529604	0.174335	0.492539
C96	C	0.862937	0.507668	0.825872
C97	C	0.243191	-0.158997	0.159204
C98	C	0.576525	0.174337	0.492538
C99	C	0.909858	0.507670	0.825871
C100	C	0.266644	-0.187778	0.187880
C101	C	0.599977	0.145555	0.521213
C102	C	0.933311	0.478888	0.854546
C103	C	0.313551	-0.187782	0.187865
C104	C	0.646885	0.145552	0.521199
C105	C	0.980218	0.478885	0.854532
N106	N	0.337007	-0.216558	0.216542
N107	N	0.670340	0.116775	0.549875
N108	N	1.003673	0.450109	0.883209
C109	C	0.313544	-0.245338	0.245222
C110	C	0.646877	0.087995	0.578555
C111	C	0.980211	0.421328	0.911889
C112	C	-0.113398	-0.187809	0.187912
C113	C	0.219936	0.145524	0.521246
C114	C	0.553269	0.478858	0.854579
C115	C	-0.160316	-0.187813	0.187916
C116	C	0.173018	0.145520	0.521249
C117	C	0.506351	0.478853	0.854583
C118	C	-0.160323	-0.245373	0.245275
C119	C	0.173010	0.087961	0.578608
C120	C	0.506344	0.421294	0.911941
C121	C	-0.113404	-0.245371	0.245268
C122	C	0.219929	0.087963	0.578602
C123	C	0.553262	0.421296	0.911935
C124	C	-0.089942	-0.216585	0.216589
C125	C	0.243391	0.116748	0.549922
C126	C	0.576724	0.450081	0.883255
C127	C	0.412070	-0.245333	0.245205
C128	C	0.745403	0.088000	0.578538
C129	C	1.078737	0.421334	0.911872
C130	C	0.458990	-0.245330	0.245194
C131	C	0.792323	0.088003	0.578527
C132	C	1.125656	0.421337	0.911861
C133	C	0.458993	-0.187769	0.187837
C134	C	0.792326	0.145564	0.521170
C135	C	1.125660	0.478898	0.854504
C136	C	0.412077	-0.187773	0.187846
C137	C	0.745411	0.145560	0.521179
C138	C	1.078744	0.478893	0.854513
C139	C	0.388617	-0.216557	0.216534
C140	C	0.721950	0.116776	0.549867
C141	C	1.055284	0.450110	0.883200
O142	O	0.337857	-0.163328	0.163477
O143	O	0.671190	0.170005	0.496810
O144	O	1.004523	0.503338	0.830143
O145	O	0.337809	-0.269807	0.269613
O146	O	0.671142	0.063527	0.602946
O147	O	1.004475	0.396860	0.936280
C148	C	0.125880	-0.245348	0.245247
C149	C	0.459213	0.087986	0.578580
C150	C	0.792547	0.421319	0.911914
C151	C	0.102427	-0.216569	0.216574
C152	C	0.435760	0.116764	0.549907
C153	C	0.769094	0.450098	0.883240
C154	C	0.125890	-0.187789	0.187893
C155	C	0.459223	0.145545	0.521227
C156	C	0.792556	0.478878	0.854560
C157	C	0.055509	-0.216573	0.216577
C158	C	0.388843	0.116760	0.549911
C159	C	0.722176	0.450093	0.883244
C160	C	0.032047	-0.245354	0.245258
C161	C	0.365380	0.087980	0.578591
C162	C	0.698713	0.421313	0.911924
C163	C	0.055502	-0.274130	0.273934
C164	C	0.388835	0.059203	0.607267
C165	C	0.722168	0.392537	0.940601
C166	C	0.102417	-0.274128	0.273927
C167	C	0.435751	0.059205	0.607260
C168	C	0.769084	0.392538	0.940594
C169	C	0.102434	-0.159012	0.159217
C170	C	0.435768	0.174321	0.492550
C171	C	0.769101	0.507654	0.825883
C172	C	0.055519	-0.159017	0.159226
C173	C	0.388852	0.174317	0.492559
C174	C	0.722186	0.507650	0.825892
C175	C	0.032056	-0.187797	0.187906
C176	C	0.365390	0.145536	0.521239
C177	C	0.698723	0.478869	0.854573
C178	C	0.649028	-0.333289	0.216527
C179	C	0.982361	0.000045	0.549860
C180	C	1.315695	0.333378	0.883194
C181	C	0.649034	-0.383223	0.216533
C182	C	0.982368	-0.049890	0.549866
C183	C	1.315701	0.283444	0.883199
C184	C	0.677895	-0.692854	0.187866
C185	C	1.011228	-0.359521	0.521199
C186	C	1.344561	-0.026188	0.854533
C187	C	0.677950	-0.880527	0.187883
C188	C	1.011284	-0.547194	0.521217
C189	C	1.344617	-0.213861	0.854550
O190	O	0.702424	-0.904782	0.163493
O191	O	1.035757	-0.571449	0.496826
O192	O	1.369091	-0.238115	0.830159
N193	N	0.649202	-0.904008	0.216583
N194	N	0.982536	-0.570675	0.549917
N195	N	1.315869	-0.237341	0.883250
C196	C	0.620440	-0.880567	0.245283
C197	C	0.953774	-0.547234	0.578616
C198	C	1.287107	-0.213901	0.911950
O199	O	0.595993	-0.904845	0.269698
O200	O	0.929326	-0.571512	0.603031
O201	O	1.262660	-0.238179	0.936364
C202	C	0.620388	-0.692895	0.245268
C203	C	0.953721	-0.359562	0.578601
C204	C	1.287054	-0.026229	0.911934
C205	C	0.649134	-0.669417	0.216562
C206	C	0.982468	-0.336084	0.549896
C207	C	1.315801	-0.002750	0.883229
C208	C	0.706640	-0.669376	0.159163
C209	C	1.039973	-0.336043	0.492497
C210	C	1.373306	-0.002710	0.825830
C211	C	0.706624	-0.622461	0.159158
C212	C	1.039957	-0.289127	0.492491
C213	C	1.373290	0.044206	0.825824
C214	C	0.677863	-0.599023	0.187854
C215	C	1.011196	-0.265690	0.521188
C216	C	1.344530	0.067643	0.854521
C217	C	0.649118	-0.622502	0.216557
C218	C	0.982452	-0.289168	0.549890
C219	C	1.315785	0.044165	0.883223
C220	C	0.591628	-0.669456	0.273969
C221	C	0.924962	-0.336122	0.607303
C222	C	1.258295	-0.002789	0.940636
C223	C	0.591618	-0.622535	0.273964
C224	C	0.924952	-0.289201	0.607297
C225	C	1.258285	0.044132	0.940630
C226	C	0.620365	-0.599056	0.245259
C227	C	0.953698	-0.265723	0.578592
C228	C	1.287032	0.067610	0.911925
C229	C	0.620342	-0.552149	0.245247
C230	C	0.953675	-0.218816	0.578581
C231	C	1.287009	0.114518	0.911914
N232	N	0.649090	-0.528668	0.216547
N233	N	0.982423	-0.195335	0.549881
N234	N	1.315757	0.137998	0.883214
C235	C	0.677851	-0.552106	0.187851
C236	C	1.011184	-0.218772	0.521184
C237	C	1.344517	0.114561	0.854518
C238	C	0.620470	-0.979098	0.245289
C239	C	0.953803	-0.645765	0.578622
C240	C	1.287136	-0.312431	0.911955
C241	C	0.620482	-1.026016	0.245292
C242	C	0.953815	-0.692683	0.578625
C243	C	1.287149	-0.359349	0.911959
C244	C	0.677993	-1.025973	0.187893
C245	C	1.011326	-0.692639	0.521226
C246	C	1.344659	-0.359306	0.854559
C247	C	0.677978	-0.979054	0.187887
C248	C	1.011311	-0.645721	0.521221
C249	C	1.344644	-0.312387	0.854554
C250	C	0.649218	-0.955617	0.216589
C251	C	0.982551	-0.622284	0.549922
C252	C	1.315884	-0.288951	0.883255
C253	C	0.677815	-0.453580	0.187841
C254	C	1.011148	-0.120246	0.521174
C255	C	1.344481	0.213087	0.854507
C256	C	0.677795	-0.406660	0.187836
C257	C	1.011128	-0.073327	0.521169
C258	C	1.344462	0.260006	0.854503
C259	C	0.620286	-0.406708	0.245237
C260	C	0.953620	-0.073374	0.578570
C261	C	1.286953	0.259959	0.911903
C262	C	0.620304	-0.453623	0.245240
C263	C	0.953637	-0.120290	0.578573
C264	C	1.286971	0.213044	0.911906
C265	C	0.649072	-0.477058	0.216540
C266	C	0.982405	-0.143725	0.549874
C267	C	1.315739	0.189609	0.883207
O268	O	0.595885	-0.527865	0.269629
O269	O	0.929218	-0.194532	0.602962
O270	O	1.262551	0.138801	0.936296
O271	O	0.702301	-0.527820	0.163447
O272	O	1.035635	-0.194486	0.496780
O273	O	1.368968	0.138847	0.830113
C274	C	0.677911	-0.739770	0.187872
C275	C	1.011244	-0.406436	0.521205
C276	C	1.344577	-0.073103	0.854538
C277	C	0.649166	-0.763248	0.216574
C278	C	0.982499	-0.429915	0.549907
C279	C	1.315833	-0.096581	0.883241
C280	C	0.620405	-0.739811	0.245271
C281	C	0.953739	-0.406477	0.578604
C282	C	1.287072	-0.073144	0.911937
C283	C	0.649179	-0.810166	0.216577
C284	C	0.982512	-0.476832	0.549911
C285	C	1.315845	-0.143499	0.883244
C286	C	0.677939	-0.833603	0.187881
C287	C	1.011272	-0.500270	0.521214
C288	C	1.344606	-0.166936	0.854548
C289	C	0.706687	-0.810123	0.159181
C290	C	1.040020	-0.476789	0.492514
C291	C	1.373354	-0.143456	0.825848
C292	C	0.706671	-0.763207	0.159175
C293	C	1.040005	-0.429874	0.492508
C294	C	1.373338	-0.096540	0.825842
C295	C	0.591657	-0.763291	0.273971
C296	C	0.924991	-0.429958	0.607304
C297	C	1.258324	-0.096625	0.940637
C298	C	0.591675	-0.810207	0.273974
C299	C	0.925009	-0.476873	0.607307
C300	C	1.258342	-0.143540	0.940640
C301	C	0.620436	-0.833644	0.245277
C302	C	0.953769	-0.500311	0.578610
C303	C	1.287103	-0.166977	0.911944
C304	C	0.766287	-0.216585	0.216582
C305	C	1.099621	0.116748	0.549916
C306	C	1.432954	0.450081	0.883249
C307	C	0.816222	-0.216594	0.216596
C308	C	1.149555	0.116740	0.549930
C309	C	1.482889	0.450073	0.883263
C310	C	0.649109	-0.216583	0.333728
C311	C	0.982443	0.116751	0.667061
C312	C	1.315776	0.450084	1.000394
C313	C	0.649110	-0.216590	0.383662
C314	C	0.982443	0.116744	0.716995
C315	C	1.315776	0.450077	1.050329
C316	C	0.649203	-0.099388	0.216582
C317	C	0.982536	0.233946	0.549915
C318	C	1.315869	0.567279	0.883248
C319	C	0.649243	-0.049453	0.216595
C320	C	0.982576	0.283880	0.549929
C321	C	1.315909	0.617214	0.883262
C322	C	0.677865	-0.187840	0.693324
C323	C	1.011198	0.145493	1.026658
C324	C	1.344532	0.478826	1.359991
C325	C	0.677869	-0.187835	0.880998
C326	C	1.011202	0.145498	1.214331
C327	C	1.344535	0.478831	1.547664
O328	O	0.702308	-0.163392	0.905278
O329	O	1.035642	0.169941	1.238612
O330	O	1.368975	0.503275	1.571945
N331	N	0.649117	-0.216561	0.904447
N332	N	0.982450	0.116772	1.237781
N333	N	1.315783	0.450105	1.571114
C334	C	0.620360	-0.245289	0.880976
C335	C	0.953693	0.088044	1.214309
C336	C	1.287027	0.421378	1.547642
O337	O	0.595901	-0.269719	0.905227
O338	O	0.929235	0.063615	1.238561
O339	O	1.262568	0.396948	1.571894
C340	C	0.620355	-0.245291	0.693304
C341	C	0.953688	0.088042	1.026637
C342	C	1.287021	0.421375	1.359970
C343	C	0.649112	-0.216567	0.669856
C344	C	0.982445	0.116767	1.003190
C345	C	1.315778	0.450100	1.336523
C346	C	0.706619	-0.159118	0.669877
C347	C	1.039953	0.174216	1.003211
C348	C	1.373286	0.507549	1.336544
C349	C	0.706620	-0.159121	0.622962
C350	C	1.039953	0.174212	0.956295
C351	C	1.373287	0.507546	1.289628
C352	C	0.677866	-0.187847	0.599494
C353	C	1.011200	0.145486	0.932827
C354	C	1.344533	0.478820	1.266160
C355	C	0.649112	-0.216570	0.622941
C356	C	0.982445	0.116763	0.956274
C357	C	1.315779	0.450097	1.289608
C358	C	0.591596	-0.274016	0.669833
C359	C	0.924929	0.059317	1.003166
C360	C	1.258262	0.392650	1.336500
C361	C	0.591596	-0.274013	0.622912
C362	C	0.924930	0.059320	0.956245
C363	C	1.258263	0.392653	1.289579
C364	C	0.620353	-0.245289	0.599465
C365	C	0.953687	0.088045	0.932798
C366	C	1.287020	0.421378	1.266131
C367	C	0.620359	-0.245299	0.552557
C368	C	0.953692	0.088034	0.885891
C369	C	1.287026	0.421367	1.219224
N370	N	0.649111	-0.216573	0.529108
N371	N	0.982444	0.116760	0.862441
N372	N	1.315778	0.450094	1.195774
C373	C	0.677865	-0.187847	0.552576
C374	C	1.011198	0.145486	0.885909
C375	C	1.344531	0.478820	1.219242
C376	C	0.620365	-0.245286	0.979506
C377	C	0.953699	0.088047	1.312840
C378	C	1.287032	0.421381	1.646173
C379	C	0.620367	-0.245286	1.026424
C380	C	0.953700	0.088047	1.359758
C381	C	1.287034	0.421381	1.693091
C382	C	0.677875	-0.187832	1.026443
C383	C	1.011209	0.145502	1.359776
C384	C	1.344542	0.478835	1.693109
C385	C	0.677875	-0.187834	0.979524
C386	C	1.011209	0.145499	1.312857
C387	C	1.344542	0.478832	1.646191
C388	C	0.649117	-0.216560	0.956057
C389	C	0.982450	0.116773	1.289390
C390	C	1.315784	0.450107	1.622723
C391	C	0.677864	-0.187856	0.454050
C392	C	1.011197	0.145477	0.787383
C393	C	1.344531	0.478810	1.120717
C394	C	0.677863	-0.187864	0.407130
C395	C	1.011197	0.145470	0.740464
C396	C	1.344530	0.478803	1.073797
C397	C	0.620354	-0.245316	0.407116
C398	C	0.953687	0.088017	0.740449
C399	C	1.287020	0.421351	1.073783
C400	C	0.620356	-0.245311	0.454031
C401	C	0.953689	0.088023	0.787365
C402	C	1.287022	0.421356	1.120698
C403	C	0.649112	-0.216577	0.477497
C404	C	0.982446	0.116756	0.810831
C405	C	1.315779	0.450089	1.144164
O406	O	0.595929	-0.269726	0.528247
O407	O	0.929262	0.063607	0.861581
O408	O	1.262595	0.396940	1.194914
O409	O	0.702312	-0.163414	0.528316
O410	O	1.035646	0.169920	0.861649
O411	O	1.368979	0.503253	1.194983
C412	C	0.677865	-0.187837	0.740240
C413	C	1.011198	0.145496	1.073573
C414	C	1.344531	0.478830	1.406907
C415	C	0.649110	-0.216560	0.763687
C416	C	0.982444	0.116773	1.097021
C417	C	1.315777	0.450107	1.430354
C418	C	0.620357	-0.245286	0.740219
C419	C	0.953690	0.088047	1.073552
C420	C	1.287023	0.421381	1.406886
C421	C	0.649112	-0.216560	0.810605
C422	C	0.982445	0.116773	1.143938
C423	C	1.315779	0.450107	1.477272
C424	C	0.677866	-0.187834	0.834073
C425	C	1.011199	0.145500	1.167407
C426	C	1.344532	0.478833	1.500740
C427	C	0.706618	-0.159108	0.810624
C428	C	1.039951	0.174226	1.143957
C429	C	1.373284	0.507559	1.477290
C430	C	0.706618	-0.159111	0.763708
C431	C	1.039952	0.174222	1.097041
C432	C	1.373285	0.507556	1.430375
C433	C	0.591605	-0.274012	0.763669
C434	C	0.924938	0.059321	1.097002
C435	C	1.258271	0.392654	1.430335
C436	C	0.591607	-0.274007	0.810584
C437	C	0.924940	0.059326	1.143918
C438	C	1.258274	0.392660	1.477251
C439	C	0.620361	-0.245281	0.834052
C440	C	0.953694	0.088053	1.167386
C441	C	1.287027	0.421386	1.500719
C442	C	0.649109	-0.216561	1.099827
C443	C	0.982443	0.116772	1.433160
C444	C	1.315776	0.450105	1.766494
C445	C	0.649121	-0.216560	1.049892
C446	C	0.982454	0.116773	1.383226
C447	C	1.315787	0.450107	1.716559
H448	H	-0.094299	-0.164368	0.164556
H449	H	0.239034	0.168965	0.497889
H450	H	0.572367	0.502298	0.831222
Br451	Br	0.716992	-0.947196	0.148929
Br452	Br	1.050325	-0.613862	0.482262
Br453	Br	1.383658	-0.280529	0.815596
Br454	Br	0.552587	-0.590731	0.312919
Br455	Br	0.885920	-0.257397	0.646253
Br456	Br	1.219253	0.075936	0.979586
H457	H	0.730080	-0.744095	0.135801
H458	H	1.063413	-0.410761	0.469134
H459	H	1.396746	-0.077428	0.802468
H460	H	0.596898	-0.472740	0.268615
H461	H	0.930231	-0.139407	0.601949
H462	H	1.263564	0.193927	0.935282
Br463	Br	0.134269	-0.119947	0.120291
Br464	Br	0.467603	0.213386	0.453624
Br465	Br	0.800936	0.546719	0.786958
Br466	Br	0.164415	-0.313189	0.312842
Br467	Br	0.497748	0.020145	0.646176
Br468	Br	0.831082	0.353478	0.979509
H469	H	0.478105	-0.164338	0.164485
H470	H	0.811438	0.168995	0.497818
H471	H	1.144771	0.502328	0.831152
Br472	Br	0.552580	-0.312998	0.842400
Br473	Br	0.885913	0.020335	1.175733
Br474	Br	1.219246	0.353668	1.509066
Br475	Br	0.581347	-0.284280	1.058240
Br476	Br	0.914680	0.049053	1.391573
Br477	Br	1.248013	0.382387	1.724906
Br478	Br	0.275030	-0.119928	0.120281
Br479	Br	0.608363	0.213406	0.453614
Br480	Br	0.941696	0.546739	0.786948
Br481	Br	0.023696	-0.119954	0.120303
Br482	Br	0.357029	0.213379	0.453637
Br483	Br	0.690363	0.546712	0.786970
H484	H	0.568218	-0.688563	0.297342
H485	H	0.901551	-0.355230	0.630675
H486	H	1.234884	-0.021897	0.964009
H487	H	0.478083	-0.268769	0.268545
H488	H	0.811416	0.064564	0.601879
H489	H	1.144749	0.397898	0.935212
Br490	Br	0.552622	-0.731491	0.312921
Br491	Br	0.885955	-0.398158	0.646254
Br492	Br	1.219289	-0.064824	0.979588
H493	H	0.596868	-0.387618	0.268600
H494	H	0.930202	-0.054284	0.601933
H495	H	1.263535	0.279049	0.935267
Br496	Br	0.716898	-0.148847	1.058301
Br497	Br	1.050231	0.184487	1.391635
Br498	Br	1.383565	0.517820	1.724968
Br499	Br	0.716895	-0.148879	0.375312
Br500	Br	1.050228	0.184454	0.708645
Br501	Br	1.383562	0.517788	1.041978
H502	H	0.121508	-0.297565	0.297278
H503	H	0.454842	0.035768	0.630611
H504	H	0.788175	0.369102	0.963944
H505	H	0.701279	-0.164457	0.473150
H506	H	1.034612	0.168876	0.806484
H507	H	1.367945	0.502209	1.139817
Br508	Br	0.745717	-0.841940	0.120234
Br509	Br	1.079050	-0.508606	0.453567
Br510	Br	1.412384	-0.175273	0.786901
Br511	Br	0.581332	-0.284298	0.485854
Br512	Br	0.914665	0.049035	0.819187
Br513	Br	1.247998	0.382369	1.152520
H514	H	0.036390	-0.297565	0.297285
H515	H	0.369724	0.035768	0.630619
H516	H	0.703057	0.369101	0.963952
H517	H	0.597070	-1.045128	0.268662
H518	H	0.930403	-0.711794	0.601996
H519	H	1.263736	-0.378461	0.935329
H520	H	0.568179	-0.297407	0.688916
H521	H	0.901512	0.035926	1.022249
H522	H	1.234845	0.369260	1.355582
H523	H	0.568190	-0.297406	0.744566
H524	H	0.901524	0.035928	1.077899
H525	H	1.234857	0.369261	1.411232
H526	H	0.730035	-0.135720	0.744621
H527	H	1.063368	0.197613	1.077955
H528	H	1.396702	0.530947	1.411288
Br529	Br	0.716810	-0.374800	0.148876
Br530	Br	1.050143	-0.041466	0.482209
Br531	Br	1.383477	0.291867	0.815542
Br532	Br	0.380247	-0.148721	0.148921
Br533	Br	0.713581	0.184612	0.482254
Br534	Br	1.046914	0.517945	0.815588
Br535	Br	-0.081580	-0.284432	0.284186
Br536	Br	0.251753	0.048901	0.617520
Br537	Br	0.585086	0.382235	0.950853
H538	H	0.730036	-0.135729	0.603875
H539	H	1.063369	0.197604	0.937208
H540	H	1.396703	0.530937	1.270542
Br541	Br	0.552657	-0.842064	0.312933
Br542	Br	0.885990	-0.508731	0.646267
Br543	Br	1.219323	-0.175397	0.979600
Br544	Br	-0.192174	-0.284429	0.284201
Br545	Br	0.141159	0.048904	0.617534
Br546	Br	0.474493	0.382238	0.950867
H547	H	0.701411	-1.045063	0.164527
H548	H	1.034744	-0.711730	0.497860
H549	H	1.368077	-0.378397	0.831194
Br550	Br	0.716857	-0.485377	0.148891
Br551	Br	1.050190	-0.152044	0.482224
Br552	Br	1.383524	0.181290	0.815558
H553	H	0.730034	-0.135723	0.688980
H554	H	1.063368	0.197611	1.022313
H555	H	1.396701	0.530944	1.355647
Br556	Br	0.745646	-0.590605	0.120205
Br557	Br	1.078979	-0.257271	0.453539
Br558	Br	1.412312	0.076062	0.786872
Br559	Br	0.581332	-0.284299	0.375257
Br560	Br	0.914665	0.049034	0.708591
Br561	Br	1.247999	0.382368	1.041924
H562	H	0.701291	-0.164443	0.960436
H563	H	1.034624	0.168890	1.293770
H564	H	1.367958	0.502223	1.627103
H565	H	0.568172	-0.297401	0.603807
H566	H	0.901506	0.035932	0.937141
H567	H	1.234839	0.369266	1.270474
Br568	Br	-0.192138	-0.148758	0.148991
Br569	Br	0.141195	0.184575	0.482324
Br570	Br	0.474528	0.517908	0.815657
H571	H	0.597049	-0.960019	0.268661
H572	H	0.930382	-0.626686	0.601994
H573	H	1.263715	-0.293353	0.935328
Br574	Br	0.581332	-0.284275	0.947665
Br575	Br	0.914665	0.049059	1.280998
Br576	Br	1.247999	0.382392	1.614331
H577	H	0.730062	-0.688454	0.135795
H578	H	1.063396	-0.355121	0.469128
H579	H	1.396729	-0.021787	0.802462
H580	H	0.730031	-0.135719	0.829740
H581	H	1.063365	0.197614	1.163073
H582	H	1.396698	0.530947	1.496406
H583	H	0.262255	-0.297559	0.297257
H584	H	0.595588	0.035774	0.630591
H585	H	0.928921	0.369108	0.963924
Br586	Br	0.380238	-0.284396	0.284139
Br587	Br	0.713572	0.048937	0.617472
Br588	Br	1.046905	0.382270	0.950805
H589	H	0.177183	-0.135563	0.135854
H590	H	0.510516	0.197770	0.469187
H591	H	0.843850	0.531104	0.802520
