data_functionalizedCrystal
_audit_creation_method	'MofGen! by Chris Wilmer'
_symmetry_space_group_name_H-M	'P1'
_symmetry_Int_Tables_number	1
_symmetry_cell_setting	triclinic
loop_
_symmetry_equiv_pos_as_xyz
  x,y,z
_cell_length_a	17.077404
_cell_length_b	12.759394
_cell_length_c	17.077396
_cell_angle_alpha	89.973684
_cell_angle_beta	89.980499
_cell_angle_gamma	90.015062
loop_
_atom_site_label
_atom_site_type_symbol
_atom_site_fract_x
_atom_site_fract_y
_atom_site_fract_z
Zn1	Zn	1.200099	-0.418260	-0.443855
Zn2	Zn	1.200024	-0.593961	-0.312593
Zn3	Zn	1.068830	-0.418297	-0.312602
Zn4	Zn	1.068817	-0.593898	-0.443817
O5	O	1.134442	-0.506104	-0.378217
O6	O	1.309936	-0.441578	-0.426454
O7	O	1.182595	-0.570700	-0.202748
O8	O	1.086280	-0.271271	-0.330033
O9	O	1.309881	-0.570664	-0.330017
O10	O	1.182722	-0.271244	-0.426463
O11	O	1.086208	-0.441641	-0.202754
O12	O	0.958982	-0.441580	-0.329996
O13	O	1.086257	-0.570558	-0.553669
O14	O	0.958972	-0.570594	-0.426399
O15	O	1.182709	-0.441517	-0.553697
O16	O	1.182582	-0.740974	-0.329981
O17	O	1.086185	-0.740928	-0.426391
C18	C	0.930495	-0.506085	-0.378195
C19	C	0.843245	-0.506102	-0.378205
C20	C	0.802270	-0.573381	-0.428321
C21	C	0.720290	-0.573383	-0.428334
C22	C	0.679285	-0.506111	-0.378225
C23	C	0.720266	-0.438825	-0.328107
C24	C	0.802245	-0.438818	-0.328099
C25	C	0.549396	-0.438846	-0.328125
C26	C	0.467411	-0.438854	-0.328132
C27	C	0.467441	-0.573411	-0.428360
C28	C	0.549419	-0.573404	-0.428352
C29	C	0.590394	-0.506119	-0.378233
C30	C	1.134395	-0.779072	-0.378198
C31	C	1.134447	-0.895848	-0.378216
C32	C	1.234901	-0.895843	-0.277900
C33	C	1.285148	-0.950701	-0.227751
C34	C	1.285194	-1.060422	-0.227773
C35	C	1.234989	-1.115288	-0.277950
C36	C	1.184742	-1.060430	-0.328099
C37	C	1.184700	-0.950706	-0.328070
C38	C	1.084293	-1.060436	-0.428417
C39	C	1.084242	-0.950714	-0.428393
C40	C	1.034088	-1.115302	-0.478594
C41	C	0.983835	-1.060444	-0.528740
C42	C	0.983791	-0.950716	-0.528716
C43	C	1.033994	-0.895856	-0.478542
C44	C	1.339187	-0.506124	-0.378239
C45	C	1.426436	-0.506132	-0.378249
C46	C	1.134490	-0.506027	-0.582961
C47	C	1.134510	-0.505994	-0.670211
C48	C	1.134511	-0.232071	-0.378253
C49	C	1.134540	-0.115294	-0.378269
C50	C	1.184735	-0.438797	-0.711217
C51	C	1.184744	-0.438762	-0.793197
C52	C	1.134532	-0.505930	-0.834171
C53	C	1.084302	-0.573130	-0.793159
C54	C	1.084290	-0.573159	-0.711180
C55	C	1.084334	-0.573067	-0.964029
C56	C	1.084348	-0.573039	-1.046014
C57	C	1.184788	-0.438670	-1.046047
C58	C	1.184776	-0.438699	-0.964068
C59	C	1.134546	-0.505900	-0.923062
C60	C	1.134440	-0.506105	-0.174269
C61	C	1.134572	-0.505842	-0.087020
H62	H	0.686874	-0.384047	-0.287311
H63	H	1.043416	-0.627816	-0.826526
H64	H	1.225625	-0.384104	-0.677862
H65	H	0.835650	-0.628165	-0.469123
O66	O	0.680577	-0.638699	-0.477120
C67	C	0.655521	-0.689926	-0.610577
C68	C	0.700554	-0.615899	-0.555415
H69	H	0.671643	-0.671503	-0.673891
H70	H	0.671642	-0.774628	-0.596732
H71	H	0.589888	-0.678401	-0.601942
H72	H	0.766197	-0.627330	-0.564019
H73	H	0.684368	-0.531223	-0.569273
H74	H	0.835606	-0.384028	-0.287293
H75	H	1.234858	-0.806502	-0.277868
O76	O	1.333841	-0.897241	-0.179036
C77	C	1.378326	-0.728206	-0.134568
C78	C	1.323128	-0.788612	-0.189763
H79	H	1.369695	-0.640369	-0.143234
H80	H	1.364578	-0.749781	-0.071249
H81	H	1.441615	-0.749761	-0.148400
H82	H	1.259820	-0.767090	-0.176001
H83	H	1.336943	-0.767033	-0.253066
O84	O	1.334029	-1.113554	-0.178986
C85	C	1.433695	-1.101982	-0.079512
C86	C	1.378418	-1.041680	-0.134709
H87	H	1.469609	-1.043898	-0.043712
H88	H	1.397732	-1.153401	-0.038398
H89	H	1.474706	-1.153302	-0.115612
H90	H	1.337396	-0.990304	-0.098673
H91	H	1.414430	-0.990327	-0.175826
H92	H	0.942876	-0.906056	-0.569557
H93	H	1.235038	-1.204629	-0.277970
O94	O	1.233467	-0.373294	-0.924308
C95	C	1.271634	-0.194590	-0.899309
C96	C	1.216433	-0.268548	-0.944367
H97	H	1.257893	-0.109888	-0.915523
H98	H	1.262999	-0.206053	-0.833662
H99	H	1.334924	-0.213090	-0.915428
H100	H	1.153122	-0.250093	-0.928313
H101	H	1.225135	-0.257071	-1.010003
H102	H	0.582755	-0.384046	-0.287319
O103	O	1.034205	-1.221885	-0.478745
C104	C	1.054356	-1.379242	-0.554064
C105	C	1.054273	-1.258538	-0.553998
H106	H	1.070563	-1.408913	-0.614904
H107	H	1.098917	-1.409084	-0.509649
H108	H	0.993587	-1.409089	-0.537696
H109	H	1.115008	-1.228601	-0.570386
H110	H	1.009670	-1.228767	-0.598397
O111	O	1.035634	-0.638233	-1.085938
C112	C	0.991089	-0.697653	-1.212220
C113	C	1.046317	-0.623794	-1.167103
H114	H	0.999695	-0.685989	-1.277850
H115	H	1.004829	-0.782409	-1.196159
H116	H	0.927809	-0.679187	-1.196042
H117	H	1.109615	-0.642165	-1.183256
H118	H	1.032510	-0.539060	-1.183168
O119	O	1.035487	-0.638547	-0.671466
C120	C	0.935851	-0.771801	-0.680080
C121	C	0.991092	-0.697816	-0.725152
H122	H	0.899931	-0.819723	-0.723466
H123	H	0.971842	-0.826819	-0.641725
H124	H	0.894842	-0.723570	-0.641673
H125	H	1.032112	-0.745961	-0.763602
H126	H	0.955052	-0.642795	-0.763458
O127	O	1.233564	-0.373629	-0.833122
C128	C	1.339577	-0.359459	-0.925682
C129	C	1.284331	-0.433347	-0.880527
H130	H	1.380648	-0.407712	-0.964007
H131	H	1.303591	-0.304526	-0.964109
H132	H	1.375431	-0.311430	-0.882307
H133	H	1.248466	-0.481445	-0.923845
H134	H	1.320363	-0.488211	-0.842088
O135	O	0.935157	-1.113693	-0.577591
C136	C	0.896972	-1.147126	-0.711090
C137	C	0.952162	-1.086770	-0.655857
H138	H	0.910689	-1.125365	-0.774378
H139	H	0.905644	-1.234981	-0.702563
H140	H	0.833677	-1.125659	-0.697206
H141	H	1.015478	-1.108150	-0.669706
H142	H	0.943421	-0.998930	-0.664393
H143	H	0.582803	-0.628188	-0.469151
O144	O	1.035530	-0.638462	-0.924316
C145	C	0.935910	-0.771738	-0.932931
C146	C	0.991139	-0.697736	-0.978003
H147	H	0.899994	-0.819665	-0.976316
H148	H	0.971911	-0.826752	-0.894581
H149	H	0.894898	-0.723521	-0.894518
H150	H	1.032162	-0.745869	-1.016458
H151	H	0.955089	-0.642720	-1.016304
H152	H	0.434075	-0.628194	-0.469172
O153	O	1.233498	-0.373408	-1.085996
C154	C	1.278049	-0.313828	-1.212304
C155	C	1.222837	-0.387769	-1.167155
H156	H	1.269461	-0.325428	-1.277929
H157	H	1.264276	-0.229097	-1.196245
H158	H	1.341332	-0.332271	-1.196155
H159	H	1.159536	-0.369420	-1.183281
H160	H	1.236677	-0.472477	-1.183218
H161	H	1.033958	-0.806515	-0.478512
H162	H	0.434028	-0.384062	-0.287339
