data_functionalizedCrystal
_audit_creation_method	'MofGen! by Chris Wilmer'
_symmetry_space_group_name_H-M	'P1'
_symmetry_Int_Tables_number	1
_symmetry_cell_setting	triclinic
loop_
_symmetry_equiv_pos_as_xyz
  x,y,z
_cell_length_a	13.897449
_cell_length_b	13.897448
_cell_length_c	12.827885
_cell_angle_alpha	90.029689
_cell_angle_beta	89.977240
_cell_angle_gamma	89.979604
loop_
_atom_site_label
_atom_site_type_symbol
_atom_site_fract_x
_atom_site_fract_y
_atom_site_fract_z
Zn1	Zn	1.474684	0.383947	-0.590947
Zn2	Zn	1.808017	0.717280	-0.257613
Zn3	Zn	2.141351	1.050614	0.075720
Zn4	Zn	1.474575	0.545273	-0.416207
Zn5	Zn	1.807908	0.878607	-0.082874
Zn6	Zn	2.141241	1.211940	0.250459
Zn7	Zn	1.313375	0.383996	-0.416210
Zn8	Zn	1.646708	0.717330	-0.082876
Zn9	Zn	1.980042	1.050663	0.250457
Zn10	Zn	1.313350	0.545204	-0.590897
Zn11	Zn	1.646683	0.878537	-0.257563
Zn12	Zn	1.980016	1.211871	0.075770
O13	O	1.393996	0.464605	-0.503565
O14	O	1.727329	0.797938	-0.170232
O15	O	2.060662	1.131272	0.163102
O16	O	1.609651	0.405356	-0.567787
O17	O	1.942984	0.738689	-0.234454
O18	O	2.276318	1.072022	0.098880
O19	O	1.453156	0.523929	-0.269971
O20	O	1.786489	0.857263	0.063362
O21	O	2.119823	1.190596	0.396695
O22	O	1.334829	0.249008	-0.439411
O23	O	1.668163	0.582341	-0.106078
O24	O	2.001496	0.915675	0.227256
O25	O	1.609571	0.523881	-0.439407
O26	O	1.942904	0.857215	-0.106073
O27	O	2.276237	1.190548	0.227260
O28	O	1.453342	0.248972	-0.567789
O29	O	1.786676	0.582305	-0.234456
O30	O	2.120009	0.915638	0.098877
O31	O	1.334723	0.405440	-0.269973
O32	O	1.668057	0.738773	0.063360
O33	O	2.001390	1.072106	0.396693
O34	O	1.178390	0.405372	-0.439362
O35	O	1.511723	0.738706	-0.106029
O36	O	1.845057	1.072039	0.227304
O37	O	1.334786	0.523763	-0.737139
O38	O	1.668120	0.857096	-0.403806
O39	O	2.001453	1.190430	-0.070473
O40	O	1.178371	0.523811	-0.567704
O41	O	1.511705	0.857144	-0.234371
O42	O	1.845038	1.190478	0.098963
O43	O	1.453318	0.405288	-0.737176
O44	O	1.786651	0.738622	-0.403843
O45	O	2.119985	1.071955	-0.070509
O46	O	1.453131	0.680246	-0.439358
O47	O	1.786465	1.013579	-0.106025
O48	O	2.119798	1.346912	0.227308
O49	O	1.334680	0.680195	-0.567702
O50	O	1.668013	1.013528	-0.234368
O51	O	2.001347	1.346861	0.098965
C52	C	1.393917	0.715219	-0.503547
C53	C	1.727251	1.048553	-0.170214
C54	C	2.060584	1.381886	0.163120
C55	C	1.393972	0.822433	-0.503574
C56	C	1.727305	1.155767	-0.170241
C57	C	2.060638	1.489100	0.163092
C58	C	1.143381	0.464590	-0.503529
C59	C	1.476715	0.797924	-0.170195
C60	C	1.810048	1.131257	0.163138
C61	C	1.036168	0.464607	-0.503538
C62	C	1.369501	0.797940	-0.170204
C63	C	1.702834	1.131274	0.163129
C64	C	0.949098	0.464610	-0.503555
C65	C	1.282431	0.797944	-0.170222
C66	C	1.615764	1.131277	0.163111
C67	C	0.839865	0.464617	-0.503587
C68	C	1.173199	0.797950	-0.170254
C69	C	1.506532	1.131284	0.163080
C70	C	1.394067	1.018728	-0.503649
C71	C	1.727400	1.352062	-0.170316
C72	C	2.060733	1.685395	0.163017
C73	C	1.394011	0.909496	-0.503611
C74	C	1.727345	1.242829	-0.170277
C75	C	2.060678	1.576163	0.163056
C76	C	1.645589	0.464621	-0.503602
C77	C	1.978922	0.797954	-0.170269
C78	C	2.312255	1.131287	0.163064
C79	C	1.752803	0.464627	-0.503618
C80	C	2.086136	0.797961	-0.170285
C81	C	2.419469	1.131294	0.163049
C82	C	1.394093	1.213012	-0.503618
C83	C	1.727426	1.546345	-0.170285
C84	C	2.060759	1.879679	0.163048
C85	C	1.394113	1.105798	-0.503672
C86	C	1.727446	1.439131	-0.170339
C87	C	2.060780	1.772465	0.162994
C88	C	1.394061	0.464512	-0.776135
C89	C	1.727395	0.797846	-0.442802
C90	C	2.060728	1.131179	-0.109469
C91	C	1.394089	0.464473	-0.892289
C92	C	1.727423	0.797806	-0.558955
C93	C	2.060756	1.131140	-0.225622
C94	C	1.452749	0.405836	-0.944092
C95	C	1.786082	0.739170	-0.610758
C96	C	2.119416	1.072503	-0.277425
C97	C	1.452779	0.405794	-1.064142
C98	C	1.786113	0.739128	-0.730809
C99	C	2.119446	1.072461	-0.397475
C100	C	1.393986	0.464628	-0.232055
C101	C	1.727319	0.797961	0.101278
C102	C	2.060653	1.131294	0.434612
C103	C	1.394145	0.464395	-0.115903
C104	C	1.727478	0.797729	0.217431
C105	C	2.060811	1.131062	0.550764
H106	H	1.503003	0.355596	-1.108691
H107	H	1.836336	0.688930	-0.775358
H108	H	2.169670	1.022263	-0.442025
N109	N	1.519269	0.339398	-0.885125
N110	N	1.852602	0.672731	-0.551792
N111	N	2.185935	1.006064	-0.218458
H112	H	1.509829	0.348857	-0.807723
H113	H	1.843163	0.682190	-0.474390
H114	H	2.176496	1.015524	-0.141057
H115	H	1.588163	0.354421	-0.904171
H116	H	1.921497	0.687754	-0.570838
H117	H	2.254830	1.021088	-0.237504
H118	H	1.343925	0.514603	-1.071360
H119	H	1.677258	0.847936	-0.738027
H120	H	2.010592	1.181269	-0.404693
N121	N	1.327586	0.530918	-0.951268
N122	N	1.660919	0.864251	-0.617934
N123	N	1.994252	1.197585	-0.284601
H124	H	1.366812	0.575566	-0.996557
H125	H	1.700145	0.908900	-0.663224
H126	H	2.033479	1.242233	-0.329891
H127	H	1.288442	0.569992	-0.900145
H128	H	1.621775	0.903325	-0.566812
H129	H	1.955109	1.236659	-0.233478
