data_functionalizedCrystal
_audit_creation_method	'MofGen! by Chris Wilmer'
_symmetry_space_group_name_H-M	'P1'
_symmetry_Int_Tables_number	1
_symmetry_cell_setting	triclinic
loop_
_symmetry_equiv_pos_as_xyz
  x,y,z
_cell_length_a	17.019282
_cell_length_b	23.532357
_cell_length_c	16.098538
_cell_angle_alpha	92.699547
_cell_angle_beta	91.140572
_cell_angle_gamma	83.109667
loop_
_atom_site_label
_atom_site_type_symbol
_atom_site_fract_x
_atom_site_fract_y
_atom_site_fract_z
O1	O	1.045799	0.072729	0.005763
O2	O	0.816901	0.081386	-0.010662
O3	O	0.938272	-0.005835	-0.001936
O4	O	0.924428	0.159950	-0.002963
O5	O	0.931182	-0.000760	0.136068
O6	O	0.809811	0.086461	0.127341
O7	O	1.038709	0.077804	0.143766
Zn8	Zn	0.923135	0.082938	0.157465
Zn9	Zn	0.932476	0.076252	-0.024360
O10	O	0.917338	0.165025	0.135040
C11	C	0.784078	0.083496	0.056239
C12	C	0.696837	0.082217	0.049980
C13	C	0.651991	0.084381	0.122267
C14	C	0.570021	0.083170	0.116388
C15	C	0.532897	0.079799	0.038221
C16	C	0.577749	0.077633	-0.034071
C17	C	0.659719	0.078840	-0.028191
C18	C	0.285596	0.076013	0.016705
C19	C	0.203620	0.074808	0.010831
C20	C	0.195897	0.080344	0.161290
C21	C	0.277868	0.081554	0.167163
C22	C	0.322714	0.079385	0.094871
C23	C	0.449110	0.078563	0.032210
C24	C	0.406500	0.080617	0.100883
C25	C	0.934381	-0.024516	0.067044
C26	C	0.933339	-0.087740	0.066977
C27	C	0.930669	-0.482558	-0.008762
C28	C	0.929680	-0.541964	-0.008838
O29	O	0.932428	-0.575036	-0.072853
N30	N	0.925324	-0.568911	0.066351
C31	C	0.921950	-0.536450	0.141620
O32	O	0.918154	-0.564826	0.205568
C33	C	0.922934	-0.477045	0.141695
C34	C	0.927298	-0.450101	0.066501
C35	C	0.935032	-0.455614	-0.083950
C36	C	0.936023	-0.396213	-0.083874
C37	C	0.932651	-0.363756	-0.008610
C38	C	0.928289	-0.390700	0.066577
C39	C	0.919554	-0.444584	0.216963
C40	C	0.920538	-0.385175	0.217031
C41	C	0.924902	-0.358231	0.141837
C42	C	0.925908	-0.298841	0.141917
N43	N	0.930264	-0.271894	0.066728
C44	C	0.933635	-0.304351	-0.008536
C45	C	0.919883	-0.661204	0.141458
C46	C	0.918904	-0.720608	0.141385
C47	C	0.926632	-0.726118	-0.009074
C48	C	0.927616	-0.666713	-0.009000
C49	C	0.924238	-0.634256	0.066269
C50	C	0.935717	-0.179604	-0.008370
C51	C	0.936711	-0.120197	-0.008287
C52	C	0.928978	-0.114693	0.142171
C53	C	0.927989	-0.174094	0.142089
C54	C	0.931355	-0.206548	0.066812
O55	O	0.923159	-0.265732	0.205900
O56	O	0.937420	-0.275966	-0.072473
C57	C	1.071533	0.075694	0.076864
C58	C	1.158774	0.076972	0.083117
C59	C	0.921230	0.183706	0.066059
C60	C	0.922272	0.246930	0.066120
N61	N	0.916765	0.087501	0.281556
N62	N	0.938851	0.071684	-0.148451
C63	C	0.968299	0.050494	0.328846
C64	C	0.963850	0.053692	0.415715
C65	C	0.907872	0.093899	0.455293
C66	C	0.856333	0.130908	0.407996
C67	C	0.860778	0.127707	0.321129
C68	C	0.891758	0.105492	0.717384
C69	C	0.887318	0.108691	0.804259
C70	C	0.994835	0.031474	0.811972
C71	C	0.999278	0.028279	0.725102
C72	C	0.947737	0.065286	0.677813
C73	C	0.903325	0.097170	0.544087
C74	C	0.952280	0.062012	0.589020
H75	H	0.436730	0.083359	0.164525
C76	C	0.930333	-0.761831	-0.091867
N77	N	0.933119	-0.788732	-0.154223
H78	H	0.857748	0.129908	0.576319
H79	H	0.938454	-0.206021	-0.069668
H80	H	0.841731	0.141435	0.836478
C81	C	0.408265	0.074859	-0.053771
N82	N	0.377498	0.072067	-0.118533
H83	H	0.818814	0.157841	0.282625
H84	H	0.917775	-0.358750	0.278324
H85	H	0.915363	-0.742542	0.202616
C86	C	0.536910	0.073924	-0.120055
N87	N	0.506151	0.071131	-0.184821
H88	H	0.931168	-0.644779	-0.070229
C89	C	0.692819	0.088089	0.208257
N90	N	0.723569	0.090879	0.273027
H91	H	0.917134	-0.634781	0.202755
H92	H	0.696231	0.077079	-0.087055
H93	H	1.013885	0.017756	0.296629
H94	H	0.997855	0.029273	0.556793
C95	C	0.520691	0.085564	0.195910
N96	N	0.483536	0.087372	0.255809
H97	H	1.044860	-0.004461	0.692880
H98	H	0.849792	0.135625	0.678888
H99	H	0.924443	-0.196033	0.203318
C100	C	0.794749	0.175131	0.451534
N101	N	0.748362	0.208441	0.484326
H102	H	0.926237	-0.088256	0.203450
H103	H	0.940266	-0.098263	-0.069521
C104	C	0.940814	-0.366582	-0.166594
N105	N	0.944419	-0.344267	-0.228904
H106	H	0.308089	0.084297	0.230814
C107	C	0.938775	-0.491311	-0.166751
N108	N	0.941612	-0.518196	-0.229121
H109	H	0.916002	-0.466511	0.278194
H110	H	1.005812	0.023558	0.454219
C111	C	1.051520	-0.009235	0.863996
N112	N	1.094215	-0.039900	0.903181
H113	H	0.159375	0.082109	0.220146
H114	H	0.322100	0.074245	-0.042161
C115	C	0.162786	0.071099	-0.075162
N116	N	0.132029	0.068307	-0.139929
