data_functionalizedCrystal
_audit_creation_method	'MofGen! by Chris Wilmer'
_symmetry_space_group_name_H-M	'P1'
_symmetry_Int_Tables_number	1
_symmetry_cell_setting	triclinic
loop_
_symmetry_equiv_pos_as_xyz
  x,y,z
_cell_length_a	14.044191
_cell_length_b	14.044220
_cell_length_c	12.503584
_cell_angle_alpha	93.843789
_cell_angle_beta	86.161964
_cell_angle_gamma	93.190327
loop_
_atom_site_label
_atom_site_type_symbol
_atom_site_fract_x
_atom_site_fract_y
_atom_site_fract_z
O1	O	1.282208	0.225144	-0.089273
O2	O	1.005537	0.216831	-0.089287
O3	O	1.139719	0.082652	-0.089269
O4	O	1.148026	0.359323	-0.089290
O5	O	1.129629	0.092763	0.089371
O6	O	0.995446	0.226942	0.089354
O7	O	1.272118	0.235255	0.089368
Cu8	Cu	1.132861	0.232022	0.105672
Cu9	Cu	1.144794	0.220064	-0.105591
O10	O	1.137936	0.369434	0.089350
C11	C	0.964870	0.218250	0.000032
C12	C	0.858727	0.207402	0.000027
C13	C	0.613268	0.264503	0.000034
C14	C	0.664393	0.187587	0.000038
C15	C	0.772531	0.198615	0.000032
C16	C	0.505121	0.253477	0.000040
C17	C	1.131038	0.052086	0.000051
C18	C	1.120194	-0.054057	0.000052
C19	C	1.100368	-0.248396	0.000036
C20	C	1.177283	-0.299524	0.000036
C21	C	1.166252	-0.407661	0.000027
C22	C	1.111398	-0.140249	0.000045
C23	C	1.312785	0.233836	0.000046
C24	C	1.418929	0.244683	0.000044
C25	C	1.146617	0.400000	0.000027
C26	C	1.157462	0.506143	0.000020
N27	N	1.124475	0.240432	0.254263
C28	C	1.112139	0.252812	0.473377
C29	C	1.165517	0.199280	0.526711
C30	C	1.158653	0.206168	0.648633
C31	C	1.119002	0.245925	0.351444
N32	N	1.153184	0.211657	0.745818
H33	H	0.626954	0.113450	-0.000032
N34	N	1.275481	-0.249934	0.000068
H35	H	1.325276	-0.299124	0.000072
H36	H	1.287143	-0.212457	-0.066149
N37	N	1.002174	-0.297981	0.000029
H38	H	1.008115	-0.369321	0.000027
H39	H	0.962626	-0.275110	0.066257
H40	H	1.216370	0.148277	0.480805
N41	N	0.662856	0.362695	0.000020
H42	H	0.734196	0.356752	0.000014
H43	H	0.647462	0.394753	-0.066211
N44	N	1.044782	0.320369	0.534173
H45	H	1.049368	0.315774	0.613913
H46	H	1.062740	0.387924	0.514581
