data_functionalizedCrystal
_audit_creation_method	'MofGen! by Chris Wilmer'
_symmetry_space_group_name_H-M	'P1'
_symmetry_Int_Tables_number	1
_symmetry_cell_setting	triclinic
loop_
_symmetry_equiv_pos_as_xyz
  x,y,z
_cell_length_a	17.019282
_cell_length_b	14.519731
_cell_length_c	12.996460
_cell_angle_alpha	89.992872
_cell_angle_beta	93.875637
_cell_angle_gamma	83.538640
loop_
_atom_site_label
_atom_site_type_symbol
_atom_site_fract_x
_atom_site_fract_y
_atom_site_fract_z
O1	O	1.046854	0.117426	0.007224
O2	O	1.546854	0.617426	0.507224
O3	O	0.817211	0.132423	-0.013134
O4	O	1.317211	0.632423	0.486866
O5	O	0.938112	-0.009333	-0.002406
O6	O	1.438112	0.490667	0.497594
O7	O	0.925953	0.259181	-0.003503
O8	O	1.425953	0.759181	0.496497
O9	O	0.938100	-0.009341	0.168726
O10	O	1.438100	0.490659	0.668726
O11	O	0.817198	0.132415	0.157999
O12	O	1.317198	0.632415	0.657999
O13	O	1.046841	0.117418	0.178357
O14	O	1.546841	0.617418	0.678357
Cu15	Cu	0.932019	0.124916	0.183804
Cu16	Cu	1.432019	0.624916	0.683804
Cu17	Cu	0.932034	0.124925	-0.018580
Cu18	Cu	1.432034	0.624925	0.481420
O19	O	0.925940	0.259174	0.167630
O20	O	1.425940	0.759174	0.667630
C21	C	0.937536	-0.043694	0.083110
C22	C	1.437536	0.456306	0.583110
C23	C	0.935829	-0.146069	0.082959
C24	C	1.435829	0.353931	0.582959
C25	C	0.787815	0.131852	0.069827
C26	C	1.287815	0.631852	0.569827
C27	C	0.700242	0.130154	0.062064
C28	C	1.200242	0.630154	0.562064
C29	C	0.934442	-0.229209	0.082834
C30	C	1.434442	0.270791	0.582834
C31	C	0.932708	-0.333512	0.082672
C32	C	1.432708	0.166488	0.582672
C33	C	0.931332	-0.416646	0.082544
C34	C	1.431332	0.083354	0.582544
C35	C	0.929599	-0.520956	0.082384
C36	C	1.429599	-0.020956	0.582384
C37	C	0.659098	0.129350	0.151704
C38	C	1.159098	0.629350	0.651704
C39	C	0.576816	0.127739	0.144413
C40	C	1.076816	0.627739	0.644413
C41	C	0.535678	0.126940	0.047481
C42	C	1.035678	0.626940	0.547481
C43	C	0.576828	0.127742	-0.042166
C44	C	1.076828	0.627742	0.457834
C45	C	0.659110	0.129346	-0.034873
C46	C	1.159110	0.629346	0.465127
C47	C	0.287242	0.122092	0.020796
C48	C	0.787242	0.622092	0.520796
C49	C	0.204954	0.120491	0.013510
C50	C	0.704954	0.620491	0.513510
C51	C	0.204948	0.120487	0.200090
C52	C	0.704948	0.620487	0.700090
C53	C	0.287230	0.122096	0.207373
C54	C	0.787230	0.622096	0.707373
C55	C	0.328374	0.122893	0.117727
C56	C	0.828374	0.622893	0.617727
C57	C	0.451572	0.125297	0.040026
C58	C	0.951572	0.625297	0.540026
C59	C	0.412479	0.124529	0.125183
C60	C	0.912479	0.624529	0.625183
C61	C	1.076238	0.117988	0.095394
C62	C	1.576238	0.617988	0.595394
C63	C	1.163810	0.119686	0.103150
C64	C	1.663810	0.619686	0.603150
C65	C	0.926516	0.293535	0.082111
C66	C	1.426516	0.793535	0.582111
C67	C	0.928223	0.395910	0.082255
C68	C	1.428223	0.895910	0.582255
N69	N	0.932014	0.124909	0.326150
N70	N	1.432014	0.624909	0.826150
N71	N	0.932045	0.124925	-0.160927
N72	N	1.432045	0.624925	0.339073
C73	C	0.932033	0.124926	0.745966
C74	C	1.432033	0.624926	1.245966
C75	C	0.932025	0.124924	0.629161
C76	C	1.432025	0.624924	1.129161
C77	C	0.932024	0.124918	0.536062
C78	C	1.432024	0.624918	1.036062
C79	C	0.932015	0.124915	0.419249
C80	C	1.432015	0.624915	0.919249
H81	H	0.692586	0.130008	0.230636
H82	H	1.192586	0.630008	0.730636
H83	H	0.445977	0.125176	0.204105
H84	H	0.945977	0.625176	0.704105
H85	H	0.543322	0.127069	0.217407
H86	H	1.043322	0.627069	0.717407
H87	H	0.320719	0.122743	0.286306
H88	H	0.820719	0.622743	0.786306
H89	H	0.171462	0.119843	-0.065427
H90	H	0.671462	0.619843	0.434573
H91	H	0.320731	0.122738	-0.052201
H92	H	0.820731	0.622738	0.447799
H93	H	0.543328	0.127084	-0.121090
H94	H	1.043328	0.627084	0.378910
H95	H	0.418069	0.124646	-0.038897
H96	H	0.918069	0.624646	0.461103
H97	H	0.692608	0.130002	-0.107868
H98	H	1.192608	0.630002	0.392132
H99	H	0.171440	0.119837	0.273074
H100	H	0.671440	0.619837	0.773074
