data_functionalizedCrystal
_audit_creation_method	'MofGen! by Chris Wilmer'
_symmetry_space_group_name_H-M	'P1'
_symmetry_Int_Tables_number	1
_symmetry_cell_setting	triclinic
loop_
_symmetry_equiv_pos_as_xyz
  x,y,z
_cell_length_a	12.594517
_cell_length_b	25.639240
_cell_length_c	12.594510
_cell_angle_alpha	89.952984
_cell_angle_beta	89.987061
_cell_angle_gamma	90.028646
loop_
_atom_site_label
_atom_site_type_symbol
_atom_site_fract_x
_atom_site_fract_y
_atom_site_fract_z
Zn1	Zn	1.627159	-0.208163	-0.601484
Zn2	Zn	1.626993	-0.295614	-0.423464
Zn3	Zn	1.449158	-0.208188	-0.423543
Zn4	Zn	1.449093	-0.295563	-0.601425
O5	O	1.538101	-0.251882	-0.512479
O6	O	1.776082	-0.219774	-0.577861
O7	O	1.603361	-0.284049	-0.274529
O8	O	1.472867	-0.135020	-0.447205
O9	O	1.775961	-0.284024	-0.447071
O10	O	1.603643	-0.135001	-0.577937
O11	O	1.472706	-0.219817	-0.274587
O12	O	1.300204	-0.219768	-0.447148
O13	O	1.472756	-0.283937	-0.750379
O14	O	1.300156	-0.283962	-0.577837
O15	O	1.603580	-0.219725	-0.750422
O16	O	1.603298	-0.368772	-0.447014
O17	O	1.472595	-0.368735	-0.577761
C18	C	1.261560	-0.251862	-0.512495
C19	C	1.143254	-0.251866	-0.512527
C20	C	1.074006	-0.286850	-0.583472
C21	C	1.003226	-0.239178	-0.609672
C22	C	1.003235	-0.299578	-0.486303
C23	C	1.074033	-0.204169	-0.538779
C24	C	1.074048	-0.264601	-0.415365
C25	C	1.003300	-0.216896	-0.441528
C26	C	1.537950	-0.387725	-0.512396
C27	C	1.537983	-0.445839	-0.512396
C28	C	1.606230	-0.806154	-0.580674
C29	C	1.606261	-0.860758	-0.580696
O30	O	1.664108	-0.888954	-0.638663
N31	N	1.538248	-0.888121	-0.512582
C32	C	1.470192	-0.860877	-0.444450
O33	O	1.412344	-0.889166	-0.386516
C34	C	1.470156	-0.806274	-0.444434
C35	C	1.538181	-0.778913	-0.512545
C36	C	1.674248	-0.778793	-0.648780
C37	C	1.674218	-0.724193	-0.648757
C38	C	1.606169	-0.696953	-0.580627
C39	C	1.538151	-0.724313	-0.512521
C40	C	1.402095	-0.779031	-0.376308
C41	C	1.402065	-0.724424	-0.376299
C42	C	1.470089	-0.697063	-0.444410
C43	C	1.470072	-0.642472	-0.444369
N44	N	1.538084	-0.615109	-0.512483
C45	C	1.606133	-0.642349	-0.580612
C46	C	1.470272	-0.975548	-0.444489
C47	C	1.470312	-1.030150	-0.444498
C48	C	1.606380	-1.030027	-0.580746
C49	C	1.606344	-0.975424	-0.580730
C50	C	1.538284	-0.948185	-0.512602
C51	C	1.606065	-0.527684	-0.580557
C52	C	1.606032	-0.473079	-0.580525
C53	C	1.469961	-0.473207	-0.444281
C54	C	1.469997	-0.527807	-0.444309
C55	C	1.538053	-0.555045	-0.512456
O56	O	1.412252	-0.614242	-0.386434
O57	O	1.663962	-0.614054	-0.638546
C58	C	1.815721	-0.251902	-0.512463
C59	C	1.934027	-0.251911	-0.512457
C60	C	1.538179	-0.251823	-0.790100
C61	C	1.538212	-0.251797	-0.908406
C62	C	1.538281	-0.115509	-0.512586
C63	C	1.538357	-0.057395	-0.512632
C64	C	1.609393	-0.216862	-1.048446
C65	C	1.635352	-0.264570	-0.977598
C66	C	1.512300	-0.204094	-0.977681
C67	C	1.564267	-0.299515	-1.048344
C68	C	1.441170	-0.239007	-1.048433
C69	C	1.467092	-0.286748	-0.977618
C70	C	1.538084	-0.251903	-0.235938
C71	C	1.538257	-0.251781	-0.117633
H72	H	1.105001	-0.163826	-0.561022
C73	C	0.961189	-0.224647	-0.720630
C74	C	0.891264	-0.175905	-0.735107
C75	C	0.849230	-0.161378	-0.846067
C76	C	0.877123	-0.195593	-0.942549
C77	C	0.947052	-0.244337	-0.928074
C78	C	0.989086	-0.258864	-0.817115
H79	H	0.870613	-0.150574	-0.663683
H80	H	0.797464	-0.125294	-0.856781
H81	H	0.846008	-0.184839	-1.024687
H82	H	0.967703	-0.269668	-0.999498
H83	H	1.040852	-0.294949	-0.806400
H84	H	0.972450	-0.187297	-0.381503
H85	H	1.586320	-0.339859	-1.079255
C86	C	1.116117	-0.279149	-0.304436
C87	C	1.088240	-0.332460	-0.255375
C88	C	1.130313	-0.347015	-0.144446
C89	C	1.200263	-0.308259	-0.082577
C90	C	1.228144	-0.254945	-0.131638
C91	C	1.186072	-0.240390	-0.242567
H92	H	1.036455	-0.361153	-0.301174
H93	H	1.109673	-0.386482	-0.108128
H94	H	1.231408	-0.319034	-0.000461
H95	H	1.279929	-0.226252	-0.085839
H96	H	1.206712	-0.200923	-0.278884
H97	H	1.414852	-0.953372	-0.389002
C98	C	1.690743	-0.177010	-1.090471
C99	C	1.757810	-0.144813	-1.012052
C100	C	1.839162	-0.104965	-1.054079
C101	C	1.853447	-0.097314	-1.174525
C102	C	1.786378	-0.129511	-1.252952
C103	C	1.705026	-0.169359	-1.210925
H104	H	1.747237	-0.150477	-0.922883
H105	H	1.888811	-0.081130	-0.996022
H106	H	1.913669	-0.067816	-1.205636
H107	H	1.796951	-0.123848	-1.342120
H108	H	1.655378	-0.193194	-1.268982
C109	C	1.385797	-0.326694	-0.935860
C110	C	1.397719	-0.384836	-0.963990
C111	C	1.316429	-0.424782	-0.922229
C112	C	1.223218	-0.406587	-0.852338
C113	C	1.211292	-0.348441	-0.824205
C114	C	1.292581	-0.308495	-0.865965
H115	H	1.466723	-0.398308	-1.015730
H116	H	1.325258	-0.467825	-0.943056
H117	H	1.163042	-0.436157	-0.821425
H118	H	1.142288	-0.334969	-0.772464
H119	H	1.283753	-0.265452	-0.845138
H120	H	1.414559	-0.451019	-0.388808
C121	C	0.961224	-0.354060	-0.456369
C122	C	0.989136	-0.401540	-0.525764
C123	C	0.947128	-0.456023	-0.495840
C124	C	0.877209	-0.463027	-0.396520
C125	C	0.849294	-0.415546	-0.327118
C126	C	0.891301	-0.361063	-0.357043
H127	H	1.040897	-0.396356	-0.599293
H128	H	0.967794	-0.491171	-0.547217
H129	H	0.846113	-0.503359	-0.374369
H130	H	0.797532	-0.420730	-0.253590
H131	H	0.870635	-0.325915	-0.305666
H132	H	1.661430	-0.450804	-0.635988
C133	C	1.680931	-0.557640	-0.655512
C134	C	1.801929	-0.550084	-0.646902
C135	C	1.876800	-0.580040	-0.721849
C136	C	1.830673	-0.617553	-0.805407
C137	C	1.709670	-0.625111	-0.814020
C138	C	1.634799	-0.595155	-0.739073
H139	H	1.836080	-0.522313	-0.585045
H140	H	1.966375	-0.574445	-0.715473
H141	H	1.886097	-0.639728	-0.860887
H142	H	1.675519	-0.652882	-0.875877
H143	H	1.545224	-0.600750	-0.745449
C144	C	1.749115	-0.808750	-0.723726
C145	C	1.870111	-0.801186	-0.715113
C146	C	1.944991	-0.831139	-0.790058
C147	C	1.898877	-0.868655	-0.873615
C148	C	1.777875	-0.876220	-0.882232
C149	C	1.702995	-0.846268	-0.807287
H150	H	1.904253	-0.773413	-0.653256
H151	H	2.034565	-0.825538	-0.783679
H152	H	1.954308	-0.890827	-0.929094
H153	H	1.743733	-0.903994	-0.944089
H154	H	1.613421	-0.851869	-0.813666
C155	C	1.395490	-1.060242	-0.369567
C156	C	1.404234	-1.052786	-0.248572
C157	C	1.329403	-1.082876	-0.173644
C158	C	1.245829	-1.120421	-0.219711
C159	C	1.237082	-1.127879	-0.340713
C160	C	1.311913	-1.097789	-0.415640
H161	H	1.466103	-1.024991	-0.214465
H162	H	1.335879	-1.077355	-0.084071
H163	H	1.190435	-1.142695	-0.164245
H164	H	1.175213	-1.155674	-0.374820
H165	H	1.305437	-1.103310	-0.505214
H166	H	1.729606	-0.701919	-0.704221
C167	C	1.482663	-0.149607	-0.935738
C168	C	1.552309	-0.102163	-0.963723
C169	C	1.522685	-0.047675	-0.921779
C170	C	1.423415	-0.040630	-0.851851
C171	C	1.353763	-0.088076	-0.823863
C172	C	1.383387	-0.142564	-0.865807
H173	H	1.625799	-0.107376	-1.015491
H174	H	1.574246	-0.012553	-0.942499
H175	H	1.401486	-0.000295	-0.820802
H176	H	1.280272	-0.082862	-0.772095
H177	H	1.331826	-0.177686	-0.845087
H178	H	1.359108	-0.228177	-1.079572
C179	C	1.327250	-0.809115	-0.301394
C180	C	1.335968	-0.801656	-0.180398
C181	C	1.261112	-0.831738	-0.105484
C182	C	1.177538	-0.869279	-0.151565
C183	C	1.168816	-0.876740	-0.272568
C184	C	1.243673	-0.846658	-0.347482
H185	H	1.397837	-0.773864	-0.146280
H186	H	1.267568	-0.826215	-0.015910
H187	H	1.122124	-0.891548	-0.096109
H188	H	1.106947	-0.904532	-0.306685
H189	H	1.237217	-0.852181	-0.437056
H190	H	1.414614	-0.550085	-0.388840
C191	C	1.327199	-0.694461	-0.301352
C192	C	1.335950	-0.702027	-0.180362
C193	C	1.261088	-0.672065	-0.105415
C194	C	1.177475	-0.634537	-0.151458
C195	C	1.168721	-0.626969	-0.272455
C196	C	1.243583	-0.656931	-0.347402
H197	H	1.397848	-0.729809	-0.146273
H198	H	1.267568	-0.677668	-0.015846
H199	H	1.122058	-0.612358	-0.095978
H200	H	1.106823	-0.599187	-0.306544
H201	H	1.237102	-0.651329	-0.436971
H202	H	1.661735	-0.953150	-0.636192
H203	H	1.105055	-0.316377	-0.643544
H204	H	1.717437	-0.275385	-0.946481
H205	H	1.661787	-1.052216	-0.636222
