data_functionalizedCrystal
_audit_creation_method	'MofGen! by Chris Wilmer'
_symmetry_space_group_name_H-M	'P1'
_symmetry_Int_Tables_number	1
_symmetry_cell_setting	triclinic
loop_
_symmetry_equiv_pos_as_xyz
  x,y,z
_cell_length_a	16.992694
_cell_length_b	14.519709
_cell_length_c	15.455313
_cell_angle_alpha	92.669068
_cell_angle_beta	87.142206
_cell_angle_gamma	87.174184
loop_
_atom_site_label
_atom_site_type_symbol
_atom_site_fract_x
_atom_site_fract_y
_atom_site_fract_z
O1	O	1.044092	0.191795	-0.072025
O2	O	1.544092	0.691795	0.427975
O3	O	0.815805	0.189648	-0.072051
O4	O	1.315805	0.689648	0.427949
O5	O	0.936001	0.056918	-0.072029
O6	O	1.436001	0.556918	0.427971
O7	O	0.923896	0.324525	-0.072046
O8	O	1.423896	0.824525	0.427954
O9	O	0.929127	0.064474	0.072232
O10	O	1.429127	0.564474	0.572232
O11	O	0.808932	0.197205	0.072210
O12	O	1.308932	0.697205	0.572210
O13	O	1.037219	0.199352	0.072236
O14	O	1.537219	0.699352	0.572236
Cu15	Cu	0.922447	0.198968	0.085395
Cu16	Cu	1.422447	0.698968	0.585395
Cu17	Cu	0.930576	0.190031	-0.085210
Cu18	Cu	1.430576	0.690031	0.414790
O19	O	0.917023	0.332082	0.072215
O20	O	1.417023	0.832082	0.572215
C21	C	0.783152	0.190666	0.000077
C22	C	1.283152	0.690666	0.500077
C23	C	0.696097	0.182430	0.000067
C24	C	1.196097	0.682430	0.500067
C25	C	0.645968	0.261890	0.000063
C26	C	1.145968	0.761890	0.500063
C27	C	0.564170	0.254147	0.000075
C28	C	1.064170	0.754147	0.500075
C29	C	0.532502	0.166943	0.000086
C30	C	1.032502	0.666943	0.500086
C31	C	0.582638	0.087478	0.000093
C32	C	1.082638	0.587478	0.500093
C33	C	0.664434	0.095222	0.000087
C34	C	1.164434	0.595222	0.500087
C35	C	0.288859	0.134847	0.000111
C36	C	0.788859	0.634847	0.500111
C37	C	0.207056	0.127109	0.000115
C38	C	0.707056	0.627109	0.500115
C39	C	0.188594	0.293779	0.000099
C40	C	0.688594	0.793779	0.500099
C41	C	0.270393	0.301515	0.000087
C42	C	0.770393	0.801515	0.500087
C43	C	0.320520	0.222050	0.000099
C44	C	0.820520	0.722050	0.500099
N45	N	0.448892	0.159027	0.000096
N46	N	0.948892	0.659027	0.500096
N47	N	0.404129	0.229968	0.000095
N48	N	0.904129	0.729968	0.500095
C49	C	0.932000	0.026296	0.000101
C50	C	1.432000	0.526296	0.500101
C51	C	0.930309	-0.076207	0.000102
C52	C	1.430309	0.423793	0.500102
C53	C	0.924087	-0.451550	0.000078
C54	C	1.424087	0.048450	0.500078
C55	C	0.925815	-0.347118	0.000085
C56	C	1.425815	0.152882	0.500085
C57	C	0.927198	-0.263882	0.000091
C58	C	1.427198	0.236118	0.500091
C59	C	0.928926	-0.159443	0.000096
C60	C	1.428926	0.340557	0.500096
C61	C	1.069872	0.198333	0.000107
C62	C	1.569872	0.698333	0.500107
C63	C	1.156927	0.206569	0.000111
C64	C	1.656927	0.706569	0.500111
C65	C	0.921024	0.362704	0.000082
C66	C	1.421024	0.862704	0.500082
C67	C	0.922715	0.465206	0.000076
C68	C	1.422715	0.965206	0.500076
N69	N	0.916736	0.205254	0.205390
N70	N	1.416736	0.705254	0.705390
N71	N	0.936294	0.183739	-0.205204
N72	N	1.436294	0.683739	0.294796
C73	C	0.967817	0.148889	0.250793
C74	C	1.467817	0.648889	0.750793
C75	C	0.963505	0.153651	0.341600
C76	C	1.463505	0.653651	0.841600
C77	C	0.908115	0.214784	0.387002
C78	C	1.408115	0.714784	0.887002
C79	C	0.857028	0.271151	0.341593
C80	C	1.357028	0.771151	0.841593
C81	C	0.861337	0.266383	0.250787
C82	C	1.361337	0.766383	0.750787
C83	C	0.889516	0.235339	0.658581
C84	C	1.389516	0.735339	1.158581
C85	C	0.885212	0.240104	0.749392
C86	C	1.385212	0.740104	1.249392
C87	C	0.991689	0.122602	0.749393
C88	C	1.491689	0.622602	1.249393
C89	C	0.995996	0.117844	0.658586
C90	C	1.495996	0.617844	1.158586
C91	C	0.944907	0.174208	0.613185
C92	C	1.444907	0.674208	1.113185
N93	N	0.903708	0.219655	0.479822
N94	N	1.403708	0.719655	0.979822
N95	N	0.949311	0.169331	0.520367
N96	N	1.449311	0.669331	1.020367
H97	H	0.671744	0.332900	0.000054
H98	H	1.171744	0.832900	0.500054
H99	H	1.005099	0.107754	0.378567
H100	H	1.505099	0.607754	0.878567
H101	H	0.705249	0.030517	0.000090
H102	H	1.205249	0.530517	0.500090
F103	F	0.548932	-0.005331	0.000110
F104	F	1.048932	0.494669	0.500110
F105	F	0.135239	0.378346	0.000089
F106	F	0.635239	0.878346	0.500089
H107	H	1.033283	0.076712	0.786368
H108	H	1.533283	0.576712	1.286368
H109	H	0.847918	0.281234	0.621622
H110	H	1.347918	0.781234	1.121622
F111	F	1.054949	0.052781	0.610267
F112	F	1.554949	0.552781	1.110267
H113	H	0.523358	0.318852	0.000071
H114	H	1.023358	0.818852	0.500071
F115	F	0.798073	0.336210	0.389914
F116	F	1.298073	0.836210	0.889914
H117	H	0.329663	0.070141	0.000121
H118	H	0.829663	0.570141	0.500121
H119	H	0.819740	0.312280	0.213821
H120	H	1.319740	0.812280	0.713821
H121	H	1.012925	0.099112	0.213832
H122	H	1.512925	0.599112	0.713832
H123	H	0.181276	0.056094	0.000123
H124	H	0.681276	0.556094	0.500123
F125	F	0.826256	0.305176	0.797707
F126	F	1.326256	0.805176	1.297707
H127	H	0.296170	0.372525	0.000069
H128	H	0.796170	0.872525	0.500069
