data_functionalizedCrystal
_audit_creation_method	'MofGen! by Chris Wilmer'
_symmetry_space_group_name_H-M	'P1'
_symmetry_Int_Tables_number	1
_symmetry_cell_setting	triclinic
loop_
_symmetry_equiv_pos_as_xyz
  x,y,z
_cell_length_a	19.188930
_cell_length_b	23.532407
_cell_length_c	18.266242
_cell_angle_alpha	89.985150
_cell_angle_beta	89.977082
_cell_angle_gamma	82.996761
loop_
_atom_site_label
_atom_site_type_symbol
_atom_site_fract_x
_atom_site_fract_y
_atom_site_fract_z
O1	O	0.925922	0.071102	-0.061130
O2	O	1.425922	0.571102	0.438870
O3	O	0.722581	0.080673	-0.061081
O4	O	1.222581	0.580673	0.438919
O5	O	0.830383	-0.007031	-0.061087
O6	O	1.330383	0.492969	0.438913
O7	O	0.818120	0.158806	-0.061125
O8	O	1.318120	0.658806	0.438875
O9	O	0.830365	-0.007035	0.060675
O10	O	1.330365	0.492965	0.560675
O11	O	0.722562	0.080669	0.060681
O12	O	1.222562	0.580669	0.560681
O13	O	0.925904	0.071097	0.060632
O14	O	1.425904	0.571097	0.560632
Zn15	Zn	0.824230	0.075882	0.079989
Zn16	Zn	1.324230	0.575882	0.579989
Zn17	Zn	0.824254	0.075888	-0.080438
Zn18	Zn	1.324254	0.575888	0.419562
O19	O	0.818102	0.158802	0.060637
O20	O	1.318102	0.658802	0.560637
C21	C	0.696561	0.080361	-0.000194
C22	C	1.196561	0.580361	0.499806
C23	C	0.619060	0.079431	-0.000174
C24	C	1.119060	0.579431	0.499826
C25	C	0.830062	-0.028250	-0.000202
C26	C	1.330062	0.471750	0.499798
C27	C	0.829123	-0.091469	-0.000190
C28	C	1.329123	0.408531	0.499810
C29	C	0.573972	0.130893	-0.000198
C30	C	1.073972	0.630893	0.499802
C31	C	0.501151	0.130019	-0.000206
C32	C	1.001151	0.630019	0.499794
C33	C	0.473421	0.077680	-0.000205
C34	C	0.973421	0.577680	0.499795
C35	C	0.518519	0.026211	-0.000177
C36	C	1.018519	0.526211	0.499823
C37	C	0.591339	0.027086	-0.000162
C38	C	1.091339	0.527086	0.499838
N39	N	0.365575	0.037674	-0.041666
N40	N	0.865575	0.537674	0.458334
N41	N	0.296399	0.036846	-0.041682
N42	N	0.796399	0.536846	0.458318
C43	C	0.254021	0.075038	-0.000249
C44	C	0.754021	0.575038	0.499751
N45	N	0.283431	0.114099	0.041191
N46	N	0.783431	0.614099	0.541191
N47	N	0.352613	0.114929	0.041204
N48	N	0.852613	0.614929	0.541204
C49	C	0.394462	0.076724	-0.000221
C50	C	0.894462	0.576724	0.499779
C51	C	0.129971	0.125556	-0.000280
C52	C	0.629971	0.625556	0.499720
C53	C	0.057149	0.124680	-0.000283
C54	C	0.557149	0.624680	0.499717
C55	C	0.074520	0.020870	-0.000262
C56	C	0.574520	0.520870	0.499738
C57	C	0.147340	0.021748	-0.000252
C58	C	0.647340	0.521748	0.499748
C59	C	0.175061	0.074092	-0.000264
C60	C	0.675061	0.574092	0.499736
C61	C	0.761456	-0.357780	-0.000220
C62	C	1.261456	0.142220	0.499780
C63	C	0.762328	-0.298378	-0.000215
C64	C	1.262328	0.201622	0.499785
O65	O	0.708648	-0.261747	-0.000225
O66	O	1.208648	0.238253	0.499775
N67	N	0.826416	-0.275616	-0.000221
N68	N	1.326416	0.224384	0.499779
C69	C	0.889637	-0.312259	-0.000241
C70	C	1.389637	0.187741	0.499759
O71	O	0.944229	-0.287443	-0.000247
O72	O	1.444229	0.212557	0.499753
C73	C	0.888764	-0.371660	-0.000252
C74	C	1.388764	0.128340	0.499748
C75	C	0.824671	-0.394419	-0.000237
C76	C	1.324671	0.105581	0.499763
C77	C	0.697368	-0.380540	-0.000207
C78	C	1.197368	0.119460	0.499793
C79	C	0.696496	-0.439938	-0.000211
C80	C	1.196496	0.060062	0.499789
C81	C	0.759712	-0.476576	-0.000228
C82	C	1.259712	0.023424	0.499772
C83	C	0.823799	-0.453817	-0.000242
C84	C	1.323799	0.046183	0.499758
C85	C	0.951984	-0.408302	-0.000277
C86	C	1.451984	0.091698	0.499723
C87	C	0.951105	-0.467706	-0.000288
C88	C	1.451105	0.032294	0.499712
C89	C	0.887013	-0.490465	-0.000274
C90	C	1.387013	0.009535	0.499726
C91	C	0.886143	-0.549853	-0.000263
C92	C	1.386143	-0.049853	0.499737
N93	N	0.822055	-0.572616	-0.000256
N94	N	1.322055	-0.072616	0.499744
C95	C	0.758839	-0.535977	-0.000239
C96	C	1.258839	-0.035977	0.499761
C97	C	0.891465	-0.187513	-0.000220
C98	C	1.391465	0.312487	0.499780
C99	C	0.892339	-0.128113	-0.000204
C100	C	1.392339	0.371887	0.499796
C101	C	0.765029	-0.114236	-0.000179
C102	C	1.265029	0.385764	0.499821
C103	C	0.764156	-0.173637	-0.000190
C104	C	1.264156	0.326363	0.499810
C105	C	0.827377	-0.210275	-0.000213
C106	C	1.327377	0.289725	0.499787
C107	C	0.757013	-0.660718	-0.000247
C108	C	1.257013	-0.160718	0.499753
C109	C	0.756146	-0.720122	-0.000248
C110	C	1.256146	-0.220122	0.499752
C111	C	0.883455	-0.733993	-0.000277
C112	C	1.383455	-0.233993	0.499723
C113	C	0.884322	-0.674595	-0.000272
C114	C	1.384322	-0.174595	0.499728
C115	C	0.821095	-0.637958	-0.000259
C116	C	1.321095	-0.137958	0.499741
O117	O	0.939795	-0.586519	-0.000256
O118	O	1.439795	-0.086519	0.499744
O119	O	0.704255	-0.560801	-0.000242
O120	O	1.204255	-0.060801	0.499758
C121	C	0.951923	0.071410	-0.000257
C122	C	1.451923	0.571410	0.499743
C123	C	1.029425	0.072340	-0.000281
C124	C	1.529425	0.572340	0.499719
C125	C	0.818423	0.180021	-0.000249
C126	C	1.318423	0.680021	0.499751
C127	C	0.819362	0.243240	-0.000265
C128	C	1.319362	0.743240	0.499735
N129	N	0.824219	0.075878	0.189476
N130	N	1.324219	0.575878	0.689476
N131	N	0.824271	0.075888	-0.189925
N132	N	1.324271	0.575888	0.310075
C133	C	0.871970	0.037062	0.227782
C134	C	1.371970	0.537062	0.727782
C135	C	0.871974	0.037059	0.304427
C136	C	1.371974	0.537059	0.804427
C137	C	0.824235	0.075883	0.342763
C138	C	1.324235	0.575883	0.842763
C139	C	0.776475	0.114702	0.304447
C140	C	1.276475	0.614702	0.804447
C141	C	0.776468	0.114700	0.227803
C142	C	1.276468	0.614700	0.727803
N143	N	0.814998	0.126298	0.463085
N144	N	1.314998	0.626298	0.963085
N145	N	0.815010	0.126298	0.535893
N146	N	1.315010	0.626298	1.035893
C147	C	0.824254	0.075891	0.573685
C148	C	1.324254	0.575891	1.073685
N149	N	0.833500	0.025481	0.535919
N150	N	1.333500	0.525481	1.035919
N151	N	0.833492	0.025482	0.463104
N152	N	1.333492	0.525482	0.963104
C153	C	0.824238	0.075889	0.425870
C154	C	1.324238	0.575889	0.925870
C155	C	0.872012	0.037068	0.695099
C156	C	1.372012	0.537068	1.195099
C157	C	0.872012	0.037065	0.771745
C158	C	1.372012	0.537065	1.271745
C159	C	0.776516	0.114713	0.771763
C160	C	1.276516	0.614713	1.271763
C161	C	0.776513	0.114711	0.695118
C162	C	1.276513	0.614711	1.195118
C163	C	0.824265	0.075890	0.656791
C164	C	1.324265	0.575890	1.156791
H165	H	0.596537	0.173516	-0.000209
H166	H	1.096537	0.673516	0.499791
H167	H	0.910893	0.005455	0.663891
H168	H	1.410893	0.505455	1.163891
H169	H	0.942950	-0.217341	-0.000234
H170	H	1.442950	0.282659	0.499766
O171	O	0.696842	-0.074713	-0.000169
O172	O	1.196842	0.425287	0.499831
H173	H	0.708223	-0.029586	-0.000173
H174	H	1.208223	0.470414	0.499827
O175	O	0.688819	-0.621208	-0.000229
O176	O	1.188819	-0.121208	0.499771
H177	H	0.686165	-0.593823	0.049401
H178	H	1.186165	-0.093823	0.549401
H179	H	0.737643	0.146322	0.802975
H180	H	1.237643	0.646322	1.302975
H181	H	1.004175	-0.389783	-0.000289
H182	H	1.504175	0.110217	0.499711
H183	H	0.737633	0.146322	0.663927
H184	H	1.237633	0.646322	1.163927
O185	O	0.923488	-0.004803	0.345754
O186	O	1.423488	0.495197	0.845754
H187	H	0.914916	-0.049187	0.331067
H188	H	1.414916	0.450813	0.831067
O189	O	0.923462	-0.004816	0.186441
O190	O	1.423462	0.495184	0.686441
H191	H	0.956662	-0.031812	0.225960
H192	H	1.456662	0.468188	0.725960
O193	O	0.923526	-0.004800	0.813060
O194	O	1.423526	0.495200	1.313060
H195	H	0.914956	-0.049183	0.798365
H196	H	1.414956	0.450817	1.298365
H197	H	0.628050	-0.014822	-0.000144
H198	H	1.128050	0.485178	0.499856
O199	O	0.629175	-0.341031	-0.000180
O200	O	1.129175	0.158969	0.499820
H201	H	0.626517	-0.313621	-0.049803
H202	H	1.126517	0.186379	0.450197
H203	H	0.464433	0.171927	-0.000223
H204	H	0.964433	0.671927	0.499777
O205	O	0.627368	-0.464482	-0.000202
O206	O	1.127368	0.035518	0.499798
H207	H	0.583563	-0.429018	-0.000195
H208	H	1.083563	0.070982	0.499805
O209	O	0.724956	0.156566	0.186485
O210	O	1.224956	0.656566	0.686485
H211	H	0.732968	0.150038	0.126751
H212	H	1.232968	0.650038	0.626751
O213	O	0.488618	-0.030243	-0.000177
O214	O	0.988618	0.469757	0.499823
H215	H	0.430406	-0.022207	-0.000198
H216	H	0.930406	0.477793	0.499802
H217	H	1.002588	-0.497535	-0.000311
H218	H	1.502588	0.002465	0.499689
H219	H	0.944530	-0.109588	-0.000204
H220	H	1.444530	0.390412	0.499796
O221	O	0.159880	0.182009	-0.000278
O222	O	0.659880	0.682009	0.499722
H223	H	0.116290	0.217649	-0.000282
H224	H	0.616290	0.717649	0.499718
O225	O	0.724987	0.156581	0.345787
O226	O	1.224987	0.656581	0.845787
H227	H	0.733020	0.150066	0.405519
H228	H	1.233020	0.650066	0.905519
O229	O	0.953448	-0.650041	-0.000285
O230	O	1.453448	-0.150041	0.499715
H231	H	0.997258	-0.685501	-0.000301
H232	H	1.497258	-0.185501	0.499699
H233	H	0.703952	-0.738648	-0.000233
H234	H	1.203952	-0.238648	0.499767
O235	O	0.008512	0.180188	-0.000306
O236	O	0.508512	0.680188	0.499694
H237	H	0.040026	0.216730	-0.000318
H238	H	0.540026	0.716730	0.499682
O239	O	0.044624	-0.035584	-0.000262
O240	O	0.544624	0.464416	0.499738
H241	H	-0.013588	-0.027548	-0.000280
H242	H	0.486412	0.472452	0.499720
H243	H	0.184052	-0.020158	-0.000237
H244	H	0.684052	0.479842	0.499763
H245	H	0.711967	-0.192162	-0.000175
H246	H	1.211967	0.307838	0.499825
H247	H	0.934924	-0.763835	-0.000287
H248	H	1.434924	-0.263835	0.499713
