data_functionalizedCrystal
_audit_creation_method	'MofGen! by Chris Wilmer'
_symmetry_space_group_name_H-M	'P1'
_symmetry_Int_Tables_number	1
_symmetry_cell_setting	triclinic
loop_
_symmetry_equiv_pos_as_xyz
  x,y,z
_cell_length_a	18.426585
_cell_length_b	20.875641
_cell_length_c	20.875643
_cell_angle_alpha	89.846738
_cell_angle_beta	117.561486
_cell_angle_gamma	117.557599
loop_
_atom_site_label
_atom_site_type_symbol
_atom_site_fract_x
_atom_site_fract_y
_atom_site_fract_z
Zr1	Zr	0.835641	0.102406	-0.599682
O2	O	0.971195	0.197820	-0.504260
O3	O	0.689099	0.073160	-0.628935
O4	O	0.830147	0.202401	-0.633506
O5	O	0.838313	-0.033372	-0.496083
O6	O	0.838313	0.206011	-0.735456
O7	O	0.830147	0.068579	-0.499689
O8	O	0.586004	-0.025177	-0.727280
O9	O	1.090622	0.197816	-0.504260
O10	O	0.759538	0.063377	-0.717495
O11	O	0.759538	-0.015401	-0.638719
O12	O	0.925603	0.136762	-0.644100
O13	O	0.925603	0.057984	-0.565325
Zr14	Zr	0.861688	-0.054436	-0.756530
Zr15	Zr	0.848664	0.108164	-0.762282
Zr16	Zr	0.848665	-0.060194	-0.593931
Zr17	Zr	1.026113	0.102400	-0.599681
Zr18	Zr	0.671216	-0.054430	-0.756531
O19	O	1.008230	-0.025190	-0.727277
O20	O	0.989712	0.206006	-0.735456
O21	O	0.989712	-0.033376	-0.496082
O22	O	0.726134	-0.149850	-0.851952
O23	O	0.707616	0.081347	-0.860130
O24	O	0.707617	-0.158036	-0.620757
O25	O	0.859016	0.081342	-0.860129
O26	O	0.867182	-0.154431	-0.722706
O27	O	0.859016	-0.158041	-0.620756
O28	O	0.867182	-0.020609	-0.856523
O29	O	1.100973	0.202392	-0.633504
O30	O	0.596356	-0.154422	-0.722708
O31	O	0.606707	-0.149846	-0.851953
O32	O	0.596355	-0.020600	-0.856524
O33	O	1.100974	0.068571	-0.499688
O34	O	1.111325	0.073147	-0.628933
O35	O	0.771726	-0.088792	-0.712112
O36	O	0.771726	-0.010013	-0.790888
O37	O	0.937791	0.063372	-0.717494
O38	O	0.937791	-0.015407	-0.638718
C39	C	0.610413	0.023993	-0.678107
C40	C	0.529553	0.023995	-0.678108
C41	C	0.832374	0.227373	-0.685301
C42	C	0.826845	0.296401	-0.687742
C43	C	0.864955	-0.179403	-0.670912
C44	C	0.870483	-0.248431	-0.668470
C45	C	0.233444	0.023973	-0.678103
C46	C	0.315831	0.023978	-0.678102
C47	C	0.381497	0.023985	-0.678105
C48	C	0.463887	0.023988	-0.678105
C49	C	1.086916	0.023977	-0.678105
C50	C	1.167776	0.023975	-0.678104
C51	C	0.832374	0.016784	-0.474719
C52	C	0.826846	0.014339	-0.405692
C53	C	0.910930	0.367136	-0.650580
C54	C	0.905730	0.431993	-0.652884
C55	C	0.816444	0.426113	-0.692346
C56	C	0.732353	0.355369	-0.729514
C57	C	0.737554	0.290514	-0.727214
C58	C	0.791594	0.615971	-0.703337
C59	C	0.786399	0.680834	-0.705633
C60	C	0.959777	0.757453	-0.629004
C61	C	0.964970	0.692593	-0.626703
C62	C	0.880879	0.621856	-0.663874
N63	N	0.811127	0.492406	-0.694700
N64	N	0.886198	0.555565	-0.661524
C65	C	0.910931	0.051496	-0.334951
C66	C	0.905730	0.049202	-0.270095
C67	C	0.816443	0.009747	-0.275981
C68	C	0.732352	-0.027410	-0.346729
C69	C	0.737553	-0.025111	-0.411584
C70	C	0.791591	-0.001230	-0.086124
C71	C	0.786396	-0.003528	-0.021262
C72	C	0.959775	0.073086	0.055367
C73	C	0.964968	0.075377	-0.009492
C74	C	0.880877	0.038223	-0.080234
N75	N	0.811125	0.007400	-0.209689
N76	N	0.886196	0.040575	-0.146525
C77	C	0.864954	0.031186	0.118507
C78	C	0.870481	0.033628	0.049478
C79	C	0.626703	0.031194	-0.881494
C80	C	0.551372	0.033641	-0.950522
C81	C	0.626703	-0.179395	-0.670913
C82	C	0.551372	-0.248420	-0.668472
C83	C	0.642994	-0.172193	-0.874300
C84	C	0.573191	-0.238775	-0.940886
C85	C	1.054335	0.220164	-0.481912
C86	C	1.124138	0.286745	-0.415326
C87	C	1.070626	0.016776	-0.474718
C88	C	1.145957	0.014329	-0.405690
C89	C	1.070626	0.227365	-0.685299
C90	C	1.145957	0.296391	-0.687741
C91	C	0.509633	0.073106	-0.944629
C92	C	0.438859	0.075420	-1.009482
C93	C	0.409822	0.038264	-1.080229
C94	C	0.451568	-0.001202	-1.086121
C95	C	0.522345	-0.003511	-1.021268
C96	C	0.522358	-0.319151	-0.705636
C97	C	0.451587	-0.384014	-0.703339
C98	C	0.409826	-0.378144	-0.663882
C99	C	0.438847	-0.307406	-0.626714
C100	C	0.509621	-0.242545	-0.629006
C101	C	0.540411	-0.228920	-1.013283
C102	C	0.474835	-0.291474	-1.075854
C103	C	0.442034	-0.363881	-1.066027
C104	C	0.474820	-0.373735	-0.993623
C105	C	0.540401	-0.311182	-0.931053
C106	C	1.156927	0.276890	-0.342929
C107	C	1.222527	0.339444	-0.280358
C108	C	1.255332	0.411852	-0.290185
C109	C	1.222541	0.421705	-0.362589
C110	C	1.156947	0.359152	-0.425159
C111	C	1.187704	-0.025129	-0.411584
C112	C	1.258496	-0.027425	-0.346731
C113	C	1.287537	0.009733	-0.275985
C114	C	1.245787	0.049197	-0.270092
C115	C	1.175000	0.051496	-0.334945
C116	C	1.187696	0.290497	-0.727204
C117	C	1.258470	0.355347	-0.729513
C118	C	1.287508	0.426091	-0.692353
C119	C	1.245761	0.431984	-0.652888
C120	C	1.174984	0.367134	-0.650584
H121	H	0.974202	0.489587	-0.622624
C122	C	1.327470	0.480653	-0.221354
H123	H	1.342285	0.464407	-0.176832
H124	H	1.384406	0.510001	-0.222374
H125	H	1.300205	0.509989	-0.222385
C126	C	0.634139	-0.070811	-0.353204
H127	H	0.643083	-0.066865	-0.304448
H128	H	0.596492	-0.050244	-0.380847
H129	H	0.602255	-0.122109	-0.378305
C130	C	1.063211	0.118374	-0.003003
H131	H	1.054275	0.114292	-0.051756
H132	H	1.095526	0.169728	0.022129
H133	H	1.100447	0.097493	0.024616
H134	H	1.130250	0.367185	-0.484106
C135	C	1.277728	0.090062	-0.192271
H136	H	1.242734	0.113898	-0.198041
H137	H	1.265864	0.054819	-0.164114
H138	H	1.344293	0.126690	-0.166650
H139	H	1.292454	0.350535	-0.761648
C140	C	0.576447	-0.322027	-0.851419
H141	H	0.620207	-0.274407	-0.815556
H142	H	0.523597	-0.349182	-0.844790
H143	H	0.607792	-0.349179	-0.844780
C144	C	1.063184	0.699067	-0.583294
H145	H	1.112520	0.750485	-0.561495
H146	H	1.065935	0.674088	-0.544874
H147	H	1.071697	0.676631	-0.616739
H148	H	0.723117	-0.031473	-0.143717
H149	H	1.028239	0.815053	-0.598742
H150	H	1.130220	0.217937	-0.334914
H151	H	1.345177	0.007855	-0.223184
C152	C	1.155773	-0.066002	-0.489398
H153	H	1.107630	-0.058992	-0.527185
H154	H	1.209202	-0.046185	-0.495780
H155	H	1.130775	-0.118054	-0.493239
C156	C	0.634140	0.348899	-0.772920
H157	H	0.643083	0.397655	-0.768961
H158	H	0.602250	0.323801	-0.824217
H159	H	0.596500	0.321258	-0.752346
H160	H	0.388634	-0.414810	-1.116982
H161	H	1.249215	0.331406	-0.221409
H162	H	1.028237	0.103336	0.112971
H163	H	0.556353	-0.323945	-0.737766
C164	C	1.009149	0.094841	-0.328473
H165	H	1.000209	0.090867	-0.377228
H166	H	1.041094	0.146144	-0.303368
H167	H	1.046736	0.074225	-0.300832
H168	H	0.448104	-0.432697	-0.985633
H169	H	1.249259	0.480667	-0.370582
C170	C	1.304399	-0.070844	-0.353226
H171	H	1.276949	-0.092654	-0.404649
H172	H	1.371488	-0.037411	-0.330800
H173	H	1.293059	-0.109267	-0.328246
H174	H	0.427915	-0.031453	-1.143731
C175	C	0.688177	-0.046929	-0.027739
H176	H	0.638838	-0.068723	-0.079159
H177	H	0.685422	-0.085351	-0.002763
H178	H	0.679672	-0.013481	-0.005299
C179	C	0.645060	-0.065989	-0.489398
H180	H	0.591140	-0.089823	-0.483616
H181	H	0.640605	-0.030756	-0.517565
H182	H	0.646368	-0.102621	-0.515015
H183	H	0.352198	-0.430965	-0.662021
C184	C	0.688178	0.674361	-0.749024
H185	H	0.638841	0.622944	-0.770831
H186	H	0.679688	0.696797	-0.715566
H187	H	0.685409	0.699343	-0.787449
H188	H	1.141007	0.371943	-0.618445
C189	C	0.419669	-0.461816	-0.744234
H190	H	0.454668	-0.456016	-0.768070
H191	H	0.431541	-0.489989	-0.709008
H192	H	0.353104	-0.487436	-0.780867
H193	H	1.141011	0.083626	-0.330135
C194	C	0.576487	-0.149278	-1.024103
H195	H	0.620235	-0.113427	-0.976475
H196	H	0.607833	-0.142637	-1.051249
H197	H	0.523642	-0.142634	-1.051257
H198	H	1.164066	0.232899	-0.757465
H199	H	0.404835	-0.302638	-0.594589
C200	C	0.699097	0.538170	-0.744215
H201	H	0.645179	0.543959	-0.768038
H202	H	0.700393	0.512545	-0.780845
H203	H	0.694645	0.510008	-0.708973
H204	H	0.556321	-0.035653	-1.026078
H205	H	1.345140	0.478891	-0.694234
H206	H	1.269415	0.489592	-0.622633
H207	H	0.448146	-0.283437	-1.134804
C208	C	1.009147	0.373612	-0.607175
H209	H	1.058479	0.425031	-0.585379
H210	H	1.011909	0.348635	-0.568752
H211	H	1.017652	0.351176	-0.640625
C212	C	0.645061	0.212705	-0.768089
H213	H	0.591139	0.218490	-0.791915
H214	H	0.646364	0.187082	-0.804716
H215	H	0.640609	0.184543	-0.732848
H216	H	0.533273	0.103373	-0.887029
C217	C	0.998224	0.090072	-0.192283
H218	H	1.052144	0.113890	-0.198067
H219	H	0.996926	0.126702	-0.166660
H220	H	1.002673	0.054830	-0.164121
C221	C	0.392940	0.118826	-1.002991
H222	H	0.346635	0.114891	-1.051744
H223	H	0.362712	0.098251	-0.975351
H224	H	0.441149	0.170122	-0.977881
C225	C	0.541524	-0.164743	-0.588132
H226	H	0.589660	-0.126948	-0.595141
H227	H	0.488085	-0.158371	-0.607950
H228	H	0.566526	-0.160907	-0.536079
H229	H	0.352189	0.040149	-1.133030
