data_functionalizedCrystal
_audit_creation_method	'MofGen! by Chris Wilmer'
_symmetry_space_group_name_H-M	'P1'
_symmetry_Int_Tables_number	1
_symmetry_cell_setting	triclinic
loop_
_symmetry_equiv_pos_as_xyz
  x,y,z
_cell_length_a	6.817900
_cell_length_b	12.200722
_cell_length_c	10.943624
_cell_angle_alpha	92.415492
_cell_angle_beta	108.838799
_cell_angle_gamma	107.140920
loop_
_atom_site_label
_atom_site_type_symbol
_atom_site_fract_x
_atom_site_fract_y
_atom_site_fract_z
V1	V	-4.106705	-0.158683	-0.402688
V2	V	-3.606705	0.341317	0.097312
O3	O	-4.073628	0.007656	-0.394882
O4	O	-3.573628	0.507656	0.105118
O5	O	-4.076014	-0.314671	-0.400070
O6	O	-3.576014	0.185329	0.099930
O7	O	-4.084804	-0.156228	-0.578253
O8	O	-3.584804	0.343772	-0.078253
O9	O	-4.064778	-0.151883	-0.215465
O10	O	-3.564778	0.348117	0.284535
V11	V	-4.584605	-0.138788	-0.380278
V12	V	-4.084605	0.361212	0.119722
O13	O	-4.380299	-0.202323	-0.451846
O14	O	-3.880299	0.297677	0.048154
O15	O	-4.761208	-0.095148	-0.331121
O16	O	-4.261208	0.404852	0.168879
O17	O	-4.392089	0.017200	-0.382897
O18	O	-3.892089	0.517200	0.117103
O19	O	-4.735078	-0.305128	-0.388085
O20	O	-4.235078	0.194872	0.111915
O21	O	-4.743928	-0.145588	-0.567501
O22	O	-4.243928	0.354412	-0.067501
O23	O	-4.383300	-0.141243	-0.204714
O24	O	-3.883300	0.358757	0.295286
C25	C	-3.924466	-0.352698	-0.393752
C26	C	-3.424466	0.147302	0.106248
C27	C	-3.980836	-0.480221	-0.392782
C28	C	-3.480836	0.019779	0.107218
C29	C	-4.026607	-0.583781	-0.391981
C30	C	-3.526607	-0.083781	0.108019
C31	C	-4.084049	-0.713704	-0.390984
C32	C	-3.584049	-0.213704	0.109016
C33	C	-3.935676	-0.150587	-0.621040
C34	C	-3.435676	0.349413	-0.121040
C35	C	-3.999170	-0.149613	-0.764566
C36	C	-3.499170	0.350387	-0.264566
C37	C	-3.844363	-0.143049	-0.841708
C38	C	-3.344363	0.356951	-0.341708
C39	C	-4.028325	-0.240468	-0.947782
C40	C	-3.528325	0.259532	-0.447782
C41	C	-3.928369	-0.050468	-0.914231
C42	C	-3.428369	0.449532	-0.414231
C43	C	-4.182337	-0.247123	-0.868764
C44	C	-3.682337	0.252877	-0.368764
C45	C	-4.082305	-0.057037	-0.835189
C46	C	-3.582305	0.442963	-0.335189
C47	C	-4.266402	-0.154483	-0.941234
C48	C	-3.766402	0.345517	-0.441234
C49	C	-4.206979	0.055221	-0.389211
C50	C	-3.706979	0.555221	0.110789
C51	C	-4.129848	0.182742	-0.390190
C52	C	-3.629848	0.682742	0.109810
C53	C	-4.195769	-0.146888	-0.161919
C54	C	-3.695769	0.353112	0.338081
C55	C	-4.111512	-0.147857	-0.018393
C56	C	-3.611512	0.352143	0.481607
H57	H	-3.665423	-0.138345	-0.798255
H58	H	-3.165423	0.361655	-0.298255
H59	H	-4.104379	0.020515	-0.786138
H60	H	-3.604379	0.520515	-0.286138
Cl61	Cl	-4.542830	-0.161977	-1.008011
Cl62	Cl	-4.042830	0.338023	-0.508011
H63	H	-4.006168	-0.318016	-0.996798
H64	H	-3.506168	0.181984	-0.496798
Cl65	Cl	-3.763554	0.077854	-0.946107
Cl66	Cl	-3.263554	0.577854	-0.446107
H67	H	-4.289111	-0.330326	-0.848291
H68	H	-3.789111	0.169674	-0.348291
