data_functionalizedCrystal
_audit_creation_method	'MofGen! by Chris Wilmer'
_symmetry_space_group_name_H-M	'P1'
_symmetry_Int_Tables_number	1
_symmetry_cell_setting	triclinic
loop_
_symmetry_equiv_pos_as_xyz
  x,y,z
_cell_length_a	19.288864
_cell_length_b	14.853567
_cell_length_c	18.366186
_cell_angle_alpha	89.997562
_cell_angle_beta	89.977106
_cell_angle_gamma	83.385589
loop_
_atom_site_label
_atom_site_type_symbol
_atom_site_fract_x
_atom_site_fract_y
_atom_site_fract_z
O1	O	0.921732	0.112464	-0.060777
O2	O	1.421732	0.612464	0.439223
O3	O	0.719523	0.127635	-0.060727
O4	O	1.219523	0.627635	0.439273
O5	O	0.826029	-0.011211	-0.060755
O6	O	1.326029	0.488789	0.439245
O7	O	0.815226	0.251310	-0.060748
O8	O	1.315226	0.751310	0.439252
O9	O	0.826011	-0.011217	0.060344
O10	O	1.326011	0.488783	0.560344
O11	O	0.719505	0.127629	0.060373
O12	O	1.219505	0.627629	0.560373
O13	O	0.921714	0.112457	0.060322
O14	O	1.421714	0.612457	0.560322
Zn15	Zn	0.820607	0.120042	0.079575
Zn16	Zn	1.320607	0.620042	0.579575
Zn17	Zn	0.820631	0.120051	-0.079979
Zn18	Zn	1.320631	0.620051	0.420021
O19	O	0.815208	0.251304	0.060351
O20	O	1.315208	0.751304	0.560351
C21	C	0.693636	0.127144	-0.000171
C22	C	1.193636	0.627144	0.499829
C23	C	0.616527	0.125679	-0.000152
C24	C	1.116527	0.625679	0.499848
C25	C	0.572106	0.207147	-0.000161
C26	C	1.072106	0.707147	0.499839
C27	C	0.499654	0.205770	-0.000169
C28	C	0.999654	0.705770	0.499831
C29	C	0.471627	0.122920	-0.000182
C30	C	0.971627	0.622920	0.499818
C31	C	0.516058	0.041441	-0.000169
C32	C	1.016058	0.541441	0.499831
C33	C	0.588508	0.042820	-0.000154
C34	C	1.088508	0.542820	0.499846
C35	C	0.363152	0.057794	-0.042635
C36	C	0.863152	0.557794	0.457365
C37	C	0.290702	0.056418	-0.042655
C38	C	0.790702	0.556418	0.457345
C39	C	0.248167	0.118664	-0.000227
C40	C	0.748167	0.618664	0.499773
C41	C	0.278088	0.182300	0.042212
C42	C	0.778088	0.682300	0.542212
C43	C	0.350538	0.183679	0.042228
C44	C	0.850538	0.683679	0.542228
C45	C	0.393068	0.121416	-0.000199
C46	C	0.893068	0.621416	0.499801
C47	C	0.125185	0.198645	-0.000243
C48	C	0.625185	0.698645	0.499757
C49	C	0.052732	0.197265	-0.000247
C50	C	0.552732	0.697265	0.499753
C51	C	0.069138	0.032933	-0.000254
C52	C	0.569138	0.532933	0.499746
C53	C	0.141589	0.034316	-0.000244
C54	C	0.641589	0.534316	0.499756
C55	C	0.169608	0.117174	-0.000242
C56	C	0.669608	0.617174	0.499758
C57	C	0.825530	-0.044800	-0.000208
C58	C	1.325530	0.455200	0.499792
C59	C	0.824064	-0.144875	-0.000214
C60	C	1.324064	0.355125	0.499786
C61	C	0.754596	-0.557014	-0.000182
C62	C	1.254596	-0.057014	0.499818
C63	C	0.881128	-0.579015	-0.000214
C64	C	1.381128	-0.079015	0.499786
C65	C	0.882507	-0.484989	-0.000219
C66	C	1.382507	0.015011	0.499781
C67	C	0.819930	-0.426971	-0.000204
C68	C	1.319930	0.073029	0.499796
C69	C	0.755974	-0.462979	-0.000185
C70	C	1.255974	0.037021	0.499815
C71	C	0.946462	-0.448973	-0.000231
C72	C	1.446462	0.051027	0.499769
C73	C	0.947844	-0.354942	-0.000235
C74	C	1.447844	0.145058	0.499765
C75	C	0.885266	-0.296923	-0.000225
C76	C	1.385266	0.203077	0.499775
C77	C	0.821307	-0.332936	-0.000207
C78	C	1.321307	0.167064	0.499793
C79	C	0.758730	-0.274918	-0.000192
C80	C	1.258730	0.225082	0.499808
C81	C	0.694770	-0.310930	-0.000179
C82	C	1.194770	0.189070	0.499821
C83	C	0.693396	-0.404960	-0.000176
C84	C	1.193396	0.095040	0.499824
C85	C	0.886641	-0.202893	-0.000228
C86	C	1.386641	0.297107	0.499772
C87	C	0.760107	-0.180883	-0.000194
C88	C	1.260107	0.319117	0.499806
C89	C	0.947601	0.112949	-0.000236
C90	C	1.447601	0.612949	0.499764
C91	C	1.024710	0.114414	-0.000259
C92	C	1.524710	0.614414	0.499741
C93	C	0.815707	0.284893	-0.000198
C94	C	1.315707	0.784893	0.499802
C95	C	0.817174	0.384968	-0.000197
C96	C	1.317174	0.884968	0.499803
N97	N	0.820595	0.120035	0.188466
N98	N	1.320595	0.620035	0.688466
N99	N	0.820647	0.120050	-0.188870
N100	N	1.320647	0.620050	0.311130
C101	C	0.867772	0.058584	0.226553
C102	C	1.367772	0.558584	0.726553
C103	C	0.867776	0.058580	0.302781
C104	C	1.367776	0.558580	0.802781
C105	C	0.820611	0.120043	0.340918
C106	C	1.320611	0.620043	0.840918
C107	C	0.773426	0.181498	0.302822
C108	C	1.273426	0.681498	0.802822
C109	C	0.773418	0.181495	0.226595
C110	C	1.273418	0.681495	0.726595
C111	C	0.811590	0.202186	0.461682
C112	C	1.311590	0.702186	0.961682
C113	C	0.811602	0.202191	0.537907
C114	C	1.311602	0.702191	1.037907
C115	C	0.820631	0.120054	0.576026
C116	C	1.320631	0.620054	1.076026
C117	C	0.829661	0.037908	0.537910
C118	C	1.329661	0.537908	1.037910
C119	C	0.829653	0.037905	0.461684
C120	C	1.329653	0.537905	0.961684
C121	C	0.820614	0.120053	0.423573
C122	C	1.320614	0.620053	0.923573
C123	C	0.867814	0.058594	0.696769
C124	C	1.367814	0.558594	1.196769
C125	C	0.867814	0.058588	0.772998
C126	C	1.367814	0.558588	1.272998
C127	C	0.773467	0.181514	0.773037
C128	C	1.273467	0.681514	1.273037
C129	C	0.773464	0.181512	0.696809
C130	C	1.273464	0.681512	1.196809
C131	C	0.820641	0.120052	0.658679
C132	C	1.320641	0.620052	1.158679
H133	H	0.147999	0.266113	-0.000231
H134	H	0.647999	0.766113	0.499769
N135	N	0.839390	-0.050686	0.420572
N136	N	1.339390	0.449314	0.920572
H137	H	0.845112	-0.102723	0.456281
H138	H	1.345112	0.397277	0.956281
H139	H	0.797187	-0.055809	0.388969
H140	H	1.297187	0.444191	0.888969
H141	H	0.243457	0.232986	0.076762
H142	H	0.743457	0.732986	0.576762
N143	N	0.636420	-0.045057	-0.000142
N144	N	1.136420	0.454943	0.499858
H145	H	0.627421	-0.081217	-0.045037
H146	H	1.127421	0.418783	0.454963
H147	H	0.686550	-0.031540	-0.000105
H148	H	1.186550	0.468460	0.499895
H149	H	0.641323	-0.434289	-0.000164
H150	H	1.141323	0.065711	0.499836
H151	H	0.709148	-0.133651	-0.000186
H152	H	1.209148	0.366349	0.499814
N153	N	0.918670	-0.007692	0.343871
N154	N	1.418670	0.492308	0.843871
H155	H	0.911517	0.001640	0.397946
H156	H	1.411517	0.501640	0.897946
H157	H	0.910596	-0.071628	0.330562
H158	H	1.410596	0.428372	0.830562
H159	H	0.493234	-0.026016	-0.000190
H160	H	0.993234	0.473984	0.499810
H161	H	0.702522	-0.586339	-0.000175
H162	H	1.202522	-0.086339	0.499825
H163	H	0.735022	0.231541	0.333877
H164	H	1.235022	0.731541	0.833877
N165	N	0.948622	-0.641579	-0.000233
N166	N	1.448622	-0.141579	0.499767
H167	H	0.976515	-0.630022	0.044650
H168	H	1.476515	-0.130022	0.544650
H169	H	0.937991	-0.706586	-0.000255
H170	H	1.437991	-0.206586	0.499745
H171	H	0.997409	-0.496218	-0.000236
H172	H	1.497409	0.003782	0.499764
H173	H	0.374897	0.235492	0.076785
H174	H	0.874897	0.735492	0.576785
H175	H	0.804254	0.269079	0.568935
H176	H	1.304254	0.769079	1.068935
H177	H	0.938716	-0.173576	-0.000234
H178	H	1.438716	0.326424	0.499766
H179	H	0.837012	-0.028975	0.568945
H180	H	1.337012	0.471025	1.068945
N181	N	0.801853	0.290782	0.420572
N182	N	1.301853	0.790782	0.920572
H183	H	0.796142	0.342819	0.456282
H184	H	1.296142	0.842819	0.956282
H185	H	0.844051	0.295900	0.388924
H186	H	1.344051	0.795900	0.888924
N187	N	0.918693	-0.007692	0.655636
N188	N	1.418693	0.492308	1.155636
H189	H	0.948577	-0.046629	0.691335
H190	H	1.448577	0.453371	1.191335
H191	H	0.892064	-0.047460	0.624023
H192	H	1.392064	0.452540	1.124023
H193	H	0.906185	0.008539	0.195510
H194	H	1.406185	0.508539	0.695510
N195	N	0.189500	-0.053559	-0.000236
N196	N	0.689500	0.446441	0.499764
H197	H	0.180502	-0.089718	-0.045132
H198	H	0.680502	0.410282	0.454868
H199	H	0.239630	-0.040045	-0.000196
H200	H	0.739630	0.459955	0.499804
H201	H	0.643820	-0.263680	-0.000162
H202	H	1.143820	0.236320	0.499838
N203	N	0.004816	0.285139	-0.000199
N204	N	0.504816	0.785139	0.499801
H205	H	0.033563	0.337834	-0.000179
H206	H	0.533563	0.837834	0.499821
H207	H	-0.025603	0.288189	-0.045079
H208	H	0.474397	0.788189	0.454921
H209	H	0.266346	0.004605	-0.077214
H210	H	0.766346	0.504605	0.422786
H211	H	0.735051	0.231554	0.665796
H212	H	1.235051	0.731554	1.165796
N213	N	1.016824	-0.316103	-0.000249
N214	N	1.516824	0.183897	0.499751
H215	H	1.056257	-0.367126	-0.000257
H216	H	1.556257	0.132874	0.499743
H217	H	1.020159	-0.277572	-0.045145
H218	H	1.520159	0.222428	0.454855
H219	H	0.906229	0.008543	0.804009
H220	H	1.406229	0.508543	1.304009
H221	H	0.046319	-0.034525	-0.000311
H222	H	0.546319	0.465475	0.499689
N223	N	0.409024	-0.009351	-0.088399
N224	N	0.909024	0.490649	0.411601
H225	H	0.395608	-0.001188	-0.141341
H226	H	0.895608	0.498812	0.358659
H227	H	0.459444	0.001211	-0.081888
H228	H	0.959444	0.501211	0.418112
N229	N	0.602327	0.296511	-0.000164
N230	N	1.102327	0.796511	0.499836
H231	H	0.563188	0.347913	-0.000173
H232	H	1.063188	0.847913	0.499827
H233	H	0.632005	0.300670	0.044734
H234	H	1.132005	0.800670	0.544734
N235	N	0.451730	0.293643	-0.000180
N236	N	0.951730	0.793643	0.499820
H237	H	0.480474	0.346341	-0.000176
H238	H	0.980474	0.846341	0.499824
H239	H	0.421342	0.296641	-0.045082
H240	H	0.921342	0.796641	0.454918
N241	N	0.722589	0.247801	0.814159
N242	N	1.222589	0.747801	1.314159
H243	H	0.729750	0.238478	0.868229
H244	H	1.229750	0.738478	1.368229
H245	H	0.730668	0.311732	0.800828
H246	H	1.230668	0.811732	1.300828
N247	N	0.722530	0.247773	0.185510
N248	N	1.222530	0.747773	0.685510
H249	H	0.692648	0.286708	0.221233
H250	H	1.192648	0.786708	0.721233
H251	H	0.749152	0.287543	0.153866
H252	H	1.249152	0.787543	0.653866
