data_functionalizedCrystal
_audit_creation_method	'MofGen! by Chris Wilmer'
_symmetry_space_group_name_H-M	'P1'
_symmetry_Int_Tables_number	1
_symmetry_cell_setting	triclinic
loop_
_symmetry_equiv_pos_as_xyz
  x,y,z
_cell_length_a	10.540535
_cell_length_b	10.540510
_cell_length_c	16.176319
_cell_angle_alpha	89.995706
_cell_angle_beta	89.994990
_cell_angle_gamma	84.518476
loop_
_atom_site_label
_atom_site_type_symbol
_atom_site_fract_x
_atom_site_fract_y
_atom_site_fract_z
O1	O	1.685877	0.178879	-0.068696
O2	O	2.185877	0.678879	0.431304
O3	O	1.316461	0.195741	-0.068707
O4	O	1.816461	0.695741	0.431293
O5	O	1.509616	0.002601	-0.068701
O6	O	2.009616	0.502601	0.431299
O7	O	1.492721	0.372019	-0.068703
O8	O	1.992721	0.872019	0.431297
O9	O	1.509589	0.002588	0.068792
O10	O	2.009589	0.502588	0.568792
O11	O	1.316434	0.195728	0.068786
O12	O	1.816434	0.695728	0.568786
O13	O	1.685850	0.178866	0.068797
O14	O	2.185850	0.678866	0.568797
Cu15	Cu	1.501139	0.187296	0.081345
Cu16	Cu	2.001139	0.687296	0.581345
Cu17	Cu	1.501171	0.187311	-0.081256
Cu18	Cu	2.001171	0.687311	0.418744
O19	O	1.492694	0.372006	0.068791
O20	O	1.992694	0.872006	0.568791
C21	C	1.269145	0.194471	0.000038
C22	C	1.769145	0.694471	0.500038
C23	C	1.128197	0.190691	0.000033
C24	C	1.628197	0.690691	0.500033
C25	C	1.091541	0.049676	0.000037
C26	C	1.591541	0.549676	0.500037
C27	C	0.944941	0.045698	0.000357
C28	C	1.444941	0.545698	0.500357
C29	C	0.918838	0.255055	0.078405
C30	C	1.418838	0.755055	0.578405
C31	C	1.065604	0.258056	0.078463
C32	C	1.565604	0.758056	0.578463
C33	C	1.065518	0.260122	-0.077898
C34	C	1.565518	0.760122	0.422102
C35	C	0.919172	0.253601	-0.078920
C36	C	1.419172	0.753601	0.421080
C37	C	1.508344	-0.044709	0.000044
C38	C	2.008344	0.455291	0.500044
C39	C	1.504577	-0.185659	0.000038
C40	C	2.004577	0.314341	0.500038
C41	C	1.638761	-0.403117	0.000357
C42	C	2.138761	0.096883	0.500357
C43	C	1.642779	-0.256521	0.000043
C44	C	2.142779	0.243479	0.500043
C45	C	1.433846	-0.230409	-0.078477
C46	C	1.933846	0.269591	0.421523
C47	C	1.430807	-0.377170	-0.078539
C48	C	1.930807	0.122830	0.421461
C49	C	1.427898	-0.376993	0.077816
C50	C	1.927898	0.123007	0.577816
C51	C	1.434453	-0.230652	0.078850
C52	C	1.934453	0.269348	0.578850
C53	C	1.733166	0.180136	0.000050
C54	C	2.233166	0.680136	0.500050
C55	C	1.874114	0.183915	0.000049
C56	C	2.374114	0.683915	0.500049
C57	C	1.493967	0.419316	0.000044
C58	C	1.993967	0.919316	0.500044
C59	C	1.497733	0.560266	0.000044
C60	C	1.997733	1.060266	0.500044
N61	N	1.501126	0.187285	0.195711
N62	N	2.001126	0.687285	0.695711
N63	N	1.501194	0.187312	-0.195621
N64	N	2.001194	0.687312	0.304379
C65	C	1.586682	0.101798	0.238978
C66	C	2.086682	0.601798	0.738978
C67	C	1.586688	0.101796	0.325525
C68	C	2.086688	0.601796	0.825525
C69	C	1.501144	0.187289	0.368803
C70	C	2.001144	0.687289	0.868803
C71	C	1.415579	0.272780	0.325530
C72	C	1.915579	0.772780	0.825530
C73	C	1.415568	0.272774	0.238985
C74	C	1.915568	0.772774	0.738985
C75	C	1.415623	0.272804	0.674559
C76	C	1.915623	0.772804	1.174559
C77	C	1.415644	0.272806	0.761110
C78	C	1.915644	0.772806	1.261110
C79	C	1.586743	0.101827	0.761098
C80	C	2.086743	0.601827	1.261098
C81	C	1.586732	0.101821	0.674553
C82	C	2.086732	0.601821	1.174553
C83	C	1.501163	0.187307	0.631288
C84	C	2.001163	0.687307	1.131288
C85	C	1.501156	0.187305	0.537443
C86	C	2.001156	0.687305	1.037443
C87	C	1.501157	0.187298	0.462646
C88	C	2.001157	0.687298	0.962646
H89	H	0.916483	-0.009676	0.056859
H90	H	1.416483	0.490324	0.556859
H91	H	1.656394	0.032209	0.639318
H92	H	2.156394	0.532209	1.139318
H93	H	1.485920	-0.202046	0.136935
H94	H	1.985920	0.297954	0.636935
H95	H	1.692304	-0.446618	-0.055629
H96	H	2.192304	0.053382	0.444371
H97	H	1.324135	-0.399142	0.078342
H98	H	1.824135	0.100858	0.578342
H99	H	0.870114	0.354476	-0.083895
H100	H	1.370114	0.854476	0.416105
H101	H	1.327440	-0.400163	-0.082099
H102	H	1.827440	0.099837	0.417901
H103	H	1.656347	0.032185	0.203746
H104	H	2.156347	0.532185	0.703746
H105	H	0.887930	0.206237	0.136944
H106	H	1.387930	0.706237	0.636944
H107	H	1.692593	-0.445078	0.056665
H108	H	2.192593	0.054922	0.556665
H109	H	1.656353	0.032186	0.360752
H110	H	2.156353	0.532186	0.860752
H111	H	1.333554	-0.181584	0.083588
H112	H	1.833554	0.318416	0.583588
H113	H	1.698466	-0.228111	-0.056334
H114	H	2.198466	0.271889	0.443666
H115	H	0.890587	0.201830	-0.136889
H116	H	1.390587	0.701830	0.363111
H117	H	1.656415	0.032215	0.796334
H118	H	2.156415	0.532215	1.296334
H119	H	1.345953	0.342412	0.639339
H120	H	1.845953	0.842412	1.139339
H121	H	1.107993	0.216125	-0.137310
H122	H	1.607993	0.716125	0.362690
H123	H	1.087692	0.363875	-0.078656
H124	H	1.587692	0.863875	0.421344
H125	H	1.345979	0.342427	0.796346
H126	H	1.845979	0.842427	1.296346
H127	H	1.105769	0.210002	0.137261
H128	H	1.605769	0.710002	0.637261
H129	H	1.479167	-0.417381	-0.137228
H130	H	1.979167	0.082619	0.362772
H131	H	1.345921	0.342386	0.360773
H132	H	1.845921	0.842386	0.860773
H133	H	1.345898	0.342385	0.203758
H134	H	1.845898	0.842385	0.703758
H135	H	1.482989	-0.199548	-0.136906
H136	H	1.982989	0.300452	0.363094
H137	H	0.915620	-0.009939	-0.055801
H138	H	1.415620	0.490061	0.444199
H139	H	1.134994	-0.003574	0.056146
H140	H	1.634994	0.496426	0.556146
H141	H	1.133527	-0.004470	-0.056146
H142	H	1.633527	0.495530	0.443854
H143	H	1.471806	-0.419181	0.137331
H144	H	1.971806	0.080819	0.637331
H145	H	1.088623	0.361431	0.081811
H146	H	1.588623	0.861431	0.581811
H147	H	0.871471	0.356822	0.081098
H148	H	1.371471	0.856822	0.581098
H149	H	1.698123	-0.227183	0.056325
H150	H	2.198123	0.272817	0.556325
H151	H	1.332104	-0.183019	-0.081400
H152	H	1.832104	0.316981	0.418600
