data_functionalizedCrystal
_audit_creation_method	'MofGen! by Chris Wilmer'
_symmetry_space_group_name_H-M	'P1'
_symmetry_Int_Tables_number	1
_symmetry_cell_setting	triclinic
loop_
_symmetry_equiv_pos_as_xyz
  x,y,z
_cell_length_a	15.944545
_cell_length_b	15.021413
_cell_length_c	19.288865
_cell_angle_alpha	90.001222
_cell_angle_beta	83.316210
_cell_angle_gamma	90.004532
loop_
_atom_site_label
_atom_site_type_symbol
_atom_site_fract_x
_atom_site_fract_y
_atom_site_fract_z
O1	O	1.114187	0.073985	0.089552
O2	O	0.869594	0.074001	0.100601
O3	O	0.998958	0.073975	-0.006035
O4	O	0.984823	0.074011	0.196188
O5	O	0.998938	-0.074090	-0.006020
O6	O	0.869574	-0.074064	0.100616
O7	O	1.114167	-0.074079	0.089567
Zn8	Zn	0.991867	-0.097580	0.095094
Zn9	Zn	0.991894	0.097501	0.095074
O10	O	0.984803	-0.074053	0.196204
C11	C	0.838292	-0.000030	0.100151
C12	C	0.745051	-0.000024	0.098778
C13	C	0.474688	-0.000046	0.028578
C14	C	0.525129	-0.073046	0.062430
C15	C	0.409426	-0.000041	0.093882
C16	C	0.525130	0.072934	0.062433
C17	C	0.574330	-0.000031	0.096284
C18	C	0.458639	-0.073100	0.127717
C19	C	0.458636	0.072945	0.127710
C20	C	0.509044	-0.000072	0.161611
C21	C	0.314429	-0.000047	0.092497
C22	C	0.669324	-0.000031	0.097675
N23	N	0.991855	-0.230717	0.095108
C24	C	0.932028	-0.470389	0.144393
C25	C	1.007876	-0.529725	0.157876
C26	C	0.991876	-0.412324	0.095090
C27	C	0.916048	-0.529730	0.081622
C28	C	0.991890	-0.587748	0.095075
C29	C	1.067763	-0.470354	0.108605
C30	C	0.975885	-0.470354	0.032324
C31	C	1.051788	-0.529663	0.045780
C32	C	0.991867	-0.311267	0.095101
C33	C	0.991908	-0.688804	0.095064
C34	C	1.145469	-0.000047	0.090018
C35	C	1.238710	-0.000046	0.091390
C36	C	0.998493	-0.000060	-0.031905
C37	C	0.997128	-0.000068	-0.109012
N38	N	0.991913	0.230639	0.095055
C39	C	1.073033	-0.000077	-0.153510
C40	C	1.071750	-0.000063	-0.225961
C41	C	0.994558	-0.000057	-0.253910
C42	C	0.918643	-0.000043	-0.209402
C43	C	0.919928	-0.000048	-0.136954
C44	C	0.933869	-0.051917	-0.362351
C45	C	0.932587	-0.051917	-0.434799
C46	C	0.990592	-0.000037	-0.477366
C47	C	1.049893	0.051832	-0.447478
C48	C	1.051178	0.051827	-0.375029
C49	C	0.993156	-0.000051	-0.332468
C50	C	1.065112	-0.000030	-0.600423
C51	C	1.063826	-0.000010	-0.672875
C52	C	0.910717	0.000001	-0.656315
C53	C	0.912005	-0.000010	-0.583865
C54	C	0.989204	-0.000029	-0.555924
C55	C	0.985268	-0.000017	0.222074
C56	C	0.986633	-0.000003	0.299181
H57	H	0.429714	-0.134882	0.155283
H58	H	0.524319	-0.000105	0.217895
H59	H	1.099461	0.094062	-0.350698
F60	F	1.118020	-0.563473	-0.008728
F61	F	0.872129	-0.107140	-0.317054
H62	H	0.855793	-0.000037	-0.232163
F63	F	1.111630	0.107052	-0.492776
F64	F	0.839136	-0.000038	-0.089594
H65	H	0.847865	0.000010	-0.679070
F66	F	0.454509	-0.000150	-0.044932
F67	F	1.147273	-0.000055	-0.570684
H68	H	0.429592	0.134672	0.155259
F69	F	0.563079	0.153595	0.026362
H70	H	0.850194	-0.000007	-0.547634
F71	F	0.865941	-0.436367	0.198932
F72	F	1.152542	-0.000071	-0.273327
F73	F	1.025573	-0.563813	0.227246
H74	H	0.884298	-0.094147	-0.459127
F75	F	1.151608	-0.436411	0.123566
F76	F	0.958159	-0.436238	-0.037026
F77	F	0.832223	-0.563822	0.066741
F78	F	1.155196	-0.000079	-0.123777
H79	H	1.125639	-0.000013	-0.709105
H80	H	0.554158	-0.134771	0.034857
