data_functionalizedCrystal
_audit_creation_method	'MofGen! by Chris Wilmer'
_symmetry_space_group_name_H-M	'P1'
_symmetry_Int_Tables_number	1
_symmetry_cell_setting	triclinic
loop_
_symmetry_equiv_pos_as_xyz
  x,y,z
_cell_length_a	16.109296
_cell_length_b	16.109301
_cell_length_c	15.186229
_cell_angle_alpha	90.002208
_cell_angle_beta	89.993523
_cell_angle_gamma	83.460385
loop_
_atom_site_label
_atom_site_type_symbol
_atom_site_fract_x
_atom_site_fract_y
_atom_site_fract_z
O1	O	-0.106869	-1.103125	0.073174
O2	O	0.143131	-0.853125	0.323174
O3	O	0.393131	-0.603125	0.573174
O4	O	0.643131	-0.353125	0.823174
O5	O	-0.120169	-0.861063	0.073188
O6	O	0.129831	-0.611063	0.323188
O7	O	0.379831	-0.361063	0.573188
O8	O	0.629831	-0.111063	0.823188
O9	O	0.007512	-0.988746	0.073174
O10	O	0.257512	-0.738746	0.323174
O11	O	0.507512	-0.488746	0.573174
O12	O	0.757512	-0.238746	0.823174
O13	O	-0.234550	-0.975442	0.073189
O14	O	0.015450	-0.725442	0.323189
O15	O	0.265450	-0.475442	0.573189
O16	O	0.515450	-0.225442	0.823189
O17	O	0.007520	-0.988745	-0.073284
O18	O	0.257520	-0.738745	0.176716
O19	O	0.507520	-0.488745	0.426716
O20	O	0.757520	-0.238745	0.676716
O21	O	-0.120161	-0.861062	-0.073269
O22	O	0.129839	-0.611062	0.176731
O23	O	0.379839	-0.361062	0.426731
O24	O	0.629839	-0.111062	0.676731
O25	O	-0.106862	-1.103124	-0.073283
O26	O	0.143138	-0.853124	0.176717
O27	O	0.393138	-0.603124	0.426717
O28	O	0.643138	-0.353124	0.676717
Zn29	Zn	-0.113510	-0.982093	-0.096529
Zn30	Zn	0.136490	-0.732093	0.153471
Zn31	Zn	0.386490	-0.482093	0.403471
Zn32	Zn	0.636490	-0.232093	0.653471
Zn33	Zn	-0.113520	-0.982094	0.096435
Zn34	Zn	0.136480	-0.732094	0.346435
Zn35	Zn	0.386480	-0.482094	0.596435
Zn36	Zn	0.636480	-0.232094	0.846435
O37	O	-0.234543	-0.975441	-0.073268
O38	O	0.015457	-0.725441	0.176732
O39	O	0.265457	-0.475441	0.426732
O40	O	0.515457	-0.225441	0.676732
C41	C	0.038491	-0.988207	-0.000055
C42	C	0.288491	-0.738207	0.249945
C43	C	0.538491	-0.488207	0.499945
C44	C	0.788491	-0.238207	0.749945
C45	C	0.130787	-0.986594	-0.000055
C46	C	0.380787	-0.736594	0.249945
C47	C	0.630787	-0.486594	0.499945
C48	C	0.880787	-0.236594	0.749945
C49	C	-0.119626	-0.830087	-0.000039
C50	C	0.130374	-0.580087	0.249961
C51	C	0.380374	-0.330087	0.499961
C52	C	0.630374	-0.080087	0.749961
C53	C	-0.118011	-0.737792	-0.000033
C54	C	0.131989	-0.487792	0.249967
C55	C	0.381989	-0.237792	0.499967
C56	C	0.631989	0.012208	0.749967
C57	C	0.439786	-1.057083	-0.000047
C58	C	0.689786	-0.807083	0.249953
C59	C	0.939786	-0.557083	0.499953
C60	C	1.189786	-0.307083	0.749953
C61	C	0.353065	-1.058607	-0.000051
C62	C	0.603065	-0.808607	0.249949
C63	C	0.853065	-0.558607	0.499949
C64	C	1.103065	-0.308607	0.749949
C65	C	0.333192	-0.907118	-0.000054
C66	C	0.583192	-0.657118	0.249946
C67	C	0.833192	-0.407118	0.499946
C68	C	1.083192	-0.157118	0.749946
C69	C	0.419911	-0.905595	-0.000056
C70	C	0.669911	-0.655595	0.249944
C71	C	0.919911	-0.405595	0.499944
C72	C	1.169911	-0.155595	0.749944
C73	C	0.473206	-0.980580	-0.000048
C74	C	0.723206	-0.730580	0.249952
C75	C	0.973206	-0.480580	0.499952
C76	C	1.223206	-0.230580	0.749952
C77	C	0.299767	-0.983626	-0.000050
C78	C	0.549767	-0.733626	0.249950
C79	C	0.799767	-0.483626	0.499950
C80	C	1.049767	-0.233626	0.749950
C81	C	0.205740	-0.985278	-0.000055
C82	C	0.455740	-0.735278	0.249945
C83	C	0.705740	-0.485278	0.499945
C84	C	0.955740	-0.235278	0.749945
C85	C	0.567238	-0.978929	-0.000046
C86	C	0.817238	-0.728929	0.249954
C87	C	1.067238	-0.478929	0.499954
C88	C	1.317238	-0.228929	0.749954
C89	C	0.734479	-0.975984	-0.000041
C90	C	0.984479	-0.725984	0.249959
C91	C	1.234479	-0.475984	0.499959
C92	C	1.484479	-0.225984	0.749959
C93	C	0.642186	-0.977613	-0.000044
C94	C	0.892186	-0.727613	0.249956
C95	C	1.142186	-0.477613	0.499956
C96	C	1.392186	-0.227613	0.749956
N97	N	-0.113521	-0.982095	0.228127
N98	N	0.136479	-0.732095	0.478127
N99	N	0.386479	-0.482095	0.728127
N100	N	0.636479	-0.232095	0.978127
C101	C	-0.107404	-1.134099	-0.000054
C102	C	0.142596	-0.884099	0.249946
C103	C	0.392596	-0.634099	0.499946
C104	C	0.642596	-0.384099	0.749946
C105	C	-0.109019	-1.226394	-0.000054
C106	C	0.140981	-0.976394	0.249946
C107	C	0.390981	-0.726394	0.499946
C108	C	0.640981	-0.476394	0.749946
C109	C	-0.190019	-0.515518	-0.000039
C110	C	0.059981	-0.265518	0.249961
C111	C	0.309981	-0.015518	0.499961
C112	C	0.559981	0.234482	0.749961
C113	C	-0.188495	-0.428798	-0.000045
C114	C	0.061505	-0.178798	0.249955
C115	C	0.311505	0.071202	0.499955
C116	C	0.561505	0.321202	0.749955
C117	C	-0.037006	-0.448675	-0.000051
C118	C	0.212994	-0.198675	0.249949
C119	C	0.462994	0.051325	0.499949
C120	C	0.712994	0.301325	0.749949
C121	C	-0.038531	-0.535394	-0.000051
C122	C	0.211469	-0.285394	0.249949
C123	C	0.461469	-0.035394	0.499949
C124	C	0.711469	0.214606	0.749949
C125	C	-0.115040	-0.568813	-0.000041
C126	C	0.134960	-0.318813	0.249959
C127	C	0.384960	-0.068813	0.499959
C128	C	0.634960	0.181187	0.749959
C129	C	-0.111991	-0.395374	-0.000046
C130	C	0.138009	-0.145374	0.249954
C131	C	0.388009	0.104626	0.499954
C132	C	0.638009	0.354626	0.749954
C133	C	-0.110338	-0.301348	-0.000052
C134	C	0.139662	-0.051348	0.249948
C135	C	0.389662	0.198652	0.499948
C136	C	0.639662	0.448652	0.749948
C137	C	-0.116693	-0.662845	-0.000036
C138	C	0.133307	-0.412845	0.249964
C139	C	0.383307	-0.162845	0.499964
C140	C	0.633307	0.087155	0.749964
N141	N	-0.113503	-0.982098	-0.228222
N142	N	0.136497	-0.732098	0.021778
N143	N	0.386497	-0.482098	0.271778
N144	N	0.636497	-0.232098	0.521778
C145	C	-0.057093	-1.038742	0.453844
C146	C	0.192907	-0.788742	0.703844
C147	C	0.442907	-0.538742	0.953844
C148	C	0.692907	-0.288742	1.203844
C149	C	-0.057091	-1.038745	0.546033
C150	C	0.192909	-0.788745	0.796033
C151	C	0.442909	-0.538745	1.046033
C152	C	0.692909	-0.288745	1.296033
C153	C	-0.169937	-0.925448	0.546055
C154	C	0.080063	-0.675448	0.796055
C155	C	0.330063	-0.425448	1.046055
C156	C	0.580063	-0.175448	1.296055
C157	C	-0.169942	-0.925450	0.453867
C158	C	0.080058	-0.675450	0.703867
C159	C	0.330058	-0.425450	0.953867
C160	C	0.580058	-0.175450	1.203867
C161	C	-0.113516	-0.982096	0.407764
C162	C	0.136484	-0.732096	0.657764
C163	C	0.386484	-0.482096	0.907764
C164	C	0.636484	-0.232096	1.157764
C165	C	-0.113508	-0.982097	0.592141
C166	C	0.136492	-0.732097	0.842141
C167	C	0.386492	-0.482097	1.092141
C168	C	0.636492	-0.232097	1.342141
C169	C	-0.113506	-0.982099	0.692098
C170	C	0.136494	-0.732099	0.942098
C171	C	0.386494	-0.482099	1.192098
C172	C	0.636494	-0.232099	1.442098
C173	C	-0.113518	-0.982096	0.307801
C174	C	0.136482	-0.732096	0.557801
C175	C	0.386482	-0.482096	0.807801
C176	C	0.636482	-0.232096	1.057801
H177	H	0.483177	-1.118141	-0.000041
H178	H	0.733177	-0.868141	0.249959
H179	H	0.983177	-0.618141	0.499959
H180	H	1.233177	-0.368141	0.749959
Cl181	Cl	0.059172	-0.406656	-0.000058
Cl182	Cl	0.309172	-0.156656	0.249942
Cl183	Cl	0.559172	0.093344	0.499942
Cl184	Cl	0.809172	0.343344	0.749942
Cl185	Cl	0.311056	-1.154786	-0.000047
Cl186	Cl	0.561056	-0.904786	0.249953
Cl187	Cl	0.811056	-0.654786	0.499953
Cl188	Cl	1.061056	-0.404786	0.749953
H189	H	-0.011148	-1.084872	0.583549
H190	H	0.238852	-0.834872	0.833549
H191	H	0.488852	-0.584872	1.083549
H192	H	0.738852	-0.334872	1.333549
Cl193	Cl	0.266187	-0.812856	-0.000057
Cl194	Cl	0.516187	-0.562856	0.249943
Cl195	Cl	0.766187	-0.312856	0.499943
Cl196	Cl	1.016187	-0.062856	0.749943
Cl197	Cl	0.461928	-0.809412	-0.000063
Cl198	Cl	0.711928	-0.559412	0.249937
Cl199	Cl	0.961928	-0.309412	0.499937
Cl200	Cl	1.211928	-0.059412	0.749937
Cl201	Cl	-0.282759	-0.361802	-0.000043
Cl202	Cl	-0.032759	-0.111802	0.249957
Cl203	Cl	0.217241	0.138198	0.499957
Cl204	Cl	0.467241	0.388198	0.749957
Cl205	Cl	-0.286201	-0.557528	-0.000032
Cl206	Cl	-0.036201	-0.307528	0.249968
Cl207	Cl	0.213799	-0.057528	0.499968
Cl208	Cl	0.463799	0.192472	0.749968
Cl209	Cl	0.055737	-0.602398	-0.000061
Cl210	Cl	0.305737	-0.352398	0.249939
Cl211	Cl	0.555737	-0.102398	0.499939
Cl212	Cl	0.805737	0.147602	0.749939
Cl213	Cl	0.013840	-1.109958	0.395889
Cl214	Cl	0.263840	-0.859958	0.645889
Cl215	Cl	0.513840	-0.609958	0.895889
Cl216	Cl	0.763840	-0.359958	1.145889
H217	H	-0.215877	-0.879327	0.583602
H218	H	0.034123	-0.629327	0.833602
H219	H	0.284123	-0.379327	1.083602
H220	H	0.534123	-0.129327	1.333602
H221	H	-0.215892	-0.879322	0.416347
H222	H	0.034108	-0.629322	0.666347
H223	H	0.284108	-0.379322	0.916347
H224	H	0.534108	-0.129322	1.166347
