data_functionalizedCrystal
_audit_creation_method	'MofGen! by Chris Wilmer'
_symmetry_space_group_name_H-M	'P1'
_symmetry_Int_Tables_number	1
_symmetry_cell_setting	triclinic
loop_
_symmetry_equiv_pos_as_xyz
  x,y,z
_cell_length_a	17.640112
_cell_length_b	16.120484
_cell_length_c	17.640968
_cell_angle_alpha	82.192558
_cell_angle_beta	92.139080
_cell_angle_gamma	103.499326
loop_
_atom_site_label
_atom_site_type_symbol
_atom_site_fract_x
_atom_site_fract_y
_atom_site_fract_z
Zn1	Zn	1.246898	-0.023860	-0.196404
Zn2	Zn	1.746898	0.476140	0.303596
Zn3	Zn	1.214806	-0.195187	-0.078925
Zn4	Zn	1.714806	0.304813	0.421075
Zn5	Zn	1.092236	-0.077878	-0.098046
Zn6	Zn	1.592236	0.422122	0.401954
Zn7	Zn	1.113950	-0.184256	-0.230901
Zn8	Zn	1.613950	0.315744	0.269099
O9	O	1.166972	-0.120295	-0.151069
O10	O	1.666972	0.379705	0.348931
O11	O	1.349575	-0.028555	-0.158380
O12	O	1.849575	0.471445	0.341620
O13	O	1.176029	-0.206807	0.023304
O14	O	1.676029	0.293193	0.523304
O15	O	1.117096	0.045508	-0.104658
O16	O	1.617096	0.545508	0.395342
O17	O	1.325997	-0.154428	-0.072070
O18	O	1.825997	0.345572	0.427930
O19	O	1.230725	0.085195	-0.176921
O20	O	1.730725	0.585195	0.323079
O21	O	1.085978	-0.120621	0.009256
O22	O	1.585978	0.379379	0.509256
O23	O	0.988182	-0.110021	-0.138109
O24	O	1.488182	0.389979	0.361891
O25	O	1.154104	-0.135798	-0.331090
O26	O	1.654104	0.364202	0.168910
O27	O	1.004135	-0.188177	-0.235717
O28	O	1.504135	0.311823	0.264283
O29	O	1.251780	-0.017955	-0.305745
O30	O	1.751780	0.482045	0.194255
O31	O	1.197083	-0.309958	-0.105520
O32	O	1.697083	0.190042	0.394480
O33	O	1.122985	-0.301927	-0.217176
O34	O	1.622985	0.198073	0.282824
C35	C	0.968432	-0.153775	-0.192732
C36	C	1.468432	0.346225	0.307268
C37	C	0.883498	-0.168113	-0.210574
C38	C	1.383498	0.331887	0.289426
C39	C	0.562620	-0.011353	-0.015528
C40	C	1.062620	0.488647	0.484472
C41	C	0.482814	-0.024840	-0.032305
C42	C	0.982814	0.475160	0.467695
C43	C	0.499439	-0.106413	-0.133786
C44	C	0.999439	0.393587	0.366214
C45	C	0.579249	-0.092929	-0.117021
C46	C	1.079249	0.407071	0.382979
C47	C	0.610833	-0.045399	-0.057890
C48	C	1.110833	0.454601	0.442110
C49	C	0.627462	-0.126975	-0.159383
C50	C	1.127462	0.373025	0.340617
C51	C	0.707264	-0.113496	-0.142616
C52	C	1.207264	0.386504	0.357384
C53	C	0.738854	-0.065971	-0.083486
C54	C	1.238854	0.434029	0.416514
C55	C	0.690635	-0.031920	-0.041123
C56	C	1.190635	0.468080	0.458877
C57	C	0.595875	-0.174510	-0.218510
C58	C	1.095875	0.325490	0.281490
C59	C	0.644088	-0.208556	-0.260872
C60	C	1.144088	0.291444	0.239128
C61	C	0.723893	-0.195072	-0.244108
C62	C	1.223893	0.304928	0.255892
C63	C	0.755483	-0.147546	-0.184979
C64	C	1.255483	0.352454	0.315021
C65	C	0.772112	-0.229122	-0.286472
C66	C	1.272112	0.270878	0.213528
C67	C	0.851914	-0.215643	-0.269705
C68	C	1.351914	0.284357	0.230295
C69	C	0.835285	-0.134067	-0.168212
C70	C	1.335285	0.365933	0.331788
C71	C	1.158932	-0.336069	-0.163028
C72	C	1.658932	0.163931	0.336972
C73	C	1.155568	-0.428360	-0.168155
C74	C	1.655568	0.071640	0.331845
C75	C	1.149433	-0.597332	-0.177530
C76	C	1.649433	-0.097332	0.322470
C77	C	1.184651	-0.642392	-0.124592
C78	C	1.684651	-0.142392	0.375408
C79	C	1.181238	-0.736414	-0.129808
C80	C	1.681238	-0.236414	0.370192
C81	C	1.152846	-0.503302	-0.172315
C82	C	1.652846	-0.003302	0.327685
C83	C	1.366289	-0.086685	-0.109244
C84	C	1.866289	0.413315	0.390756
C85	C	1.451225	-0.072363	-0.091421
C86	C	1.951225	0.427637	0.408579
C87	C	1.208944	-0.069632	-0.346341
C88	C	1.708944	0.430368	0.153659
C89	C	1.226829	-0.048042	-0.429555
C90	C	1.726829	0.451958	0.070445
C91	C	1.175068	0.096329	-0.139075
C92	C	1.675068	0.596329	0.360925
C93	C	1.178518	0.188641	-0.133963
C94	C	1.678518	0.688641	0.366037
C95	C	1.031408	-0.283809	-0.769207
C96	C	1.531408	0.216191	-0.269207
C97	C	1.048230	-0.263509	-0.847394
C98	C	1.548230	0.236491	-0.347394
C99	C	1.149932	-0.140810	-0.820995
C100	C	1.649932	0.359190	-0.320995
C101	C	1.133115	-0.161098	-0.742803
C102	C	1.633115	0.338902	-0.242803
C103	C	1.073853	-0.232599	-0.716916
C104	C	1.573853	0.267401	-0.216916
C105	C	1.175560	-0.109887	-0.690513
C106	C	1.675560	0.390113	-0.190513
C107	C	1.158747	-0.130176	-0.612328
C108	C	1.658747	0.369824	-0.112328
C109	C	1.099489	-0.201675	-0.586434
C110	C	1.599489	0.298325	-0.086434
C111	C	1.057040	-0.252888	-0.638731
C112	C	1.557040	0.247112	-0.138731
C113	C	1.234826	-0.038390	-0.716401
C114	C	1.734826	0.461610	-0.216401
C115	C	1.277271	0.012820	-0.664110
C116	C	1.777271	0.512820	-0.164110
C117	C	1.260455	-0.007464	-0.585924
C118	C	1.760455	0.492536	-0.085924
C119	C	1.201197	-0.078964	-0.560030
C120	C	1.701197	0.421036	-0.060030
C121	C	1.302904	0.043748	-0.533627
C122	C	1.802904	0.543748	-0.033627
C123	C	1.286092	0.023459	-0.455442
C124	C	1.786092	0.523459	0.044558
C125	C	1.184384	-0.099252	-0.481846
C126	C	1.684384	0.400748	0.018154
C127	C	1.125211	-0.170694	0.043456
C128	C	1.625211	0.329306	0.543456
C129	C	1.107482	-0.192025	0.126714
C130	C	1.607482	0.307975	0.626714
H131	H	0.861005	-0.095349	-0.120072
H132	H	1.361005	0.404651	0.379928
H133	H	0.746382	-0.267828	-0.334611
H134	H	1.246382	0.232172	0.165389
H135	H	1.008765	-0.311094	-0.617656
H136	H	1.508765	0.188906	-0.117656
C137	C	0.464692	-0.158688	-0.198828
C138	C	0.964692	0.341312	0.301172
H139	H	0.410261	-0.161835	-0.202752
H140	H	0.910261	0.338165	0.297248
H141	H	0.473329	-0.215122	-0.188139
H142	H	0.973329	0.284878	0.311861
H143	H	0.489047	-0.131340	-0.245730
H144	H	0.989047	0.368660	0.254270
H145	H	1.136109	-0.157459	-0.460770
H146	H	1.636109	0.342541	0.039230
H147	H	1.325525	0.071035	-0.685199
H148	H	1.825525	0.571035	-0.185199
C149	C	0.609342	-0.260830	-0.325914
C150	C	1.109342	0.239170	0.174086
H151	H	0.554910	-0.263978	-0.329837
H152	H	1.054910	0.236022	0.170163
H153	H	0.617978	-0.317265	-0.315225
H154	H	1.117978	0.182735	0.184775
H155	H	0.633696	-0.233483	-0.372815
H156	H	1.133696	0.266517	0.127185
C157	C	1.368090	0.122391	-0.562110
C158	C	1.868090	0.622391	-0.062110
H159	H	1.372022	0.127141	-0.616164
H160	H	1.872022	0.627141	-0.116164
H161	H	1.416222	0.115572	-0.539188
H162	H	1.916222	0.615572	-0.039188
H163	H	1.356230	0.172986	-0.548559
H164	H	1.856230	0.672986	-0.048559
H165	H	0.891171	-0.243366	-0.304201
H166	H	1.391171	0.256634	0.195799
C167	C	1.105238	-0.640601	-0.244042
C168	C	1.605238	-0.140601	0.255958
H169	H	1.083591	-0.599966	-0.276576
H170	H	1.583591	-0.099966	0.223424
H171	H	1.064603	-0.687534	-0.224197
H172	H	1.564603	-0.187534	0.275803
H173	H	1.140261	-0.660992	-0.272396
H174	H	1.640261	-0.160992	0.227604
H175	H	0.530894	-0.185483	-0.232159
H176	H	1.030894	0.314517	0.267841
H177	H	0.803834	-0.054999	-0.069834
H178	H	1.303834	0.445001	0.430166
C179	C	1.228819	-0.599129	-0.058057
C180	C	1.728819	-0.099129	0.441943
H181	H	1.225332	-0.540701	-0.063224
H182	H	1.725332	-0.040701	0.436776
H183	H	1.282018	-0.601716	-0.059024
H184	H	1.782018	-0.101716	0.440976
H185	H	1.206332	-0.628277	-0.010867
H186	H	1.706332	-0.128277	0.489133
H187	H	0.983133	-0.342016	-0.748131
H188	H	1.483133	0.157984	-0.248131
H189	H	1.085804	-0.218196	-0.522770
H190	H	1.585804	0.281804	-0.022770
C191	C	1.001535	-0.319844	-0.904913
C192	C	1.501535	0.180156	-0.404913
H193	H	0.963831	-0.365328	-0.878295
H194	H	1.463831	0.134672	-0.378295
H195	H	1.035973	-0.343186	-0.931281
H196	H	1.535973	0.156814	-0.431281
H197	H	0.975981	-0.285771	-0.940643
H198	H	1.475981	0.214229	-0.440643
C199	C	0.725385	0.020375	0.023911
C200	C	1.225385	0.520375	0.523911
H201	H	0.685243	0.038725	0.046741
H202	H	1.185243	0.538725	0.546741
H203	H	0.764030	0.069208	0.003754
H204	H	1.264030	0.569208	0.503754
H205	H	0.748312	-0.014556	0.061366
H206	H	1.248312	0.485444	0.561366
H207	H	1.198185	-0.082596	-0.842083
H208	H	1.698185	0.417404	-0.342083
C209	C	1.253323	-0.016068	-0.802402
C210	C	1.753323	0.483932	-0.302402
H211	H	1.294703	0.033842	-0.810329
H212	H	1.794703	0.533842	-0.310329
H213	H	1.208354	-0.005427	-0.829647
H214	H	1.708354	0.494573	-0.329647
H215	H	1.268340	-0.062849	-0.820282
H216	H	1.768340	0.437151	-0.320282
C217	C	1.332772	0.079795	-0.397921
C218	C	1.832772	0.579795	0.102079
H219	H	1.370467	0.125290	-0.424537
H220	H	1.870467	0.625290	0.075463
H221	H	1.358322	0.045730	-0.362187
H222	H	1.858322	0.545730	0.137813
H223	H	1.298323	0.103136	-0.371560
H224	H	1.798323	0.603136	0.128440
H225	H	0.588340	0.027365	0.032612
H226	H	1.088340	0.527365	0.532612
H227	H	0.443562	0.002895	0.002191
H228	H	0.943562	0.502895	0.502191
