data_functionalizedCrystal
_audit_creation_method	'MofGen! by Chris Wilmer'
_symmetry_space_group_name_H-M	'P1'
_symmetry_Int_Tables_number	1
_symmetry_cell_setting	triclinic
loop_
_symmetry_equiv_pos_as_xyz
  x,y,z
_cell_length_a	12.759401
_cell_length_b	18.050589
_cell_length_c	12.759393
_cell_angle_alpha	89.969379
_cell_angle_beta	89.981433
_cell_angle_gamma	90.027265
loop_
_atom_site_label
_atom_site_type_symbol
_atom_site_fract_x
_atom_site_fract_y
_atom_site_fract_z
Zn1	Zn	1.606157	-0.295635	-0.593990
Zn2	Zn	1.606010	-0.419845	-0.418313
Zn3	Zn	1.430459	-0.295671	-0.418329
Zn4	Zn	1.430406	-0.419785	-0.593954
O5	O	1.518258	-0.357734	-0.506147
O6	O	1.753158	-0.312121	-0.570694
O7	O	1.582683	-0.403413	-0.271294
O8	O	1.453849	-0.191742	-0.441653
O9	O	1.753050	-0.403378	-0.441625
O10	O	1.582934	-0.191715	-0.570710
O11	O	1.453706	-0.312183	-0.271306
O12	O	1.283431	-0.312125	-0.441618
O13	O	1.453759	-0.403276	-0.740980
O14	O	1.283392	-0.403312	-0.570649
O15	O	1.582882	-0.312063	-0.741007
O16	O	1.582632	-0.523762	-0.441591
O17	O	1.453616	-0.523718	-0.570634
C18	C	1.245290	-0.357716	-0.506132
C19	C	1.128514	-0.357727	-0.506151
C20	C	1.073701	-0.310299	-0.573461
C21	C	0.963977	-0.310313	-0.573468
C22	C	0.963888	-0.405189	-0.438851
C23	C	1.073610	-0.405171	-0.438840
C24	C	1.073751	-0.255525	-0.651185
C25	C	0.964027	-0.255540	-0.651191
C26	C	1.518131	-0.550686	-0.506129
C27	C	1.518173	-0.633232	-0.506157
C28	C	1.448083	-0.832686	-0.576306
C29	C	1.422469	-0.882134	-0.480438
C30	C	1.518276	-0.784362	-0.506171
C31	C	1.543942	-0.881996	-0.602050
C32	C	1.518374	-0.930347	-0.506192
C33	C	1.492611	-0.832723	-0.410252
C34	C	1.614129	-0.832580	-0.531929
C35	C	1.588551	-0.882007	-0.435994
C36	C	1.518217	-0.700264	-0.506160
C37	C	1.518433	-1.014444	-0.506193
C38	C	1.792291	-0.357752	-0.506162
C39	C	1.909068	-0.357760	-0.506169
C40	C	1.518331	-0.357659	-0.780180
C41	C	1.518363	-0.357627	-0.896957
C42	C	1.518414	-0.164028	-0.506187
C43	C	1.518480	-0.081482	-0.506205
C44	C	1.585606	-0.310128	-0.951834
C45	C	1.585631	-0.310101	-1.061559
C46	C	1.451166	-0.405079	-1.061518
C47	C	1.451136	-0.405101	-0.951796
C48	C	1.663242	-0.255296	-0.951859
C49	C	1.663267	-0.255269	-1.061583
C50	C	1.518245	-0.357755	-0.233179
C51	C	1.518417	-0.357578	-0.116403
H52	H	1.118234	-0.443784	-0.384019
H53	H	1.695124	-0.810800	-0.553741
Cl54	Cl	1.577397	-0.915415	-0.727222
H55	H	1.396376	-0.443777	-0.907119
Cl56	Cl	1.680265	-0.915233	-0.344336
H57	H	1.641493	-0.197781	-0.922101
H58	H	1.634172	-0.200621	-1.095629
Cl59	Cl	0.894859	-0.464830	-0.354235
H60	H	1.396430	-0.443729	-1.106181
Cl61	Cl	1.356307	-0.799246	-0.667749
Cl62	Cl	1.782532	-0.287126	-0.899302
H63	H	1.107810	-0.276189	-0.728423
H64	H	1.341455	-0.903917	-0.458671
H65	H	1.103537	-0.197984	-0.629530
Cl66	Cl	0.911489	-0.171153	-0.606413
Cl67	Cl	1.788888	-0.279043	-1.107567
H68	H	0.934277	-0.271017	-0.732528
Cl69	Cl	1.459013	-0.799450	-0.285041
