data_functionalizedCrystal
_audit_creation_method	'MofGen! by Chris Wilmer'
_symmetry_space_group_name_H-M	'P1'
_symmetry_Int_Tables_number	1
_symmetry_cell_setting	triclinic
loop_
_symmetry_equiv_pos_as_xyz
  x,y,z
_cell_length_a	14.853567
_cell_length_b	14.185499
_cell_length_c	14.853567
_cell_angle_alpha	76.830419
_cell_angle_beta	83.634930
_cell_angle_gamma	103.175667
loop_
_atom_site_label
_atom_site_type_symbol
_atom_site_fract_x
_atom_site_fract_y
_atom_site_fract_z
O1	O	1.175960	-0.083340	0.138099
O2	O	0.913496	-0.083356	0.152124
O3	O	1.051738	-0.083351	0.013882
O4	O	1.037718	-0.083346	0.276341
O5	O	1.092574	0.083485	-0.026949
O6	O	0.954332	0.083480	0.111292
O7	O	1.216796	0.083496	0.097267
Cu8	Cu	1.089293	0.098721	0.100552
Cu9	Cu	1.040999	-0.098582	0.148840
O10	O	1.078554	0.083491	0.235509
C11	C	0.900325	0.000060	0.131074
C12	C	0.800240	0.000053	0.129171
C13	C	0.387711	0.000074	0.039001
C14	C	0.366431	0.000076	0.203233
C15	C	0.460464	0.000073	0.205024
C16	C	0.518124	0.000069	0.123802
C17	C	0.481752	0.000067	0.040790
C18	C	0.496840	0.000064	0.288037
C19	C	0.590878	0.000059	0.289832
C20	C	0.648543	0.000062	0.208607
C21	C	0.612166	0.000062	0.125591
C22	C	0.669826	0.000058	0.044370
C23	C	0.633453	0.000065	-0.038649
C24	C	0.539417	0.000070	-0.040435
C25	C	0.742579	0.000057	0.210393
C26	C	0.763868	0.000052	0.046159
N27	N	1.123266	0.237494	0.066588
C28	C	0.907206	0.605135	0.282556
C29	C	0.932946	0.710158	0.256835
C30	C	1.055384	0.710124	0.134468
C31	C	1.029651	0.605099	0.160175
C32	C	0.955562	0.552613	0.234221
C33	C	1.078007	0.552577	0.111840
C34	C	1.052278	0.447561	0.137550
C35	C	0.978194	0.395068	0.211594
C36	C	0.929833	0.447597	0.259930
C37	C	1.152100	0.605064	0.037799
C38	C	1.200456	0.552542	-0.010536
C39	C	1.174723	0.447525	0.015169
C40	C	1.100639	0.395032	0.089213
C41	C	1.223084	0.394995	-0.033167
C42	C	1.197356	0.289980	-0.007458
C43	C	1.074910	0.290016	0.114923
C44	C	1.229967	0.000078	0.118318
C45	C	1.330050	0.000078	0.120222
C46	C	1.071520	0.000064	-0.040121
C47	C	1.069614	0.000055	-0.140203
N48	N	1.007023	0.762646	0.182807
C49	C	0.979452	0.000069	-0.552740
C50	C	1.143687	0.000079	-0.574024
C51	C	1.145476	0.000073	-0.479988
C52	C	1.064252	0.000067	-0.422325
C53	C	0.981239	0.000066	-0.458697
C54	C	1.228490	0.000084	-0.443612
C55	C	1.230282	0.000079	-0.349572
C56	C	1.149055	0.000066	-0.291905
C57	C	1.066039	0.000064	-0.328282
C58	C	0.984814	0.000058	-0.270618
C59	C	0.901795	0.000049	-0.306991
C60	C	0.900012	0.000053	-0.401030
C61	C	1.150838	0.000062	-0.197866
C62	C	0.986601	0.000055	-0.176575
C63	C	1.058772	0.000073	0.289513
C64	C	1.060676	0.000075	0.389596
H65	H	0.509798	0.000100	-0.108030
O66	O	0.434649	0.000080	0.375629
H67	H	0.374636	-0.067907	0.395376
O68	O	1.231293	0.000099	-0.636216
H69	H	1.217769	-0.067898	-0.662932
O70	O	1.316092	0.000095	-0.505804
H71	H	1.372449	0.068105	-0.509507
H72	H	1.115711	0.752870	0.074181
O73	O	0.898994	0.000059	-0.114387
H74	H	0.842626	-0.067939	-0.110695
O75	O	0.826060	0.000049	-0.041446
H76	H	0.784965	0.000049	-0.099467
O77	O	0.814189	0.000045	-0.244796
H78	H	0.829386	0.000043	-0.173297
O79	O	1.179860	0.718333	0.010063
H80	H	1.119293	0.746039	-0.011278
O81	O	0.880784	0.766804	0.308977
H82	H	0.911125	0.848646	0.278668
O83	O	0.781817	0.000056	0.299920
H84	H	0.725925	0.000064	0.356096
H85	H	0.620485	0.000053	0.357430
O86	O	0.889914	0.000071	-0.591964
H87	H	0.902313	0.000082	-0.667044
H88	H	0.358092	0.000083	-0.028592
O89	O	0.810480	0.000065	-0.440263
H90	H	0.822890	0.000085	-0.515345
O91	O	1.319812	0.000065	-0.310335
H92	H	1.375987	0.000059	-0.366229
H93	H	1.218433	0.000076	-0.168257
H94	H	1.260783	0.595288	-0.070822
H95	H	1.014573	0.247280	0.175212
O96	O	1.303002	0.451610	-0.113018
H97	H	1.286502	0.431454	-0.178389
H98	H	0.680411	0.000055	-0.104778
O99	O	0.950438	0.281800	0.239320
H100	H	0.958160	0.254109	0.313471
H101	H	0.869496	0.404861	0.320219
O102	O	0.827286	0.548497	0.362409
H103	H	0.843782	0.568634	0.427789
O104	O	0.304249	0.000091	0.290832
H105	H	0.232751	0.000103	0.275639
O106	O	1.249500	0.233319	-0.059591
H107	H	1.305334	0.287458	-0.115405
