data_functionalizedCrystal
_audit_creation_method	'MofGen! by Chris Wilmer'
_symmetry_space_group_name_H-M	'P1'
_symmetry_Int_Tables_number	1
_symmetry_cell_setting	triclinic
loop_
_symmetry_equiv_pos_as_xyz
  x,y,z
_cell_length_a	25.639242
_cell_length_b	25.639242
_cell_length_c	25.639233
_cell_angle_alpha	90.006304
_cell_angle_beta	90.022166
_cell_angle_gamma	90.001714
loop_
_atom_site_label
_atom_site_type_symbol
_atom_site_fract_x
_atom_site_fract_y
_atom_site_fract_z
Zn1	Zn	0.799343	-0.208277	0.295788
Zn2	Zn	1.132677	0.125057	0.629121
Zn3	Zn	1.466010	0.458390	0.962454
Zn4	Zn	0.799316	-0.295695	0.208371
Zn5	Zn	1.132650	0.037638	0.541704
Zn6	Zn	1.465983	0.370971	0.875038
Zn7	Zn	0.711920	-0.208269	0.208352
Zn8	Zn	1.045253	0.125064	0.541685
Zn9	Zn	1.378586	0.458398	0.875018
Zn10	Zn	0.711914	-0.295676	0.295761
Zn11	Zn	1.045248	0.037657	0.629094
Zn12	Zn	1.378581	0.370991	0.962427
O13	O	0.755623	-0.251979	0.252068
O14	O	1.088957	0.081354	0.585401
O15	O	1.422290	0.414687	0.918734
O16	O	0.872505	-0.219884	0.284211
O17	O	1.205838	0.113449	0.617544
O18	O	1.539171	0.446782	0.950877
O19	O	0.787714	-0.284103	0.135203
O20	O	1.121047	0.049230	0.468536
O21	O	1.454381	0.382564	0.801870
O22	O	0.723530	-0.135105	0.219953
O23	O	1.056863	0.198228	0.553287
O24	O	1.390197	0.531562	0.886620
O25	O	0.872485	-0.284110	0.219986
O26	O	1.205818	0.049223	0.553319
O27	O	1.539152	0.382556	0.886653
O28	O	0.787760	-0.135111	0.284192
O29	O	1.121093	0.198223	0.617525
O30	O	1.454426	0.531556	0.950859
O31	O	0.723504	-0.219871	0.135189
O32	O	1.056837	0.113462	0.468522
O33	O	1.390170	0.446795	0.801856
O34	O	0.638754	-0.219852	0.219927
O35	O	0.972087	0.113481	0.553261
O36	O	1.305420	0.446814	0.886594
O37	O	0.723521	-0.284077	0.368930
O38	O	1.056854	0.049256	0.702263
O39	O	1.390188	0.382589	1.035596
O40	O	0.638750	-0.284070	0.284146
O41	O	0.972083	0.049263	0.617480
O42	O	1.305416	0.382597	0.950813
O43	O	0.787755	-0.219866	0.368949
O44	O	1.121088	0.113468	0.702283
O45	O	1.454421	0.446801	1.035616
O46	O	0.787709	-0.368858	0.219960
O47	O	1.121042	-0.035525	0.553294
O48	O	1.454375	0.297809	0.886627
O49	O	0.723495	-0.368844	0.284165
O50	O	1.056828	-0.035511	0.617498
O51	O	1.390161	0.297823	0.950832
C52	C	0.619781	-0.251959	0.252032
C53	C	0.953114	0.081375	0.585366
C54	C	1.286447	0.414708	0.918699
C55	C	0.561667	-0.251963	0.252029
C56	C	0.895000	0.081371	0.585363
C57	C	1.228333	0.414704	0.918696
C58	C	0.755648	-0.115606	0.252074
C59	C	1.088982	0.217727	0.585407
C60	C	1.422315	0.551060	0.918740
C61	C	0.755659	-0.057492	0.252076
C62	C	1.088993	0.275841	0.585409
C63	C	1.422326	0.609174	0.918743
C64	C	0.201311	-0.285473	0.285475
C65	C	0.534644	0.047860	0.618808
C66	C	0.867977	0.381193	0.952142
C67	C	0.146706	-0.285476	0.285483
C68	C	0.480040	0.047857	0.618816
C69	C	0.813373	0.381190	0.952150
O70	O	0.118475	-0.313943	0.313890
O71	O	0.451809	0.019390	0.647223
O72	O	0.785142	0.352724	0.980556
N73	N	0.119384	-0.251994	0.252102
N74	N	0.452718	0.081340	0.585435
N75	N	0.786051	0.414673	0.918768
C76	C	0.146669	-0.218502	0.218714
C77	C	0.480003	0.114831	0.552047
C78	C	0.813336	0.448165	0.885380
O79	O	0.118416	-0.190022	0.190321
O80	O	0.451749	0.143311	0.523655
O81	O	0.785083	0.476645	0.856988
C82	C	0.201273	-0.218496	0.218709
C83	C	0.534606	0.114837	0.552042
C84	C	0.867939	0.448170	0.885375
C85	C	0.228592	-0.251985	0.252088
C86	C	0.561925	0.081348	0.585422
C87	C	0.895259	0.414682	0.918755
C88	C	0.228630	-0.318959	0.318852
C89	C	0.561963	0.014374	0.652186
C90	C	0.895296	0.347708	0.985519
C91	C	0.283230	-0.318956	0.318843
C92	C	0.616564	0.014377	0.652177
C93	C	0.949897	0.347710	0.985510
C94	C	0.310512	-0.285468	0.285457
C95	C	0.643845	0.047865	0.618790
C96	C	0.977178	0.381199	0.952123
C97	C	0.283192	-0.251982	0.252079
C98	C	0.616526	0.081351	0.585413
C99	C	0.949859	0.414684	0.918746
C100	C	0.228557	-0.185002	0.185324
C101	C	0.561890	0.148331	0.518657
C102	C	0.895224	0.481664	0.851990
C103	C	0.283164	-0.184999	0.185321
C104	C	0.616497	0.148334	0.518655
C105	C	0.949831	0.481667	0.851988
C106	C	0.310483	-0.218488	0.218701
C107	C	0.643816	0.114845	0.552035
C108	C	0.977150	0.448179	0.885368
C109	C	0.365074	-0.218492	0.218684
C110	C	0.698408	0.114842	0.552017
C111	C	1.031741	0.448175	0.885350
N112	N	0.392396	-0.251974	0.252065
N113	N	0.725730	0.081359	0.585398
N114	N	1.059063	0.414692	0.918732
C115	C	0.365115	-0.285463	0.285452
C116	C	0.698448	0.047871	0.618785
C117	C	1.031782	0.381204	0.952118
C118	C	0.031999	-0.218515	0.218728
C119	C	0.365332	0.114818	0.552061
C120	C	0.698665	0.448151	0.885395
C121	C	-0.022604	-0.218523	0.218730
C122	C	0.310730	0.114810	0.552063
C123	C	0.644063	0.448144	0.885397
C124	C	-0.022563	-0.285497	0.285500
C125	C	0.310770	0.047836	0.618834
C126	C	0.644104	0.381170	0.952167
C127	C	0.032040	-0.285492	0.285495
C128	C	0.365374	0.047842	0.618828
C129	C	0.698707	0.381175	0.952162
C130	C	0.059321	-0.251998	0.252109
C131	C	0.392654	0.081335	0.585443
C132	C	0.725987	0.414669	0.918776
C133	C	0.479780	-0.285455	0.285430
C134	C	0.813113	0.047879	0.618763
C135	C	1.146447	0.381212	0.952096
C136	C	0.534385	-0.285451	0.285416
C137	C	0.867719	0.047883	0.618749
C138	C	1.201052	0.381216	0.952083
C139	C	0.534340	-0.218475	0.218648
C140	C	0.867673	0.114858	0.551981
C141	C	1.201007	0.448192	0.885315
C142	C	0.479739	-0.218481	0.218659
C143	C	0.813073	0.114853	0.551993
C144	C	1.146406	0.448186	0.885326
C145	C	0.452461	-0.251972	0.252054
C146	C	0.785794	0.081361	0.585388
C147	C	1.119127	0.414694	0.918721
O148	O	0.393340	-0.190038	0.190293
O149	O	0.726673	0.143295	0.523626
O150	O	1.060007	0.476628	0.856960
O151	O	0.393375	-0.313933	0.313844
O152	O	0.726708	0.019401	0.647177
O153	O	1.060042	0.352734	0.980511
C154	C	0.755612	-0.387822	0.252073
C155	C	1.088946	-0.054489	0.585407
C156	C	1.422279	0.278845	0.918740
C157	C	0.755656	-0.445936	0.252093
C158	C	1.088989	-0.112603	0.585426
C159	C	1.422322	0.220731	0.918760
C160	C	0.891996	-0.252000	0.252104
C161	C	1.225330	0.081333	0.585437
C162	C	1.558663	0.414666	0.918770
C163	C	0.950110	-0.252009	0.252119
C164	C	1.283444	0.081324	0.585452
C165	C	1.616777	0.414657	0.918786
C166	C	0.755640	-0.251970	0.388441
C167	C	1.088973	0.081363	0.721774
C168	C	1.422307	0.414697	1.055107
C169	C	0.755647	-0.251966	0.446555
C170	C	1.088981	0.081367	0.779888
C171	C	1.422314	0.414700	1.113221
C172	C	0.722207	0.302879	0.218644
C173	C	1.055540	0.636213	0.551977
C174	C	1.388874	0.969546	0.885310
C175	C	0.722206	0.357484	0.218646
C176	C	1.055540	0.690817	0.551980
C177	C	1.388873	1.024150	0.885313
O178	O	0.693755	0.385728	0.190217
O179	O	1.027088	0.719061	0.523551
O180	O	1.360422	1.052394	0.856884
N181	N	0.755649	0.384790	0.252091
N182	N	1.088982	0.718124	0.585424
N183	N	1.422316	1.051457	0.918758
C184	C	0.789091	0.357490	0.285539
C185	C	1.122424	0.690823	0.618873
C186	C	1.455757	1.024156	0.952206
O187	O	0.817536	0.385730	0.313987
O188	O	1.150869	0.719063	0.647321
O189	O	1.484202	1.052397	0.980654
C190	C	0.789088	0.302886	0.285539
C191	C	1.122421	0.636220	0.618872
C192	C	1.455755	0.969553	0.952206
C193	C	0.755647	0.275583	0.252088
C194	C	1.088980	0.608916	0.585422
C195	C	1.422314	0.942249	0.918755
C196	C	0.688768	0.275576	0.185196
C197	C	1.022101	0.608909	0.518529
C198	C	1.355435	0.942242	0.851863
C199	C	0.688770	0.220975	0.185193
C200	C	1.022103	0.554308	0.518526
C201	C	1.355436	0.887642	0.851860
C202	C	0.722210	0.193678	0.218638
C203	C	1.055543	0.527012	0.551971
C204	C	1.388876	0.860345	0.885304
C205	C	0.755648	0.220982	0.252085
C206	C	1.088982	0.554315	0.585419
C207	C	1.422315	0.887649	0.918752
C208	C	0.822527	0.275587	0.318990
C209	C	1.155860	0.608920	0.652323
C210	C	1.489193	0.942253	0.985656
C211	C	0.822521	0.220980	0.318987
C212	C	1.155854	0.554313	0.652320
C213	C	1.489188	0.887646	0.985653
C214	C	0.789080	0.193676	0.285536
C215	C	1.122413	0.527009	0.618869
C216	C	1.455747	0.860343	0.952203
C217	C	0.789090	0.139085	0.285527
C218	C	1.122423	0.472418	0.618860
C219	C	1.455757	0.805751	0.952193
N220	N	0.755647	0.111778	0.252082
N221	N	1.088981	0.445111	0.585415
N222	N	1.422314	0.778445	0.918749
C223	C	0.722207	0.139075	0.218637
C224	C	1.055541	0.472408	0.551971
C225	C	1.388874	0.805742	0.885304
C226	C	0.789093	0.472160	0.285538
C227	C	1.122426	0.805494	0.618871
C228	C	1.455759	1.138827	0.952205
C229	C	0.789098	0.526763	0.285536
C230	C	1.122431	0.860096	0.618869
C231	C	1.455765	1.193429	0.952203
C232	C	0.722213	0.526753	0.218643
C233	C	1.055546	0.860086	0.551977
C234	C	1.388880	1.193420	0.885310
C235	C	0.722210	0.472150	0.218643
C236	C	1.055544	0.805483	0.551976
C237	C	1.388877	1.138816	0.885310
C238	C	0.755650	0.444854	0.252093
C239	C	1.088983	0.778187	0.585426
C240	C	1.422317	1.111520	0.918760
C241	C	0.722213	0.024410	0.218633
C242	C	1.055546	0.357743	0.551966
C243	C	1.388880	0.691076	0.885300
C244	C	0.722219	-0.030196	0.218631
C245	C	1.055552	0.303138	0.551965
C246	C	1.388886	0.636471	0.885298
C247	C	0.789102	-0.030181	0.285526
C248	C	1.122435	0.303152	0.618859
C249	C	1.455769	0.636486	0.952192
C250	C	0.789098	0.024420	0.285526
C251	C	1.122432	0.357753	0.618859
C252	C	1.455765	0.691086	0.952192
C253	C	0.755650	0.051714	0.252078
C254	C	1.088983	0.385047	0.585411
C255	C	1.422316	0.718380	0.918744
O256	O	0.817525	0.110806	0.313943
O257	O	1.150859	0.444139	0.647276
O258	O	1.484192	0.777473	0.980609
O259	O	0.693762	0.110828	0.190199
O260	O	1.027095	0.444161	0.523532
O261	O	1.360429	0.777495	0.856866
C262	C	0.755637	-0.251951	0.116225
C263	C	1.088970	0.081383	0.449559
C264	C	1.422303	0.414716	0.782892
C265	C	0.755731	-0.251807	0.058111
C266	C	1.089064	0.081526	0.391445
C267	C	1.422397	0.414859	0.724778
C268	C	0.789136	-0.218432	0.806934
C269	C	1.122470	0.114902	1.140267
C270	C	1.455803	0.448235	1.473601
C271	C	0.789143	-0.218417	0.861538
C272	C	1.122476	0.114916	1.194872
C273	C	1.455809	0.448249	1.528205
O274	O	0.817574	-0.189967	0.889788
O275	O	1.150907	0.143367	1.223122
O276	O	1.484241	0.476700	1.556455
N277	N	0.755705	-0.251844	0.888837
N278	N	1.089038	0.081490	1.222171
N279	N	1.422372	0.414823	1.555504
C280	C	0.722255	-0.285283	0.861530
C281	C	1.055588	0.048050	1.194863
C282	C	1.388921	0.381384	1.528196
O283	O	0.693814	-0.313713	0.889764
O284	O	1.027147	0.019620	1.223097
O285	O	1.360480	0.352954	1.556430
C286	C	0.722246	-0.285294	0.806926
C287	C	1.055579	0.048039	1.140260
C288	C	1.388913	0.381372	1.473593
C289	C	0.755690	-0.251870	0.779630
C290	C	1.089023	0.081464	1.112963
C291	C	1.422356	0.414797	1.446296
C292	C	0.822577	-0.185009	0.779637
C293	C	1.155910	0.148324	1.112971
C294	C	1.489243	0.481657	1.446304
C295	C	0.822571	-0.185025	0.725037
C296	C	1.155904	0.148309	1.058370
C297	C	1.489238	0.481642	1.391703
C298	C	0.789124	-0.218462	0.697733
C299	C	1.122458	0.114871	1.031066
C300	C	1.455791	0.448204	1.364399
C301	C	0.755684	-0.251885	0.725029
C302	C	1.089017	0.081449	1.058363
C303	C	1.422351	0.414782	1.391696
C304	C	0.688794	-0.318731	0.779619
C305	C	1.022127	0.014603	1.112953
C306	C	1.355460	0.347936	1.446286
C307	C	0.688788	-0.318739	0.725012
C308	C	1.022121	0.014594	1.058346
C309	C	1.355454	0.347928	1.391679
C310	C	0.722231	-0.285314	0.697716
C311	C	1.055565	0.048019	1.031049
C312	C	1.388898	0.381353	1.364382
C313	C	0.722232	-0.285338	0.643125
C314	C	1.055565	0.047995	0.976458
C315	C	1.388898	0.381329	1.309791
N316	N	0.755669	-0.251912	0.615825
N317	N	1.089003	0.081422	0.949159
N318	N	1.422336	0.414755	1.282492
C319	C	0.789116	-0.218474	0.643129
C320	C	1.122449	0.114860	0.976463
C321	C	1.455782	0.448193	1.309796
C322	C	0.722275	-0.285256	0.976200
C323	C	1.055608	0.048078	1.309534
C324	C	1.388942	0.381411	1.642867
C325	C	0.722286	-0.285247	1.030803
C326	C	1.055619	0.048086	1.364136
C327	C	1.388953	0.381419	1.697469
C328	C	0.789173	-0.218381	1.030807
C329	C	1.122507	0.114952	1.364141
C330	C	1.455840	0.448286	1.697474
C331	C	0.789165	-0.218392	0.976204
C332	C	1.122498	0.114941	1.309537
C333	C	1.455831	0.448274	1.642871
C334	C	0.755713	-0.251829	0.948901
C335	C	1.089046	0.081504	1.282234
C336	C	1.422379	0.414837	1.615568
C337	C	0.789101	-0.218509	0.528464
C338	C	1.122434	0.114825	0.861798
C339	C	1.455768	0.448158	1.195131
C340	C	0.789094	-0.218528	0.473859
C341	C	1.122427	0.114805	0.807192
C342	C	1.455760	0.448138	1.140526
C343	C	0.722205	-0.285393	0.473859
C344	C	1.055538	0.047941	0.807192
C345	C	1.388871	0.381274	1.140525
C346	C	0.722214	-0.285375	0.528459
C347	C	1.055547	0.047958	0.861793
C348	C	1.388880	0.381292	1.195126
C349	C	0.755664	-0.251929	0.555761
C350	C	1.088997	0.081404	0.889094
C351	C	1.422330	0.414738	1.222427
O352	O	0.693813	-0.313773	0.614840
O353	O	1.027147	0.019561	0.948173
O354	O	1.360480	0.352894	1.281506
O355	O	0.817547	-0.190044	0.614889
O356	O	1.150881	0.143290	0.948222
O357	O	1.484214	0.476623	1.281555
H358	H	0.556626	-0.312723	0.312598
H359	H	0.889960	0.020610	0.645932
H360	H	1.223293	0.353944	0.979265
Cl361	Cl	0.680172	0.561079	0.176599
Cl362	Cl	1.013506	0.894412	0.509933
Cl363	Cl	1.346839	1.227746	0.843266
Cl364	Cl	-0.056870	-0.327592	0.327478
Cl365	Cl	0.276464	0.005742	0.660811
Cl366	Cl	0.609797	0.339075	0.994144
Cl367	Cl	-0.056941	-0.176428	0.176758
Cl368	Cl	0.276392	0.156906	0.510092
Cl369	Cl	0.609726	0.490239	0.843425
H370	H	0.816335	0.548990	0.312769
H371	H	1.149668	0.882323	0.646102
H372	H	1.483001	1.215656	0.979436
H373	H	0.054207	-0.191241	0.191537
H374	H	0.387540	0.142092	0.524871
H375	H	0.720874	0.475426	0.858204
Cl376	Cl	0.680249	-0.327277	1.065111
Cl377	Cl	1.013582	0.006056	1.398445
Cl378	Cl	1.346915	0.339390	1.731778
Cl379	Cl	0.445495	-0.327560	0.327412
Cl380	Cl	0.778829	0.005773	0.660745
Cl381	Cl	1.112162	0.339107	0.994078
H382	H	0.694987	-0.052424	0.191390
H383	H	1.028320	0.280910	0.524723
H384	H	1.361654	0.614243	0.858056
H385	H	0.054280	-0.312760	0.312677
H386	H	0.387613	0.020573	0.646010
H387	H	0.720947	0.353906	0.979343
H388	H	0.816326	0.449939	0.312777
H389	H	1.149660	0.783273	0.646110
H390	H	1.482993	1.116606	0.979444
Cl391	Cl	0.680164	0.058714	0.176582
Cl392	Cl	1.013498	0.392047	0.509915
Cl393	Cl	1.346831	0.725381	0.843248
Cl394	Cl	0.831145	0.058745	0.327572
Cl395	Cl	1.164479	0.392079	0.660905
Cl396	Cl	1.497812	0.725412	0.994238
H397	H	0.305469	-0.346225	0.346026
H398	H	0.638802	-0.012892	0.679359
H399	H	0.972135	0.320442	1.012692
Cl400	Cl	0.680221	-0.327300	0.941882
Cl401	Cl	1.013554	0.006034	1.275215
Cl402	Cl	1.346888	0.339367	1.608548
Cl403	Cl	0.646730	-0.360776	0.690692
Cl404	Cl	0.980064	-0.027443	1.024025
Cl405	Cl	1.313397	0.305890	1.357358
Cl406	Cl	0.646749	-0.360755	0.813921
Cl407	Cl	0.980082	-0.027422	1.147255
Cl408	Cl	1.313416	0.305912	1.480588
Cl409	Cl	0.864613	-0.142998	0.690729
Cl410	Cl	1.197946	0.190335	1.024063
Cl411	Cl	1.531280	0.523668	1.357396
Cl412	Cl	0.194226	-0.142896	0.143361
Cl413	Cl	0.527560	0.190438	0.476695
Cl414	Cl	0.860893	0.523771	0.810028
Cl415	Cl	0.317456	-0.142890	0.143348
Cl416	Cl	0.650789	0.190443	0.476682
Cl417	Cl	0.984122	0.523777	0.810015
Cl418	Cl	0.680173	-0.327398	0.562776
Cl419	Cl	1.013506	0.005935	0.896109
Cl420	Cl	1.346839	0.339269	1.229442
Cl421	Cl	0.194343	-0.361065	0.360830
Cl422	Cl	0.527676	-0.027731	0.694163
Cl423	Cl	0.861010	0.305602	1.027496
H424	H	0.457495	-0.191213	0.191478
H425	H	0.790828	0.142121	0.524811
H426	H	1.124162	0.475454	0.858144
Cl427	Cl	0.831141	-0.176506	0.439547
Cl428	Cl	1.164475	0.156827	0.772880
Cl429	Cl	1.497808	0.490160	1.106213
H430	H	0.694975	-0.312619	0.451618
H431	H	1.028308	0.020715	0.784951
H432	H	1.361642	0.354048	1.118285
H433	H	0.816330	-0.052416	0.312754
H434	H	1.149663	0.280917	0.646087
H435	H	1.482996	0.614251	0.979421
H436	H	0.816338	-0.191272	0.550687
H437	H	1.149671	0.142062	0.884020
H438	H	1.483004	0.475395	1.217353
H439	H	0.849813	-0.157777	0.801863
H440	H	1.183146	0.175556	1.135196
H441	H	1.516480	0.508889	1.468529
Cl442	Cl	0.831219	-0.176343	1.065143
Cl443	Cl	1.164553	0.156990	1.398476
Cl444	Cl	1.497886	0.490324	1.731810
Cl445	Cl	0.831208	-0.176370	0.941894
Cl446	Cl	1.164542	0.156963	1.275228
Cl447	Cl	1.497875	0.490297	1.608561
H448	H	0.556562	-0.191211	0.191464
H449	H	0.889896	0.142122	0.524797
H450	H	1.223229	0.475455	0.858131
H451	H	0.661537	0.198749	0.157955
H452	H	0.994871	0.532082	0.491288
H453	H	1.328204	0.865416	0.824622
Cl454	Cl	0.646722	0.309882	0.143147
Cl455	Cl	0.980055	0.643215	0.476480
Cl456	Cl	1.313388	0.976548	0.809814
H457	H	0.694979	0.449922	0.191405
H458	H	1.028312	0.783256	0.524739
H459	H	1.361646	1.116589	0.858072
Cl460	Cl	0.864568	0.309898	0.361047
Cl461	Cl	1.197901	0.643231	0.694380
Cl462	Cl	1.531234	0.976565	1.027714
H463	H	0.849748	0.198758	0.346231
H464	H	1.183081	0.532092	0.679564
H465	H	1.516415	0.865425	1.012897
