data_functionalizedCrystal
_audit_creation_method	'MofGen! by Chris Wilmer'
_symmetry_space_group_name_H-M	'P1'
_symmetry_Int_Tables_number	1
_symmetry_cell_setting	triclinic
loop_
_symmetry_equiv_pos_as_xyz
  x,y,z
_cell_length_a	13.032831
_cell_length_b	16.959454
_cell_length_c	13.033454
_cell_angle_alpha	82.785136
_cell_angle_beta	89.091650
_cell_angle_gamma	82.825094
loop_
_atom_site_label
_atom_site_type_symbol
_atom_site_fract_x
_atom_site_fract_y
_atom_site_fract_z
Zn1	Zn	1.498529	-0.383759	-0.780886
Zn2	Zn	1.520248	-0.534574	-0.608900
Zn3	Zn	1.348370	-0.387973	-0.587117
Zn4	Zn	1.326511	-0.501452	-0.759033
O5	O	1.423415	-0.451939	-0.683984
O6	O	1.645332	-0.415863	-0.776334
O7	O	1.515685	-0.530752	-0.462086
O8	O	1.368348	-0.276806	-0.612850
O9	O	1.661288	-0.526666	-0.649977
O10	O	1.478669	-0.273710	-0.755212
O11	O	1.389407	-0.423045	-0.446082
O12	O	1.201549	-0.390928	-0.591660
O13	O	1.331093	-0.470215	-0.905856
O14	O	1.185489	-0.474300	-0.717966
O15	O	1.457474	-0.383746	-0.921912
O16	O	1.494489	-0.640788	-0.628786
O17	O	1.352152	-0.616454	-0.739088
C18	C	1.156202	-0.429478	-0.650078
C19	C	1.041884	-0.419885	-0.635597
C20	C	1.423331	-0.657300	-0.683956
C21	C	1.423384	-0.745159	-0.683990
C22	C	0.983011	-0.456946	-0.691542
C23	C	0.864857	-0.447032	-0.676576
C24	C	1.349396	-1.104006	-0.741423
C25	C	1.497706	-1.129283	-0.626686
C26	C	1.497672	-1.046735	-0.626672
C27	C	1.423497	-0.992818	-0.684033
C28	C	1.349357	-1.021450	-0.741409
C29	C	1.571804	-1.018097	-0.569289
C30	C	1.571772	-0.935545	-0.569272
C31	C	1.497600	-0.881627	-0.626640
C32	C	1.423458	-0.910263	-0.684018
C33	C	1.349283	-0.856346	-0.741380
C34	C	1.275145	-0.884980	-0.798765
C35	C	1.275186	-0.967531	-0.798776
C36	C	1.497559	-0.799075	-0.626628
C37	C	1.349244	-0.773790	-0.741365
C38	C	1.691671	-0.474490	-0.718023
C39	C	1.805986	-0.484099	-0.732528
C40	C	1.389422	-0.422816	-0.952245
C41	C	1.374937	-0.410405	-1.066562
C42	C	1.423524	-0.245776	-0.684039
C43	C	1.423571	-0.157922	-0.684062
C44	C	1.430959	-0.458163	-1.125447
C45	C	1.415989	-0.445337	-1.243600
C46	C	1.457334	-0.480898	-0.416774
C47	C	1.472018	-0.493102	-0.302483
H48	H	0.827792	-0.407957	-0.617601
H49	H	1.632139	-0.912237	-0.522547
C50	C	1.578373	-1.187741	-0.564486
C51	C	1.677272	-1.173722	-0.599834
C52	C	1.751602	-1.227561	-0.542548
H53	H	1.567901	-1.241030	-0.572673
H54	H	1.572189	-1.180470	-0.493454
H55	H	1.683453	-1.180999	-0.670849
H56	H	1.687777	-1.120443	-0.591645
H57	H	1.745418	-1.220291	-0.471516
H58	H	1.741121	-1.280847	-0.550740
H59	H	1.818714	-1.218053	-0.566518
C60	C	1.652441	-1.076579	-0.507084
C61	C	1.751362	-1.062590	-0.542396
C62	C	1.825653	-1.116463	-0.485103
H63	H	1.641942	-1.129859	-0.515296
H64	H	1.646243	-1.069322	-0.436049
H65	H	1.757557	-1.069854	-0.613413
H66	H	1.761894	-1.009321	-0.534182
H67	H	1.819455	-1.109206	-0.414068
H68	H	1.815143	-1.169739	-0.493319
H69	H	1.892779	-1.106974	-0.509047
C70	C	1.509525	-0.525436	-1.075965
C71	C	1.459015	-0.577857	-1.006902
C72	C	1.531355	-0.639845	-0.961313
H73	H	1.559655	-0.503587	-1.039667
H74	H	1.542719	-0.553787	-1.128193
H75	H	1.425838	-0.549510	-0.954683
H76	H	1.408890	-0.599727	-1.043176
H77	H	1.564549	-0.668196	-1.013541
H78	H	1.581481	-0.617988	-0.925020
H79	H	1.497093	-0.675423	-0.914456
H80	H	1.020080	-0.496012	-0.750520
C81	C	1.194656	-0.826523	-0.861218
C82	C	1.204069	-0.837401	-0.965831
C83	C	1.129936	-0.783569	-1.023391
H84	H	1.205173	-0.773228	-0.853114
H85	H	1.127457	-0.835935	-0.837413
H86	H	1.271252	-0.827983	-0.989629
H87	H	1.193542	-0.890685	-0.973967
H88	H	1.062737	-0.792980	-0.999586
H89	H	1.140460	-0.730277	-1.015279
H90	H	1.136307	-0.790947	-1.094375
C91	C	0.855317	-0.536078	-0.811339
C92	C	0.816401	-0.505756	-0.909866
C93	C	0.861830	-0.553610	-0.982493
H94	H	0.839692	-0.589369	-0.794101
H95	H	0.928163	-0.535806	-0.811021
H96	H	0.743571	-0.506037	-0.910182
H97	H	0.832024	-0.452471	-0.927137
H98	H	0.934676	-0.553338	-0.982174
H99	H	0.846202	-0.606899	-0.965245
H100	H	0.835439	-0.533039	-1.049352
C101	C	1.550847	-0.560308	-1.253288
C102	C	1.599646	-0.601869	-1.330515
C103	C	1.672276	-0.663775	-1.285237
H104	H	1.516876	-0.596038	-1.206384
H105	H	1.601000	-0.538375	-1.217103
H106	H	1.549500	-0.623803	-1.366683
H107	H	1.633637	-0.566162	-1.377424
H108	H	1.722430	-0.641842	-1.249052
H109	H	1.638297	-0.699499	-1.238335
H110	H	1.705402	-0.691977	-1.337630
C111	C	1.337113	-0.378268	-1.293032
C112	C	1.263398	-0.410838	-1.346311
C113	C	1.190715	-0.349081	-1.391849
H114	H	1.371068	-0.342581	-1.340014
H115	H	1.303842	-0.349975	-1.240790
H116	H	1.296666	-0.439117	-1.398548
H117	H	1.229418	-0.446517	-1.299353
H118	H	1.157444	-0.320788	-1.339607
H119	H	1.224679	-0.313398	-1.438826
H120	H	1.140686	-0.371171	-1.427996
H121	H	1.004814	-0.380812	-0.576627
H122	H	1.288845	-0.729895	-0.788080
H123	H	1.289037	-1.127323	-0.788148
H124	H	1.315897	-0.360019	-1.103621
H125	H	1.557918	-0.775765	-0.579901
C126	C	1.194745	-0.998779	-0.860958
C127	C	1.210636	-1.082614	-0.848664
C128	C	1.136543	-1.111431	-0.905914
H129	H	1.200899	-0.979076	-0.932011
H130	H	1.127543	-0.981171	-0.837064
H131	H	1.277820	-1.100215	-0.872564
H132	H	1.204472	-1.102339	-0.777625
H133	H	1.069342	-1.093823	-0.882020
H134	H	1.142704	-1.091722	-0.976963
H135	H	1.147309	-1.168316	-0.897573
