data_functionalizedCrystal
_audit_creation_method	'MofGen! by Chris Wilmer'
_symmetry_space_group_name_H-M	'P1'
_symmetry_Int_Tables_number	1
_symmetry_cell_setting	triclinic
loop_
_symmetry_equiv_pos_as_xyz
  x,y,z
_cell_length_a	14.395555
_cell_length_b	12.478028
_cell_length_c	14.395555
_cell_angle_alpha	57.038552
_cell_angle_beta	89.997643
_cell_angle_gamma	57.042847
loop_
_atom_site_label
_atom_site_type_symbol
_atom_site_fract_x
_atom_site_fract_y
_atom_site_fract_z
Zr1	Zr	0.790948	1.298558	-0.225862
O2	O	0.622820	1.546045	-0.393997
O3	O	0.856224	1.051070	-0.160584
O4	O	0.836419	1.298569	-0.374194
O5	O	0.642623	1.298538	-0.027511
O6	O	0.989286	1.298578	-0.374199
O7	O	0.642625	1.298546	-0.180386
O8	O	1.024713	0.855847	0.007912
O9	O	0.607196	1.741268	-0.409622
O10	O	0.981551	1.152872	-0.149342
O11	O	0.867467	1.152858	-0.035250
O12	O	0.844150	1.444257	-0.286749
O13	O	0.730066	1.444244	-0.172657
Zr14	Zr	1.034750	1.298558	0.017949
Zr15	Zr	1.034753	1.298572	-0.225869
Zr16	Zr	0.790945	1.298544	0.017956
Zr17	Zr	0.766029	1.609915	-0.250782
Zr18	Zr	1.059669	0.987200	0.042869
O19	O	0.969474	1.546045	-0.047329
O20	O	0.969479	1.546065	-0.394007
O21	O	0.622816	1.546025	-0.047320
O22	O	1.202878	1.051070	0.186084
O23	O	1.202882	1.051090	-0.160593
O24	O	0.856219	1.051050	0.186094
O25	O	1.183075	1.298578	-0.180402
O26	O	0.989279	1.298546	0.166281
O27	O	0.836412	1.298538	0.166286
O28	O	1.183073	1.298569	-0.027527
O29	O	0.800988	1.741279	-0.409627
O30	O	1.024710	0.855836	0.201714
O31	O	1.218502	0.855847	0.201709
O32	O	1.218505	0.855858	0.007906
O33	O	0.607193	1.741257	-0.215819
O34	O	0.800985	1.741268	-0.215825
O35	O	0.981548	1.152858	0.078836
O36	O	1.095632	1.152872	-0.035256
O37	O	0.958231	1.444257	-0.172663
O38	O	0.844147	1.444244	-0.058571
C39	C	0.944019	0.909097	-0.072785
C40	C	0.954598	0.776917	-0.062206
C41	C	0.607887	1.298540	-0.103948
C42	C	0.504386	1.298534	-0.103945
C43	C	0.518714	1.139658	-0.029026
C44	C	0.419341	1.219076	0.009704
C45	C	0.419329	1.219122	-0.142644
C46	C	0.406376	1.377953	-0.065152
C47	C	0.406380	1.377976	-0.217557
C48	C	0.306980	1.457511	-0.178863
C49	C	1.217811	1.298575	-0.103965
C50	C	1.321313	1.298581	-0.103968
C51	C	0.912853	1.298575	-0.408935
C52	C	0.912854	1.298581	-0.512442
C53	C	0.881679	1.688019	-0.135128
C54	C	0.871101	1.820198	-0.145707
C55	C	0.837924	1.457457	-0.647951
C56	C	0.951545	1.378039	-0.672437
C57	C	0.799240	1.377993	-0.672379
C58	C	1.026538	1.219162	-0.535564
C59	C	0.874154	1.219139	-0.535512
C60	C	0.987848	1.139605	-0.559915
C61	C	0.912845	1.298540	0.201022
C62	C	0.912844	1.298534	0.304529
C63	C	1.248981	0.909114	-0.072794
C64	C	1.363061	0.776941	-0.062218
C65	C	0.944015	0.909079	0.232193
C66	C	0.954592	0.776893	0.346280
C67	C	1.248977	0.909097	0.232185
C68	C	1.363056	0.776917	0.346268
C69	C	0.576721	1.688019	-0.440098
C70	C	0.462642	1.820198	-0.554181
C71	C	0.576717	1.688001	-0.135119
C72	C	0.462637	1.820175	-0.145695
C73	C	0.881683	1.688036	-0.440107
C74	C	0.871106	1.820222	-0.554193
C75	C	1.476189	0.714851	0.340288
C76	C	1.583386	0.590672	0.447471
C77	C	1.577448	0.528552	0.560633
C78	C	1.464302	0.590630	0.566610
C79	C	1.357107	0.714816	0.459428
C80	C	0.349508	1.882279	-0.548202
C81	C	0.242307	2.006497	-0.655388
C82	C	0.248245	2.068623	-0.768551
C83	C	0.361392	2.006537	-0.774527
C84	C	0.468589	1.882330	-0.667343
H85	H	1.034186	0.638726	0.017382
H86	H	0.344650	1.831703	-0.456069
H87	H	0.703163	1.445167	-0.731255
C88	C	0.488465	1.590243	0.045324
H89	H	0.558726	1.522900	0.038581
H90	H	0.512563	1.566336	0.119959
H91	H	0.436384	1.566324	0.043753
H92	H	0.150190	2.057027	-0.650498
H93	H	0.401981	1.445069	-0.313604
H94	H	0.791522	0.958378	-0.225295
H95	H	0.609221	1.005313	0.034399
H96	H	1.481048	0.765411	0.248156
H97	H	1.459485	0.540034	0.658761
H98	H	0.560705	1.831784	-0.672225
C99	C	1.232669	0.783057	0.466022
H100	H	1.244497	0.728253	0.548772
H101	H	1.182850	0.900311	0.421181
H102	H	1.193898	0.762668	0.432205
C103	C	1.695365	0.391954	0.678526
H104	H	1.675633	0.363848	0.746783
H105	H	1.747118	0.295063	0.686279
H106	H	1.736084	0.432700	0.675251
H107	H	0.411903	1.958363	-0.225293
H108	H	0.423787	1.151926	0.105775
C109	C	0.130325	2.205225	-0.886441
H110	H	0.062101	2.233276	-0.866661
H111	H	0.122542	2.302145	-0.938209
H112	H	0.133574	2.164502	-0.927170
H113	H	1.675504	0.540140	0.442583
H114	H	0.401832	1.445048	-0.032321
C115	C	0.829890	1.128510	-0.455949
H116	H	0.749112	1.185130	-0.503810
H117	H	0.882288	1.016221	-0.425094
H118	H	0.830932	1.128306	-0.389867
H119	H	0.216593	1.591965	-0.242222
H120	H	0.423796	1.151949	-0.175365
H121	H	0.366212	2.057136	-0.866677
H122	H	0.774654	1.591801	-0.684145
C123	C	0.763586	1.006806	0.320456
H124	H	0.770342	1.074158	0.250205
H125	H	0.688949	1.030730	0.296336
H126	H	0.765158	1.030697	0.372555
C127	C	0.995765	1.468748	-0.752007
H128	H	0.942445	1.581636	-0.784071
H129	H	1.075956	1.413414	-0.703805
H130	H	0.996146	1.467188	-0.817258
H131	H	1.122653	1.152057	-0.476836
C132	C	1.073544	0.957981	-0.510735
H133	H	1.154192	0.901818	-0.462936
H134	H	1.046751	0.901138	-0.461765
H135	H	1.072576	0.958945	-0.577179
H136	H	1.034175	0.638708	0.397003
