data_functionalizedCrystal
_audit_creation_method	'MofGen! by Chris Wilmer'
_symmetry_space_group_name_H-M	'P1'
_symmetry_Int_Tables_number	1
_symmetry_cell_setting	triclinic
loop_
_symmetry_equiv_pos_as_xyz
  x,y,z
_cell_length_a	18.426585
_cell_length_b	23.096457
_cell_length_c	18.426585
_cell_angle_alpha	59.999708
_cell_angle_beta	90.003816
_cell_angle_gamma	60.004183
loop_
_atom_site_label
_atom_site_type_symbol
_atom_site_fract_x
_atom_site_fract_y
_atom_site_fract_z
Zr1	Zr	0.699215	0.633687	-0.095171
O2	O	0.583343	0.754477	-0.211054
O3	O	0.734726	0.512903	-0.059651
O4	O	0.734733	0.633690	-0.211050
O5	O	0.583342	0.633686	0.059777
O6	O	0.854164	0.633686	-0.211044
O7	O	0.583336	0.633690	-0.059654
O8	O	0.854151	0.417620	0.059783
O9	O	0.583355	0.849751	-0.211050
O10	O	0.839013	0.562578	-0.044492
O11	O	0.749888	0.562578	0.044633
O12	O	0.749896	0.704789	-0.133621
O13	O	0.660771	0.704789	-0.044496
Zr14	Zr	0.889704	0.633674	0.095318
Zr15	Zr	0.889694	0.633681	-0.095160
Zr16	Zr	0.699225	0.633681	0.095307
Zr17	Zr	0.699234	0.785639	-0.095165
Zr18	Zr	0.889684	0.481722	0.095311
O19	O	0.854193	0.754458	0.059798
O20	O	0.854179	0.754468	-0.211038
O21	O	0.583357	0.754468	0.059782
O22	O	1.005576	0.512885	0.211201
O23	O	1.005562	0.512894	-0.059635
O24	O	0.734740	0.512894	0.211185
O25	O	1.005577	0.633676	-0.059630
O26	O	0.854186	0.633672	0.211197
O27	O	0.734755	0.633676	0.211191
O28	O	1.005583	0.633672	0.059801
O29	O	0.734760	0.849746	-0.211041
O30	O	0.854159	0.417615	0.211188
O31	O	1.005564	0.417610	0.211196
O32	O	1.005556	0.417615	0.059791
O33	O	0.583363	0.849746	-0.059644
O34	O	0.734768	0.849741	-0.059636
O35	O	0.839022	0.562572	0.133768
O36	O	0.928148	0.562572	0.044643
O37	O	0.839031	0.704783	-0.044486
O38	O	0.749906	0.704783	0.044639
C39	C	0.794435	0.443612	0.000065
C40	C	0.794427	0.379104	0.000062
C41	C	0.860227	0.296314	0.065855
C42	C	0.860233	0.235693	0.065864
C43	C	0.794446	0.257866	0.000065
C44	C	0.728635	0.340670	-0.065734
C45	C	0.728625	0.401289	-0.065735
N46	N	0.774539	0.201759	-0.077959
N47	N	0.774553	0.144170	-0.077954
C48	C	0.794469	0.075227	0.000067
N49	N	0.814388	0.066040	0.078087
N50	N	0.814378	0.123633	0.078082
C51	C	0.794449	0.192140	0.000060
C52	C	0.860280	-0.073300	0.065874
C53	C	0.860280	-0.133920	0.065883
C54	C	0.728685	-0.028941	-0.065722
C55	C	0.728681	0.031677	-0.065723
C56	C	0.794483	0.009493	0.000074
C57	C	0.556200	0.633689	0.000060
C58	C	0.475337	0.633692	0.000055
C59	C	0.409666	0.633695	0.000055
C60	C	0.327284	0.633691	0.000064
C61	C	0.261627	0.633682	0.000074
C62	C	0.179240	0.633679	0.000081
C63	C	1.032719	0.633673	0.000087
C64	C	1.113582	0.633670	0.000092
C65	C	0.794447	0.633689	-0.238186
C66	C	0.794443	0.633692	-0.319049
C67	C	0.794483	0.823750	0.000082
C68	C	0.794491	0.888257	0.000085
C69	C	0.794476	0.633667	-0.615133
C70	C	0.794469	0.633670	-0.532752
C71	C	0.794459	0.633679	-0.467094
C72	C	0.794453	0.633683	-0.384707
C73	C	0.794472	0.633673	0.238333
C74	C	0.794476	0.633670	0.319196
C75	C	1.032695	0.443604	0.000079
C76	C	1.113550	0.379093	0.000080
C77	C	0.794448	0.443604	0.238325
C78	C	0.794444	0.379093	0.319185
C79	C	1.032707	0.443596	0.238338
C80	C	1.113567	0.379082	0.319203
C81	C	0.556211	0.823766	-0.238191
C82	C	0.475352	0.888279	-0.319056
C83	C	0.556224	0.823758	0.000068
C84	C	0.475369	0.888268	0.000067
C85	C	0.794471	0.823758	-0.238178
C86	C	0.794475	0.888268	-0.319038
C87	C	1.104993	0.348802	-0.046454
C88	C	1.180958	0.288196	-0.046470
C89	C	1.265478	0.257878	0.000054
C90	C	1.274034	0.288176	0.046590
C91	C	1.198070	0.348785	0.046600
C92	C	0.840969	0.348795	0.403693
C93	C	0.840962	0.288189	0.479677
C94	C	0.794434	0.257878	0.471151
C95	C	0.747903	0.288182	0.386634
C96	C	0.747906	0.348791	0.310652
C97	C	1.198069	0.348786	0.310656
C98	C	1.274053	0.288178	0.386630
C99	C	1.265531	0.257862	0.471150
C100	C	1.181019	0.288164	0.479696
C101	C	1.105038	0.348776	0.403723
C102	C	0.390849	0.918582	-0.310509
C103	C	0.314866	0.979210	-0.386483
C104	C	0.323388	1.009528	-0.471003
C105	C	0.407900	0.979223	-0.479549
C106	C	0.483881	0.918600	-0.403576
C107	C	0.483926	0.918566	0.046593
C108	C	0.407961	0.979189	0.046588
C109	C	0.323440	1.009508	0.000061
C110	C	0.314885	0.979208	-0.046471
C111	C	0.390849	0.918590	-0.046471
C112	C	0.841012	0.918560	-0.310483
C113	C	0.841033	0.979166	-0.386453
C114	C	0.794511	1.009484	-0.470976
C115	C	0.747973	0.979186	-0.479529
C116	C	0.747958	0.918577	-0.403561
H117	H	0.913816	0.168273	0.119443
C118	C	1.358427	0.294213	0.138600
C119	C	1.366944	0.254835	0.097742
H120	H	1.415787	0.273625	0.170180
H121	H	1.326854	0.284280	0.178748
H122	H	1.326874	0.351438	0.094577
H123	H	1.398491	0.197609	0.141765
H124	H	1.398530	0.264760	0.057591
H125	H	0.552740	0.893885	0.084487
H126	H	0.794531	1.058836	-0.532828
H127	H	1.205025	0.373460	0.241842
H128	H	0.261512	1.058891	-0.532858
H129	H	0.878858	0.373468	0.410653
H130	H	0.675070	0.358720	-0.119307
H131	H	0.794440	0.208527	0.533028
C132	C	0.980495	-0.262984	0.098350
C133	C	0.932609	-0.224932	0.138209
H134	H	1.025145	-0.319173	0.143003
H135	H	1.007516	-0.237153	0.065858
H136	H	0.941300	-0.258445	0.059168
H137	H	0.971804	-0.229466	0.177386
H138	H	0.905588	-0.250771	0.170716
C139	C	0.507609	0.973049	0.138599
C140	C	0.417379	1.012478	0.097751
H141	H	0.513423	0.993596	0.170189
H142	H	0.535308	0.982984	0.094578
H143	H	0.535286	0.915825	0.178745
H144	H	0.389703	1.069701	0.057600
H145	H	0.389670	1.002549	0.141778
C146	C	0.706630	0.195234	0.461816
C147	C	0.696785	0.254840	0.377271
H148	H	0.675084	0.174640	0.456035
H149	H	0.683640	0.218889	0.493365
H150	H	0.767844	0.151741	0.493379
H151	H	0.635570	0.298336	0.345711
H152	H	0.719770	0.231185	0.345709
C153	C	0.655944	0.342666	0.226335
C154	C	0.696773	0.382081	0.217760
H155	H	0.624380	0.363213	0.168987
H156	H	0.615789	0.352614	0.257894
H157	H	0.699978	0.285440	0.257926
H158	H	0.652738	0.439306	0.186175
H159	H	0.736932	0.372139	0.186187
C160	C	1.122967	0.441664	0.087970
C161	C	1.207484	0.382065	0.097772
H162	H	1.128786	0.462208	0.119562
H163	H	1.091401	0.418019	0.110936
H164	H	1.091401	0.485191	0.026763
H165	H	1.239047	0.338535	0.158979
H166	H	1.239063	0.405709	0.074810
C167	C	1.358365	0.294273	0.286990
C168	C	1.366941	0.254870	0.377222
H169	H	1.415709	0.273706	0.281183
H170	H	1.326800	0.351491	0.259292
H171	H	1.326780	0.284331	0.259306
H172	H	1.398519	0.264818	0.404905
H173	H	1.398518	0.197639	0.404932
H174	H	0.878857	0.263523	0.548488
H175	H	0.913807	0.278244	0.119434
C176	C	0.334886	0.850443	-0.063716
C177	C	0.381433	0.885280	-0.097605
H178	H	0.329074	0.829878	-0.095283
H179	H	0.277561	0.890887	-0.070376
H180	H	0.366465	0.806930	-0.002506
H181	H	0.349850	0.928798	-0.158813
H182	H	0.438768	0.844833	-0.090953
C183	C	0.706670	1.072125	-0.637306
C184	C	0.696829	1.012525	-0.572443
H185	H	0.675087	1.092714	-0.694667
H186	H	0.767872	1.048467	-0.630634
H187	H	0.683710	1.115623	-0.630614
H188	H	0.719794	0.969025	-0.579131
H189	H	0.635614	1.036183	-0.579118
C190	C	0.463899	1.047267	-0.582323
C191	C	0.417324	1.012436	-0.572431
H192	H	0.469730	1.067739	-0.639659
H193	H	0.521216	1.006846	-0.538268
H194	H	0.432328	1.090848	-0.575763
H195	H	0.448899	0.968850	-0.578983
H196	H	0.359997	1.052860	-0.616498
C197	C	0.655956	0.924714	-0.503208
C198	C	0.696787	0.885294	-0.412974
H199	H	0.624359	0.904172	-0.509021
H200	H	0.699985	0.914766	-0.530894
H201	H	0.615820	0.981940	-0.530899
H202	H	0.736927	0.828069	-0.385283
H203	H	0.652753	0.895235	-0.385276
C204	C	0.957092	0.997806	-0.417852
C205	C	0.892184	1.012466	-0.377035
H206	H	0.988671	1.018360	-0.412030
H207	H	0.929396	1.024536	-0.479058
H208	H	0.997236	0.940578	-0.390138
H209	H	0.852036	1.069696	-0.404754
H210	H	0.919880	0.985739	-0.315818
C211	C	0.933011	0.924631	-0.226133
C212	C	0.892159	0.885239	-0.217581
H213	H	0.964596	0.904056	-0.168780
H214	H	0.888995	0.981850	-0.257699
H215	H	0.973160	0.914690	-0.257710
H216	H	0.852005	0.895186	-0.186009
H217	H	0.936181	0.828007	-0.186002
C218	C	0.641669	0.825699	-0.328454
C219	C	0.576767	0.885305	-0.412979
H220	H	0.699011	0.805156	-0.334266
H221	H	0.635018	0.782179	-0.296896
H222	H	0.635002	0.849343	-0.296881
H223	H	0.583430	0.861660	-0.444549
H224	H	0.583421	0.928832	-0.444550
H225	H	0.675119	-0.010886	-0.119296
H226	H	0.675039	0.468704	-0.119312
H227	H	0.913855	-0.091364	0.119455
H228	H	0.261593	1.058867	0.000069
H229	H	0.675105	0.099091	-0.119304
H230	H	1.327407	0.208509	0.533005
H231	H	1.036179	0.373485	-0.084351
C232	C	1.399625	0.121538	0.087424
C233	C	1.348975	0.191248	0.000046
H234	H	1.451171	0.080405	0.087418
H235	H	1.365245	0.101686	0.112321
H236	H	1.416820	0.135247	0.121789
H237	H	1.331774	0.177541	-0.034316
H238	H	1.383361	0.211104	-0.024862
H239	H	1.174094	0.263473	0.548522
H240	H	1.173975	0.263535	-0.084366
H241	H	0.246058	1.003903	-0.084352
C242	C	1.020731	0.342645	0.503360
C243	C	1.012153	0.382064	0.413127
H244	H	0.963387	0.363190	0.509168
H245	H	1.052295	0.352590	0.531050
H246	H	1.052316	0.285419	0.531051
H247	H	0.980573	0.439289	0.385437
H248	H	0.980575	0.372124	0.385425
C249	C	0.422280	0.800922	-0.171080
C250	C	0.381461	0.885272	-0.217612
H251	H	0.416472	0.780367	-0.113734
H252	H	0.483480	0.774193	-0.165281
H253	H	0.394560	0.791003	-0.202664
H254	H	0.409186	0.895190	-0.186031
H255	H	0.320250	0.912009	-0.223408
C256	C	0.230554	0.973076	-0.286843
C257	C	0.221978	1.012505	-0.377075
H258	H	0.173210	0.993627	-0.281036
H259	H	0.262128	0.983007	-0.259141
H260	H	0.262128	0.915854	-0.259163
H261	H	0.190409	1.069728	-0.404754
H262	H	0.190390	1.002581	-0.404790
