data_functionalizedCrystal
_audit_creation_method	'MofGen! by Chris Wilmer'
_symmetry_space_group_name_H-M	'P1'
_symmetry_Int_Tables_number	1
_symmetry_cell_setting	triclinic
loop_
_symmetry_equiv_pos_as_xyz
  x,y,z
_cell_length_a	12.645330
_cell_length_b	19.077241
_cell_length_c	19.076919
_cell_angle_alpha	89.886096
_cell_angle_beta	87.723750
_cell_angle_gamma	87.690224
loop_
_atom_site_label
_atom_site_type_symbol
_atom_site_fract_x
_atom_site_fract_y
_atom_site_fract_z
Zn1	Zn	-0.384843	-1.058320	0.440586
Zn2	Zn	-0.554731	-1.062973	0.323089
Zn3	Zn	-0.384285	-0.945535	0.318363
Zn4	Zn	-0.568871	-0.940793	0.435825
O5	O	-0.473183	-1.001905	0.379466
O6	O	-0.401696	-1.157270	0.428970
O7	O	-0.525970	-1.051326	0.224131
O8	O	-0.236010	-0.960534	0.334592
O9	O	-0.526511	-1.160689	0.342645
O10	O	-0.236421	-1.043396	0.424388
O11	O	-0.400743	-0.965046	0.220659
O12	O	-0.414454	-0.846573	0.329975
O13	O	-0.550611	-0.952451	0.534787
O14	O	-0.550069	-0.843089	0.416273
O15	O	-0.415406	-1.038798	0.538285
O16	O	-0.704955	-1.046728	0.338028
O17	O	-0.715344	-0.956963	0.420855
C18	C	-0.483736	-0.819334	0.372095
C19	C	-0.488278	-0.741229	0.368959
C20	C	-0.425538	-0.702753	0.412498
C21	C	-0.429800	-0.629365	0.409545
C22	C	-0.496807	-0.594454	0.363055
C23	C	-0.559549	-0.632936	0.319511
C24	C	-0.555281	-0.706322	0.322461
C25	C	-0.516523	-0.375163	0.349402
C26	C	-0.520789	-0.301771	0.346457
C27	C	-0.391038	-0.298205	0.436491
C28	C	-0.386780	-0.371593	0.439440
C29	C	-0.449518	-0.410068	0.395893
N30	N	-0.501168	-0.519440	0.360037
N31	N	-0.445151	-0.485081	0.398908
C32	C	-0.748615	-1.001854	0.379454
C33	C	-0.866443	-1.001896	0.379475
C34	C	-1.040584	-0.945642	0.431758
C35	C	-0.918030	-0.945373	0.431571
C36	C	-0.907532	-0.984830	0.304614
C37	C	-1.030170	-0.984486	0.304932
C38	C	-1.030418	-1.075571	0.401465
C39	C	-0.907940	-1.075050	0.403066
C40	C	-0.196675	-1.001975	0.379494
C41	C	-0.078844	-1.002005	0.379506
C42	C	-0.484648	-0.994577	0.562745
C43	C	-0.489534	-0.991454	0.640848
C44	C	-0.462582	-0.185189	0.386860
C45	C	-0.458049	-0.263295	0.389997
C46	C	-0.461683	-1.009246	0.196901
C47	C	-0.456490	-1.012505	0.118804
C48	C	-0.421439	-1.034940	0.679364
C49	C	-0.426026	-1.031997	0.752749
C50	C	-0.498715	-0.985571	0.787618
C51	C	-0.566812	-0.942079	0.749098
C52	C	-0.562219	-0.945019	0.675713
C53	C	-0.519995	-0.971954	1.006899
C54	C	-0.524585	-0.969019	1.080288
C55	C	-0.383797	-1.058936	1.083935
C56	C	-0.379215	-1.061874	1.010549
C57	C	-0.447309	-1.018381	0.972035
N58	N	-0.503407	-0.982563	0.862630
N59	N	-0.442610	-1.021385	0.897024
H60	H	-0.606370	-0.737649	0.287006
H61	H	-0.614103	-0.604506	0.281654
N62	N	-0.314468	-0.409244	0.489559
H63	H	-0.321277	-0.461573	0.484815
H64	H	-0.334940	-0.394429	0.539217
N65	N	-1.074311	-1.096985	0.472744
H66	H	-1.014452	-1.103657	0.505935
H67	H	-1.111863	-1.142419	0.468453
H68	H	-0.339959	-0.266871	0.471943
N69	N	-0.352574	-1.078907	0.794278
H70	H	-0.395673	-1.110242	0.826040
H71	H	-0.307005	-1.049100	0.823530
H72	H	-0.320027	-1.099682	0.982163
H73	H	-0.370976	-0.731172	0.450357
N74	N	-0.584209	-0.416652	0.302448
H75	H	-0.571342	-0.468440	0.311367
H76	H	-0.565208	-0.405823	0.251765
H77	H	-0.362251	-1.072747	0.650979
N78	N	-0.362143	-0.587856	0.456505
H79	H	-0.312937	-0.558550	0.426777
H80	H	-0.319113	-0.621144	0.486403
N81	N	-0.593069	-0.264114	0.296315
H82	H	-0.632166	-0.299623	0.269176
H83	H	-0.549581	-0.234958	0.262626
H84	H	-0.879004	-0.931719	0.286092
H85	H	-0.890610	-0.955705	0.486986
N86	N	-1.083192	-0.959156	0.505396
H87	H	-1.127711	-1.001943	0.505603
H88	H	-1.128118	-0.917148	0.522412
H89	H	-0.625993	-0.904276	0.777494
N90	N	-1.084674	-0.873764	0.412411
H91	H	-1.129323	-0.877552	0.369947
H92	H	-1.024366	-0.841887	0.401350
N93	N	-0.872719	-1.092178	0.476062
H94	H	-0.830059	-1.052721	0.493781
H95	H	-0.827640	-1.137114	0.474845
N96	N	-0.882468	-0.873055	0.411981
H97	H	-0.913583	-0.837788	0.447269
H98	H	-0.907385	-0.860408	0.363752
H99	H	-0.872512	-1.119015	0.368018
N100	N	-1.063069	-1.036713	0.251391
H101	H	-0.997915	-1.059854	0.227686
H102	H	-1.106741	-1.011621	0.215142
N103	N	-0.635654	-0.898110	0.634168
H104	H	-0.682399	-0.868252	0.667392
H105	H	-0.681158	-0.927915	0.604867
N106	N	-1.062406	-1.131146	0.351104
H107	H	-1.142168	-1.132911	0.352002
H108	H	-1.030997	-1.178262	0.365500
H109	H	-0.873535	-1.024712	0.264488
N110	N	-1.071014	-0.913373	0.280749
H111	H	-1.009340	-0.882542	0.269984
H112	H	-1.118518	-0.891045	0.318980
H113	H	-0.328358	-1.094345	1.115301
H114	H	-0.583780	-0.931211	1.108677
H115	H	-0.575457	-0.936549	0.975550
