data_functionalizedCrystal
_audit_creation_method	'MofGen! by Chris Wilmer'
_symmetry_space_group_name_H-M	'P1'
_symmetry_Int_Tables_number	1
_symmetry_cell_setting	triclinic
loop_
_symmetry_equiv_pos_as_xyz
  x,y,z
_cell_length_a	10.723024
_cell_length_b	12.503572
_cell_length_c	10.723023
_cell_angle_alpha	86.442227
_cell_angle_beta	84.467709
_cell_angle_gamma	93.551581
loop_
_atom_site_label
_atom_site_type_symbol
_atom_site_fract_x
_atom_site_fract_y
_atom_site_fract_z
O1	O	1.664322	0.089311	0.167870
O2	O	2.164322	0.589311	0.667870
O3	O	1.301170	0.089315	0.184623
O4	O	1.801170	0.589315	0.684623
O5	O	1.491122	0.089308	-0.005329
O6	O	1.991122	0.589308	0.494671
O7	O	1.474369	0.089317	0.357823
O8	O	1.974369	0.589317	0.857823
O9	O	1.476837	-0.089333	0.008980
O10	O	1.976837	0.410667	0.508980
O11	O	1.286884	-0.089327	0.198933
O12	O	1.786884	0.410673	0.698933
O13	O	1.650036	-0.089330	0.182180
O14	O	2.150036	0.410670	0.682180
Cu15	Cu	1.467156	-0.105640	0.191863
Cu16	Cu	1.967156	0.394360	0.691863
Cu17	Cu	1.484050	0.105624	0.174940
Cu18	Cu	1.984050	0.605624	0.674940
O19	O	1.460083	-0.089324	0.372132
O20	O	1.960083	0.410676	0.872132
C21	C	1.247527	-0.000006	0.190559
C22	C	1.747527	0.499994	0.690559
C23	C	1.108973	-0.000004	0.186911
C24	C	1.608973	0.499996	0.686911
N25	N	1.455282	-0.254232	0.203765
N26	N	1.955282	0.245768	0.703765
C27	C	1.033990	-0.000001	0.293198
C28	C	1.533990	0.499999	0.793198
C29	C	0.890787	0.000000	0.289431
C30	C	1.390787	0.500000	0.789431
C31	C	1.437816	-0.473347	0.221283
C32	C	1.937816	0.026653	0.721283
C33	C	1.513395	-0.526676	0.145514
C34	C	2.013395	-0.026676	0.645514
C35	C	1.503677	-0.648599	0.155262
C36	C	2.003677	-0.148599	0.655262
C37	C	1.447533	-0.351413	0.211537
C38	C	1.947533	0.148587	0.711537
C39	C	1.703679	-0.000008	0.176244
C40	C	2.203679	0.499992	0.676244
C41	C	1.842233	-0.000002	0.179891
C42	C	2.342233	0.499998	0.679891
C43	C	1.482761	-0.000011	-0.044674
C44	C	1.982761	0.499989	0.455326
C45	C	1.479114	-0.000008	-0.183229
C46	C	1.979114	0.499992	0.316771
N47	N	1.495933	0.254216	0.163029
N48	N	1.995933	0.754216	0.663029
C49	C	1.484888	0.092535	-0.252407
C50	C	1.984888	0.592535	0.247593
C51	C	1.481119	0.092541	-0.395611
C52	C	1.981119	0.592541	0.104389
C53	C	1.468445	-0.000002	0.411477
C54	C	1.968445	0.499998	0.911477
C55	C	1.472093	0.000001	0.550031
C56	C	1.972093	0.500001	1.050031
H57	H	1.075812	-0.000005	0.386985
H58	H	1.575812	0.499995	0.886985
H59	H	1.365818	-0.519252	0.293467
H60	H	1.865818	-0.019252	0.793467
H61	H	1.585400	-0.480766	0.073327
H62	H	2.085400	0.019234	0.573327
H63	H	1.486062	0.171771	-0.455075
H64	H	1.986062	0.671771	0.044925
H65	H	1.467161	-0.079232	-0.390514
H66	H	1.967161	0.420768	0.109486
H67	H	1.492617	0.171761	-0.205615
H68	H	1.992617	0.671761	0.294385
H69	H	1.471372	-0.079233	-0.230019
H70	H	1.971372	0.420767	0.269981
H71	H	0.906659	0.000002	0.088895
H72	H	1.406659	0.500002	0.588895
H73	H	0.826355	0.000007	0.380421
H74	H	1.326355	0.500007	0.880421
H75	H	1.067153	0.000021	0.093123
H76	H	1.567153	0.500021	0.593123
