data_functionalizedCrystal
_audit_creation_method	'MofGen! by Chris Wilmer'
_symmetry_space_group_name_H-M	'P1'
_symmetry_Int_Tables_number	1
_symmetry_cell_setting	triclinic
loop_
_symmetry_equiv_pos_as_xyz
  x,y,z
_cell_length_a	15.625950
_cell_length_b	14.044190
_cell_length_c	14.185569
_cell_angle_alpha	75.616153
_cell_angle_beta	120.545593
_cell_angle_gamma	88.497992
loop_
_atom_site_label
_atom_site_type_symbol
_atom_site_fract_x
_atom_site_fract_y
_atom_site_fract_z
O1	O	1.292812	0.024344	0.386694
O2	O	1.008335	0.065691	0.283242
O3	O	1.146305	-0.092578	0.333436
O4	O	1.154843	0.182613	0.336501
O5	O	1.187063	-0.139328	0.515098
O6	O	1.049093	0.018941	0.464904
O7	O	1.333570	-0.022405	0.568357
Cu8	Cu	1.195053	-0.006000	0.533218
Cu9	Cu	1.146852	0.049286	0.318381
O10	O	1.195600	0.135864	0.518163
C11	C	0.992087	0.045073	0.360754
C12	C	0.882950	0.053277	0.321066
C13	C	0.634978	-0.047071	0.685526
C14	C	0.532415	-0.039331	0.648183
C15	C	0.488033	0.011630	0.450160
C16	C	0.590594	0.003898	0.487487
C17	C	0.664060	-0.025454	0.605171
C18	C	0.619676	0.025516	0.407132
C19	C	0.722229	0.017780	0.444456
C20	C	0.795700	-0.011574	0.562136
C21	C	0.766612	-0.033190	0.642495
C22	C	0.546209	0.054861	0.289448
C23	C	0.575291	0.076478	0.209094
C24	C	0.677845	0.068749	0.246417
C25	C	0.751316	0.039396	0.364097
C26	C	0.706932	0.090365	0.166057
C27	C	0.809485	0.082629	0.203382
C28	C	0.853869	0.031659	0.401421
C29	C	1.162946	-0.150923	0.422910
C30	C	1.151794	-0.255122	0.418864
C31	C	1.210496	-0.510817	0.440172
C32	C	1.131412	-0.445890	0.411419
C33	C	1.142755	-0.339737	0.415562
C34	C	1.199154	-0.616980	0.436029
C35	C	1.349818	-0.001787	0.490842
C36	C	1.458953	-0.009989	0.530523
C37	C	1.178959	0.194209	0.428686
C38	C	1.190109	0.298410	0.432725
N39	N	1.228962	-0.044887	0.684325
N40	N	1.112950	0.088165	0.167276
C41	C	1.013322	0.202374	0.973525
C42	C	1.039015	0.172923	1.087893
C43	C	1.161218	0.032821	1.132312
C44	C	1.135532	0.062257	1.017944
C45	C	1.061584	0.147035	0.938558
C46	C	1.183794	0.006918	0.982977
C47	C	1.158114	0.036355	0.868620
C48	C	1.084171	0.121131	0.789229
C49	C	1.035903	0.176472	0.824201
C50	C	1.257747	-0.077855	1.062366
C51	C	1.306009	-0.133194	1.027400
C52	C	1.280324	-0.103762	0.913039
C53	C	1.206381	-0.018986	0.833648
C54	C	1.328591	-0.159102	0.878067
C55	C	1.302910	-0.129665	0.763710
C56	C	1.180700	0.010452	0.719291
H57	H	0.879204	-0.017873	0.592523
N58	N	1.354926	-0.189355	0.725957
H59	H	1.390900	-0.145203	0.695443
H60	H	1.405613	-0.247534	0.793629
H61	H	1.286716	-0.486682	0.467900
H62	H	0.999708	0.217995	1.116353
N63	N	1.408345	-0.250537	0.963697
H64	H	1.435023	-0.281129	0.924192
H65	H	1.465570	-0.230726	1.028060
N66	N	0.496053	0.108126	0.082168
H67	H	0.426672	0.109745	0.070714
H68	H	0.501481	0.176889	0.044425
N69	N	1.100935	0.101888	0.633661
H70	H	1.131460	0.152295	0.601175
H71	H	1.043679	0.082062	0.569341
H72	H	1.063266	0.145100	0.696114
N73	N	0.956135	0.267903	0.738563
H74	H	0.929450	0.298495	0.778061
H75	H	0.986725	0.318240	0.706101
N76	N	1.240978	-0.058611	1.217938
H77	H	1.249926	-0.068863	1.295690
H78	H	1.219262	-0.119128	1.191694
H79	H	0.833162	0.100237	0.137948
N80	N	1.285445	-0.109603	1.185709
H81	H	1.271722	-0.179272	1.206025
H82	H	1.359523	-0.109062	1.237843
H83	H	0.428205	0.035524	0.354341
N84	N	0.845857	-0.064844	0.769428
H85	H	0.915235	-0.066462	0.780874
H86	H	0.834818	-0.015628	0.805109
N87	N	0.933553	0.293805	0.887886
H88	H	0.906868	0.324397	0.927385
H89	H	0.964143	0.344142	0.855424
N90	N	1.030441	-0.477850	0.374714
H91	H	0.978449	-0.435014	0.293968
H92	H	1.036628	-0.550265	0.376996
N93	N	0.933112	0.000014	0.528353
H94	H	0.927778	-0.068763	0.566184
H95	H	1.002450	-0.001543	0.539701
N96	N	0.714226	-0.078716	0.812457
H97	H	0.680244	-0.091232	0.857704
H98	H	0.760547	-0.142021	0.833286
N99	N	0.501054	-0.062655	0.734863
H100	H	0.563190	-0.083092	0.815081
H101	H	0.457243	-0.001365	0.723185
H102	H	0.647103	0.114254	0.070239
N103	N	1.385766	-0.224626	1.113032
H104	H	1.355236	-0.275029	1.145517
H105	H	1.412417	-0.255136	1.073456
N106	N	0.435598	0.063197	0.249188
H107	H	0.416796	0.114043	0.278035
H108	H	0.393549	0.085028	0.162446
