data_functionalizedCrystal
_audit_creation_method	'MofGen! by Chris Wilmer'
_symmetry_space_group_name_H-M	'P1'
_symmetry_Int_Tables_number	1
_symmetry_cell_setting	triclinic
loop_
_symmetry_equiv_pos_as_xyz
  x,y,z
_cell_length_a	12.594517
_cell_length_b	12.594516
_cell_length_c	17.077396
_cell_angle_alpha	89.968902
_cell_angle_beta	90.012888
_cell_angle_gamma	89.982447
loop_
_atom_site_label
_atom_site_type_symbol
_atom_site_fract_x
_atom_site_fract_y
_atom_site_fract_z
Zn1	Zn	1.627241	0.423743	0.443690
Zn2	Zn	1.627131	0.601744	0.312418
Zn3	Zn	1.449249	0.423780	0.312453
Zn4	Zn	1.449222	0.601680	0.443657
O5	O	1.538211	0.512737	0.378054
O6	O	1.776172	0.447367	0.426276
O7	O	1.603500	0.578179	0.202576
O8	O	1.472917	0.274829	0.329890
O9	O	1.776091	0.578144	0.329831
O10	O	1.603687	0.274802	0.426310
O11	O	1.472811	0.447429	0.202601
O12	O	1.300300	0.447367	0.329858
O13	O	1.472871	0.578034	0.553508
O14	O	1.300280	0.578070	0.426253
O15	O	1.603661	0.447305	0.553533
O16	O	1.603474	0.750681	0.329798
O17	O	1.472765	0.750634	0.426219
C18	C	1.261670	0.512716	0.378056
C19	C	1.143364	0.512733	0.378076
C20	C	1.538133	0.789278	0.378018
C21	C	1.538198	0.907583	0.378029
C22	C	1.003368	0.583951	0.430408
C23	C	1.074140	0.609854	0.358764
C24	C	1.074164	0.486878	0.449711
C25	C	1.003351	0.538720	0.306371
C26	C	1.003368	0.415700	0.397366
C27	C	1.074109	0.441565	0.325673
C28	C	1.609366	0.976823	0.325636
C29	C	1.635367	1.047525	0.397276
C30	C	1.512308	1.047681	0.306419
C31	C	1.564249	0.976727	0.449706
C32	C	1.441145	0.976876	0.358801
C33	C	1.467109	1.047546	0.430489
C34	C	1.815831	0.512758	0.378053
C35	C	1.934137	0.512768	0.378052
C36	C	1.538275	0.512659	0.582799
C37	C	1.538302	0.512625	0.670049
C38	C	1.538292	1.235116	0.378087
C39	C	1.538262	1.116811	0.378050
C40	C	1.538208	0.512738	0.174107
C41	C	1.538386	0.512472	0.086857
C42	C	1.606407	0.444549	0.711053
C43	C	1.606420	0.444513	0.793033
C44	C	1.538333	0.512560	0.834008
C45	C	1.470220	0.580640	0.792998
C46	C	1.470203	0.580669	0.711019
C47	C	1.470263	0.580576	0.963868
C48	C	1.470282	0.580548	1.045853
C49	C	1.606480	0.444420	1.045882
C50	C	1.606463	0.444449	0.963903
C51	C	1.538352	0.512530	0.922899
H52	H	0.972307	0.644209	0.474617
O53	O	1.404258	0.646763	0.923943
C54	C	1.389903	0.790535	0.831383
C55	C	1.464760	0.715626	0.876540
H56	H	1.438790	0.846244	0.793060
H57	H	1.334278	0.741739	0.792953
H58	H	1.341216	0.839128	0.874756
H59	H	1.513515	0.667017	0.833224
H60	H	1.520315	0.764483	0.914982
O61	O	1.111359	0.707754	0.339387
C62	C	1.216493	0.858274	0.378971
C63	C	1.174444	0.747399	0.400999
H64	H	1.267488	0.890370	0.428777
H65	H	1.266352	0.852437	0.323429
H66	H	1.146695	0.914134	0.368414
H67	H	1.244178	0.691478	0.411596
H68	H	1.124554	0.753320	0.456519
H69	H	1.414779	0.636041	0.826366
H70	H	1.104974	0.381353	0.281357
O71	O	1.672681	0.378354	0.832743
C72	C	1.807733	0.243301	0.824121
C73	C	1.732761	0.318193	0.779053
H74	H	1.856311	0.194626	0.780732
H75	H	1.863444	0.292111	0.862474
H76	H	1.758884	0.187669	0.862530
H77	H	1.781525	0.373841	0.740601
H78	H	1.677047	0.269318	0.740749
O79	O	1.486270	1.084734	0.234103
C80	C	1.531903	1.090870	0.097153
C81	C	1.561488	1.048821	0.179003
H82	H	1.592713	1.061871	0.052584
H83	H	1.449750	1.060568	0.080258
H84	H	1.531380	1.181378	0.098034
H85	H	1.562072	0.958317	0.178184
H86	H	1.643622	1.079206	0.195865
O87	O	1.672530	0.378305	1.085831
C88	C	1.732941	0.317944	1.212137
C89	C	1.658074	0.392853	1.166990
H90	H	1.721296	0.329697	1.277762
H91	H	1.714270	0.232105	1.196085
H92	H	1.818748	0.336629	1.195979
H93	H	1.572242	0.374264	1.183124
H94	H	1.676837	0.478670	1.183046
O95	O	1.404173	0.646959	0.671216
C96	C	1.352415	0.828019	0.646119
C97	C	1.427275	0.753066	0.691233
H98	H	1.371050	0.913820	0.662299
H99	H	1.364109	0.816439	0.580481
H100	H	1.266602	0.809271	0.662221
H101	H	1.513116	0.771767	0.675197
H102	H	1.415489	0.764659	0.756860
O103	O	1.681100	0.939590	0.272842
C104	C	1.760863	0.785624	0.213248
C105	C	1.679569	0.827649	0.273044
H106	H	1.759668	0.695116	0.213403
H107	H	1.739583	0.815947	0.152319
H108	H	1.843584	0.814710	0.229792
H109	H	1.596819	0.798580	0.256573
H110	H	1.700940	0.797334	0.333957
H111	H	0.972258	0.333650	0.413718
O112	O	0.966230	0.564980	0.234121
C113	C	0.812387	0.594399	0.153041
C114	C	0.854284	0.564663	0.234901
H115	H	0.721874	0.594131	0.153640
H116	H	0.842093	0.676900	0.136470
H117	H	0.842188	0.534099	0.108390
H118	H	0.824500	0.624891	0.279606
H119	H	0.824586	0.482135	0.251405
O120	O	1.111147	0.460889	0.522053
C121	C	1.117197	0.506647	0.658971
C122	C	1.075226	0.536175	0.577091
H123	H	1.088190	0.567511	0.703489
H124	H	1.086843	0.424523	0.675920
H125	H	1.207704	0.506081	0.658108
H126	H	0.984721	0.536802	0.577891
H127	H	1.105661	0.618280	0.560174
H128	H	1.359066	0.945817	0.342502
O129	O	1.590701	0.939662	0.521936
C130	C	1.713180	0.835305	0.598365
C131	C	1.683354	0.877230	0.516528
H132	H	1.788078	0.784801	0.594018
H133	H	1.728155	0.905089	0.639395
H134	H	1.645329	0.784923	0.622263
H135	H	1.751166	0.927595	0.492560
H136	H	1.668340	0.807398	0.475552
O137	O	1.733376	1.084510	0.416567
C138	C	1.919168	1.090386	0.383186
C139	C	1.808228	1.048456	0.361246
H140	H	1.979720	1.061234	0.338480
H141	H	1.918117	1.180897	0.383531
H142	H	1.941807	1.060005	0.443830
H143	H	1.785521	1.078758	0.300597
H144	H	1.809339	0.957946	0.360954
H145	H	1.414837	0.635956	1.079213
O146	O	1.395474	1.084496	0.483463
C147	C	1.366791	1.189114	0.599651
C148	C	1.448018	1.147360	0.539702
H149	H	1.409244	1.239930	0.645145
H150	H	1.304394	1.239083	0.568285
H151	H	1.326602	1.119167	0.629936
H152	H	1.488284	1.217242	0.509399
H153	H	1.510347	1.097359	0.571112
H154	H	1.661911	0.389045	0.930544
O155	O	1.672398	0.378390	0.671168
C156	C	1.686742	0.234669	0.578686
C157	C	1.611891	0.309550	0.623787
H158	H	1.637851	0.178978	0.540380
H159	H	1.742358	0.283488	0.540244
H160	H	1.735439	0.186055	0.622095
H161	H	1.563125	0.358180	0.580435
H162	H	1.556345	0.260670	0.662241
