data_functionalizedCrystal
_audit_creation_method	'MofGen! by Chris Wilmer'
_symmetry_space_group_name_H-M	'P1'
_symmetry_Int_Tables_number	1
_symmetry_cell_setting	triclinic
loop_
_symmetry_equiv_pos_as_xyz
  x,y,z
_cell_length_a	10.654562
_cell_length_b	10.654550
_cell_length_c	9.730223
_cell_angle_alpha	90.001418
_cell_angle_beta	90.002442
_cell_angle_gamma	84.487503
loop_
_atom_site_label
_atom_site_type_symbol
_atom_site_fract_x
_atom_site_fract_y
_atom_site_fract_z
O1	O	1.667823	0.176472	0.114377
O2	O	1.302347	0.193261	0.114359
O3	O	1.493488	0.002127	0.114363
O4	O	1.476682	0.367605	0.114373
O5	O	1.493489	0.002128	-0.114217
O6	O	1.302347	0.193261	-0.114221
O7	O	1.667824	0.176472	-0.114203
Zn8	Zn	1.485086	0.184866	-0.150504
Zn9	Zn	1.485085	0.184866	0.150660
O10	O	1.476683	0.367605	-0.114207
C11	C	1.255549	0.192025	0.000067
C12	C	1.116107	0.188327	0.000060
C13	C	1.492254	-0.044671	0.000075
C14	C	1.488563	-0.184114	0.000079
C15	C	1.050576	0.186602	-0.124528
C16	C	0.919554	0.183137	-0.124505
C17	C	0.919604	0.183127	0.124705
C18	C	1.050625	0.186583	0.124681
C19	C	1.050546	0.186613	-0.268408
C20	C	0.919524	0.183148	-0.268385
C21	C	1.601103	-0.263595	0.000081
C22	C	1.597627	-0.394615	0.000090
C23	C	1.369059	-0.366662	0.000091
C24	C	1.372537	-0.235644	0.000092
C25	C	1.733066	-0.279734	0.000074
C26	C	1.729589	-0.410755	0.000083
C27	C	1.714621	0.177708	0.000092
C28	C	1.854064	0.181406	0.000108
C29	C	1.477916	0.414403	0.000084
C30	C	1.481608	0.553847	0.000088
N31	N	1.485095	0.184866	-0.356040
C32	C	1.561917	0.261741	-0.571869
C33	C	1.561919	0.261749	-0.427986
C34	C	1.408255	0.107979	-0.427986
C35	C	1.408247	0.107978	-0.571866
C36	C	1.650637	0.350515	-0.571868
C37	C	1.650639	0.350523	-0.427985
N38	N	1.485085	0.184857	0.356196
H39	H	0.866272	0.181708	0.226167
H40	H	0.873238	0.269944	-0.323618
O41	O	0.880320	0.061834	-0.327545
H42	H	0.922442	-0.018982	-0.265591
O43	O	1.111839	0.071653	-0.341599
H44	H	1.087629	-0.014647	-0.287767
H45	H	1.745214	0.311042	-0.616498
O46	O	1.795440	-0.466100	-0.126613
H47	H	1.746981	-0.425429	-0.219713
H48	H	1.769470	-0.456396	0.098780
O49	O	1.609678	0.481702	-0.623589
H50	H	1.523287	0.479556	-0.686961
O51	O	1.598300	0.475784	-0.368852
H52	H	1.570555	0.542191	-0.453859
O53	O	1.325448	0.025022	-0.350360
H54	H	1.258483	0.084573	-0.284771
H55	H	1.345673	0.045384	-0.630430
O56	O	1.121314	0.188424	0.259056
H57	H	1.085754	0.273208	0.318823
O58	O	1.781823	0.309606	-0.376214
H59	H	1.848104	0.375984	-0.414268
O60	O	1.089743	0.307917	-0.327580
H61	H	1.004566	0.369433	-0.358933
O62	O	1.251155	-0.149912	0.000088
H63	H	1.169896	-0.207760	0.000078
O64	O	1.243919	-0.422239	0.000083
H65	H	1.260405	-0.526698	0.000073
H66	H	1.775087	-0.244105	-0.098620
O67	O	1.801416	-0.240821	0.126784
H68	H	1.832110	-0.325676	0.188826
