data_functionalizedCrystal
_audit_creation_method	'MofGen! by Chris Wilmer'
_symmetry_space_group_name_H-M	'P1'
_symmetry_Int_Tables_number	1
_symmetry_cell_setting	triclinic
loop_
_symmetry_equiv_pos_as_xyz
  x,y,z
_cell_length_a	19.805407
_cell_length_b	16.959453
_cell_length_c	19.805399
_cell_angle_alpha	90.026715
_cell_angle_beta	90.019573
_cell_angle_gamma	90.019988
loop_
_atom_site_label
_atom_site_type_symbol
_atom_site_fract_x
_atom_site_fract_y
_atom_site_fract_z
Zn1	Zn	1.034766	-0.314700	0.382724
Zn2	Zn	1.368099	0.018633	0.716057
Zn3	Zn	1.701433	0.351967	1.049390
Zn4	Zn	1.034693	-0.446882	0.269537
Zn5	Zn	1.368027	-0.113549	0.602871
Zn6	Zn	1.701360	0.219784	0.936204
Zn7	Zn	0.921581	-0.314722	0.269548
Zn8	Zn	1.254914	0.018612	0.602882
Zn9	Zn	1.588247	0.351945	0.936215
Zn10	Zn	0.921557	-0.446840	0.382684
Zn11	Zn	1.254890	-0.113507	0.716017
Zn12	Zn	1.588223	0.219826	1.049351
O13	O	0.978149	-0.380786	0.326123
O14	O	1.311482	-0.047453	0.659457
O15	O	1.644816	0.285881	0.992790
O16	O	1.129473	-0.332243	0.367721
O17	O	1.462806	0.001091	0.701055
O18	O	1.796139	0.334424	1.034388
O19	O	1.019668	-0.429378	0.174822
O20	O	1.353002	-0.096044	0.508155
O21	O	1.686335	0.237289	0.841489
O22	O	0.936635	-0.204108	0.284583
O23	O	1.269968	0.129225	0.617916
O24	O	1.603302	0.462559	0.951249
O25	O	1.129420	-0.429356	0.284564
O26	O	1.462753	-0.096023	0.617897
O27	O	1.796086	0.237310	0.951230
O28	O	1.019792	-0.204092	0.367732
O29	O	1.353125	0.129241	0.701065
O30	O	1.686459	0.462575	1.034399
O31	O	0.936565	-0.332280	0.174830
O32	O	1.269898	0.001054	0.508164
O33	O	1.603231	0.334387	0.841497
O34	O	0.826861	-0.332239	0.284544
O35	O	1.160194	0.001094	0.617877
O36	O	1.493527	0.334428	0.951211
O37	O	0.936595	-0.429285	0.477406
O38	O	1.269928	-0.095952	0.810739
O39	O	1.603261	0.237382	1.144072
O40	O	0.826843	-0.429306	0.367664
O41	O	1.160177	-0.095973	0.700998
O42	O	1.493510	0.237361	1.034331
O43	O	1.019769	-0.332202	0.477435
O44	O	1.353102	0.001131	0.810768
O45	O	1.686435	0.334465	1.144102
O46	O	1.019645	-0.557488	0.284525
O47	O	1.352979	-0.224154	0.617858
O48	O	1.686312	0.109179	0.951192
O49	O	0.936524	-0.557457	0.367653
O50	O	1.269858	-0.224123	0.700987
O51	O	1.603191	0.109210	1.034320
C52	C	0.802293	-0.380771	0.326101
C53	C	1.135626	-0.047438	0.659435
C54	C	1.468960	0.285896	0.992768
C55	C	0.727061	-0.380783	0.326108
C56	C	1.060394	-0.047450	0.659441
C57	C	1.393728	0.285883	0.992775
C58	C	0.978093	-0.586152	0.326098
C59	C	1.311426	-0.252819	0.659432
C60	C	1.644759	0.080514	0.992765
C61	C	0.978130	-0.674009	0.326111
C62	C	1.311464	-0.340676	0.659444
C63	C	1.644797	-0.007342	0.992777
C64	C	0.691726	-0.431402	0.369319
C65	C	1.025059	-0.098069	0.702652
C66	C	1.358392	0.235264	1.035985
C67	C	0.621037	-0.431404	0.369328
C68	C	0.954370	-0.098070	0.702662
C69	C	1.287704	0.235263	1.035995
C70	C	0.585686	-0.380790	0.326123
C71	C	0.919019	-0.047456	0.659457
C72	C	1.252352	0.285877	0.992790
C73	C	0.621026	-0.330165	0.282911
C74	C	0.954359	0.003168	0.616244
C75	C	1.287693	0.336501	0.949577
C76	C	0.691713	-0.330160	0.282905
C77	C	1.025047	0.003173	0.616238
C78	C	1.358380	0.336506	0.949572
C79	C	0.335953	-0.330183	0.282933
C80	C	0.669286	0.003151	0.616266
C81	C	1.002619	0.336484	0.949600
C82	C	0.265261	-0.330193	0.282941
C83	C	0.598594	0.003140	0.616274
C84	C	0.931927	0.336474	0.949607
C85	C	0.265277	-0.431426	0.369356
C86	C	0.598610	-0.098093	0.702690
C87	C	0.931943	0.235241	1.036023
C88	C	0.335964	-0.431421	0.369351
C89	C	0.669297	-0.098088	0.702684
C90	C	1.002631	0.235246	1.036017
C91	C	0.371298	-0.380794	0.326141
C92	C	0.704632	-0.047461	0.659474
C93	C	1.037965	0.285872	0.992808
C94	C	0.447947	-0.380792	0.326132
C95	C	0.781280	-0.047459	0.659465
C96	C	1.114613	0.285874	0.992799
C97	C	0.509038	-0.380795	0.326128
C98	C	0.842372	-0.047462	0.659462
C99	C	1.175705	0.285872	0.992795
C100	C	1.021504	-1.045418	0.369501
C101	C	1.354838	-0.712084	0.702834
C102	C	1.688171	-0.378751	1.036168
C103	C	0.934983	-1.045551	0.282846
C104	C	1.268316	-0.712218	0.616179
C105	C	1.601650	-0.378885	0.949513
C106	C	0.934958	-0.963005	0.282831
C107	C	1.268291	-0.629672	0.616164
C108	C	1.601625	-0.296339	0.949497
C109	C	0.978206	-0.921662	0.326152
C110	C	1.311539	-0.588328	0.659485
C111	C	1.644873	-0.254995	0.992818
C112	C	1.021479	-0.962864	0.369488
C113	C	1.354812	-0.629531	0.702821
C114	C	1.688146	-0.296197	1.036155
C115	C	0.891681	-0.921797	0.239500
C116	C	1.225014	-0.588464	0.572833
C117	C	1.558347	-0.255130	0.906166
C118	C	0.891653	-0.839246	0.239483
C119	C	1.224987	-0.505913	0.572816
C120	C	1.558320	-0.172579	0.906150
C121	C	0.934905	-0.797901	0.282801
C122	C	1.268239	-0.464568	0.616134
C123	C	1.601572	-0.131234	0.949468
C124	C	0.978181	-0.839108	0.326139
C125	C	1.311514	-0.505775	0.659472
C126	C	1.644847	-0.172442	0.992806
C127	C	1.021429	-0.797765	0.369460
C128	C	1.354762	-0.464431	0.702793
C129	C	1.688095	-0.131098	1.036127
C130	C	1.064708	-0.838971	0.412795
C131	C	1.398042	-0.505637	0.746128
C132	C	1.731375	-0.172304	1.079461
C133	C	1.064731	-0.921519	0.412806
C134	C	1.398064	-0.588186	0.746140
C135	C	1.731398	-0.254852	1.079473
C136	C	0.934882	-0.715352	0.282790
C137	C	1.268216	-0.382019	0.616123
C138	C	1.601549	-0.048686	0.949456
C139	C	1.021404	-0.715211	0.369447
C140	C	1.354737	-0.381878	0.702780
C141	C	1.688070	-0.048544	1.036114
C142	C	1.154692	-0.380802	0.326146
C143	C	1.488025	-0.047468	0.659479
C144	C	1.821359	0.285865	0.992812
C145	C	1.229924	-0.380808	0.326155
C146	C	1.563257	-0.047475	0.659489
C147	C	1.896590	0.285858	0.992822
C148	C	0.978187	-0.380736	0.502666
C149	C	1.311520	-0.047403	0.835999
C150	C	1.644854	0.285930	1.169333
C151	C	0.978203	-0.380715	0.577898
C152	C	1.311537	-0.047382	0.911231
C153	C	1.644870	0.285952	1.244565
C154	C	0.978224	-0.174618	0.326163
C155	C	1.311558	0.158716	0.659496
C156	C	1.644891	0.492049	0.992830
C157	C	0.978256	-0.086761	0.326180
C158	C	1.311590	0.246572	0.659513
C159	C	1.644923	0.579906	0.992847
C160	C	0.978150	-0.380779	0.150267
C161	C	1.311484	-0.047445	0.483601
C162	C	1.644817	0.285888	0.816934
C163	C	0.978265	-0.380577	0.075036
C164	C	1.311599	-0.047244	0.408369
C165	C	1.644932	0.286090	0.741702
C166	C	1.021513	-0.330161	0.613259
C167	C	1.354846	0.003172	0.946592
C168	C	1.688180	0.336505	1.279925
C169	C	1.021520	-0.330138	0.683947
C170	C	1.354853	0.003195	1.017280
C171	C	1.688187	0.336528	1.350614
C172	C	0.978220	-0.380674	0.719274
C173	C	1.311553	-0.047340	1.052607
C174	C	1.644887	0.285993	1.385940
C175	C	0.934905	-0.431230	0.683908
C176	C	1.268239	-0.097896	1.017242
C177	C	1.601572	0.235437	1.350575
C178	C	0.934896	-0.431248	0.613221
C179	C	1.268229	-0.097915	0.946555
C180	C	1.601562	0.235419	1.279888
C181	C	0.934944	-0.431156	0.968982
C182	C	1.268277	-0.097823	1.302315
C183	C	1.601610	0.235511	1.635648
C184	C	0.934958	-0.431135	1.039674
C185	C	1.268292	-0.097802	1.373007
C186	C	1.601625	0.235531	1.706341
C187	C	1.021568	-0.330046	1.039708
C188	C	1.354901	0.003287	1.373041
C189	C	1.688235	0.336620	1.706374
C190	C	1.021558	-0.330065	0.969021
C191	C	1.354892	0.003269	1.302354
C192	C	1.688225	0.336602	1.635687
C193	C	0.978241	-0.380617	0.933661
C194	C	1.311575	-0.047284	1.266995
C195	C	1.644908	0.286049	1.600328
C196	C	0.978234	-0.380641	0.857013
C197	C	1.311567	-0.047307	1.190346
C198	C	1.644900	0.286026	1.523679
C199	C	0.978231	-0.380655	0.795921
C200	C	1.311564	-0.047322	1.129254
C201	C	1.644898	0.286012	1.462588
H202	H	0.592270	-0.472623	0.404514
H203	H	0.925603	-0.139290	0.737847
H204	H	1.258937	0.194043	1.071181
H205	H	1.056820	-0.288916	0.940261
H206	H	1.390153	0.044417	1.273594
H207	H	1.723486	0.377750	1.606928
H208	H	1.099918	-0.805299	0.448070
H209	H	1.433251	-0.471966	0.781403
H210	H	1.766585	-0.138632	1.114737
H211	H	0.236499	-0.472646	0.404542
H212	H	0.569832	-0.139313	0.737876
H213	H	0.903166	0.194021	1.071209
H214	H	0.236479	-0.288972	0.247758
H215	H	0.569813	0.044361	0.581091
H216	H	0.903146	0.377695	0.914424
C217	C	0.730585	-0.274481	0.235375
C218	C	1.063919	0.058852	0.568708
C219	C	1.397252	0.392185	0.902041
H220	H	0.777747	-0.281721	0.241564
H221	H	1.111080	0.051612	0.574897
H222	H	1.444414	0.384945	0.908230
H223	H	0.718981	-0.285976	0.189880
H224	H	1.052314	0.047357	0.523213
H225	H	1.385648	0.380690	0.856547
H226	H	0.719017	-0.221387	0.245369
H227	H	1.052350	0.111946	0.578703
H228	H	1.385683	0.445280	0.912036
H229	H	1.056836	-0.288881	1.068506
H230	H	1.390170	0.044452	1.401839
H231	H	1.723503	0.377785	1.735172
H232	H	1.099966	-0.955076	0.448088
H233	H	1.433300	-0.621743	0.781421
H234	H	1.766633	-0.288409	1.114754
H235	H	0.592237	-0.288951	0.247735
H236	H	0.925570	0.044382	0.581069
H237	H	1.258904	0.377716	0.914402
H238	H	0.899695	-0.472289	1.068435
H239	H	1.233029	-0.138955	1.401768
H240	H	1.566362	0.194378	1.735102
H241	H	1.056743	-1.078971	0.404781
H242	H	1.390076	-0.745638	0.738115
H243	H	1.723410	-0.412304	1.071448
H244	H	0.720504	-0.472621	0.404499
H245	H	1.053837	-0.139288	0.737832
H246	H	1.387170	0.194046	1.071166
C247	C	0.374812	-0.274509	0.235393
C248	C	0.708145	0.058824	0.568726
C249	C	1.041478	0.392157	0.902059
H250	H	0.343632	-0.244377	0.209656
H251	H	0.676965	0.088957	0.542989
H252	H	1.010298	0.422290	0.876323
H253	H	0.402410	-0.240101	0.261325
H254	H	0.735743	0.093232	0.594659
H255	H	1.069076	0.426565	0.927992
H256	H	0.402363	-0.304710	0.205852
H257	H	0.735696	0.028623	0.539186
H258	H	1.069029	0.361957	0.872519
H259	H	0.899621	-0.472406	0.584432
H260	H	1.232955	-0.139073	0.917765
H261	H	1.566288	0.194261	1.251098
C262	C	1.068971	-0.669739	0.417107
C263	C	1.402305	-0.336406	0.750441
C264	C	1.735638	-0.003073	1.083774
H265	H	1.094743	-0.706104	0.442920
H266	H	1.428076	-0.372771	0.776253
H267	H	1.761409	-0.039438	1.109587
H268	H	1.098468	-0.637525	0.391245
H269	H	1.431802	-0.304191	0.724579
H270	H	1.765135	0.029142	1.057912
H271	H	1.043042	-0.637544	0.446572
H272	H	1.376375	-0.304211	0.779905
H273	H	1.709709	0.029123	1.113239
C274	C	0.887416	-1.091027	0.235196
C275	C	1.220750	-0.757693	0.568529
C276	C	1.554083	-0.424360	0.901862
H277	H	0.893632	-1.146091	0.241407
H278	H	1.226965	-0.812758	0.574740
H279	H	1.560299	-0.479424	0.908074
H280	H	0.841928	-1.077528	0.245050
H281	H	1.175261	-0.744195	0.578384
H282	H	1.508595	-0.410862	0.911717
H283	H	0.897354	-1.077526	0.189724
H284	H	1.230687	-0.744193	0.523057
H285	H	1.564021	-0.410859	0.856390
C286	C	0.844117	-0.967274	0.191847
C287	C	1.177450	-0.633941	0.525181
C288	C	1.510784	-0.300607	0.858514
H289	H	0.850339	-1.022338	0.198055
H290	H	1.183672	-0.689005	0.531388
H291	H	1.517005	-0.355672	0.864722
H292	H	0.798627	-0.953784	0.201703
H293	H	1.131961	-0.620450	0.535037
H294	H	1.465294	-0.287117	0.868370
H295	H	0.854053	-0.953768	0.146376
H296	H	1.187386	-0.620434	0.479710
H297	H	1.520720	-0.287101	0.813043
C298	C	0.374850	-0.487107	0.416864
C299	C	0.708184	-0.153774	0.750198
C300	C	1.041517	0.179560	1.083531
H301	H	0.422010	-0.479862	0.410665
H302	H	0.755343	-0.146529	0.743998
H303	H	1.088676	0.186805	1.077331
H304	H	0.363294	-0.475622	0.462363
H305	H	0.696627	-0.142289	0.795697
H306	H	1.029961	0.191045	1.129030
H307	H	0.363244	-0.540200	0.406865
H308	H	0.696577	-0.206867	0.740198
H309	H	1.029910	0.126466	1.073531
H310	H	0.899642	-0.681806	0.247510
H311	H	1.232975	-0.348473	0.580843
H312	H	1.566309	-0.015140	0.914177
C313	C	0.844056	-0.793927	0.191811
C314	C	1.177389	-0.460593	0.525145
C315	C	1.510722	-0.127260	0.858478
H316	H	0.818307	-0.830373	0.166010
H317	H	1.151640	-0.497040	0.499343
H318	H	1.484973	-0.163707	0.832677
H319	H	0.814539	-0.761723	0.217665
H320	H	1.147872	-0.428390	0.550998
H321	H	1.481206	-0.095057	0.884331
H322	H	0.869964	-0.761732	0.162336
H323	H	1.203297	-0.428398	0.495670
H324	H	1.536630	-0.095065	0.829003
C325	C	0.887284	-0.486745	0.930095
C326	C	1.220617	-0.153412	1.263429
C327	C	1.553950	0.179922	1.596762
H328	H	0.861499	-0.516837	0.961261
H329	H	1.194832	-0.183504	1.294594
H330	H	1.528165	0.149829	1.627927
H331	H	0.857804	-0.456495	0.902531
H332	H	1.191137	-0.123162	1.235864
H333	H	1.524470	0.210171	1.569198
H334	H	0.913144	-0.521206	0.902509
H335	H	1.246477	-0.187873	1.235842
H336	H	1.579811	0.145461	1.569176
H337	H	1.056775	-0.289012	0.584501
H338	H	1.390108	0.044321	0.917834
H339	H	1.723442	0.377655	1.251167
H340	H	1.056789	-0.288975	0.712734
H341	H	1.390122	0.044359	1.046068
H342	H	1.723456	0.377692	1.379401
C343	C	0.887277	-0.486818	0.722766
C344	C	1.220610	-0.153485	1.056099
C345	C	1.553944	0.179849	1.389432
H346	H	0.893490	-0.479574	0.769929
H347	H	1.226824	-0.146240	1.103263
H348	H	1.560157	0.187093	1.436596
H349	H	0.841802	-0.475251	0.711176
H350	H	1.175136	-0.141918	1.044509
H351	H	1.508469	0.191416	1.377843
H352	H	0.897167	-0.539933	0.711170
H353	H	1.230500	-0.206600	1.044504
H354	H	1.563834	0.126734	1.377837
