data_functionalizedCrystal
_audit_creation_method	'MofGen! by Chris Wilmer'
_symmetry_space_group_name_H-M	'P1'
_symmetry_Int_Tables_number	1
_symmetry_cell_setting	triclinic
loop_
_symmetry_equiv_pos_as_xyz
  x,y,z
_cell_length_a	17.640112
_cell_length_b	17.637651
_cell_length_c	18.215399
_cell_angle_alpha	101.243683
_cell_angle_beta	78.824100
_cell_angle_gamma	114.329102
loop_
_atom_site_label
_atom_site_type_symbol
_atom_site_fract_x
_atom_site_fract_y
_atom_site_fract_z
Zn1	Zn	1.193556	-0.073150	0.178028
Zn2	Zn	1.693556	0.426850	0.678028
Zn3	Zn	1.165612	-0.211026	0.034236
Zn4	Zn	1.665612	0.288974	0.534236
Zn5	Zn	1.055742	-0.101073	0.075614
Zn6	Zn	1.555742	0.398927	0.575614
Zn7	Zn	1.027877	-0.238863	0.177901
Zn8	Zn	1.527877	0.261137	0.677901
O9	O	1.110697	-0.156028	0.116445
O10	O	1.610697	0.343972	0.616445
O11	O	1.305167	-0.068103	0.141690
O12	O	1.805167	0.431897	0.641690
O13	O	1.151004	-0.196476	-0.063260
O14	O	1.651004	0.303524	0.436740
O15	O	1.097379	0.017998	0.106569
O16	O	1.597379	0.517998	0.606569
O17	O	1.284637	-0.169400	0.036047
O18	O	1.784637	0.330600	0.536047
O19	O	1.198631	0.038513	0.181812
O20	O	1.698631	0.538513	0.681812
O21	O	1.070283	-0.115695	-0.032860
O22	O	1.570283	0.384305	0.467140
O23	O	0.936727	-0.142688	0.106446
O24	O	1.436727	0.357312	0.606446
O25	O	1.049888	-0.216845	0.280903
O26	O	1.549888	0.283155	0.780903
O27	O	0.916255	-0.243922	0.181596
O28	O	1.416255	0.256078	0.681596
O29	O	1.171611	-0.095096	0.280996
O30	O	1.671611	0.404904	0.780996
O31	O	1.123985	-0.330086	0.035924
O32	O	1.623985	0.169914	0.535924
O33	O	1.022792	-0.350538	0.141473
O34	O	1.522792	0.149462	0.641473
C35	C	0.896590	-0.199356	0.148497
C36	C	1.396590	0.300644	0.648497
C37	C	0.804991	-0.217912	0.162224
C38	C	1.304991	0.282088	0.662224
C39	C	0.556987	-0.015048	0.012172
C40	C	1.056987	0.484952	0.512172
C41	C	0.470912	-0.032500	0.025078
C42	C	0.970912	0.467500	0.525078
C43	C	0.449619	-0.138060	0.103147
C44	C	0.949619	0.361940	0.603147
C45	C	0.535695	-0.120614	0.090251
C46	C	1.035695	0.379386	0.590251
C47	C	0.589372	-0.059107	0.044762
C48	C	1.089372	0.440893	0.544762
C49	C	0.568080	-0.164673	0.122841
C50	C	1.068080	0.335327	0.622841
C51	C	0.654148	-0.147231	0.109942
C52	C	1.154148	0.352769	0.609942
C53	C	0.707830	-0.085729	0.064454
C54	C	1.207830	0.414271	0.564454
C55	C	0.675440	-0.041665	0.031864
C56	C	1.175440	0.458335	0.531864
C57	C	0.514400	-0.226183	0.168326
C58	C	1.014400	0.273817	0.668326
C59	C	0.546786	-0.270243	0.200915
C60	C	1.046786	0.229757	0.700915
C61	C	0.632855	-0.252797	0.188021
C62	C	1.132855	0.247203	0.688021
C63	C	0.686538	-0.191295	0.142533
C64	C	1.186538	0.308705	0.642533
C65	C	0.665246	-0.296861	0.220612
C66	C	1.165246	0.203139	0.720612
C67	C	0.751313	-0.279418	0.207713
C68	C	1.251313	0.220582	0.707713
C69	C	0.772605	-0.173852	0.129634
C70	C	1.272605	0.326148	0.629634
C71	C	1.067355	-0.370221	0.084207
C72	C	1.567355	0.129779	0.584207
C73	C	1.048888	-0.461838	0.070430
C74	C	1.548888	0.038162	0.570430
C75	C	1.251520	-0.709499	0.221265
C76	C	1.751520	-0.209499	0.721265
C77	C	1.234142	-0.795592	0.208310
C78	C	1.734142	-0.295592	0.708310
C79	C	1.128779	-0.817048	0.129858
C80	C	1.628779	-0.317048	0.629858
C81	C	1.146151	-0.730954	0.142804
C82	C	1.646151	-0.230954	0.642804
C83	C	1.207522	-0.677186	0.188509
C84	C	1.707522	-0.177186	0.688509
C85	C	1.102153	-0.698641	0.110047
C86	C	1.602153	-0.198641	0.610047
C87	C	1.119521	-0.612555	0.122995
C88	C	1.619521	-0.112555	0.622995
C89	C	1.180887	-0.558782	0.168700
C90	C	1.680887	-0.058782	0.668700
C91	C	1.224890	-0.591100	0.201457
C92	C	1.724890	-0.091100	0.701457
C93	C	1.040778	-0.752411	0.064346
C94	C	1.540778	-0.252411	0.564346
C95	C	0.996780	-0.720098	0.031590
C96	C	1.496780	-0.220098	0.531590
C97	C	1.014152	-0.634010	0.044533
C98	C	1.514152	-0.134010	0.544533
C99	C	1.075518	-0.580237	0.090238
C100	C	1.575518	-0.080237	0.590238
C101	C	0.970149	-0.601692	0.011776
C102	C	1.470149	-0.101692	0.511776
C103	C	0.987518	-0.515606	0.024724
C104	C	1.487518	-0.015606	0.524724
C105	C	1.092886	-0.494151	0.103186
C106	C	1.592886	0.005849	0.603186
C107	C	1.325639	-0.112532	0.084267
C108	C	1.825639	0.387468	0.584267
C109	C	1.417235	-0.093996	0.070555
C110	C	1.917235	0.406004	0.570555
C111	C	1.110758	-0.155961	0.308399
C112	C	1.610758	0.344039	0.808399
C113	C	1.110785	-0.155933	0.390198
C114	C	1.610785	0.344067	0.890198
C115	C	1.154230	0.059005	0.148820
C116	C	1.654230	0.559005	0.648820
C117	C	1.172782	0.150640	0.162617
C118	C	1.672782	0.650640	0.662617
C119	C	1.110695	-0.156026	-0.074761
C120	C	1.610695	0.343974	0.425239
C121	C	1.110875	-0.155790	-0.156549
C122	C	1.610875	0.344210	0.343451
C123	C	1.174195	-0.092485	0.578446
C124	C	1.674195	0.407515	1.078446
C125	C	1.174210	-0.092459	0.655307
C126	C	1.674210	0.407541	1.155307
C127	C	1.047458	-0.219241	0.655198
C128	C	1.547458	0.280759	1.155198
C129	C	1.047441	-0.219263	0.578340
C130	C	1.547441	0.280737	1.078340
C131	C	1.110814	-0.155885	0.539965
C132	C	1.610814	0.344115	1.039965
C133	C	1.110846	-0.155837	0.693684
C134	C	1.610846	0.344163	1.193684
C135	C	1.110861	-0.155809	0.777020
C136	C	1.610861	0.344191	1.277020
C137	C	1.110798	-0.155912	0.456624
C138	C	1.610798	0.344088	0.956624
H139	H	0.719150	0.008432	-0.005165
H140	H	1.219150	0.508432	0.494835
H141	H	0.995864	-0.270843	0.686452
H142	H	1.495864	0.229157	1.186452
C143	C	0.977723	-0.289011	0.536006
C144	C	1.477723	0.210989	1.036006
H145	H	0.939990	-0.326761	0.569864
H146	H	1.439990	0.173239	1.069864
H147	H	0.948193	-0.264754	0.516142
H148	H	1.448193	0.235246	1.016142
H149	H	1.001979	-0.318559	0.495898
H150	H	1.501979	0.181441	0.995898
C151	C	0.929276	-0.779243	-0.018682
C152	C	1.429276	-0.279243	0.481318
H153	H	0.905556	-0.747667	-0.036333
H154	H	1.405556	-0.247667	0.463667
H155	H	0.954044	-0.806443	-0.060496
H156	H	1.454044	-0.306443	0.439504
H157	H	0.886569	-0.820100	0.009775
H158	H	1.386569	-0.320100	0.509775
C159	C	0.606207	-0.364472	0.270689
C160	C	1.106207	0.135528	0.770689
H161	H	0.637824	-0.388205	0.288262
H162	H	1.137824	0.111795	0.788262
H163	H	0.579041	-0.339741	0.312557
H164	H	1.079041	0.160259	0.812557
H165	H	0.565343	-0.407181	0.242148
H166	H	1.065343	0.092819	0.742148
H167	H	0.816316	-0.123755	0.092605
H168	H	1.316316	0.376245	0.592605
H169	H	1.225820	-0.040831	0.686636
H170	H	1.725820	0.459169	1.186636
H171	H	0.444319	-0.240383	0.178826
H172	H	0.944319	0.259617	0.678826
H173	H	0.600697	0.035049	-0.024857
H174	H	1.100697	0.535049	0.475143
C175	C	0.802504	-0.066538	0.050261
C176	C	1.302504	0.433462	0.550261
H177	H	0.829831	-0.023602	0.018498
H178	H	1.329831	0.476398	0.518498
H179	H	0.824871	-0.048399	0.096985
H180	H	1.324871	0.451601	0.596985
H181	H	0.811215	-0.115776	0.026529
H182	H	1.311215	0.384224	0.526529
H183	H	0.444550	0.003388	-0.001458
H184	H	0.944550	0.503388	0.498542
C185	C	1.292381	-0.531953	0.251749
C186	C	1.792381	-0.031953	0.751749
H187	H	1.316093	-0.563526	0.269413
H188	H	1.816093	-0.063526	0.769413
H189	H	1.335087	-0.491080	0.223314
H190	H	1.835087	0.008920	0.723314
H191	H	1.267584	-0.504774	0.293563
H192	H	1.767584	-0.004774	0.793563
C193	C	0.487738	-0.337892	0.250953
C194	C	0.987738	0.162108	0.750953
H195	H	0.431841	-0.341967	0.253973
H196	H	0.931841	0.158033	0.753973
H197	H	0.490643	-0.390409	0.229660
H198	H	0.990643	0.109591	0.729660
H199	H	0.504297	-0.323022	0.300109
H200	H	1.004297	0.176978	0.800109
C201	C	0.390571	-0.205709	0.153185
C202	C	0.890571	0.294291	0.653185
H203	H	0.334675	-0.209784	0.156205
H204	H	0.834675	0.290216	0.656205
H205	H	0.393477	-0.258227	0.131892
H206	H	0.893477	0.241773	0.631892
H207	H	0.407130	-0.190839	0.202341
H208	H	0.907130	0.309161	0.702341
H209	H	0.951689	-0.489298	-0.001949
H210	H	1.451689	0.010702	0.498051
H211	H	0.777681	-0.315295	0.234252
H212	H	1.277681	0.184705	0.734252
C213	C	0.902640	-0.660840	-0.038490
C214	C	1.402640	-0.160840	0.461510
H215	H	0.878918	-0.629266	-0.056140
H216	H	1.378918	-0.129266	0.443860
H217	H	0.927402	-0.688045	-0.080303
H218	H	1.427402	-0.188045	0.419697
H219	H	0.859936	-0.701693	-0.010027
H220	H	1.359936	-0.201693	0.489973
H221	H	1.142867	-0.450369	0.140398
H222	H	1.642867	0.049631	0.640398
H223	H	1.195028	-0.488685	0.179241
H224	H	1.695028	0.011315	0.679241
C225	C	1.243893	-0.022764	0.536240
C226	C	1.743893	0.477236	1.036240
H227	H	1.281637	0.015003	0.570171
H228	H	1.781637	0.515003	1.070171
H229	H	1.273414	-0.047034	0.496133
H230	H	1.773414	0.452966	0.996133
H231	H	1.219624	0.006767	0.516389
H232	H	1.719624	0.506767	1.016389
H233	H	1.301501	-0.665716	0.258477
H234	H	1.801501	-0.165716	0.758477
H235	H	1.269963	-0.821899	0.235000
H236	H	1.769963	-0.321899	0.735000
C237	C	1.061280	-0.876195	0.079582
C238	C	1.561280	-0.376195	0.579582
H239	H	1.057240	-0.932093	0.076557
H240	H	1.557240	-0.432093	0.576557
H241	H	1.008742	-0.873327	0.100711
H242	H	1.508742	-0.373327	0.600711
H243	H	1.076227	-0.859661	0.030449
H244	H	1.576227	-0.359661	0.530449
H245	H	1.026632	-0.822509	0.053814
H246	H	1.526632	-0.322509	0.553814
