data_functionalizedCrystal
_audit_creation_method	'MofGen! by Chris Wilmer'
_symmetry_space_group_name_H-M	'P1'
_symmetry_Int_Tables_number	1
_symmetry_cell_setting	triclinic
loop_
_symmetry_equiv_pos_as_xyz
  x,y,z
_cell_length_a	17.699083
_cell_length_b	17.000383
_cell_length_c	16.176319
_cell_angle_alpha	89.997209
_cell_angle_beta	90.000480
_cell_angle_gamma	79.441659
loop_
_atom_site_label
_atom_site_type_symbol
_atom_site_fract_x
_atom_site_fract_y
_atom_site_fract_z
O1	O	-0.997555	-0.100664	0.068621
O2	O	-0.776328	-0.113761	0.068650
O3	O	-0.900677	0.008681	0.068631
O4	O	-0.873206	-0.223105	0.068641
O5	O	-0.900663	0.008681	-0.068862
O6	O	-0.776315	-0.113760	-0.068843
O7	O	-0.997542	-0.100663	-0.068872
Cu8	Cu	-0.886927	-0.107212	-0.081412
Cu9	Cu	-0.886943	-0.107212	0.081190
O10	O	-0.873193	-0.223104	-0.068853
C11	C	-0.748155	-0.113291	-0.000093
C12	C	-0.664228	-0.111883	-0.000082
C13	C	-0.902146	0.038337	-0.000115
C14	C	-0.906533	0.126704	-0.000113
C15	C	-0.610950	-0.183754	-0.000079
C16	C	-0.532093	-0.182426	-0.000089
C17	C	-0.506515	-0.109227	-0.000096
C18	C	-0.559799	-0.037351	-0.000102
C19	C	-0.638655	-0.038680	-0.000098
C20	C	-0.241783	-0.031992	-0.000120
C21	C	-0.162921	-0.030669	-0.000122
C22	C	-0.135221	-0.175739	-0.000111
C23	C	-0.214077	-0.177067	-0.000107
C24	C	-0.267354	-0.105192	-0.000117
C25	C	-0.352860	-0.106632	-0.000108
C26	C	-0.421011	-0.107786	-0.000100
C27	C	-0.025715	-0.101133	-0.000125
C28	C	-0.109642	-0.102541	-0.000124
C29	C	-0.871724	-0.252761	-0.000105
C30	C	-0.867337	-0.341128	-0.000102
C31	C	-0.934861	0.626976	-0.000113
C32	C	-0.930733	0.543945	-0.000118
C33	C	-0.859080	0.492812	-0.000105
C34	C	-0.791551	0.524713	-0.000095
C35	C	-0.795680	0.607742	-0.000097
C36	C	-0.843133	0.241635	-0.000105
C37	C	-0.839009	0.158600	-0.000101
C38	C	-0.978191	0.177838	-0.000125
C39	C	-0.982313	0.260868	-0.000122
C40	C	-0.914785	0.292762	-0.000117
C41	C	-0.854859	0.407940	-0.000107
C42	C	-0.919007	0.377632	-0.000121
N43	N	-0.886921	-0.107211	-0.195777
C44	C	-0.929611	-0.155433	-0.239042
C45	C	-0.929620	-0.155430	-0.325589
C46	C	-0.886933	-0.107209	-0.368870
C47	C	-0.844241	-0.058981	-0.325599
C48	C	-0.844238	-0.058981	-0.239053
C49	C	-0.844255	-0.058982	-0.674627
C50	C	-0.844260	-0.058988	-0.761179
C51	C	-0.929637	-0.155431	-0.761163
C52	C	-0.929634	-0.155431	-0.674617
C53	C	-0.886945	-0.107201	-0.631354
C54	C	-0.886938	-0.107203	-0.537510
C55	C	-0.886935	-0.107210	-0.462712
N56	N	-0.886955	-0.107207	0.195555
H57	H	-0.631769	-0.243361	-0.000072
O58	O	-0.474626	-0.259942	-0.000086
H59	H	-0.505660	-0.311065	-0.000070
O60	O	-0.798242	-0.006952	-0.807866
H61	H	-0.768570	0.026599	-0.763243
H62	H	-0.234897	-0.236673	-0.000097
H63	H	-0.809496	-0.019710	-0.639412
O64	O	-0.975666	-0.207441	-0.372252
H65	H	-0.936533	-0.250266	-0.411688
O66	O	-0.077759	-0.253267	-0.000118
H67	H	-0.018627	-0.240051	-0.000135
H68	H	-0.285153	0.026533	-0.000129
O69	O	-0.975672	-0.207441	-0.627933
H70	H	-1.005365	-0.240969	-0.672559
H71	H	-0.142100	0.028941	-0.000129
H72	H	-0.740695	0.633710	-0.000094
H73	H	-0.538968	0.022249	-0.000120
H74	H	-0.993208	0.668604	-0.000117
O75	O	-0.777578	0.352786	-0.000092
H76	H	-0.745006	0.364107	0.055952
O77	O	-0.975698	-0.207439	-0.807823
H78	H	-0.968542	-0.199332	-0.875275
O79	O	-0.798196	-0.006971	-0.372274
H80	H	-0.805362	-0.015079	-0.439724
H81	H	-0.682034	0.019845	-0.000100
O82	O	-1.059599	0.316014	-0.000132
H83	H	-1.051125	0.379108	-0.000121
H84	H	-0.809474	-0.019714	-0.203828
H85	H	-0.985718	0.517980	-0.000128
O86	O	-1.051024	0.143440	-0.000140
H87	H	-1.036119	0.077115	-0.000143
O88	O	-0.761723	0.103444	-0.000095
H89	H	-0.715459	0.139570	-0.000100
H90	H	-0.733210	0.483073	-0.000089
O91	O	-0.770302	0.276032	-0.000097
H92	H	-0.719786	0.226524	-0.000080
H93	H	-0.977346	0.419268	-0.000135
H94	H	-0.964367	-0.194705	-0.203809
