data_functionalizedCrystal
_audit_creation_method	'MofGen! by Chris Wilmer'
_symmetry_space_group_name_H-M	'P1'
_symmetry_Int_Tables_number	1
_symmetry_cell_setting	triclinic
loop_
_symmetry_equiv_pos_as_xyz
  x,y,z
_cell_length_a	16.992695
_cell_length_b	16.109302
_cell_length_c	14.586319
_cell_angle_alpha	90.002225
_cell_angle_beta	90.006633
_cell_angle_gamma	87.065002
loop_
_atom_site_label
_atom_site_type_symbol
_atom_site_fract_x
_atom_site_fract_y
_atom_site_fract_z
O1	O	0.100790	1.109852	0.076283
O2	O	0.600790	1.609852	0.576283
O3	O	0.113331	0.868627	0.076276
O4	O	0.613331	1.368627	0.576276
O5	O	-0.007082	0.988272	0.076272
O6	O	0.492918	1.488272	0.576272
O7	O	0.221203	0.990206	0.076287
O8	O	0.721203	1.490206	0.576287
O9	O	-0.007090	0.988271	-0.076209
O10	O	0.492910	1.488271	0.423791
O11	O	0.113323	0.868626	-0.076205
O12	O	0.613323	1.368626	0.423795
O13	O	0.100782	1.109851	-0.076198
O14	O	0.600782	1.609851	0.423802
Cu15	Cu	0.107052	0.989238	-0.090124
Cu16	Cu	0.607052	1.489238	0.409876
Cu17	Cu	0.107061	0.989239	0.090202
Cu18	Cu	0.607061	1.489239	0.590202
O19	O	0.221195	0.990205	-0.076194
O20	O	0.721195	1.490205	0.423806
C21	C	0.112819	0.837618	0.000034
C22	C	0.612819	1.337618	0.500034
C23	C	0.111296	0.745221	0.000031
C24	C	0.611296	1.245221	0.500031
C25	C	0.107769	0.532644	-0.083077
C26	C	0.607769	1.032644	0.416923
C27	C	0.106329	0.445828	-0.083074
C28	C	0.606329	0.945828	0.416926
C29	C	0.106342	0.445840	0.083169
C30	C	0.606342	0.945840	0.583169
C31	C	0.107776	0.532655	0.083165
C32	C	0.607776	1.032655	0.583165
C33	C	0.108493	0.576054	0.000039
C34	C	0.608493	1.076054	0.500039
C35	C	0.105619	0.402423	0.000046
C36	C	0.605619	0.902423	0.500046
C37	C	0.104058	0.308293	0.000050
C38	C	0.604058	0.808293	0.500050
C39	C	0.110053	0.670190	0.000035
C40	C	0.610053	1.170190	0.500035
C41	C	-0.036298	0.985784	0.000032
C42	C	0.463702	1.485784	0.500032
C43	C	-0.123340	0.978360	0.000032
C44	C	0.376660	1.478360	0.500032
C45	C	-0.173599	1.049986	0.000033
C46	C	0.326401	1.549986	0.500033
C47	C	-0.255384	1.043006	0.000041
C48	C	0.244616	1.543006	0.500041
C49	C	-0.286908	0.964400	0.000042
C50	C	0.213092	1.464400	0.500042
C51	C	-0.236643	0.892768	0.000044
C52	C	0.263357	1.392768	0.500044
C53	C	-0.154860	0.899749	0.000042
C54	C	0.345140	1.399749	0.500042
C55	C	-0.530499	0.935467	0.000054
C56	C	-0.030499	1.435467	0.500054
C57	C	-0.612288	0.928491	0.000053
C58	C	-0.112288	1.428491	0.500053
C59	C	-0.631023	1.078730	0.000052
C60	C	-0.131023	1.578730	0.500052
C61	C	-0.549237	1.085704	0.000045
C62	C	-0.049237	1.585704	0.500045
C63	C	-0.498980	1.014073	0.000051
C64	C	0.001020	1.514073	0.500051
N65	N	-0.370505	0.957263	0.000048
N66	N	0.129495	1.457263	0.500048
N67	N	-0.415384	1.021210	0.000052
N68	N	0.084616	1.521210	0.500052
C69	C	0.250411	0.992694	0.000048
C70	C	0.750411	1.492694	0.500048
C71	C	0.337453	1.000117	0.000054
C72	C	0.837453	1.500117	0.500054
C73	C	0.101294	1.140860	0.000045
C74	C	0.601294	1.640860	0.500045
C75	C	0.102817	1.233257	0.000054
C76	C	0.602817	1.733257	0.500054
N77	N	0.107062	0.989240	0.217034
N78	N	0.607062	1.489240	0.717034
C79	C	0.053847	1.042334	0.452039
C80	C	0.553847	1.542334	0.952039
C81	C	0.053846	1.042336	0.548020
C82	C	0.553846	1.542336	1.048020
C83	C	0.160268	0.936143	0.548032
C84	C	0.660268	1.436143	1.048032
C85	C	0.160273	0.936146	0.452053
C86	C	0.660273	1.436146	0.952053
C87	C	0.107058	0.989240	0.404058
C88	C	0.607058	1.489240	0.904058
C89	C	0.107052	0.989239	0.596019
C90	C	0.607052	1.489239	1.096019
C91	C	0.107050	0.989241	0.700086
C92	C	0.607050	1.489241	1.200086
C93	C	0.107060	0.989240	0.299985
C94	C	0.607060	1.489240	0.799985
N95	N	0.107047	0.989239	0.783044
N96	N	0.607047	1.489239	1.283044
H97	H	0.105739	0.410487	-0.150755
H98	H	0.605739	0.910487	0.349245
H99	H	-0.296301	1.101332	0.000040
H100	H	0.203699	1.601332	0.500040
H101	H	0.010517	1.085568	0.412964
H102	H	0.510517	1.585568	0.912964
Cl103	Cl	0.227161	0.869395	0.608373
Cl104	Cl	0.727161	1.369395	1.108373
Cl105	Cl	-0.013050	1.109088	0.608334
Cl106	Cl	0.486950	1.609088	1.108334
Cl107	Cl	-0.651917	0.829664	0.000049
Cl108	Cl	-0.151917	1.329664	0.500049
Cl109	Cl	0.105421	0.391276	0.187664
Cl110	Cl	0.605421	0.891276	0.687664
H111	H	0.203607	0.892910	0.412985
H112	H	0.703607	1.392910	0.912985
H113	H	0.108364	0.568000	0.150852
H114	H	0.608364	1.068000	0.650852
H115	H	-0.523577	1.149714	0.000044
H116	H	-0.023577	1.649714	0.500044
Cl117	Cl	0.108666	0.587201	-0.187577
Cl118	Cl	0.608666	1.087201	0.312423
H119	H	-0.147938	1.113997	0.000026
H120	H	0.352062	1.613997	0.500026
H121	H	-0.262317	0.828765	0.000050
H122	H	0.237683	1.328765	0.500050
Cl123	Cl	-0.694208	1.168775	0.000047
Cl124	Cl	-0.194208	1.668775	0.500047
Cl125	Cl	-0.091677	0.809701	0.000044
Cl126	Cl	0.408323	1.309701	0.500044
H127	H	-0.489588	0.877139	0.000059
H128	H	0.010412	1.377139	0.500059
