data_functionalizedCrystal
_audit_creation_method	'MofGen! by Chris Wilmer'
_symmetry_space_group_name_H-M	'P1'
_symmetry_Int_Tables_number	1
_symmetry_cell_setting	triclinic
loop_
_symmetry_equiv_pos_as_xyz
  x,y,z
_cell_length_a	12.827893
_cell_length_b	29.839131
_cell_length_c	12.827885
_cell_angle_alpha	90.044475
_cell_angle_beta	90.019081
_cell_angle_gamma	90.035200
loop_
_atom_site_label
_atom_site_type_symbol
_atom_site_fract_x
_atom_site_fract_y
_atom_site_fract_z
Zn1	Zn	1.597526	-0.178832	0.590737
Zn2	Zn	1.597359	-0.253969	0.415952
Zn3	Zn	1.422767	-0.178854	0.416011
Zn4	Zn	1.422692	-0.253936	0.590653
O5	O	1.510086	-0.216398	0.503338
O6	O	1.743739	-0.188804	0.567562
O7	O	1.574161	-0.244028	0.269724
O8	O	1.446050	-0.115984	0.439248
O9	O	1.743617	-0.244007	0.439148
O10	O	1.574445	-0.115968	0.567619
O11	O	1.445889	-0.188841	0.269767
O12	O	1.276521	-0.188809	0.439167
O13	O	1.445922	-0.243950	0.736900
O14	O	1.276466	-0.243971	0.567476
O15	O	1.574372	-0.188771	0.736962
O16	O	1.574088	-0.316832	0.439067
O17	O	1.445761	-0.316807	0.567419
C18	C	1.238576	-0.216389	0.503319
C19	C	1.122423	-0.216396	0.503336
C20	C	1.070578	-0.243670	0.439708
C21	C	0.950528	-0.243678	0.439724
C22	C	1.509926	-0.333120	0.503250
C23	C	1.509954	-0.383055	0.503247
C24	C	1.576926	-0.692655	0.570276
C25	C	1.577040	-0.880328	0.570339
O26	O	1.633826	-0.904556	0.627263
N27	N	1.510263	-0.903840	0.503454
C28	C	1.443449	-0.880430	0.436554
O29	O	1.386647	-0.904735	0.379674
C30	C	1.443331	-0.692758	0.436497
C31	C	1.510119	-0.669249	0.503379
C32	C	1.643708	-0.669145	0.637153
C33	C	1.643683	-0.622230	0.637132
C34	C	1.576876	-0.598824	0.570235
C35	C	1.510094	-0.622333	0.503358
C36	C	1.376512	-0.669350	0.369603
C37	C	1.376487	-0.622429	0.369597
C38	C	1.443275	-0.598919	0.436478
C39	C	1.443262	-0.552012	0.436441
N40	N	1.510039	-0.528500	0.503325
C41	C	1.576846	-0.551906	0.570222
C42	C	1.443517	-0.978961	0.436587
C43	C	1.443548	-1.025879	0.436600
C44	C	1.577137	-1.025773	0.570386
C45	C	1.577111	-0.978854	0.570367
C46	C	1.510293	-0.955449	0.503471
C47	C	1.576789	-0.453380	0.570174
C48	C	1.576761	-0.406461	0.570144
C49	C	1.443168	-0.406571	0.436363
C50	C	1.443199	-0.453486	0.436388
C51	C	1.510013	-0.476890	0.503302
O52	O	1.386498	-0.527755	0.379554
O53	O	1.633623	-0.527593	0.627110
C54	C	1.576951	-0.739570	0.570296
C55	C	1.510169	-0.763080	0.503419
C56	C	1.443362	-0.739674	0.436522
C57	C	1.510200	-0.809997	0.503432
C58	C	1.577007	-0.833403	0.570329
C59	C	1.643783	-0.809892	0.637214
C60	C	1.643758	-0.762976	0.637193
C61	C	1.376586	-0.763186	0.369638
C62	C	1.376617	-0.810101	0.369663
C63	C	1.443424	-0.833507	0.436560
C64	C	1.782656	-0.216407	0.503358
C65	C	1.898809	-0.216410	0.503366
C66	C	1.510157	-0.216354	0.775908
C67	C	1.510187	-0.216336	0.892062
C68	C	1.510274	-0.099219	0.503449
C69	C	1.510355	-0.049285	0.503497
C70	C	1.510075	-0.216408	0.231828
C71	C	1.510247	-0.216300	0.115676
C72	C	1.573755	-0.189027	0.943877
C73	C	1.573788	-0.189007	1.063927
H74	H	1.631151	-0.387321	0.624607
H75	H	0.905942	-0.267028	0.385248
H76	H	0.943388	-0.193057	0.557838
H77	H	1.698065	-0.603091	0.691596
O78	O	1.069241	-0.188608	0.568392
C79	C	0.946006	-0.182694	0.709457
C80	C	1.006146	-0.214216	0.635828
H81	H	0.894995	-0.203386	0.764012
H82	H	0.894835	-0.159210	0.661605
H83	H	1.003731	-0.162147	0.757313
H84	H	0.948495	-0.234792	0.587956
H85	H	1.057332	-0.237670	0.683740
H86	H	1.631188	-0.472430	0.624669
H87	H	1.115068	-0.267016	0.385227
O88	O	1.708711	-0.691808	0.702173
C89	C	1.841178	-0.686735	0.834897
C90	C	1.767620	-0.661019	0.761300
H91	H	1.888809	-0.661854	0.882736
H92	H	1.895937	-0.708684	0.787025
H93	H	1.793183	-0.708712	0.889468
H94	H	1.815531	-0.639018	0.706714
H95	H	1.712858	-0.639098	0.809237
O96	O	1.642014	-0.956088	0.635442
C97	C	1.774559	-0.960948	0.768099
C98	C	1.701094	-0.986783	0.694465
H99	H	1.822360	-0.985753	0.815823
H100	H	1.726586	-0.938995	0.822767
H101	H	1.829172	-0.938966	0.720156
H102	H	1.646466	-1.008790	0.742324
H103	H	1.749132	-1.008708	0.639794
O104	O	1.641932	-1.048583	0.635342
C105	C	1.701198	-1.120822	0.694606
C106	C	1.627761	-1.095043	0.621006
H107	H	1.689781	-1.158390	0.683026
H108	H	1.682782	-1.111607	0.778873
H109	H	1.785460	-1.111550	0.676354
H110	H	1.543474	-1.104302	0.639165
H111	H	1.646267	-1.104261	0.536762
H112	H	1.389173	-1.045016	0.382127
H113	H	1.389105	-0.959908	0.382110
H114	H	1.322126	-0.688483	0.315141
O115	O	1.311543	-0.599763	0.304515
C116	C	1.178983	-0.604824	0.171881
C117	C	1.252493	-0.630547	0.245514
H118	H	1.131207	-0.629702	0.124176
H119	H	1.226918	-0.582875	0.117196
H120	H	1.124349	-0.582848	0.219824
H121	H	1.307142	-0.652548	0.197656
H122	H	1.204493	-0.652468	0.300202
H123	H	1.388823	-0.472628	0.381919
O124	O	1.378306	-0.383760	0.371482
C125	C	1.319109	-0.311521	0.312146
C126	C	1.392606	-0.337299	0.385686
H127	H	1.330660	-0.273954	0.323588
H128	H	1.234817	-0.320735	0.330434
H129	H	1.337489	-0.320796	0.227908
H130	H	1.374320	-0.328038	0.469948
H131	H	1.476876	-0.328084	0.367308
H132	H	1.698143	-0.743838	0.691655
H133	H	1.698183	-0.828957	0.691680
O134	O	1.311636	-0.832866	0.304654
C135	C	1.179161	-0.828006	0.171927
C136	C	1.252686	-0.802172	0.245500
H137	H	1.131497	-0.803201	0.124067
H138	H	1.124432	-0.849957	0.219819
H139	H	1.227185	-0.849991	0.117375
H140	H	1.204747	-0.780162	0.300068
H141	H	1.307418	-0.780249	0.197544
O142	O	1.638690	-0.161107	0.890942
C143	C	1.771419	-0.104130	0.902281
C144	C	1.697915	-0.135719	0.962355
H145	H	1.819337	-0.083602	0.959992
H146	H	1.723469	-0.080635	0.851229
H147	H	1.825921	-0.124793	0.851134
H148	H	1.643398	-0.115092	1.013559
H149	H	1.745929	-0.159215	1.013342
O150	O	1.638617	-0.161126	1.117239
C151	C	1.697831	-0.135716	1.285503
C152	C	1.624342	-0.167308	1.225256
H153	H	1.686331	-0.140710	1.372845
H154	H	1.679545	-0.099476	1.264215
H155	H	1.782085	-0.143596	1.264040
H156	H	1.540063	-0.159469	1.246686
H157	H	1.642718	-0.203539	1.246550
H158	H	1.322182	-0.744132	0.315163
H159	H	1.455826	-0.239683	1.071123
O160	O	1.445438	-0.244263	0.945203
C161	C	1.431431	-0.304832	1.068548
C162	C	1.504880	-0.273239	1.008418
H163	H	1.479460	-0.328261	1.119689
H164	H	1.383586	-0.325430	1.010910
H165	H	1.376858	-0.284169	1.119619
H166	H	1.559516	-0.293867	0.957346
H167	H	1.552652	-0.252639	1.066113
