data_functionalizedCrystal
_audit_creation_method	'MofGen! by Chris Wilmer'
_symmetry_space_group_name_H-M	'P1'
_symmetry_Int_Tables_number	1
_symmetry_cell_setting	triclinic
loop_
_symmetry_equiv_pos_as_xyz
  x,y,z
_cell_length_a	12.594517
_cell_length_b	21.295417
_cell_length_c	12.594510
_cell_angle_alpha	89.957633
_cell_angle_beta	89.978880
_cell_angle_gamma	90.030306
loop_
_atom_site_label
_atom_site_type_symbol
_atom_site_fract_x
_atom_site_fract_y
_atom_site_fract_z
Zn1	Zn	1.627158	-0.250556	-0.601801
Zn2	Zn	1.627004	-0.355845	-0.423797
Zn3	Zn	1.449162	-0.250594	-0.423830
Zn4	Zn	1.449099	-0.355790	-0.601727
O5	O	1.538106	-0.303196	-0.512789
O6	O	1.776083	-0.264530	-0.578205
O7	O	1.603376	-0.341923	-0.274856
O8	O	1.472865	-0.162499	-0.447482
O9	O	1.775971	-0.341886	-0.447427
O10	O	1.603637	-0.162471	-0.578237
O11	O	1.472716	-0.264595	-0.274879
O12	O	1.300208	-0.264541	-0.447411
O13	O	1.472757	-0.341792	-0.750683
O14	O	1.300162	-0.341829	-0.578112
O15	O	1.603576	-0.264476	-0.750737
O16	O	1.603314	-0.443928	-0.447356
O17	O	1.472608	-0.443887	-0.578080
C18	C	1.261565	-0.303184	-0.512757
C19	C	1.143260	-0.303193	-0.512769
C20	C	1.074001	-0.261099	-0.441817
C21	C	1.003165	-0.318521	-0.415623
C22	C	1.003296	-0.245800	-0.538981
C23	C	1.073982	-0.360645	-0.486525
C24	C	1.074119	-0.287885	-0.609928
C25	C	1.003316	-0.345347	-0.583771
C26	C	1.537966	-0.466748	-0.512730
C27	C	1.538004	-0.536716	-0.512740
C28	C	1.606123	-0.569583	-0.444742
C29	C	1.606173	-0.635325	-0.444766
C30	C	1.538085	-0.668199	-0.512777
C31	C	1.469961	-0.635324	-0.580789
C32	C	1.469920	-0.569583	-0.580770
N33	N	1.444974	-0.771463	-0.520881
N34	N	1.445016	-0.833915	-0.520892
C35	C	1.538204	-0.866273	-0.512838
N36	N	1.631352	-0.833821	-0.504752
N37	N	1.631309	-0.771364	-0.504735
C38	C	1.538122	-0.739484	-0.512805
C39	C	1.606383	-0.970426	-0.444862
C40	C	1.606435	-1.036169	-0.444893
C41	C	1.470213	-1.036166	-0.580911
C42	C	1.470171	-0.970424	-0.580885
C43	C	1.538254	-0.937557	-0.512855
C44	C	1.815727	-0.303209	-0.512821
C45	C	1.934032	-0.303215	-0.512835
C46	C	1.538176	-0.303124	-0.790410
C47	C	1.538206	-0.303093	-0.908715
C48	C	1.538275	-0.139006	-0.512871
C49	C	1.538347	-0.069038	-0.512906
C50	C	1.609380	-0.261038	-0.977998
C51	C	1.512310	-0.245629	-1.048792
C52	C	1.635333	-0.318457	-1.048720
C53	C	1.441085	-0.287655	-0.977952
C54	C	1.564173	-0.360509	-0.977873
C55	C	1.467036	-0.345123	-1.048636
C56	C	1.538097	-0.303223	-0.236248
C57	C	1.538274	-0.303077	-0.117943
H58	H	1.661564	-0.542825	-0.389350
N59	N	0.964058	-0.334797	-0.312596
N60	N	0.987953	-0.386494	-0.272093
H61	H	0.960336	-0.397987	-0.199329
H62	H	1.105309	-0.274907	-0.692040
H63	H	1.104903	-0.409206	-0.464291
N64	N	0.964634	-0.390070	-0.659076
N65	N	0.987504	-0.446881	-0.649148
H66	H	0.960185	-0.478468	-0.702329
N67	N	1.684743	-0.216400	-0.939055
N68	N	1.697333	-0.209574	-0.841300
H69	H	1.750553	-0.178047	-0.813792
H70	H	1.358951	-0.274597	-0.946996
H71	H	1.490371	-0.197067	-1.079944
H72	H	0.972190	-0.197260	-0.561087
N73	N	1.675758	-0.668898	-0.375290
N74	N	1.736536	-0.639545	-0.314553
H75	H	1.785677	-0.663253	-0.265481
H76	H	1.414525	-0.662093	-0.636166
H77	H	1.661912	-1.062928	-0.389523
N78	N	1.400332	-0.536016	-0.650242
N79	N	1.339548	-0.565371	-0.710971
H80	H	1.290399	-0.541664	-0.760037
N81	N	1.391473	-0.389727	-1.087295
N82	N	1.295397	-0.383961	-1.064387
H83	H	1.242027	-0.415461	-1.091691
H84	H	1.586142	-0.409058	-0.946701
H85	H	1.717442	-0.331457	-1.079810
N86	N	1.675932	-0.936858	-0.375369
N87	N	1.736757	-0.966215	-0.314664
H88	H	1.785877	-0.942510	-0.265583
H89	H	1.414779	-1.062931	-0.636291
N90	N	1.400594	-0.936850	-0.650354
N91	N	1.407609	-0.944138	-0.748577
H92	H	1.358471	-0.920427	-0.797648
N93	N	1.112929	-0.216488	-0.366447
N94	N	1.090145	-0.222213	-0.270319
H95	H	1.117638	-0.190709	-0.217087
