data_functionalizedCrystal
_audit_creation_method	'MofGen! by Chris Wilmer'
_symmetry_space_group_name_H-M	'P1'
_symmetry_Int_Tables_number	1
_symmetry_cell_setting	triclinic
loop_
_symmetry_equiv_pos_as_xyz
  x,y,z
_cell_length_a	16.974810
_cell_length_b	16.992695
_cell_length_c	16.053802
_cell_angle_alpha	87.258926
_cell_angle_beta	88.925582
_cell_angle_gamma	87.022613
loop_
_atom_site_label
_atom_site_type_symbol
_atom_site_fract_x
_atom_site_fract_y
_atom_site_fract_z
O1	O	-1.055372	-0.099982	0.001911
O2	O	-0.826667	-0.111982	-0.013551
O3	O	-0.940102	0.008162	-0.005875
O4	O	-0.941937	-0.220126	-0.005764
O5	O	-0.933857	0.001577	0.132561
O6	O	-0.820421	-0.118568	0.124886
O7	O	-1.049127	-0.106567	0.140348
Zn8	Zn	-0.933782	-0.113613	0.154596
Zn9	Zn	-0.942011	-0.104936	-0.027799
O10	O	-0.935691	-0.226712	0.132672
C11	C	-0.794145	-0.114698	0.053680
C12	C	-0.706543	-0.112967	0.047758
C13	C	-0.934621	0.034087	0.063184
C14	C	-0.927583	0.121146	0.062707
N15	N	-0.928172	-0.119535	0.279077
C16	C	-0.661988	-0.115742	0.120439
C17	C	-0.579678	-0.114103	0.114877
C18	C	-0.541924	-0.109695	0.036633
C19	C	-0.586486	-0.106918	-0.036054
C20	C	-0.668795	-0.108551	-0.030491
C21	C	-0.296122	-0.104421	0.011903
C22	C	-0.213807	-0.102791	0.006346
C23	C	-0.207005	-0.109975	0.157277
C24	C	-0.289316	-0.111612	0.162833
C25	C	-0.333870	-0.108831	0.090147
N26	N	-0.457790	-0.108023	0.030945
N27	N	-0.418003	-0.110497	0.095835
C28	C	-0.081649	-0.103848	0.073114
C29	C	-0.169252	-0.105566	0.079027
C30	C	-0.941173	-0.252636	0.063612
C31	C	-0.948211	-0.339695	0.064082
C32	C	-0.995491	0.171244	0.067299
C33	C	-0.988874	0.253045	0.066844
C34	C	-0.914347	0.284746	0.061803
C35	C	-0.846433	0.234642	0.057208
C36	C	-0.853052	0.152843	0.057657
C37	C	-0.886916	0.528402	0.059937
C38	C	-0.880303	0.610207	0.059490
C39	C	-1.022744	0.628605	0.069125
C40	C	-1.029356	0.546803	0.069579
C41	C	-0.961442	0.496706	0.064980
N42	N	-0.907581	0.368359	0.061340
N43	N	-0.968209	0.413095	0.065437
N44	N	-0.947627	-0.099009	-0.152280
C45	C	-0.976459	-0.068431	0.326038
C46	C	-0.972543	-0.072581	0.413180
C47	C	-0.920343	-0.127838	0.453359
C48	C	-0.872050	-0.178944	0.406392
C49	C	-0.875963	-0.174790	0.319251
C50	C	-0.903248	-0.145961	0.713612
C51	C	-0.899340	-0.150112	0.800759
C52	C	-0.999832	-0.043748	0.807542
C53	C	-1.003744	-0.039602	0.720399
C54	C	-0.955449	-0.090705	0.673439
N55	N	-0.916340	-0.132083	0.542432
N56	N	-0.959448	-0.086456	0.584368
H57	H	-0.692721	-0.119338	0.184154
Br58	Br	-0.801200	-0.253932	0.460916
Br59	Br	-0.828494	-0.225114	0.855282
H60	H	-1.046249	0.005393	0.687688
Br61	Br	-0.810423	-0.244143	0.255517
H62	H	-0.543405	-0.116350	0.174062
Br63	Br	-0.146535	-0.113748	0.255918
H64	H	-1.056179	0.145439	0.071410
H65	H	-0.332389	-0.102154	-0.047284
Br66	Br	-1.081040	0.321033	0.073076
Br67	Br	-0.162570	-0.096814	-0.099850
H68	H	-0.785752	0.260459	0.053098
H69	H	-0.320049	-0.115198	0.226548
H70	H	-1.039151	-0.002141	0.845784
Br71	Br	-1.130504	0.503787	0.076394
H72	H	-0.555740	-0.103323	-0.099762
H73	H	-0.705071	-0.106293	-0.089676
H74	H	-1.078035	0.669402	0.072868
H75	H	-0.831616	0.487622	0.056192
H76	H	-0.797753	0.112053	0.053918
Br77	Br	-0.779152	0.653229	0.052657
H78	H	-0.863926	-0.187572	0.675384
Br79	Br	-1.047312	0.006559	0.271519
Br80	Br	-1.038072	-0.003223	0.476916
