data_functionalizedCrystal
_audit_creation_method	'MofGen! by Chris Wilmer'
_symmetry_space_group_name_H-M	'P1'
_symmetry_Int_Tables_number	1
_symmetry_cell_setting	triclinic
loop_
_symmetry_equiv_pos_as_xyz
  x,y,z
_cell_length_a	13.032831
_cell_length_b	19.121063
_cell_length_c	13.032268
_cell_angle_alpha	99.247498
_cell_angle_beta	90.886977
_cell_angle_gamma	85.565596
loop_
_atom_site_label
_atom_site_type_symbol
_atom_site_fract_x
_atom_site_fract_y
_atom_site_fract_z
Zn1	Zn	1.465022	-0.473659	-0.806576
Zn2	Zn	1.479383	-0.578156	-0.640274
Zn3	Zn	1.316950	-0.444360	-0.611224
Zn4	Zn	1.285899	-0.574364	-0.790193
O5	O	1.386814	-0.517635	-0.712067
O6	O	1.609870	-0.501370	-0.803529
O7	O	1.476841	-0.549733	-0.491924
O8	O	1.343577	-0.350107	-0.631836
O9	O	1.620421	-0.578143	-0.681348
O10	O	1.452365	-0.371633	-0.775360
O11	O	1.357502	-0.451434	-0.470581
O12	O	1.169889	-0.447756	-0.615951
O13	O	1.290655	-0.571680	-0.936863
O14	O	1.147076	-0.543270	-0.747439
O15	O	1.422256	-0.497693	-0.948899
O16	O	1.446733	-0.675793	-0.665463
O17	O	1.304581	-0.673007	-0.775608
C18	C	1.121419	-0.491923	-0.676766
C19	C	1.007877	-0.480942	-0.661690
C20	C	0.946005	-0.523366	-0.719935
C21	C	0.828653	-0.512018	-0.704355
C22	C	1.373870	-0.699851	-0.721936
C23	C	1.368422	-0.777815	-0.726206
C24	C	1.439917	-0.815879	-0.670926
C25	C	1.434798	-0.889136	-0.674948
C26	C	1.358179	-0.924327	-0.734244
C27	C	1.286681	-0.886258	-0.789530
C28	C	1.291805	-0.813003	-0.785514
C29	C	1.339006	-1.145437	-0.749244
C30	C	1.333886	-1.218697	-0.753254
C31	C	1.482005	-1.221570	-0.638672
C32	C	1.487118	-1.148313	-0.634656
C33	C	1.415624	-1.110251	-0.689946
C34	C	1.352943	-0.999207	-0.738354
C35	C	1.420865	-1.035374	-0.685842
C36	C	1.653245	-0.543448	-0.747506
C37	C	1.766782	-0.554448	-0.762608
C38	C	1.351390	-0.537532	-0.981395
C39	C	1.336295	-0.546011	-1.096167
C40	C	1.399833	-0.334712	-0.702185
C41	C	1.405381	-0.256761	-0.697974
C42	C	1.394678	-0.513183	-1.153291
C43	C	1.379078	-0.521945	-1.271914
C44	C	1.422162	-0.497771	-0.443791
C45	C	1.437469	-0.489113	-0.329036
H46	H	0.973970	-0.436217	-0.600292
O47	O	1.269438	-1.108569	-0.802959
C48	C	1.200725	-1.155342	-0.856165
H49	H	1.199147	-1.204113	-0.816267
H50	H	1.227194	-1.172497	-0.940015
C51	C	1.093980	-1.057478	-0.903915
C52	C	1.092036	-1.117376	-0.854906
H53	H	1.026936	-1.034059	-0.903144
H54	H	1.140275	-1.025966	-0.868073
H55	H	1.116043	-1.071783	-0.973786
H56	H	1.069987	-1.103070	-0.785034
H57	H	1.045735	-1.148885	-0.890737
H58	H	1.540213	-1.252568	-0.593660
O59	O	0.807326	-0.607723	-0.835930
C60	C	0.863081	-0.578722	-0.908714
H61	H	0.887500	-0.524378	-0.871633
H62	H	0.812504	-0.572809	-0.979426
C63	C	0.929330	-0.695189	-0.988329
C64	C	0.959330	-0.628445	-0.942783
H65	H	0.988698	-0.725861	-1.009349
H66	H	0.891764	-0.714728	-0.939296
H67	H	0.887181	-0.690251	-1.047250
H68	H	1.001467	-0.633382	-0.883856
H69	H	0.996905	-0.608908	-0.991807
O70	O	1.514436	-0.781813	-0.613308
C71	C	1.576425	-0.831119	-0.565359
H72	H	1.570714	-0.886786	-0.610988
H73	H	1.548850	-0.829545	-0.482370
C74	C	1.696117	-0.743538	-0.507412
C75	C	1.689109	-0.811908	-0.563458
H76	H	1.765625	-0.731686	-0.506234
H77	H	1.654353	-0.710318	-0.539711
H78	H	1.673132	-0.742234	-0.438259
H79	H	1.712082	-0.813208	-0.632612
H80	H	1.730880	-0.845128	-0.531170
O81	O	1.305742	-0.563219	-1.318495
C82	C	1.306482	-0.562772	-1.426561
H83	H	1.385035	-0.548509	-1.450430
H84	H	1.244550	-0.521803	-1.447096
C85	C	1.188356	-0.654412	-1.455308
C86	C	1.284840	-0.636900	-1.484626
H87	H	1.175001	-0.700136	-1.491126
H88	H	1.187854	-0.654712	-1.382501
H89	H	1.136757	-0.620266	-1.472422
H90	H	1.336437	-0.671041	-1.467500
H91	H	1.285350	-0.636608	-1.557432
O92	O	1.467967	-0.471860	-1.106741
C93	C	1.421182	-0.416342	-1.034186
H94	H	1.344103	-0.432397	-1.009176
H95	H	1.408245	-0.366325	-1.071388
C96	C	1.586340	-0.381858	-0.969178
C97	C	1.491675	-0.401579	-0.938454
H98	H	1.629824	-0.372748	-0.910127
H99	H	1.617861	-0.419259	-1.018062
H100	H	1.575545	-0.340180	-1.000180
H101	H	1.502469	-0.443261	-0.907464
H102	H	1.460157	-0.364184	-0.889562
H103	H	1.499002	-0.454514	-1.290127
H104	H	1.493016	-0.920125	-0.629933
H105	H	1.233587	-0.782012	-0.830529
H106	H	1.274755	-0.580597	-1.135080
O107	O	1.259493	-1.252986	-0.810772
C108	C	1.270317	-1.325806	-0.802473
H109	H	1.313611	-1.333170	-0.727816
H110	H	1.315154	-1.356341	-0.872127
C111	C	1.109914	-1.345112	-0.891858
C112	C	1.163081	-1.354156	-0.800159
H113	H	1.043767	-1.362601	-0.890436
H114	H	1.102623	-1.296052	-0.897454
H115	H	1.147290	-1.370557	-0.949894
H116	H	1.125712	-1.328703	-0.742127
H117	H	1.170363	-1.403212	-0.794554
O118	O	1.212346	-0.920431	-0.847293
C119	C	1.222290	-0.912233	-0.952197
H120	H	1.304607	-0.900340	-0.967223
H121	H	1.166932	-0.866420	-0.969528
C122	C	1.095632	-0.995836	-1.004621
C123	C	1.196738	-0.981234	-1.023079
H124	H	1.079866	-1.038397	-1.048345
H125	H	1.088929	-1.001357	-0.933945
H126	H	1.049512	-0.957653	-1.019063
H127	H	1.242856	-1.019411	-1.008624
H128	H	1.203448	-0.975720	-1.093754
O129	O	1.561648	-1.114248	-0.577051
C130	C	1.623642	-1.163552	-0.529104
H131	H	1.617926	-1.219220	-0.574724
H132	H	1.596077	-1.161972	-0.446109
C133	C	1.743341	-1.075970	-0.471183
C134	C	1.736326	-1.144342	-0.527220
H135	H	1.812849	-1.064119	-0.470015
H136	H	1.701572	-1.042752	-0.503482
H137	H	1.720364	-1.074662	-0.402026
H138	H	1.759291	-1.145647	-0.596378
H139	H	1.778102	-1.177560	-0.494932
H140	H	0.794751	-0.467290	-0.642953
O141	O	1.495418	-1.001247	-0.628371
C142	C	1.592988	-1.030620	-0.665507
H143	H	1.585835	-1.057322	-0.749782
H144	H	1.624036	-1.071640	-0.616050
C145	C	1.676074	-0.938429	-0.555535
C146	C	1.667290	-0.971219	-0.659045
H147	H	1.721909	-0.901789	-0.551544
H148	H	1.610340	-0.918641	-0.530512
H149	H	1.701944	-0.972619	-0.514331
H150	H	1.641408	-0.937032	-0.700243
H151	H	1.733022	-0.991000	-0.684074
O152	O	0.986559	-0.576638	-0.793249
C153	C	1.042317	-0.547638	-0.866030
H154	H	1.066730	-0.493291	-0.828951
H155	H	0.991745	-0.541729	-0.936748
C156	C	1.108580	-0.664104	-0.945634
C157	C	1.138571	-0.597357	-0.900089
H158	H	1.167952	-0.694774	-0.966648
H159	H	1.071012	-0.683643	-0.896603
H160	H	1.066435	-0.659170	-1.004559
H161	H	1.180704	-0.602291	-0.841158
H162	H	1.176149	-0.577820	-0.949112
H163	H	1.290558	-1.027867	-0.786631
