data_functionalizedCrystal
_audit_creation_method	'MofGen! by Chris Wilmer'
_symmetry_space_group_name_H-M	'P1'
_symmetry_Int_Tables_number	1
_symmetry_cell_setting	triclinic
loop_
_symmetry_equiv_pos_as_xyz
  x,y,z
_cell_length_a	18.101395
_cell_length_b	14.908780
_cell_length_c	14.908294
_cell_angle_alpha	90.212329
_cell_angle_beta	93.266411
_cell_angle_gamma	86.679715
loop_
_atom_site_label
_atom_site_type_symbol
_atom_site_fract_x
_atom_site_fract_y
_atom_site_fract_z
Zn1	Zn	-0.259061	-1.345250	-0.587865
Zn2	Zn	0.240939	-0.845250	-0.087865
Zn3	Zn	-0.375386	-1.353805	-0.437505
Zn4	Zn	0.124614	-0.853805	0.062495
Zn5	Zn	-0.258255	-1.203565	-0.428833
Zn6	Zn	0.241745	-0.703565	0.071167
Zn7	Zn	-0.389563	-1.194827	-0.579123
Zn8	Zn	0.110437	-0.694827	-0.079123
O9	O	-0.320566	-1.274362	-0.508332
O10	O	0.179434	-0.774362	-0.008332
O11	O	-0.268895	-1.472214	-0.575208
O12	O	0.231105	-0.972214	-0.075208
O13	O	-0.353578	-1.341113	-0.310532
O14	O	0.146422	-0.841113	0.189468
O15	O	-0.154727	-1.222436	-0.449958
O16	O	0.345273	-0.722436	0.050042
O17	O	-0.354359	-1.478499	-0.464739
O18	O	0.145641	-0.978499	0.035261
O19	O	-0.155319	-1.326532	-0.566799
O20	O	0.344681	-0.826532	-0.066799
O21	O	-0.267522	-1.230732	-0.304160
O22	O	0.232478	-0.730732	0.195840
O23	O	-0.281269	-1.076577	-0.441481
O24	O	0.218731	-0.576577	0.058519
O25	O	-0.378522	-1.207544	-0.706106
O26	O	0.121478	-0.707544	-0.206106
O27	O	-0.377741	-1.070157	-0.551898
O28	O	0.122259	-0.570157	-0.051898
O29	O	-0.282642	-1.318059	-0.712529
O30	O	0.217358	-0.818059	-0.212529
O31	O	-0.480901	-1.332640	-0.456262
O32	O	0.019099	-0.832640	0.043738
O33	O	-0.491317	-1.215839	-0.560308
O34	O	0.008683	-0.715839	-0.060308
C35	C	-0.330957	-1.040741	-0.494800
C36	C	0.169043	-0.540741	0.005200
C37	C	-0.335421	-0.940796	-0.489033
C38	C	0.164579	-0.440796	0.010967
C39	C	-0.254954	-0.746431	-0.593402
C40	C	0.245046	-0.246431	-0.093402
C41	C	-0.259146	-0.652523	-0.587986
C42	C	0.240854	-0.152523	-0.087986
C43	C	-0.347992	-0.659071	-0.472781
C44	C	0.152008	-0.159071	0.027219
C45	C	-0.343800	-0.752979	-0.478197
C46	C	0.156200	-0.252979	0.021803
C47	C	-0.297281	-0.796655	-0.538511
C48	C	0.202719	-0.296655	-0.038511
C49	C	-0.293093	-0.890564	-0.543931
C50	C	0.206907	-0.390564	-0.043931
C51	C	-0.381934	-0.897111	-0.428721
C52	C	0.118066	-0.397111	0.071279
C53	C	-0.386126	-0.803203	-0.423305
C54	C	0.113874	-0.303203	0.076695
C55	C	-0.512981	-1.274243	-0.508298
C56	C	-0.012981	-0.774243	-0.008298
C57	C	-0.595294	-1.274273	-0.508319
C58	C	-0.095294	-0.774273	-0.008319
C59	C	-0.894379	-1.274467	-0.508379
C60	C	-0.394379	-0.774467	-0.008379
C61	C	-0.869639	-1.201130	-0.574023
C62	C	-0.369639	-0.701130	-0.074023
C63	C	-0.784025	-1.200814	-0.573786
C64	C	-0.284025	-0.700814	-0.073786
C65	C	-0.745999	-1.274370	-0.508350
C66	C	-0.245999	-0.774370	-0.008350
C67	C	-0.773548	-1.254187	-0.412106
C68	C	-0.273548	-0.754187	0.087894
C69	C	-0.859234	-1.253716	-0.412497
C70	C	-0.359234	-0.753716	0.087503
C71	C	-0.859701	-1.368187	-0.538152
C72	C	-0.359701	-0.868187	-0.038152
C73	C	-0.774179	-1.367507	-0.540198
C74	C	-0.274179	-0.867507	-0.040198
C75	C	-0.662141	-1.274318	-0.508328
C76	C	-0.162141	-0.774318	-0.008328
C77	C	-0.978237	-1.274518	-0.508394
C78	C	-0.478237	-0.774518	-0.008394
C79	C	-0.127400	-1.274504	-0.508386
C80	C	0.372600	-0.774504	-0.008386
C81	C	-0.045084	-1.274565	-0.508409
C82	C	0.454916	-0.774565	-0.008409
C83	C	-0.332253	-1.260872	-0.742854
C84	C	0.167747	-0.760872	-0.242854
C85	C	-0.337233	-1.255124	-0.842793
C86	C	0.162767	-0.755124	-0.342793
C87	C	-0.310129	-0.508895	-0.521910
C88	C	0.189871	-0.008895	-0.021910
C89	C	-0.305664	-0.608840	-0.527679
C90	C	0.194336	-0.108840	-0.027679
C91	C	-0.394163	-1.189484	-0.980311
C92	C	0.105837	-0.689484	-0.480311
C93	C	-0.389489	-1.194884	-0.886409
C94	C	0.110511	-0.694884	-0.386409
C95	C	-0.289647	-1.309966	-0.893087
C96	C	0.210353	-0.809966	-0.393087
C97	C	-0.294321	-1.304567	-0.986989
C98	C	0.205679	-0.804567	-0.486989
C99	C	-0.346581	-1.244325	-1.030598
C100	C	0.153419	-0.744325	-0.530598
C101	C	-0.351259	-1.238930	-1.124502
C102	C	0.148741	-0.738930	-0.624502
C103	C	-0.251413	-1.354008	-1.131178
C104	C	0.248587	-0.854008	-0.631178
C105	C	-0.246739	-1.359407	-1.037276
C106	C	0.253261	-0.859407	-0.537276
C107	C	-0.308869	-1.287850	-0.274724
C108	C	0.191131	-0.787850	0.225276
C109	C	-0.303672	-1.293773	-0.174796
C110	C	0.196328	-0.793773	0.325204
H111	H	-0.423999	-0.767629	-0.374197
H112	H	0.076001	-0.267629	0.125803
H113	H	-0.416406	-0.938013	-0.384031
H114	H	0.083594	-0.438013	0.115969
Cl115	Cl	-0.223911	-1.385638	-0.838246
Cl116	Cl	0.276089	-0.885638	-0.338246
Cl117	Cl	-0.734616	-1.334431	-0.334158
Cl118	Cl	-0.234616	-0.834431	0.165842
H119	H	-0.436720	-1.140439	-1.015818
H120	H	0.063280	-0.640439	-0.515818
H121	H	-0.893009	-1.212952	-0.645433
H122	H	-0.393009	-0.712952	-0.145433
H123	H	-0.765764	-1.212807	-0.644978
H124	H	-0.265764	-0.712807	-0.144978
H125	H	-0.428231	-1.150221	-0.845468
H126	H	0.071769	-0.650221	-0.345468
Cl127	Cl	-0.191597	-1.422959	-1.194402
Cl128	Cl	0.308403	-0.922959	-0.694402
Cl129	Cl	-0.234614	-0.945471	-0.619754
Cl130	Cl	0.265386	-0.445471	-0.119754
Cl131	Cl	-0.196482	-0.801341	-0.669231
Cl132	Cl	0.303518	-0.301341	-0.169231
H133	H	-0.893552	-1.131970	-0.554095
H134	H	-0.393552	-0.631970	-0.054095
H135	H	-0.754180	-1.186599	-0.387197
H136	H	-0.254180	-0.686599	0.112803
Cl137	Cl	-0.896610	-1.398244	-0.645107
Cl138	Cl	-0.396610	-0.898244	-0.145107
Cl139	Cl	-0.205932	-0.589387	-0.656994
Cl140	Cl	0.294068	-0.089387	-0.156994
H141	H	-0.881345	-1.185370	-0.387914
H142	H	-0.381345	-0.685370	0.112086
Cl143	Cl	-0.756094	-1.093389	-0.542672
Cl144	Cl	-0.256094	-0.593389	-0.042672
Cl145	Cl	-0.883754	-1.333054	-0.333945
Cl146	Cl	-0.383754	-0.833054	0.166055
H147	H	-0.756446	-1.382827	-0.611055
H148	H	-0.256446	-0.882827	-0.111055
Cl149	Cl	-0.406459	-0.604149	-0.396954
Cl150	Cl	0.093541	-0.104149	0.103046
H151	H	-0.204188	-1.408452	-1.001757
H152	H	0.295812	-0.908452	-0.501757
H153	H	-0.747989	-1.424598	-0.496308
H154	H	-0.247989	-0.924598	0.003692
H155	H	-0.875110	-1.422758	-0.490408
H156	H	-0.375110	-0.922758	0.009592
Cl157	Cl	-0.416958	-1.163200	-1.179323
Cl158	Cl	0.083042	-0.663200	-0.679323
