data_functionalizedCrystal
_audit_creation_method	'MofGen! by Chris Wilmer'
_symmetry_space_group_name_H-M	'P1'
_symmetry_Int_Tables_number	1
_symmetry_cell_setting	triclinic
loop_
_symmetry_equiv_pos_as_xyz
  x,y,z
_cell_length_a	12.759401
_cell_length_b	12.759400
_cell_length_c	12.759393
_cell_angle_alpha	89.968916
_cell_angle_beta	89.979954
_cell_angle_gamma	90.016377
loop_
_atom_site_label
_atom_site_type_symbol
_atom_site_fract_x
_atom_site_fract_y
_atom_site_fract_z
Zn1	Zn	1.606244	-0.418154	-0.594061
Zn2	Zn	1.606142	-0.593873	-0.418383
Zn3	Zn	1.430550	-0.418214	-0.418392
Zn4	Zn	1.430535	-0.593796	-0.594017
O5	O	1.518368	-0.506009	-0.506213
O6	O	1.753252	-0.441470	-0.570772
O7	O	1.582813	-0.570629	-0.271363
O8	O	1.453905	-0.271185	-0.441718
O9	O	1.753177	-0.570570	-0.441702
O10	O	1.582987	-0.271141	-0.570781
O11	O	1.453806	-0.441573	-0.271370
O12	O	1.283527	-0.441499	-0.441674
O13	O	1.453880	-0.570440	-0.741044
O14	O	1.283516	-0.570498	-0.570705
O15	O	1.582973	-0.441396	-0.741076
O16	O	1.582799	-0.740884	-0.441659
O17	O	1.453781	-0.740828	-0.570696
C18	C	1.245400	-0.505997	-0.506186
C19	C	1.128624	-0.506018	-0.506200
C20	C	0.964059	-0.573289	-0.573316
C21	C	1.073783	-0.573287	-0.573287
C22	C	1.073735	-0.438753	-0.439129
C23	C	0.964013	-0.438761	-0.439153
C24	C	0.964087	-0.650959	-0.650774
C25	C	1.073811	-0.650957	-0.650746
C26	C	1.518306	-0.778977	-0.506195
C27	C	1.518375	-0.895753	-0.506222
C28	C	1.585559	-0.950502	-0.573482
C29	C	1.585618	-1.060226	-0.573511
C30	C	1.451306	-1.060443	-0.439010
C31	C	1.451243	-0.950721	-0.438987
C32	C	1.623175	-1.210051	-0.697481
C33	C	1.690375	-1.264804	-0.764732
C34	C	1.792860	-1.229093	-0.780947
C35	C	1.828165	-1.138630	-0.729896
C36	C	1.760971	-1.083883	-0.662637
C37	C	1.658471	-1.119593	-0.646442
C38	C	1.413697	-0.800894	-0.315016
C39	C	1.346507	-0.746145	-0.247751
C40	C	1.244020	-0.781854	-0.231525
C41	C	1.208718	-0.872320	-0.282558
C42	C	1.275909	-0.927069	-0.349823
C43	C	1.378394	-0.891352	-0.366050
C44	C	1.792401	-0.506022	-0.506241
C45	C	1.909178	-0.506027	-0.506253
C46	C	1.518436	-0.505902	-0.780247
C47	C	1.518465	-0.505857	-0.897024
C48	C	1.518459	-0.231976	-0.506255
C49	C	1.518498	-0.115199	-0.506273
C50	C	1.451320	-0.438645	-0.951895
C51	C	1.451351	-0.438614	-1.061619
C52	C	1.585683	-0.573009	-1.061591
C53	C	1.585645	-0.573045	-0.951869
C54	C	1.373767	-0.361049	-0.951912
C55	C	1.373799	-0.361018	-1.061637
C56	C	1.518360	-0.506040	-0.233246
C57	C	1.518535	-0.505790	-0.116470
H58	H	0.930105	-0.621903	-0.728124
H59	H	1.640221	-0.905750	-0.628230
H60	H	1.640306	-0.627790	-0.907196
C61	C	1.377476	-1.120912	-0.365044
C62	C	1.386111	-1.105903	-0.245613
C63	C	1.312284	-1.166371	-0.171642
C64	C	1.229822	-1.241848	-0.217101
C65	C	1.221184	-1.256861	-0.336538
C66	C	1.295011	-1.196393	-0.410509
H67	H	1.447157	-1.050028	-0.211956
H68	H	1.318679	-1.155258	-0.083227
H69	H	1.175171	-1.286610	-0.162343
H70	H	1.160138	-1.312736	-0.370195
H71	H	1.288616	-1.207506	-0.498924
H72	H	0.919333	-0.384002	-0.384532
H73	H	1.118395	-0.383987	-0.384499
H74	H	1.661619	-1.338459	-0.806298
C75	C	1.095982	-0.911610	-0.264712
C76	C	1.022074	-0.851390	-0.190728
C77	C	0.909337	-0.890680	-0.172875
C78	C	0.870508	-0.990191	-0.229006
C79	C	0.944417	-1.050417	-0.302995
C80	C	1.057154	-1.011127	-0.320848
H81	H	1.050816	-0.777721	-0.149172
H82	H	0.854624	-0.846096	-0.118103
H83	H	0.787053	-1.019276	-0.215790
H84	H	0.915675	-1.124086	-0.344551
H85	H	1.111866	-1.055710	-0.375620
C86	C	1.659581	-0.646908	-1.121926
C87	C	1.614045	-0.729363	-1.197336
C88	C	1.687944	-0.803263	-1.257670
C89	C	1.807379	-0.794709	-1.242594
C90	C	1.852921	-0.712250	-1.167180
C91	C	1.779022	-0.638350	-1.106846
H92	H	1.525626	-0.735699	-1.208500
H93	H	1.654230	-0.864304	-1.313497
H94	H	1.862084	-0.849414	-1.287257
H95	H	1.941340	-0.705915	-1.156017
H96	H	1.812736	-0.577309	-1.051020
H97	H	1.103642	-0.629250	-0.732145
H98	H	1.292378	-0.382841	-0.922131
H99	H	0.934282	-0.732306	-0.628854
H100	H	1.789717	-1.010232	-0.621070
C101	C	1.269370	-0.400353	-1.107596
C102	C	1.267688	-0.497690	-1.178878
C103	C	1.163259	-0.537025	-1.224832
C104	C	1.060512	-0.479022	-1.199504
C105	C	1.062189	-0.381679	-1.128218
C106	C	1.166618	-0.342344	-1.082264
H107	H	1.343751	-0.540633	-1.197631
H108	H	1.162018	-0.609085	-1.277603
H109	H	0.983207	-0.508140	-1.233522
H110	H	0.986126	-0.338736	-1.109466
H111	H	1.167860	-0.270284	-1.029494
H112	H	1.107808	-0.728219	-0.621462
H113	H	1.911624	-1.109568	-0.743094
C114	C	1.866779	-1.289316	-0.854927
C115	C	1.894362	-1.404543	-0.831932
C116	C	1.968273	-1.464769	-0.905917
C117	C	2.014601	-1.409768	-1.002897
C118	C	1.987019	-1.294536	-1.025897
C119	C	1.913108	-1.234310	-0.951912
H120	H	1.860066	-1.445263	-0.760138
H121	H	1.988691	-1.550072	-0.888890
H122	H	2.069315	-1.454351	-1.057665
H123	H	2.021315	-1.253815	-1.097691
H124	H	1.892690	-1.149007	-0.968938
H125	H	1.539720	-1.239130	-0.684294
C126	C	1.526441	-0.761615	-0.332860
C127	C	1.565279	-0.662119	-0.276708
C128	C	1.678023	-0.622843	-0.294544
C129	C	1.751930	-0.683062	-0.368530
C130	C	1.713093	-0.782563	-0.424686
C131	C	1.600349	-0.821840	-0.406851
H132	H	1.510568	-0.617536	-0.221935
H133	H	1.706772	-0.549185	-0.252973
H134	H	1.835390	-0.653987	-0.381733
H135	H	1.767804	-0.827146	-0.479460
H136	H	1.571600	-0.895498	-0.448422
H137	H	1.247157	-1.000731	-0.391376
H138	H	1.189316	-0.737268	-0.176749
H139	H	1.402931	-0.283770	-0.917897
H140	H	1.375261	-0.672486	-0.206192
H141	H	1.395616	-0.279636	-1.091434
