data_functionalizedCrystal
_audit_creation_method	'MofGen! by Chris Wilmer'
_symmetry_space_group_name_H-M	'P1'
_symmetry_Int_Tables_number	1
_symmetry_cell_setting	triclinic
loop_
_symmetry_equiv_pos_as_xyz
  x,y,z
_cell_length_a	19.077236
_cell_length_b	13.897447
_cell_length_c	19.077174
_cell_angle_alpha	92.274996
_cell_angle_beta	85.294282
_cell_angle_gamma	92.312415
loop_
_atom_site_label
_atom_site_type_symbol
_atom_site_fract_x
_atom_site_fract_y
_atom_site_fract_z
Zn1	Zn	1.093761	-0.348270	-0.441984
Zn2	Zn	1.593761	0.151730	0.058016
Zn3	Zn	1.088956	-0.503352	-0.324101
Zn4	Zn	1.588956	-0.003352	0.175899
Zn5	Zn	0.971142	-0.348285	-0.319367
Zn6	Zn	1.471142	0.151715	0.180633
Zn7	Zn	0.975847	-0.515740	-0.437206
Zn8	Zn	1.475847	-0.015740	0.062794
O9	O	1.032427	-0.428912	-0.380665
O10	O	1.532427	0.071088	0.119335
O11	O	1.191776	-0.363651	-0.430328
O12	O	1.691776	0.136349	0.069672
O13	O	1.069348	-0.477603	-0.224823
O14	O	1.569348	0.022397	0.275177
O15	O	0.987450	-0.213300	-0.335651
O16	O	1.487450	0.286700	0.164349
O17	O	1.188246	-0.477589	-0.343719
O18	O	1.688246	0.022411	0.156281
O19	O	1.077537	-0.213289	-0.425738
O20	O	1.577537	0.286711	0.074262
O21	O	0.982791	-0.363676	-0.221345
O22	O	1.482791	0.136324	0.278655
O23	O	0.873114	-0.375689	-0.331018
O24	O	1.373114	0.124311	0.168982
O25	O	0.995469	-0.498704	-0.536490
O26	O	1.495469	0.001296	-0.036490
O27	O	0.876571	-0.498718	-0.417593
O28	O	1.376571	0.001282	0.082407
O29	O	1.082099	-0.375664	-0.540001
O30	O	1.582099	0.124336	-0.040001
O31	O	1.073910	-0.639978	-0.339086
O32	O	1.573910	-0.139978	0.160914
O33	O	0.990810	-0.649080	-0.422184
O34	O	1.490810	-0.149080	0.077816
C35	C	0.849263	-0.438550	-0.373274
C36	C	1.349263	0.061450	0.126726
C37	C	0.770905	-0.442697	-0.370129
C38	C	1.270905	0.057303	0.129871
C39	C	0.735934	-0.385426	-0.413812
C40	C	1.235934	0.114574	0.086188
C41	C	0.662308	-0.389318	-0.410851
C42	C	1.162308	0.110682	0.089149
C43	C	0.623655	-0.450487	-0.364210
C44	C	1.123655	0.049513	0.135790
C45	C	0.658631	-0.507761	-0.320521
C46	C	1.158631	-0.007761	0.179479
C47	C	0.732255	-0.503863	-0.323479
C48	C	1.232255	-0.003863	0.176521
C49	C	0.403265	-0.468490	-0.350516
C50	C	0.903265	0.031510	0.149484
C51	C	0.329636	-0.472385	-0.347563
C52	C	0.829636	0.027615	0.152437
C53	C	0.333317	-0.353941	-0.437893
C54	C	0.833317	0.146059	0.062107
C55	C	0.406943	-0.350053	-0.440850
C56	C	0.906943	0.149947	0.059150
C57	C	0.441913	-0.407322	-0.397159
C58	C	0.941913	0.092678	0.102841
N59	N	0.548398	-0.454469	-0.361183
N60	N	1.048398	0.045531	0.138817
N61	N	0.517168	-0.403335	-0.400182
N62	N	1.017168	0.096665	0.099818
C63	C	1.032369	-0.679528	-0.380646
C64	C	1.532369	-0.179528	0.119354
C65	C	1.032409	-0.786741	-0.380664
C66	C	1.532409	-0.286741	0.119336
C67	C	1.032444	-0.873810	-0.380682
C68	C	1.532444	-0.373810	0.119318
C69	C	1.032494	-0.983041	-0.380702
C70	C	1.532494	-0.483041	0.119298
C71	C	1.216306	-0.419237	-0.388085
C72	C	1.716306	0.080763	0.111915
C73	C	1.294664	-0.415114	-0.391247
C74	C	1.794664	0.084886	0.108753
C75	C	1.039845	-0.438564	-0.564540
C76	C	1.539845	0.061436	-0.064540
C77	C	1.043006	-0.442677	-0.642896
C78	C	1.543006	0.057323	-0.142896
C79	C	1.032505	-0.177316	-0.380700
C80	C	1.532505	0.322684	0.119300
C81	C	1.032538	-0.070102	-0.380714
C82	C	1.532538	0.429898	0.119286
C83	C	0.999428	-0.385295	-0.677897
C84	C	1.499428	0.114705	-0.177897
C85	C	1.002395	-0.389168	-0.751521
C86	C	1.502395	0.110832	-0.251521
C87	C	1.048945	-0.450419	-0.790143
C88	C	1.548945	0.049581	-0.290143
C89	C	1.092526	-0.507807	-0.755137
C90	C	1.592526	-0.007807	-0.255137
C91	C	1.089554	-0.503939	-0.681514
C92	C	1.589554	-0.003939	-0.181514
C93	C	1.062662	-0.468354	-1.010527
C94	C	1.562662	0.031646	-0.510527
C95	C	1.065632	-0.472216	-1.084155
C96	C	1.565632	0.027784	-0.584155
C97	C	0.975500	-0.353577	-1.080534
C98	C	1.475500	0.146423	-0.580534
C99	C	0.972535	-0.349710	-1.006910
C100	C	1.472535	0.150290	-0.506910
C101	C	1.016113	-0.407102	-0.971910
C102	C	1.516113	0.092898	-0.471910
N103	N	1.051981	-0.454377	-0.865399
N104	N	1.551981	0.045623	-0.365399
N105	N	1.013073	-0.403148	-0.896655
N106	N	1.513073	0.096852	-0.396655
C107	C	1.025078	-0.419225	-0.197507
C108	C	1.525078	0.080775	0.302493
C109	C	1.022053	-0.414833	-0.119156
C110	C	1.522053	0.085167	0.380844
H111	H	0.760728	-0.550499	-0.287907
H112	H	1.260728	-0.050499	0.212093
H113	H	1.130424	-0.557684	-0.786589
H114	H	1.630424	-0.057684	-0.286589
H115	H	0.633838	-0.342684	-0.446424
H116	H	1.133838	0.157316	0.053576
H117	H	0.438410	-0.300246	-0.478833
H118	H	0.938410	0.199754	0.021167
C119	C	1.110606	-0.531467	-0.972037
C120	C	1.610606	-0.031467	-0.472037
H121	H	1.138761	-0.568487	-1.005585
H122	H	1.638761	-0.068487	-0.505585
H123	H	1.082474	-0.573411	-0.942219
H124	H	1.582474	-0.073411	-0.442219
H125	H	1.140177	-0.491431	-0.944565
H126	H	1.640177	0.008569	-0.444565
C127	C	0.927561	-0.290464	-1.119034
C128	C	1.427561	0.209536	-0.619034
H129	H	0.935990	-0.301545	-1.168413
H130	H	1.435990	0.198455	-0.668413
H131	H	0.937406	-0.224475	-1.107397
H132	H	1.437406	0.275525	-0.607397
H133	H	0.879701	-0.306453	-1.105053
H134	H	1.379701	0.193547	-0.605053
H135	H	1.125046	-0.550658	-0.653018
H136	H	1.625046	-0.050658	-0.153018
C137	C	0.616118	-0.575047	-0.269216
C138	C	1.116118	-0.075047	0.230784
H139	H	0.647493	-0.608592	-0.243619
H140	H	1.147493	-0.108592	0.256381
H141	H	0.588483	-0.620066	-0.294975
H142	H	1.088483	-0.120066	0.205025
H143	H	0.586160	-0.537989	-0.237390
H144	H	1.086160	-0.037989	0.262610
H145	H	0.767400	-0.335618	-0.451795
H146	H	1.267400	0.164382	0.048205
H147	H	0.304837	-0.307314	-0.473462
H148	H	0.804837	0.192686	0.026538
H149	H	1.103542	-0.522094	-1.115600
H150	H	1.603542	-0.022094	-0.615600
C151	C	0.287118	-0.539672	-0.296254
C152	C	0.787118	-0.039672	0.203746
H153	H	0.318489	-0.573216	-0.270652
H154	H	0.818489	-0.073216	0.229348
H155	H	0.259484	-0.584692	-0.322015
H156	H	0.759484	-0.084692	0.177985
H157	H	0.257158	-0.502610	-0.264432
H158	H	0.757158	-0.002610	0.235568
H159	H	0.431728	-0.515124	-0.314941
H160	H	0.931728	-0.015124	0.185059
H161	H	0.961525	-0.335412	-0.646456
H162	H	1.461525	0.164588	-0.146456
H163	H	0.966906	-0.342445	-0.780016
H164	H	1.466906	0.157555	-0.280016
C165	C	0.921328	-0.282340	-0.964427
C166	C	1.421328	0.217660	-0.464427
H167	H	0.925804	-0.288249	-0.915567
H168	H	1.425804	0.211751	-0.415567
H169	H	0.874444	-0.299581	-0.974579
H170	H	1.374444	0.200419	-0.474579
H171	H	0.932158	-0.217616	-0.976919
H172	H	1.432158	0.282384	-0.476919
