data_functionalizedCrystal
_audit_creation_method	'MofGen! by Chris Wilmer'
_symmetry_space_group_name_H-M	'P1'
_symmetry_Int_Tables_number	1
_symmetry_cell_setting	triclinic
loop_
_symmetry_equiv_pos_as_xyz
  x,y,z
_cell_length_a	18.426585
_cell_length_b	19.377369
_cell_length_c	19.376995
_cell_angle_alpha	82.777024
_cell_angle_beta	89.998316
_cell_angle_gamma	48.638366
loop_
_atom_site_label
_atom_site_type_symbol
_atom_site_fract_x
_atom_site_fract_y
_atom_site_fract_z
Zr1	Zr	0.543114	0.796044	0.044211
O2	O	0.419354	0.916322	-0.033383
O3	O	0.604485	0.649916	0.051073
O4	O	0.604541	0.758771	-0.057791
O5	O	0.392598	0.845883	0.180607
O6	O	0.723967	0.758775	-0.057793
O7	O	0.419297	0.807466	0.075481
O8	O	0.723865	0.564053	0.136945
O9	O	0.392700	1.040605	-0.014131
O10	O	0.691475	0.719598	0.074445
O11	O	0.582425	0.748264	0.152901
O12	O	0.582491	0.876427	0.024728
O13	O	0.473441	0.905094	0.103184
Zr14	Zr	0.691003	0.857320	0.211872
Zr15	Zr	0.733584	0.796051	0.044208
Zr16	Zr	0.500533	0.857314	0.211874
Zr17	Zr	0.500604	0.994261	0.074916
Zr18	Zr	0.733513	0.659103	0.181167
O19	O	0.629632	1.003449	0.205010
O20	O	0.690177	0.916331	-0.033387
O21	O	0.358809	1.003439	0.205014
O22	O	0.814763	0.737043	0.289465
O23	O	0.875308	0.649925	0.051068
O24	O	0.543940	0.737033	0.289469
O25	O	0.841519	0.807482	0.075475
O26	O	0.629576	0.894594	0.313874
O27	O	0.510150	0.894589	0.313875
O28	O	0.814820	0.845898	0.180601
O29	O	0.544098	1.040610	-0.014133
O30	O	0.690019	0.612754	0.270215
O31	O	0.841417	0.612760	0.270213
O32	O	0.875263	0.564058	0.136942
O33	O	0.358854	1.089306	0.119140
O34	O	0.510252	1.089311	0.119138
O35	O	0.651626	0.776937	0.231354
O36	O	0.760676	0.748271	0.152898
O37	O	0.651692	0.905100	0.103181
O38	O	0.542642	0.933767	0.181637
C39	C	0.670232	0.578743	0.089634
C40	C	0.688278	0.494594	0.076599
C41	C	0.463336	0.292430	0.238715
C42	C	0.480401	0.213290	0.226523
C43	C	0.594242	0.183374	0.144621
C44	C	0.577190	0.262511	0.156809
C45	C	0.511735	0.317034	0.203857
C46	C	0.625589	0.287114	0.121950
C47	C	0.608534	0.366248	0.134135
C48	C	0.543080	0.420777	0.181179
C49	C	0.494680	0.396167	0.216041
C50	C	0.691038	0.232593	0.074900
C51	C	0.739437	0.257197	0.040041
C52	C	0.722388	0.336328	0.052229
C53	C	0.656934	0.390857	0.099273
C54	C	0.770788	0.360937	0.017366
C55	C	0.753733	0.440071	0.029551
C56	C	0.639879	0.469990	0.111457
C57	C	0.378810	0.826674	0.128045
C58	C	0.297950	0.826671	0.128046
C59	C	0.001832	0.826698	0.128037
C60	C	0.084219	0.826694	0.128038
C61	C	0.149889	0.826684	0.128041
C62	C	0.232280	0.826681	0.128043
C63	C	0.855307	0.826691	0.128037
C64	C	0.936167	0.826694	0.128036
C65	C	0.670321	0.750043	-0.081681
C66	C	0.688398	0.724033	-0.152859
C67	C	0.563885	1.074622	0.166448
C68	C	0.545839	1.158770	0.179483
C69	C	0.770760	0.605514	-0.227231
C70	C	0.753767	0.629965	-0.160352
C71	C	0.639990	0.793688	-0.212248
C72	C	0.656969	0.769251	-0.279133
C73	C	0.722356	0.675163	-0.286618
C74	C	0.608565	0.838900	-0.338520
C75	C	0.625547	0.814465	-0.405399
C76	C	0.690932	0.720381	-0.412891
C77	C	0.739337	0.650728	-0.353497
C78	C	0.543184	0.932988	-0.331033
C79	C	0.494780	1.002637	-0.390420
C80	C	0.511756	0.978202	-0.457301
C81	C	0.577142	0.884118	-0.464793
C82	C	0.463351	1.047855	-0.516695
C83	C	0.480333	1.023420	-0.583574
C84	C	0.594123	0.859683	-0.531672
C85	C	0.563796	0.903321	0.337763
C86	C	0.545719	0.929332	0.408941
C87	C	0.908480	0.578751	0.089630
C88	C	1.007386	0.494606	0.076594
C89	C	0.616969	0.655382	0.299356
C90	C	0.616939	0.597244	0.357498
C91	C	0.855218	0.655390	0.299352
C92	C	0.936047	0.597255	0.357493
C93	C	0.378899	0.997974	-0.043270
C94	C	0.298070	1.056109	-0.101411
C95	C	0.325637	1.074613	0.166452
C96	C	0.226731	1.158759	0.179488
C97	C	0.617148	0.997983	-0.043274
C98	C	0.617178	1.056121	-0.101416
C99	C	1.017713	0.440120	0.029513
C100	C	1.110640	0.361062	0.017250
C101	C	1.193239	0.336486	0.052072
C102	C	1.182908	0.390980	0.099155
C103	C	1.089983	0.470041	0.111414
C104	C	0.653045	0.584911	0.425761
C105	C	0.653010	0.530298	0.480401
C106	C	0.616873	0.488012	0.466775
C107	C	0.580762	0.500350	0.398505
C108	C	0.580792	0.554968	0.343868
C109	C	1.030937	0.554991	0.343844
C110	C	1.106891	0.500375	0.398469
C111	C	1.087955	0.488020	0.466743
C112	C	0.993055	0.530292	0.480392
C113	C	0.917102	0.584911	0.425768
C114	C	0.203178	1.098383	-0.087760
C115	C	0.127219	1.153023	-0.142382
C116	C	0.146154	1.165383	-0.210655
C117	C	0.241055	1.123106	-0.224304
C118	C	0.317011	1.068472	-0.169682
C119	C	0.216404	1.213250	0.226563
C120	C	0.123477	1.292323	0.238811
C121	C	0.040878	1.316901	0.203987
C122	C	0.051209	1.262405	0.156907
C123	C	0.144134	1.183336	0.144656
C124	C	0.653322	1.098390	-0.087769
C125	C	0.653368	1.153009	-0.142395
C126	C	0.617264	1.165362	-0.210668
C127	C	0.581120	1.123086	-0.224315
C128	C	0.581080	1.068463	-0.169690
H129	H	0.704916	0.168163	0.064977
H130	H	0.823995	0.528898	-0.233325
Br131	Br	0.374513	0.366427	0.302573
Br132	Br	0.414702	0.179907	0.273832
H133	H	0.441545	1.079243	-0.384316
Br134	Br	0.702420	1.210378	-0.123858
H135	H	0.551643	1.034052	-0.180811
H136	H	0.792727	0.212797	0.001733
H137	H	0.049953	1.187437	-0.131255
Br138	Br	0.682851	0.731990	-0.541837
Br139	Br	0.158132	1.109389	0.080767
Br140	Br	0.043059	1.239532	-0.284777
H141	H	1.149809	0.443543	0.511214
H142	H	0.394276	1.034050	-0.180806
Br143	Br	0.683064	0.109376	0.080769
Br144	Br	0.828065	0.523035	-0.363663
H145	H	0.115084	1.336684	0.277150
H146	H	0.441381	0.440564	0.254352
Br147	Br	-0.060901	1.295770	0.109653
Br148	Br	1.319347	0.229185	0.035427
Br149	Br	0.788325	0.642261	0.444304
Br150	Br	0.551056	0.543987	0.175315
Br151	Br	0.859600	0.286945	-0.046492
H152	H	1.184157	0.465961	0.387344
H153	H	0.793144	0.460103	0.001165
Br154	Br	0.177454	1.081621	0.004889
H155	H	0.977650	0.520224	0.535987
H156	H	1.250173	0.370958	0.127504
Br157	Br	0.266738	1.139886	-0.316965
Br158	Br	0.819498	0.535430	-0.079753
H159	H	0.950468	0.460124	0.001146
H160	H	0.704763	0.700488	-0.467350
Br161	Br	-0.085230	1.424212	0.220622
H162	H	0.283649	1.193249	0.254928
H163	H	0.616855	0.443541	0.511270
Br164	Br	0.702327	1.081640	0.004881
H165	H	0.551394	0.564998	0.288286
H166	H	0.586755	0.870294	-0.206143
H167	H	0.529360	0.952879	-0.276574
Br168	Br	0.617323	1.239499	-0.284794
H169	H	0.551724	1.133153	-0.279909
H170	H	0.410121	1.124461	-0.510589
Br171	Br	0.414649	1.117943	-0.664176
Br172	Br	1.075985	0.543973	0.175317
Br173	Br	1.124636	0.287120	-0.046648
Br174	Br	0.702099	0.642283	0.444272
H175	H	0.682419	0.520261	0.535984
H176	H	0.551341	0.465914	0.387420
Br177	Br	1.056661	0.571750	0.251194
H178	H	0.529192	0.485214	0.191096
