data_functionalizedCrystal
_audit_creation_method	'MofGen! by Chris Wilmer'
_symmetry_space_group_name_H-M	'P1'
_symmetry_Int_Tables_number	1
_symmetry_cell_setting	triclinic
loop_
_symmetry_equiv_pos_as_xyz
  x,y,z
_cell_length_a	19.288864
_cell_length_b	18.366186
_cell_length_c	19.288857
_cell_angle_alpha	90.009717
_cell_angle_beta	83.134677
_cell_angle_gamma	90.012929
loop_
_atom_site_label
_atom_site_type_symbol
_atom_site_fract_x
_atom_site_fract_y
_atom_site_fract_z
O1	O	0.921340	0.060787	0.086652
O2	O	0.719079	0.060737	0.098340
O3	O	0.826057	0.060755	-0.008635
O4	O	0.814362	0.060769	0.193627
O5	O	0.826059	-0.060345	-0.008645
O6	O	0.719082	-0.060362	0.098330
O7	O	0.921343	-0.060313	0.086641
Zn8	Zn	0.820212	-0.079565	0.092484
Zn9	Zn	0.820209	0.079989	0.092498
O10	O	0.814365	-0.060330	0.193616
C11	C	0.693204	0.000181	0.097959
C12	C	0.616100	0.000162	0.096830
N13	N	0.820207	0.188880	0.092502
C14	C	0.825683	0.000204	-0.034516
C15	C	0.824556	0.000202	-0.111620
C16	C	0.571402	0.000178	0.159598
C17	C	0.498955	0.000186	0.158537
C18	C	0.471209	0.000193	0.094705
C19	C	0.515917	0.000172	0.031929
C20	C	0.588363	0.000157	0.032991
C21	C	0.362948	0.042640	0.044529
C22	C	0.290504	0.042660	0.043470
C23	C	0.247764	0.000236	0.091425
C24	C	0.277476	-0.042197	0.140453
C25	C	0.349922	-0.042213	0.141516
C26	C	0.392656	0.000209	0.093546
C27	C	0.124510	0.000260	0.153048
C28	C	0.052062	0.000263	0.151984
C29	C	0.069026	0.000257	0.025374
C30	C	0.141472	0.000246	0.026439
C31	C	0.169210	0.000251	0.090278
C32	C	0.947218	0.000245	0.087022
C33	C	1.024321	0.000269	0.088151
N34	N	0.820220	-0.188456	0.092474
C35	C	0.867661	0.226988	0.045225
C36	C	0.867667	0.303216	0.045224
C37	C	0.820207	0.341333	0.092492
C38	C	0.772750	0.303216	0.139778
C39	C	0.772750	0.226989	0.139782
C40	C	0.756920	0.462085	0.101637
C41	C	0.756919	0.538310	0.101628
C42	C	0.820208	0.576440	0.092482
C43	C	0.883500	0.538336	0.083331
C44	C	0.883500	0.462110	0.083335
C45	C	0.820203	0.423988	0.092493
C46	C	0.867672	0.697203	0.045201
C47	C	0.867679	0.773433	0.045205
C48	C	0.772756	0.773431	0.139755
C49	C	0.772755	0.697203	0.139755
C50	C	0.820212	0.659094	0.092474
C51	C	0.824028	0.066213	-0.147825
C52	C	0.822960	0.066218	-0.220271
C53	C	0.822432	0.000208	-0.256511
C54	C	0.822956	-0.065812	-0.220297
C55	C	0.824017	-0.065815	-0.147852
C56	C	0.861435	-0.050350	-0.376747
C57	C	0.860378	-0.050344	-0.449192
C58	C	0.819155	0.000216	-0.479957
C59	C	0.778998	0.050781	-0.438270
C60	C	0.780060	0.050778	-0.365824
C61	C	0.821281	0.000205	-0.335066
C62	C	0.817467	0.066237	-0.594716
C63	C	0.816394	0.066240	-0.667163
C64	C	0.816398	-0.065792	-0.667189
C65	C	0.817464	-0.065793	-0.594742
C66	C	0.818002	0.000224	-0.558511
C67	C	0.814739	0.000222	0.219498
C68	C	0.815866	0.000229	0.296602
H69	H	0.593981	0.000183	0.211581
Br70	Br	0.932075	0.354944	-0.018942
H71	H	0.822524	-0.119557	-0.249808
Br72	Br	0.818176	-0.155385	-0.545603
H73	H	0.935035	0.431089	0.075886
Br74	Br	0.815671	0.155834	-0.716299
H75	H	0.906305	0.195962	0.006728
H76	H	0.734109	0.334254	0.178265
Br77	Br	0.914879	-0.118963	-0.505761
H78	H	0.015669	0.000272	0.203100
H79	H	0.493322	0.000188	-0.020044
Br80	Br	0.815675	-0.155379	-0.716363
H81	H	0.895003	-0.091527	-0.351705
H82	H	0.397741	0.077190	0.005476
H83	H	0.824444	-0.119571	-0.118374
Br84	Br	0.250186	0.100257	-0.023058
H85	H	0.624757	0.000145	-0.018124
H86	H	0.822526	0.119974	-0.249755
H87	H	0.705383	0.569328	0.109071
H88	H	0.824465	0.119969	-0.118330
H89	H	0.705379	0.431046	0.109089
H90	H	0.935036	0.569380	0.075888
H91	H	0.177867	0.000237	-0.024674
H92	H	0.374110	-0.076766	0.181433
Br93	Br	0.932080	0.645482	-0.018962
Br94	Br	0.708353	0.825154	0.203913
H95	H	0.147095	0.000253	0.205029
H96	H	0.462555	0.000197	0.209652
H97	H	0.817902	0.119992	-0.565215
Br98	Br	0.031379	0.000254	-0.061258
H99	H	0.242679	-0.076743	0.179503
H100	H	0.906326	0.804461	0.006708
Br101	Br	0.708344	0.175266	0.203949
H102	H	0.734111	0.666173	0.178249
Br103	Br	0.725563	0.119397	-0.309251
H104	H	0.745430	0.091952	-0.463317
