data_functionalizedCrystal
_audit_creation_method	'MofGen! by Chris Wilmer'
_symmetry_space_group_name_H-M	'P1'
_symmetry_Int_Tables_number	1
_symmetry_cell_setting	triclinic
loop_
_symmetry_equiv_pos_as_xyz
  x,y,z
_cell_length_a	14.519731
_cell_length_b	14.519709
_cell_length_c	13.596369
_cell_angle_alpha	89.999709
_cell_angle_beta	89.993029
_cell_angle_gamma	96.315501
loop_
_atom_site_label
_atom_site_type_symbol
_atom_site_fract_x
_atom_site_fract_y
_atom_site_fract_z
O1	O	0.120892	-1.223878	-0.081666
O2	O	0.620892	-0.723878	0.418334
O3	O	0.135128	-0.955402	-0.081696
O4	O	0.635128	-0.455402	0.418304
O5	O	-0.006227	-1.096748	-0.081671
O6	O	0.493773	-0.596748	0.418329
O7	O	0.262247	-1.082532	-0.081690
O8	O	0.762247	-0.582532	0.418310
O9	O	-0.006235	-1.096734	0.081912
O10	O	0.493765	-0.596734	0.581912
O11	O	0.135120	-0.955388	0.081887
O12	O	0.635120	-0.455388	0.581887
O13	O	0.120884	-1.223864	0.081917
O14	O	0.620884	-0.723864	0.581917
Zn15	Zn	0.128001	-1.089623	0.107874
Zn16	Zn	0.628001	-0.589623	0.607874
Zn17	Zn	0.128011	-1.089642	-0.107653
Zn18	Zn	0.628011	-0.589642	0.392347
O19	O	0.262239	-1.082518	0.081892
O20	O	0.762239	-0.582518	0.581892
C21	C	0.134461	-0.921035	0.000092
C22	C	0.634461	-0.421035	0.500092
C23	C	0.132473	-0.818654	0.000080
C24	C	0.632473	-0.318654	0.500080
C25	C	-0.040591	-1.096075	0.000121
C26	C	0.459409	-0.596075	0.500121
C27	C	-0.142971	-1.094079	0.000121
C28	C	0.357029	-0.594079	0.500121
C29	C	-0.226115	-1.092457	0.000119
C30	C	0.273885	-0.592457	0.500119
C31	C	-0.330424	-1.090430	0.000111
C32	C	0.169576	-0.590430	0.500111
C33	C	-0.413563	-1.088822	0.000104
C34	C	0.086437	-0.588822	0.500104
C35	C	-0.517878	-1.086795	0.000098
C36	C	-0.017878	-0.586795	0.500098
C37	C	0.121551	-1.258230	0.000128
C38	C	0.621551	-0.758230	0.500128
C39	C	0.123539	-1.360612	0.000132
C40	C	0.623539	-0.860612	0.500132
C41	C	0.296603	-1.083191	0.000099
C42	C	0.796603	-0.583191	0.500099
C43	C	0.398983	-1.085187	0.000092
C44	C	0.898983	-0.585187	0.500092
N45	N	0.127994	-1.089617	0.254966
N46	N	0.627994	-0.589617	0.754966
C47	C	0.125153	-0.443757	0.000126
C48	C	0.625153	0.056243	0.500126
C49	C	0.127186	-0.548065	0.000113
C50	C	0.627186	-0.048065	0.500113
C51	C	0.128813	-0.631202	0.000102
C52	C	0.628813	-0.131202	0.500102
C53	C	0.130846	-0.735517	0.000091
C54	C	0.630846	-0.235517	0.500091
N55	N	0.128011	-1.089655	-0.254745
N56	N	0.628011	-0.589655	0.245255
C57	C	0.128012	-1.089641	0.656257
C58	C	0.628012	-0.589641	1.156257
C59	C	0.128010	-1.089632	0.544606
C60	C	0.628010	-0.589632	1.044606
C61	C	0.128004	-1.089630	0.455615
C62	C	0.628004	-0.589630	0.955615
C63	C	0.128000	-1.089619	0.343957
C64	C	0.628000	-0.589619	0.843957
