data_functionalizedCrystal
_audit_creation_method	'MofGen! by Chris Wilmer'
_symmetry_space_group_name_H-M	'P1'
_symmetry_Int_Tables_number	1
_symmetry_cell_setting	triclinic
loop_
_symmetry_equiv_pos_as_xyz
  x,y,z
_cell_length_a	8.559649
_cell_length_b	10.065875
_cell_length_c	8.559649
_cell_angle_alpha	82.450058
_cell_angle_beta	69.778664
_cell_angle_gamma	97.500981
loop_
_atom_site_label
_atom_site_type_symbol
_atom_site_fract_x
_atom_site_fract_y
_atom_site_fract_z
O1	O	2.153539	0.113472	-0.081789
O2	O	1.678055	0.113478	0.001991
O3	O	1.957687	0.113473	-0.277641
O4	O	1.873907	0.113477	0.197843
O5	O	1.904342	-0.113515	-0.224128
O6	O	1.624710	-0.113510	0.055504
O7	O	2.100193	-0.113515	-0.028276
Zn8	Zn	1.853982	-0.149552	0.022110
Zn9	Zn	1.924267	0.149514	-0.048395
O10	O	1.820561	-0.113511	0.251356
C11	C	1.591074	-0.000015	0.035096
C12	C	1.411375	-0.000013	0.053995
N13	N	1.806026	-0.353657	0.070226
C14	C	1.907573	-0.421437	-0.031663
C15	C	1.870676	-0.578604	0.005379
C16	C	2.187176	-0.000019	-0.061382
C17	C	2.366877	-0.000012	-0.080283
C18	C	1.937364	-0.000018	-0.311194
C19	C	1.956265	-0.000011	-0.490895
N20	N	1.972237	0.353619	-0.096525
C21	C	1.840885	-0.000016	0.284908
C22	C	1.821986	-0.000015	0.464607
H23	H	1.466256	-0.000007	-0.209704
O24	O	2.043736	-0.351900	-0.168613
C25	C	2.183065	-0.307866	-0.472697
C26	C	2.028746	-0.386692	-0.317766
H27	H	2.171016	-0.335988	-0.593323
H28	H	2.188518	-0.193498	-0.478295
H29	H	2.303979	-0.335829	-0.461151
H30	H	1.907748	-0.358844	-0.329206
H31	H	2.023443	-0.501040	-0.312220
H32	H	1.756409	-0.636923	0.120035
O33	O	2.108387	-0.577021	-0.233620
C34	C	2.247370	-0.533541	-0.537724
C35	C	2.093088	-0.612059	-0.382547
H36	H	2.235070	-0.561862	-0.658168
H37	H	2.253057	-0.419125	-0.543627
H38	H	2.368273	-0.561580	-0.526237
H39	H	1.972100	-0.584134	-0.393927
H40	H	2.087550	-0.726455	-0.376696
H41	H	1.311989	-0.000005	0.183421
H42	H	1.691767	-0.411981	0.184875
O43	O	2.110784	-0.000077	-0.609223
C44	C	2.406874	0.000012	-0.666123
C45	C	2.231980	0.000053	-0.531941
H46	H	2.504915	0.000145	-0.603698
H47	H	2.400378	-0.095011	-0.724603
H48	H	2.444826	0.094977	-0.769447
H49	H	2.193923	-0.094849	-0.428517
H50	H	2.238572	0.095138	-0.473595
H51	H	1.692566	-0.000018	-0.436014
