data_functionalizedCrystal
_audit_creation_method	'MofGen! by Chris Wilmer'
_symmetry_space_group_name_H-M	'P1'
_symmetry_Int_Tables_number	1
_symmetry_cell_setting	triclinic
loop_
_symmetry_equiv_pos_as_xyz
  x,y,z
_cell_length_a	11.026607
_cell_length_b	14.044190
_cell_length_c	9.482900
_cell_angle_alpha	100.185237
_cell_angle_beta	78.636152
_cell_angle_gamma	100.888897
loop_
_atom_site_label
_atom_site_type_symbol
_atom_site_fract_x
_atom_site_fract_y
_atom_site_fract_z
O1	O	1.671593	0.392559	-0.120959
O2	O	1.313300	0.346511	-0.120953
O3	O	1.487060	0.230634	-0.120927
O4	O	1.497833	0.508435	-0.120985
O5	O	1.451778	0.254292	0.120860
O6	O	1.278019	0.370168	0.120834
O7	O	1.636312	0.416217	0.120829
Cu8	Cu	1.453944	0.395353	0.142908
Cu9	Cu	1.495668	0.367374	-0.143033
O10	O	1.462552	0.532093	0.120803
C11	C	1.249528	0.349844	-0.000058
C12	C	1.112072	0.324520	-0.000055
C13	C	1.464709	0.206346	-0.000029
C14	C	1.450660	0.098724	-0.000016
C15	C	1.045840	0.394444	-0.000070
C16	C	0.903771	0.368272	-0.000067
C17	C	1.524614	-0.138951	-0.000074
C18	C	1.425005	-0.098317	-0.000063
C19	C	1.439283	0.011327	-0.000037
C20	C	1.510338	-0.248604	-0.000100
C21	C	1.700084	0.412882	-0.000069
C22	C	1.837542	0.438206	-0.000082
C23	C	1.484903	0.556381	-0.000099
C24	C	1.498954	0.664002	-0.000121
N25	N	1.424606	0.415032	0.344024
N26	N	1.525015	0.347689	-0.344149
C27	C	1.487006	0.373172	0.416233
C28	C	1.462606	0.389555	0.583646
H29	H	1.094313	0.473684	-0.000078
O30	O	0.845979	0.273742	0.000207
C31	C	0.796901	0.132602	0.125449
C32	C	0.862379	0.239658	0.125339
H33	H	0.810160	0.105006	0.226592
H34	H	0.692599	0.128289	0.125543
H35	H	0.839548	0.085232	0.024221
H36	H	0.819835	0.287092	0.226549
H37	H	0.966679	0.243894	0.125170
H38	H	1.329004	-0.145874	-0.000070
H39	H	1.620607	-0.091396	-0.000061
H40	H	1.353114	0.462994	0.406143
O41	O	1.377143	0.446650	0.657672
C42	C	1.161687	0.471532	0.704506
C43	C	1.258335	0.406777	0.620606
H44	H	1.065614	0.439331	0.674546
H45	H	1.157092	0.474532	0.826341
H46	H	1.190833	0.548724	0.674667
H47	H	1.229259	0.329554	0.650323
H48	H	1.262914	0.403860	0.498792
H49	H	1.596501	0.299716	0.593738
H50	H	1.063603	0.245277	-0.000076
O51	O	0.895560	0.532688	-0.000190
C52	C	1.090043	0.644930	-0.000178
C53	C	1.024498	0.537891	-0.000073
H54	H	1.194295	0.649175	-0.000053
H55	H	1.077002	0.672541	-0.101410
H56	H	1.047323	0.692334	0.100965
H57	H	1.067174	0.490412	-0.101148
H58	H	1.037530	0.510360	0.101225
H59	H	1.558488	0.325202	0.354115
