data_functionalizedCrystal
_audit_creation_method	'MofGen! by Chris Wilmer'
_symmetry_space_group_name_H-M	'P1'
_symmetry_Int_Tables_number	1
_symmetry_cell_setting	triclinic
loop_
_symmetry_equiv_pos_as_xyz
  x,y,z
_cell_length_a	27.731994
_cell_length_b	27.732048
_cell_length_c	26.809956
_cell_angle_alpha	89.988964
_cell_angle_beta	89.981798
_cell_angle_gamma	82.631595
loop_
_atom_site_label
_atom_site_type_symbol
_atom_site_fract_x
_atom_site_fract_y
_atom_site_fract_z
O1	O	0.640958	0.057391	-0.041414
O2	O	0.974292	0.390725	0.291920
O3	O	1.307625	0.724058	0.625253
O4	O	0.500161	0.066164	-0.041431
O5	O	0.833494	0.399498	0.291902
O6	O	1.166828	0.732831	0.625236
O7	O	0.574933	-0.008620	-0.041412
O8	O	0.908266	0.324714	0.291921
O9	O	1.241599	0.658047	0.625254
O10	O	0.566187	0.132175	-0.041432
O11	O	0.899520	0.465509	0.291901
O12	O	1.232853	0.798842	0.625234
O13	O	0.574898	-0.008620	0.041547
O14	O	0.908232	0.324713	0.374880
O15	O	1.241565	0.658046	0.708213
O16	O	0.500127	0.066164	0.041528
O17	O	0.833460	0.399497	0.374861
O18	O	1.166793	0.732830	0.708195
O19	O	0.640924	0.057391	0.041545
O20	O	0.974257	0.390724	0.374879
O21	O	1.307591	0.724057	0.708212
Zn22	Zn	0.570520	0.061777	0.054708
Zn23	Zn	0.903853	0.395111	0.388042
Zn24	Zn	1.237187	0.728444	0.721375
Zn25	Zn	0.570565	0.061778	-0.054594
Zn26	Zn	0.903898	0.395111	0.278739
Zn27	Zn	1.237232	0.728445	0.612073
O28	O	0.566153	0.132175	0.041527
O29	O	0.899486	0.465508	0.374860
O30	O	1.232819	0.798842	0.708193
C31	C	0.482137	0.065984	0.000046
C32	C	0.815470	0.399317	0.333380
C33	C	1.148803	0.732651	0.666713
C34	C	0.428480	0.065442	0.000040
C35	C	0.761814	0.398775	0.333374
C36	C	1.095147	0.732108	0.666707
C37	C	0.095743	0.062026	0.045281
C38	C	0.429076	0.395359	0.378614
C39	C	0.762410	0.728692	0.711948
C40	C	-0.105915	0.059964	0.045287
C41	C	0.227418	0.393297	0.378620
C42	C	0.560752	0.726631	0.711954
O43	O	-0.132004	0.059676	0.083746
O44	O	0.201330	0.393010	0.417079
O45	O	0.534663	0.726343	0.750412
N46	N	-0.131111	0.059708	0.000066
N47	N	0.202222	0.393042	0.333399
N48	N	0.535555	0.726375	0.666733
C49	C	-0.105889	0.059965	-0.045160
C50	C	0.227444	0.393298	0.288174
C51	C	0.560777	0.726631	0.621507
O52	O	-0.131947	0.059695	-0.083623
O53	O	0.201387	0.393028	0.249710
O54	O	0.534720	0.726362	0.583044
C55	C	0.095768	0.062023	-0.045165
C56	C	0.429102	0.395356	0.288168
C57	C	0.762435	0.728689	0.621501
C58	C	0.120961	0.062283	0.000059
C59	C	0.454295	0.395617	0.333392
C60	C	0.787628	0.728950	0.666725
C61	C	0.120936	0.062286	0.090501
C62	C	0.454269	0.395619	0.423835
C63	C	0.787603	0.728952	0.757168
C64	C	0.171347	0.062804	0.090499
C65	C	0.504680	0.396137	0.423833
C66	C	0.838014	0.729470	0.757166
C67	C	0.196565	0.063062	0.045277
C68	C	0.529899	0.396395	0.378610
C69	C	0.863232	0.729728	0.711944
C70	C	0.171372	0.062801	0.000057
C71	C	0.504706	0.396135	0.333390
C72	C	0.838039	0.729468	0.666724
C73	C	0.120990	0.062276	-0.090390
C74	C	0.454323	0.395609	0.242943
C75	C	0.787657	0.728943	0.576276
C76	C	0.171408	0.062789	-0.090388
C77	C	0.504741	0.396123	0.242946
C78	C	0.838074	0.729456	0.576279
C79	C	0.196601	0.063050	-0.045164
C80	C	0.529934	0.396383	0.288170
C81	C	0.863267	0.729716	0.621503
C82	C	0.247002	0.063577	-0.045167
C83	C	0.580335	0.396911	0.288166
C84	C	0.913668	0.730244	0.621499
N85	N	0.272198	0.063833	0.000054
N86	N	0.605531	0.397167	0.333387
N87	N	0.938865	0.730500	0.666720
C88	C	0.246980	0.063575	0.045276
C89	C	0.580313	0.396909	0.378609
C90	C	0.913646	0.730242	0.711943
C91	C	-0.211763	0.058885	-0.045154
C92	C	0.121571	0.392218	0.288180
C93	C	0.454904	0.725552	0.621513
C94	C	-0.262177	0.058371	-0.045152
C95	C	0.071156	0.391705	0.288181
C96	C	0.404490	0.725038	0.621514
C97	C	-0.262199	0.058370	0.045294
C98	C	0.071134	0.391703	0.378628
C99	C	0.404468	0.725036	0.711961
C100	C	-0.211784	0.058887	0.045293
C101	C	0.121549	0.392220	0.378626
C102	C	0.454882	0.725554	0.711959
C103	C	-0.186567	0.059141	0.000067
C104	C	0.146767	0.392474	0.333401
C105	C	0.480100	0.725807	0.666734
C106	C	0.352847	0.064664	0.045268
C107	C	0.686180	0.397997	0.378602
C108	C	1.019513	0.731330	0.711935
C109	C	0.403262	0.065184	0.045262
C110	C	0.736595	0.398517	0.378596
C111	C	1.069929	0.731850	0.711929
C112	C	0.403280	0.065183	-0.045184
C113	C	0.736613	0.398516	0.288149
C114	C	1.069947	0.731849	0.621483
C115	C	0.352869	0.064665	-0.045179
C116	C	0.686202	0.397999	0.288155
C117	C	1.019536	0.731332	0.621488
C118	C	0.327654	0.064404	0.000052
C119	C	0.660987	0.397737	0.333385
C120	C	0.994320	0.731071	0.666718
O121	O	0.273122	0.063860	-0.083606
O122	O	0.606455	0.397193	0.249727
O123	O	0.939789	0.730527	0.583061
O124	O	0.273047	0.063834	0.083733
O125	O	0.606381	0.397168	0.417067
O126	O	0.939714	0.730501	0.750400
C127	C	0.045332	0.061508	0.045283
C128	C	0.378665	0.394841	0.378616
C129	C	0.711999	0.728174	0.711950
C130	C	0.020139	0.061247	0.000063
C131	C	0.353472	0.394581	0.333396
C132	C	0.686806	0.727914	0.666729
C133	C	0.045357	0.061505	-0.045160
C134	C	0.378690	0.394839	0.288174
C135	C	0.712024	0.728172	0.621507
C136	C	-0.030275	0.060734	0.000064
C137	C	0.303058	0.394067	0.333397
C138	C	0.636391	0.727400	0.666731
C139	C	-0.055494	0.060476	0.045286
C140	C	0.277840	0.393809	0.378619
C141	C	0.611173	0.727142	0.711953
C142	C	-0.030297	0.060732	0.090507
C143	C	0.303036	0.394065	0.423840
C144	C	0.636369	0.727398	0.757174
C145	C	0.020114	0.061250	0.090505
C146	C	0.353447	0.394583	0.423839
C147	C	0.686780	0.727916	0.757172
C148	C	0.020161	0.061250	-0.090381
C149	C	0.353494	0.394583	0.242953
C150	C	0.686828	0.727916	0.576286
C151	C	-0.030250	0.060732	-0.090375
C152	C	0.303083	0.394065	0.242958
C153	C	0.636416	0.727399	0.576292
C154	C	-0.055468	0.060474	-0.045153
C155	C	0.277865	0.393808	0.288181
C156	C	0.611198	0.727141	0.621514
C157	C	0.574732	-0.026627	0.000069
C158	C	0.908065	0.306706	0.333402
C159	C	1.241398	0.640040	0.666735
C160	C	0.574179	-0.080282	0.000073
C161	C	0.907512	0.253052	0.333406
C162	C	1.240846	0.586385	0.666739
C163	C	0.614884	-0.419105	0.000052
C164	C	0.948217	-0.085771	0.333385
C165	C	1.281551	0.247562	0.666719
C166	C	0.612833	-0.620764	0.000045
C167	C	0.946166	-0.287431	0.333378
C168	C	1.279499	0.045903	0.666711
O169	O	0.650055	-0.652027	0.000028
O170	O	0.983388	-0.318693	0.333361
O171	O	1.316721	0.014640	0.666694
N172	N	0.568496	-0.639879	0.000040
N173	N	0.901830	-0.306546	0.333373
N174	N	1.235163	0.026788	0.666706
C175	C	0.524670	-0.608576	0.000033
C176	C	0.858003	-0.275242	0.333367
C177	C	1.191336	0.058091	0.666700
O178	O	0.486912	-0.629462	0.000024
O179	O	0.820245	-0.296128	0.333357
O180	O	1.153578	0.037205	0.666690
C181	C	0.526721	-0.406918	0.000037
C182	C	0.860055	-0.073584	0.333370
C183	C	1.193388	0.259749	0.666704
C184	C	0.571060	-0.387805	0.000047
C185	C	0.904394	-0.054472	0.333380
C186	C	1.237727	0.278861	0.666714
C187	C	0.659220	-0.399992	0.000061
C188	C	0.992553	-0.066659	0.333395
C189	C	1.325886	0.266675	0.666728
C190	C	0.659732	-0.349580	0.000066
C191	C	0.993065	-0.016247	0.333399
C192	C	1.326398	0.317086	0.666733
C193	C	0.615908	-0.318281	0.000061
C194	C	0.949242	0.015052	0.333394
C195	C	1.282575	0.348386	0.666728
C196	C	0.571573	-0.337394	0.000052
C197	C	0.904906	-0.004060	0.333385
C198	C	1.238239	0.329273	0.666718
C199	C	0.482895	-0.375615	0.000027
C200	C	0.816228	-0.042282	0.333360
C201	C	1.149562	0.291051	0.666694
C202	C	0.483412	-0.325198	0.000027
C203	C	0.816745	0.008135	0.333360
C204	C	1.150078	0.341468	0.666693
C205	C	0.527751	-0.306086	0.000037
C206	C	0.861084	0.027247	0.333370
C207	C	1.194418	0.360581	0.666703
C208	C	0.528262	-0.255683	0.000051
C209	C	0.861595	0.077651	0.333384
C210	C	1.194928	0.410984	0.666718
N211	N	0.572598	-0.236567	0.000056
N212	N	0.905931	0.096766	0.333389
N213	N	1.239265	0.430099	0.666723
C214	C	0.616421	-0.267867	0.000061
C215	C	0.949755	0.065467	0.333394
C216	C	1.283088	0.398800	0.666728
C217	C	0.523596	-0.714450	0.000032
C218	C	0.856929	-0.381116	0.333366
C219	C	1.190262	-0.047783	0.666699
C220	C	0.523083	-0.764864	0.000032
C221	C	0.856416	-0.431531	0.333366
C222	C	1.189749	-0.098197	0.666699
C223	C	0.611246	-0.777049	0.000043
C224	C	0.944579	-0.443715	0.333376
C225	C	1.277913	-0.110382	0.666710
C226	C	0.611759	-0.726633	0.000047
C227	C	0.945092	-0.393300	0.333380
C228	C	1.278425	-0.059967	0.666713
C229	C	0.567932	-0.695335	0.000037
C230	C	0.901265	-0.362001	0.333371
C231	C	1.234599	-0.028668	0.666704
C232	C	0.617494	-0.161998	0.000071
C233	C	0.950827	0.171336	0.333404
C234	C	1.284161	0.504669	0.666738
C235	C	0.618002	-0.111581	0.000078
C236	C	0.951336	0.221752	0.333411
C237	C	1.284669	0.555086	0.666744
C238	C	0.529839	-0.099401	0.000064
C239	C	0.863173	0.233933	0.333398
C240	C	1.196506	0.567266	0.666731
C241	C	0.529331	-0.149813	0.000060
C242	C	0.862664	0.183520	0.333394
C243	C	1.195997	0.516854	0.666727
C244	C	0.573162	-0.181111	0.000062
C245	C	0.906495	0.152222	0.333395
C246	C	1.239829	0.485556	0.666729
O247	O	0.491060	-0.224391	0.000063
O248	O	0.824393	0.108942	0.333396
O249	O	1.157727	0.442275	0.666729
O250	O	0.654174	-0.246971	0.000060
O251	O	0.987507	0.086362	0.333393
O252	O	1.320841	0.419695	0.666726
C253	C	0.614372	-0.469517	0.000047
C254	C	0.947705	-0.136183	0.333381
C255	C	1.281038	0.197150	0.666714
C256	C	0.570036	-0.488629	0.000038
C257	C	0.903369	-0.155296	0.333371
C258	C	1.236703	0.178037	0.666705
C259	C	0.526213	-0.457330	0.000033
C260	C	0.859546	-0.123997	0.333366
C261	C	1.192879	0.209337	0.666700
C262	C	0.569523	-0.539043	0.000038
C263	C	0.902856	-0.205710	0.333371
C264	C	1.236190	0.127623	0.666705
C265	C	0.613346	-0.570343	0.000043
C266	C	0.946680	-0.237009	0.333376
C267	C	1.280013	0.096324	0.666710
C268	C	0.657683	-0.551228	0.000048
C269	C	0.991016	-0.217894	0.333381
C270	C	1.324349	0.115439	0.666715
C271	C	0.658195	-0.500816	0.000052
C272	C	0.991528	-0.167482	0.333386
C273	C	1.324862	0.165851	0.666719
C274	C	0.481876	-0.476445	0.000028
C275	C	0.815209	-0.143112	0.333361
C276	C	1.148543	0.190222	0.666695
C277	C	0.481367	-0.526857	0.000024
C278	C	0.814701	-0.193524	0.333357
C279	C	1.148034	0.139809	0.666691
C280	C	0.525191	-0.558157	0.000029
C281	C	0.858524	-0.224823	0.333362
C282	C	1.191857	0.108510	0.666696
C283	C	0.658949	0.057571	0.000067
C284	C	0.992282	0.390904	0.333400
C285	C	1.325615	0.724238	0.666734
C286	C	0.712605	0.058114	0.000070
C287	C	1.045938	0.391447	0.333403
C288	C	1.379272	0.724780	0.666736
C289	C	0.566353	0.150182	0.000045
C290	C	0.899687	0.483515	0.333378
C291	C	1.233020	0.816849	0.666711
C292	C	0.566906	0.203837	0.000037
C293	C	0.900239	0.537170	0.333371
C294	C	1.233573	0.870503	0.666704
N295	N	0.570493	0.061776	0.129304
N296	N	0.903826	0.395110	0.462638
N297	N	1.237159	0.728443	0.795971
C298	C	0.537419	0.094878	0.526179
C299	C	0.870752	0.428212	0.859513
C300	C	1.204086	0.761545	1.192846
C301	C	0.537395	0.094878	0.317302
C302	C	0.870729	0.428211	0.650635
C303	C	1.204062	0.761545	0.983968
O304	O	0.509217	0.123017	0.290294
O305	O	0.842550	0.456350	0.623627
O306	O	1.175883	0.789683	0.956961
N307	N	0.570508	0.061775	0.291183
N308	N	0.903842	0.395109	0.624516
N309	N	1.237175	0.728442	0.957850
C310	C	0.603628	0.028668	0.317287
C311	C	0.936961	0.362001	0.650620
C312	C	1.270294	0.695335	0.983953
O313	O	0.631788	0.000509	0.290278
O314	O	0.965122	0.333842	0.623612
O315	O	1.298455	0.667176	0.956945
C316	C	0.603649	0.028667	0.526163
C317	C	0.936982	0.362000	0.859497
C318	C	1.270315	0.695333	1.192830
C319	C	0.570537	0.061775	0.552280
C320	C	0.903870	0.395108	0.885613
C321	C	1.237203	0.728441	1.218946
C322	C	0.504309	0.127983	0.552296
C323	C	0.837643	0.461317	0.885629
C324	C	1.170976	0.794650	1.218962
C325	C	0.504317	0.127985	0.604512
C326	C	0.837651	0.461318	0.937845
C327	C	1.170984	0.794652	1.271179
C328	C	0.537435	0.094881	0.630612
C329	C	0.870768	0.428215	0.963945
C330	C	1.204102	0.761548	1.297279
C331	C	0.570545	0.061776	0.604496
C332	C	0.903878	0.395110	0.937829
C333	C	1.237211	0.728443	1.271163
C334	C	0.636765	-0.004442	0.552266
C335	C	0.970098	0.328891	0.885600
C336	C	1.303432	0.662224	1.218933
C337	C	0.636767	-0.004441	0.604489
C338	C	0.970100	0.328893	0.937822
C339	C	1.303433	0.662226	1.271156
C340	C	0.603655	0.028667	0.630605
C341	C	0.936988	0.362001	0.963938
C342	C	1.270321	0.695334	1.297272
C343	C	0.603670	0.028674	0.682812
C344	C	0.937004	0.362008	1.016146
C345	C	1.270337	0.695341	1.349479
N346	N	0.570557	0.061777	0.708931
N347	N	0.903891	0.395110	1.042264
N348	N	1.237224	0.728444	1.375598
C349	C	0.537440	0.094881	0.682831
C350	C	0.870773	0.428214	1.016164
C351	C	1.204106	0.761547	1.349498
C352	C	0.603615	0.028672	0.207623
C353	C	0.936948	0.362005	0.540957
C354	C	1.270281	0.695339	0.874290
C355	C	0.603610	0.028673	0.155405
C356	C	0.936944	0.362006	0.488738
C357	C	1.270277	0.695339	0.822071
C358	C	0.537377	0.094882	0.155423
C359	C	0.870711	0.428215	0.488756
C360	C	1.204044	0.761549	0.822090
C361	C	0.537384	0.094883	0.207643
C362	C	0.870718	0.428217	0.540976
C363	C	1.204051	0.761550	0.874310
C364	C	0.570502	0.061775	0.233742
C365	C	0.903835	0.395108	0.567076
C366	C	1.237168	0.728441	0.900409
C367	C	0.537459	0.094881	0.792489
C368	C	0.870793	0.428215	1.125822
C369	C	1.204126	0.761548	1.459156
C370	C	0.537472	0.094881	0.844710
C371	C	0.870805	0.428215	1.178043
C372	C	1.204138	0.761548	1.511377
C373	C	0.603703	0.028671	0.844687
C374	C	0.937036	0.362004	1.178020
C375	C	1.270369	0.695337	1.511353
C376	C	0.603692	0.028672	0.792470
C377	C	0.937026	0.362005	1.125804
C378	C	1.270359	0.695339	1.459137
C379	C	0.570567	0.061779	0.766373
C380	C	0.903900	0.395113	1.099706
C381	C	1.237233	0.728446	1.433039
O382	O	0.631831	0.000547	0.709852
O383	O	0.965164	0.333880	1.043186
O384	O	1.298497	0.667213	1.376519
O385	O	0.509276	0.123028	0.709848
O386	O	0.842609	0.456362	1.043182
O387	O	1.175943	0.789695	1.376515
C388	C	0.537411	0.094877	0.473963
C389	C	0.870744	0.428210	0.807296
C390	C	1.204078	0.761543	1.140630
C391	C	0.570521	0.061772	0.447847
C392	C	0.903854	0.395105	0.781180
C393	C	1.237187	0.728438	1.114514
C394	C	0.603638	0.028668	0.473947
C395	C	0.936972	0.362001	0.807280
C396	C	1.270305	0.695335	1.140614
C397	C	0.570516	0.061773	0.395628
C398	C	0.903849	0.395106	0.728961
C399	C	1.237183	0.728439	1.062295
C400	C	0.537398	0.094876	0.369528
C401	C	0.870732	0.428210	0.702861
C402	C	1.204065	0.761543	1.036195
C403	C	0.504285	0.127979	0.395647
C404	C	0.837619	0.461312	0.728980
C405	C	1.170952	0.794646	1.062313
C406	C	0.504293	0.127980	0.447863
C407	C	0.837627	0.461314	0.781196
C408	C	1.170960	0.794647	1.114530
C409	C	0.636751	-0.004435	0.447828
C410	C	0.970085	0.328899	0.781162
C411	C	1.303418	0.662232	1.114495
C412	C	0.636741	-0.004433	0.395612
C413	C	0.970074	0.328900	0.728945
C414	C	1.303408	0.662234	1.062279
C415	C	0.603623	0.028671	0.369512
C416	C	0.936957	0.362004	0.702845
C417	C	1.270290	0.695337	1.036179
N418	N	0.570589	0.061778	0.870810
N419	N	0.903922	0.395111	1.204143
N420	N	1.237256	0.728444	1.537477
H421	H	0.040621	0.061462	0.127331
H422	H	0.373955	0.394795	0.460665
H423	H	0.707288	0.728128	0.793998
H424	H	0.663728	-0.031402	0.531010
H425	H	0.997061	0.301931	0.864343
H426	H	1.330394	0.635264	1.197677
H427	H	-0.282686	0.058167	-0.081978
H428	H	0.050648	0.391500	0.251355
H429	H	0.383981	0.724834	0.584688
H430	H	0.694301	-0.485260	0.000060
H431	H	1.027634	-0.151926	0.333394
H432	H	1.360967	0.181407	0.666727
H433	H	0.486977	-0.780420	0.000033
H434	H	0.820311	-0.447087	0.333366
H435	H	1.153644	-0.113754	0.666700
H436	H	0.510422	0.121842	0.228904
H437	H	0.843755	0.455176	0.562237
H438	H	1.177088	0.788509	0.895570
H439	H	0.510412	0.121837	0.134164
H440	H	0.843745	0.455170	0.467497
H441	H	1.177079	0.788504	0.800830
H442	H	0.477354	0.154943	0.625773
H443	H	0.810687	0.488276	0.959106
H444	H	1.144020	0.821610	1.292439
O445	O	-0.057412	0.060438	-0.139160
O446	O	0.275921	0.393772	0.194174
O447	O	0.609255	0.727105	0.527507
H448	H	-0.052286	0.093489	-0.160861
H449	H	0.281047	0.426823	0.172472
H450	H	0.614381	0.760156	0.505806
O451	O	-0.184566	0.059164	-0.093935
O452	O	0.148767	0.392498	0.239398
O453	O	0.482101	0.725831	0.572731
H454	H	-0.210562	0.058906	-0.125375
H455	H	0.122772	0.392239	0.207958
H456	H	0.456105	0.725572	0.541291
H457	H	0.423822	0.065395	-0.082003
H458	H	0.757155	0.398728	0.251330
H459	H	1.090488	0.732061	0.584664
O460	O	0.672455	-0.040147	0.367445
O461	O	1.005788	0.293187	0.700779
O462	O	1.339122	0.626520	1.034112
H463	H	0.695479	-0.063167	0.394373
H464	H	1.028812	0.270166	0.727706
H465	H	1.362146	0.603499	1.061039
H466	H	0.423772	0.065397	0.082091
H467	H	0.757105	0.398731	0.415424
H468	H	1.090438	0.732064	0.748758
H469	H	0.100409	0.062075	0.127329
H470	H	0.433742	0.395408	0.460662
H471	H	0.767076	0.728741	0.793995
H472	H	0.630578	0.001718	0.134144
H473	H	0.963911	0.335051	0.467478
H474	H	1.297245	0.668385	0.800811
H475	H	0.477339	0.154940	0.531049
H476	H	0.810672	0.488274	0.864383
H477	H	1.144005	0.821607	1.197716
O478	O	0.658512	-0.810815	0.000049
O479	O	0.991846	-0.477481	0.333382
O480	O	1.325179	-0.144148	0.666716
H481	H	0.689433	-0.789059	0.000055
H482	H	1.022766	-0.455726	0.333388
H483	H	1.356099	-0.122392	0.666722
O484	O	0.468559	0.163675	0.367486
O485	O	0.801893	0.497008	0.700819
O486	O	1.135226	0.830342	1.034152
H487	H	0.488725	0.187020	0.343671
H488	H	0.822058	0.520353	0.677005
H489	H	1.155392	0.853687	1.010338
O490	O	0.639345	-0.007031	0.235771
O491	O	0.972678	0.326302	0.569105
O492	O	1.306012	0.659635	0.902438
H493	H	0.662372	-0.030041	0.208832
H494	H	0.995705	0.303292	0.542165
H495	H	1.329038	0.636626	0.875498
H496	H	0.447722	-0.299716	0.000018
H497	H	0.781055	0.033617	0.333352
H498	H	1.114389	0.366950	0.666685
O499	O	0.325652	0.064388	0.094051
O500	O	0.658986	0.397721	0.427384
O501	O	0.992319	0.731055	0.760717
H502	H	0.351646	0.064661	0.125491
H503	H	0.684979	0.397995	0.458824
H504	H	1.018313	0.731328	0.792158
H505	H	-0.050839	0.060524	0.127329
H506	H	0.282494	0.393857	0.460662
H507	H	0.615827	0.727191	0.793995
H508	H	0.663734	-0.031403	0.625736
H509	H	0.997068	0.301930	0.959070
H510	H	1.330401	0.635263	1.292403
O511	O	0.198509	0.063093	0.139280
O512	O	0.531843	0.396427	0.472614
O513	O	0.865176	0.729760	0.805947
H514	H	0.193385	0.030037	0.160973
H515	H	0.526719	0.363370	0.494307
H516	H	0.860052	0.696703	0.827640
O517	O	0.639396	-0.007037	0.764289
O518	O	0.972730	0.326297	1.097622
O519	O	1.306063	0.659630	1.430955
H520	H	0.677039	-0.001157	0.774281
H521	H	1.010373	0.332177	1.107614
H522	H	1.343706	0.665510	1.440948
H523	H	0.446789	-0.391167	0.000016
H524	H	0.780123	-0.057834	0.333349
H525	H	1.113456	0.275499	0.666682
H526	H	0.100487	0.062063	-0.127217
H527	H	0.433820	0.395396	0.206117
H528	H	0.767153	0.728730	0.539450
H529	H	0.630668	0.001719	0.865946
H530	H	0.964001	0.335053	1.199279
H531	H	1.297335	0.668386	1.532612
H532	H	0.191937	0.062996	-0.127217
H533	H	0.525271	0.396330	0.206117
H534	H	0.858604	0.729663	0.539450
O535	O	0.468590	0.163700	0.476029
O536	O	0.801923	0.497033	0.809362
O537	O	1.135257	0.830367	1.142695
H538	H	0.445565	0.186717	0.449100
H539	H	0.778898	0.520051	0.782433
H540	H	1.112232	0.853384	1.115766
O541	O	0.481506	-0.170426	0.000056
O542	O	0.814839	0.162908	0.333389
O543	O	1.148173	0.496241	0.666722
H544	H	0.479147	-0.193108	0.033867
H545	H	0.812480	0.140226	0.367201
H546	H	1.145813	0.473559	0.700534
H547	H	0.663719	-0.031392	0.469075
H548	H	0.997053	0.301941	0.802408
H549	H	1.330386	0.635275	1.135742
H550	H	0.693365	-0.576720	0.000054
H551	H	1.026699	-0.243387	0.333388
H552	H	1.360032	0.089946	0.666721
O553	O	0.476323	-0.680693	0.000033
O554	O	0.809656	-0.347360	0.333367
O555	O	1.142990	-0.014027	0.666700
H556	H	0.445411	-0.702460	0.000037
H557	H	0.778745	-0.369127	0.333370
H558	H	1.112078	-0.035794	0.666704
O559	O	0.047353	0.061530	-0.139161
O560	O	0.380686	0.394864	0.194172
O561	O	0.714020	0.728197	0.527506
H562	H	0.074879	0.028806	-0.141329
H563	H	0.408212	0.362139	0.192005
H564	H	0.741545	0.695472	0.525338
H565	H	-0.191276	0.059100	0.082118
H566	H	0.142058	0.392433	0.415451
H567	H	0.475391	0.725766	0.748785
H568	H	0.446189	-0.450966	0.000023
H569	H	0.779522	-0.117632	0.333356
H570	H	1.112856	0.215701	0.666690
O571	O	-0.289420	0.058220	0.094072
O572	O	0.043913	0.391553	0.427405
O573	O	0.377247	0.724886	0.760739
H574	H	-0.328714	0.057863	0.086470
H575	H	0.004620	0.391196	0.419804
H576	H	0.337953	0.724530	0.753137
O577	O	0.706491	-0.433746	0.000069
O578	O	1.039824	-0.100413	0.333402
O579	O	1.373157	0.232920	0.666735
H580	H	0.708351	-0.457011	0.033881
H581	H	1.041684	-0.123678	0.367215
H582	H	1.375017	0.209655	0.700548
O583	O	0.482573	-0.065638	0.000058
O584	O	0.815907	0.267695	0.333392
O585	O	1.149240	0.601028	0.666725
H586	H	0.490383	-0.027373	0.000057
H587	H	0.823716	0.305961	0.333391
H588	H	1.157050	0.639294	0.666724
O589	O	0.325691	0.064386	-0.093954
O590	O	0.659025	0.397719	0.239380
O591	O	0.992358	0.731052	0.572713
H592	H	0.351699	0.064650	-0.125399
H593	H	0.685033	0.397983	0.207934
H594	H	1.018366	0.731317	0.541267
H595	H	0.654110	-0.096023	0.000087
H596	H	0.987444	0.237310	0.333420
H597	H	1.320777	0.570644	0.666754
O598	O	0.659580	-0.706020	0.000048
O599	O	0.992914	-0.372686	0.333381
O600	O	1.326247	-0.039353	0.666715
H601	H	0.689965	-0.736259	0.000047
H602	H	1.023298	-0.402925	0.333381
H603	H	1.356631	-0.069592	0.666714
H604	H	0.510508	0.121844	0.865972
H605	H	0.843841	0.455177	1.199305
H606	H	1.177174	0.788510	1.532639
O607	O	0.664767	-0.195751	0.000080
O608	O	0.998101	0.137582	0.333413
O609	O	1.331434	0.470915	0.666747
H610	H	0.695679	-0.173984	0.000093
H611	H	1.029012	0.159349	0.333427
H612	H	1.362346	0.492682	0.666760
H613	H	0.695837	-0.334024	0.000072
H614	H	1.029171	-0.000691	0.333405
H615	H	1.362504	0.332642	0.666739
H616	H	0.445258	-0.542413	0.000020
H617	H	0.778592	-0.209080	0.333354
H618	H	1.111925	0.124253	0.666687
O619	O	0.501736	0.130592	0.764344
O620	O	0.835069	0.463926	1.097677
O621	O	1.168402	0.797259	1.431011
H622	H	0.478720	0.153613	0.791284
H623	H	0.812054	0.486947	1.124617
H624	H	1.145387	0.820280	1.457950
