data_functionalizedCrystal
_audit_creation_method	'MofGen! by Chris Wilmer'
_symmetry_space_group_name_H-M	'P1'
_symmetry_Int_Tables_number	1
_symmetry_cell_setting	triclinic
loop_
_symmetry_equiv_pos_as_xyz
  x,y,z
_cell_length_a	14.044220
_cell_length_b	14.044220
_cell_length_c	12.503552
_cell_angle_alpha	93.839943
_cell_angle_beta	93.844387
_cell_angle_gamma	86.811123
loop_
_atom_site_label
_atom_site_type_symbol
_atom_site_fract_x
_atom_site_fract_y
_atom_site_fract_z
O1	O	1.282213	-0.225115	0.089324
O2	O	1.782213	0.274885	0.589324
O3	O	1.005542	-0.216809	0.089327
O4	O	1.505542	0.283191	0.589327
O5	O	1.139724	-0.082627	0.089315
O6	O	1.639724	0.417373	0.589315
O7	O	1.148031	-0.359297	0.089336
O8	O	1.648031	0.140703	0.589336
O9	O	1.129621	-0.092726	-0.089327
O10	O	1.629621	0.407274	0.410673
O11	O	0.995439	-0.226909	-0.089315
O12	O	1.495439	0.273091	0.410685
O13	O	1.272110	-0.235214	-0.089318
O14	O	1.772110	0.264786	0.410682
Cu15	Cu	1.132852	-0.231984	-0.105628
Cu16	Cu	1.632852	0.268016	0.394372
Cu17	Cu	1.144800	-0.220039	0.105637
Cu18	Cu	1.644800	0.279961	0.605637
O19	O	1.137928	-0.369397	-0.089306
O20	O	1.637928	0.130603	0.410694
C21	C	0.964868	-0.218223	0.000006
C22	C	1.464868	0.281777	0.500006
C23	C	0.858726	-0.207378	0.000007
C24	C	1.358726	0.292622	0.500007
C25	C	1.131037	-0.052055	-0.000007
C26	C	1.631037	0.447945	0.499993
C27	C	1.120192	0.054088	-0.000008
C28	C	1.620192	0.554088	0.499992
C29	C	1.312784	-0.233800	0.000005
C30	C	1.812784	0.266200	0.500005
C31	C	1.418927	-0.244644	0.000012
C32	C	1.918927	0.255356	0.500012
N33	N	1.124455	-0.240385	-0.254220
N34	N	1.624455	0.259615	0.245780
C35	C	1.613264	-0.264470	0.000012
C36	C	2.113264	0.235530	0.500012
C37	C	1.664394	-0.187556	0.000006
C38	C	2.164394	0.312444	0.500006
C39	C	1.772530	-0.198588	0.000006
C40	C	2.272530	0.301412	0.500006
C41	C	1.505118	-0.253440	0.000012
C42	C	2.005118	0.246560	0.500012
C43	C	1.146615	-0.399968	0.000018
C44	C	1.646615	0.100032	0.500018
C45	C	1.157460	-0.506111	0.000026
C46	C	1.657460	-0.006111	0.500026
C47	C	1.100367	0.248427	0.000008
C48	C	1.600367	0.748427	0.500008
C49	C	1.177281	0.299557	0.000010
C50	C	1.677281	0.799557	0.500010
C51	C	1.166250	0.407693	0.000019
C52	C	1.666250	0.907693	0.500019
C53	C	1.111396	0.140280	-0.000001
C54	C	1.611396	0.640280	0.499999
C55	C	1.165551	-0.199270	-0.526656
C56	C	1.665551	0.300730	-0.026656
C57	C	1.112111	-0.252743	-0.473328
C58	C	1.612111	0.247257	0.026672
C59	C	1.118981	-0.245865	-0.351405
C60	C	1.618981	0.254135	0.148595
C61	C	1.158682	-0.206147	-0.648590
C62	C	1.658682	0.293853	-0.148590
N63	N	1.153204	-0.211632	0.254229
N64	N	1.653204	0.288368	0.754229
H65	H	1.650702	-0.338598	0.000019
H66	H	2.150702	0.161402	0.500019
H67	H	1.061201	-0.303690	-0.519239
H68	H	1.561201	0.196310	-0.019239
O69	O	1.232966	-0.131768	-0.465856
O70	O	1.732966	0.368232	0.034144
H71	H	1.227842	-0.136886	-0.378248
H72	H	1.727842	0.363114	0.121752
O73	O	1.002170	0.298006	-0.000008
O74	O	1.502170	0.798006	0.499992
H75	H	1.008807	0.376390	-0.000017
H76	H	1.508807	0.876390	0.499983
H77	H	1.626959	-0.113419	0.000078
H78	H	2.126959	0.386581	0.500078
O79	O	1.275483	0.249975	-0.000010
O80	O	1.775483	0.749975	0.499990
H81	H	1.268852	0.171589	-0.000028
H82	H	1.768852	0.671589	0.499972
