data_functionalizedCrystal
_audit_creation_method	'MofGen! by Chris Wilmer'
_symmetry_space_group_name_H-M	'P1'
_symmetry_Int_Tables_number	1
_symmetry_cell_setting	triclinic
loop_
_symmetry_equiv_pos_as_xyz
  x,y,z
_cell_length_a	19.805407
_cell_length_b	29.839131
_cell_length_c	19.805399
_cell_angle_alpha	90.029565
_cell_angle_beta	90.019573
_cell_angle_gamma	90.041420
loop_
_atom_site_label
_atom_site_type_symbol
_atom_site_fract_x
_atom_site_fract_y
_atom_site_fract_z
Zn1	Zn	1.034665	-0.178864	0.382710
Zn2	Zn	1.367998	0.154470	0.716044
Zn3	Zn	1.701332	0.487803	1.049377
Zn4	Zn	1.034550	-0.253991	0.269518
Zn5	Zn	1.367884	0.079342	0.602851
Zn6	Zn	1.701217	0.412675	0.936185
Zn7	Zn	0.921480	-0.178876	0.269535
Zn8	Zn	1.254813	0.154457	0.602868
Zn9	Zn	1.588146	0.487791	0.936202
Zn10	Zn	0.921414	-0.253967	0.382665
Zn11	Zn	1.254747	0.079366	0.715998
Zn12	Zn	1.588080	0.412699	1.049332
O13	O	0.978027	-0.216425	0.326107
O14	O	1.311360	0.116909	0.659440
O15	O	1.644694	0.450242	0.992774
O16	O	1.129366	-0.188834	0.367707
O17	O	1.462700	0.144499	0.701040
O18	O	1.796033	0.477832	1.034374
O19	O	1.019531	-0.244042	0.174804
O20	O	1.352864	0.089291	0.508137
O21	O	1.686197	0.422624	0.841470
O22	O	0.936570	-0.116007	0.284574
O23	O	1.269903	0.217326	0.617907
O24	O	1.603236	0.550659	0.951241
O25	O	1.129282	-0.244030	0.284545
O26	O	1.462615	0.089303	0.617879
O27	O	1.795949	0.422636	0.951212
O28	O	1.019727	-0.115998	0.367723
O29	O	1.353060	0.217335	0.701057
O30	O	1.686393	0.550668	1.034390
O31	O	0.936458	-0.188856	0.174816
O32	O	1.269792	0.144478	0.508149
O33	O	1.603125	0.477811	0.841483
O34	O	0.826754	-0.188832	0.284530
O35	O	1.160088	0.144501	0.617863
O36	O	1.493421	0.477834	0.951196
O37	O	0.936457	-0.243990	0.477388
O38	O	1.269790	0.089344	0.810721
O39	O	1.603124	0.422677	1.144054
O40	O	0.826706	-0.244002	0.367646
O41	O	1.160039	0.089332	0.700979
O42	O	1.493372	0.422665	1.034313
O43	O	1.019662	-0.188811	0.477421
O44	O	1.352996	0.144522	0.810754
O45	O	1.686329	0.477855	1.144088
O46	O	1.019467	-0.316855	0.284501
O47	O	1.352800	0.016478	0.617835
O48	O	1.686133	0.349811	0.951168
O49	O	0.936346	-0.316838	0.367630
O50	O	1.269679	0.016496	0.700963
O51	O	1.603012	0.349829	1.034296
C52	C	0.802171	-0.216416	0.326085
C53	C	1.135504	0.116917	0.659418
C54	C	1.468838	0.450251	0.992752
C55	C	0.726939	-0.216423	0.326092
C56	C	1.060272	0.116910	0.659425
C57	C	1.393606	0.450243	0.992759
C58	C	0.977905	-0.333147	0.326073
C59	C	1.311238	0.000186	0.659407
C60	C	1.644572	0.333519	0.992740
C61	C	0.977915	-0.383082	0.326082
C62	C	1.311248	-0.049748	0.659415
C63	C	1.644581	0.283585	0.992748
C64	C	0.691587	-0.245193	0.369300
C65	C	1.024921	0.088140	0.702634
C66	C	1.358254	0.421474	1.035967
C67	C	0.620899	-0.245194	0.369310
C68	C	0.954232	0.088139	0.702643
C69	C	1.287566	0.421473	1.035977
C70	C	0.585564	-0.216427	0.326107
C71	C	0.918897	0.116907	0.659440
C72	C	1.252230	0.450240	0.992774
C73	C	0.620920	-0.187654	0.282897
C74	C	0.954254	0.145680	0.616230
C75	C	1.287587	0.479013	0.949563
C76	C	0.691607	-0.187651	0.282891
C77	C	1.024941	0.145682	0.616224
C78	C	1.358274	0.479016	0.949558
C79	C	0.335847	-0.187664	0.282919
C80	C	0.669180	0.145670	0.616252
C81	C	1.002514	0.479003	0.949586
C82	C	0.265155	-0.187669	0.282927
C83	C	0.598488	0.145664	0.616260
C84	C	0.931822	0.478997	0.949593
C85	C	0.265139	-0.245207	0.369338
C86	C	0.598472	0.088127	0.702671
C87	C	0.931805	0.421460	1.036005
C88	C	0.335826	-0.245204	0.369332
C89	C	0.669159	0.088130	0.702666
C90	C	1.002492	0.421463	1.035999
C91	C	0.371176	-0.216429	0.326125
C92	C	0.704510	0.116904	0.659458
C93	C	1.037843	0.450237	0.992791
C94	C	0.447825	-0.216428	0.326116
C95	C	0.781158	0.116905	0.659449
C96	C	1.114491	0.450238	0.992782
C97	C	0.508916	-0.216430	0.326112
C98	C	0.842250	0.116904	0.659445
C99	C	1.175583	0.450237	0.992779
C100	C	1.021387	-0.692722	0.282885
C101	C	1.354720	-0.359388	0.616219
C102	C	1.688054	-0.026055	0.949552
C103	C	1.021471	-0.880395	0.282912
C104	C	1.354804	-0.547061	0.616245
C105	C	1.688137	-0.213728	0.949578
O106	O	1.058335	-0.904656	0.246159
O107	O	1.391669	-0.571323	0.579492
O108	O	1.725002	-0.237990	0.912825
N109	N	0.978168	-0.903867	0.326158
N110	N	1.311501	-0.570533	0.659491
N111	N	1.644834	-0.237200	0.992825
C112	C	0.934844	-0.880418	0.369404
C113	C	1.268177	-0.547084	0.702738
C114	C	1.601510	-0.213751	1.036071
O115	O	0.898019	-0.904688	0.406194
O116	O	1.231352	-0.571355	0.739527
O117	O	1.564685	-0.238022	1.072860
C118	C	0.934764	-0.692746	0.369381
C119	C	1.268097	-0.359412	0.702714
C120	C	1.601431	-0.026079	1.036048
C121	C	0.978065	-0.669276	0.326127
C122	C	1.311398	-0.335942	0.659460
C123	C	1.644732	-0.002609	0.992793
C124	C	1.064685	-0.669252	0.239635
C125	C	1.398018	-0.335918	0.572969
C126	C	1.731352	-0.002585	0.906302
C127	C	1.064661	-0.622336	0.239626
C128	C	1.397994	-0.289003	0.572960
C129	C	1.731328	0.044330	0.906293
C130	C	1.021339	-0.598891	0.282868
C131	C	1.354672	-0.265557	0.616201
C132	C	1.688006	0.067776	0.949535
C133	C	0.978041	-0.622360	0.326118
C134	C	1.311374	-0.289027	0.659451
C135	C	1.644708	0.044306	0.992785
C136	C	0.891444	-0.669297	0.412630
C137	C	1.224777	-0.335964	0.745963
C138	C	1.558111	-0.002631	1.079297
C139	C	0.891429	-0.622376	0.412621
C140	C	1.224763	-0.289043	0.745955
C141	C	1.558096	0.044290	1.079288
C142	C	0.934730	-0.598907	0.369367
C143	C	1.268064	-0.265573	0.702701
C144	C	1.601397	0.067760	1.036034
C145	C	0.934695	-0.551999	0.369351
C146	C	1.268029	-0.218666	0.702684
C147	C	1.601362	0.114667	1.036017
N148	N	0.977998	-0.528527	0.326104
N149	N	1.311332	-0.195194	0.659437
N150	N	1.644665	0.138140	0.992771
C151	C	1.021320	-0.551973	0.282863
C152	C	1.354654	-0.218639	0.616196
C153	C	1.687987	0.114694	0.949529
C154	C	0.934888	-0.978948	0.369412
C155	C	1.268221	-0.645615	0.702746
C156	C	1.601554	-0.312282	1.036079
C157	C	0.934907	-1.025866	0.369418
C158	C	1.268240	-0.692533	0.702751
C159	C	1.601573	-0.359199	1.036084
C160	C	1.021534	-1.025840	0.282926
C161	C	1.354868	-0.692506	0.616259
C162	C	1.688201	-0.359173	0.949592
C163	C	1.021512	-0.978921	0.282918
C164	C	1.354845	-0.645588	0.616251
C165	C	1.688178	-0.312254	0.949584
C166	C	0.978191	-0.955476	0.326166
C167	C	1.311524	-0.622143	0.659499
C168	C	1.644857	-0.288810	0.992833
C169	C	1.021266	-0.453447	0.282847
C170	C	1.354600	-0.120114	0.616181
C171	C	1.687933	0.213220	0.949514
C172	C	1.021237	-0.406527	0.282840
C173	C	1.354570	-0.073194	0.616174
C174	C	1.687903	0.260139	0.949507
C175	C	0.934611	-0.406558	0.369334
C176	C	1.267945	-0.073225	0.702668
C177	C	1.601278	0.260109	1.036001
C178	C	0.934638	-0.453473	0.369339
C179	C	1.267972	-0.120140	0.702672
C180	C	1.601305	0.213193	1.036006
C181	C	0.977971	-0.476917	0.326093
C182	C	1.311305	-0.143583	0.659427
C183	C	1.644638	0.189750	0.992760
O184	O	0.897855	-0.527708	0.406090
O185	O	1.231188	-0.194375	0.739423
O186	O	1.564522	0.138958	1.072756
O187	O	1.058150	-0.527694	0.246090
O188	O	1.391484	-0.194361	0.579423
O189	O	1.724817	0.138973	0.912756
C190	C	1.021411	-0.739637	0.282894
C191	C	1.354744	-0.406304	0.616227
C192	C	1.688078	-0.072970	0.949561
C193	C	0.978113	-0.763107	0.326144
C194	C	1.311446	-0.429773	0.659478
C195	C	1.644780	-0.096440	0.992811
C196	C	0.934791	-0.739661	0.369386
C197	C	1.268124	-0.406328	0.702719
C198	C	1.601458	-0.072994	1.036052
C199	C	0.978132	-0.810025	0.326149
C200	C	1.311465	-0.476691	0.659483
C201	C	1.644798	-0.143358	0.992816
C202	C	1.021454	-0.833470	0.282908
C203	C	1.354787	-0.500137	0.616241
C204	C	1.688120	-0.166804	0.949575
C205	C	1.064757	-0.809998	0.239661
C206	C	1.398090	-0.476665	0.572995
C207	C	1.731423	-0.143331	0.906328
C208	C	1.064733	-0.763083	0.239653
C209	C	1.398066	-0.429749	0.572986
C210	C	1.731399	-0.096416	0.906319
C211	C	0.891488	-0.763133	0.412632
C212	C	1.224821	-0.429800	0.745965
C213	C	1.558155	-0.096466	1.079299
C214	C	0.891515	-0.810049	0.412637
C215	C	1.224848	-0.476715	0.745970
C216	C	1.558182	-0.143382	1.079303
C217	C	0.934837	-0.833494	0.369395
C218	C	1.268170	-0.500161	0.702729
C219	C	1.601503	-0.166828	1.036062
C220	C	1.154570	-0.216434	0.326129
C221	C	1.487903	0.116900	0.659463
C222	C	1.821237	0.450233	0.992796
C223	C	1.229802	-0.216437	0.326139
C224	C	1.563135	0.116896	0.659472
C225	C	1.896468	0.450229	0.992806
C226	C	0.978065	-0.216396	0.502650
C227	C	1.311398	0.116937	0.835983
C228	C	1.644732	0.450270	1.169317
C229	C	0.978081	-0.216384	0.577882
C230	C	1.311415	0.116949	0.911215
C231	C	1.644748	0.450282	1.244549
C232	C	0.978168	-0.099246	0.326156
C233	C	1.311502	0.234087	0.659489
C234	C	1.644835	0.567420	0.992822
C235	C	0.978228	-0.049312	0.326176
C236	C	1.311562	0.284022	0.659510
C237	C	1.644895	0.617355	0.992843
C238	C	0.978028	-0.216420	0.150251
C239	C	1.311362	0.116913	0.483584
C240	C	1.644695	0.450246	0.816918
C241	C	0.978143	-0.216306	0.075019
C242	C	1.311477	0.117027	0.408353
C243	C	1.644810	0.450361	0.741686
C244	C	1.021407	-0.187652	0.613244
C245	C	1.354741	0.145682	0.946578
C246	C	1.688074	0.479015	1.279911
C247	C	1.021414	-0.187638	0.683933
C248	C	1.354748	0.145695	1.017266
C249	C	1.688081	0.479028	1.350600
C250	C	0.978098	-0.216361	0.719258
C251	C	1.311431	0.116972	1.052591
C252	C	1.644765	0.450306	1.385924
C253	C	0.934767	-0.245095	0.683890
C254	C	1.268101	0.088238	1.017223
C255	C	1.601434	0.421572	1.350557
C256	C	0.934757	-0.245105	0.613203
C257	C	1.268091	0.088228	0.946536
C258	C	1.601424	0.421561	1.279869
C259	C	0.934806	-0.245053	0.968963
C260	C	1.268139	0.088280	1.302297
C261	C	1.601472	0.421614	1.635630
C262	C	0.934820	-0.245041	1.039656
C263	C	1.268154	0.088292	1.372989
C264	C	1.601487	0.421625	1.706322
C265	C	1.021462	-0.187586	1.039694
C266	C	1.354796	0.145747	1.373027
C267	C	1.688129	0.479081	1.706360
C268	C	1.021453	-0.187597	0.969006
C269	C	1.354786	0.145737	1.302340
C270	C	1.688119	0.479070	1.635673
C271	C	0.978120	-0.216329	0.933645
C272	C	1.311453	0.117005	1.266978
C273	C	1.644786	0.450338	1.600312
C274	C	0.978112	-0.216342	0.856997
C275	C	1.311445	0.116991	1.190330
C276	C	1.644778	0.450325	1.523663
C277	C	0.978109	-0.216350	0.795905
C278	C	1.311442	0.116983	1.129238
C279	C	1.644776	0.450316	1.462571
H280	H	0.720352	-0.268620	0.404479
H281	H	1.053686	0.064713	0.737812
H282	H	1.387019	0.398046	1.071146
N283	N	1.068153	-0.156653	0.722072
N284	N	1.401486	0.176681	1.055406
N285	N	1.734819	0.510014	1.388739
H286	H	1.061586	-0.161002	0.772213
H287	H	1.394920	0.172331	1.105546
H288	H	1.728253	0.505665	1.438879
H289	H	1.057661	-0.124568	0.709727
H290	H	1.390994	0.208765	1.043061
H291	H	1.724328	0.542099	1.376394
N292	N	1.068200	-0.156594	1.077833
N293	N	1.401534	0.176739	1.411166
N294	N	1.734867	0.510073	1.744500
H295	H	1.061635	-0.160943	1.127974
H296	H	1.394968	0.172391	1.461307
H297	H	1.728301	0.505724	1.794640
H298	H	1.057705	-0.124510	1.065487
H299	H	1.391039	0.208823	1.398820
H300	H	1.724372	0.542157	1.732153
H301	H	1.056683	-0.164264	0.584488
H302	H	1.390016	0.169070	0.917822
H303	H	1.723349	0.502403	1.251155
H304	H	1.099967	-0.688336	0.204423
H305	H	1.433300	-0.355003	0.537756
H306	H	1.766633	-0.021670	0.871089
N307	N	0.582771	-0.276231	0.415904
N308	N	0.916104	0.057102	0.749238
N309	N	1.249438	0.390435	1.082571
H310	H	0.595101	-0.269303	0.464285
H311	H	0.928435	0.064030	0.797619
H312	H	1.261768	0.397363	1.130952
H313	H	0.595057	-0.308305	0.405231
H314	H	0.928390	0.025028	0.738564
H315	H	1.261724	0.358362	1.071898
H316	H	1.056809	-1.044937	0.247717
H317	H	1.390142	-0.711604	0.581050
H318	H	1.723476	-0.378271	0.914384
H319	H	0.236348	-0.268634	0.404522
H320	H	0.569681	0.064699	0.737855
H321	H	0.903014	0.398032	1.071189
H322	H	0.364592	-0.268631	0.404510
H323	H	0.697926	0.064703	0.737844
H324	H	1.031259	0.398036	1.071177
N325	N	0.888064	-0.276047	0.930848
N326	N	1.221397	0.057286	1.264181
N327	N	1.554730	0.390620	1.597514
H328	H	0.915528	-0.296877	0.901513
H329	H	1.248862	0.036456	1.234846
H330	H	1.582195	0.369789	1.568179
H331	H	0.856716	-0.257764	0.901566
H332	H	1.190049	0.075570	1.234899
H333	H	1.523382	0.408903	1.568232
H334	H	0.899496	-0.268480	0.712657
H335	H	1.232829	0.064854	1.045990
H336	H	1.566163	0.398187	1.379323
H337	H	0.236387	-0.164241	0.247745
H338	H	0.569720	0.169092	0.581079
H339	H	0.903053	0.502426	0.914412
N340	N	1.068175	-0.156620	0.930906
N341	N	1.401508	0.176713	1.264240
N342	N	1.734842	0.510046	1.597573
H343	H	1.095623	-0.138415	0.964035
H344	H	1.428957	0.194918	1.297369
H345	H	1.762290	0.528252	1.630702
H346	H	1.040644	-0.135833	0.901581
H347	H	1.373977	0.197500	1.234914
H348	H	1.707310	0.530833	1.568248
H349	H	0.899470	-0.268498	0.584411
H350	H	1.232803	0.064835	0.917745
H351	H	1.566137	0.398169	1.251078
H352	H	0.364621	-0.164237	0.247732
H353	H	0.697954	0.169096	0.581065
H354	H	1.031288	0.502430	0.914398
N355	N	0.582812	-0.156634	0.236285
N356	N	0.916146	0.176700	0.569619
N357	N	1.249479	0.510033	0.902952
H358	H	0.532668	-0.161005	0.242838
H359	H	0.866001	0.172328	0.576171
H360	H	1.199334	0.505662	0.909504
H361	H	0.595152	-0.163594	0.187932
H362	H	0.928485	0.169739	0.521265
H363	H	1.261818	0.503072	0.854598
H364	H	0.720390	-0.164221	0.247710
H365	H	1.053723	0.169112	0.581043
H366	H	1.387057	0.502445	0.914376
H367	H	1.056497	-0.387420	0.247615
H368	H	1.389831	-0.054086	0.580949
H369	H	1.723164	0.279247	0.914282
N370	N	0.888097	-0.276017	1.077765
N371	N	1.221430	0.057316	1.411098
N372	N	1.554764	0.390649	1.744431
H373	H	0.898560	-0.308120	1.065454
H374	H	1.231893	0.025213	1.398787
H375	H	1.565227	0.358546	1.732121
H376	H	0.839761	-0.268997	1.065448
H377	H	1.173094	0.064336	1.398781
H378	H	1.506428	0.397669	1.732114
N379	N	1.067997	-0.478732	0.236204
N380	N	1.401330	-0.145399	0.569537
N381	N	1.734664	0.187935	0.902871
H382	H	1.116348	-0.470527	0.246756
H383	H	1.449681	-0.137194	0.580089
H384	H	1.783014	0.196139	0.913423
H385	H	1.057446	-0.470582	0.187852
H386	H	1.390780	-0.137249	0.521186
H387	H	1.724113	0.196085	0.854519
N388	N	1.111375	-0.597026	0.192984
N389	N	1.444708	-0.263693	0.526317
N390	N	1.778041	0.069641	0.859650
H391	H	1.138822	-0.619004	0.165600
H392	H	1.472156	-0.285670	0.498933
H393	H	1.805489	0.047663	0.832266
H394	H	1.142672	-0.577531	0.220569
H395	H	1.476005	-0.244198	0.553903
H396	H	1.809339	0.089136	0.887236
H397	H	0.899640	-1.044971	0.404633
H398	H	1.232973	-0.711638	0.737967
H399	H	1.566307	-0.378305	1.071300
N400	N	1.068216	-0.953609	0.236268
N401	N	1.401550	-0.620276	0.569601
N402	N	1.734883	-0.286942	0.902935
H403	H	1.095660	-0.975585	0.208878
H404	H	1.428994	-0.642252	0.542211
H405	H	1.762327	-0.308919	0.875544
H406	H	1.099518	-0.934113	0.263847
H407	H	1.432851	-0.600780	0.597180
H408	H	1.766184	-0.267446	0.930514
N409	N	0.888155	-0.953663	0.416055
N410	N	1.221489	-0.620330	0.749388
N411	N	1.554822	-0.286996	1.082722
H412	H	0.898637	-0.961805	0.464427
H413	H	1.231971	-0.628471	0.797760
H414	H	1.565304	-0.295138	1.131093
H415	H	0.839826	-0.961878	0.405433
H416	H	1.173159	-0.628545	0.738767
H417	H	1.506492	-0.295211	1.072100
N418	N	0.844737	-0.694604	0.459280
N419	N	1.178070	-0.361270	0.792613
N420	N	1.511403	-0.027937	1.125946
H421	H	0.817296	-0.672625	0.486669
H422	H	1.150629	-0.339291	0.820003
H423	H	1.483963	-0.005958	1.153336
H424	H	0.872275	-0.714039	0.490634
H425	H	1.205609	-0.380705	0.823968
H426	H	1.538942	-0.047372	1.157301
H427	H	0.856153	-0.603290	0.447842
H428	H	1.189486	-0.269956	0.781175
H429	H	1.522819	0.063377	1.114508
N430	N	0.887930	-0.478791	0.415983
N431	N	1.221263	-0.145457	0.749316
N432	N	1.554596	0.187876	1.082649
H433	H	0.860480	-0.456816	0.443372
H434	H	1.193814	-0.123483	0.776706
H435	H	1.527147	0.209850	1.110039
H436	H	0.915474	-0.498222	0.447338
H437	H	1.248807	-0.164889	0.780671
H438	H	1.582140	0.168445	1.114004
N439	N	0.887883	-0.381266	0.415967
N440	N	1.221216	-0.047932	0.749301
N441	N	1.554549	0.285401	1.082634
H442	H	0.894444	-0.347983	0.409396
H443	H	1.227777	-0.014649	0.742729
H444	H	1.561110	0.318684	1.076063
H445	H	0.898393	-0.389437	0.464319
H446	H	1.231727	-0.056104	0.797653
H447	H	1.565060	0.277230	1.130986
H448	H	1.099993	-0.743977	0.204431
H449	H	1.433326	-0.410644	0.537765
H450	H	1.766659	-0.077310	0.871098
N451	N	1.111478	-0.835290	0.193016
N452	N	1.444811	-0.501957	0.526349
N453	N	1.778144	-0.168624	0.859682
H454	H	1.104916	-0.868573	0.199588
H455	H	1.438249	-0.535240	0.532922
H456	H	1.771582	-0.201907	0.866255
H457	H	1.159809	-0.827055	0.203592
H458	H	1.493143	-0.493722	0.536925
H459	H	1.826476	-0.160389	0.870259
H460	H	0.856248	-0.829154	0.447859
H461	H	1.189581	-0.495820	0.781192
H462	H	1.522915	-0.162487	1.114526
N463	N	0.844758	-0.737849	0.459271
N464	N	1.178091	-0.404516	0.792605
N465	N	1.511425	-0.071182	1.125938
H466	H	0.817332	-0.759841	0.486665
H467	H	1.150665	-0.426508	0.819998
H468	H	1.483999	-0.093175	1.153331
H469	H	0.813441	-0.718418	0.431684
H470	H	1.146774	-0.385085	0.765018
H471	H	1.480107	-0.051751	1.098351
