data_functionalizedCrystal
_audit_creation_method	'MofGen! by Chris Wilmer'
_symmetry_space_group_name_H-M	'P1'
_symmetry_Int_Tables_number	1
_symmetry_cell_setting	triclinic
loop_
_symmetry_equiv_pos_as_xyz
  x,y,z
_cell_length_a	16.625548
_cell_length_b	16.625545
_cell_length_c	13.033454
_cell_angle_alpha	82.781280
_cell_angle_beta	97.160702
_cell_angle_gamma	90.026626
loop_
_atom_site_label
_atom_site_type_symbol
_atom_site_fract_x
_atom_site_fract_y
_atom_site_fract_z
Zn1	Zn	1.174785	-0.263021	-0.590887
Zn2	Zn	1.674785	0.236979	-0.090887
Zn3	Zn	1.191798	-0.415004	-0.416136
Zn4	Zn	1.691798	0.084996	0.083864
Zn5	Zn	1.057062	-0.280190	-0.416153
Zn6	Zn	1.557062	0.219810	0.083847
Zn7	Zn	1.039915	-0.397823	-0.590831
Zn8	Zn	1.539915	0.102177	-0.090831
O9	O	1.115890	-0.339009	-0.503502
O10	O	1.615890	0.160991	-0.003502
O11	O	1.289872	-0.283187	-0.567722
O12	O	1.789872	0.216813	-0.067722
O13	O	1.188221	-0.411496	-0.269901
O14	O	1.688221	0.088504	0.230099
O15	O	1.072734	-0.165077	-0.439361
O16	O	1.572734	0.334923	0.060639
O17	O	1.302372	-0.394848	-0.439333
O18	O	1.802372	0.105152	0.060667
O19	O	1.159225	-0.152463	-0.567738
O20	O	1.659225	0.347537	-0.067738
O21	O	1.089231	-0.312449	-0.269913
O22	O	1.589231	0.187551	0.230087
O23	O	0.941957	-0.295789	-0.439308
O24	O	1.441957	0.204211	0.060692
O25	O	1.043510	-0.365565	-0.737076
O26	O	1.543510	0.134435	-0.237076
O27	O	0.929359	-0.382214	-0.567644
O28	O	1.429359	0.117786	-0.067644
O29	O	1.142598	-0.266527	-0.737117
O30	O	1.642598	0.233473	-0.237117
O31	O	1.171594	-0.525560	-0.439280
O32	O	1.671594	-0.025560	0.060720
O33	O	1.060007	-0.512937	-0.567628
O34	O	1.560007	-0.012937	-0.067628
C35	C	0.906402	-0.339001	-0.503472
C36	C	1.406402	0.160999	-0.003472
C37	C	0.816780	-0.339014	-0.503485
C38	C	1.316780	0.160986	-0.003485
C39	C	0.488600	-0.339015	-0.503529
C40	C	0.988600	0.160985	-0.003529
C41	C	0.579910	-0.339013	-0.503514
C42	C	1.079910	0.160987	-0.003514
C43	C	0.652687	-0.339015	-0.503506
C44	C	1.152687	0.160985	-0.003506
C45	C	0.744002	-0.339012	-0.503492
C46	C	1.244002	0.160988	-0.003492
C47	C	1.115806	-0.548504	-0.503469
C48	C	1.615806	-0.048504	-0.003469
C49	C	1.115840	-0.638123	-0.503490
C50	C	1.615840	-0.138123	-0.003490
C51	C	1.115869	-0.710903	-0.503510
C52	C	1.615869	-0.210903	-0.003510
C53	C	1.115914	-0.802209	-0.503533
C54	C	1.615914	-0.302209	-0.003533
C55	C	1.115954	-0.874984	-0.503547
C56	C	1.615954	-0.374984	-0.003547
C57	C	1.115998	-0.966296	-0.503568
C58	C	1.615998	-0.466296	-0.003568
C59	C	1.326196	-0.339019	-0.503532
C60	C	1.826196	0.160981	-0.003532
C61	C	1.415816	-0.339023	-0.503544
C62	C	1.915816	0.160977	-0.003544
C63	C	1.089243	-0.312214	-0.776074
C64	C	1.589243	0.187786	-0.276074
C65	C	1.077888	-0.300796	-0.892229
C66	C	1.577888	0.199204	-0.392229
C67	C	1.115994	-0.128695	-0.503558
C68	C	1.615994	0.371305	-0.003558
C69	C	1.116039	-0.039072	-0.503581
C70	C	1.616039	0.460928	-0.003581
C71	C	1.121804	-0.344712	-0.944008
C72	C	1.621804	0.155288	-0.444008
C73	C	1.110069	-0.332911	-1.064059
C74	C	1.610069	0.167089	-0.564059
C75	C	1.142479	-0.365642	-0.231989
C76	C	1.642479	0.134358	0.268011
C77	C	1.153991	-0.376833	-0.115836
C78	C	1.653991	0.123167	0.384164
H79	H	1.168092	-0.391043	-0.899460
H80	H	1.668092	0.108957	-0.399460
H81	H	1.200283	-0.423168	-1.071294
H82	H	1.700283	0.076832	-0.571294
H83	H	1.063783	-0.286570	-1.108603
H84	H	1.563783	0.213430	-0.608603
O85	O	1.022575	-0.245630	-0.945408
O86	O	1.522575	0.254370	-0.445408
C87	C	0.964361	-0.285372	-1.008544
C88	C	1.464361	0.214628	-0.508544
H89	H	0.962551	-0.352096	-0.975569
H90	H	1.462551	0.147904	-0.475569
H91	H	0.981263	-0.280079	-1.091228
H92	H	1.481263	0.219921	-0.591228
C93	C	0.882604	-0.163852	-1.050863
C94	C	1.382604	0.336148	-0.550863
C95	C	0.880377	-0.245801	-1.010357
C96	C	1.380377	0.254199	-0.510357
H97	H	0.830799	-0.139441	-1.051987
H98	H	1.330799	0.360559	-0.551987
H99	H	0.921825	-0.137075	-1.008331
H100	H	1.421825	0.362925	-0.508331
H101	H	0.896693	-0.159452	-1.119763
H102	H	1.396693	0.340548	-0.619763
H103	H	0.866298	-0.250200	-0.941455
H104	H	1.366298	0.249800	-0.441455
H105	H	0.841151	-0.272578	-1.052879
H106	H	1.341151	0.227422	-0.552879
