data_functionalizedCrystal
_audit_creation_method	'MofGen! by Chris Wilmer'
_symmetry_space_group_name_H-M	'P1'
_symmetry_Int_Tables_number	1
_symmetry_cell_setting	triclinic
loop_
_symmetry_equiv_pos_as_xyz
  x,y,z
_cell_length_a	10.686220
_cell_length_b	19.121063
_cell_length_c	10.686551
_cell_angle_alpha	88.212799
_cell_angle_beta	90.308082
_cell_angle_gamma	96.652836
loop_
_atom_site_label
_atom_site_type_symbol
_atom_site_fract_x
_atom_site_fract_y
_atom_site_fract_z
Zn1	Zn	1.960178	-0.171149	-0.576393
Zn2	Zn	1.934959	-0.298212	-0.377034
Zn3	Zn	1.733026	-0.189107	-0.384180
Zn4	Zn	1.741490	-0.296789	-0.602695
O5	O	1.842413	-0.238814	-0.485075
O6	O	2.132864	-0.181084	-0.535949
O7	O	1.894076	-0.291850	-0.203100
O8	O	1.770171	-0.088483	-0.401661
O9	O	2.114336	-0.274436	-0.389481
O10	O	1.937058	-0.075289	-0.542879
O11	O	1.745717	-0.211691	-0.208351
O12	O	1.558117	-0.210311	-0.427165
O13	O	1.784596	-0.272012	-0.774087
O14	O	1.564336	-0.289425	-0.587707
O15	O	1.945265	-0.179704	-0.754764
O16	O	1.902282	-0.396264	-0.414984
O17	O	1.760141	-0.395219	-0.580777
C18	C	1.515583	-0.251663	-0.511066
C19	C	1.375765	-0.257175	-0.522216
C20	C	1.829430	-0.421212	-0.499984
C21	C	1.823994	-0.499236	-0.506394
C22	C	1.895514	-0.536407	-0.423148
C23	C	1.890409	-0.609719	-0.429183
C24	C	1.813778	-0.645858	-0.518461
C25	C	1.742256	-0.608681	-0.601716
C26	C	1.747368	-0.535371	-0.595685
C27	C	1.794644	-0.867182	-0.540991
C28	C	1.789534	-0.940498	-0.547013
C29	C	1.937690	-0.941530	-0.374481
C30	C	1.942789	-0.868219	-0.368454
C31	C	1.871272	-0.831048	-0.451713
C32	C	1.808556	-0.720794	-0.524630
C33	C	1.876502	-0.756113	-0.445549
C34	C	2.170519	-0.225915	-0.458984
C35	C	2.310339	-0.220419	-0.447865
C36	C	1.868688	-0.223696	-0.811038
C37	C	1.879884	-0.217254	-0.949944
C38	C	1.855484	-0.055701	-0.470134
C39	C	1.861053	0.022331	-0.463766
C40	C	1.816317	-0.253820	-0.160371
C41	C	1.805378	-0.260055	-0.021430
H42	H	1.324808	-0.292868	-0.594399
C43	C	1.978591	-0.497051	-0.326263
C44	C	1.967738	-0.424894	-0.338772
C45	C	2.044242	-0.388620	-0.249533
H46	H	2.063791	-0.504762	-0.338796
H47	H	1.952629	-0.513673	-0.244701
H48	H	1.993707	-0.408276	-0.420315
H49	H	1.882555	-0.417161	-0.326227
H50	H	2.018279	-0.405242	-0.167971
H51	H	2.129437	-0.396337	-0.262074
H52	H	2.036879	-0.339658	-0.258001
H53	H	1.952248	-0.175681	-0.995015
H54	H	1.361289	-0.184734	-0.375679
C55	C	1.716833	-0.826963	-0.631433
C56	C	1.648595	-0.874309	-0.710874
C57	C	1.576879	-0.837284	-0.794192
H58	H	1.771151	-0.793906	-0.679877
H59	H	1.660133	-0.802796	-0.585613
H60	H	1.705289	-0.898465	-0.756690
H61	H	1.594254	-0.907368	-0.662465
H62	H	1.520179	-0.813117	-0.748371
H63	H	1.631206	-0.804227	-0.842626
H64	H	1.530562	-0.869403	-0.848094
H65	H	1.948647	-0.639981	-0.361394
C66	C	2.026129	-0.829106	-0.271486
C67	C	2.087701	-0.877349	-0.199896
C68	C	2.164497	-0.841343	-0.110569
H69	H	1.975791	-0.804957	-0.218345
H70	H	2.086814	-0.796112	-0.312602
H71	H	2.027024	-0.910331	-0.158782
H72	H	2.138062	-0.901501	-0.253003
H73	H	2.225183	-0.808349	-0.151685
H74	H	2.114150	-0.817195	-0.057437
H75	H	2.206292	-0.874069	-0.061992
H76	H	1.995916	-0.971802	-0.306698
H77	H	1.727149	-0.969919	-0.619734
H78	H	1.746160	-0.750227	-0.597317
H79	H	1.679867	-0.638111	-0.674412
C80	C	1.669580	-0.495140	-0.686141
C81	C	1.601352	-0.542480	-0.765598
C82	C	1.529674	-0.505446	-0.848941
H83	H	1.723922	-0.462088	-0.734570
H84	H	1.612876	-0.470966	-0.640339
H85	H	1.658050	-0.566642	-0.811396
H86	H	1.546987	-0.575533	-0.717204
H87	H	1.472969	-0.481273	-0.803139
H88	H	1.584025	-0.472395	-0.897361
H89	H	1.483364	-0.537561	-0.902855
H90	H	1.733028	-0.301629	-0.976364
H91	H	1.938901	-0.726686	-0.372863
