data_functionalizedCrystal
_audit_creation_method	'MofGen! by Chris Wilmer'
_symmetry_space_group_name_H-M	'P1'
_symmetry_Int_Tables_number	1
_symmetry_cell_setting	triclinic
loop_
_symmetry_equiv_pos_as_xyz
  x,y,z
_cell_length_a	21.395364
_cell_length_b	19.076808
_cell_length_c	19.076919
_cell_angle_alpha	89.878360
_cell_angle_beta	92.280361
_cell_angle_gamma	92.338361
loop_
_atom_site_label
_atom_site_type_symbol
_atom_site_fract_x
_atom_site_fract_y
_atom_site_fract_z
Zn1	Zn	0.933460	-0.295469	-0.386067
Zn2	Zn	0.933724	-0.408264	-0.263837
Zn3	Zn	0.833059	-0.290798	-0.268574
Zn4	Zn	0.824622	-0.412978	-0.381302
O5	O	0.881216	-0.351877	-0.324945
O6	O	1.021173	-0.310414	-0.369865
O7	O	0.924012	-0.388754	-0.166134
O8	O	0.849797	-0.193080	-0.288136
O9	O	1.021367	-0.393284	-0.280062
O10	O	0.923562	-0.196512	-0.374458
O11	O	0.850053	-0.302452	-0.169615
O12	O	0.744261	-0.307023	-0.283516
O13	O	0.835419	-0.401318	-0.480265
O14	O	0.738063	-0.396788	-0.366337
O15	O	0.915382	-0.314985	-0.483766
O16	O	0.915831	-0.507227	-0.275442
O17	O	0.835675	-0.510690	-0.361743
C18	C	0.718428	-0.351911	-0.324924
C19	C	0.648786	-0.351943	-0.324931
C20	C	0.615989	-0.308869	-0.371757
C21	C	0.550554	-0.308850	-0.371761
C22	C	0.517918	-0.351918	-0.324945
C23	C	0.550723	-0.394995	-0.278109
C24	C	0.616157	-0.395007	-0.278102
C25	C	0.412237	-0.414977	-0.316751
C26	C	0.346804	-0.414967	-0.316763
C27	C	0.316098	-0.351880	-0.324962
C28	C	0.350832	-0.288803	-0.333164
C29	C	0.416266	-0.288815	-0.333157
C30	C	0.446966	-0.351910	-0.324947
C31	C	0.212349	-0.308782	-0.371795
C32	C	0.146913	-0.308762	-0.371793
C33	C	0.147083	-0.394914	-0.278145
C34	C	0.212518	-0.394927	-0.278143
C35	C	0.245147	-0.351863	-0.324972
C36	C	0.874883	-0.534457	-0.317577
C37	C	0.872229	-0.612566	-0.314448
C38	C	0.909357	-0.650990	-0.357958
C39	C	0.906862	-0.724382	-0.355019
C40	C	0.867241	-0.759349	-0.308567
C41	C	0.830110	-0.720920	-0.265056
C42	C	0.832602	-0.647529	-0.267998
C43	C	0.855669	-0.978658	-0.294947
C44	C	0.853180	-1.052053	-0.292006
C45	C	0.929932	-1.055511	-0.381971
C46	C	0.932423	-0.982118	-0.384907
C47	C	0.895289	-0.943696	-0.341398
N48	N	0.864691	-0.834367	-0.305561
N49	N	0.897837	-0.868679	-0.344408
C50	C	1.044640	-0.351844	-0.324967
C51	C	1.114281	-0.351830	-0.324976
C52	C	0.874430	-0.359198	-0.508225
C53	C	0.871538	-0.362318	-0.586328
C54	C	0.887591	-0.168585	-0.332357
C55	C	0.890308	-0.090477	-0.335516
C56	C	0.911809	-0.318837	-0.624844
C57	C	0.909084	-0.321765	-0.698230
C58	C	0.866090	-0.368179	-0.733098
C59	C	0.825814	-0.411662	-0.694577
C60	C	0.828537	-0.408730	-0.621192
C61	C	0.853481	-0.381767	-0.952379
C62	C	0.850763	-0.384698	-1.025769
C63	C	0.934032	-0.294799	-1.029418
C64	C	0.936754	-0.291874	-0.956032
C65	C	0.896476	-0.335354	-0.917516
N66	N	0.863305	-0.371175	-0.808111
N67	N	0.899258	-0.332354	-0.842506
C68	C	0.888014	-0.344534	-0.142380
C69	C	0.891035	-0.341216	-0.064286
H70	H	0.523846	-0.273771	-0.409892
C71	C	0.454471	-0.219436	-0.342168
H72	H	0.426817	-0.181859	-0.347047
H73	H	0.478465	-0.222041	-0.382853
H74	H	0.481697	-0.211599	-0.302148
C75	C	0.778523	-0.462717	-0.732929
H76	H	0.782673	-0.458242	-0.782151
H77	H	0.737228	-0.451962	-0.721311
H78	H	0.786501	-0.509452	-0.718992
C79	C	0.809183	-0.429597	-0.910018
H80	H	0.816954	-0.421201	-0.861319
H81	H	0.816264	-0.477291	-0.920137
H82	H	0.766995	-0.419797	-0.922455
C83	C	0.791763	-0.605263	-0.220137
H84	H	0.767813	-0.636598	-0.192046
H85	H	0.764422	-0.577731	-0.248136
H86	H	0.817861	-0.575392	-0.190691
C87	C	0.959100	-0.267778	-0.586496
H88	H	0.982689	-0.242296	-0.619949
H89	H	0.986529	-0.293504	-0.556785
H90	H	0.937252	-0.236018	-0.559106
H91	H	0.120211	-0.273682	-0.409924
C92	C	0.651878	-0.261491	-0.423258
H93	H	0.622970	-0.235829	-0.451142
H94	H	0.675335	-0.289641	-0.452742
H95	H	0.679465	-0.229759	-0.397656
H96	H	0.120511	-0.429981	-0.240026
C97	C	0.784253	-0.456576	-0.578823
H98	H	0.758265	-0.484648	-0.610098
H99	H	0.758946	-0.428570	-0.551268
H100	H	0.808234	-0.486044	-0.548971
C101	C	0.970774	-1.097773	-0.429831
H102	H	0.994730	-1.066436	-0.457913
H103	H	0.944681	-1.127646	-0.459274
H104	H	0.998119	-1.125303	-0.401828
C105	C	0.809591	-1.090516	-0.240912
H106	H	0.787827	-1.057123	-0.215426
H107	H	0.833739	-1.117904	-0.209172
H108	H	0.780307	-1.120243	-0.266625
H109	H	0.239221	-0.430006	-0.240015
H110	H	0.238917	-0.273712	-0.409921
C111	C	0.446008	-0.484378	-0.307738
H112	H	0.415951	-0.521942	-0.302866
H113	H	0.473071	-0.481786	-0.267046
H114	H	0.469827	-0.492225	-0.347752
H115	H	0.825434	-0.947380	-0.259519
C116	C	0.947706	-0.766648	-0.402873
H117	H	0.940544	-0.815365	-0.394474
H118	H	0.990599	-0.754161	-0.393111
H119	H	0.937165	-0.756501	-0.450562
H120	H	0.797847	-0.749396	-0.227237
H121	H	0.941879	-0.286360	-0.729588
C122	C	0.978330	-0.246970	-1.071786
H123	H	0.970549	-0.255358	-1.120485
H124	H	1.020516	-0.256763	-1.059352
H125	H	0.971242	-0.199274	-1.061666
H126	H	0.815750	-0.422495	-1.054156
C127	C	0.984047	-0.240819	-0.917682
H128	H	1.007639	-0.215339	-0.951132
H129	H	1.011472	-0.266554	-0.887974
H130	H	0.962205	-0.209058	-0.890288
H131	H	0.325832	-0.237432	-0.339840
H132	H	0.524146	-0.430061	-0.239991
C133	C	0.308603	-0.484346	-0.307737
H134	H	0.336261	-0.521918	-0.302839
H135	H	0.281373	-0.492197	-0.347746
H136	H	0.284614	-0.481730	-0.267044
H137	H	0.642859	-0.430084	-0.239969
C138	C	0.952932	-0.612533	-0.409064
H139	H	0.974679	-0.645931	-0.434563
H140	H	0.982221	-0.582801	-0.383372
H141	H	0.928769	-0.585151	-0.440803
H142	H	0.964685	-0.953650	-0.422732
