data_functionalizedCrystal
_audit_creation_method	'MofGen! by Chris Wilmer'
_symmetry_space_group_name_H-M	'P1'
_symmetry_Int_Tables_number	1
_symmetry_cell_setting	triclinic
loop_
_symmetry_equiv_pos_as_xyz
  x,y,z
_cell_length_a	23.532407
_cell_length_b	23.532357
_cell_length_c	12.503572
_cell_angle_alpha	93.494896
_cell_angle_beta	86.506620
_cell_angle_gamma	82.838519
loop_
_atom_site_label
_atom_site_type_symbol
_atom_site_fract_x
_atom_site_fract_y
_atom_site_fract_z
O1	O	0.758548	0.065826	-0.089265
O2	O	0.592684	0.075828	-0.089284
O3	O	0.680632	-0.012106	-0.089252
O4	O	0.670601	0.153760	-0.089297
O5	O	0.674018	-0.005482	0.089388
O6	O	0.586070	0.082452	0.089356
O7	O	0.751934	0.072450	0.089375
Cu8	Cu	0.668398	0.078056	0.105677
Cu9	Cu	0.676220	0.070222	-0.105585
O10	O	0.663986	0.160384	0.089343
C11	C	0.568161	0.078885	0.000034
C12	C	0.504944	0.078119	0.000028
C13	C	0.238785	0.022924	0.000072
C14	C	0.298185	0.023636	0.000072
O15	O	0.334936	-0.020149	0.000121
N16	N	0.320803	0.075912	0.000050
C17	C	0.284016	0.127482	0.000040
O18	O	0.308709	0.172012	0.000023
C19	C	0.224617	0.126770	0.000048
C20	C	0.202003	0.074489	0.000059
C21	C	0.216171	-0.029352	0.000084
C22	C	0.156775	-0.030063	0.000083
C23	C	0.119993	0.021502	0.000069
C24	C	0.142607	0.073778	0.000057
C25	C	0.187832	0.178339	0.000046
C26	C	0.128429	0.177622	0.000055
C27	C	0.105815	0.125342	0.000065
C28	C	0.046430	0.124632	0.000042
N29	N	0.023812	0.072355	0.000064
C30	C	0.060594	0.020790	0.000077
C31	C	0.408759	0.128972	0.000025
C32	C	0.468158	0.129684	0.000009
C33	C	0.482322	0.025838	0.000043
C34	C	0.422923	0.025127	0.000051
C35	C	0.386142	0.076696	0.000046
C36	C	-0.064143	0.019300	0.000073
C37	C	-0.123544	0.018593	0.000067
C38	C	-0.137704	0.122439	0.000039
C39	C	-0.078307	0.123146	0.000039
C40	C	-0.041527	0.071572	0.000060
O41	O	0.009644	0.168394	-0.000002
O42	O	0.035893	-0.023733	0.000109
C43	C	0.677074	-0.030010	0.000072
C44	C	0.676319	-0.093229	0.000082
C45	C	0.675190	-0.488853	-0.097353
C46	C	0.674473	-0.548252	-0.097360
O47	O	0.677149	-0.582040	-0.180174
N48	N	0.670512	-0.574353	0.000015
C49	C	0.667261	-0.541050	0.097403
O50	O	0.663826	-0.568704	0.180228
C51	C	0.667974	-0.481651	0.097408
C52	C	0.671941	-0.455554	0.000027
C53	C	0.679156	-0.462756	-0.194727
C54	C	0.679874	-0.403361	-0.194720
C55	C	0.676626	-0.370062	-0.097340
C56	C	0.672659	-0.396159	0.000033
C57	C	0.664720	-0.448348	0.194795
C58	C	0.665433	-0.388945	0.194791
C59	C	0.669400	-0.362849	0.097410
C60	C	0.670129	-0.303465	0.097420
N61	N	0.674090	-0.277364	0.000045
C62	C	0.677339	-0.310663	-0.097335
C63	C	0.665763	-0.665792	0.097385
C64	C	0.665055	-0.725190	0.097381
C65	C	0.672265	-0.732389	-0.097382
C66	C	0.672978	-0.672990	-0.097377
C67	C	0.669725	-0.639691	0.000010
C68	C	0.678847	-0.185928	-0.097314
C69	C	0.679567	-0.126527	-0.097298
C70	C	0.672354	-0.119333	0.097464
C71	C	0.671637	-0.178729	0.097449
C72	C	0.674881	-0.212025	0.000052
O73	O	0.667453	-0.269641	0.180193
O74	O	0.680766	-0.282999	-0.180146
C75	C	0.776457	0.069392	0.000055
C76	C	0.839674	0.070158	0.000054
C77	C	0.667544	0.178288	0.000017
C78	C	0.668300	0.241506	0.000000
N79	N	0.662900	0.083565	0.254267
N80	N	0.681722	0.064708	-0.254176
C81	C	0.654813	0.091675	0.473379
C82	C	0.689807	0.056601	0.526719
C83	C	0.685308	0.061113	0.648641
C84	C	0.659312	0.087163	0.351447
H85	H	-0.059894	0.165717	0.000030
H86	H	0.674908	-0.759512	-0.176674
H87	H	0.206233	0.220911	0.000032
H88	H	0.621477	0.125089	0.519274
H89	H	0.512281	-0.016149	0.000054
N90	N	0.088766	0.233250	0.000048
H91	H	0.066254	0.232821	-0.066173
H92	H	0.061392	0.237697	0.066314
H93	H	0.681799	-0.489862	-0.274030
H94	H	-0.167662	0.164422	0.000023
N95	N	0.668854	-0.083408	0.202486
H96	H	0.633681	-0.053784	0.206811
H97	H	0.666256	-0.108988	0.264122
N98	N	0.733970	0.012338	0.465922
H99	H	0.760793	0.032230	0.419257
H100	H	0.756658	-0.010429	0.518574
N101	N	0.398540	-0.031263	0.000079
H102	H	0.371766	-0.031419	0.066308
H103	H	0.376688	-0.036303	-0.066180
H104	H	0.682799	-0.105283	-0.176602
N105	N	0.677256	-0.644845	-0.202408
H106	H	0.679207	-0.674958	-0.264093
H107	H	0.642399	-0.615540	-0.206660
H108	H	0.681486	-0.213030	-0.176624
N109	N	0.662265	-0.629877	0.202427
H110	H	0.625257	-0.633823	0.244998
H111	H	0.695902	-0.643482	0.244909
H112	H	-0.034203	-0.022697	0.000090
N113	N	-0.147934	-0.037797	0.000076
H114	H	-0.115617	-0.070354	0.000089
H115	H	-0.174721	-0.037899	0.066300
N116	N	0.684149	-0.375218	-0.299753
H117	H	0.686096	-0.405332	-0.361435
H118	H	0.649292	-0.345911	-0.304001
H119	H	0.661491	-0.469585	0.274093
N120	N	0.132388	-0.086451	0.000104
H121	H	0.164709	-0.119005	0.000117
H122	H	0.105605	-0.086553	0.066334
H123	H	0.246113	-0.071345	0.000099
H124	H	0.378814	0.170968	0.000013
N125	N	0.492546	0.186071	-0.000031
H126	H	0.460227	0.218626	-0.000043
H127	H	0.514433	0.191091	0.066190
H128	H	0.661833	-0.746434	0.176679
N129	N	0.661926	-0.353027	0.299828
H130	H	0.624916	-0.356970	0.342393
H131	H	0.695560	-0.366630	0.342321
N132	N	0.667368	-0.206882	0.202478
H133	H	0.665422	-0.176772	0.264168
H134	H	0.631601	-0.226545	0.206715
