data_functionalizedCrystal
_audit_creation_method	'MofGen! by Chris Wilmer'
_symmetry_space_group_name_H-M	'P1'
_symmetry_Int_Tables_number	1
_symmetry_cell_setting	triclinic
loop_
_symmetry_equiv_pos_as_xyz
  x,y,z
_cell_length_a	16.625548
_cell_length_b	25.639239
_cell_length_c	16.625539
_cell_angle_alpha	90.031255
_cell_angle_beta	90.020568
_cell_angle_gamma	90.039754
loop_
_atom_site_label
_atom_site_type_symbol
_atom_site_fract_x
_atom_site_fract_y
_atom_site_fract_z
Zn1	Zn	1.232590	-0.208135	0.455893
Zn2	Zn	1.565923	0.125198	0.789226
Zn3	Zn	1.899256	0.458532	1.122559
Zn4	Zn	1.232455	-0.295573	0.321053
Zn5	Zn	1.565788	0.037760	0.654386
Zn6	Zn	1.899121	0.371094	0.987720
Zn7	Zn	1.097751	-0.208155	0.321073
Zn8	Zn	1.431085	0.125178	0.654407
Zn9	Zn	1.764418	0.458512	0.987740
Zn10	Zn	1.097684	-0.295543	0.455843
Zn11	Zn	1.431017	0.037791	0.789176
Zn12	Zn	1.764350	0.371124	1.122510
O13	O	1.165120	-0.251851	0.388466
O14	O	1.498453	0.081482	0.721799
O15	O	1.831786	0.414815	1.055132
O16	O	1.345404	-0.219738	0.438018
O17	O	1.678737	0.113595	0.771352
O18	O	2.012071	0.446929	1.104685
O19	O	1.214558	-0.283998	0.208223
O20	O	1.547891	0.049336	0.541557
O21	O	1.881225	0.382669	0.874890
O22	O	1.115723	-0.134987	0.338987
O23	O	1.449056	0.198346	0.672320
O24	O	1.782389	0.531680	1.005653
O25	O	1.345305	-0.283978	0.338952
O26	O	1.678638	0.049355	0.672286
O27	O	2.011972	0.382688	1.005619
O28	O	1.214788	-0.134972	0.438038
O29	O	1.548121	0.198361	0.771371
O30	O	1.881455	0.531694	1.104705
O31	O	1.115592	-0.219772	0.208238
O32	O	1.448925	0.113561	0.541572
O33	O	1.782259	0.446895	0.874905
O34	O	0.984910	-0.219743	0.338938
O35	O	1.318243	0.113590	0.672272
O36	O	1.651577	0.446924	1.005605
O37	O	1.115607	-0.283927	0.568682
O38	O	1.448941	0.049406	0.902015
O39	O	1.782274	0.382740	1.235349
O40	O	0.984860	-0.283946	0.437953
O41	O	1.318194	0.049387	0.771286
O42	O	1.651527	0.382720	1.104620
O43	O	1.214722	-0.219709	0.568719
O44	O	1.548056	0.113624	0.902052
O45	O	1.881389	0.446958	1.235385
O46	O	1.214492	-0.368734	0.338904
O47	O	1.547825	-0.035401	0.672237
O48	O	1.881159	0.297933	1.005571
O49	O	1.115477	-0.368712	0.437933
O50	O	1.448810	-0.035379	0.771267
O51	O	1.782143	0.297955	1.104600
C52	C	0.955629	-0.251844	0.388443
C53	C	1.288962	0.081489	0.721776
C54	C	1.622296	0.414823	1.055110
C55	C	0.866008	-0.251853	0.388452
C56	C	1.199341	0.081480	0.721786
C57	C	1.532675	0.414813	1.055119
C58	C	0.537832	-0.251857	0.388487
C59	C	0.871166	0.081477	0.721820
C60	C	1.204499	0.414810	1.055154
C61	C	0.629141	-0.251854	0.388475
C62	C	0.962474	0.081479	0.721808
C63	C	1.295807	0.414812	1.055141
C64	C	0.701917	-0.251855	0.388469
C65	C	1.035250	0.081478	0.721802
C66	C	1.368584	0.414811	1.055136
C67	C	0.793231	-0.251852	0.388458
C68	C	1.126565	0.081481	0.721792
C69	C	1.459898	0.414814	1.055125
C70	C	1.164984	-0.387694	0.388429
C71	C	1.498318	-0.054361	0.721762
C72	C	1.831651	0.278973	1.055095
C73	C	1.165000	-0.445808	0.388440
C74	C	1.498333	-0.112475	0.721773
C75	C	1.831667	0.220859	1.055106
C76	C	1.216812	-0.806170	0.336989
C77	C	1.550145	-0.472837	0.670322
C78	C	1.883478	-0.139503	1.003655
C79	C	1.216843	-0.860774	0.337000
C80	C	1.550176	-0.527441	0.670333
C81	C	1.883510	-0.194108	1.003666
O82	O	1.260755	-0.889010	0.293213
O83	O	1.594088	-0.555677	0.626547
O84	O	1.927421	-0.222343	0.959880
N85	N	1.165262	-0.888090	0.388519
N86	N	1.498595	-0.554757	0.721852
N87	N	1.831928	-0.221424	1.055186
C88	C	1.113651	-0.860799	0.440037
C89	C	1.446985	-0.527466	0.773370
C90	C	1.780318	-0.194133	1.106703
O91	O	1.069780	-0.889048	0.483860
O92	O	1.403114	-0.555715	0.817193
O93	O	1.736447	-0.222381	1.150526
C94	C	1.113625	-0.806196	0.440029
C95	C	1.446958	-0.472863	0.773363
C96	C	1.780291	-0.139529	1.106696
C97	C	1.165204	-0.778883	0.388501
C98	C	1.498537	-0.445549	0.721834
C99	C	1.831870	-0.112216	1.055168
C100	C	1.268387	-0.778857	0.285465
C101	C	1.601721	-0.445523	0.618798
C102	C	1.935054	-0.112190	0.952132
C103	C	1.268355	-0.724256	0.285453
C104	C	1.601688	-0.390923	0.618787
C105	C	1.935022	-0.057589	0.952120
C106	C	1.216747	-0.696969	0.336965
C107	C	1.550080	-0.363636	0.670299
C108	C	1.883413	-0.030302	1.003632
C109	C	1.165171	-0.724282	0.388489
C110	C	1.498505	-0.390949	0.721823
C111	C	1.831838	-0.057616	1.055156
C112	C	1.062019	-0.778906	0.491551
C113	C	1.395352	-0.445573	0.824884
C114	C	1.728686	-0.112240	1.158217
C115	C	1.061997	-0.724299	0.491539
C116	C	1.395331	-0.390966	0.824873
C117	C	1.728664	-0.057632	1.158206
C118	C	1.113576	-0.696986	0.440011
C119	C	1.446910	-0.363652	0.773344
C120	C	1.780243	-0.030319	1.106677
C121	C	1.113531	-0.642395	0.439990
C122	C	1.446864	-0.309061	0.773323
C123	C	1.780197	0.024272	1.106656
N124	N	1.165112	-0.615078	0.388470
N125	N	1.498445	-0.281745	0.721804
N126	N	1.831779	0.051588	1.055137
C127	C	1.216720	-0.642366	0.336958
C128	C	1.550054	-0.309032	0.670291
C129	C	1.883387	0.024301	1.003625
C130	C	1.113712	-0.975470	0.440049
C131	C	1.447045	-0.642137	0.773383
C132	C	1.780379	-0.308803	1.106716
C133	C	1.113734	-1.030072	0.440053
C134	C	1.447067	-0.696739	0.773386
C135	C	1.780401	-0.363406	1.106720
C136	C	1.216927	-1.030043	0.337017
C137	C	1.550260	-0.696710	0.670350
C138	C	1.883594	-0.363377	1.003683
C139	C	1.216900	-0.975440	0.337009
C140	C	1.550234	-0.642107	0.670343
C141	C	1.883567	-0.308773	1.003676
C142	C	1.165293	-0.948154	0.388530
C143	C	1.498627	-0.614821	0.721863
C144	C	1.831960	-0.281487	1.055196
C145	C	1.216648	-0.527700	0.336937
C146	C	1.549981	-0.194367	0.670270
C147	C	1.883314	0.138966	1.003604
C148	C	1.216608	-0.473095	0.336928
C149	C	1.549941	-0.139762	0.670261
C150	C	1.883275	0.193572	1.003594
C151	C	1.113418	-0.473129	0.439967
C152	C	1.446752	-0.139796	0.773300
C153	C	1.780085	0.193538	1.106633
C154	C	1.113454	-0.527729	0.439973
C155	C	1.446788	-0.194396	0.773307
C156	C	1.780121	0.138937	1.106640
C157	C	1.165076	-0.555014	0.388456
C158	C	1.498409	-0.221681	0.721789
C159	C	1.831742	0.111653	1.055123
O160	O	1.069644	-0.614124	0.483756
O161	O	1.402977	-0.280791	0.817089
O162	O	1.736310	0.052543	1.150422
O163	O	1.260591	-0.614110	0.293150
O164	O	1.593924	-0.280777	0.626483
O165	O	1.927258	0.052556	0.959817
C166	C	1.375429	-0.251859	0.388489
C167	C	1.708762	0.081474	0.721822
C168	C	2.042095	0.414807	1.055155
C169	C	1.465050	-0.251863	0.388498
C170	C	1.798383	0.081471	0.721832
C171	C	2.131716	0.414804	1.055165
C172	C	1.165172	-0.251812	0.598775
C173	C	1.498506	0.081521	0.932108
C174	C	1.831839	0.414854	1.265441
C175	C	1.165195	-0.251796	0.688396
C176	C	1.498528	0.081538	1.021729
C177	C	1.831861	0.414871	1.355062
C178	C	1.165278	-0.115478	0.388520
C179	C	1.498611	0.217855	0.721854
C180	C	1.831945	0.551188	1.055187
C181	C	1.165345	-0.057364	0.388544
C182	C	1.498679	0.275969	0.721877
C183	C	1.832012	0.609302	1.055210
C184	C	1.165114	-0.251852	0.178975
C185	C	1.498447	0.081481	0.512308
C186	C	1.831781	0.414814	0.845641
C187	C	1.165248	-0.251722	0.089354
C188	C	1.498581	0.081612	0.422687
C189	C	1.831915	0.414945	0.756021
C190	C	1.165232	-0.251737	1.016572
C191	C	1.498565	0.081596	1.349905
C192	C	1.831898	0.414929	1.683238
C193	C	1.165219	-0.251755	0.925263
C194	C	1.498553	0.081578	1.258596
C195	C	1.831886	0.414911	1.591930
C196	C	1.165214	-0.251767	0.852487
C197	C	1.498547	0.081566	1.185820
C198	C	1.831880	0.414900	1.519153
C199	C	1.165200	-0.251784	0.761172
C200	C	1.498534	0.081549	1.094506
C201	C	1.831867	0.414883	1.427839
H202	H	1.258610	-0.450858	0.294964
H203	H	1.591943	-0.117525	0.628297
H204	H	1.925277	0.215808	0.961631
H205	H	1.071725	-1.052306	0.482005
H206	H	1.405059	-0.718973	0.815339
H207	H	1.738392	-0.385640	1.148672
H208	H	1.071457	-0.549969	0.481935
H209	H	1.404790	-0.216636	0.815268
H210	H	1.738124	0.116697	1.148601
F211	F	1.271588	-0.556731	0.282106
F212	F	1.604922	-0.223398	0.615440
F213	F	1.938255	0.109936	0.948773
F214	F	1.271798	-0.946376	0.282167
F215	F	1.605131	-0.613043	0.615500
F216	F	1.938464	-0.279709	0.948833
H217	H	1.071681	-0.953256	0.482001
H218	H	1.405014	-0.619923	0.815334
H219	H	1.738347	-0.286590	1.148668
H220	H	1.020014	-0.801135	0.533507
H221	H	1.353347	-0.467802	0.866840
H222	H	1.686680	-0.134469	1.200174
F223	F	1.323322	-0.807889	0.230635
F224	F	1.656655	-0.474556	0.563968
F225	F	1.989989	-0.141223	0.897302
F226	F	1.058498	-0.444078	0.494789
F227	F	1.391832	-0.110745	0.828122
F228	F	1.725165	0.222588	1.161456
H229	H	1.310357	-0.702021	0.243497
H230	H	1.643691	-0.368687	0.576830
H231	H	1.977024	-0.035354	0.910163
H232	H	1.019973	-0.702085	0.533496
H233	H	1.353307	-0.368752	0.866830
H234	H	1.686640	-0.035419	1.200163
H235	H	1.258952	-1.052270	0.295075
H236	H	1.592285	-0.718937	0.628409
H237	H	1.925619	-0.385604	0.961742
