data_functionalizedCrystal
_audit_creation_method	'MofGen! by Chris Wilmer'
_symmetry_space_group_name_H-M	'P1'
_symmetry_Int_Tables_number	1
_symmetry_cell_setting	triclinic
loop_
_symmetry_equiv_pos_as_xyz
  x,y,z
_cell_length_a	23.196402
_cell_length_b	23.196402
_cell_length_c	23.196401
_cell_angle_alpha	59.999265
_cell_angle_beta	90.005863
_cell_angle_gamma	60.002131
loop_
_atom_site_label
_atom_site_type_symbol
_atom_site_fract_x
_atom_site_fract_y
_atom_site_fract_z
Zr1	Zr	0.555358	0.631034	-0.075643
O2	O	0.463295	0.751311	-0.167695
O3	O	0.583578	0.510765	-0.047428
O4	O	0.583559	0.631051	-0.167702
O5	O	0.463332	0.631009	0.047458
O6	O	0.678428	0.631055	-0.167704
O7	O	0.463314	0.631025	-0.047420
O8	O	0.678461	0.415885	0.047445
O9	O	0.463298	0.846178	-0.167691
O10	O	0.666416	0.560233	-0.035391
O11	O	0.595629	0.560218	0.035417
O12	O	0.595607	0.701839	-0.106191
O13	O	0.524821	0.701824	-0.035382
Zr14	Zr	0.706691	0.631014	0.075675
Zr15	Zr	0.706663	0.631040	-0.075646
Zr16	Zr	0.555386	0.631008	0.075678
Zr17	Zr	0.555362	0.782336	-0.075636
Zr18	Zr	0.706686	0.479712	0.075669
O19	O	0.678471	0.751283	0.047460
O20	O	0.678431	0.751320	-0.167699
O21	O	0.463335	0.751274	0.047464
O22	O	0.798753	0.510737	0.167727
O23	O	0.798714	0.510774	-0.047431
O24	O	0.583618	0.510728	0.167731
O25	O	0.798717	0.631039	-0.047426
O26	O	0.678490	0.630997	0.167735
O27	O	0.583621	0.630993	0.167736
O28	O	0.798734	0.631023	0.047453
O29	O	0.583565	0.846183	-0.167693
O30	O	0.678484	0.415864	0.167725
O31	O	0.798751	0.415869	0.167723
O32	O	0.798728	0.415890	0.047443
O33	O	0.463320	0.846158	-0.047411
O34	O	0.583587	0.846163	-0.047413
O35	O	0.666442	0.560209	0.106223
O36	O	0.737228	0.560224	0.035415
O37	O	0.666419	0.701830	-0.035385
O38	O	0.595633	0.701815	0.035423
C39	C	0.631019	0.441768	0.000008
C40	C	0.631017	0.377536	0.000005
C41	C	0.441765	0.631016	0.000019
C42	C	0.377532	0.631013	0.000021
C43	C	0.667962	0.347373	-0.036958
C44	C	0.667969	0.287012	-0.036953
C45	C	0.631017	0.256828	0.000007
C46	C	0.594071	0.286994	0.036979
C47	C	0.594071	0.347348	0.036978
C48	C	0.569113	0.194797	-0.005267
C49	C	0.569111	0.134447	-0.005271
C50	C	0.631018	0.070673	0.000014
C51	C	0.692927	0.067263	0.005289
C52	C	0.692927	0.127617	0.005288
C53	C	0.631013	0.191383	0.000013
C54	C	0.667974	-0.024941	-0.036945
C55	C	0.667982	-0.085307	-0.036934
C56	C	0.594077	-0.085318	0.036993
C57	C	0.594075	-0.024959	0.036987
C58	C	0.631022	0.005229	0.000014
C59	C	-0.048353	0.557118	0.036975
C60	C	0.012004	0.557113	0.036973
C61	C	0.005226	0.631029	0.000017
C62	C	-0.061917	0.704956	-0.036954
C63	C	-0.122272	0.704958	-0.036957
C64	C	0.072536	0.687651	0.005300
C65	C	0.132891	0.687646	0.005308
C66	C	0.191379	0.631025	0.000022
C67	C	0.189511	0.574396	-0.005258
C68	C	0.129156	0.574398	-0.005261
C69	C	0.070667	0.631035	0.000016
C70	C	0.323959	0.557098	0.036985
C71	C	0.384315	0.557097	0.036978
C72	C	0.310392	0.704941	-0.036945
C73	C	0.250037	0.704940	-0.036942
C74	C	0.256825	0.631017	0.000026
C75	C	0.820283	0.631032	0.000013
C76	C	0.884516	0.631034	0.000012
C77	C	0.630989	0.631056	-0.189263
C78	C	0.630977	0.631067	-0.253503
C79	C	0.631029	0.820280	0.000024
C80	C	0.631031	0.884512	0.000027
C81	C	0.683243	0.631071	-0.283667
C82	C	0.683259	0.631055	-0.344013
C83	C	0.630998	0.631051	-0.374202
C84	C	0.578728	0.631043	-0.344028
C85	C	0.578717	0.631051	-0.283679
C86	C	0.567218	0.678543	-0.493580
C87	C	0.567227	0.678540	-0.553931
C88	C	0.631029	0.631022	-0.560338
C89	C	0.694825	0.583518	-0.506392
C90	C	0.694815	0.583526	-0.446042
C91	C	0.631003	0.631042	-0.439640
C92	C	0.683316	0.631007	-0.655936
C93	C	0.683332	0.630985	-0.716281
C94	C	0.578795	0.630982	-0.716299
C95	C	0.578785	0.630995	-0.655951
C96	C	0.631045	0.631011	-0.625775
C97	C	0.631059	0.630991	0.189295
C98	C	0.631071	0.630980	0.253535
C99	C	0.820278	0.441775	0.000005
C100	C	0.884509	0.377546	0.000001
C101	C	0.631054	0.441735	0.189287
C102	C	0.631064	0.377492	0.253524
C103	C	0.820313	0.441743	0.189284
C104	C	0.884556	0.377503	0.253520
C105	C	0.441735	0.820305	-0.189252
C106	C	0.377493	0.884545	-0.253487
C107	C	0.441770	0.820272	0.000028
C108	C	0.377539	0.884501	0.000031
C109	C	0.630994	0.820313	-0.189255
C110	C	0.630984	0.884556	-0.253492
C111	C	0.877709	0.347388	-0.036967
C112	C	0.938055	0.287047	-0.036985
C113	C	1.005201	0.256860	-0.000030
C114	C	1.011999	0.287024	0.036939
C115	C	0.951654	0.347368	0.036952
C116	C	0.668032	0.347318	0.320657
C117	C	0.668039	0.286964	0.381020
C118	C	0.631082	0.256780	0.374249
C119	C	0.594109	0.286960	0.307109
C120	C	0.594098	0.347318	0.246748
C121	C	0.951681	0.347343	0.246724
C122	C	1.012050	0.286991	0.307075
C123	C	1.005292	0.256795	0.374220
C124	C	0.938160	0.286961	0.381014
C125	C	0.877792	0.347317	0.320664
C126	C	0.310367	0.914712	-0.246692
C127	C	0.249999	0.975083	-0.307043
C128	C	0.256757	1.005282	-0.374188
C129	C	0.323889	0.975112	-0.380982
C130	C	0.384256	0.914746	-0.320632
C131	C	0.384339	0.914666	0.036993
C132	C	0.323993	0.975024	0.036994
C133	C	0.256848	1.005213	0.000037
C134	C	0.250050	0.975046	-0.036929
C135	C	0.310395	0.914693	-0.036934
C136	C	0.667949	0.914720	-0.246698
C137	C	0.667953	0.975075	-0.307050
C138	C	0.630988	1.005269	-0.374194
C139	C	0.594022	0.975098	-0.380986
C140	C	0.594023	0.914740	-0.320636
H141	H	0.698048	0.371948	-0.067062
H142	H	0.698149	0.262398	0.435682
H143	H	0.304851	0.890128	-0.192024
H144	H	0.195343	0.999637	-0.301497
Cl145	Cl	0.263016	0.503246	-0.011953
Cl146	Cl	1.081190	0.180918	0.450083
Cl147	Cl	0.547623	0.249042	0.083449
H148	H	0.066672	0.496920	0.067085
Cl149	Cl	0.714427	0.876774	-0.162295
Cl150	Cl	0.793305	0.385328	-0.083434
H151	H	0.518694	0.246732	-0.009585
Cl152	Cl	0.631103	0.180899	0.450140
H153	H	0.439007	0.890090	0.067093
Cl154	Cl	0.929676	0.248992	0.465431
H155	H	0.564019	0.262375	0.301607
Cl156	Cl	0.547622	0.385269	0.083451
H157	H	-0.042819	0.496923	0.067076
H158	H	0.823138	0.371865	0.326207
H159	H	0.563997	0.371877	0.192088
H160	H	0.207596	1.054435	-0.423323
Cl161	Cl	0.630993	1.081151	-0.450058
H162	H	0.518701	0.137232	-0.009569
Cl163	Cl	0.332373	1.013081	-0.465399
Cl164	Cl	0.301864	0.797865	-0.083420
Cl165	Cl	0.770758	-0.012905	0.011930
H166	H	0.698054	0.999633	-0.301506
H167	H	0.698072	-0.109869	-0.067032
H168	H	0.438911	0.890184	-0.326173
H169	H	0.329542	0.999576	0.067099
Cl170	Cl	0.960196	0.385295	0.162320
H171	H	0.563926	0.999691	-0.435664
Cl172	Cl	0.770752	0.123327	0.011924
H173	H	0.725896	0.630983	-0.740839
H174	H	0.207717	1.054357	0.000047
Cl175	Cl	0.929492	0.249135	-0.083461
Cl176	Cl	0.547540	0.876834	-0.329189
H177	H	1.054332	0.207722	-0.000046
H178	H	0.698128	0.371887	0.326183
Cl179	Cl	1.096416	0.249062	0.083397
H180	H	0.195372	0.999636	-0.067018
H181	H	0.304848	0.890135	-0.067030
H182	H	0.746778	0.544824	-0.511604
Cl183	Cl	0.714426	0.013006	-0.083418
Cl184	Cl	0.714425	0.249078	-0.083418
H185	H	0.957200	0.371915	0.067060
Cl186	Cl	1.096436	0.249077	0.298518
Cl187	Cl	0.165639	0.797870	-0.083406
H188	H	0.563990	-0.109894	0.067087
H189	H	0.536223	0.630997	-0.631392
H190	H	0.563988	-0.000398	0.067084
H191	H	0.127638	0.528291	-0.009561
H192	H	0.438978	0.496903	0.067073
Cl193	Cl	0.135237	0.758829	0.011952
Cl194	Cl	0.332489	0.464168	0.083450
H195	H	0.024914	0.733764	0.009602
Cl196	Cl	-0.206671	0.797889	-0.083427
Cl197	Cl	-0.070439	0.797879	-0.083413
H198	H	0.725821	0.631057	-0.368577
Cl199	Cl	0.748943	0.631085	-0.245729
H200	H	0.515281	0.717225	-0.597853
Cl201	Cl	0.749017	0.631021	-0.617997
Cl202	Cl	0.513100	0.630968	-0.754242
Cl203	Cl	0.487007	0.738345	-0.485565
Cl204	Cl	0.513030	0.631033	-0.381975
Cl205	Cl	0.513006	0.631048	-0.245756
Cl206	Cl	0.775011	0.523802	-0.378224
