data_functionalizedCrystal
_audit_creation_method	'MofGen! by Chris Wilmer'
_symmetry_space_group_name_H-M	'P1'
_symmetry_Int_Tables_number	1
_symmetry_cell_setting	triclinic
loop_
_symmetry_equiv_pos_as_xyz
  x,y,z
_cell_length_a	8.497374
_cell_length_b	17.077404
_cell_length_c	17.077402
_cell_angle_alpha	89.976892
_cell_angle_beta	89.987778
_cell_angle_gamma	90.003463
loop_
_atom_site_label
_atom_site_type_symbol
_atom_site_fract_x
_atom_site_fract_y
_atom_site_fract_z
Zn1	Zn	0.891988	1.199930	0.312640
Zn2	Zn	1.391988	1.699930	0.812640
Zn3	Zn	0.628173	1.199874	0.443874
Zn4	Zn	1.128173	1.699874	0.943874
Zn5	Zn	0.628207	1.068699	0.312627
Zn6	Zn	1.128207	1.568699	0.812627
Zn7	Zn	0.891897	1.068630	0.443868
Zn8	Zn	1.391897	1.568630	0.943868
O9	O	0.760066	1.134283	0.378252
O10	O	1.260066	1.634283	0.878252
O11	O	0.857016	1.309770	0.330056
O12	O	1.357016	1.809770	0.830056
O13	O	0.407415	1.182479	0.426461
O14	O	0.907415	1.682479	0.926461
O15	O	0.663251	1.086159	0.202782
O16	O	1.163251	1.586159	0.702782
O17	O	0.663193	1.309729	0.426474
O18	O	1.163193	1.809729	0.926474
O19	O	0.857049	1.182574	0.202791
O20	O	1.357049	1.682574	0.702791
O21	O	0.407440	1.086105	0.330034
O22	O	0.907440	1.586105	0.830034
O23	O	0.663162	0.958843	0.330028
O24	O	1.163162	1.458843	0.830028
O25	O	1.112671	1.086042	0.426463
O26	O	1.612671	1.586042	0.926463
O27	O	0.856894	0.958792	0.426450
O28	O	1.356894	1.458792	0.926450
O29	O	1.112738	1.182508	0.330050
O30	O	1.612738	1.682508	0.830050
O31	O	0.663104	1.182412	0.553720
O32	O	1.163104	1.682412	1.053720
O33	O	0.856861	1.085988	0.553716
O34	O	1.356861	1.585988	1.053716
C35	C	0.760023	0.930336	0.378238
C36	C	1.260023	1.430336	0.878238
C37	C	0.760042	0.843086	0.378251
C38	C	1.260042	1.343086	0.878251
C39	C	0.860756	0.802090	0.428533
C40	C	1.360756	1.302090	0.928533
C41	C	0.860781	0.720109	0.428535
C42	C	1.360781	1.220109	0.928535
C43	C	0.760083	0.679126	0.378257
C44	C	1.260083	1.179126	0.878257
C45	C	0.659364	0.720128	0.327969
C46	C	1.159364	1.220128	0.827969
C47	C	0.659348	0.802107	0.327964
C48	C	1.159348	1.302107	0.827964
C49	C	0.659402	0.549258	0.327985
C50	C	1.159402	1.049258	0.827985
C51	C	0.659416	0.467273	0.327991
C52	C	1.159416	0.967273	0.827991
C53	C	0.860835	0.467260	0.428556
C54	C	1.360835	0.967260	0.928556
C55	C	0.860819	0.549239	0.428551
C56	C	1.360819	1.049239	0.928551
C57	C	0.760098	0.590235	0.378263
C58	C	1.260098	1.090235	0.878263
C59	C	0.760003	1.134208	0.582200
C60	C	1.260003	1.634208	1.082200
C61	C	0.760029	1.134247	0.669450
C62	C	1.260029	1.634247	1.169450
C63	C	1.171547	1.134278	0.378253
C64	C	1.671547	1.634278	0.878253
C65	C	1.350191	1.134279	0.378262
C66	C	1.850191	1.634279	0.878262
C67	C	0.760111	1.339028	0.378267
C68	C	1.260111	1.839028	0.878267
C69	C	0.760130	1.426277	0.378273
C70	C	1.260130	1.926277	0.878273
C71	C	0.760164	1.134381	0.173508
C72	C	1.260164	1.634381	0.673508
C73	C	0.760206	1.134422	0.086258
C74	C	1.260206	1.634422	0.586258
C75	C	0.659248	1.184506	0.710416
C76	C	1.159248	1.684506	1.210416
C77	C	0.659289	1.184545	0.792397
C78	C	1.159289	1.684545	1.292397
C79	C	0.760103	1.134319	0.833409
C80	C	1.260103	1.634319	1.333409
C81	C	0.860895	1.084058	0.792437
C82	C	1.360895	1.584058	1.292437
C83	C	0.860861	1.084024	0.710458
C84	C	1.360861	1.584024	1.210458
C85	C	0.860955	1.084130	0.963307
C86	C	1.360955	1.584130	1.463307
C87	C	0.860986	1.084163	1.045291
C88	C	1.360986	1.584163	1.545291
C89	C	0.659382	1.184651	1.045246
C90	C	1.159382	1.684651	1.545246
C91	C	0.659349	1.184618	0.963267
C92	C	1.159349	1.684618	1.463267
C93	C	0.760139	1.134355	0.922300
C94	C	1.260139	1.634355	1.422300
H95	H	0.942807	0.582606	0.469495
H96	H	1.442807	1.082606	0.969495
H97	H	0.942791	0.686734	0.469481
H98	H	1.442791	1.186734	0.969481
H99	H	0.577147	1.225403	0.677029
H100	H	1.077147	1.725403	1.177029
H101	H	0.577398	0.582634	0.287028
H102	H	1.077398	1.082634	0.787028
H103	H	0.577251	1.225511	0.929875
H104	H	1.077251	1.725511	1.429875
F105	F	0.552028	1.238040	0.835993
F106	F	1.052028	1.738040	1.335993
H107	H	0.577320	1.225580	1.078605
H108	H	1.077320	1.725580	1.578605
F109	F	0.968269	1.030700	1.088938
F110	F	1.468269	1.530700	1.588938
H111	H	0.942986	1.043166	0.825836
H112	H	1.442986	1.543166	1.325836
H113	H	0.943034	1.043203	0.929955
H114	H	1.443034	1.543203	1.429955
H115	H	0.942929	1.043098	0.677104
H116	H	1.442929	1.543098	1.177104
H117	H	0.942850	0.433878	0.469499
H118	H	1.442850	0.933878	0.969499
F119	F	0.967927	0.845700	0.482051
F120	F	1.467927	1.345700	0.982051
H121	H	0.577437	0.433907	0.287041
H122	H	1.077437	0.933907	0.787041
H123	H	0.577381	0.686753	0.287029
H124	H	1.077381	1.186753	0.787029
F125	F	0.552158	0.845737	0.274445
F126	F	1.052158	1.345737	0.774445
