data_functionalizedCrystal
_audit_creation_method	'MofGen! by Chris Wilmer'
_symmetry_space_group_name_H-M	'P1'
_symmetry_Int_Tables_number	1
_symmetry_cell_setting	triclinic
loop_
_symmetry_equiv_pos_as_xyz
  x,y,z
_cell_length_a	8.497374
_cell_length_b	12.827892
_cell_length_c	12.827893
_cell_angle_alpha	89.984638
_cell_angle_beta	89.998425
_cell_angle_gamma	90.007313
loop_
_atom_site_label
_atom_site_type_symbol
_atom_site_fract_x
_atom_site_fract_y
_atom_site_fract_z
Zn1	Zn	0.891962	-0.416215	-1.597487
Zn2	Zn	0.628170	-0.590924	-1.597435
Zn3	Zn	0.628190	-0.416197	-1.422782
Zn4	Zn	0.891902	-0.590915	-1.422714
O5	O	0.760056	-0.503563	-1.510105
O6	O	0.856986	-0.439402	-1.743716
O7	O	0.407411	-0.567742	-1.574274
O8	O	0.663214	-0.269964	-1.446008
O9	O	0.663179	-0.567760	-1.743678
O10	O	0.857006	-0.269977	-1.574363
O11	O	0.407425	-0.439372	-1.445958
O12	O	0.663156	-0.439363	-1.276537
O13	O	1.112673	-0.567744	-1.445891
O14	O	0.856904	-0.567727	-1.276487
O15	O	1.112717	-0.439393	-1.574296
O16	O	0.663121	-0.737159	-1.574207
O17	O	0.856884	-0.737152	-1.445840
C18	C	0.760028	-0.775073	-1.510039
C19	C	0.760069	-0.891226	-1.510107
C20	C	0.760026	-0.503543	-1.238595
C21	C	0.760051	-0.503559	-1.122442
C22	C	0.664296	-0.942979	-1.573702
C23	C	0.664336	-1.063030	-1.573774
C24	C	1.171537	-0.503564	-1.510097
C25	C	1.350181	-0.503575	-1.510099
C26	C	0.760087	-0.503584	-1.782675
C27	C	0.760101	-0.503593	-1.898828
C28	C	0.760119	-0.230993	-1.510199
C29	C	0.760145	-0.114839	-1.510239
C30	C	0.855776	-0.567177	-1.070659
C31	C	0.855803	-0.567195	-0.950609
H32	H	0.582276	-0.898413	-1.628101
C33	C	0.870927	-1.054723	-1.436678
N34	N	0.954369	-1.009435	-1.381274
C35	C	0.553556	-1.123153	-1.647329
N36	N	0.470113	-1.168441	-1.702733
H37	H	0.937752	-0.621664	-0.906078
C38	C	0.966465	-0.640744	-1.130832
N39	N	1.049835	-0.696159	-1.176152
H40	H	0.842100	-0.935794	-1.455718
H41	H	0.678137	-0.449128	-0.943352
C42	C	0.649360	-0.429993	-1.062269
N43	N	0.565983	-0.374583	-1.016949
