data_functionalizedCrystal
_audit_creation_method	'MofGen! by Chris Wilmer'
_symmetry_space_group_name_H-M	'P1'
_symmetry_Int_Tables_number	1
_symmetry_cell_setting	triclinic
loop_
_symmetry_equiv_pos_as_xyz
  x,y,z
_cell_length_a	9.016244
_cell_length_b	9.065218
_cell_length_c	9.065218
_cell_angle_alpha	85.015885
_cell_angle_beta	89.999657
_cell_angle_gamma	89.992557
loop_
_atom_site_label
_atom_site_type_symbol
_atom_site_fract_x
_atom_site_fract_y
_atom_site_fract_z
O1	O	0.123337	-1.960408	-0.216351
O2	O	0.123339	-1.531123	-0.234097
O3	O	0.123335	-1.754639	-0.010582
O4	O	0.123341	-1.736893	-0.439866
O5	O	-0.123346	-1.754606	-0.010586
O6	O	-0.123342	-1.531090	-0.234102
O7	O	-0.123343	-1.960375	-0.216356
Cu8	Cu	-0.145866	-1.745730	-0.225229
Cu9	Cu	0.145862	-1.745769	-0.225224
O10	O	-0.123339	-1.736860	-0.439871
C11	C	-0.000001	-1.476120	-0.232394
C12	C	-0.000000	-1.312277	-0.227294
N13	N	-0.351053	-1.745713	-0.225233
C14	C	-0.000003	-1.752917	0.044403
C15	C	0.000004	-1.747817	0.208245
C16	C	-0.586083	-1.625777	-0.344394
C17	C	-0.414192	-1.626045	-0.344844
C18	C	-0.413391	-1.900128	-0.260920
C19	C	-0.585336	-1.899474	-0.261764
C20	C	-0.585598	-1.712765	-0.069998
C21	C	-0.413644	-1.709230	-0.070988
N22	N	0.351048	-1.745797	-0.225209
C23	C	0.000000	-2.015378	-0.218059
C24	C	0.000009	-2.179221	-0.223158
C25	C	0.000002	-1.738582	-0.494855
C26	C	0.000004	-1.743681	-0.658698
H27	H	-0.372048	-1.511333	-0.323277
C28	C	-0.722376	-1.410360	-0.438777
C29	C	-0.641952	-1.470422	-0.315740
H30	H	-0.756860	-1.314443	-0.421087
H31	H	-0.804621	-1.472384	-0.455008
H32	H	-0.660175	-1.403498	-0.523676
H33	H	-0.704156	-1.477295	-0.230843
H34	H	-0.559695	-1.408383	-0.299492
H35	H	-0.629046	-1.602509	-0.036191
H36	H	-0.370670	-1.790802	0.022016
H37	H	-0.629275	-1.646802	-0.458880
C38	C	-0.520230	-2.098521	-0.081248
C39	C	-0.641485	-2.023781	-0.149163
H40	H	-0.554894	-2.175263	-0.011738
H41	H	-0.461890	-2.030943	-0.031641
H42	H	-0.461687	-2.140067	-0.154308
H43	H	-0.700023	-1.982226	-0.076103
H44	H	-0.699850	-2.091371	-0.198771
H45	H	-0.372902	-1.595631	-0.043953
H46	H	-0.373044	-1.647344	-0.459982
C47	C	-0.475162	-1.957811	-0.507051
C48	C	-0.355256	-1.939856	-0.412094
H49	H	-0.439271	-1.982340	-0.600378
H50	H	-0.530101	-1.868200	-0.519755
H51	H	-0.537418	-2.035089	-0.465426
H52	H	-0.293004	-1.862569	-0.453714
H53	H	-0.300292	-2.029477	-0.399394
C54	C	-0.518574	-1.904698	0.117429
C55	C	-0.640484	-1.830874	0.049776
H56	H	-0.552469	-1.977620	0.191357
H57	H	-0.457359	-1.835547	0.161664
H58	H	-0.463231	-1.951014	0.045145
H59	H	-0.695822	-1.784549	0.122058
H60	H	-0.701724	-1.900036	0.005542
H61	H	-0.625423	-1.928267	-0.375022
H62	H	-0.372488	-1.991649	-0.176509
