data_functionalizedCrystal
_audit_creation_method	'MofGen! by Chris Wilmer'
_symmetry_space_group_name_H-M	'P1'
_symmetry_Int_Tables_number	1
_symmetry_cell_setting	triclinic
loop_
_symmetry_equiv_pos_as_xyz
  x,y,z
_cell_length_a	14.971482
_cell_length_b	9.065215
_cell_length_c	13.448316
_cell_angle_alpha	89.994392
_cell_angle_beta	89.993798
_cell_angle_gamma	84.313653
loop_
_atom_site_label
_atom_site_type_symbol
_atom_site_fract_x
_atom_site_fract_y
_atom_site_fract_z
O1	O	1.188381	0.192236	-0.082677
O2	O	0.928152	0.215265	-0.082681
O3	O	1.063647	-0.011002	-0.082675
O4	O	1.052886	0.418502	-0.082684
O5	O	1.063629	-0.011016	0.082709
O6	O	0.928134	0.215251	0.082702
O7	O	1.188364	0.192222	0.082707
Cu8	Cu	1.058247	0.203735	0.097805
Cu9	Cu	1.058268	0.203752	-0.097780
O10	O	1.052869	0.418488	0.082700
C11	C	0.894811	0.214229	0.000010
C12	C	0.795491	0.211146	0.000008
C13	C	0.748826	0.209686	0.090160
C14	C	0.655505	0.206765	0.090161
C15	C	0.608851	0.205315	0.000009
C16	C	0.655523	0.206770	-0.090149
C17	C	0.748842	0.209680	-0.090150
C18	C	0.461016	0.200708	-0.090143
C19	C	0.367690	0.197801	-0.090143
C20	C	0.367679	0.197793	0.090168
C21	C	0.460998	0.200703	0.090168
C22	C	0.507663	0.202161	0.000008
C23	C	1.062604	-0.065974	0.000016
C24	C	1.059514	-0.229755	0.000013
C25	C	1.221705	0.193257	0.000013
C26	C	1.321025	0.196341	0.000009
C27	C	1.053911	0.473461	0.000007
C28	C	1.057001	0.637241	0.000004
N29	N	1.058240	0.203723	0.235370
N30	N	1.058283	0.203752	-0.235344
C31	C	1.118256	0.103573	0.287413
C32	C	1.118261	0.103572	0.391516
C33	C	1.058254	0.203728	0.443574
C34	C	0.998232	0.303883	0.391524
C35	C	0.998222	0.303876	0.287422
C36	C	0.998257	0.303893	0.608504
C37	C	0.998267	0.303902	0.712612
C38	C	1.118296	0.103589	0.712598
C39	C	1.118286	0.103582	0.608496
C40	C	1.058264	0.203738	0.556453
H41	H	0.498981	0.201893	0.163577
H42	H	1.167124	0.022020	0.245034
C43	C	0.800177	0.211289	-0.189314
H44	H	0.862437	0.213215	-0.176403
H45	H	0.778761	0.296779	-0.226362
H46	H	0.791015	0.124836	-0.226350
H47	H	1.167130	0.022022	0.433890
C48	C	0.316369	0.196239	-0.189307
H49	H	0.357525	0.197517	-0.243003
H50	H	0.273846	0.281085	-0.193042
H51	H	0.286084	0.109141	-0.193061
H52	H	0.499008	0.201896	-0.163560
H53	H	0.617530	0.205579	-0.163553
H54	H	0.329680	0.196606	0.163579
H55	H	1.167153	0.022034	0.566111
H56	H	0.949402	0.385458	0.754993
C57	C	1.184311	-0.006593	0.769841
H58	H	1.175716	0.007739	0.839295
H59	H	1.244133	0.009589	0.752768
H60	H	1.173796	-0.105087	0.752787
H61	H	0.949377	0.385446	0.566134
C62	C	0.932208	0.414046	0.230175
H63	H	0.896477	0.473707	0.276086
H64	H	0.894545	0.360872	0.189578
H65	H	0.964881	0.475550	0.189552
C66	C	0.800139	0.211254	0.189328
H67	H	0.758980	0.209945	0.243019
H68	H	0.830421	0.298346	0.193089
H69	H	0.842665	0.126403	0.193065
C70	C	0.604177	0.205171	0.189328
H71	H	0.645326	0.206472	0.243018
H72	H	0.573901	0.118070	0.193086
H73	H	0.561644	0.290013	0.193068
C74	C	0.932196	0.414012	0.448780
H75	H	0.896438	0.473634	0.402872
H76	H	0.964842	0.475536	0.489392
H77	H	0.894548	0.360788	0.489388
