data_functionalizedCrystal
_audit_creation_method	'MofGen! by Chris Wilmer'
_symmetry_space_group_name_H-M	'P1'
_symmetry_Int_Tables_number	1
_symmetry_cell_setting	triclinic
loop_
_symmetry_equiv_pos_as_xyz
  x,y,z
_cell_length_a	10.685194
_cell_length_b	10.685909
_cell_length_c	10.685314
_cell_angle_alpha	99.039366
_cell_angle_beta	90.367805
_cell_angle_gamma	89.655277
loop_
_atom_site_label
_atom_site_type_symbol
_atom_site_fract_x
_atom_site_fract_y
_atom_site_fract_z
Zn1	Zn	-0.682940	-1.836966	0.519932
Zn2	Zn	-0.876869	-1.839328	0.293882
Zn3	Zn	-0.653298	-1.643082	0.326123
Zn4	Zn	-0.876779	-1.610919	0.522378
O5	O	-0.772472	-1.732574	0.415579
O6	O	-0.721108	-2.014010	0.475429
O7	O	-0.834844	-1.827745	0.121423
O8	O	-0.482542	-1.681273	0.364301
O9	O	-0.863587	-2.015746	0.309351
O10	O	-0.504320	-1.823719	0.506692
O11	O	-0.670587	-1.683563	0.145110
O12	O	-0.670500	-1.462084	0.366674
O13	O	-0.863434	-1.626456	0.698790
O14	O	-0.834691	-1.438454	0.510862
O15	O	-0.721021	-1.792531	0.696992
O16	O	-1.051545	-1.796557	0.311723
O17	O	-1.051479	-1.628746	0.479599
C18	C	-0.749370	-1.404445	0.442533
C19	C	-0.739519	-1.264065	0.454091
C20	C	-1.096811	-1.709450	0.392453
C21	C	-1.235576	-1.699670	0.382592
C22	C	-0.446870	-1.755820	0.438820
C23	C	-0.308118	-1.765726	0.448724
C24	C	-0.795524	-1.705642	0.744998
C25	C	-0.805347	-1.694166	0.885377
C26	C	-0.795653	-1.061985	0.388513
C27	C	-0.805501	-1.202365	0.376958
C28	C	-0.749424	-1.759480	0.087441
C29	C	-0.739266	-1.771226	-0.052932
H30	H	-0.675496	-1.209488	0.528978
H31	H	-0.675163	-1.845969	0.892492
C32	C	-0.890806	-1.594614	0.958364
C33	C	-0.883937	-1.602674	1.087754
C34	C	-0.962657	-1.511004	1.155025
H35	H	-0.865164	-1.512731	0.945239
H36	H	-0.974521	-1.608863	0.929363
H37	H	-0.800240	-1.588415	1.116746
H38	H	-0.909590	-1.684536	1.100917
H39	H	-1.046372	-1.525253	1.126024
H40	H	-0.937008	-1.429127	1.141890
H41	H	-0.958016	-1.516467	1.242822
C42	C	-1.294233	-1.614052	0.297213
C43	C	-1.255837	-1.489027	0.337113
C44	C	-1.309868	-1.410117	0.258502
H45	H	-1.268346	-1.640857	0.212306
H46	H	-1.382827	-1.618511	0.301749
H47	H	-1.167263	-1.484573	0.332564
H48	H	-1.281724	-1.462184	0.422008
H49	H	-1.398461	-1.414577	0.263038
H50	H	-1.283977	-1.436934	0.173599
H51	H	-1.283833	-1.325278	0.285570
C52	C	-0.891089	-1.275025	0.277260
C53	C	-1.014342	-1.232032	0.298368
C54	C	-1.093224	-1.298957	0.206562
H55	H	-0.865425	-1.261745	0.195437
H56	H	-0.886671	-1.362876	0.282507
H57	H	-1.018755	-1.144203	0.293110
H58	H	-1.040045	-1.245314	0.380174
H59	H	-1.088806	-1.386807	0.211809
H60	H	-1.067549	-1.285672	0.124745
H61	H	-1.176861	-1.269804	0.220879
C62	C	-1.249147	-1.851106	0.534169
C63	C	-1.118621	-1.844204	0.527264
C64	C	-1.064255	-1.922849	0.605944
H65	H	-1.274936	-1.824221	0.619095
H66	H	-1.275008	-1.936035	0.507280
H67	H	-1.092770	-1.759293	0.554160
H68	H	-1.092797	-1.871100	0.442357
H69	H	-1.090116	-2.007778	0.579055
H70	H	-1.090053	-1.895956	0.690865
H71	H	-0.975688	-1.918185	0.601261
