data_functionalizedCrystal
_audit_creation_method	'MofGen! by Chris Wilmer'
_symmetry_space_group_name_H-M	'P1'
_symmetry_Int_Tables_number	1
_symmetry_cell_setting	triclinic
loop_
_symmetry_equiv_pos_as_xyz
  x,y,z
_cell_length_a	19.188930
_cell_length_b	17.666332
_cell_length_c	10.540539
_cell_angle_alpha	90.003026
_cell_angle_beta	83.835136
_cell_angle_gamma	90.023133
loop_
_atom_site_label
_atom_site_type_symbol
_atom_site_fract_x
_atom_site_fract_y
_atom_site_fract_z
O1	O	0.927206	0.063188	0.158469
O2	O	0.724037	0.063136	0.179802
O3	O	0.830257	0.063163	-0.015673
O4	O	0.820986	0.063162	0.353944
O5	O	0.830238	-0.062734	-0.015678
O6	O	0.724018	-0.062761	0.179797
O7	O	0.927187	-0.062708	0.158464
Cu8	Cu	0.825601	-0.074230	0.169130
Cu9	Cu	0.825623	0.074658	0.169136
O10	O	0.820967	-0.062735	0.353939
C11	C	0.698012	0.000181	0.179108
C12	C	0.620494	0.000161	0.177035
N13	N	0.825590	-0.178949	0.169124
C14	C	0.576334	0.000173	0.291733
C15	C	0.503497	0.000181	0.289785
C16	C	0.474823	0.000193	0.173132
C17	C	0.518992	0.000177	0.058418
C18	C	0.591827	0.000161	0.060370
N19	N	0.366255	0.043072	0.083967
N20	N	0.297064	0.043089	0.082121
C21	C	0.255375	0.000239	0.167245
N22	N	0.285490	-0.042618	0.254304
N23	N	0.354687	-0.042631	0.256154
C24	C	0.395846	0.000210	0.171003
C25	C	0.132237	0.000259	0.279839
C26	C	0.059400	0.000263	0.277885
C27	C	0.074896	0.000266	0.046516
C28	C	0.147732	0.000255	0.048472
C29	C	0.176398	0.000255	0.165137
C30	C	0.868311	-0.218541	0.245926
C31	C	0.868322	-0.297789	0.245922
C32	C	0.825600	-0.337441	0.169131
C33	C	0.782876	-0.297840	0.092314
C34	C	0.782871	-0.218594	0.092311
N35	N	0.764430	-0.461897	0.166004
N36	N	0.764437	-0.537177	0.166015
C37	C	0.825612	-0.576205	0.169136
N38	N	0.886782	-0.537109	0.172270
N39	N	0.886775	-0.461822	0.172266
C40	C	0.825600	-0.423371	0.169126
C41	C	0.868349	-0.701727	0.245938
C42	C	0.868362	-0.780976	0.245925
C43	C	0.782909	-0.781025	0.092324
C44	C	0.782903	-0.701778	0.092330
C45	C	0.825622	-0.662133	0.169143
C46	C	0.953212	0.000248	0.159157
C47	C	1.030731	0.000273	0.161231
C48	C	0.829552	0.000215	-0.062963
C49	C	0.827472	0.000219	-0.203866
N50	N	0.825639	0.179377	0.169132
C51	C	0.747771	0.000481	-0.385536
C52	C	0.749879	0.000198	-0.238965
C53	C	0.864802	-0.071665	-0.266349
C54	C	0.862154	-0.071726	-0.412835
C55	C	0.863754	0.071443	-0.413382
C56	C	0.864469	0.072393	-0.266416
C57	C	0.821672	0.000214	0.401229
C58	C	0.823752	0.000216	0.542132
H59	H	0.599669	0.000174	0.386731
C60	C	0.709909	-0.069554	-0.181671
H61	H	0.692324	-0.097831	-0.247990
H62	H	0.671998	-0.053536	-0.122379
H63	H	0.740756	-0.100339	-0.139316
H64	H	0.495641	0.000197	-0.036562
H65	H	0.834549	-0.125475	-0.440429
C66	C	0.937535	-0.076127	-0.479304
H67	H	0.969639	-0.077876	-0.416744
H68	H	0.946913	-0.032775	-0.531685
H69	H	0.942558	-0.120462	-0.530474
C70	C	0.941777	-0.075265	-0.237843
H71	H	0.951855	-0.032860	-0.187456
H72	H	0.971663	-0.074591	-0.315761
H73	H	0.949298	-0.120562	-0.192699
H74	H	0.720505	0.051726	-0.195712
H75	H	0.155578	0.000248	0.374834
C76	C	0.735914	-0.824633	0.007857
H77	H	0.742032	-0.877501	0.018862
H78	H	0.748452	-0.811643	-0.079052
H79	H	0.688260	-0.811670	0.031666
C80	C	0.735880	-0.341454	0.007851
H81	H	0.741995	-0.394321	0.018863
H82	H	0.748419	-0.328468	-0.079059
H83	H	0.688226	-0.328488	0.031659
H84	H	0.919799	0.071941	-0.461843
C85	C	0.010821	0.000276	0.404057
H86	H	-0.036664	0.000277	0.386189
H87	H	0.019597	0.044179	0.451903
H88	H	0.019551	-0.043632	0.451912
H89	H	0.467536	0.000189	0.383189
H90	H	0.748081	-0.186358	0.029768
H91	H	0.903099	-0.186268	0.308468
C92	C	0.043363	0.000284	-0.081801
H93	H	-0.006340	0.000300	-0.066538
H94	H	0.058459	-0.043619	-0.129022
H95	H	0.058508	0.044193	-0.129001
C96	C	0.827625	0.144236	-0.210297
H97	H	0.789856	0.130312	-0.148997
H98	H	0.810150	0.172460	-0.276752
H99	H	0.860143	0.174251	-0.170491
H100	H	0.717237	-0.050794	-0.415073
C101	C	0.940894	0.078279	-0.235390
H102	H	0.951287	0.036608	-0.183660
H103	H	0.947037	0.124166	-0.190936
H104	H	0.971511	0.077676	-0.312447
C105	C	0.196310	0.000254	-0.077698
H106	H	0.168803	0.000268	-0.147453
H107	H	0.225023	-0.043654	-0.081751
H108	H	0.225066	0.044158	-0.081738
C109	C	0.829746	-0.143950	-0.208055
H110	H	0.792366	-0.130477	-0.145654
H111	H	0.863278	-0.173031	-0.169222
H112	H	0.811949	-0.172931	-0.273335
H113	H	0.627783	0.000152	-0.033035
H114	H	0.717128	0.052029	-0.413459
H115	H	0.903134	-0.669446	0.308483
C116	C	0.915310	-0.341349	0.330419
H117	H	0.940747	-0.306388	0.376172
H118	H	0.947186	-0.372255	0.278274
H119	H	0.886978	-0.372270	0.388965
C120	C	0.915357	-0.824527	0.330412
H121	H	0.940791	-0.789564	0.376164
H122	H	0.947235	-0.855426	0.278259
H123	H	0.887031	-0.855453	0.388958
C124	C	0.829839	0.145046	-0.455244
H125	H	0.790961	0.133023	-0.500248
H126	H	0.863260	0.173127	-0.509209
H127	H	0.814353	0.174390	-0.382088
H128	H	0.748112	-0.669542	0.029795
