data_functionalizedCrystal
_audit_creation_method	'MofGen! by Chris Wilmer'
_symmetry_space_group_name_H-M	'P1'
_symmetry_Int_Tables_number	1
_symmetry_cell_setting	triclinic
loop_
_symmetry_equiv_pos_as_xyz
  x,y,z
_cell_length_a	31.640172
_cell_length_b	20.875641
_cell_length_c	20.875625
_cell_angle_alpha	59.251205
_cell_angle_beta	92.975398
_cell_angle_gamma	62.438275
loop_
_atom_site_label
_atom_site_type_symbol
_atom_site_fract_x
_atom_site_fract_y
_atom_site_fract_z
Zr1	Zr	0.420402	0.702031	-0.109850
O2	O	0.352477	0.835865	-0.217197
O3	O	0.439097	0.568208	-0.073538
O4	O	0.437588	0.702030	-0.212269
O5	O	0.357598	0.702041	0.027096
O6	O	0.507145	0.702016	-0.212255
O7	O	0.353987	0.702043	-0.078466
O8	O	0.509845	0.462634	0.035910
O9	O	0.354898	0.941423	-0.221069
O10	O	0.501551	0.623237	-0.062154
O11	O	0.452336	0.623245	0.016615
O12	O	0.450559	0.780803	-0.146723
O13	O	0.401344	0.780811	-0.067955
Zr14	Zr	0.537097	0.702006	0.058531
Zr15	Zr	0.531338	0.702010	-0.109827
Zr16	Zr	0.426162	0.702027	0.058508
Zr17	Zr	0.424263	0.870384	-0.116026
Zr18	Zr	0.533237	0.533653	0.064707
O19	O	0.518402	0.835829	0.022220
O20	O	0.510213	0.835835	-0.217164
O21	O	0.360666	0.835859	0.022187
O22	O	0.605023	0.568172	0.165878
O23	O	0.596834	0.568178	-0.073505
O24	O	0.447286	0.568202	0.165845
O25	O	0.599902	0.701996	-0.078414
O26	O	0.519912	0.702007	0.160951
O27	O	0.450355	0.702020	0.160936
O28	O	0.603513	0.701994	0.027147
O29	O	0.443077	0.941406	-0.221051
O30	O	0.514423	0.462631	0.169732
O31	O	0.602602	0.462614	0.169751
O32	O	0.598024	0.462617	0.035928
O33	O	0.359475	0.941420	-0.087247
O34	O	0.447655	0.941403	-0.087228
O35	O	0.506941	0.623234	0.095405
O36	O	0.556156	0.623226	0.016637
O37	O	0.505164	0.780791	-0.067933
O38	O	0.455949	0.780799	0.010835
C39	C	0.473921	0.491434	-0.017934
C40	C	0.472282	0.419964	-0.015312
C41	C	0.497201	0.386383	-0.055197
C42	C	0.495663	0.319224	-0.052726
C43	C	0.469203	0.285652	-0.010374
C44	C	0.444284	0.319236	0.029515
C45	C	0.445825	0.386389	0.027048
C46	C	0.461840	0.084810	0.001417
C47	C	0.460299	0.017654	0.003878
C48	C	0.511679	0.017645	-0.078362
C49	C	0.513216	0.084803	-0.080829
C50	C	0.488299	0.118378	-0.040936
N51	N	0.467628	0.217007	-0.007850
N52	N	0.489877	0.187017	-0.043456
C53	C	0.339986	0.702045	-0.025688
C54	C	0.292891	0.702054	-0.025698
C55	C	0.027503	0.619762	0.018501
C56	C	-0.149482	0.619746	0.018518
O57	O	-0.149730	0.549797	0.056090
N58	N	-0.198229	0.701994	-0.025628
C59	C	-0.202729	0.784250	-0.069776
O60	O	-0.248252	0.854206	-0.107318
C61	C	-0.025744	0.784265	-0.069787
C62	C	0.023002	0.702013	-0.025646
C63	C	0.076247	0.537516	0.062641
C64	C	0.120491	0.537521	0.062633
C65	C	0.115990	0.619772	0.018486
C66	C	0.067245	0.702017	-0.025654
C67	C	-0.030244	0.866521	-0.113931
C68	C	0.014007	0.866517	-0.113928
C69	C	0.062753	0.784265	-0.069786
C70	C	0.106988	0.784273	-0.069808
N71	N	0.155735	0.702026	-0.025663
C72	C	0.160236	0.619775	0.018484
C73	C	-0.295646	0.784237	-0.069769
C74	C	-0.339892	0.784233	-0.069767
C75	C	-0.286642	0.619729	0.018528
C76	C	-0.242396	0.619734	0.018522
C77	C	-0.246899	0.701990	-0.025623
C78	C	0.253147	0.619791	0.018463
C79	C	0.297392	0.619803	0.018449
C80	C	0.244138	0.784307	-0.069843
C81	C	0.199897	0.784296	-0.069832
C82	C	0.204405	0.702030	-0.025673
O83	O	0.107275	0.854185	-0.107354
O84	O	0.205764	0.549830	0.056034
C85	C	-0.016740	0.619757	0.018509
C86	C	-0.065484	0.702003	-0.025630
C87	C	-0.069985	0.784254	-0.069777
C88	C	-0.109730	0.702000	-0.025628
C89	C	-0.105229	0.619749	0.018519
C90	C	-0.056482	0.537502	0.062664
C91	C	-0.012239	0.537507	0.062656
C92	C	-0.118732	0.866501	-0.113922
C93	C	-0.162973	0.866489	-0.113911
C94	C	-0.158472	0.784239	-0.069764
C95	C	0.617514	0.701992	-0.025630
C96	C	0.664609	0.701983	-0.025620
C97	C	0.471546	0.702024	-0.236249
C98	C	0.469101	0.702025	-0.307722
C99	C	0.483579	0.912603	-0.033384
C100	C	0.485217	0.984073	-0.036006
C101	C	0.506272	0.702020	-0.341292
C102	C	0.503976	0.702013	-0.408443
C103	C	0.464506	0.702019	-0.442027
C104	C	0.427334	0.702022	-0.408451
C105	C	0.429632	0.702022	-0.341298
C106	C	0.453525	0.702014	-0.642867
C107	C	0.451228	0.702017	-0.710027
C108	C	0.527871	0.702007	-0.710013
C109	C	0.530164	0.702012	-0.642861
C110	C	0.492993	0.702010	-0.609288
N111	N	0.462158	0.702015	-0.510669
N112	N	0.495344	0.702007	-0.540645
C113	C	0.485954	0.702013	0.184931
C114	C	0.488399	0.702011	0.256403
C115	C	0.612685	0.491408	-0.017905
C116	C	0.658141	0.419928	-0.015273
C117	C	0.481125	0.491429	0.192656
C118	C	0.481931	0.419957	0.266750
C119	C	0.619889	0.491403	0.192685
C120	C	0.667790	0.419921	0.266789
C121	C	0.337611	0.912634	-0.244004
C122	C	0.289710	0.984115	-0.318108
C123	C	0.344815	0.912629	-0.033413
C124	C	0.299358	0.984108	-0.036045
C125	C	0.476374	0.912608	-0.243975
C126	C	0.475568	0.984080	-0.318069
C127	C	0.650985	0.386367	-0.055172
C128	C	0.693691	0.319214	-0.052716
C129	C	0.743554	0.285619	-0.010355
C130	C	0.750710	0.319187	0.029545
C131	C	0.708004	0.386343	0.027083
C132	C	0.510813	0.386387	0.342680
C133	C	0.511569	0.319241	0.412306
C134	C	0.483446	0.285661	0.406000
C135	C	0.454561	0.319238	0.330061
C136	C	0.453802	0.386388	0.260438
C137	C	0.715980	0.386349	0.260473
C138	C	0.760992	0.319194	0.330095
C139	C	0.757814	0.285609	0.406032
C140	C	0.709620	0.319188	0.412347
C141	C	0.664609	0.386346	0.342725
C142	C	0.241520	1.017696	-0.311792
C143	C	0.196508	1.084872	-0.381414
C144	C	0.199686	1.118461	-0.457352
C145	C	0.247881	1.084877	-0.463666
C146	C	0.292892	1.017708	-0.394045
C147	C	0.306515	1.017677	0.003847
C148	C	0.263808	1.084848	0.001371
C149	C	0.213946	1.118446	-0.040992
C150	C	0.206790	1.084875	-0.080889
C151	C	0.249496	1.017709	-0.078417
C152	C	0.503697	1.017638	-0.311737
C153	C	0.502950	1.084785	-0.381349
C154	C	0.474070	1.118377	-0.457293
C155	C	0.445940	1.084812	-0.463624
C156	C	0.446691	1.017662	-0.394012
H157	H	0.518745	0.413717	-0.089688
F158	F	0.532889	1.120498	-0.374595
H159	H	-0.202707	0.552756	0.054473
F160	F	0.145222	1.120599	-0.374677
H161	H	0.163031	1.173154	-0.514036
F162	F	0.540750	0.422110	0.349410
F163	F	0.719373	0.422085	0.179661
H164	H	0.010335	0.933502	-0.149867
F165	F	0.789001	0.214143	-0.007741
H166	H	0.395198	0.702021	-0.435796
H167	H	0.250462	1.112234	-0.525503
F168	F	0.542316	0.283515	0.493117
H169	H	0.707040	0.291832	0.474184
F170	F	0.415203	1.120578	-0.544456
F171	F	0.344177	0.981970	-0.400779
F172	F	0.613323	0.422065	0.349460
H173	H	0.347112	0.990327	0.038349
F174	F	0.435323	0.120531	0.043878
F175	F	0.572171	0.702007	-0.607120
F176	F	0.390071	0.702024	-0.305569
F177	F	0.148016	0.871837	-0.116827
H178	H	0.238923	0.990351	-0.249966
H179	H	0.484068	0.230984	0.462698
F180	F	0.686065	0.283498	-0.095182
F181	F	0.424632	0.283490	0.323362
H182	H	0.419085	0.702023	-0.737368
H183	H	0.473463	1.173055	-0.513970
F184	F	0.423063	0.422105	0.179629
H185	H	0.422742	0.291892	0.064003
F186	F	0.271435	1.120562	0.043839
H187	H	0.179176	1.173137	-0.042998
H188	H	-0.202664	0.933474	-0.149865
H189	H	0.079921	0.470535	0.098595
F190	F	0.812279	0.283466	0.323358
H191	H	0.337084	0.552821	0.054397
F192	F	0.153718	1.120639	-0.125970
F193	F	0.241872	0.981985	-0.120873
H194	H	0.791313	0.291824	0.064034
F195	F	0.534437	0.981899	-0.230918
F196	F	0.805724	0.214131	0.480124
H197	H	0.713838	0.413660	0.059578
H198	H	0.531966	-0.009698	-0.110840
H199	H	0.423783	0.990346	-0.399179
H200	H	0.515953	0.291882	-0.085202
H201	H	0.534761	0.112136	-0.115314
H202	H	0.425533	0.413732	0.059524
F203	F	0.432134	-0.018072	0.048954
H204	H	0.256826	0.552803	0.054423
H205	H	-0.379581	0.851212	-0.105722
H206	H	0.160179	0.470543	0.098574
F207	F	0.597921	0.422112	-0.100263
F208	F	-0.300448	0.871791	-0.116758
F209	F	-0.281859	0.532192	0.065512
H210	H	-0.069929	0.933500	-0.149875
H211	H	0.240482	0.851273	-0.105789
F212	F	-0.123532	0.954048	-0.160912
H213	H	0.027449	0.470528	0.098603
H214	H	0.538410	0.702021	-0.313955
F215	F	0.543537	0.702006	-0.444170
F216	F	0.567429	0.702006	-0.745746
F217	F	0.413964	0.702016	-0.607143
F218	F	-0.051700	0.449965	0.109646
