data_functionalizedCrystal
_audit_creation_method	'MofGen! by Chris Wilmer'
_symmetry_space_group_name_H-M	'P1'
_symmetry_Int_Tables_number	1
_symmetry_cell_setting	triclinic
loop_
_symmetry_equiv_pos_as_xyz
  x,y,z
_cell_length_a	21.295417
_cell_length_b	19.077241
_cell_length_c	19.076919
_cell_angle_alpha	90.113904
_cell_angle_beta	92.266620
_cell_angle_gamma	87.677787
loop_
_atom_site_label
_atom_site_type_symbol
_atom_site_fract_x
_atom_site_fract_y
_atom_site_fract_z
Zn1	Zn	-0.228522	-1.058264	-0.440543
Zn2	Zn	-0.329403	-1.062893	-0.323027
Zn3	Zn	-0.228191	-0.945480	-0.318321
Zn4	Zn	-0.337799	-0.940711	-0.435761
O5	O	-0.280979	-1.001837	-0.379413
O6	O	-0.238529	-1.157212	-0.428925
O7	O	-0.312324	-1.051251	-0.224072
O8	O	-0.140144	-0.960500	-0.334565
O9	O	-0.312646	-1.160613	-0.342586
O10	O	-0.140388	-1.043362	-0.424362
O11	O	-0.237964	-0.964988	-0.220615
O12	O	-0.246106	-0.846513	-0.329929
O13	O	-0.326956	-0.952372	-0.534726
O14	O	-0.326635	-0.843010	-0.416212
O15	O	-0.246671	-1.038738	-0.538239
O16	O	-0.418607	-1.046626	-0.337950
O17	O	-0.424776	-0.956860	-0.420775
C18	C	-0.287246	-0.819265	-0.372041
C19	C	-0.289942	-0.741159	-0.368904
C20	C	-0.252687	-0.702692	-0.412451
C21	C	-0.255218	-0.629303	-0.409497
C22	C	-0.295007	-0.594383	-0.363000
C23	C	-0.332264	-0.632855	-0.319448
C24	C	-0.329730	-0.706242	-0.322399
C25	C	-0.306715	-0.375088	-0.349345
C26	C	-0.309248	-0.301696	-0.346399
C27	C	-0.232201	-0.298149	-0.436447
C28	C	-0.229673	-0.371538	-0.439397
C29	C	-0.266927	-0.410004	-0.395843
N30	N	-0.297597	-0.519368	-0.359981
N31	N	-0.264334	-0.485017	-0.398858
C32	C	-0.444532	-1.001747	-0.379370
C33	C	-0.514500	-1.001771	-0.379378
C34	C	-0.544134	-1.048551	-0.336298
C35	C	-0.609876	-1.048583	-0.336316
C36	C	-0.645981	-1.001824	-0.379405
C37	C	-0.616340	-0.955041	-0.422493
C38	C	-0.550599	-0.955014	-0.422480
N39	N	-0.751561	-0.940136	-0.382279
N40	N	-0.814012	-0.940163	-0.382288
C41	C	-0.844055	-1.001901	-0.379448
N42	N	-0.809287	-1.063612	-0.376586
N43	N	-0.746830	-1.063584	-0.376574
C44	C	-0.717266	-1.001847	-0.379424
C45	C	-0.944973	-1.048719	-0.336385
C46	C	-1.010717	-1.048752	-0.336407
C47	C	-1.017180	-0.955204	-0.422580
C48	C	-0.951438	-0.955177	-0.422562
C49	C	-0.915338	-1.001933	-0.379460
C50	C	-0.116787	-1.001947	-0.379472
C51	C	-0.046818	-1.001993	-0.379497
C52	C	-0.287787	-0.994507	-0.562691
C53	C	-0.290688	-0.991383	-0.640794
C54	C	-0.274684	-0.185123	-0.386808
C55	C	-0.271993	-0.263229	-0.389946
C56	C	-0.250253	-1.034879	-0.679317
C57	C	-0.252977	-1.031935	-0.752702
C58	C	-0.296140	-0.985499	-0.787563
C59	C	-0.336577	-0.941998	-0.749035
C60	C	-0.333849	-0.944938	-0.675651
C61	C	-0.308776	-0.971879	-1.006841
C62	C	-0.311502	-0.968943	-1.080230
C63	C	-0.227901	-1.058880	-1.083892
C64	C	-0.225180	-1.061820	-1.010506
C65	C	-0.265615	-1.018316	-0.971985
N66	N	-0.298927	-0.982490	-0.862574
N67	N	-0.262825	-1.021322	-0.896974
C68	C	-0.274150	-1.009179	-0.196849
C69	C	-0.271067	-1.012439	-0.118753
H70	H	-0.220288	-0.731118	-0.450316
H71	H	-0.366770	-0.909512	-0.644286
O72	O	-0.219007	-0.592043	-0.451870
C73	C	-0.183336	-0.638601	-0.493532
H74	H	-0.207409	-0.690807	-0.498015
H75	H	-0.179487	-0.615194	-0.548057
H76	H	-0.134269	-0.647451	-0.468215
O77	O	-0.342812	-0.412485	-0.306972
C78	C	-0.303765	-0.456767	-0.263377
H79	H	-0.254786	-0.434842	-0.258247
H80	H	-0.324422	-0.459745	-0.209289
H81	H	-0.300512	-0.511522	-0.287343
O82	O	-0.190960	-0.405348	-0.484576
C83	C	-0.158629	-0.355658	-0.522390
H84	H	-0.157151	-0.304489	-0.491513
H85	H	-0.108590	-0.376580	-0.530835
H86	H	-0.184001	-0.345723	-0.575398
O87	O	-0.183323	-1.106977	-0.976601
C88	C	-0.216006	-1.154030	-0.935941
H89	H	-0.266254	-1.157493	-0.958216
H90	H	-0.191325	-1.208144	-0.937276
H91	H	-0.216868	-1.134504	-0.879455
O92	O	-0.909837	-1.094172	-0.294622
C93	C	-0.871693	-1.137919	-0.336488
H94	H	-0.864670	-1.110958	-0.388712
H95	H	-0.824082	-1.148485	-0.308242
H96	H	-0.895480	-1.189687	-0.346361
O97	O	-1.039405	-1.094320	-0.294599
C98	C	-1.021413	-1.163702	-0.312875
H99	H	-0.974633	-1.163987	-0.339954
H100	H	-1.016153	-1.197291	-0.263472
H101	H	-1.058903	-1.185931	-0.349975
O102	O	-0.196102	-0.260704	-0.478780
C103	C	-0.235152	-0.216446	-0.522397
H104	H	-0.282280	-0.206421	-0.497075
H105	H	-0.211657	-0.164474	-0.529792
H106	H	-0.243097	-0.242653	-0.575593
O107	O	-0.347915	-0.267884	-0.301167
C108	C	-0.380266	-0.317570	-0.263370
H109	H	-0.352583	-0.369989	-0.263087
H110	H	-0.385580	-0.298561	-0.207142
H111	H	-0.428794	-0.324338	-0.289315
O112	O	-1.052217	-0.909852	-0.464542
C113	C	-1.038172	-0.922334	-0.535200
H114	H	-1.018256	-0.978317	-0.541055
H115	H	-1.082893	-0.914882	-0.569676
H116	H	-1.002011	-0.883896	-0.552005
O117	O	-0.638707	-1.094080	-0.294558
C118	C	-0.676634	-1.137839	-0.336419
H119	H	-0.658703	-1.139946	-0.391933
H120	H	-0.674561	-1.192943	-0.313209
H121	H	-0.727305	-1.116015	-0.337965
O122	O	-0.521780	-0.909665	-0.464405
C123	C	-0.483999	-0.947804	-0.511413
H124	H	-0.502023	-1.002977	-0.518038
H125	H	-0.486132	-0.920183	-0.564441
H126	H	-0.433293	-0.951090	-0.489774
O127	O	-0.922619	-0.909826	-0.464483
C128	C	-0.884841	-0.947962	-0.511495
H129	H	-0.902865	-1.003136	-0.518121
H130	H	-0.886977	-0.920339	-0.564522
H131	H	-0.834133	-0.951248	-0.489859
O132	O	-0.208268	-1.080007	-0.645565
C133	C	-0.173174	-1.117777	-0.695307
H134	H	-0.173928	-1.086899	-0.746454
H135	H	-0.122531	-1.126155	-0.674427
H136	H	-0.194684	-1.170818	-0.705262
H137	H	-0.341710	-0.936466	-0.975485
H138	H	-0.220052	-1.067356	-0.784064
O139	O	-0.188684	-1.101233	-1.121285
C140	C	-0.199357	-1.171979	-1.106167
H141	H	-0.248776	-1.176304	-1.086121
H142	H	-0.194533	-1.204765	-1.155833
H143	H	-0.163395	-1.192074	-1.064325
O144	O	-0.353450	-0.923768	-1.113984
C145	C	-0.388565	-0.886013	-1.064249
H146	H	-0.360921	-0.885689	-1.011849
H147	H	-0.397966	-0.829796	-1.083216
H148	H	-0.435202	-0.912024	-1.057465
O149	O	-0.378569	-0.896987	-0.782933
C150	C	-0.419423	-0.935265	-0.826996
H151	H	-0.420591	-0.991492	-0.807117
H152	H	-0.468771	-0.909782	-0.826783
H153	H	-0.401944	-0.935472	-0.882718
O154	O	-0.370901	-0.598824	-0.274342
C155	C	-0.365140	-0.525802	-0.281063
H156	H	-0.346961	-0.513627	-0.334931
H157	H	-0.413069	-0.498086	-0.275077
H158	H	-0.330733	-0.506646	-0.238617
O159	O	-0.651342	-0.909522	-0.464311
C160	C	-0.637186	-0.840108	-0.446058
H161	H	-0.588512	-0.839734	-0.418978
H162	H	-0.637909	-0.806531	-0.495472
H163	H	-0.673690	-0.817927	-0.408966
O164	O	-0.365984	-0.743504	-0.280074
C165	C	-0.401637	-0.696948	-0.238390
H166	H	-0.406732	-0.643488	-0.265063
H167	H	-0.450210	-0.718434	-0.231644
H168	H	-0.376800	-0.691276	-0.184757
O169	O	-0.509162	-1.094042	-0.294419
C170	C	-0.549421	-1.135328	-0.256387
H171	H	-0.597257	-1.136600	-0.285276
H172	H	-0.528208	-1.190991	-0.251172
H173	H	-0.555353	-1.111778	-0.201962
