data_functionalizedCrystal
_audit_creation_method	'MofGen! by Chris Wilmer'
_symmetry_space_group_name_H-M	'P1'
_symmetry_Int_Tables_number	1
_symmetry_cell_setting	triclinic
loop_
_symmetry_equiv_pos_as_xyz
  x,y,z
_cell_length_a	6.817900
_cell_length_b	12.840933
_cell_length_c	11.102289
_cell_angle_alpha	81.896118
_cell_angle_beta	108.605707
_cell_angle_gamma	88.345099
loop_
_atom_site_label
_atom_site_type_symbol
_atom_site_fract_x
_atom_site_fract_y
_atom_site_fract_z
V1	V	-3.924899	0.325214	-0.178833
O2	O	-3.887484	0.319023	0.005513
O3	O	-3.902952	0.322989	-0.351633
O4	O	-3.820284	0.467051	-0.177434
O5	O	-3.970725	0.173964	-0.169892
V6	V	-4.412383	0.307123	-0.156623
O7	O	-4.177468	0.364897	-0.227551
O8	O	-4.610012	0.267440	-0.107905
O9	O	-4.211123	0.309347	0.016176
O10	O	-4.567195	0.313314	-0.340969
O11	O	-4.483954	0.458372	-0.165564
O12	O	-4.293792	0.165286	-0.158022
C13	C	-3.756208	0.317859	-0.393715
C14	C	-3.819176	0.316986	-0.534990
C15	C	-4.029780	0.321778	-0.607882
C16	C	-4.088933	0.320967	-0.740626
C17	C	-3.726858	0.310565	-0.727573
C18	C	-3.667708	0.311384	-0.594833
C19	C	-4.238822	0.327779	-0.615419
C20	C	-4.297975	0.326968	-0.748163
C21	C	-3.650766	0.501622	-0.171501
C22	C	-3.646613	0.619754	-0.171499
C23	C	-4.126651	0.130709	-0.163952
C24	C	-4.109655	0.012577	-0.163951
V25	V	-3.907849	0.811378	-0.178841
O26	O	-3.943056	0.962584	-0.169898
O27	O	-3.813381	0.664194	-0.177443
O28	O	-3.884363	0.852782	-0.351639
O29	O	-3.871582	0.772691	0.005503
V30	V	-4.393388	0.848823	-0.156639
O31	O	-4.162356	0.795851	-0.227564
O32	O	-4.588285	0.887036	-0.107924
O33	O	-4.265043	0.984759	-0.158034
O34	O	-4.475371	0.703533	-0.165584
O35	O	-4.546845	0.893426	-0.340986
O36	O	-4.194060	0.796172	0.016162
C37	C	-4.021212	0.314475	0.058252
C38	C	-3.937480	0.315355	0.199526
C39	C	-3.737167	0.860316	-0.393712
C40	C	-3.798800	0.897308	-0.534985
C41	C	-4.005188	0.771669	0.058247
C42	C	-3.922831	0.733640	0.199522
C43	C	-4.008779	0.920133	-0.607857
C44	C	-4.066716	0.954906	-0.740595
C45	C	-3.914672	0.966846	-0.800461
C46	C	-3.704674	0.944020	-0.727579
C47	C	-3.646739	0.909255	-0.594841
C48	C	-3.711064	0.703359	0.259361
C49	C	-3.633649	0.667639	0.392106
C50	C	-3.768006	0.662195	0.465008
C51	C	-3.979791	0.692484	0.405161
C52	C	-4.057200	0.728209	0.272419
H53	H	-4.385438	0.404242	-0.806741
O54	O	-4.420074	0.232583	-0.780372
H55	H	-4.339181	0.181687	-0.825606
O56	O	-4.172785	0.907279	-0.543297
H57	H	-4.328518	0.929013	-0.616283
H58	H	-3.704948	0.633101	0.573093
O59	O	-4.294808	0.230365	-0.544009
H60	H	-4.244650	0.235038	-0.439605
O61	O	-4.293215	0.979504	-0.819194
H62	H	-4.389195	0.965337	-0.755262
H63	H	-3.496220	0.307493	-0.535490
H64	H	-4.307155	0.403637	-0.596897
H65	H	-3.961874	0.995154	-0.908545
O66	O	-3.566112	0.709238	0.180757
H67	H	-3.616449	0.657871	0.105746
H68	H	-3.580894	0.953747	-0.776342
O69	O	-3.420255	0.884629	-0.516247
H70	H	-3.353495	0.820912	-0.552848
H71	H	-3.461200	0.642980	0.440814
O72	O	-4.124701	0.686599	0.483793
H73	H	-4.035278	0.656655	0.586143
O74	O	-3.563491	0.304524	-0.792115
H75	H	-3.640000	0.304758	-0.896664
H76	H	-4.229642	0.752859	0.223708
