data_functionalizedCrystal
_audit_creation_method	'MofGen! by Chris Wilmer'
_symmetry_space_group_name_H-M	'P1'
_symmetry_Int_Tables_number	1
_symmetry_cell_setting	triclinic
loop_
_symmetry_equiv_pos_as_xyz
  x,y,z
_cell_length_a	18.366186
_cell_length_b	19.288864
_cell_length_c	19.288865
_cell_angle_alpha	96.863755
_cell_angle_beta	89.988521
_cell_angle_gamma	90.022894
loop_
_atom_site_label
_atom_site_type_symbol
_atom_site_fract_x
_atom_site_fract_y
_atom_site_fract_z
O1	O	-0.060791	-0.921353	0.086649
O2	O	-0.060743	-0.719092	0.098337
O3	O	-0.060754	-0.826067	-0.008637
O4	O	-0.060780	-0.814378	0.193623
O5	O	0.060345	-0.826049	-0.008643
O6	O	0.060357	-0.719074	0.098332
O7	O	0.060308	-0.921335	0.086643
Zn8	Zn	0.079559	-0.820201	0.092487
Zn9	Zn	-0.079994	-0.820225	0.092494
O10	O	0.060319	-0.814360	0.193618
C11	C	-0.000187	-0.693207	0.097959
C12	C	-0.000167	-0.616103	0.096830
C13	C	-0.000202	-0.825682	-0.034516
C14	C	-0.000195	-0.824553	-0.111620
N15	N	0.188451	-0.820190	0.092482
N16	N	-0.188885	-0.820242	0.092493
C17	C	0.226546	-0.867574	0.045137
C18	C	0.302774	-0.867578	0.045134
C19	C	0.340903	-0.820206	0.092488
C20	C	0.302799	-0.772813	0.139836
C21	C	0.226572	-0.772805	0.139834
C22	C	0.461657	-0.810907	0.155775
C23	C	0.537882	-0.810920	0.155779
C24	C	0.576011	-0.820225	0.092496
C25	C	0.537905	-0.829533	0.029207
C26	C	0.461679	-0.829525	0.029204
C27	C	0.423558	-0.820208	0.092496
C28	C	0.696761	-0.867617	0.045144
C29	C	0.772990	-0.867616	0.045140
C30	C	0.773014	-0.772854	0.139849
C31	C	0.696786	-0.772851	0.139847
C32	C	0.658664	-0.820236	0.092495
C33	C	-0.000250	-0.947220	0.087022
C34	C	-0.000274	-1.024324	0.088151
C35	C	-0.000187	-0.571407	0.159598
C36	C	-0.000195	-0.498960	0.158537
C37	C	-0.000198	-0.471212	0.094705
C38	C	-0.000174	-0.515918	0.031929
C39	C	-0.000159	-0.588364	0.032991
C40	C	-0.042642	-0.362956	0.044527
C41	C	-0.042662	-0.290512	0.043468
C42	C	-0.000241	-0.247767	0.091425
C43	C	0.042189	-0.277473	0.140454
C44	C	0.042205	-0.349918	0.141517
C45	C	-0.000214	-0.392658	0.093546
C46	C	-0.000269	-0.124514	0.153047
C47	C	-0.000272	-0.052066	0.151984
C48	C	-0.000259	-0.069026	0.025374
C49	C	-0.000248	-0.141473	0.026439
C50	C	-0.000256	-0.169212	0.090278
C51	C	-0.000207	-0.887321	-0.156316
C52	C	-0.000218	-0.886260	-0.228763
C53	C	-0.000203	-0.822428	-0.256511
C54	C	-0.000196	-0.759652	-0.211805
C55	C	-0.000192	-0.760714	-0.139359
C56	C	0.042227	-0.772242	-0.364800
C57	C	0.042228	-0.771182	-0.437245
C58	C	-0.000219	-0.819148	-0.479956
C59	C	-0.042657	-0.868186	-0.450216
C60	C	-0.042653	-0.869248	-0.377771
C61	C	-0.000208	-0.821269	-0.335065
C62	C	-0.000244	-0.880770	-0.603209
C63	C	-0.000259	-0.879707	-0.675657
C64	C	-0.000230	-0.753097	-0.658697
C65	C	-0.000221	-0.754162	-0.586250
C66	C	-0.000225	-0.818001	-0.558511
C67	C	-0.000234	-0.814745	0.219497
C68	C	-0.000246	-0.815874	0.296601
H69	H	0.195509	-0.906156	0.006579
C70	C	-0.089349	-0.920956	-0.497187
H71	H	-0.114615	-0.950314	-0.469100
H72	H	-0.123463	-0.896537	-0.522225
H73	H	-0.058763	-0.948582	-0.529211
C74	C	-0.000257	-0.950986	-0.572688
H75	H	-0.000243	-0.942630	-0.523141
H76	H	-0.042494	-0.976829	-0.588033
H77	H	0.041971	-0.976815	-0.588057
H78	H	-0.000195	-0.593987	0.211580
H79	H	-0.000209	-0.462561	0.209652
H80	H	0.333797	-0.906165	0.006578
C81	C	-0.000146	-0.637532	-0.036057
H82	H	-0.000153	-0.610633	-0.074226
H83	H	0.042087	-0.666126	-0.038277
H84	H	-0.042379	-0.666164	-0.038268
H85	H	-0.000273	-0.930822	-0.712049
H86	H	0.568901	-0.803346	0.207313
H87	H	0.076756	-0.374102	0.181436
H88	H	-0.000212	-0.939303	-0.133736
C89	C	0.088907	-0.717244	-0.469952
H90	H	0.114177	-0.688821	-0.434140
H91	H	0.123018	-0.740834	-0.501436
H92	H	0.058318	-0.688790	-0.494450
H93	H	0.333848	-0.734240	0.178392
H94	H	0.076733	-0.242671	0.179506
H95	H	0.804058	-0.734279	0.178402
C96	C	-0.000182	-0.485399	-0.038285
H97	H	-0.000202	-0.435851	-0.029928
H98	H	0.042053	-0.500729	-0.064125
H99	H	-0.042412	-0.500781	-0.064116
H100	H	-0.000185	-0.707679	-0.234401
H101	H	-0.000231	-0.937375	-0.265162
C102	C	-0.089338	-0.923178	-0.345058
H103	H	-0.114624	-0.951592	-0.380866
H104	H	-0.058759	-0.951633	-0.320557
H105	H	-0.123447	-0.899574	-0.313575
C106	C	-0.000216	-0.682883	-0.689210
H107	H	-0.000217	-0.691238	-0.738758
H108	H	-0.042439	-0.657053	-0.673842
H109	H	0.042027	-0.657041	-0.673865
C110	C	-0.000270	-0.155031	0.223265
H111	H	-0.000273	-0.118032	0.260497
H112	H	-0.042496	-0.182961	0.226314
H113	H	0.041969	-0.182917	0.226308
C114	C	0.184666	-0.720686	0.191920
H115	H	0.218289	-0.692474	0.220126
H116	H	0.154947	-0.691852	0.167008
H117	H	0.154914	-0.745583	0.220773
C118	C	-0.000294	-0.002900	0.221032
H119	H	-0.000303	-0.029799	0.259201
H120	H	0.041931	0.025737	0.223253
H121	H	-0.042535	0.025690	0.223246
H122	H	0.076796	-0.733180	-0.330029
C123	C	0.654821	-0.919726	-0.006947
H124	H	0.603966	-0.912941	-0.000163
H125	H	0.667328	-0.912329	-0.053284
H126	H	0.667287	-0.966061	0.000479
H127	H	-0.000182	-0.709599	-0.102967
C128	C	-0.000266	-0.038513	-0.044840
H129	H	-0.000283	0.011035	-0.036485
H130	H	0.041966	-0.053845	-0.070682
H131	H	-0.042499	-0.053893	-0.070669
H132	H	-0.077215	-0.266331	0.003548
H133	H	-0.000208	-0.703049	-0.549857
H134	H	-0.000236	-0.177866	-0.024674
H135	H	0.568948	-0.837110	-0.022324
C136	C	0.654879	-0.720736	0.191934
H137	H	0.688503	-0.692526	0.220141
H138	H	0.625163	-0.691900	0.167023
H139	H	0.625125	-0.745632	0.220786
C140	C	0.814896	-0.919742	-0.006941
H141	H	0.781271	-0.947964	-0.035136
H142	H	0.844652	-0.894858	-0.035796
H143	H	0.844609	-0.948576	0.017982
C144	C	0.419722	-0.800676	0.225391
H145	H	0.453331	-0.795146	0.263083
H146	H	0.390005	-0.760227	0.226904
H147	H	0.389967	-0.840355	0.229138
H148	H	0.430657	-0.837102	-0.022328
H149	H	-0.077191	-0.397755	0.005473
