data_functionalizedCrystal
_audit_creation_method	'MofGen! by Chris Wilmer'
_symmetry_space_group_name_H-M	'P1'
_symmetry_Int_Tables_number	1
_symmetry_cell_setting	triclinic
loop_
_symmetry_equiv_pos_as_xyz
  x,y,z
_cell_length_a	14.395555
_cell_length_b	20.875650
_cell_length_c	20.875625
_cell_angle_alpha	59.261080
_cell_angle_beta	92.973129
_cell_angle_gamma	62.448905
loop_
_atom_site_label
_atom_site_type_symbol
_atom_site_fract_x
_atom_site_fract_y
_atom_site_fract_z
Zr1	Zr	0.924276	0.701870	-0.109679
O2	O	0.775047	0.835655	-0.216975
O3	O	0.965306	0.568090	-0.073413
O4	O	0.962047	0.701871	-0.212101
O5	O	0.786243	0.701872	0.027274
O6	O	1.114921	0.701866	-0.212095
O7	O	0.778306	0.701874	-0.078287
O8	O	1.120751	0.462556	0.035993
O9	O	0.780413	0.941182	-0.220814
O10	O	1.102592	0.623110	-0.062018
O11	O	0.994426	0.623112	0.016756
O12	O	0.990589	0.780622	-0.146532
O13	O	0.882424	0.780624	-0.067757
Zr14	Zr	1.180751	0.701859	0.058687
Zr15	Zr	1.168093	0.701863	-0.109670
Zr16	Zr	0.936934	0.701867	0.058678
Zr17	Zr	0.932834	0.870173	-0.115802
Zr18	Zr	1.172193	0.533556	0.064810
O19	O	1.139721	0.835639	0.022420
O20	O	1.121723	0.835644	-0.216962
O21	O	0.793045	0.835650	0.022407
O22	O	1.329980	0.568074	0.165983
O23	O	1.311982	0.568079	-0.073400
O24	O	0.983304	0.568085	0.165970
O25	O	1.318784	0.701857	-0.078266
O26	O	1.142980	0.701858	0.161109
O27	O	0.990106	0.701863	0.161103
O28	O	1.326721	0.701855	0.027295
O29	O	0.974215	0.941176	-0.220807
O30	O	1.130812	0.462554	0.169815
O31	O	1.324614	0.462548	0.169822
O32	O	1.314553	0.462550	0.036000
O33	O	0.790474	0.941179	-0.086993
O34	O	0.984276	0.941173	-0.086985
O35	O	1.114438	0.623107	0.095539
O36	O	1.222603	0.623105	0.016765
O37	O	1.110601	0.780617	-0.067748
O38	O	1.002435	0.780619	0.011026
C39	C	1.041809	0.491344	-0.017837
C40	C	1.038176	0.419895	-0.015238
C41	C	1.012066	0.017426	0.004120
C42	C	1.015419	0.084605	0.001628
C43	C	1.073551	0.118194	-0.040743
C44	C	1.128343	0.084596	-0.080618
C45	C	1.124996	0.017414	-0.078121
C46	C	1.089621	0.319115	-0.052616
C47	C	1.092961	0.386303	-0.055112
C48	C	0.980039	0.386306	0.027135
C49	C	0.976691	0.319127	0.029625
C50	C	1.031488	0.285531	-0.010247
N51	N	1.076977	0.186863	-0.043293
N52	N	1.028068	0.216858	-0.007691
C53	C	0.747536	0.701874	-0.025508
C54	C	0.644029	0.701877	-0.025512
C55	C	0.522372	0.787760	-0.071585
C56	C	0.487014	0.744828	-0.101149
C57	C	0.494964	0.744806	0.004047
C58	C	0.610031	0.658945	-0.055119
C59	C	0.617982	0.658935	0.050118
C60	C	0.582695	0.615941	0.020574
C61	C	1.357491	0.701855	-0.025485
C62	C	1.460998	0.701852	-0.025481
C63	C	1.036680	0.701869	-0.236085
C64	C	1.031307	0.701870	-0.307558
C65	C	1.063218	0.912386	-0.033155
C66	C	1.066851	0.983835	-0.035754
C67	C	1.113001	0.701869	-0.341132
C68	C	1.107955	0.701863	-0.408283
C69	C	1.021209	0.701864	-0.441862
C70	C	0.939510	0.701862	-0.408282
C71	C	0.944562	0.701862	-0.341128
C72	C	0.997073	0.701857	-0.642700
C73	C	0.992026	0.701860	-0.709860
C74	C	1.160473	0.701859	-0.709856
C75	C	1.165513	0.701865	-0.642704
C76	C	1.083818	0.701858	-0.609127
N77	N	1.016047	0.701860	-0.510503
N78	N	1.088985	0.701856	-0.540484
C79	C	1.068347	0.701860	0.185093
C80	C	1.073720	0.701859	0.256565
C81	C	1.346787	0.491334	-0.017826
C82	C	1.446660	0.419882	-0.015223
C83	C	1.057642	0.491339	0.192752
C84	C	1.059383	0.419889	0.266823
C85	C	1.362620	0.491330	0.192763
C86	C	1.467867	0.419876	0.266839
C87	C	0.742407	0.912399	-0.243756
C88	C	0.637160	0.983853	-0.317831
C89	C	0.758240	0.912395	-0.033166
C90	C	0.658367	0.983847	-0.035770
C91	C	1.047385	0.912390	-0.243744
C92	C	1.045644	0.983840	-0.317815
C93	C	1.430917	0.386330	-0.055131
C94	C	1.524749	0.319202	-0.052701
C95	C	1.634323	0.285624	-0.010358
C96	C	1.650065	0.319182	0.029552
C97	C	1.556234	0.386313	0.027117
C98	C	1.122845	0.386333	0.342739
C99	C	1.124477	0.319207	0.412343
C100	C	1.062653	0.285634	0.406030
C101	C	0.999182	0.319197	0.330106
C102	C	0.997545	0.386326	0.260503
C103	C	1.573764	0.386320	0.260506
C104	C	1.672664	0.319191	0.330101
C105	C	1.665665	0.285615	0.406028
C106	C	1.559757	0.319178	0.412359
C107	C	1.460859	0.386310	0.342765
C108	C	0.531264	1.017418	-0.311498
C109	C	0.432365	1.084567	-0.381094
C110	C	0.439364	1.118147	-0.457021
C111	C	0.545272	1.084579	-0.463352
C112	C	0.644168	1.017435	-0.393758
C113	C	0.674110	1.017406	0.004132
C114	C	0.580278	1.084552	0.001683
C115	C	0.470703	1.118134	-0.040663
C116	C	0.454962	1.084572	-0.080570
C117	C	0.548793	1.017432	-0.078125
C118	C	1.107482	1.017392	-0.311476
C119	C	1.105868	1.084518	-0.381067
C120	C	1.042411	1.118096	-0.456997
C121	C	0.980572	1.084538	-0.463335
C122	C	0.982192	1.017409	-0.393744
H123	H	1.140301	0.413649	-0.089619
H124	H	1.511909	0.291887	-0.085201
H125	H	1.569069	0.413623	0.059620
N126	N	0.489954	0.883949	-0.123270
H127	H	0.560616	0.883277	-0.122507
H128	H	0.446077	0.916682	-0.101511
H129	H	0.763323	0.990069	0.038620
H130	H	1.174478	0.701861	-0.435619
N131	N	0.758376	0.981231	-0.400604
H132	H	0.799900	0.913842	-0.372132
H133	H	0.803870	0.992962	-0.375016
H134	H	1.341703	0.413669	-0.089622
N135	N	1.189536	0.422532	0.349560
H136	H	1.229978	0.391083	0.408219
H137	H	1.136319	0.489927	0.321031
N138	N	0.531792	0.981242	-0.121164
H139	H	0.489027	0.953401	-0.098576
H140	H	0.607891	0.933648	-0.113185
N141	N	0.523684	0.981220	-0.229616
H142	H	0.564214	0.992896	-0.200343
H143	H	0.560153	0.913841	-0.197528
H144	H	0.659562	0.622675	-0.080178
N145	N	0.597270	1.120741	0.044728
H146	H	0.680925	1.089269	0.071929
H147	H	0.562025	1.109064	0.086492
H148	H	1.746202	0.230952	0.462689
N149	N	1.735522	0.213219	-0.007736
H150	H	1.708911	0.197063	-0.039445
H151	H	1.783650	0.157553	0.050004
H152	H	1.739293	0.291832	0.064027
H153	H	0.868882	0.701857	-0.435623
H154	H	1.554075	0.291831	0.474188
N155	N	1.184089	-0.018824	-0.121124
H156	H	1.221423	0.012649	-0.148346
H157	H	1.126920	-0.007190	-0.162867
H158	H	0.430633	0.781126	-0.165095
H159	H	1.176166	0.291888	0.474156
H160	H	0.945870	0.413639	0.198692
N161	N	1.581335	0.422533	0.178620
H162	H	1.502621	0.470156	0.135485
H163	H	1.621275	0.371263	0.174265
H164	H	1.236149	0.701864	-0.615366
H165	H	1.041101	1.172758	-0.513656
H166	H	0.607387	0.543260	0.059543
N167	N	0.692683	0.610907	0.134792
H168	H	0.650074	0.643419	0.157063
H169	H	0.762863	0.610786	0.134115
N170	N	1.148712	0.282889	-0.095624
H171	H	1.186038	0.314368	-0.122848
H172	H	1.091538	0.294526	-0.137367
N173	N	0.429169	0.792903	0.037148
H174	H	0.478269	0.761127	0.093925
H175	H	0.359624	0.792023	0.037352
N176	N	0.332691	1.190565	-0.532081
H177	H	0.264548	1.206726	-0.516540
H178	H	0.329119	1.167154	-0.563523
H179	H	1.063996	0.230973	0.462711
N180	N	0.932510	0.282978	0.323303
H181	H	0.943192	0.235356	0.378919
H182	H	0.960146	0.255164	0.294629
N183	N	0.915471	0.981241	-0.400591
H184	H	0.926115	0.933620	-0.344989
H185	H	0.943089	0.953441	-0.429278
H186	H	1.758889	0.291871	0.324931
N187	N	1.346644	0.422496	0.349601
H188	H	1.357228	0.391032	0.408263
H189	H	1.301149	0.410805	0.323962
N190	N	0.336774	1.120782	-0.126225
H191	H	0.294073	1.188175	-0.170056
H192	H	0.296135	1.109028	-0.088008
N193	N	0.552812	1.120801	-0.545247
H194	H	0.474087	1.168425	-0.588367
H195	H	0.592729	1.069533	-0.549608
N196	N	0.318146	1.120762	-0.374255
H197	H	0.328728	1.089290	-0.315593
H198	H	0.272638	1.109088	-0.399907
H199	H	1.226987	0.701863	-0.737200
N200	N	0.369505	1.190549	-0.043297
H201	H	0.396115	1.206706	-0.011589
H202	H	0.323305	1.167137	-0.019059
N203	N	1.175928	0.981185	-0.229586
H204	H	1.214855	1.012630	-0.236142
H205	H	1.234598	0.913790	-0.197479
N206	N	1.172572	1.120702	-0.374221
H207	H	1.213006	1.089246	-0.315559
H208	H	1.119366	1.188096	-0.402748
H209	H	0.935428	0.413666	0.059598
N210	N	0.912126	1.120760	-0.545232
H211	H	0.963924	1.109079	-0.574498
H212	H	0.853408	1.188142	-0.577308
N213	N	0.949363	-0.018797	0.049818
H214	H	0.915169	0.012677	0.074701
H215	H	1.003760	-0.086183	0.093633
H216	H	0.929356	0.291782	0.064129
N217	N	0.956331	0.120825	0.044642
H218	H	0.872824	0.148646	0.022066
H219	H	0.967359	0.168442	0.036629
N220	N	1.191038	0.120824	-0.126323
H221	H	1.184840	0.168486	-0.121860
H222	H	1.156855	0.148589	-0.184830
H223	H	0.921381	0.701861	-0.737198
N224	N	1.206560	0.701867	-0.304908
H225	H	1.202750	0.757777	-0.346591
H226	H	1.282212	0.645912	-0.286583
N227	N	0.908968	0.701843	-0.606486
H228	H	0.853250	0.701845	-0.637951
H229	H	0.867629	0.757755	-0.608620
H230	H	0.878039	0.701861	-0.313792
