data_functionalizedCrystal
_audit_creation_method	'MofGen! by Chris Wilmer'
_symmetry_space_group_name_H-M	'P1'
_symmetry_Int_Tables_number	1
_symmetry_cell_setting	triclinic
loop_
_symmetry_equiv_pos_as_xyz
  x,y,z
_cell_length_a	23.532407
_cell_length_b	11.792241
_cell_length_c	10.868271
_cell_angle_alpha	90.005281
_cell_angle_beta	89.998979
_cell_angle_gamma	83.521047
loop_
_atom_site_label
_atom_site_type_symbol
_atom_site_fract_x
_atom_site_fract_y
_atom_site_fract_z
O1	O	-0.756076	-0.137772	-0.102169
O2	O	-0.256076	0.362228	0.397831
O3	O	-0.590331	-0.157706	-0.102205
O4	O	-0.090331	0.342294	0.397795
O5	O	-0.677225	0.017526	-0.102178
O6	O	-0.177225	0.517526	0.397822
O7	O	-0.669181	-0.313004	-0.102197
O8	O	-0.169181	0.186996	0.397803
O9	O	-0.677218	0.017533	0.102467
O10	O	-0.177218	0.517533	0.602467
O11	O	-0.590323	-0.157699	0.102439
O12	O	-0.090323	0.342301	0.602439
O13	O	-0.756069	-0.137765	0.102475
O14	O	-0.256069	0.362235	0.602475
Zn15	Zn	-0.673195	-0.147731	0.134949
Zn16	Zn	-0.173195	0.352269	0.634949
Zn17	Zn	-0.673204	-0.147740	-0.134679
Zn18	Zn	-0.173204	0.352260	0.365321
O19	O	-0.669174	-0.312997	0.102448
O20	O	-0.169174	0.187003	0.602448
C21	C	-0.676716	0.059809	0.000144
C22	C	-0.176716	0.559809	0.500144
C23	C	-0.675204	0.185787	0.000142
C24	C	-0.175204	0.685787	0.500142
C25	C	-0.569108	-0.157195	0.000112
C26	C	-0.069108	0.342805	0.500112
C27	C	-0.505882	-0.155669	0.000099
C28	C	-0.005882	0.344331	0.500099
C29	C	-0.777291	-0.138276	0.000155
C30	C	-0.277291	0.361724	0.500155
C31	C	-0.840517	-0.139802	0.000160
C32	C	-0.340517	0.360198	0.500160
C33	C	-0.107337	-0.249795	0.000149
C34	C	0.392663	0.250205	0.500149
C35	C	-0.047928	-0.248377	0.000157
C36	C	0.452072	0.251623	0.500157
O37	O	-0.011701	-0.335633	0.000196
O38	O	0.488299	0.164367	0.500196
N39	N	-0.024684	-0.144202	0.000161
N40	N	0.475316	0.355798	0.500161
C41	C	-0.060853	-0.041437	0.000169
C42	C	0.439147	0.458563	0.500169
O43	O	-0.035627	0.047303	0.000175
O44	O	0.464373	0.547303	0.500175
C45	C	-0.120260	-0.042856	0.000171
C46	C	0.379740	0.457144	0.500171
C47	C	-0.143501	-0.147038	0.000154
C48	C	0.356499	0.352962	0.500154
C49	C	-0.130577	-0.353969	0.000134
C50	C	0.369423	0.146031	0.500134
C51	C	-0.189982	-0.355386	0.000124
C52	C	0.310018	0.144614	0.500124
C53	C	-0.226146	-0.252630	0.000129
C54	C	0.273854	0.247370	0.500129
C55	C	-0.202905	-0.148456	0.000144
C56	C	0.297095	0.351544	0.500144
C57	C	-0.156428	0.059907	0.000188
C58	C	0.343572	0.559907	0.500188
C59	C	-0.215839	0.058479	0.000190
C60	C	0.284161	0.558479	0.500190
C61	C	-0.239079	-0.045703	0.000174
C62	C	0.260921	0.454297	0.500174
C63	C	-0.298474	-0.047116	0.000140
C64	C	0.201526	0.452884	0.500140
N65	N	-0.321717	-0.151292	0.000136
N66	N	0.178283	0.348708	0.500136
C67	C	-0.285553	-0.254049	0.000130
C68	C	0.214447	0.245951	0.500130
C69	C	0.063907	-0.038465	0.000169
C70	C	0.563907	0.461535	0.500169
C71	C	0.123313	-0.037045	0.000159
C72	C	0.623313	0.462955	0.500159
C73	C	0.136234	-0.243985	0.000149
C74	C	0.636234	0.256015	0.500149
C75	C	0.076827	-0.245404	0.000150
C76	C	0.576827	0.254596	0.500150
C77	C	0.040664	-0.142641	0.000165
C78	C	0.540664	0.357359	0.500165
C79	C	-0.410308	-0.257017	0.000109
C80	C	0.089692	0.242983	0.500109
C81	C	-0.469718	-0.258425	0.000094
C82	C	0.030282	0.241575	0.500094
C83	C	-0.482634	-0.051485	0.000111
C84	C	0.017366	0.448515	0.500111
C85	C	-0.423229	-0.050077	0.000119
C86	C	0.076771	0.449923	0.500119
C87	C	-0.387066	-0.152852	0.000122
C88	C	0.112934	0.347148	0.500122
O89	O	-0.334736	0.040094	0.000105
O90	O	0.165264	0.540094	0.500105
O91	O	-0.310787	-0.342774	0.000141
O92	O	0.189213	0.157226	0.500141
C93	C	-0.669683	-0.355280	0.000123
C94	C	-0.169683	0.144720	0.500123
C95	C	-0.671195	-0.481258	0.000117
C96	C	-0.171195	0.018742	0.500117
N97	N	-0.673193	-0.147724	0.318963
N98	N	-0.173193	0.352276	0.818963
C99	C	-0.672423	0.416434	0.000121
C100	C	-0.172423	0.916434	0.500121
C101	C	-0.673968	0.288085	0.000133
C102	C	-0.173968	0.788085	0.500133
N103	N	-0.673211	-0.147737	-0.318693
N104	N	-0.173211	0.352263	0.181307
C105	C	-0.673201	-0.147737	0.569969
C106	C	-0.173201	0.352263	1.069969
C107	C	-0.673195	-0.147733	0.430292
C108	C	-0.173195	0.352267	0.930292
H109	H	-0.488636	-0.343267	0.000079
H110	H	0.011364	0.156733	0.500079
H111	H	0.057909	-0.330239	0.000143
H112	H	0.557909	0.169761	0.500143
H113	H	-0.380871	-0.340707	0.000115
H114	H	0.119129	0.159293	0.500115
H115	H	0.034466	0.045223	0.000171
H116	H	0.534466	0.545223	0.500171
H117	H	-0.208898	-0.440222	0.000110
H118	H	0.291102	0.059778	0.500110
H119	H	0.165690	-0.327655	0.000150
H120	H	0.665690	0.172345	0.500150
H121	H	-0.245281	0.142164	0.000204
H122	H	0.254719	0.642164	0.500204
H123	H	-0.512089	0.032176	0.000110
H124	H	-0.012089	0.532176	0.500110
H125	H	0.142230	0.047791	0.000153
H126	H	0.642230	0.547791	0.500153
H127	H	-0.101138	-0.437650	0.000134
H128	H	0.398862	0.062350	0.500134
H129	H	-0.137517	0.144743	0.000203
H130	H	0.362483	0.644743	0.500203
H131	H	-0.404306	0.034757	0.000114
H132	H	0.095694	0.534757	0.500114
