data_functionalizedCrystal
_audit_creation_method	'MofGen! by Chris Wilmer'
_symmetry_space_group_name_H-M	'P1'
_symmetry_Int_Tables_number	1
_symmetry_cell_setting	triclinic
loop_
_symmetry_equiv_pos_as_xyz
  x,y,z
_cell_length_a	19.805405
_cell_length_b	19.805407
_cell_length_c	11.169409
_cell_angle_alpha	90.031361
_cell_angle_beta	89.960201
_cell_angle_gamma	89.974974
loop_
_atom_site_label
_atom_site_type_symbol
_atom_site_fract_x
_atom_site_fract_y
_atom_site_fract_z
Zn1	Zn	-0.269434	-1.034771	-0.678826
Zn2	Zn	0.230566	-0.534771	-0.178826
Zn3	Zn	-0.382643	-1.034675	-0.478116
Zn4	Zn	0.117357	-0.534675	0.021884
Zn5	Zn	-0.269470	-0.921575	-0.478122
Zn6	Zn	0.230530	-0.421575	0.021878
Zn7	Zn	-0.382583	-0.921549	-0.678723
Zn8	Zn	0.117417	-0.421549	-0.178723
O9	O	-0.326033	-0.978143	-0.578447
O10	O	0.173967	-0.478143	-0.078447
O11	O	-0.284461	-1.129475	-0.652242
O12	O	0.215539	-0.629475	-0.152242
O13	O	-0.367670	-1.019643	-0.310167
O14	O	0.132330	-0.519643	0.189833
O15	O	-0.174749	-0.936642	-0.504791
O16	O	0.325251	-0.436642	-0.004791
O17	O	-0.367635	-1.129405	-0.504781
O18	O	0.132365	-0.629405	-0.004781
O19	O	-0.174722	-1.019806	-0.652247
O20	O	0.325278	-0.519806	-0.152247
O21	O	-0.284523	-0.936549	-0.310172
O22	O	0.215477	-0.436549	0.189828
O23	O	-0.284465	-0.826855	-0.504692
O24	O	0.215535	-0.326855	-0.004692
O25	O	-0.367534	-0.936597	-0.846687
O26	O	0.132466	-0.436597	-0.346687
O27	O	-0.367569	-0.826836	-0.652073
O28	O	0.132431	-0.326836	-0.152073
O29	O	-0.284403	-1.019781	-0.846762
O30	O	0.215597	-0.519781	-0.346762
O31	O	-0.477351	-1.019618	-0.504682
O32	O	0.022649	-0.519618	-0.004682
O33	O	-0.477308	-0.936505	-0.652067
O34	O	0.022692	-0.436505	-0.152067
C35	C	-0.326015	-0.802287	-0.578373
C36	C	0.173985	-0.302287	-0.078373
C37	C	-0.326024	-0.727055	-0.578369
C38	C	0.173976	-0.227055	-0.078369
C39	C	-0.369378	-0.265271	-0.655103
C40	C	0.130622	0.234729	-0.155103
C41	C	-0.369378	-0.335960	-0.655082
C42	C	0.130622	0.164040	-0.155082
C43	C	-0.326042	-0.371293	-0.578459
C44	C	0.173958	0.128707	-0.078459
C45	C	-0.282709	-0.335934	-0.501843
C46	C	0.217291	0.164066	-0.001843
C47	C	-0.282713	-0.265247	-0.501859
C48	C	0.217287	0.234753	-0.001859
C49	C	-0.282691	-0.621007	-0.501775
C50	C	0.217309	-0.121007	-0.001775
C51	C	-0.282689	-0.691699	-0.501768
C52	C	0.217311	-0.191699	-0.001768
C53	C	-0.369356	-0.691720	-0.654998
C54	C	0.130644	-0.191720	-0.154998
C55	C	-0.369360	-0.621033	-0.655014
C56	C	0.130640	-0.121033	-0.155014
C57	C	-0.326030	-0.585680	-0.578395
C58	C	0.173970	-0.085680	-0.078395
C59	C	-0.326032	-0.509032	-0.578417
C60	C	0.173968	-0.009032	-0.078417
C61	C	-0.326036	-0.447940	-0.578441
C62	C	0.173964	0.052060	-0.078441
C63	C	-0.501889	-0.978067	-0.578389
C64	C	-0.001889	-0.478067	-0.078389
C65	C	-0.577121	-0.978096	-0.578404
C66	C	-0.077121	-0.478096	-0.078404
C67	C	-0.612465	-1.021415	-0.501741
C68	C	-0.112465	-0.521415	-0.001741
C69	C	-0.683153	-1.021444	-0.501768
C70	C	-0.183153	-0.521444	-0.001768
C71	C	-0.718496	-0.978149	-0.578452
C72	C	-0.218496	-0.478149	-0.078452
C73	C	-0.683147	-0.934828	-0.655124
C74	C	-0.183147	-0.434828	-0.155124
C75	C	-0.612460	-0.934804	-0.655102
C76	C	-0.112460	-0.434804	-0.155102
C77	C	-0.968220	-0.934928	-0.655213
C78	C	-0.468220	-0.434928	-0.155213
C79	C	-1.038912	-0.934955	-0.655225
C80	C	-0.538912	-0.434955	-0.155225
C81	C	-1.038914	-1.021568	-0.501878
C82	C	-0.538914	-0.521568	-0.001878
C83	C	-0.968227	-1.021544	-0.501857
C84	C	-0.468227	-0.521544	-0.001857
C85	C	-0.932883	-0.978225	-0.578532
C86	C	-0.432883	-0.478225	-0.078532
C87	C	-0.856235	-0.978196	-0.578504
C88	C	-0.356235	-0.478196	-0.078504
C89	C	-0.795143	-0.978175	-0.578475
C90	C	-0.295143	-0.478175	-0.078475
C91	C	-0.149490	-0.978238	-0.578531
C92	C	0.350510	-0.478238	-0.078531
C93	C	-0.074258	-0.978278	-0.578568
C94	C	0.425742	-0.478278	-0.078568
C95	C	-0.325958	-0.978197	-0.891490
C96	C	0.174042	-0.478197	-0.391490
C97	C	-0.325926	-0.978220	-1.024890
C98	C	0.174074	-0.478220	-0.524890
C99	C	-0.326048	-0.154685	-0.578507
C100	C	0.173952	0.345315	-0.078507
C101	C	-0.326047	-0.229917	-0.578496
C102	C	0.173953	0.270083	-0.078496
C103	C	-0.326058	-0.978128	-0.266622
C104	C	0.173942	-0.478128	0.233378
C105	C	-0.325900	-0.978236	-0.133223
C106	C	0.174100	-0.478236	0.366777
H107	H	-0.404646	-0.592268	-0.717413
H108	H	0.095354	-0.092268	-0.217413
H109	H	-0.711928	-1.056718	-0.439340
H110	H	-0.211928	-0.556718	0.060660
H111	H	-0.404663	-0.236508	-0.717505
H112	H	0.095337	0.263492	-0.217505
H113	H	-1.067699	-1.056843	-0.439450
H114	H	-0.567699	-0.556843	0.060550
Cl115	Cl	-0.228232	-0.380353	-0.405512
Cl116	Cl	0.271768	0.119647	0.094488
Cl117	Cl	-0.228211	-0.576573	-0.405467
Cl118	Cl	0.271789	-0.076573	0.094533
Cl119	Cl	-0.923800	-1.075973	-0.405450
Cl120	Cl	-0.423800	-0.575973	0.094550
H121	H	-1.067686	-0.899700	-0.717680
H122	H	-0.567686	-0.399700	-0.217680
H123	H	-0.404639	-0.720513	-0.717382
H124	H	0.095361	-0.220513	-0.217382
Cl125	Cl	-0.923798	-0.880470	-0.751603
Cl126	Cl	-0.423798	-0.380470	-0.251603
Cl127	Cl	-0.727578	-0.880405	-0.751535
Cl128	Cl	-0.227578	-0.380405	-0.251535
H129	H	-0.583683	-0.899530	-0.717531
H130	H	-0.083683	-0.399530	-0.217531
H131	H	-0.404664	-0.364742	-0.717460
H132	H	0.095336	0.135258	-0.217460
H133	H	-0.583694	-1.056667	-0.439291
H134	H	-0.083694	-0.556667	0.060709
Cl135	Cl	-0.228206	-0.736117	-0.405432
Cl136	Cl	0.271794	-0.236117	0.094568
H137	H	-0.247427	-0.236462	-0.439481
H138	H	0.252573	0.263538	0.060519
