data_functionalizedCrystal
_audit_creation_method	'MofGen! by Chris Wilmer'
_symmetry_space_group_name_H-M	'P1'
_symmetry_Int_Tables_number	1
_symmetry_cell_setting	triclinic
loop_
_symmetry_equiv_pos_as_xyz
  x,y,z
_cell_length_a	11.792241
_cell_length_b	10.268362
_cell_length_c	11.792240
_cell_angle_alpha	89.984887
_cell_angle_beta	84.193417
_cell_angle_gamma	90.003482
loop_
_atom_site_label
_atom_site_type_symbol
_atom_site_fract_x
_atom_site_fract_y
_atom_site_fract_z
O1	O	-1.506902	0.108203	-0.155570
O2	O	-1.173569	0.441536	0.177763
O3	O	-0.840236	0.774870	0.511097
O4	O	-1.176561	0.108236	-0.171603
O5	O	-0.843228	0.441570	0.161730
O6	O	-0.509895	0.774903	0.495064
O7	O	-1.349748	0.108179	0.001584
O8	O	-1.016415	0.441513	0.334917
O9	O	-0.683082	0.774846	0.668251
O10	O	-1.333715	0.108260	-0.328757
O11	O	-1.000382	0.441593	0.004576
O12	O	-0.667049	0.774927	0.337910
O13	O	-1.349746	-0.108421	0.001594
O14	O	-1.016413	0.224912	0.334927
O15	O	-0.683079	0.558245	0.668261
O16	O	-1.176559	-0.108364	-0.171593
O17	O	-0.843226	0.224969	0.161740
O18	O	-0.509892	0.558302	0.495074
O19	O	-1.506900	-0.108398	-0.155560
O20	O	-1.173567	0.224936	0.177773
O21	O	-0.840233	0.558269	0.511107
Cu22	Cu	-1.341729	-0.128158	-0.163576
Cu23	Cu	-1.008396	0.205175	0.169758
Cu24	Cu	-0.675063	0.538508	0.503091
Cu25	Cu	-1.341732	0.127997	-0.163588
Cu26	Cu	-1.008399	0.461330	0.169746
Cu27	Cu	-0.675065	0.794664	0.503079
O28	O	-1.333713	-0.108341	-0.328747
O29	O	-1.000380	0.224993	0.004586
O30	O	-0.667046	0.558326	0.337920
C31	C	-1.134269	-0.000060	-0.170591
C32	C	-0.800936	0.333273	0.162742
C33	C	-0.467603	0.666606	0.496076
C34	C	-1.008255	-0.000050	-0.167576
C35	C	-0.674922	0.333284	0.165757
C36	C	-0.341589	0.666617	0.499090
C37	C	-1.348740	-0.000128	0.043880
C38	C	-1.015407	0.333205	0.377213
C39	C	-0.682073	0.666538	0.710547
C40	C	-1.345726	-0.000150	0.169894
C41	C	-1.012392	0.333183	0.503227
C42	C	-0.679059	0.666517	0.836560
C43	C	-1.549192	-0.000098	-0.156572
C44	C	-1.215859	0.333235	0.176761
C45	C	-0.882525	0.666569	0.510094
C46	C	-1.675206	-0.000100	-0.159587
C47	C	-1.341873	0.333233	0.173747
C48	C	-1.008539	0.666566	0.507080
C49	C	-0.777543	-0.000088	-0.162034
C50	C	-0.444210	0.333245	0.171300
C51	C	-0.110877	0.666578	0.504633
C52	C	-0.905928	-0.000067	-0.165113
C53	C	-0.572595	0.333266	0.168220
C54	C	-0.239262	0.666600	0.501553
N55	N	-1.341734	0.308163	-0.163588
N56	N	-1.008401	0.641496	0.169746
N57	N	-0.675068	0.974830	0.503079
N58	N	-1.341736	-0.308324	-0.163566
N59	N	-1.008403	0.025009	0.169767
N60	N	-0.675069	0.358342	0.503100
C61	C	-1.341731	0.573833	-0.163581
C62	C	-1.008398	0.907167	0.169752
C63	C	-0.675065	1.240500	0.503086
C64	C	-1.341730	0.425996	-0.163588
C65	C	-1.008396	0.759329	0.169745
C66	C	-0.675063	1.092662	0.503078
C67	C	-1.340183	-0.000170	0.400606
C68	C	-1.006849	0.333163	0.733939
C69	C	-0.673516	0.666496	1.067273
C70	C	-1.343262	-0.000159	0.272221
C71	C	-1.009929	0.333175	0.605554
C72	C	-0.676596	0.666508	0.938887
C73	C	-1.334721	-0.000076	0.628957
C74	C	-1.001388	0.333257	0.962290
C75	C	-0.668055	0.666590	1.295624
C76	C	-1.337736	-0.000184	0.502943
C77	C	-1.004402	0.333149	0.836277
C78	C	-0.671069	0.666482	1.169610
