data_functionalizedCrystal
_audit_creation_method	'MofGen! by Chris Wilmer'
_symmetry_space_group_name_H-M	'P1'
_symmetry_Int_Tables_number	1
_symmetry_cell_setting	triclinic
loop_
_symmetry_equiv_pos_as_xyz
  x,y,z
_cell_length_a	29.839134
_cell_length_b	29.839131
_cell_length_c	12.759387
_cell_angle_alpha	89.955090
_cell_angle_beta	89.977161
_cell_angle_gamma	90.015800
loop_
_atom_site_label
_atom_site_type_symbol
_atom_site_fract_x
_atom_site_fract_y
_atom_site_fract_z
Zn1	Zn	0.686786	-0.179063	-0.593967
Zn2	Zn	0.686712	-0.254200	-0.418244
Zn3	Zn	0.611655	-0.179060	-0.418297
Zn4	Zn	0.611625	-0.254141	-0.593876
O5	O	0.649195	-0.216616	-0.506096
O6	O	0.749643	-0.189056	-0.570673
O7	O	0.676738	-0.244256	-0.271230
O8	O	0.621665	-0.116193	-0.441660
O9	O	0.749589	-0.244259	-0.441570
O10	O	0.676863	-0.116195	-0.570724
O11	O	0.621593	-0.189051	-0.271268
O12	O	0.548784	-0.188993	-0.441572
O13	O	0.621613	-0.244158	-0.740909
O14	O	0.548762	-0.244155	-0.570569
O15	O	0.676834	-0.188998	-0.740976
O16	O	0.676708	-0.317059	-0.441482
O17	O	0.621542	-0.317016	-0.570518
C18	C	0.532472	-0.216568	-0.506067
C19	C	0.482538	-0.216558	-0.506079
C20	C	0.125974	-0.187931	-0.573452
C21	C	0.313648	-0.187895	-0.573428
O22	O	0.337933	-0.163499	-0.630706
N23	N	0.337092	-0.216587	-0.506104
C24	C	0.313616	-0.245292	-0.438786
O25	O	0.337864	-0.269699	-0.381530
C26	C	0.125944	-0.245331	-0.438817
C27	C	0.102501	-0.216633	-0.506137
C28	C	0.102532	-0.159237	-0.640768
C29	C	0.055616	-0.159244	-0.640769
C30	C	0.032144	-0.187946	-0.573455
C31	C	0.055586	-0.216641	-0.506139
C32	C	0.102469	-0.274038	-0.371505
C33	C	0.055547	-0.274046	-0.371520
C34	C	0.032105	-0.245348	-0.438841
C35	C	-0.014802	-0.245351	-0.438825
N36	N	-0.038247	-0.216659	-0.506149
C37	C	-0.014774	-0.187956	-0.573464
C38	C	0.412147	-0.245270	-0.438774
C39	C	0.459065	-0.245260	-0.438765
C40	C	0.459093	-0.187863	-0.573408
C41	C	0.412174	-0.187871	-0.573411
C42	C	0.388702	-0.216578	-0.506097
C43	C	-0.113300	-0.187974	-0.573461
C44	C	-0.160220	-0.187983	-0.573453
C45	C	-0.160244	-0.245381	-0.438814
C46	C	-0.113328	-0.245371	-0.438818
C47	C	-0.089858	-0.216666	-0.506150
O48	O	-0.039116	-0.269738	-0.381586
O49	O	-0.039030	-0.163560	-0.630728
C50	C	0.172890	-0.187924	-0.573451
C51	C	0.196332	-0.216618	-0.506135
C52	C	0.172859	-0.245320	-0.438820
C53	C	0.243250	-0.216608	-0.506126
C54	C	0.266723	-0.187906	-0.573440
C55	C	0.243278	-0.159214	-0.640764
C56	C	0.196363	-0.159222	-0.640765
C57	C	0.196304	-0.274012	-0.371496
C58	C	0.243220	-0.274002	-0.371499
C59	C	0.266693	-0.245300	-0.438814
C60	C	0.649126	-0.333338	-0.506007
C61	C	0.649138	-0.383273	-0.506005
C62	C	0.677930	-0.692882	-0.573395
C63	C	0.677979	-0.880555	-0.573459
O64	O	0.702392	-0.904792	-0.630691
N65	N	0.649271	-0.904058	-0.506213
C66	C	0.620546	-0.880639	-0.438951
O67	O	0.596126	-0.904936	-0.381763
C68	C	0.620496	-0.692967	-0.438894
C69	C	0.649209	-0.669467	-0.506137
C70	C	0.706641	-0.669382	-0.640634
C71	C	0.706630	-0.622467	-0.640613
C72	C	0.677909	-0.599051	-0.573354
C73	C	0.649198	-0.622551	-0.506116
C74	C	0.591769	-0.669549	-0.371638
C75	C	0.591758	-0.622628	-0.371632
C76	C	0.620472	-0.599128	-0.438875
C77	C	0.620466	-0.552221	-0.438837
N78	N	0.649174	-0.528718	-0.506083
C79	C	0.677895	-0.552134	-0.573342
C80	C	0.620576	-0.979170	-0.438984
C81	C	0.620589	-1.026087	-0.438997
C82	C	0.678021	-1.026001	-0.573506
C83	C	0.678010	-0.979082	-0.573487
C84	C	0.649284	-0.955667	-0.506230
C85	C	0.677871	-0.453608	-0.573293
C86	C	0.677859	-0.406688	-0.573263
C87	C	0.620426	-0.406779	-0.438758
C88	C	0.620439	-0.453695	-0.438784
C89	C	0.649163	-0.477108	-0.506059
O90	O	0.596062	-0.527955	-0.381643
O91	O	0.702305	-0.527829	-0.630537
C92	C	0.677941	-0.739798	-0.573416
C93	C	0.649230	-0.763298	-0.506178
C94	C	0.620509	-0.739882	-0.438919
C95	C	0.649244	-0.810216	-0.506190
C96	C	0.677965	-0.833631	-0.573449
C97	C	0.706673	-0.810129	-0.640695
C98	C	0.706662	-0.763213	-0.640675
C99	C	0.591801	-0.763385	-0.371673
C100	C	0.591815	-0.810300	-0.371698
C101	C	0.620536	-0.833716	-0.438957
C102	C	0.766373	-0.216664	-0.506126
C103	C	0.816307	-0.216685	-0.506138
C104	C	0.649228	-0.216572	-0.780130
C105	C	0.649243	-0.216553	-0.896906
C106	C	0.649276	-0.099437	-0.506208
C107	C	0.649310	-0.049503	-0.506256
C108	C	0.706748	-0.159119	-0.896996
C109	C	0.735507	-0.130395	-0.951901
C110	C	0.735518	-0.130379	-1.061623
C111	C	0.706766	-0.159088	-1.116442
C112	C	0.678007	-0.187812	-1.061536
C113	C	0.678000	-0.187826	-0.951812
C114	C	0.620500	-0.245243	-1.061447
C115	C	0.620491	-0.245262	-0.951725
C116	C	0.591748	-0.273953	-1.116266
C117	C	0.562991	-0.302679	-1.061360
C118	C	0.562982	-0.302695	-0.951632
C119	C	0.591732	-0.273986	-0.896820
C120	C	0.649187	-0.216627	-0.233128
C121	C	0.649259	-0.216519	-0.116352
H122	H	-0.179305	-0.164612	-0.628274
H123	H	0.539581	-0.326050	-1.106002
H124	H	0.568365	-0.603566	-0.316864
H125	H	0.758933	-0.106987	-1.106327
H126	H	-0.179364	-0.268748	-0.384004
H127	H	-0.094240	-0.268735	-0.383990
H128	H	0.701242	-0.387556	-0.628020
H129	H	0.597062	-0.472829	-0.384021
H130	H	0.597042	-0.387707	-0.383994
F131	F	0.737222	-0.738209	-0.712246
H132	H	0.758916	-0.107020	-0.907256
H133	H	-0.094196	-0.164600	-0.628288
H134	H	0.177280	-0.135853	-0.695585
F135	F	0.268268	-0.128666	-0.712402
F136	F	0.030569	-0.304603	-0.299880
F137	F	0.591760	-0.273934	-1.233042
H138	H	0.539558	-0.326080	-0.906934
H139	H	0.393090	-0.164503	-0.628228
H140	H	0.568388	-0.688675	-0.316881
F141	F	0.268164	-0.304543	-0.299832
F142	F	0.171329	-0.304559	-0.299838
F143	F	0.708443	-0.478519	-0.644894
H144	H	0.591729	-0.273998	-0.807478
F145	F	0.737242	-0.835057	-0.712273
H146	H	0.706746	-0.159134	-0.807654
H147	H	0.568433	-0.829430	-0.316931
F148	F	0.706775	-0.159066	-1.233217
H149	H	0.036534	-0.135878	-0.695593
F150	F	0.737188	-0.597462	-0.712189
H151	H	0.121639	-0.135864	-0.695589
F152	F	0.561228	-0.738470	-0.300088
H153	H	0.478212	-0.164492	-0.628216
H154	H	0.478147	-0.268623	-0.383934
H155	H	0.393040	-0.268647	-0.383955
H156	H	0.121547	-0.297406	-0.316685
H157	H	0.730029	-0.688442	-0.695410
F158	F	0.708569	-0.954076	-0.645057
H159	H	0.701407	-1.045073	-0.628270
H160	H	0.597213	-1.045217	-0.384230
H161	H	0.597183	-0.960109	-0.384212
