data_functionalizedCrystal
_audit_creation_method	'MofGen! by Chris Wilmer'
_symmetry_space_group_name_H-M	'P1'
_symmetry_Int_Tables_number	1
_symmetry_cell_setting	triclinic
loop_
_symmetry_equiv_pos_as_xyz
  x,y,z
_cell_length_a	20.299480
_cell_length_b	20.298645
_cell_length_c	20.294903
_cell_angle_alpha	60.007695
_cell_angle_beta	60.015306
_cell_angle_gamma	59.991039
loop_
_atom_site_label
_atom_site_type_symbol
_atom_site_fract_x
_atom_site_fract_y
_atom_site_fract_z
O1	O	0.091305	-0.962534	0.804873
O2	O	0.591305	-0.462534	1.304873
O3	O	0.034397	-0.749399	0.648508
O4	O	0.534397	-0.249399	1.148508
O5	O	0.169355	-0.884263	0.648401
O6	O	0.669355	-0.384263	1.148401
O7	O	-0.043654	-0.827670	0.804979
O8	O	0.456346	-0.327670	1.304979
O9	O	0.214132	-0.839502	0.693072
O10	O	0.714132	-0.339502	1.193072
O11	O	0.079173	-0.704639	0.693178
O12	O	0.579173	-0.204639	1.193178
O13	O	0.136081	-0.917774	0.849544
O14	O	0.636081	-0.417774	1.349544
Zn15	Zn	0.114736	-0.804099	0.778453
Zn16	Zn	0.614736	-0.304099	1.278453
Zn17	Zn	0.055742	-0.863073	0.719598
Zn18	Zn	0.555742	-0.363073	1.219598
O19	O	0.001122	-0.782910	0.849650
O20	O	0.501122	-0.282910	1.349650
N21	N	0.155000	-0.763857	0.818624
N22	N	0.655000	-0.263857	1.318624
N23	N	0.015485	-0.903322	0.679427
N24	N	0.515485	-0.403322	1.179427
C25	C	0.179343	-0.615641	0.842971
C26	C	0.679343	-0.115641	1.342971
C27	C	0.179443	-0.739552	0.966834
C28	C	0.679443	-0.239552	1.466834
C29	C	0.303264	-0.739536	0.842917
C30	C	0.803264	-0.239536	1.342917
C31	C	0.179356	-0.739528	0.842952
C32	C	0.679356	-0.239528	1.342952
C33	C	0.210353	-0.708565	0.873918
C34	C	0.710353	-0.208565	1.373918
C35	C	-0.132622	-0.927446	0.654695
C36	C	0.367378	-0.427446	1.154695
C37	C	-0.008595	-0.927622	0.530981
C38	C	0.491405	-0.427622	1.030981
C39	C	-0.008820	-1.051459	0.654914
C40	C	0.491180	-0.551459	1.154914
C41	C	-0.008800	-0.927618	0.654995
C42	C	0.491200	-0.427618	1.154995
C43	C	-0.039709	-0.958538	0.623897
C44	C	0.460291	-0.458538	1.123897
N45	N	0.376268	-0.763873	0.818558
N46	N	0.876268	-0.263873	1.318558
O47	O	0.652281	-0.777347	0.619856
O48	O	1.152281	-0.277347	1.119856
O49	O	0.652556	-0.934198	0.832777
O50	O	1.152556	-0.434198	1.332777
O51	O	0.652445	-0.933836	0.697731
O52	O	1.152445	-0.433836	1.197731
O53	O	0.652392	-0.777709	0.754902
O54	O	1.152392	-0.277709	1.254902
O55	O	0.518259	-0.889182	0.742556
O56	O	1.018259	-0.389182	1.242556
O57	O	0.518369	-0.889544	0.877602
O58	O	1.018369	-0.389544	1.377602
O59	O	0.518095	-0.732693	0.664680
O60	O	1.018095	-0.232693	1.164680
Zn61	Zn	0.496927	-0.804029	0.778258
Zn62	Zn	0.996927	-0.304029	1.278258
Zn63	Zn	0.673724	-0.862862	0.719200
Zn64	Zn	1.173724	-0.362862	1.219200
O65	O	0.518205	-0.733055	0.799726
O66	O	1.018205	-0.233055	1.299726
N67	N	0.794383	-0.903019	0.678891
N68	N	1.294383	-0.403019	1.178891
N69	N	0.154981	-0.542636	0.818657
N70	N	0.654981	-0.042636	1.318657
O71	O	-0.043628	-0.266455	0.805024
O72	O	0.456372	0.233545	1.305024
O73	O	0.169291	-0.266451	0.648191
O74	O	0.669291	0.233549	1.148191
O75	O	0.034217	-0.266468	0.648577
O76	O	0.534217	0.233532	1.148577
O77	O	0.091446	-0.266438	0.804638
O78	O	0.591446	0.233562	1.304638
O79	O	0.078998	-0.400670	0.693303
O80	O	0.578998	0.099330	1.193303
O81	O	0.214071	-0.400653	0.692918
O82	O	0.714071	0.099347	1.192918
O83	O	0.001152	-0.400657	0.849750
O84	O	0.501152	0.099343	1.349750
Zn85	Zn	0.114722	-0.421963	0.778435
Zn86	Zn	0.614722	0.078037	1.278435
Zn87	Zn	0.055722	-0.245145	0.719506
Zn88	Zn	0.555722	0.254855	1.219506
O89	O	0.136226	-0.400640	0.849364
O90	O	0.636226	0.099360	1.349364
N91	N	0.015453	-0.124472	0.679286
N92	N	0.515453	0.375528	1.179286
N93	N	0.155155	-0.763898	1.039838
N94	N	0.655155	-0.263898	1.539838
O95	O	0.141555	-0.962488	1.315987
O96	O	0.641555	-0.462488	1.815987
O97	O	-0.015254	-0.749480	1.316022
O98	O	0.484746	-0.249480	1.816022
O99	O	-0.014890	-0.884527	1.315962
O100	O	0.485110	-0.384527	1.815962
O101	O	0.141192	-0.827441	1.316047
O102	O	0.641192	-0.327441	1.816047
O103	O	0.029815	-0.839777	1.181768
O104	O	0.529815	-0.339777	1.681768
O105	O	0.029452	-0.704730	1.181828
O106	O	0.529452	-0.204730	1.681828
O107	O	0.186261	-0.917739	1.181793
O108	O	0.686261	-0.417739	1.681793
Zn109	Zn	0.114954	-0.804130	1.160504
Zn110	Zn	0.614954	-0.304130	1.660504
Zn111	Zn	0.056053	-0.863089	1.337311
Zn112	Zn	0.556053	-0.363089	1.837311
O113	O	0.185897	-0.782692	1.181853
O114	O	0.685897	-0.282692	1.681853
N115	N	0.015850	-0.903330	1.457977
N116	N	0.515850	-0.403330	1.957977
C117	C	0.051451	-0.700162	0.649301
C118	C	0.551451	-0.200162	1.149301
C119	C	0.218580	-0.867175	0.649169
C120	C	0.718580	-0.367175	1.149169
C121	C	0.119026	-0.967011	0.848750
C122	C	0.619026	-0.467011	1.348750
C123	C	-0.048103	-0.799998	0.848882
C124	C	0.451897	-0.299998	1.348882
C125	C	0.585495	-0.933471	0.882014
C126	C	1.085495	-0.433471	1.382014
C127	C	0.585361	-0.933023	0.714775
C128	C	1.085361	-0.433023	1.214775
C129	C	0.585151	-0.733419	0.615444
C130	C	1.085151	-0.233419	1.115444
C131	C	0.585291	-0.733869	0.782682
C132	C	1.085291	-0.233869	1.282682
C133	C	0.218449	-0.333386	0.648902
C134	C	0.718449	0.166614	1.148902
C135	C	0.051232	-0.333573	0.649435
C136	C	0.551232	0.166427	1.149435
C137	C	-0.048061	-0.333556	0.848984
C138	C	0.451939	0.166444	1.348984
C139	C	0.119212	-0.333537	0.848507
C140	C	0.619212	0.166463	1.348507
C141	C	-0.014496	-0.700269	1.248929
C142	C	0.485504	-0.200269	1.748929
C143	C	-0.014037	-0.867500	1.248828
C144	C	0.485963	-0.367500	1.748828
C145	C	0.185503	-0.966949	1.248886
C146	C	0.685503	-0.466949	1.748886
C147	C	0.185054	-0.799709	1.248957
C148	C	0.685054	-0.299709	1.748957
H149	H	0.279759	-0.879241	0.599998
H150	H	0.779759	-0.379241	1.099998
C151	C	0.585035	-0.666888	0.532843
C152	C	1.085035	-0.166888	1.032843
H153	H	0.584998	-0.620036	0.532782
H154	H	1.084998	-0.120036	1.032782
H155	H	0.631807	-0.685356	0.491761
H156	H	1.131807	-0.185356	0.991761
H157	H	0.538213	-0.654215	0.523036
H158	H	1.038213	-0.154215	1.023036
C159	C	0.135440	-1.049721	0.915093
C160	C	0.635440	-0.549721	1.415093
H161	H	0.188853	-1.083521	0.895449
H162	H	0.688853	-0.583521	1.395449
H163	H	0.129414	-1.042736	0.960960
H164	H	0.629414	-0.542736	1.460960
H165	H	0.098183	-1.073940	0.929787
H166	H	0.598183	-0.573940	1.429787
H167	H	0.039295	-0.638935	0.600193
H168	H	0.539295	-0.138935	1.100193
C169	C	0.585264	-0.667609	0.799206
C170	C	1.085264	-0.167609	1.299206
H171	H	0.585315	-0.687333	0.852629
H172	H	1.085315	-0.187333	1.352629
H173	H	0.632020	-0.652880	0.761964
H174	H	1.132020	-0.152880	1.261964
H175	H	0.538426	-0.621738	0.793231
H176	H	1.038426	-0.121738	1.293231
C177	C	0.252015	-1.049588	1.248872
C178	C	0.752015	-0.549588	1.748872
H179	H	0.298853	-1.049675	1.248883
H180	H	0.798853	-0.549675	1.748883
H181	H	0.233528	-1.090642	1.295654
H182	H	0.733528	-0.590642	1.795654
H183	H	0.264707	-1.059423	1.202055
H184	H	0.764707	-0.559423	1.702055
H185	H	0.585383	-0.982069	0.702538
H186	H	1.085383	-0.482069	1.202538
C187	C	0.251302	-0.783221	1.248979
C188	C	0.751302	-0.283221	1.748979
H189	H	0.298263	-0.829875	1.248979
H190	H	0.798263	-0.329875	1.748979
H191	H	0.263845	-0.739207	1.202193
H192	H	0.763845	-0.239207	1.702193
H193	H	0.232671	-0.770422	1.295792
H194	H	0.732671	-0.270422	1.795792
H195	H	-0.109209	-0.333558	0.898221
H196	H	0.390791	0.166442	1.398221
H197	H	-0.109285	-0.787936	0.898049
H198	H	0.390715	-0.287936	1.398049
C199	C	0.585602	-0.999996	0.964620
C200	C	1.085602	-0.499996	1.464620
H201	H	0.585622	-0.980506	0.998525
H202	H	1.085622	-0.480506	1.498525
H203	H	0.538835	-1.014690	0.988781
H204	H	1.038835	-0.514690	1.488781
H205	H	0.632429	-1.045832	0.957516
H206	H	1.132429	-0.545832	1.457516
C207	C	0.300866	-0.332840	0.582202
C208	C	0.800866	0.167160	1.082202
H209	H	0.300879	-0.332737	0.535333
H210	H	0.800879	0.167263	1.035333
H211	H	0.310415	-0.285924	0.569665
H212	H	0.810415	0.214076	1.069665
H213	H	0.342149	-0.379527	0.600454
H214	H	0.842149	0.120473	1.100454
C215	C	0.034686	-0.333590	0.583203
C216	C	0.534686	0.166410	1.083203
H217	H	-0.018739	-0.333601	0.602933
H218	H	0.481261	0.166399	1.102933
H219	H	0.040677	-0.286795	0.537309
H220	H	0.540677	0.213205	1.037309
H221	H	0.071909	-0.380400	0.568516
H222	H	0.571909	0.119600	1.068516
C223	C	0.135761	-0.333530	0.914743
C224	C	0.635761	0.166470	1.414743
H225	H	0.189190	-0.333532	0.895017
H226	H	0.689190	0.166468	1.395017
H227	H	0.098540	-0.286731	0.929442
H228	H	0.598540	0.213269	1.429442
H229	H	0.129776	-0.380336	0.960631
H230	H	0.629776	0.119664	1.460631
C231	C	-0.080256	-0.883958	1.248718
C232	C	0.419744	-0.383958	1.748718
H233	H	-0.127214	-0.837302	1.248711
H234	H	0.372786	-0.337302	1.748711
H235	H	-0.061590	-0.896751	1.201896
H236	H	0.438410	-0.396751	1.701896
H237	H	-0.092826	-0.927973	1.295495
H238	H	0.407174	-0.427973	1.795495
H239	H	-0.063726	-0.639093	1.248939
H240	H	0.436274	-0.139093	1.748939
