data_functionalizedCrystal
_audit_creation_method	'MofGen! by Chris Wilmer'
_symmetry_space_group_name_H-M	'P1'
_symmetry_Int_Tables_number	1
_symmetry_cell_setting	triclinic
loop_
_symmetry_equiv_pos_as_xyz
  x,y,z
_cell_length_a	15.297475
_cell_length_b	18.050589
_cell_length_c	15.296720
_cell_angle_alpha	99.646980
_cell_angle_beta	91.617114
_cell_angle_gamma	80.331321
loop_
_atom_site_label
_atom_site_type_symbol
_atom_site_fract_x
_atom_site_fract_y
_atom_site_fract_z
Zn1	Zn	1.253324	-0.577978	-0.726619
Zn2	Zn	1.278573	-0.684914	-0.580139
Zn3	Zn	1.132208	-0.536258	-0.554858
Zn4	Zn	1.106800	-0.677614	-0.701267
O5	O	1.192726	-0.619191	-0.640721
O6	O	1.379249	-0.612678	-0.728378
O7	O	1.280357	-0.650790	-0.454210
O8	O	1.148341	-0.437882	-0.577673
O9	O	1.397799	-0.691244	-0.620759
O10	O	1.237325	-0.468533	-0.703865
O11	O	1.172823	-0.541573	-0.435637
O12	O	1.006262	-0.534494	-0.553090
O13	O	1.105037	-0.678802	-0.827205
O14	O	0.987595	-0.638348	-0.660656
O15	O	1.212688	-0.605600	-0.845831
O16	O	1.255720	-0.787856	-0.596176
O17	O	1.129519	-0.782493	-0.685169
C18	C	0.965146	-0.581102	-0.601379
C19	C	0.867783	-0.564828	-0.584569
C20	C	0.554614	-0.735511	-0.760865
C21	C	0.646092	-0.750806	-0.776656
C22	C	0.701519	-0.704313	-0.728636
C23	C	0.665459	-0.642522	-0.664822
C24	C	0.573973	-0.627228	-0.649024
C25	C	0.720878	-0.596030	-0.616795
C26	C	0.684818	-0.534239	-0.552980
C27	C	0.593341	-0.518948	-0.537186
C28	C	0.537914	-0.565441	-0.585206
C29	C	0.812364	-0.611324	-0.632593
C30	C	0.831723	-0.503041	-0.520751
C31	C	0.740245	-0.487746	-0.504960
C32	C	1.192623	-0.812124	-0.640688
C33	C	1.192654	-0.894678	-0.640717
C34	C	1.124087	-1.091246	-0.689101
C35	C	1.116577	-1.127707	-0.605486
C36	C	1.192738	-1.045824	-0.640743
C37	C	1.200290	-1.156454	-0.724374
C38	C	1.192816	-1.191825	-0.640775
C39	C	1.185193	-1.081185	-0.557079
C40	C	1.268934	-1.109941	-0.676028
C41	C	1.261463	-1.146377	-0.592364
C42	C	1.192690	-0.961717	-0.640726
C43	C	1.192866	-1.275930	-0.640784
C44	C	1.421195	-0.657429	-0.680217
C45	C	1.518555	-0.673724	-0.697047
C46	C	1.153212	-0.646040	-0.869189
C47	C	1.136373	-0.657482	-0.966549
C48	C	1.192850	-0.425511	-0.640777
C49	C	1.192903	-0.342976	-0.640801
C50	C	1.313107	-0.537292	-1.279781
C51	C	1.328934	-0.526544	-1.188308
C52	C	1.280795	-0.559277	-1.132864
C53	C	1.216827	-0.602761	-1.168902
C54	C	1.201004	-0.613514	-1.260385
C55	C	1.168692	-0.635500	-1.113467
C56	C	1.104724	-0.678984	-1.149505
C57	C	1.088904	-0.689735	-1.240979
C58	C	1.137042	-0.657002	-1.296423
C59	C	1.184515	-0.624746	-1.021984
C60	C	1.072411	-0.700969	-1.002587
C61	C	1.056585	-0.711717	-1.094061
C62	C	1.232137	-0.592401	-0.413150
C63	C	1.249146	-0.580779	-0.315820
H64	H	0.710872	-0.437435	-0.453001
H65	H	1.319563	-1.170350	-0.551426
C66	C	1.298199	-0.547445	-1.032240
N67	N	1.311307	-0.538527	-0.956445
C68	C	1.029573	-1.138957	-0.565182
N69	N	0.964040	-1.147429	-0.534830
C70	C	1.176498	-1.037208	-0.461504
N71	N	1.169945	-1.004082	-0.389519
C72	C	1.366048	-0.501286	-1.340774
N73	N	1.405924	-0.474162	-1.386715
C74	C	0.892689	-0.451894	-0.467928
N75	N	0.938614	-0.413373	-0.428144
H76	H	1.124160	-0.665750	-1.370909
C77	C	1.045576	-1.058639	-0.744231
N78	N	0.986441	-1.034075	-0.785750
C79	C	1.355898	-1.098655	-0.716367
N80	N	1.421395	-1.090150	-0.746762
H81	H	1.206647	-1.189082	-0.795088
H82	H	1.236597	-0.589341	-0.992651
C83	C	1.399288	-0.478706	-1.148672
N84	N	1.452280	-0.442668	-1.118817
H85	H	0.776004	-0.716770	-0.741498
H86	H	1.036824	-0.725149	-1.270319
H87	H	1.004502	-0.747121	-1.123416
C88	C	0.553678	-0.450977	-0.466986
N89	N	0.523805	-0.399779	-0.414114
H90	H	1.033214	-0.727625	-0.957445
H91	H	0.675446	-0.801118	-0.828613
C92	C	0.852019	-0.679291	-0.702791
N93	N	0.881885	-0.730486	-0.755671
C94	C	0.493640	-0.786648	-0.813676
N95	N	0.447713	-0.825168	-0.853457
H96	H	0.463423	-0.552990	-0.572354
