data_functionalizedCrystal
_audit_creation_method	'MofGen! by Chris Wilmer'
_symmetry_space_group_name_H-M	'P1'
_symmetry_Int_Tables_number	1
_symmetry_cell_setting	triclinic
loop_
_symmetry_equiv_pos_as_xyz
  x,y,z
_cell_length_a	19.902436
_cell_length_b	14.560438
_cell_length_c	14.560438
_cell_angle_alpha	120.000338
_cell_angle_beta	90.004113
_cell_angle_gamma	120.005747
loop_
_atom_site_label
_atom_site_type_symbol
_atom_site_fract_x
_atom_site_fract_y
_atom_site_fract_z
Zr1	Zr	0.647228	-1.005288	-0.120483
O2	O	0.539919	-1.196920	-0.267154
O3	O	0.680134	-0.813666	-0.075515
O4	O	0.680115	-1.005286	-0.267127
O5	O	0.539941	-1.005297	0.075599
O6	O	0.790692	-1.005273	-0.267113
O7	O	0.539938	-1.005300	-0.075542
O8	O	0.790726	-0.662499	0.075647
O9	O	0.539907	-1.348071	-0.267161
O10	O	0.776678	-0.892469	-0.056332
O11	O	0.694158	-0.892477	0.056451
O12	O	0.694135	-1.118085	-0.169148
O13	O	0.611615	-1.118093	-0.056364
Zr14	Zr	0.823590	-1.005263	0.120593
Zr15	Zr	0.823585	-1.005267	-0.120459
Zr16	Zr	0.647232	-1.005284	0.120569
Zr17	Zr	0.647208	-1.246356	-0.120494
Zr18	Zr	0.823609	-0.764194	0.120603
O19	O	0.790683	-1.196885	0.075624
O20	O	0.790677	-1.196891	-0.267121
O21	O	0.539925	-1.196914	0.075591
O22	O	0.930898	-0.813630	0.267264
O23	O	0.930892	-0.813636	-0.075481
O24	O	0.680140	-0.813660	0.267230
O25	O	0.930877	-1.005254	-0.075489
O26	O	0.790702	-1.005264	0.267237
O27	O	0.680125	-1.005277	0.267222
O28	O	0.930879	-1.005251	0.075651
O29	O	0.680088	-1.348055	-0.267142
O30	O	0.790730	-0.662496	0.267252
O31	O	0.930910	-0.662479	0.267271
O32	O	0.930907	-0.662483	0.075666
O33	O	0.539911	-1.348068	-0.075557
O34	O	0.680091	-1.348052	-0.075538
O35	O	0.776682	-0.892465	0.169257
O36	O	0.859202	-0.892457	0.056474
O37	O	0.776660	-1.118074	-0.056342
O38	O	0.694139	-1.118082	0.056442
C39	C	0.735433	-0.703735	0.000068
C40	C	0.735441	-0.601395	0.000072
C41	C	0.514812	-1.005301	0.000025
C42	C	0.439944	-1.005310	0.000015
C43	C	0.796346	-0.373887	0.083343
C44	C	0.796363	-0.470025	0.083347
C45	C	0.674503	-0.636627	-0.083217
C46	C	0.674491	-0.540489	-0.083224
C47	C	0.302882	-1.005286	0.000042
C48	C	0.222300	-1.147599	-0.071119
C49	C	0.144409	-1.147655	-0.070793
C50	C	0.167935	-1.005264	0.000067
C51	C	0.222225	-0.934179	0.122667
C52	C	0.299776	-0.935120	0.122263
C53	C	0.300611	-0.933027	-0.050404
C54	C	0.221742	-0.935676	-0.052866
C55	C	0.091672	-1.005245	0.000088
C56	C	0.379147	-1.005302	0.000030
C57	C	0.956005	-1.005249	0.000084
C58	C	1.030874	-1.005241	0.000094
C59	C	0.735393	-0.306806	0.000048
C60	C	0.735412	-0.409119	0.000062
C61	C	0.735403	-1.005280	-0.301465
C62	C	0.735401	-1.005282	-0.403798
C63	C	0.692316	-1.123049	-0.510762
C64	C	0.692325	-1.123043	-0.606911
C65	C	0.778507	-0.887492	-0.489117
C66	C	0.778502	-0.887500	-0.392970
C67	C	0.735414	-1.005270	0.301574
C68	C	0.735416	-1.005269	0.403907
C69	C	0.956029	-0.703709	0.000097
C70	C	1.030906	-0.601361	0.000112
C71	C	0.735438	-0.703730	0.301587
C72	C	0.735448	-0.601389	0.403925
C73	C	0.956035	-0.703704	0.301617
C74	C	1.030913	-0.601354	0.403964
C75	C	0.514782	-1.306846	-0.301507
C76	C	0.439904	-1.409197	-0.403855
C77	C	0.514788	-1.306841	0.000012
C78	C	0.439911	-1.409190	-0.000002
C79	C	0.735379	-1.306820	-0.301478
C80	C	0.735369	-1.409162	-0.403815
C81	C	1.022992	-0.553303	-0.058775
C82	C	1.093340	-0.457148	-0.058784
C83	C	1.171601	-0.409047	0.000101
C84	C	1.179513	-0.457115	0.058990
C85	C	1.109166	-0.553274	0.058991
C86	C	1.109159	-0.553285	0.393156
C87	C	1.179522	-0.457129	0.489313
C88	C	1.171638	-0.409038	0.596277
C89	C	1.093384	-0.457116	0.607084
C90	C	1.023022	-0.553277	0.510928
C91	C	0.361658	-1.457277	-0.393046
C92	C	0.291295	-1.553463	-0.489203
C93	C	0.299180	-1.601560	-0.596168
C94	C	0.377434	-1.553475	-0.606974
C95	C	0.447795	-1.457298	-0.510818
C96	C	0.447825	-1.457258	0.058874
C97	C	0.377478	-1.553439	0.058857
C98	C	0.299217	-1.601543	-0.000032
C99	C	0.291304	-1.553471	-0.058916
C100	C	0.361651	-1.457299	-0.058904
C101	C	0.778529	-0.553300	0.510886
C102	C	0.778529	-0.457149	0.607039
C103	C	0.692367	-0.457178	0.489255
C104	C	0.692362	-0.553335	0.393105
H105	H	0.845953	-0.266922	0.151159
H106	H	0.959314	-0.592402	0.519744
H107	H	0.657221	-1.218955	-0.519585
N108	N	0.092053	-1.221502	-0.190358
H109	H	0.124616	-1.178414	-0.226745
H110	H	0.075238	-1.313879	-0.233976
H111	H	1.115622	-0.592390	0.106951
H112	H	0.845982	-0.441327	0.151161
N113	N	0.824976	-0.760467	-0.277595
H114	H	0.785469	-0.755223	-0.235083
H115	H	0.868322	-0.755298	-0.235166
N116	N	0.645849	-1.250078	-0.722270
H117	H	0.602501	-1.255342	-0.764806
H118	H	0.685412	-1.255258	-0.764688
H119	H	0.624869	-0.569188	-0.151048
H120	H	0.624903	-0.743598	-0.151025
H121	H	1.115595	-0.592427	0.306069
H122	H	0.220472	-1.203769	-0.161626
N123	N	0.824991	-0.760461	-0.477441
H124	H	0.818456	-0.778323	-0.554580
H125	H	0.802379	-0.709034	-0.434922
H126	H	1.228875	-0.330748	0.000092
N127	N	0.221421	-1.220856	-0.025187
H128	H	0.272994	-1.162258	0.041517
H129	H	0.171545	-1.250174	-0.000888
H130	H	0.105469	-1.203151	-0.035773
N131	N	0.386032	-1.605276	0.122363
H132	H	0.358775	-1.701800	0.068349
H133	H	0.446303	-1.560099	0.159662
N134	N	0.532190	-1.405415	-0.522476
H135	H	0.563315	-1.422125	-0.485208
H136	H	0.526436	-1.450498	-0.604849
H137	H	0.241942	-1.679853	-0.000032
H138	H	0.227575	-1.592653	-0.106861
H139	H	0.355196	-1.418164	-0.106845
N140	N	0.299660	-1.001230	0.175735
H141	H	0.249331	-1.029491	0.199344
H142	H	0.298793	-1.079726	0.119702
H143	H	0.356845	-0.830697	0.178306
H144	H	0.242030	-0.829469	0.178020
N145	N	0.246330	-0.798096	0.008625
H146	H	0.280811	-0.755896	-0.027228
H147	H	0.195285	-0.799134	0.004263
N148	N	0.172652	-0.998729	0.176487
H149	H	0.153186	-1.092529	0.130719
H150	H	0.208090	-0.952232	0.255383
H151	H	0.303466	-0.978900	-0.139349
H152	H	0.959274	-0.592466	-0.106740
H153	H	0.511543	-1.418099	0.106836
N154	N	0.353133	-1.405420	-0.277690
H155	H	0.322058	-1.478790	-0.268692
H156	H	0.409601	-1.337173	-0.218470
N157	N	0.172143	-1.004336	-0.172515
H158	H	0.115056	-1.080200	-0.192358
H159	H	0.168208	-0.941766	-0.180082
N160	N	0.375843	-0.794160	0.017913
H161	H	0.411243	-0.778077	0.081227
H162	H	0.408339	-0.778105	-0.032006
N163	N	1.084795	-0.405318	-0.122303
H164	H	1.024541	-0.450378	-0.159593
H165	H	1.112116	-0.308785	-0.068242
H166	H	0.227584	-1.592597	-0.480383
H167	H	1.243243	-0.417937	0.106931
H168	H	1.243234	-0.417993	0.480494
H169	H	0.813610	-0.592428	0.519703
N170	N	1.247531	-0.305322	0.699984
H171	H	1.298294	-0.282172	0.676895
H172	H	1.247505	-0.225591	0.746225
H173	H	0.241880	-1.679873	-0.674455
H174	H	1.086976	-0.417946	0.694187
H175	H	0.383844	-1.592648	-0.694076
H176	H	0.813609	-0.418001	0.694129
N177	N	0.645903	-0.405340	0.477588
H178	H	0.652445	-0.337123	0.554728
H179	H	0.668526	-0.365519	0.435072
H180	H	0.657277	-0.592492	0.306005
