data_functionalizedCrystal
_audit_creation_method	'MofGen! by Chris Wilmer'
_symmetry_space_group_name_H-M	'P1'
_symmetry_Int_Tables_number	1
_symmetry_cell_setting	triclinic
loop_
_symmetry_equiv_pos_as_xyz
  x,y,z
_cell_length_a	17.077404
_cell_length_b	11.169416
_cell_length_c	17.077396
_cell_angle_alpha	89.976843
_cell_angle_beta	89.981638
_cell_angle_gamma	90.008119
loop_
_atom_site_label
_atom_site_type_symbol
_atom_site_fract_x
_atom_site_fract_y
_atom_site_fract_z
Zn1	Zn	1.200124	-0.477872	-0.443848
Zn2	Zn	1.700124	0.022128	0.056152
Zn3	Zn	1.200060	-0.678584	-0.312594
Zn4	Zn	1.700060	-0.178584	0.187406
Zn5	Zn	1.068856	-0.477906	-0.312598
Zn6	Zn	1.568856	0.022094	0.187402
Zn7	Zn	1.068853	-0.678505	-0.443820
Zn8	Zn	1.568853	-0.178505	0.056180
O9	O	1.134473	-0.578217	-0.378215
O10	O	1.634473	-0.078217	0.121785
O11	O	1.309963	-0.504516	-0.426447
O12	O	1.809963	-0.004516	0.073553
O13	O	1.182630	-0.652011	-0.202748
O14	O	1.682630	-0.152011	0.297252
O15	O	1.086297	-0.309952	-0.330022
O16	O	1.586297	0.190048	0.169978
O17	O	1.309916	-0.651978	-0.330015
O18	O	1.809916	-0.151978	0.169985
O19	O	1.182739	-0.309927	-0.426451
O20	O	1.682739	0.190073	0.073549
O21	O	1.086235	-0.504574	-0.202751
O22	O	1.586235	-0.004574	0.297249
O23	O	0.959009	-0.504497	-0.329996
O24	O	1.459009	-0.004497	0.170004
O25	O	1.086292	-0.651843	-0.553671
O26	O	1.586292	-0.151843	-0.053671
O27	O	0.959007	-0.651876	-0.426404
O28	O	1.459007	-0.151876	0.073596
O29	O	1.182736	-0.504439	-0.553691
O30	O	1.682736	-0.004439	-0.053691
O31	O	1.182628	-0.846523	-0.329988
O32	O	1.682628	-0.346523	0.170012
O33	O	1.086230	-0.846465	-0.426399
O34	O	1.586230	-0.346465	0.073601
C35	C	0.930525	-0.578183	-0.378198
C36	C	1.430525	-0.078183	0.121802
C37	C	0.843276	-0.578197	-0.378209
C38	C	1.343276	-0.078197	0.121791
C39	C	0.802311	-0.501550	-0.428497
C40	C	1.302311	-0.001550	0.071503
C41	C	0.720330	-0.501558	-0.428501
C42	C	1.220330	-0.001558	0.071499
C43	C	0.679316	-0.578220	-0.378219
C44	C	1.179316	-0.078220	0.121781
C45	C	0.720287	-0.654870	-0.327925
C46	C	1.220287	-0.154870	0.172075
C47	C	0.802266	-0.654855	-0.327918
C48	C	1.302266	-0.154855	0.172082
C49	C	0.549417	-0.654897	-0.327945
C50	C	1.049417	-0.154897	0.172055
C51	C	0.467432	-0.654914	-0.327952
C52	C	0.967432	-0.154914	0.172048
C53	C	0.467481	-0.501600	-0.428527
C54	C	0.967481	-0.001600	0.071473
C55	C	0.549460	-0.501585	-0.428520
C56	C	1.049460	-0.001585	0.071480
C57	C	0.590425	-0.578237	-0.378227
C58	C	1.090425	-0.078237	0.121773
C59	C	1.134443	-0.890042	-0.378207
C60	C	1.634443	-0.390042	0.121793
C61	C	1.134502	-1.023441	-0.378230
C62	C	1.634502	-0.523441	0.121770
C63	C	1.339218	-0.578252	-0.378233
C64	C	1.839218	-0.078252	0.121767
C65	C	1.426467	-0.578267	-0.378241
C66	C	1.926467	-0.078267	0.121759
C67	C	1.134521	-0.578128	-0.582960
C68	C	1.634521	-0.078128	-0.082960
C69	C	1.134541	-0.578091	-0.670209
C70	C	1.634541	-0.078091	-0.170209
C71	C	1.134525	-0.265174	-0.378240
C72	C	1.634525	0.234826	0.121760
C73	C	1.134547	-0.131774	-0.378251
C74	C	1.634547	0.368226	0.121749
C75	C	1.184761	-0.501331	-0.711211
C76	C	1.684761	-0.001331	-0.211211
C77	C	1.184771	-0.501291	-0.793192
C78	C	1.684771	-0.001291	-0.293192
C79	C	1.134563	-0.578018	-0.834169
C80	C	1.634563	-0.078018	-0.334169
C81	C	1.084337	-0.654781	-0.793161
C82	C	1.584337	-0.154781	-0.293161
C83	C	1.084325	-0.654814	-0.711182
C84	C	1.584325	-0.154814	-0.211182
C85	C	1.084369	-0.654709	-0.964031
C86	C	1.584369	-0.154709	-0.464031
C87	C	1.084383	-0.654677	-1.046016
C88	C	1.584383	-0.154677	-0.546016
C89	C	1.184815	-0.501186	-1.046041
C90	C	1.684815	-0.001186	-0.546041
C91	C	1.184802	-0.501219	-0.964062
C92	C	1.684802	-0.001219	-0.464062
C93	C	1.134577	-0.577984	-0.923060
C94	C	1.634577	-0.077984	-0.423060
C95	C	1.134471	-0.578218	-0.174267
C96	C	1.634471	-0.078218	0.325733
C97	C	1.134603	-0.577918	-0.087018
C98	C	1.634603	-0.077918	0.412982
H99	H	0.582768	-0.717313	-0.286988
H100	H	1.082768	-0.217313	0.213012
H101	H	1.043455	-0.717249	-0.826531
H102	H	1.543455	-0.217249	-0.326531
H103	H	1.043498	-0.717152	-1.079377
H104	H	1.543498	-0.217152	-0.579377
H105	H	0.434124	-0.439184	-0.469477
H106	H	0.934124	0.060816	0.030523
H107	H	1.225690	-0.438748	-0.930701
H108	H	1.725690	0.061252	-0.430701
H109	H	0.686980	-0.439147	-0.469452
H110	H	1.186980	0.060853	0.030548
H111	H	1.225709	-0.438679	-1.079429
H112	H	1.725709	0.061321	-0.579429
H113	H	0.434041	-0.717339	-0.287009
H114	H	0.934041	-0.217339	0.212991
H115	H	1.225667	-0.438789	-0.826572
H116	H	1.725667	0.061211	-0.326572
H117	H	0.835619	-0.717268	-0.286967
H118	H	1.335619	-0.217268	0.213033
H119	H	0.686887	-0.717283	-0.286981
H120	H	1.186887	-0.217283	0.213019
H121	H	1.225649	-0.438855	-0.677854
H122	H	1.725649	0.061145	-0.177854
H123	H	1.043458	-0.717200	-0.930650
H124	H	1.543458	-0.217200	-0.430650
H125	H	1.043422	-0.717307	-0.677799
H126	H	1.543422	-0.217307	-0.177799
H127	H	0.582852	-0.439167	-0.469469
H128	H	1.082852	0.060833	0.030531
H129	H	0.835698	-0.439126	-0.469445
H130	H	1.335698	0.060874	0.030555
