data_functionalizedCrystal
_audit_creation_method	'MofGen! by Chris Wilmer'
_symmetry_space_group_name_H-M	'P1'
_symmetry_Int_Tables_number	1
_symmetry_cell_setting	triclinic
loop_
_symmetry_equiv_pos_as_xyz
  x,y,z
_cell_length_a	16.992698
_cell_length_b	16.053802
_cell_length_c	16.109301
_cell_angle_alpha	87.436620
_cell_angle_beta	92.935789
_cell_angle_gamma	87.242832
loop_
_atom_site_label
_atom_site_type_symbol
_atom_site_fract_x
_atom_site_fract_y
_atom_site_fract_z
O1	O	-1.043656	0.069450	0.172995
O2	O	-0.815371	0.069448	0.171064
O3	O	-0.935785	0.069440	0.051417
O4	O	-0.923243	0.069457	0.292642
O5	O	-0.929157	-0.069418	0.057974
O6	O	-0.808743	-0.069411	0.177621
O7	O	-1.037028	-0.069409	0.179552
Zn8	Zn	-0.921834	-0.091457	0.179627
Zn9	Zn	-0.930566	0.091496	0.170989
O10	O	-0.916615	-0.069401	0.299199
C11	C	-0.782845	0.000018	0.171855
C12	C	-0.695803	0.000017	0.164432
N13	N	-0.915880	-0.216316	0.185523
C14	C	-0.206856	0.000012	0.114560
C15	C	-0.288640	0.000008	0.121541
C16	C	-0.320164	0.000018	0.200148
C17	C	-0.269898	0.000023	0.271779
C18	C	-0.188115	0.000021	0.264797
C19	C	-0.563754	0.000020	0.229082
C20	C	-0.645544	0.000025	0.236058
C21	C	-0.664280	0.000009	0.085820
C22	C	-0.582495	0.000011	0.078845
C23	C	-0.532236	0.000012	0.150476
N24	N	-0.403761	0.000017	0.207285
N25	N	-0.448640	0.000007	0.143338
C26	C	-0.967134	-0.260014	0.134634
C27	C	-0.962977	-0.347420	0.138766
C28	C	-0.907568	-0.391128	0.193793
C29	C	-0.856308	-0.347425	0.244684
C30	C	-0.860462	-0.260020	0.240547
C31	C	-0.889421	-0.652536	0.211841
C32	C	-0.885272	-0.739947	0.215976
C33	C	-0.991940	-0.739937	0.110057
C34	C	-0.996093	-0.652530	0.105928
C35	C	-0.944830	-0.608835	0.156816
N36	N	-0.903318	-0.480471	0.198020
N37	N	-0.949076	-0.519493	0.152584
C38	C	-0.069554	0.000020	0.178762
C39	C	-0.156596	0.000020	0.186186
C40	C	-0.931963	0.000011	0.023687
C41	C	-0.930439	0.000009	-0.068710
N42	N	-0.936526	0.216355	0.165087
C43	C	-0.998349	0.000023	-0.286452
C44	C	-0.996912	0.000030	-0.373269
C45	C	-0.854045	0.000026	-0.362926
C46	C	-0.855484	0.000025	-0.276111
C47	C	-0.927638	0.000019	-0.237877
C48	C	-0.924763	0.000027	-0.411508
C49	C	-0.923204	0.000034	-0.505638
C50	C	-0.929197	0.000013	-0.143740
C51	C	-0.920437	0.000030	0.326929
C52	C	-0.921961	0.000037	0.419325
H53	H	-0.181197	0.000010	0.050550
H54	H	-0.811188	-0.383017	0.289485
F55	F	-1.017527	-0.393926	0.084603
F56	F	-0.342127	-0.000004	0.045307
F57	F	-1.072174	0.000036	-0.424963
F58	F	-0.826295	-0.786459	0.274548
F59	F	-0.834866	-0.606039	0.266002
H60	H	-0.705210	0.000007	0.027502
F61	F	-1.055066	-0.606014	0.047364
F62	F	-0.780219	0.000027	-0.224410
F63	F	-1.026113	-0.213505	0.076071
F64	F	-0.303450	0.000031	0.355438
F65	F	-0.548953	0.000025	-0.004820
F66	F	-1.046493	-0.786446	0.055900
H67	H	-1.057102	0.000021	-0.255324
F68	F	-0.679091	0.000034	0.319726
H69	H	-0.795300	0.000028	-0.394067
F70	F	-0.510275	0.000029	0.305319
F71	F	-0.134624	0.000024	0.341032
F72	F	-0.805907	-0.213515	0.294708
