data_functionalizedCrystal
_audit_creation_method	'MofGen! by Chris Wilmer'
_symmetry_space_group_name_H-M	'P1'
_symmetry_Int_Tables_number	1
_symmetry_cell_setting	triclinic
loop_
_symmetry_equiv_pos_as_xyz
  x,y,z
_cell_length_a	17.038272
_cell_length_b	10.540510
_cell_length_c	9.016244
_cell_angle_alpha	89.992396
_cell_angle_beta	89.997742
_cell_angle_gamma	87.812433
loop_
_atom_site_label
_atom_site_type_symbol
_atom_site_fract_x
_atom_site_fract_y
_atom_site_fract_z
O1	O	0.110135	1.696188	-0.123352
O2	O	0.610135	2.196188	0.376648
O3	O	0.120547	1.327742	-0.123353
O4	O	0.620547	1.827742	0.376647
O5	O	0.001513	1.509775	-0.123340
O6	O	0.501513	2.009775	0.376660
O7	O	0.229169	1.514155	-0.123364
O8	O	0.729169	2.014155	0.376636
O9	O	0.001516	1.509747	0.123340
O10	O	0.501516	2.009747	0.623340
O11	O	0.120550	1.327714	0.123328
O12	O	0.620550	1.827714	0.623328
O13	O	0.110138	1.696160	0.123329
O14	O	0.610138	2.196160	0.623329
Cu15	Cu	0.115344	1.511934	0.145853
Cu16	Cu	0.615344	2.011934	0.645853
Cu17	Cu	0.115341	1.511968	-0.145876
Cu18	Cu	0.615341	2.011968	0.354124
O19	O	0.229171	1.514127	0.123317
O20	O	0.729171	2.014127	0.623317
C21	C	0.119772	1.280352	-0.000012
C22	C	0.619772	1.780352	0.499988
C23	C	0.117451	1.139185	-0.000012
C24	C	0.617451	1.639185	0.499988
C25	C	0.200143	0.929443	-0.000588
C26	C	0.700143	1.429443	0.499412
C27	C	0.202619	1.076270	-0.000023
C28	C	0.702619	1.576270	0.499977
C29	C	0.073855	1.090343	0.140855
C30	C	0.573855	1.590343	0.640855
C31	C	0.071982	0.943407	0.140965
C32	C	0.571982	1.443407	0.640965
C33	C	0.070205	0.943467	-0.139557
C34	C	0.570205	1.443467	0.360443
C35	C	0.074245	1.090185	-0.141411
C36	C	0.574245	1.590185	0.358589
C37	C	-0.027636	1.505778	-0.000000
C38	C	0.472364	2.005778	0.500000
C39	C	-0.114497	1.493894	-0.000001
C40	C	0.385503	1.993894	0.499999
C41	C	-0.163991	1.603005	0.000001
C42	C	0.336009	2.103005	0.500001
C43	C	-0.245605	1.591831	-0.000013
C44	C	0.254395	2.091831	0.499987
C45	C	-0.277723	1.471544	-0.000018
C46	C	0.222277	1.971544	0.499982
C47	C	-0.228222	1.362425	-0.000025
C48	C	0.271778	1.862425	0.499975
C49	C	-0.146610	1.373600	-0.000021
C50	C	0.353390	1.873600	0.499979
C51	C	-0.523705	1.432064	-0.000039
C52	C	-0.023705	1.932064	0.499961
C53	C	-0.605324	1.420897	-0.000038
C54	C	-0.105324	1.920897	0.499962
C55	C	-0.622701	1.650304	-0.000029
C56	C	-0.122701	2.150304	0.499971
C57	C	-0.541087	1.661469	-0.000016
C58	C	-0.041087	2.161469	0.499984
C59	C	-0.491593	1.552349	-0.000030
C60	C	0.008407	2.052349	0.499970
C61	C	-0.361146	1.460120	-0.000028
C62	C	0.138854	1.960120	0.499972
C63	C	-0.408172	1.563775	-0.000031
C64	C	0.091828	2.063775	0.499969
C65	C	0.258321	1.518124	-0.000027
C66	C	0.758321	2.018124	0.499973
C67	C	0.345181	1.530008	-0.000036
C68	C	0.845181	2.030008	0.499964
C69	C	0.110912	1.743550	-0.000014
C70	C	0.610912	2.243550	0.499986
C71	C	0.113234	1.884717	-0.000024
C72	C	0.613234	2.384717	0.499976
N73	N	0.115346	1.511920	0.351039
N74	N	0.615346	2.011920	0.851039
N75	N	0.115333	1.511991	-0.351062
N76	N	0.615333	2.011991	0.148938
C77	C	0.178807	1.414207	0.586065
C78	C	0.678807	1.914207	1.086065
C79	C	0.179045	1.414459	0.414174
C80	C	0.679045	1.914459	0.914174
C81	C	0.133907	1.646376	0.413375
C82	C	0.633907	2.146376	0.913375
C83	C	0.134356	1.645852	0.585320
C84	C	0.634356	2.145852	1.085320
C85	C	0.033115	1.476475	0.585591
C86	C	0.533115	1.976475	1.085591
C87	C	0.033648	1.473480	0.413637
C88	C	0.533648	1.973480	0.913637
H89	H	0.236935	1.107863	0.101120
H90	H	0.736935	1.607863	0.601120
H91	H	0.240044	1.438048	0.373021
H92	H	0.740044	1.938048	0.873021
H93	H	0.088937	1.721238	0.372476
H94	H	0.588937	2.221238	0.872476
H95	H	-0.483417	1.343211	-0.000050
H96	H	0.016583	1.843211	0.499950
H97	H	-0.106312	1.284750	-0.000023
H98	H	0.393688	1.784750	0.499977
H99	H	-0.015855	1.539390	0.370666
H100	H	0.484145	2.039390	0.870666
H101	H	0.194340	1.675802	0.625403
H102	H	0.694340	2.175802	1.125403
H103	H	0.233323	0.890597	-0.101613
H104	H	0.733323	1.390597	0.398387
H105	H	0.167812	1.314255	0.627459
H106	H	0.667812	1.814255	1.127459
H107	H	0.089987	1.721357	0.626907
H108	H	0.589987	2.221357	1.126907
H109	H	0.233134	0.889002	0.099857
H110	H	0.733134	1.389002	0.599857
H111	H	0.239461	1.437532	0.629252
H112	H	0.739461	1.937532	1.129252
H113	H	-0.382018	1.661712	-0.000060
H114	H	0.117982	2.161712	0.499940
H115	H	-0.663008	1.739142	-0.000020
H116	H	-0.163008	2.239142	0.499980
H117	H	0.193213	1.676807	0.370291
H118	H	0.693213	2.176807	0.870291
H119	H	0.011155	1.131883	0.146101
H120	H	0.511155	1.631883	0.646101
H121	H	-0.014129	1.547681	0.626248
H122	H	0.485871	2.047681	1.126248
H123	H	0.105965	1.121775	-0.245624
H124	H	0.605965	1.621775	0.254376
H125	H	0.097062	0.903437	-0.246328
H126	H	0.597062	1.403437	0.253672
H127	H	0.236726	1.108809	-0.101007
H128	H	0.736726	1.608809	0.398993
H129	H	-0.631471	1.322941	-0.000018
H130	H	-0.131471	1.822941	0.499982
H131	H	-0.387305	1.362182	-0.000029
H132	H	0.112695	1.862182	0.499971
H133	H	0.019578	1.374528	0.372896
H134	H	0.519578	1.874528	0.872896
H135	H	0.104134	1.124009	0.245683
H136	H	0.604134	1.624009	0.745683
H137	H	0.167878	1.314799	0.372031
H138	H	0.667878	1.814799	0.872031
H139	H	0.015447	1.380089	0.629040
H140	H	0.515447	1.880089	1.129040
H141	H	0.101778	0.905958	0.246259
H142	H	0.601778	1.405958	0.746259
H143	H	0.012065	1.133454	-0.149911
H144	H	0.512065	1.633454	0.350089
H145	H	-0.137848	1.700954	0.000015
H146	H	0.362152	2.200954	0.500015
H147	H	0.008281	0.914469	0.147370
H148	H	0.508281	1.414469	0.647370
H149	H	0.006261	0.915349	-0.140503
H150	H	0.506261	1.415349	0.359497
H151	H	-0.514943	1.759418	-0.000012
H152	H	-0.014943	2.259418	0.499988
H153	H	-0.285901	1.680681	-0.000008
H154	H	0.214099	2.180681	0.499992
H155	H	-0.254379	1.264485	-0.000038
H156	H	0.245621	1.764485	0.499962
