data_functionalizedCrystal
_audit_creation_method	'MofGen! by Chris Wilmer'
_symmetry_space_group_name_H-M	'P1'
_symmetry_Int_Tables_number	1
_symmetry_cell_setting	triclinic
loop_
_symmetry_equiv_pos_as_xyz
  x,y,z
_cell_length_a	19.288864
_cell_length_b	19.288853
_cell_length_c	17.766277
_cell_angle_alpha	90.015014
_cell_angle_beta	89.980434
_cell_angle_gamma	96.865498
loop_
_atom_site_label
_atom_site_type_symbol
_atom_site_fract_x
_atom_site_fract_y
_atom_site_fract_z
O1	O	0.921347	-0.086648	-0.062853
O2	O	1.421347	0.413352	0.437147
O3	O	0.719086	-0.098336	-0.062804
O4	O	1.219086	0.401664	0.437196
O5	O	0.826064	0.008639	-0.062805
O6	O	1.326064	0.508639	0.437195
O7	O	0.814369	-0.193623	-0.062852
O8	O	1.314369	0.306377	0.437148
O9	O	0.826052	0.008641	0.062384
O10	O	1.326052	0.508641	0.562384
O11	O	0.719074	-0.098334	0.062385
O12	O	1.219074	0.401666	0.562385
O13	O	0.921335	-0.086645	0.062336
O14	O	1.421335	0.413355	0.562336
Cu15	Cu	0.820204	-0.092489	0.073791
Cu16	Cu	1.320204	0.407511	0.573791
Cu17	Cu	0.820217	-0.092492	-0.074259
Cu18	Cu	1.320217	0.407508	0.425741
O19	O	0.814357	-0.193620	0.062337
O20	O	1.314357	0.306380	0.562337
C21	C	0.693204	-0.097959	-0.000203
C22	C	1.193204	0.402041	0.499797
C23	C	0.616100	-0.096830	-0.000183
C24	C	1.116100	0.403170	0.499817
C25	C	0.571402	-0.159598	-0.000209
C26	C	1.071402	0.340402	0.499791
C27	C	0.498955	-0.158538	-0.000217
C28	C	0.998955	0.341462	0.499783
C29	C	0.471209	-0.094705	-0.000214
C30	C	0.971209	0.405295	0.499786
C31	C	0.515917	-0.031929	-0.000183
C32	C	1.015917	0.468071	0.499817
C33	C	0.588363	-0.032991	-0.000168
C34	C	1.088363	0.467009	0.499832
C35	C	0.362953	-0.044527	-0.044087
C36	C	0.862953	0.455473	0.455913
C37	C	0.290508	-0.043467	-0.044107
C38	C	0.790508	0.456533	0.455893
C39	C	0.247764	-0.091425	-0.000259
C40	C	0.747764	0.408575	0.499741
C41	C	0.277471	-0.140456	0.043600
C42	C	0.777471	0.359544	0.543600
C43	C	0.349916	-0.141518	0.043616
C44	C	0.849916	0.358482	0.543616
C45	C	0.392655	-0.093546	-0.000230
C46	C	0.892655	0.406454	0.499770
C47	C	0.124510	-0.153048	-0.000293
C48	C	0.624510	0.346952	0.499707
C49	C	0.052062	-0.151985	-0.000296
C50	C	0.552062	0.348015	0.499704
C51	C	0.069026	-0.025374	-0.000270
C52	C	0.569026	0.474626	0.499730
C53	C	0.141472	-0.026439	-0.000259
C54	C	0.641472	0.473561	0.499741
C55	C	0.169209	-0.090278	-0.000274
C56	C	0.669209	0.409722	0.499726
C57	C	0.825683	0.034517	-0.000206
C58	C	1.325683	0.534517	0.499794
C59	C	0.824556	0.111620	-0.000191
C60	C	1.324556	0.611620	0.499809
C61	C	0.947217	-0.087023	-0.000267
C62	C	1.447217	0.412977	0.499733
C63	C	1.024321	-0.088152	-0.000292
C64	C	1.524321	0.411848	0.499708
C65	C	0.879704	0.675662	-0.000110
C66	C	1.379704	1.175662	0.499890
C67	C	0.880769	0.603215	-0.000118
C68	C	1.380769	1.103215	0.499882
C69	C	0.817999	0.558508	-0.000112
C70	C	1.317999	1.058508	0.499888
C71	C	0.754160	0.586254	-0.000078
C72	C	1.254160	1.086254	0.499922
C73	C	0.753097	0.658699	-0.000062
C74	C	1.253097	1.158699	0.499938
C75	C	0.771189	0.437234	-0.043982
C76	C	1.271189	0.937234	0.456018
C77	C	0.772255	0.364790	-0.044003
C78	C	1.272255	0.864790	0.455997
C79	C	0.821275	0.335062	-0.000157
C80	C	1.321275	0.835062	0.499843
C81	C	0.869241	0.377789	0.043699
C82	C	1.369241	0.877789	0.543699
C83	C	0.868178	0.450234	0.043715
C84	C	1.368178	0.950234	0.543715
C85	C	0.819145	0.479953	-0.000129
C86	C	1.319145	0.979953	0.499871
C87	C	0.886264	0.228771	-0.000195
C88	C	1.386264	0.728771	0.499805
C89	C	0.887326	0.156322	-0.000199
C90	C	1.387326	0.656322	0.499801
C91	C	0.760716	0.139362	-0.000166
C92	C	1.260716	0.639362	0.499834
C93	C	0.759656	0.211809	-0.000154
C94	C	1.259656	0.711809	0.499846
C95	C	0.822432	0.256509	-0.000173
C96	C	1.322432	0.756509	0.499827
C97	C	0.814741	0.780502	-0.000213
C98	C	1.314741	1.280502	0.499787
C99	C	0.815873	0.703399	-0.000080
C100	C	1.315873	1.203399	0.499920
N101	N	0.820199	-0.092487	0.177921
N102	N	1.320199	0.407513	0.677921
N103	N	0.820228	-0.092489	-0.178389
N104	N	1.320228	0.407511	0.321611
C105	C	0.867599	-0.045134	0.782210
C106	C	1.367599	0.454866	1.282210
C107	C	0.867600	-0.045135	0.703408
C108	C	1.367600	0.454865	1.203408
C109	C	0.820218	-0.092486	0.664010
C110	C	1.320218	0.407514	1.164010
C111	C	0.772843	-0.139851	0.703421
C112	C	1.272843	0.360149	1.203421
C113	C	0.772848	-0.139852	0.782221
C114	C	1.272848	0.360148	1.282221
C115	C	0.756925	-0.101756	0.539192
C116	C	1.256925	0.398244	1.039192
C117	C	0.756919	-0.101749	0.460394
C118	C	1.256919	0.398251	0.960394
C119	C	0.820203	-0.092485	0.420964
C120	C	1.320203	0.407515	0.920964
C121	C	0.883494	-0.083212	0.460343
C122	C	1.383494	0.416788	0.960343
C123	C	0.883499	-0.083214	0.539143
C124	C	1.383499	0.416786	1.039143
C125	C	0.820207	-0.092490	0.578565
C126	C	1.320207	0.407510	1.078565
C127	C	0.867579	-0.045128	0.296117
C128	C	1.367579	0.454872	0.796117
C129	C	0.867581	-0.045135	0.217314
C130	C	1.367581	0.454865	0.717314
C131	C	0.772818	-0.139847	0.217328
C132	C	1.272818	0.360153	0.717328
C133	C	0.772822	-0.139844	0.296130
C134	C	1.272822	0.360156	0.796130
C135	C	0.820202	-0.092481	0.335519
C136	C	1.320202	0.407519	0.835519
H137	H	0.147094	-0.205029	-0.000294
H138	H	0.647094	0.294971	0.499706
N139	N	0.450735	-0.226241	-0.000258
N140	N	0.950735	0.273759	0.499742
H141	H	0.400632	-0.215879	-0.000268
H142	H	0.900632	0.284121	0.499732
H143	H	0.459666	-0.254077	0.046144
H144	H	0.959666	0.245923	0.546144
N145	N	0.381960	-0.194393	0.090919
N146	N	0.881960	0.305607	0.590919
H147	H	0.343894	-0.224616	0.118697
H148	H	0.843894	0.275384	0.618697
H149	H	0.415423	-0.169269	0.128391
H150	H	0.915423	0.330731	0.628391
H151	H	0.734265	-0.178405	0.671339
H152	H	1.234265	0.321595	1.171339
N153	N	0.951761	-0.073239	0.581611
N154	N	1.451761	0.426761	1.081611
H155	H	0.978278	-0.026603	0.567907
H156	H	1.478278	0.473397	1.067907
H157	H	0.980522	-0.111823	0.567844
H158	H	1.480522	0.388177	1.067844
H159	H	0.906160	-0.006565	0.328189
H160	H	1.406160	0.493435	0.828189
N161	N	0.718316	0.469294	-0.091277
N162	N	1.218316	0.969294	0.408723
H163	H	0.688098	0.431237	-0.119068
H164	H	1.188098	0.931237	0.380932
H165	H	0.743442	0.502772	-0.128738
H166	H	1.243442	1.002772	0.371262
N167	N	0.951757	-0.073218	0.417828
N168	N	1.451757	0.426782	0.917828
H169	H	0.942153	-0.074627	0.361933
H170	H	1.442153	0.425373	0.861933
H171	H	0.980558	-0.111761	0.431582
H172	H	1.480558	0.388239	0.931582
H173	H	0.242669	-0.179508	0.079306
H174	H	0.742669	0.320492	0.579306
N175	N	0.684249	0.688621	-0.000024
N176	N	1.184249	1.188621	0.499976
H177	H	0.644644	0.649309	-0.000016
H178	H	1.144644	1.149309	0.499984
H179	H	0.681049	0.718306	-0.046425
H180	H	1.181049	1.218306	0.453575
H181	H	0.177867	0.024674	-0.000242
H182	H	0.677867	0.524674	0.499758
H183	H	0.624757	0.018124	-0.000147
H184	H	1.124757	0.518124	0.499853
H185	H	0.707678	0.234392	-0.000135
H186	H	1.207678	0.734392	0.499865
H187	H	0.733201	0.330008	-0.079717
H188	H	1.233201	0.830008	0.420283
N189	N	0.947412	0.723870	-0.000118
N190	N	1.447412	1.223870	0.499882
H191	H	0.949790	0.754306	0.046297
H192	H	1.449790	1.254306	0.546297
H193	H	0.949757	0.754260	-0.046549
H194	H	1.449757	1.254260	0.453451
H195	H	0.734272	-0.178416	0.814302
H196	H	1.234272	0.321584	1.314302
N197	N	0.258473	0.009416	-0.091406
N198	N	0.758473	0.509416	0.408594
H199	H	0.206093	0.002810	-0.084767
H200	H	0.706093	0.502810	0.415233
H201	H	0.270295	0.002741	-0.146112
H202	H	0.770295	0.502741	0.353888
H203	H	0.015668	-0.203100	-0.000313
H204	H	0.515668	0.296900	0.499687
N205	N	0.918684	0.005943	0.660885
N206	N	1.418684	0.505943	1.160885
H207	H	0.967960	-0.001916	0.674563
H208	H	1.467960	0.498084	1.174563
H209	H	0.910774	0.055197	0.674630
H210	H	1.410774	0.555197	1.174630
N211	N	0.686457	0.538039	-0.000055
N212	N	1.186457	1.038039	0.499945
H213	H	0.696816	0.487936	-0.000068
H214	H	1.196816	0.987936	0.499932
H215	H	0.658622	0.546992	-0.046448
H216	H	1.158622	1.046992	0.453552
N217	N	0.922108	0.345735	0.091004
N218	N	1.422108	0.845735	0.591004
H219	H	0.952329	0.383793	0.118789
H220	H	1.452329	0.883793	0.618789
H221	H	0.952336	0.319659	0.057356
H222	H	1.452336	0.819659	0.557356
N223	N	0.949617	0.573287	-0.000149
N224	N	1.449617	1.073287	0.499851
H225	H	0.989223	0.612597	-0.000157
H226	H	1.489223	1.112597	0.499843
H227	H	0.952811	0.543596	-0.046567
H228	H	1.452811	1.043596	0.453433
N229	N	0.919906	0.496318	0.091015
N230	N	1.419906	0.996318	0.591015
H231	H	0.951123	0.466499	0.118790
H232	H	1.451123	0.966499	0.618790
H233	H	0.893900	0.522953	0.128488
H234	H	1.393900	1.022953	0.628488
N235	N	0.918721	0.005925	0.824694
N236	N	1.418721	0.505925	1.324694
H237	H	0.948739	0.035917	0.787771
H238	H	1.448739	0.535917	1.287771
H239	H	0.949336	-0.020611	0.857352
H240	H	1.449336	0.479389	1.357352
N241	N	0.039111	0.043476	-0.000258
N242	N	0.539111	0.543476	0.499742
H243	H	-0.013566	0.034626	-0.000269
H244	H	0.486434	0.534626	0.499731
H245	H	0.055499	0.070934	-0.046657
H246	H	0.555499	0.570934	0.453343
H247	H	0.937381	0.265168	-0.000210
H248	H	1.437381	0.765168	0.499790
H249	H	0.906159	-0.006574	0.185233
H250	H	1.406159	0.493426	0.685233
N251	N	0.721717	-0.190924	0.174847
N252	N	1.221717	0.309076	0.674847
H253	H	0.728902	-0.183740	0.118947
H254	H	1.228902	0.316260	0.618947
H255	H	0.672470	-0.183029	0.188643
H256	H	1.172470	0.316971	0.688643
N257	N	0.688669	-0.111743	0.581723
N258	N	1.188669	0.388257	1.081723
H259	H	0.687016	-0.154746	0.614405
H260	H	1.187016	0.345254	1.114405
H261	H	0.648610	-0.117579	0.544780
H262	H	1.148610	0.382421	1.044780
N263	N	0.721719	-0.190910	0.338633
N264	N	1.221719	0.309090	0.838633
H265	H	0.691699	-0.220905	0.301720
H266	H	1.191699	0.279095	0.801720
H267	H	0.691104	-0.164389	0.371345
H268	H	1.191104	0.335611	0.871345
N269	N	0.688655	-0.111744	0.417932
N270	N	1.188655	0.388256	0.917932
H271	H	0.662158	-0.158388	0.431641
H272	H	1.162158	0.341612	0.931641
H273	H	0.698305	-0.110298	0.362042
H274	H	1.198305	0.389702	0.862042
N275	N	0.409051	0.007207	-0.091382
N276	N	0.909051	0.507207	0.408618
H277	H	0.395605	0.000919	-0.146114
H278	H	0.895605	0.500919	0.353886
H279	H	0.459436	-0.000931	-0.084654
H280	H	0.959436	0.499069	0.415346
N281	N	0.601319	-0.228450	-0.000231
N282	N	1.101319	0.271550	0.499769
H283	H	0.562005	-0.268053	-0.000251
H284	H	1.062005	0.231947	0.499749
H285	H	0.630986	-0.231655	0.046182
H286	H	1.130986	0.268345	0.546182
N287	N	0.693010	0.091155	-0.000161
N288	N	1.193010	0.591155	0.499839
H289	H	0.665149	0.100060	0.046257
H290	H	1.165149	0.600060	0.546257
H291	H	0.703424	0.041071	-0.000203
H292	H	1.203424	0.541071	0.499797
H293	H	0.493322	0.020044	-0.000191
H294	H	0.993322	0.520044	0.499809
H295	H	0.939307	0.133741	-0.000218
H296	H	1.439307	0.633741	0.499782
