data_functionalizedCrystal
_audit_creation_method	'MofGen! by Chris Wilmer'
_symmetry_space_group_name_H-M	'P1'
_symmetry_Int_Tables_number	1
_symmetry_cell_setting	triclinic
loop_
_symmetry_equiv_pos_as_xyz
  x,y,z
_cell_length_a	15.944551
_cell_length_b	16.109301
_cell_length_c	14.586319
_cell_angle_alpha	89.996867
_cell_angle_beta	90.001139
_cell_angle_gamma	96.519891
loop_
_atom_site_label
_atom_site_type_symbol
_atom_site_fract_x
_atom_site_fract_y
_atom_site_fract_z
O1	O	0.107962	-1.103169	0.076184
O2	O	0.357962	-0.853169	0.326184
O3	O	0.607962	-0.603169	0.576184
O4	O	0.857962	-0.353169	0.826184
O5	O	0.121398	-0.861112	0.076199
O6	O	0.371398	-0.611112	0.326199
O7	O	0.621398	-0.361112	0.576199
O8	O	0.871398	-0.111112	0.826199
O9	O	-0.007597	-0.988750	0.076183
O10	O	0.242403	-0.738750	0.326183
O11	O	0.492403	-0.488750	0.576183
O12	O	0.742403	-0.238750	0.826183
O13	O	0.236957	-0.975530	0.076200
O14	O	0.486957	-0.725530	0.326200
O15	O	0.736957	-0.475530	0.576200
O16	O	0.986957	-0.225530	0.826200
O17	O	-0.007590	-0.988735	-0.076298
O18	O	0.242410	-0.738735	0.173702
O19	O	0.492410	-0.488735	0.423702
O20	O	0.742410	-0.238735	0.673702
O21	O	0.121405	-0.861096	-0.076282
O22	O	0.371405	-0.611096	0.173718
O23	O	0.621405	-0.361096	0.423718
O24	O	0.871405	-0.111096	0.673718
O25	O	0.107969	-1.103154	-0.076296
O26	O	0.357969	-0.853154	0.173704
O27	O	0.607969	-0.603154	0.423704
O28	O	0.857969	-0.353154	0.673704
Cu29	Cu	0.114688	-0.982123	-0.090212
Cu30	Cu	0.364688	-0.732123	0.159788
Cu31	Cu	0.614688	-0.482123	0.409788
Cu32	Cu	0.864688	-0.232123	0.659788
Cu33	Cu	0.114679	-0.982142	0.090114
Cu34	Cu	0.364679	-0.732142	0.340114
Cu35	Cu	0.614679	-0.482142	0.590114
Cu36	Cu	0.864679	-0.232142	0.840114
O37	O	0.236964	-0.975515	-0.076280
O38	O	0.486964	-0.725515	0.173720
O39	O	0.736964	-0.475515	0.423720
O40	O	0.986964	-0.225515	0.673720
C41	C	-0.038887	-0.988194	-0.000057
C42	C	0.211113	-0.738194	0.249943
C43	C	0.461113	-0.488194	0.499943
C44	C	0.711113	-0.238194	0.749943
C45	C	-0.132133	-0.986548	-0.000058
C46	C	0.117867	-0.736548	0.249942
C47	C	0.367867	-0.486548	0.499942
C48	C	0.617867	-0.236548	0.749942
C49	C	0.120857	-0.830129	-0.000039
C50	C	0.370857	-0.580129	0.249961
C51	C	0.620857	-0.330129	0.499961
C52	C	0.870857	-0.080129	0.749961
C53	C	0.119226	-0.737833	-0.000034
C54	C	0.369226	-0.487833	0.249966
C55	C	0.619226	-0.237833	0.499966
C56	C	0.869226	0.012167	0.749966
C57	C	0.108510	-1.134136	-0.000056
C58	C	0.358510	-0.884136	0.249944
C59	C	0.608510	-0.634136	0.499944
C60	C	0.858510	-0.384136	0.749944
C61	C	0.110141	-1.226432	-0.000055
C62	C	0.360141	-0.976432	0.249945
C63	C	0.610141	-0.726432	0.499945
C64	C	0.860141	-0.476432	0.749945
C65	C	-0.346962	-0.903499	-0.000040
C66	C	-0.096962	-0.653499	0.249960
C67	C	0.153038	-0.403499	0.499960
C68	C	0.403038	-0.153499	0.749960
C69	C	-0.407988	-0.942057	-0.075225
C70	C	-0.157988	-0.692057	0.174775
C71	C	0.092012	-0.442057	0.424775
C72	C	0.342012	-0.192057	0.674775
C73	C	-0.302858	-0.983572	-0.000051
C74	C	-0.052858	-0.733572	0.249949
C75	C	0.197142	-0.483572	0.499949
C76	C	0.447142	-0.233572	0.749949
C77	C	-0.407979	-0.942091	0.075109
C78	C	-0.157979	-0.692091	0.325109
C79	C	0.092021	-0.442091	0.575109
C80	C	0.342021	-0.192091	0.825109
C81	C	-0.467769	-0.980691	-0.000040
C82	C	-0.217769	-0.730691	0.249960
C83	C	0.032231	-0.480691	0.499960
C84	C	0.282231	-0.230691	0.749960
C85	C	-0.362656	-1.022151	-0.075297
C86	C	-0.112656	-0.772151	0.174703
C87	C	0.137344	-0.522151	0.424703
C88	C	0.387344	-0.272151	0.674703
C89	C	-0.362640	-1.022174	0.075104
C90	C	-0.112640	-0.772174	0.325104
C91	C	0.137360	-0.522174	0.575104
C92	C	0.387360	-0.272174	0.825104
C93	C	-0.423649	-1.060790	-0.000099
C94	C	-0.173649	-0.810790	0.249901
C95	C	0.076351	-0.560790	0.499901
C96	C	0.326351	-0.310790	0.749901
C97	C	-0.207856	-0.985229	-0.000058
C98	C	0.042144	-0.735229	0.249942
C99	C	0.292144	-0.485229	0.499942
C100	C	0.542144	-0.235229	0.749942
C101	C	-0.562770	-0.979039	-0.000039
C102	C	-0.312770	-0.729039	0.249961
C103	C	-0.062770	-0.479039	0.499961
C104	C	0.187230	-0.229039	0.749961
C105	C	0.268254	-0.976071	-0.000038
C106	C	0.518254	-0.726071	0.249962
C107	C	0.768254	-0.476071	0.499962
C108	C	1.018254	-0.226071	0.749962
C109	C	0.361500	-0.977717	-0.000031
C110	C	0.611500	-0.727717	0.249969
C111	C	0.861500	-0.477717	0.499969
C112	C	1.111500	-0.227717	0.749969
N113	N	0.114694	-0.982116	-0.217044
N114	N	0.364694	-0.732116	0.032956
N115	N	0.614694	-0.482116	0.282956
N116	N	0.864694	-0.232116	0.532956
C117	C	0.191975	-0.515584	-0.000040
C118	C	0.441975	-0.265584	0.249960
C119	C	0.691975	-0.015584	0.499960
C120	C	0.941975	0.234416	0.749960
C121	C	0.190435	-0.428863	-0.000046
C122	C	0.440435	-0.178863	0.249954
C123	C	0.690435	0.071137	0.499954
C124	C	0.940435	0.321137	0.749954
C125	C	0.037387	-0.448688	-0.000053
C126	C	0.287387	-0.198688	0.249947
C127	C	0.537387	0.051312	0.499947
C128	C	0.787387	0.301312	0.749947
C129	C	0.038927	-0.535407	-0.000053
C130	C	0.288927	-0.285407	0.249947
C131	C	0.538927	-0.035407	0.499947
C132	C	0.788927	0.214593	0.749947
C133	C	0.116224	-0.568853	-0.000042
C134	C	0.366224	-0.318853	0.249958
C135	C	0.616224	-0.068853	0.499958
C136	C	0.866224	0.181147	0.749958
C137	C	0.113143	-0.395412	-0.000047
C138	C	0.363143	-0.145412	0.249953
C139	C	0.613143	0.104588	0.499953
C140	C	0.863143	0.354588	0.749953
C141	C	0.111473	-0.301386	-0.000054
C142	C	0.361473	-0.051386	0.249946
C143	C	0.611473	0.198614	0.499946
C144	C	0.861473	0.448614	0.749946
C145	C	0.117894	-0.662885	-0.000037
C146	C	0.367894	-0.412885	0.249963
C147	C	0.617894	-0.162885	0.499963
C148	C	0.867894	0.087115	0.749963
C149	C	0.165642	-1.032556	-0.452049
C150	C	0.415642	-0.782556	-0.202049
C151	C	0.665642	-0.532556	0.047951
C152	C	0.915642	-0.282556	0.297951
C153	C	0.165636	-1.032564	-0.548031
C154	C	0.415636	-0.782564	-0.298031
C155	C	0.665636	-0.532564	-0.048031
C156	C	0.915636	-0.282564	0.201969
C157	C	0.063713	-0.931714	-0.548041
C158	C	0.313713	-0.681714	-0.298041
C159	C	0.563713	-0.431714	-0.048041
C160	C	0.813713	-0.181714	0.201959
C161	C	0.063715	-0.931710	-0.452062
C162	C	0.313715	-0.681710	-0.202062
C163	C	0.563715	-0.431710	0.047938
C164	C	0.813715	-0.181710	0.297938
C165	C	0.114684	-0.982130	-0.404068
C166	C	0.364684	-0.732130	-0.154068
C167	C	0.614684	-0.482130	0.095932
C168	C	0.864684	-0.232130	0.345932
C169	C	0.114676	-0.982142	-0.596029
C170	C	0.364676	-0.732142	-0.346029
C171	C	0.614676	-0.482142	-0.096029
C172	C	0.864676	-0.232142	0.153971
C173	C	0.114670	-0.982151	-0.700096
C174	C	0.364670	-0.732151	-0.450096
C175	C	0.614670	-0.482151	-0.200096
C176	C	0.864670	-0.232151	0.049904
C177	C	0.114690	-0.982122	-0.299995
C178	C	0.364690	-0.732122	-0.049995
C179	C	0.614690	-0.482122	0.200005
C180	C	0.864690	-0.232122	0.450005
N181	N	0.114666	-0.982155	0.216946
N182	N	0.364666	-0.732155	0.466946
N183	N	0.614666	-0.482155	0.716946
N184	N	0.864666	-0.232155	0.966946
H185	H	-0.313632	-0.837035	-0.000111
H186	H	-0.063632	-0.587035	0.249889
H187	H	0.186368	-0.337035	0.499889
H188	H	0.436368	-0.087035	0.749889
F189	F	0.271060	-0.372174	-0.000044
F190	F	0.521060	-0.122174	0.249956
F191	F	0.771060	0.127826	0.499956
F192	F	1.021060	0.377826	0.749956
H193	H	-0.025546	-0.421446	-0.000067
H194	H	0.224454	-0.171446	0.249933
H195	H	0.474454	0.078554	0.499933
H196	H	0.724454	0.328554	0.749933
F197	F	-0.434253	-0.897783	-0.158301
F198	F	-0.184253	-0.647783	0.091699
F199	F	0.065747	-0.397783	0.341699
F200	F	0.315747	-0.147783	0.591699
H201	H	0.022217	-0.890663	-0.587129
H202	H	0.272217	-0.640663	-0.337129
H203	H	0.522217	-0.390663	-0.087129
H204	H	0.772217	-0.140663	0.162871
H205	H	-0.022762	-0.578781	-0.000058
H206	H	0.227238	-0.328781	0.249942
H207	H	0.477238	-0.078781	0.499942
H208	H	0.727238	0.171219	0.749942
H209	H	0.022215	-0.890647	-0.412995
H210	H	0.272215	-0.640647	-0.162995
H211	H	0.522215	-0.390647	0.087005
H212	H	0.772215	-0.140647	0.337005
H213	H	-0.428048	-0.908219	0.138677
H214	H	-0.178048	-0.658219	0.388677
H215	H	0.071952	-0.408219	0.638677
H216	H	0.321952	-0.158219	0.888677
H217	H	-0.342673	-1.055984	-0.138930
H218	H	-0.092673	-0.805984	0.111070
H219	H	0.157327	-0.555984	0.361070
H220	H	0.407327	-0.305984	0.611070
F221	F	-0.467021	-1.147739	-0.000157
F222	F	-0.217021	-0.897739	0.249843
F223	F	0.032979	-0.647739	0.499843
F224	F	0.282979	-0.397739	0.749843
H225	H	0.207129	-1.073627	-0.587093
H226	H	0.457129	-0.823627	-0.337093
H227	H	0.707129	-0.573627	-0.087093
H228	H	0.957129	-0.323627	0.162907
F229	F	-0.336345	-1.066413	0.158184
F230	F	-0.086345	-0.816413	0.408184
F231	F	0.163655	-0.566413	0.658184
F232	F	0.413655	-0.316413	0.908184
F233	F	0.274240	-0.551176	-0.000031
F234	F	0.524240	-0.301176	0.249969
F235	F	0.774240	-0.051176	0.499969
F236	F	1.024240	0.198824	0.749969
F237	F	0.219882	-1.086221	-0.400974
F238	F	0.469882	-0.836221	-0.150974
F239	F	0.719882	-0.586221	0.099026
F240	F	0.969882	-0.336221	0.349026
