data_functionalizedCrystal
_audit_creation_method	'MofGen! by Chris Wilmer'
_symmetry_space_group_name_H-M	'P1'
_symmetry_Int_Tables_number	1
_symmetry_cell_setting	triclinic
loop_
_symmetry_equiv_pos_as_xyz
  x,y,z
_cell_length_a	12.645331
_cell_length_b	12.645330
_cell_length_c	16.625539
_cell_angle_alpha	89.975749
_cell_angle_beta	89.983887
_cell_angle_gamma	90.018103
loop_
_atom_site_label
_atom_site_type_symbol
_atom_site_fract_x
_atom_site_fract_y
_atom_site_fract_z
Zn1	Zn	1.620711	-0.422026	-0.455836
Zn2	Zn	1.954045	-0.088693	-0.122503
Zn3	Zn	2.287378	0.244641	0.210830
Zn4	Zn	1.620599	-0.599312	-0.321013
Zn5	Zn	1.953932	-0.265979	0.012320
Zn6	Zn	2.287266	0.067355	0.345654
Zn7	Zn	1.443432	-0.422064	-0.321027
Zn8	Zn	1.776765	-0.088731	0.012306
Zn9	Zn	2.110098	0.244602	0.345639
Zn10	Zn	1.443408	-0.599249	-0.455813
Zn11	Zn	1.776741	-0.265916	-0.122480
Zn12	Zn	2.110074	0.067418	0.210853
O13	O	1.532037	-0.510663	-0.388422
O14	O	1.865371	-0.177329	-0.055089
O15	O	2.198704	0.156004	0.278244
O16	O	1.769044	-0.445554	-0.437955
O17	O	2.102377	-0.112220	-0.104622
O18	O	2.435710	0.221113	0.228711
O19	O	1.597060	-0.575842	-0.208182
O20	O	1.930394	-0.242509	0.125151
O21	O	2.263727	0.090825	0.458484
O22	O	1.467005	-0.273712	-0.338925
O23	O	1.800339	0.059621	-0.005592
O24	O	2.133672	0.392955	0.327741
O25	O	1.768961	-0.575805	-0.338901
O26	O	2.102294	-0.242472	-0.005568
O27	O	2.435628	0.090862	0.327765
O28	O	1.597252	-0.273684	-0.437969
O29	O	1.930585	0.059650	-0.104636
O30	O	2.263919	0.392983	0.228698
O31	O	1.466896	-0.445619	-0.208193
O32	O	1.800230	-0.112286	0.125140
O33	O	2.133563	0.221048	0.458474
O34	O	1.295081	-0.445558	-0.338903
O35	O	1.628415	-0.112225	-0.005570
O36	O	1.961748	0.221109	0.327763
O37	O	1.466964	-0.575698	-0.568649
O38	O	1.800298	-0.242364	-0.235315
O39	O	2.133631	0.090969	0.098018
O40	O	1.295064	-0.575735	-0.437930
O41	O	1.628397	-0.242401	-0.104597
O42	O	1.961730	0.090932	0.228737
O43	O	1.597229	-0.445493	-0.568666
O44	O	1.930562	-0.112159	-0.235332
O45	O	2.263895	0.221174	0.098001
O46	O	1.597037	-0.747651	-0.338879
O47	O	1.930370	-0.414318	-0.005546
O48	O	2.263704	-0.080984	0.327788
O49	O	1.466855	-0.747605	-0.437916
O50	O	1.800189	-0.414271	-0.104583
O51	O	2.133522	-0.080938	0.228750
C52	C	1.256608	-0.510644	-0.388416
C53	C	1.589941	-0.177311	-0.055083
C54	C	1.923274	0.156022	0.278250
C55	C	1.138778	-0.510662	-0.388433
C56	C	1.472111	-0.177329	-0.055099
C57	C	1.805444	0.156005	0.278234
C58	C	1.093920	-0.592696	-0.450639
C59	C	1.427254	-0.259363	-0.117306
C60	C	1.760587	0.073970	0.216027
C61	C	0.971360	-0.593033	-0.450454
C62	C	1.304693	-0.259700	-0.117121
C63	C	1.638027	0.073634	0.216212
C64	C	0.970828	-0.540499	-0.303355
C65	C	1.304161	-0.207166	0.029978
C66	C	1.637494	0.126167	0.363312
C67	C	1.093426	-0.541079	-0.303715
C68	C	1.426759	-0.207745	0.029618
C69	C	1.760093	0.125588	0.362952
C70	C	1.093631	-0.398617	-0.410560
C71	C	1.426964	-0.065284	-0.077227
C72	C	1.760297	0.268050	0.256106
C73	C	0.971025	-0.399236	-0.412434
C74	C	1.304358	-0.065903	-0.079100
C75	C	1.637692	0.267431	0.254233
C76	C	1.531960	-0.786093	-0.388411
C77	C	1.865293	-0.452759	-0.055078
C78	C	2.198627	-0.119426	0.278256
C79	C	1.532024	-0.903923	-0.388433
C80	C	1.865357	-0.570589	-0.055100
C81	C	2.198691	-0.237256	0.278233
C82	C	1.450464	-1.071502	-0.450930
C83	C	1.783798	-0.738168	-0.117596
C84	C	2.117131	-0.404835	0.215737
C85	C	1.450047	-0.948942	-0.450729
C86	C	1.783381	-0.615609	-0.117395
C87	C	2.116714	-0.282275	0.215938
C88	C	1.501782	-0.948516	-0.303460
C89	C	1.835116	-0.615182	0.029874
C90	C	2.168449	-0.281849	0.363207
C91	C	1.501284	-1.071114	-0.303839
C92	C	1.834618	-0.737781	0.029494
C93	C	2.167951	-0.404447	0.362828
C94	C	1.644324	-1.071011	-0.410221
C95	C	1.977657	-0.737678	-0.076888
C96	C	2.310991	-0.404345	0.256445
C97	C	1.643636	-0.948405	-0.412079
C98	C	1.976969	-0.615071	-0.078746
C99	C	2.310303	-0.281738	0.254587
C100	C	1.808543	-0.510682	-0.388429
C101	C	2.141876	-0.177349	-0.055096
C102	C	2.475209	0.155985	0.278237
C103	C	1.926373	-0.510690	-0.388432
C104	C	2.259706	-0.177357	-0.055099
C105	C	2.593039	0.155977	0.278235
C106	C	1.532106	-0.510584	-0.598731
C107	C	1.865440	-0.177250	-0.265398
C108	C	2.198773	0.156083	0.067935
C109	C	1.532136	-0.510550	-0.688353
C110	C	1.865469	-0.177217	-0.355019
C111	C	2.198802	0.156117	-0.021686
C112	C	1.532144	-0.234157	-0.388451
C113	C	1.865477	0.099176	-0.055118
C114	C	2.198811	0.432509	0.278215
C115	C	1.532189	-0.116327	-0.388464
C116	C	1.865523	0.217006	-0.055130
C117	C	2.198856	0.550339	0.278203
C118	C	1.532185	-0.510431	-1.016528
C119	C	1.865518	-0.177098	-0.683195
C120	C	2.198851	0.156235	-0.349862
C121	C	1.532168	-0.510468	-0.925220
C122	C	1.865501	-0.177135	-0.591887
C123	C	2.198835	0.156199	-0.258553
C124	C	1.532161	-0.510492	-0.852443
C125	C	1.865494	-0.177158	-0.519110
C126	C	2.198827	0.156175	-0.185777
C127	C	1.532143	-0.510526	-0.761129
C128	C	1.865476	-0.177193	-0.427796
C129	C	2.198810	0.156140	-0.094462
C130	C	1.532030	-0.510665	-0.178932
C131	C	1.865363	-0.177332	0.154402
C132	C	2.198696	0.156002	0.487735
C133	C	1.532206	-0.510400	-0.089311
C134	C	1.865539	-0.177067	0.244022
C135	C	2.198872	0.156267	0.577356
H136	H	1.122641	-0.337503	-0.365257
H137	H	1.455974	-0.004169	-0.031923
H138	H	1.789307	0.329164	0.301410
Br139	Br	1.681653	-0.899824	-0.516312
Br140	Br	2.014986	-0.566491	-0.182978
Br141	Br	2.348320	-0.233158	0.150355
H142	H	1.705211	-1.099998	-0.364725
H143	H	2.038544	-0.766665	-0.031391
H144	H	2.371878	-0.433332	0.301942
Br145	Br	1.364662	-1.118942	-0.273117
Br146	Br	1.697995	-0.785608	0.060217
Br147	Br	2.031329	-0.452275	0.393550
Br148	Br	1.481580	-0.898678	-0.555746
Br149	Br	1.814914	-0.565345	-0.222413
Br150	Br	2.148247	-0.232012	0.110921
H151	H	0.941305	-0.574438	-0.513527
H152	H	1.274638	-0.241105	-0.180194
H153	H	1.607971	0.092229	0.153139
Br154	Br	1.312775	-1.123032	-0.427235
Br155	Br	1.646108	-0.789699	-0.093901
Br156	Br	1.979442	-0.456366	0.239432
Br157	Br	0.919974	-0.291982	-0.342491
Br158	Br	1.253307	0.041351	-0.009158
Br159	Br	1.586641	0.374685	0.324175
H160	H	1.558226	-1.100770	-0.255710
H161	H	1.891560	-0.767437	0.077623
H162	H	2.224893	-0.434103	0.410956
Br163	Br	1.141043	-0.677572	-0.272562
Br164	Br	1.474376	-0.344239	0.060771
Br165	Br	1.807709	-0.010905	0.394105
Br166	Br	1.145218	-0.353217	-0.512219
Br167	Br	1.478551	-0.019884	-0.178886
Br168	Br	1.811885	0.313449	0.154447
Br169	Br	1.142889	-0.445788	-0.223791
Br170	Br	1.476223	-0.112454	0.109542
Br171	Br	1.809556	0.220879	0.442875
H172	H	1.559420	-0.919356	-0.255646
H173	H	1.892753	-0.586023	0.077687
H174	H	2.226086	-0.252689	0.411020
Br175	Br	1.143148	-0.562092	-0.556092
Br176	Br	1.476482	-0.228758	-0.222759
Br177	Br	1.809815	0.104575	0.110574
H178	H	0.940099	-0.621498	-0.284334
H179	H	1.273432	-0.288165	0.048999
H180	H	1.606766	0.045168	0.382333
H181	H	1.420666	-0.917905	-0.284694
H182	H	1.753999	-0.584571	0.048639
H183	H	2.087332	-0.251238	0.381972
Br184	Br	0.922419	-0.731437	-0.426013
Br185	Br	1.255752	-0.398104	-0.092680
Br186	Br	1.589085	-0.064770	0.240653
Br187	Br	1.145222	-0.730294	-0.426476
Br188	Br	1.478556	-0.396961	-0.093143
Br189	Br	1.811889	-0.063628	0.240190
H190	H	1.469211	-1.100914	-0.514144
H191	H	1.802545	-0.767581	-0.180811
H192	H	2.135878	-0.434248	0.152523
H193	H	0.941687	-0.482584	-0.255733
H194	H	1.275020	-0.149251	0.077600
H195	H	1.608354	0.184083	0.410933
Br196	Br	1.690307	-1.122420	-0.511740
Br197	Br	2.023640	-0.789086	-0.178407
Br198	Br	2.356973	-0.455753	0.154926
H199	H	0.941974	-0.376748	-0.475046
H200	H	1.275307	-0.043415	-0.141712
H201	H	1.608641	0.289918	0.191621
Br202	Br	1.750475	-0.897308	-0.341777
Br203	Br	2.083808	-0.563975	-0.008444
Br204	Br	2.417141	-0.230641	0.324890
H205	H	1.366916	-0.919708	-0.436315
H206	H	1.700249	-0.586374	-0.102981
H207	H	2.033582	-0.253041	0.230352
