data_functionalizedCrystal
_audit_creation_method	'MofGen! by Chris Wilmer'
_symmetry_space_group_name_H-M	'P1'
_symmetry_Int_Tables_number	1
_symmetry_cell_setting	triclinic
loop_
_symmetry_equiv_pos_as_xyz
  x,y,z
_cell_length_a	6.817900
_cell_length_b	14.858572
_cell_length_c	19.453103
_cell_angle_alpha	95.587600
_cell_angle_beta	101.709178
_cell_angle_gamma	104.524003
loop_
_atom_site_label
_atom_site_type_symbol
_atom_site_fract_x
_atom_site_fract_y
_atom_site_fract_z
V1	V	-4.029541	-0.290394	-0.097624
V2	V	-3.529541	0.209606	0.402376
O3	O	-4.025993	-0.284422	0.004236
O4	O	-3.525993	0.215578	0.504236
O5	O	-3.972392	-0.288836	-0.193134
O6	O	-3.472392	0.211164	0.306866
O7	O	-3.986298	-0.416850	-0.096322
O8	O	-3.486298	0.083150	0.403678
O9	O	-4.011990	-0.155521	-0.093246
O10	O	-3.511990	0.344479	0.406754
V11	V	-4.513635	-0.274211	-0.085417
V12	V	-4.013635	0.225789	0.414583
O13	O	-4.289548	-0.325895	-0.124402
O14	O	-3.789548	0.174105	0.375598
O15	O	-4.703825	-0.238710	-0.058639
O16	O	-4.203825	0.261290	0.441361
O17	O	-4.347578	-0.275769	0.010094
O18	O	-3.847578	0.224231	0.510094
O19	O	-4.634580	-0.280183	-0.187277
O20	O	-4.134580	0.219817	0.312723
O21	O	-4.648583	-0.409084	-0.089794
O22	O	-4.148583	0.090916	0.410206
O23	O	-4.333671	-0.147755	-0.086719
O24	O	-3.833671	0.352245	0.413281
C25	C	-3.815097	-0.284365	-0.216412
C26	C	-3.315097	0.215635	0.283588
C27	C	-3.849691	-0.283934	-0.294494
C28	C	-3.349691	0.216066	0.205506
C29	C	-3.832836	-0.447659	-0.092917
C30	C	-3.332836	0.052341	0.407083
C31	C	-3.878705	-0.551040	-0.092484
C32	C	-3.378705	-0.051040	0.407516
C33	C	-4.046590	-0.929601	-0.090903
C34	C	-3.546590	-0.429601	0.409097
C35	C	-3.999871	-0.824274	-0.091343
C36	C	-3.499871	-0.324274	0.408657
C37	C	-3.962649	-0.740324	-0.091694
C38	C	-3.462649	-0.240324	0.408306
C39	C	-3.915927	-0.634990	-0.092133
C40	C	-3.415927	-0.134990	0.407867
C41	C	-4.047907	-0.288382	-0.334756
C42	C	-3.547907	0.211618	0.165244
C43	C	-4.080418	-0.287986	-0.408124
C44	C	-3.580418	0.212014	0.091876
C45	C	-3.914691	-0.283124	-0.441224
C46	C	-3.414691	0.216876	0.058776
C47	C	-3.716450	-0.278681	-0.400953
C48	C	-3.216450	0.221319	0.099047
C49	C	-3.683950	-0.279086	-0.327588
C50	C	-3.183950	0.220914	0.172412
N51	N	-3.803586	-0.225813	-0.547401
N52	N	-3.303586	0.274187	-0.047401
N53	N	-3.834471	-0.225426	-0.617095
N54	N	-3.334471	0.274574	-0.117095
C55	C	-4.012601	-0.281905	-0.662270
C56	C	-3.512601	0.218095	-0.162270
N57	N	-4.158705	-0.338774	-0.635116
N58	N	-3.658705	0.161226	-0.135116
N59	N	-4.127821	-0.339156	-0.565416
N60	N	-3.627821	0.160844	-0.065416
C61	C	-3.949912	-0.282685	-0.520776
C62	C	-3.449912	0.217315	-0.020776
C63	C	-4.246082	-0.285925	-0.782086
C64	C	-3.746082	0.214075	-0.282086
C65	C	-4.278588	-0.285535	-0.855456
C66	C	-3.778588	0.214465	-0.355456
C67	C	-3.914609	-0.276220	-0.848283
C68	C	-3.414609	0.223780	-0.348283
C69	C	-3.882114	-0.276620	-0.774915
C70	C	-3.382114	0.223380	-0.274915
C71	C	-4.047855	-0.281468	-0.741821
C72	C	-3.547855	0.218532	-0.241821
C73	C	-4.168214	-0.280237	0.033367
C74	C	-3.668214	0.219763	0.533367
C75	C	-4.112858	-0.280674	0.111449
C76	C	-3.612858	0.219326	0.611449
C77	C	-4.150476	-0.116941	-0.090126
C78	C	-3.650476	0.383059	0.409874
C79	C	-4.083845	-0.013559	-0.090555
C80	C	-3.583845	0.486441	0.409445
H81	H	-4.182874	-0.292336	-0.307816
H82	H	-3.682874	0.207664	0.192184
N83	N	-4.492395	-0.290340	-0.898885
N84	N	-3.992395	0.209660	-0.398885
H85	H	-4.543053	-0.348334	-0.936388
H86	H	-4.043053	0.151666	-0.436388
H87	H	-4.592292	-0.293435	-0.866732
H88	H	-4.092292	0.206565	-0.366732
N89	N	-4.294221	-0.292786	-0.451562
N90	N	-3.794221	0.207214	0.048438
H91	H	-4.394284	-0.295920	-0.419464
H92	H	-3.894284	0.204080	0.080536
H93	H	-4.286553	-0.234868	-0.475247
H94	H	-3.786553	0.265132	0.024753
H95	H	-3.581517	-0.274724	-0.427909
H96	H	-3.081517	0.225276	0.072091
H97	H	-4.381038	-0.289871	-0.755139
H98	H	-3.881038	0.210129	-0.255139
N99	N	-3.470148	-0.274277	-0.284152
N100	N	-2.970148	0.225723	0.215848
H101	H	-3.477613	-0.332184	-0.260460
H102	H	-2.977613	0.167816	0.239540
H103	H	-3.370197	-0.271106	-0.316290
H104	H	-2.870197	0.228894	0.183710
H105	H	-3.779674	-0.272267	-0.875233
H106	H	-3.279674	0.227733	-0.375233
N107	N	-3.668320	-0.271823	-0.731484
N108	N	-3.168320	0.228177	-0.231484
H109	H	-3.568262	-0.268684	-0.763584
H110	H	-3.068262	0.231316	-0.263584
H111	H	-3.617842	-0.213840	-0.693977
H112	H	-3.117842	0.286160	-0.193977
