data_functionalizedCrystal
_audit_creation_method	'MofGen! by Chris Wilmer'
_symmetry_space_group_name_H-M	'P1'
_symmetry_Int_Tables_number	1
_symmetry_cell_setting	triclinic
loop_
_symmetry_equiv_pos_as_xyz
  x,y,z
_cell_length_a	6.394989
_cell_length_b	16.992694
_cell_length_c	15.455313
_cell_angle_alpha	92.857794
_cell_angle_beta	87.254133
_cell_angle_gamma	88.582967
loop_
_atom_site_label
_atom_site_type_symbol
_atom_site_fract_x
_atom_site_fract_y
_atom_site_fract_z
O1	O	-0.435072	-1.048122	-0.072012
O2	O	-0.430202	-0.819790	-0.072038
O3	O	-0.129113	-0.937197	-0.072026
O4	O	-0.736160	-0.930715	-0.072025
O5	O	-0.146255	-0.930482	0.072236
O6	O	-0.447343	-0.813075	0.072223
O7	O	-0.452214	-1.041407	0.072249
Cu8	Cu	-0.451344	-0.926628	0.085408
Cu9	Cu	-0.431071	-0.934569	-0.085198
O10	O	-0.753302	-0.924000	0.072236
C11	C	-0.432511	-0.787158	0.000089
C12	C	-0.413829	-0.699930	0.000079
C13	C	-0.449904	-1.074039	0.000120
C14	C	-0.468586	-1.161267	0.000124
N15	N	-0.465602	-0.921049	0.205403
C16	C	-0.059649	-0.932558	0.000102
C17	C	0.177240	-0.928641	0.000100
N18	N	-0.416798	-0.940154	-0.205192
C19	C	-0.594077	-0.651470	0.000080
C20	C	-0.576513	-0.569510	0.000092
C21	C	-0.378698	-0.536010	0.000097
C22	C	-0.198437	-0.584476	0.000099
C23	C	-0.216003	-0.666434	0.000093
C24	C	-0.305891	-0.291692	0.000120
C25	C	-0.288338	-0.209727	0.000123
C26	C	-0.666416	-0.194766	0.000118
C27	C	-0.683964	-0.276728	0.000107
C28	C	-0.503704	-0.325186	0.000113
N29	N	-0.360740	-0.452233	0.000106
N30	N	-0.521664	-0.408961	0.000110
C31	C	-0.337742	-0.970946	0.250803
C32	C	-0.348545	-0.966733	0.341610
C33	C	-0.487220	-0.912628	0.387016
C34	C	-0.615085	-0.862725	0.341611
C35	C	-0.604270	-0.866934	0.250805
C36	C	-0.533847	-0.894461	0.658596
C37	C	-0.544658	-0.890257	0.749408
C38	C	-0.278114	-0.994265	0.749401
C39	C	-0.267319	-0.998472	0.658594
C40	C	-0.395176	-0.948567	0.613196
N41	N	-0.498271	-0.908323	0.479836
N42	N	-0.384114	-0.952869	0.520378
H43	H	-0.755159	-0.678739	0.000075
C44	C	-0.114755	-1.057988	0.608654
N45	N	0.000158	-1.102817	0.571039
H46	H	-0.159109	-0.331137	0.000126
H47	H	-0.037373	-0.557193	0.000115
C48	C	-0.674784	-0.839668	0.608670
N49	N	-0.781047	-0.798432	0.571063
H50	H	-0.708384	-0.826302	0.213841
H51	H	-0.723290	-0.530057	0.000092
H52	H	-0.845045	-0.303997	0.000093
C53	C	-0.207835	-1.021605	0.391545
N54	N	-0.101825	-1.062930	0.429156
H55	H	-0.813173	-0.155303	0.000115
C56	C	-0.017715	-0.719740	0.000089
N57	N	0.131642	-0.759889	0.000089
C58	C	-0.185186	-1.030466	0.200864
N59	N	-0.070270	-1.075296	0.163253
C60	C	-0.137463	-1.049150	0.799346
N61	N	-0.031511	-1.090489	0.836965
C62	C	-0.697211	-0.830732	0.799353
N63	N	-0.812109	-0.785900	0.836972
H64	H	-0.127245	-0.182455	0.000126
C65	C	-0.767609	-0.803201	0.391561
N66	N	-0.882492	-0.758365	0.429183
