data_functionalizedCrystal
_audit_creation_method	'MofGen! by Chris Wilmer'
_symmetry_space_group_name_H-M	'P1'
_symmetry_Int_Tables_number	1
_symmetry_cell_setting	triclinic
loop_
_symmetry_equiv_pos_as_xyz
  x,y,z
_cell_length_a	23.532407
_cell_length_b	23.532407
_cell_length_c	9.565339
_cell_angle_alpha	89.995586
_cell_angle_beta	90.001814
_cell_angle_gamma	82.848678
loop_
_atom_site_label
_atom_site_type_symbol
_atom_site_fract_x
_atom_site_fract_y
_atom_site_fract_z
O1	O	0.755259	0.069131	-0.116100
O2	O	1.088593	0.402464	0.217234
O3	O	1.421926	0.735797	0.550567
O4	O	0.589396	0.079134	-0.116143
O5	O	0.922729	0.412467	0.217191
O6	O	1.256062	0.745801	0.550524
O7	O	0.677329	-0.008799	-0.116094
O8	O	1.010662	0.324534	0.217239
O9	O	1.343996	0.657867	0.550572
O10	O	0.667326	0.157064	-0.116148
O11	O	1.000659	0.490397	0.217185
O12	O	1.333993	0.823731	0.550519
O13	O	0.677322	-0.008794	0.116426
O14	O	1.010656	0.324539	0.449759
O15	O	1.343989	0.657873	0.783093
O16	O	0.589389	0.079139	0.116377
O17	O	0.922722	0.412473	0.449711
O18	O	1.256056	0.745806	0.783044
O19	O	0.755252	0.069136	0.116421
O20	O	1.088586	0.402470	0.449754
O21	O	1.421919	0.735803	0.783087
Zn22	Zn	0.672319	0.074139	0.153317
Zn23	Zn	1.005653	0.407472	0.486650
Zn24	Zn	1.338986	0.740805	0.819983
Zn25	Zn	0.672329	0.074131	-0.153039
Zn26	Zn	1.005662	0.407465	0.180295
Zn27	Zn	1.338995	0.740798	0.513628
O28	O	0.667319	0.157070	0.116372
O29	O	1.000652	0.490403	0.449705
O30	O	1.333986	0.823736	0.783039
C31	C	0.568176	0.078882	0.000112
C32	C	0.901510	0.412215	0.333446
C33	C	1.234843	0.745549	0.666779
C34	C	0.504959	0.078116	0.000097
C35	C	0.838293	0.411449	0.333430
C36	C	1.171626	0.744783	0.666764
C37	C	0.105856	0.125350	0.000145
C38	C	0.439190	0.458683	0.333478
C39	C	0.772523	0.792016	0.666812
C40	C	0.046456	0.124638	0.000154
C41	C	0.379789	0.457971	0.333487
C42	C	0.713123	0.791305	0.666820
O43	O	0.009711	0.168424	0.000190
O44	O	0.343045	0.501757	0.333524
O45	O	0.676378	0.835091	0.666857
N46	N	0.023830	0.072362	0.000168
N47	N	0.357163	0.405695	0.333502
N48	N	0.690496	0.739028	0.666835
C49	C	0.060607	0.020794	0.000188
C50	C	0.393941	0.354127	0.333522
C51	C	0.727274	0.687460	0.666855
O52	O	0.035908	-0.023737	0.000203
O53	O	0.369241	0.309596	0.333536
O54	O	0.702574	0.642930	0.666870
C55	C	0.120006	0.021506	0.000190
C56	C	0.453340	0.354839	0.333523
C57	C	0.786673	0.688172	0.666856
C58	C	0.142629	0.073785	0.000161
C59	C	0.475962	0.407119	0.333494
C60	C	0.809296	0.740452	0.666828
C61	C	0.128479	0.177625	0.000118
C62	C	0.461813	0.510958	0.333451
C63	C	0.795146	0.844292	0.666784
C64	C	0.187876	0.178336	0.000106
C65	C	0.521209	0.511670	0.333440
C66	C	0.854542	0.845003	0.666773
C67	C	0.224649	0.126772	0.000122
C68	C	0.557982	0.460105	0.333456
C69	C	0.891315	0.793439	0.666789
C70	C	0.202025	0.074497	0.000149
C71	C	0.535359	0.407830	0.333483
C72	C	0.868692	0.741163	0.666816
C73	C	0.156783	-0.030062	0.000220
C74	C	0.490116	0.303271	0.333553
C75	C	0.823450	0.636605	0.666886
C76	C	0.216185	-0.029345	0.000222
C77	C	0.549519	0.303988	0.333555
C78	C	0.882852	0.637321	0.666889
C79	C	0.238808	0.022934	0.000193
C80	C	0.572141	0.356268	0.333527
C81	C	0.905475	0.689601	0.666860
C82	C	0.298194	0.023643	0.000154
C83	C	0.631528	0.356977	0.333487
C84	C	0.964861	0.690310	0.666821
N85	N	0.320820	0.075920	0.000139
N86	N	0.654154	0.409253	0.333473
N87	N	0.987487	0.742586	0.666806
C88	C	0.284048	0.127484	0.000123
C89	C	0.617381	0.460817	0.333457
C90	C	0.950714	0.794151	0.666790
C91	C	-0.064135	0.019302	0.000188
C92	C	0.269198	0.352635	0.333522
C93	C	0.602532	0.685969	0.666855
C94	C	-0.123533	0.018589	0.000177
C95	C	0.209800	0.351923	0.333510
C96	C	0.543134	0.685256	0.666844
C97	C	-0.137680	0.122434	0.000145
C98	C	0.195653	0.455768	0.333478
C99	C	0.528986	0.789101	0.666812
C100	C	-0.078281	0.123146	0.000146
C101	C	0.255052	0.456480	0.333480
C102	C	0.588385	0.789813	0.666813
C103	C	-0.041509	0.071578	0.000174
C104	C	0.291824	0.404912	0.333507
C105	C	0.625158	0.738245	0.666840
C106	C	0.408784	0.128974	0.000098
C107	C	0.742118	0.462307	0.333432
C108	C	1.075451	0.795640	0.666765
C109	C	0.468186	0.129680	0.000081
C110	C	0.801520	0.463014	0.333414
C111	C	1.134853	0.796347	0.666748
C112	C	0.482329	0.025836	0.000121
C113	C	0.815662	0.359169	0.333454
C114	C	1.148995	0.692503	0.666787
C115	C	0.422932	0.025129	0.000130
C116	C	0.756265	0.358462	0.333464
C117	C	1.089598	0.691796	0.666797
C118	C	0.386160	0.076702	0.000124
C119	C	0.719494	0.410036	0.333457
C120	C	1.052827	0.743369	0.666791
O121	O	0.334974	-0.020119	0.000123
O122	O	0.668307	0.313214	0.333456
O123	O	1.001640	0.646547	0.666790
O124	O	0.308755	0.172007	0.000127
O125	O	0.642089	0.505340	0.333461
O126	O	0.975422	0.838674	0.666794
C127	C	0.677071	-0.030013	0.000169
C128	C	1.010404	0.303321	0.333503
C129	C	1.343738	0.636654	0.666836
C130	C	0.676305	-0.093230	0.000180
C131	C	1.009638	0.240104	0.333513
C132	C	1.342972	0.573437	0.666847
C133	C	0.723539	-0.492333	0.000116
C134	C	1.056872	-0.158999	0.333449
C135	C	1.390205	0.174334	0.666782
C136	C	0.722827	-0.551733	0.000105
C137	C	1.056160	-0.218400	0.333438
C138	C	1.389494	0.114934	0.666771
O139	O	0.766613	-0.588478	0.000065
O140	O	1.099946	-0.255144	0.333398
O141	O	1.433280	0.078189	0.666731
N142	N	0.670551	-0.574359	0.000092
N143	N	1.003884	-0.241026	0.333426
N144	N	1.337217	0.092307	0.666759
C145	C	0.618983	-0.537582	0.000076
C146	C	0.952316	-0.204248	0.333410
C147	C	1.285649	0.129085	0.666743
O148	O	0.574452	-0.562281	0.000063
O149	O	0.907785	-0.228948	0.333397
O150	O	1.241119	0.104385	0.666730
C151	C	0.619695	-0.478182	0.000077
C152	C	0.953028	-0.144849	0.333410
C153	C	1.286361	0.188484	0.666744
C154	C	0.671974	-0.455560	0.000104
C155	C	1.005308	-0.122227	0.333437
C156	C	1.338641	0.211107	0.666770
C157	C	0.775814	-0.469710	0.000141
C158	C	1.109147	-0.136376	0.333474
C159	C	1.442481	0.196957	0.666807
C160	C	0.776525	-0.410313	0.000154
C161	C	1.109859	-0.076980	0.333487
C162	C	1.443192	0.256353	0.666821
C163	C	0.724961	-0.373540	0.000142
C164	C	1.058294	-0.040207	0.333476
C165	C	1.391628	0.293126	0.666809
C166	C	0.672685	-0.396164	0.000117
C167	C	1.006019	-0.062830	0.333451
C168	C	1.339352	0.270503	0.666784
C169	C	0.568127	-0.441406	0.000051
C170	C	0.901460	-0.108073	0.333384
C171	C	1.234794	0.225261	0.666718
C172	C	0.568844	-0.382004	0.000051
C173	C	0.902177	-0.048670	0.333384
C174	C	1.235510	0.284663	0.666717
C175	C	0.621123	-0.359381	0.000078
C176	C	0.954457	-0.026048	0.333411
C177	C	1.287790	0.307286	0.666744
C178	C	0.621832	-0.299995	0.000119
C179	C	0.955166	0.033339	0.333452
C180	C	1.288499	0.366672	0.666785
N181	N	0.674109	-0.277368	0.000131
N182	N	1.007442	0.055965	0.333465
N183	N	1.340775	0.389298	0.666798
C184	C	0.725673	-0.314141	0.000143
C185	C	1.059006	0.019192	0.333476
C186	C	1.392340	0.352525	0.666810
C187	C	0.617491	-0.662324	0.000072
C188	C	0.950824	-0.328991	0.333405
C189	C	1.284158	0.004343	0.666739
C190	C	0.616778	-0.721722	0.000081
C191	C	0.950112	-0.388389	0.333415
C192	C	1.283445	-0.055055	0.666748
C193	C	0.720623	-0.735869	0.000107
C194	C	1.053957	-0.402536	0.333441
C195	C	1.387290	-0.069203	0.666774
C196	C	0.721335	-0.676470	0.000108
C197	C	1.054669	-0.343137	0.333441
C198	C	1.388002	-0.009804	0.666775
C199	C	0.669767	-0.639698	0.000085
C200	C	1.003101	-0.306365	0.333418
C201	C	1.336434	0.026969	0.666751
C202	C	0.727163	-0.189405	0.000173
C203	C	1.060496	0.143929	0.333506
C204	C	1.393829	0.477262	0.666839
C205	C	0.727869	-0.130003	0.000192
C206	C	1.061203	0.203331	0.333525
C207	C	1.394536	0.536664	0.666858
C208	C	0.624025	-0.115860	0.000158
C209	C	0.957358	0.217473	0.333492
C210	C	1.290692	0.550806	0.666825
C211	C	0.623318	-0.175257	0.000147
C212	C	0.956651	0.158076	0.333480
C213	C	1.289985	0.491409	0.666813
C214	C	0.674891	-0.212029	0.000149
C215	C	1.008225	0.121305	0.333482
C216	C	1.341558	0.454638	0.666816
O217	O	0.578070	-0.263215	0.000153
O218	O	0.911403	0.070118	0.333487
O219	O	1.244736	0.403451	0.666820
O220	O	0.770196	-0.289433	0.000138
O221	O	1.103529	0.043900	0.333471
O222	O	1.436863	0.377233	0.666804
C223	C	0.776472	0.069388	0.000163
C224	C	1.109805	0.402722	0.333496
C225	C	1.443138	0.736055	0.666829
C226	C	0.839689	0.070154	0.000169
C227	C	1.173022	0.403487	0.333502
C228	C	1.506355	0.736821	0.666835
C229	C	0.667577	0.178283	0.000105
C230	C	1.000910	0.511616	0.333439
C231	C	1.334244	0.844949	0.666772
C232	C	0.668343	0.241500	0.000086
C233	C	1.001676	0.574833	0.333419
C234	C	1.335010	0.908167	0.666752
N235	N	0.672317	0.074143	0.362396
N236	N	1.005651	0.407477	0.695729
N237	N	1.338984	0.740810	1.029063
N238	N	0.672335	0.074122	-0.362118
N239	N	1.005669	0.407456	-0.028785
N240	N	1.339002	0.740789	0.304549
C241	C	0.631639	0.114796	0.453577
C242	C	0.964972	0.448130	0.786910
C243	C	1.298306	0.781463	1.120243
C244	C	0.683041	0.125556	0.546765
C245	C	1.016375	0.458889	0.880098
C246	C	1.349708	0.792223	1.213431
C247	C	0.620937	0.063388	0.546763
C248	C	0.954271	0.396721	0.880097
C249	C	1.287604	0.730054	1.213430
C250	C	0.723745	0.084929	0.453532
C251	C	1.057079	0.418262	0.786866
C252	C	1.390412	0.751595	1.120199
C253	C	0.661608	0.022738	0.453523
C254	C	0.994941	0.356071	0.786856
C255	C	1.328274	0.689405	1.120189
C256	C	0.713047	0.033476	0.546669
C257	C	1.046381	0.366809	0.880002
C258	C	1.379714	0.700142	1.213335
H259	H	0.770443	-0.111587	0.000217
H260	H	1.103777	0.221746	0.333550
H261	H	1.437110	0.555080	0.666884
O262	O	0.649575	-0.034814	0.399209
O263	O	0.982909	0.298519	0.732542
O264	O	1.316242	0.631852	1.065876
H265	H	0.606872	-0.043636	0.436479
H266	H	0.940206	0.289697	0.769812
H267	H	1.273539	0.623031	1.103146
H268	H	0.577479	0.054300	0.587719
H269	H	0.910812	0.387633	0.921053
H270	H	1.244146	0.720966	1.254386
H271	H	0.486602	0.172255	0.000057
H272	H	0.819935	0.505588	0.333390
H273	H	1.153269	0.838921	0.666723
H274	H	-0.167632	0.164421	0.000139
H275	H	0.165701	0.497754	0.333472
H276	H	0.499035	0.831087	0.666805
O277	O	0.560389	-0.746116	0.000079
O278	O	0.893722	-0.412782	0.333412
O279	O	1.227056	-0.079449	0.666746
H280	H	0.568550	-0.793598	0.000087
H281	H	0.901884	-0.460265	0.333420
H282	H	1.235217	-0.126931	0.666753
H283	H	0.404512	-0.017441	0.000133
H284	H	0.737845	0.315892	0.333467
H285	H	1.071178	0.649225	0.666800
O286	O	0.566929	-0.199656	0.000134
O287	O	0.900262	0.133677	0.333468
O288	O	1.233595	0.467011	0.666801
H289	H	0.564114	-0.226383	0.094902
H290	H	0.897447	0.106950	0.428236
H291	H	1.230781	0.440284	0.761569
H292	H	0.692112	0.169019	0.587721
H293	H	1.025445	0.502352	0.921054
H294	H	1.358778	0.835686	1.254387
O295	O	0.782788	-0.229059	0.000186
O296	O	1.116121	0.104275	0.333519
O297	O	1.449455	0.437608	0.666852
H298	H	0.784943	-0.256465	0.094952
H299	H	1.118276	0.076868	0.428285
H300	H	1.451609	0.410201	0.761618
O301	O	0.088821	0.233245	0.000095
O302	O	0.422154	0.566579	0.333428
O303	O	0.755487	0.899912	0.666761
H304	H	0.114541	0.269709	0.000067
H305	H	0.447875	0.603043	0.333400
H306	H	0.781208	0.936376	0.666734
O307	O	0.832917	-0.385924	0.000157
O308	O	1.166250	-0.052591	0.333490
O309	O	1.499583	0.280743	0.666824
H310	H	0.835737	-0.359209	0.094933
H311	H	1.169070	-0.025875	0.428266
H312	H	1.502403	0.307458	0.761600
H313	H	0.378851	0.170970	0.000098
H314	H	0.712185	0.504303	0.333431
H315	H	1.045518	0.837637	0.666764
H316	H	0.525555	-0.459814	0.000021
H317	H	0.858889	-0.126481	0.333354
H318	H	1.192222	0.206852	0.666687
H319	H	0.747493	-0.000914	0.587286
H320	H	1.080826	0.332419	0.920619
H321	H	1.414159	0.665752	1.253953
O322	O	0.781327	0.097036	0.399537
O323	O	1.114660	0.430369	0.732871
O324	O	1.447993	0.763702	1.066204
H325	H	0.775728	0.136532	0.334978
H326	H	1.109061	0.469865	0.668311
H327	H	1.442395	0.803198	1.001644
H328	H	0.246123	-0.071339	0.000245
H329	H	0.579457	0.261994	0.333579
H330	H	0.912790	0.595327	0.666912
H331	H	0.206289	0.220908	0.000082
H332	H	0.539622	0.554241	0.333416
H333	H	0.872956	0.887574	0.666749
H334	H	-0.059867	0.165717	0.000131
H335	H	0.273467	0.499050	0.333464
H336	H	0.606800	0.832384	0.666797
H337	H	-0.141947	-0.023982	0.000179
H338	H	0.191387	0.309352	0.333512
H339	H	0.524720	0.642685	0.666845
H340	H	0.762610	-0.765821	0.000111
H341	H	1.095943	-0.432488	0.333445
H342	H	1.429276	-0.099154	0.666778
H343	H	0.526850	-0.352066	0.000030
H344	H	0.860183	-0.018732	0.333363
H345	H	1.193516	0.314601	0.666696
O346	O	-0.024473	-0.036321	0.000197
O347	O	0.308860	0.297013	0.333531
O348	O	0.642193	0.630346	0.666864
H349	H	-0.050191	-0.072787	0.000196
H350	H	0.283142	0.260546	0.333529
H351	H	0.616476	0.593880	0.666862
O352	O	0.777723	-0.652074	0.000109
O353	O	1.111057	-0.318741	0.333442
O354	O	1.444390	0.014592	0.666775
H355	H	0.802484	-0.666875	0.094879
H356	H	1.135818	-0.333542	0.428212
H357	H	1.469151	-0.000208	0.761545
O358	O	0.132391	-0.086450	0.000257
O359	O	0.465724	0.246884	0.333590
O360	O	0.799058	0.580217	0.666923
H361	H	0.105667	-0.089252	0.095030
H362	H	0.439001	0.244082	0.428363
H363	H	0.772334	0.577415	0.761696
H364	H	0.512280	-0.016146	0.000128
H365	H	0.845613	0.317187	0.333462
H366	H	1.178946	0.650520	0.666795
O367	O	0.831436	-0.509365	0.000176
O368	O	1.164769	-0.176032	0.333509
O369	O	1.498103	0.157301	0.666843
H370	H	0.856479	-0.501349	-0.094574
H371	H	1.189812	-0.168016	0.238759
H372	H	1.523146	0.165317	0.572093
O373	O	0.561866	-0.622665	0.000087
O374	O	0.895200	-0.289332	0.333420
O375	O	1.228533	0.044001	0.666753
H376	H	0.536830	-0.630675	-0.094680
H377	H	0.870163	-0.297341	0.238654
H378	H	1.203496	0.035992	0.571987
O379	O	0.568410	-0.076193	0.000151
O380	O	0.901743	0.257140	0.333484
O381	O	1.235077	0.590473	0.666818
H382	H	0.566257	-0.048792	-0.094624
H383	H	0.899590	0.284541	0.238709
H384	H	1.232924	0.617875	0.572042
O385	O	0.586113	0.160370	0.399411
O386	O	0.919446	0.493704	0.732745
O387	O	1.252780	0.827037	1.066078
H388	H	0.595152	0.202991	0.436756
H389	H	0.928486	0.536324	0.770090
H390	H	1.261819	0.869658	1.103423
