data_functionalizedCrystal
_audit_creation_method	'MofGen! by Chris Wilmer'
_symmetry_space_group_name_H-M	'P1'
_symmetry_Int_Tables_number	1
_symmetry_cell_setting	triclinic
loop_
_symmetry_equiv_pos_as_xyz
  x,y,z
_cell_length_a	17.640280
_cell_length_b	17.638686
_cell_length_c	14.908858
_cell_angle_alpha	81.389404
_cell_angle_beta	76.219758
_cell_angle_gamma	65.687361
loop_
_atom_site_label
_atom_site_type_symbol
_atom_site_fract_x
_atom_site_fract_y
_atom_site_fract_z
Zn1	Zn	-0.540041	1.283277	-0.681206
Zn2	Zn	-0.040041	1.783277	-0.181206
Zn3	Zn	-0.689027	1.322239	-0.504983
Zn4	Zn	-0.189027	1.822239	-0.004983
Zn5	Zn	-0.523335	1.156617	-0.505038
Zn6	Zn	-0.023335	1.656617	-0.005038
Zn7	Zn	-0.653120	1.176507	-0.630505
Zn8	Zn	-0.153120	1.676507	-0.130505
O9	O	-0.601381	1.234660	-0.580433
O10	O	-0.101381	1.734660	-0.080433
O11	O	-0.581823	1.402443	-0.679025
O12	O	-0.081823	1.902443	-0.179025
O13	O	-0.675083	1.308251	-0.378733
O14	O	-0.175083	1.808251	0.121267
O15	O	-0.408884	1.148789	-0.549649
O16	O	0.091116	1.648789	-0.049649
O17	O	-0.691282	1.431068	-0.549555
O18	O	-0.191282	1.931068	-0.049555
O19	O	-0.421158	1.241846	-0.679078
O20	O	0.078842	1.741846	-0.179078
O21	O	-0.553350	1.186569	-0.378773
O22	O	-0.053350	1.686569	0.121227
O23	O	-0.518532	1.045258	-0.500486
O24	O	-0.018532	1.545258	-0.000486
O25	O	-0.630084	1.182688	-0.763488
O26	O	-0.130084	1.682688	-0.263488
O27	O	-0.613885	1.059871	-0.592666
O28	O	-0.113885	1.559871	-0.092666
O29	O	-0.547006	1.261132	-0.800738
O30	O	-0.047006	1.761132	-0.300738
O31	O	-0.800930	1.327537	-0.500393
O32	O	-0.300930	1.827537	-0.000393
O33	O	-0.774549	1.220468	-0.592613
O34	O	-0.274549	1.720468	-0.092613
C35	C	-0.560500	1.023006	-0.541081
C36	C	-0.060500	1.523006	-0.041081
C37	C	-0.543030	0.932462	-0.524264
C38	C	-0.043030	1.432462	-0.024264
C39	C	-0.734267	0.672948	-0.708386
C40	C	-0.234267	1.172948	-0.208386
C41	C	-0.717845	0.587869	-0.692562
C42	C	-0.217845	1.087869	-0.192562
C43	C	-0.618378	0.572573	-0.596784
C44	C	-0.118378	1.072573	-0.096784
C45	C	-0.634794	0.657653	-0.612596
C46	C	-0.134794	1.157653	-0.112596
C47	C	-0.692739	0.707835	-0.668398
C48	C	-0.192739	1.207835	-0.168398
C49	C	-0.593266	0.692540	-0.572609
C50	C	-0.093266	1.192540	-0.072609
C51	C	-0.609678	0.777612	-0.588424
C52	C	-0.109678	1.277612	-0.088424
C53	C	-0.667618	0.827799	-0.644226
C54	C	-0.167618	1.327799	-0.144226
C55	C	-0.709151	0.792907	-0.684213
C56	C	-0.209151	1.292907	-0.184213
C57	C	-0.535317	0.642356	-0.516812
C58	C	-0.035317	1.142356	-0.016812
C59	C	-0.493789	0.677242	-0.476825
C60	C	0.006211	1.177242	0.023175
C61	C	-0.510206	0.762317	-0.492634
C62	C	-0.010206	1.262317	0.007366
C63	C	-0.568146	0.812504	-0.548436
C64	C	-0.068146	1.312504	-0.048436
C65	C	-0.468673	0.797209	-0.452647
C66	C	0.031327	1.297209	0.047353
C67	C	-0.485085	0.882281	-0.468461
C68	C	0.014915	1.382281	0.031539
C69	C	-0.584558	0.897576	-0.564251
C70	C	-0.084558	1.397576	-0.064251
C71	C	-0.817993	1.280410	-0.541019
C72	C	-0.317993	1.780410	-0.041019
C73	C	-0.910673	1.300054	-0.524201
C74	C	-0.410673	1.800054	-0.024201
C75	C	-1.146928	1.085736	-0.708584
C76	C	-0.646928	1.585736	-0.208584
C77	C	-1.234017	1.104199	-0.692753
C78	C	-0.734017	1.604199	-0.192753
C79	C	-1.261427	1.215747	-0.596853
C80	C	-0.761427	1.715747	-0.096853
C81	C	-1.174339	1.197297	-0.612680
C82	C	-0.674339	1.697297	-0.112680
C83	C	-1.117095	1.132290	-0.668545
C84	C	-0.617095	1.632290	-0.168545
C85	C	-1.144506	1.243850	-0.572641
C86	C	-0.644506	1.743850	-0.072641
C87	C	-1.057425	1.225398	-0.588462
C88	C	-0.557425	1.725398	-0.088462
C89	C	-1.000176	1.160392	-0.644323
C90	C	-0.500176	1.660392	-0.144323
C91	C	-1.030014	1.113837	-0.684367
C92	C	-0.530014	1.613837	-0.184367
C93	C	-1.201750	1.308853	-0.516770
C94	C	-0.701750	1.808853	-0.016770
C95	C	-1.171918	1.355406	-0.476731
C96	C	-0.671918	1.855406	0.023269
C97	C	-1.084836	1.336958	-0.492558
C98	C	-0.584836	1.836958	0.007442
C99	C	-1.027587	1.271953	-0.548419
C100	C	-0.527587	1.771953	-0.048419
C101	C	-1.054998	1.383513	-0.452514
C102	C	-0.554998	1.883513	0.047486
C103	C	-0.967916	1.365061	-0.468336
C104	C	-0.467916	1.865061	0.031664
C105	C	-0.940506	1.253501	-0.564240
C106	C	-0.440506	1.753501	-0.064240
C107	C	-0.383925	1.188753	-0.620025
C108	C	0.116075	1.688753	-0.120025
C109	C	-0.291259	1.169190	-0.636897
C110	C	0.208741	1.669190	-0.136897
C111	C	-0.586403	1.219783	-0.815766
C112	C	-0.086403	1.719783	-0.315766
C113	C	-0.580021	1.213443	-0.916050
C114	C	-0.080021	1.713443	-0.416050
C115	C	-0.642421	1.447140	-0.619939
C116	C	-0.142421	1.947140	-0.119939
C117	C	-0.659910	1.537687	-0.636774
C118	C	-0.159910	2.037687	-0.136774
C119	C	-0.507648	1.141160	-1.057418
C120	C	-0.007648	1.641160	-0.557418
C121	C	-0.513643	1.147113	-0.963191
C122	C	-0.013643	1.647113	-0.463191
C123	C	-0.640407	1.273824	-0.963143
C124	C	-0.140407	1.773824	-0.463143
C125	C	-0.634412	1.267871	-1.057370
C126	C	-0.134412	1.767871	-0.557370
C127	C	-0.568031	1.201536	-1.104504
C128	C	-0.068031	1.701536	-0.604504
C129	C	-0.562041	1.195580	-1.198731
C130	C	-0.062041	1.695580	-0.698731
C131	C	-0.688800	1.322294	-1.198682
C132	C	-0.188800	1.822294	-0.698682
C133	C	-0.694795	1.328247	-1.104456
C134	C	-0.194795	1.828247	-0.604456
C135	C	-0.616248	1.249514	-0.346036
C136	C	-0.116248	1.749514	0.153964
C137	C	-0.622427	1.255962	-0.245824
C138	C	-0.122427	1.755962	0.254176
H139	H	-0.751664	0.559468	-0.725132
H140	H	-0.251664	1.059468	-0.225132
F141	F	-1.322357	1.284931	-0.537400
F142	F	-0.822357	1.784931	-0.037400
H143	H	-1.100318	1.032806	-0.754084
H144	H	-0.600318	1.532806	-0.254084
H145	H	-0.421488	0.756337	-0.407220
H146	H	0.078512	1.256337	0.092780
F147	F	-0.711037	1.344427	-0.912970
F148	F	-0.211037	1.844427	-0.412970
F149	F	-0.753071	1.386552	-1.248800
F150	F	-0.253071	1.886552	-0.748800
F151	F	-1.294433	1.328511	-0.499962
F152	F	-0.794433	1.828511	0.000038
F153	F	-0.491392	1.124982	-1.248893
F154	F	0.008608	1.624982	-0.748893
H155	H	-0.983404	1.060908	-0.729866
H156	H	-0.483404	1.560908	-0.229866
H157	H	-0.748838	1.382257	-1.066067
H158	H	-0.248838	1.882257	-0.566067
H159	H	-0.453601	1.087145	-1.095794
H160	H	0.046399	1.587145	-0.595794
F161	F	-0.770831	0.846321	-0.743595
F162	F	-0.270831	1.346321	-0.243595
H163	H	-0.464471	1.097950	-0.924858
H164	H	0.035529	1.597950	-0.424858
H165	H	-0.631747	0.938438	-0.609686
H166	H	-0.131747	1.438438	-0.109686
F167	F	-0.556707	0.519157	-0.537401
F168	F	-0.056707	1.019157	-0.037401
H169	H	-0.521952	0.573083	-0.503943
H170	H	-0.021952	1.073083	-0.003943
H171	H	-0.893896	1.200571	-0.609740
H172	H	-0.393896	1.700571	-0.109740
F173	F	-1.232848	1.424590	-0.417278
F174	F	-0.732848	1.924590	0.082722
H175	H	-0.680975	0.897069	-0.657107
H176	H	-0.180975	1.397069	-0.157107
F177	F	-0.440887	0.919412	-0.425903
F178	F	0.059113	1.419412	0.074097
H179	H	-1.258303	1.066293	-0.725375
H180	H	-0.758303	1.566293	-0.225375
F181	F	-1.115929	1.452691	-0.393054
F182	F	-0.615929	1.952691	0.106946
H183	H	-0.446608	0.636373	-0.431393
H184	H	0.053392	1.136373	0.068607
F185	F	-0.907514	1.140890	-0.661352
F186	F	-0.407514	1.640890	-0.161352
H187	H	-0.781456	0.713811	-0.753820
H188	H	-0.281456	1.213811	-0.253820
H189	H	-0.943628	1.402969	-0.435731
H190	H	-0.443628	1.902969	0.064269
