data_functionalizedCrystal
_audit_creation_method	'MofGen! by Chris Wilmer'
_symmetry_space_group_name_H-M	'P1'
_symmetry_Int_Tables_number	1
_symmetry_cell_setting	triclinic
loop_
_symmetry_equiv_pos_as_xyz
  x,y,z
_cell_length_a	16.625548
_cell_length_b	19.121063
_cell_length_c	19.121226
_cell_angle_alpha	90.121486
_cell_angle_beta	87.565351
_cell_angle_gamma	92.470058
loop_
_atom_site_label
_atom_site_type_symbol
_atom_site_fract_x
_atom_site_fract_y
_atom_site_fract_z
Zn1	Zn	1.199700	-0.262290	0.408296
Zn2	Zn	1.699700	0.237710	0.908296
Zn3	Zn	1.199133	-0.384504	0.296052
Zn4	Zn	1.699133	0.115496	0.796052
Zn5	Zn	1.070390	-0.267284	0.291072
Zn6	Zn	1.570390	0.232716	0.791072
Zn7	Zn	1.058836	-0.379497	0.413249
Zn8	Zn	1.558836	0.120503	0.913249
O9	O	1.132015	-0.323394	0.352167
O10	O	1.632015	0.176606	0.852167
O11	O	1.312456	-0.278507	0.393417
O12	O	1.812456	0.221493	0.893417
O13	O	1.186653	-0.373140	0.197285
O14	O	1.686653	0.126860	0.697285
O15	O	1.092616	-0.168513	0.302465
O16	O	1.592616	0.331487	0.802465
O17	O	1.312040	-0.368297	0.310952
O18	O	1.812040	0.131703	0.810952
O19	O	1.187619	-0.164844	0.388589
O20	O	1.687619	0.335156	0.888589
O21	O	1.092066	-0.287019	0.193626
O22	O	1.592066	0.212981	0.693626
O23	O	0.956026	-0.282164	0.307268
O24	O	1.456026	0.217836	0.807268
O25	O	1.072924	-0.359763	0.510698
O26	O	1.572924	0.140237	1.010698
O27	O	0.947537	-0.364606	0.397031
O28	O	1.447537	0.135394	0.897031
O29	O	1.176416	-0.273652	0.507059
O30	O	1.676416	0.226348	1.007059
O31	O	1.175450	-0.481948	0.315755
O32	O	1.675450	0.018052	0.815755
O33	O	1.072374	-0.478269	0.401860
O34	O	1.572374	0.021731	0.901860
C35	C	0.922525	-0.323384	0.352147
C36	C	1.422525	0.176616	0.852147
C37	C	0.832903	-0.323397	0.352156
C38	C	1.332903	0.176603	0.852156
C39	C	1.122618	-0.505547	0.359901
C40	C	1.622618	-0.005547	0.859901
C41	C	1.118671	-0.583471	0.363233
C42	C	1.618671	-0.083471	0.863233
C43	C	0.504726	-0.323400	0.352186
C44	C	1.004726	0.176600	0.852186
C45	C	0.596035	-0.323397	0.352175
C46	C	1.096035	0.176603	0.852175
C47	C	0.668812	-0.323399	0.352170
C48	C	1.168812	0.176601	0.852170
C49	C	0.760127	-0.323395	0.352161
C50	C	1.260127	0.176605	0.852161
C51	C	1.170521	-0.621971	0.320005
C52	C	1.670521	-0.121971	0.820005
C53	C	1.166813	-0.695189	0.323143
C54	C	1.666813	-0.195189	0.823143
C55	C	1.111251	-0.729907	0.369505
C56	C	1.611251	-0.229907	0.869505
C57	C	1.059399	-0.691402	0.412737
C58	C	1.559399	-0.191402	0.912737
C59	C	1.063111	-0.618185	0.409603
C60	C	1.563111	-0.118185	0.909603
C61	C	1.097359	-0.950880	0.381214
C62	C	1.597359	-0.450880	0.881214
C63	C	1.093649	-1.024103	0.384344
C64	C	1.593649	-0.524103	0.884344
C65	C	1.201064	-1.027885	0.294750
C66	C	1.701064	-0.527885	0.794750
C67	C	1.204768	-0.954667	0.291617
C68	C	1.704768	-0.454667	0.791617
C69	C	1.152919	-0.916168	0.334851
C70	C	1.652919	-0.416168	0.834851
C71	C	1.107458	-0.804748	0.372712
C72	C	1.607458	-0.304748	0.872712
C73	C	1.156717	-0.841328	0.331648
C74	C	1.656717	-0.341328	0.831648
C75	C	1.342322	-0.323403	0.352188
C76	C	1.842322	0.176597	0.852188
C77	C	1.431943	-0.323407	0.352196
C78	C	1.931943	0.176593	0.852196
C79	C	1.123444	-0.315592	0.535028
C80	C	1.623444	0.184408	1.035028
C81	C	1.119792	-0.312267	0.612952
C82	C	1.619792	0.187733	1.112952
C83	C	1.141469	-0.140529	0.344419
C84	C	1.641469	0.359471	0.844419
C85	C	1.145498	-0.062603	0.341117
C86	C	1.645498	0.437397	0.841117
C87	C	1.096669	-0.291221	1.053582
C88	C	1.596669	0.208779	1.553582
C89	C	1.100105	-0.294342	0.980363
C90	C	1.600105	0.205658	1.480363
C91	C	1.151064	-0.340745	0.945658
C92	C	1.651064	0.159255	1.445658
C93	C	1.198598	-0.384024	0.984176
C94	C	1.698598	0.115976	1.484176
C95	C	1.195166	-0.380899	1.057392
C96	C	1.695166	0.119101	1.557392
C97	C	1.163894	-0.352421	0.724686
C98	C	1.663894	0.147579	1.224686
C99	C	1.167320	-0.355545	0.651464
C100	C	1.667320	0.144455	1.151464
C101	C	1.068828	-0.265861	0.647657
C102	C	1.568828	0.234139	1.147657
C103	C	1.065397	-0.262743	0.720875
C104	C	1.565397	0.237257	1.220875
C105	C	1.112933	-0.306020	0.759386
C106	C	1.612933	0.193980	1.259386
C107	C	1.154575	-0.343938	0.870818
C108	C	1.654575	0.156062	1.370818
C109	C	1.109426	-0.302823	0.834225
C110	C	1.609426	0.197177	1.334225
C111	C	1.140545	-0.331179	1.170018
C112	C	1.640545	0.168821	1.670018
C113	C	1.144197	-0.334498	1.092094
C114	C	1.644197	0.165502	1.592094
H115	H	1.215762	-0.593709	0.282249
H116	H	1.715762	-0.093709	0.782249
H117	H	1.055139	-0.919541	0.416416
H118	H	1.555139	-0.419541	0.916416
H119	H	1.014162	-0.719674	0.450490
H120	H	1.514162	-0.219674	0.950490
O121	O	1.033707	-1.061547	0.434346
O122	O	1.533707	-0.561547	0.934346
H123	H	1.039828	-1.118928	0.429250
H124	H	1.539828	-0.618928	0.929250
H125	H	1.196065	-0.381721	0.842553
H126	H	1.696065	0.118279	1.342553
H127	H	1.233869	-0.416139	1.088748
H128	H	1.733869	0.083861	1.588748
O129	O	1.222294	-0.405590	0.614030
O130	O	1.722294	0.094410	1.114030
H131	H	1.204970	-0.460015	0.630417
H132	H	1.704970	0.039985	1.130417
O133	O	1.007179	-0.576663	0.456226
O134	O	1.507179	-0.076663	0.956226
H135	H	1.043252	-0.541746	0.490500
H136	H	1.543252	-0.041746	0.990500
O137	O	1.222731	-0.736717	0.276515
O138	O	1.722731	-0.236717	0.776515
H139	H	1.261982	-0.700275	0.243743
H140	H	1.761982	-0.200275	0.743743
H141	H	1.243278	-1.059239	0.259552
H142	H	1.743278	-0.559239	0.759552
H143	H	1.055170	-0.253436	1.081833
H144	H	1.555170	0.246564	1.581833
H145	H	1.250012	-0.926401	0.253865
H146	H	1.750012	-0.426401	0.753865
H147	H	1.201959	-0.813059	0.293902
H148	H	1.701959	-0.313059	0.793902
H149	H	1.062217	-0.833023	0.410459
H150	H	1.562217	-0.333023	0.910459
H151	H	1.061401	-0.259102	0.949010
H152	H	1.561401	0.240898	1.449010
H153	H	1.202599	-0.387662	0.756033
H154	H	1.702599	0.112338	1.256033
O155	O	1.010441	-0.212688	0.758308
O156	O	1.510441	0.287312	1.258308
H157	H	0.977975	-0.183113	0.719226
H158	H	1.477975	0.316887	1.219226
O159	O	1.253563	-0.434076	0.946749
O160	O	1.753563	0.065924	1.446749
H161	H	1.247959	-0.428985	0.889367
H162	H	1.747959	0.071015	1.389367
O163	O	1.017568	-0.219177	0.606122
O164	O	1.517568	0.280823	1.106122
H165	H	1.028520	-0.229138	0.549379
H166	H	1.528520	0.270862	1.049379
O167	O	1.054477	-0.252766	0.871657
O168	O	1.554477	0.247234	1.371657
H169	H	1.010267	-0.282714	0.906343
H170	H	1.510267	0.217286	1.406343
