data_functionalizedCrystal
_audit_creation_method	'MofGen! by Chris Wilmer'
_symmetry_space_group_name_H-M	'P1'
_symmetry_Int_Tables_number	1
_symmetry_cell_setting	triclinic
loop_
_symmetry_equiv_pos_as_xyz
  x,y,z
_cell_length_a	12.759401
_cell_length_b	19.077068
_cell_length_c	12.759401
_cell_angle_alpha	87.715650
_cell_angle_beta	90.006940
_cell_angle_gamma	92.328499
loop_
_atom_site_label
_atom_site_type_symbol
_atom_site_fract_x
_atom_site_fract_y
_atom_site_fract_z
Zn1	Zn	1.589215	-0.280299	0.610780
Zn2	Zn	1.582051	-0.397968	0.442136
Zn3	Zn	1.413557	-0.280290	0.435114
Zn4	Zn	1.406408	-0.397965	0.617773
O5	O	1.497808	-0.339131	0.526451
O6	O	1.735285	-0.295913	0.588421
O7	O	1.559694	-0.382355	0.294183
O8	O	1.442848	-0.181799	0.452552
O9	O	1.730022	-0.382364	0.464519
O10	O	1.571903	-0.181806	0.581612
O11	O	1.435902	-0.295898	0.289025
O12	O	1.265588	-0.295895	0.459333
O13	O	1.430664	-0.382359	0.763866
O14	O	1.260336	-0.382351	0.593531
O15	O	1.564971	-0.295910	0.758728
O16	O	1.552762	-0.496460	0.471299
O17	O	1.423718	-0.496458	0.600339
C18	C	1.224841	-0.339122	0.526429
C19	C	1.108064	-0.339135	0.526446
C20	C	1.050490	-0.384221	0.596221
C21	C	0.940766	-0.384224	0.596242
C22	C	0.946198	-0.294053	0.456704
C23	C	1.055921	-0.294047	0.456688
C24	C	1.486716	-0.521997	0.537363
C25	C	1.482067	-0.600228	0.542066
C26	C	1.547121	-0.636959	0.477148
C27	C	1.542754	-0.710465	0.481578
C28	C	1.473327	-0.747240	0.550922
C29	C	1.408270	-0.710504	0.615847
C30	C	1.412643	-0.636999	0.611422
C31	C	1.453045	-0.967078	0.571361
C32	C	1.448675	-1.040589	0.575779
C33	C	1.583161	-1.040545	0.441510
C34	C	1.587523	-0.967039	0.437086
C35	C	1.522470	-0.930309	0.502016
N36	N	1.468860	-0.822375	0.555449
N37	N	1.526943	-0.855175	0.497493
C38	C	1.771841	-0.339140	0.526473
C39	C	1.888617	-0.339144	0.526482
C40	C	1.497819	-0.339136	0.800484
C41	C	1.497824	-0.339138	0.917261
C42	C	1.508972	-0.155550	0.515519
C43	C	1.513729	-0.077319	0.510860
C44	C	1.567749	-0.294131	0.969450
C45	C	1.567740	-0.294130	1.079174
C46	C	1.427878	-0.384148	1.084511
C47	C	1.427883	-0.384145	0.974788
C48	C	1.497795	-0.339142	1.253484
C49	C	1.497810	-0.339139	1.136707
H50	H	1.102799	-0.257329	0.399869
C51	C	1.644675	-0.244619	0.906169
C52	C	1.725312	-0.275116	0.832570
C53	C	1.802238	-0.225601	0.769292
C54	C	1.798526	-0.145589	0.779613
C55	C	1.717886	-0.115087	0.853216
C56	C	1.640960	-0.164603	0.916493
H57	H	1.728062	-0.334350	0.824926
H58	H	1.861933	-0.248181	0.714807
H59	H	1.855472	-0.108935	0.732772
H60	H	1.715136	-0.055854	0.860859
H61	H	1.581265	-0.142023	0.970978
C62	C	1.372308	-1.081046	0.652065
C63	C	1.253473	-1.071014	0.642796
C64	C	1.177110	-1.111474	0.719075
C65	C	1.219581	-1.161966	0.804622
C66	C	1.338422	-1.172000	0.813894
C67	C	1.414785	-1.131540	0.737616
H68	H	1.222027	-1.033635	0.579466
H69	H	1.089136	-1.104046	0.712210
H70	H	1.163053	-1.191917	0.861088
H71	H	1.369868	-1.209379	0.877225
H72	H	1.502759	-1.138968	0.744480
C73	C	1.614322	-0.750865	0.410166
C74	C	1.606439	-0.740797	0.290116
C75	C	1.678016	-0.781195	0.218704
C76	C	1.757476	-0.831659	0.267342
C77	C	1.765361	-0.841729	0.387398
C78	C	1.693785	-0.801332	0.458810
H79	H	1.547616	-0.703438	0.254106
H80	H	1.672178	-0.773740	0.129830
H81	H	1.810461	-0.861564	0.214479
H82	H	1.824185	-0.879088	0.423409
H83	H	1.699623	-0.808786	0.547684
C84	C	1.341080	-0.596591	0.682831
C85	C	1.261637	-0.546114	0.634195
C86	C	1.190076	-0.505706	0.705610
C87	C	1.197959	-0.515776	0.825660
C88	C	1.277406	-0.566256	0.874301
C89	C	1.348966	-0.606663	0.802887
H90	H	1.255799	-0.538657	0.545322
H91	H	1.131264	-0.468338	0.669602
H92	H	1.144985	-0.485864	0.878525
H93	H	1.283244	-0.573712	0.963175
H94	H	1.407778	-0.644031	0.838895
H95	H	1.644056	-0.937099	0.380621
C96	C	1.654724	-1.080949	0.370100
C97	C	1.649925	-1.161801	0.374963
C98	C	1.721496	-1.202204	0.303553
C99	C	1.797866	-1.161754	0.227279
C100	C	1.802668	-1.080897	0.222412
C101	C	1.731097	-1.040494	0.293822
H102	H	1.593389	-1.191749	0.431428
H103	H	1.717941	-1.262060	0.307156
H104	H	1.850847	-1.191663	0.174416
H105	H	1.859205	-1.050949	0.165947
H106	H	1.734653	-0.980638	0.290219
C107	C	1.350953	-0.433659	1.147794
C108	C	1.350948	-0.433668	1.268484
C109	C	1.274024	-0.483183	1.331765
C110	C	1.197105	-0.532689	1.274355
C111	C	1.197108	-0.532681	1.153658
C112	C	1.274032	-0.483167	1.090378
H113	H	1.407891	-0.397020	1.310989
H114	H	1.274023	-0.483188	1.421113
H115	H	1.140162	-0.569342	1.321200
H116	H	1.140165	-0.569330	1.111154
H117	H	1.274033	-0.483162	1.001029
H118	H	1.624678	-0.257480	1.121661
H119	H	1.370934	-0.420794	0.932295
H120	H	1.092942	-0.420933	0.653025
C121	C	1.623493	-0.596510	0.400867
C122	C	1.614413	-0.606657	0.282035
C123	C	1.690790	-0.566210	0.205755
C124	C	1.776247	-0.515617	0.248309
C125	C	1.785330	-0.505468	0.367148
C126	C	1.708953	-0.545915	0.443427
H127	H	1.551150	-0.644110	0.250529
H128	H	1.684065	-0.573723	0.117783
H129	H	1.832786	-0.485676	0.191842
H130	H	1.848594	-0.468014	0.398654
H131	H	1.715678	-0.538402	0.531400
C132	C	1.331903	-0.750953	0.692132
C133	C	1.327087	-0.831805	0.697002
C134	C	1.250718	-0.872253	0.773288
C135	C	1.179163	-0.831848	0.844703
C136	C	1.183976	-0.750990	0.839835
C137	C	1.260346	-0.710543	0.763549
H138	H	1.380058	-0.861720	0.644135
H139	H	1.247155	-0.932109	0.776891
H140	H	1.122630	-0.861789	0.901174
H141	H	1.131005	-0.721076	0.892703
H142	H	1.263909	-0.650687	0.759946
C143	C	0.877435	-0.433821	0.672994
C144	C	0.934795	-0.483412	0.749723
C145	C	0.871464	-0.533011	0.826480
C146	C	0.750774	-0.533017	0.826509
C147	C	0.693408	-0.483424	0.749778
C148	C	0.756738	-0.433826	0.673021
H149	H	1.024143	-0.483409	0.749704
H150	H	0.913932	-0.569723	0.883282
H151	H	0.703893	-0.569733	0.883329
H152	H	0.604059	-0.483427	0.749797
H153	H	0.714271	-0.397113	0.616219
H154	H	0.903730	-0.257345	0.399908
H155	H	1.400074	-0.937179	0.624227
