data_functionalizedCrystal
_audit_creation_method	'MofGen! by Chris Wilmer'
_symmetry_space_group_name_H-M	'P1'
_symmetry_Int_Tables_number	1
_symmetry_cell_setting	triclinic
loop_
_symmetry_equiv_pos_as_xyz
  x,y,z
_cell_length_a	14.519731
_cell_length_b	10.654550
_cell_length_c	9.130313
_cell_angle_alpha	89.995631
_cell_angle_beta	90.003615
_cell_angle_gamma	95.913108
loop_
_atom_site_label
_atom_site_type_symbol
_atom_site_fract_x
_atom_site_fract_y
_atom_site_fract_z
O1	O	1.224708	-0.164750	0.121802
O2	O	1.724708	0.335250	0.621802
O3	O	0.956334	-0.184109	0.121804
O4	O	1.456334	0.315891	0.621804
O5	O	1.096692	0.008368	0.121794
O6	O	1.596692	0.508368	0.621794
O7	O	1.084351	-0.357228	0.121812
O8	O	1.584351	0.142772	0.621812
O9	O	1.096682	0.008374	-0.121805
O10	O	1.596682	0.508374	0.378195
O11	O	0.956325	-0.184103	-0.121795
O12	O	1.456325	0.315897	0.378205
O13	O	1.224699	-0.164745	-0.121797
O14	O	1.724699	0.335255	0.378203
Cu15	Cu	1.090511	-0.174424	-0.144038
Cu16	Cu	1.590511	0.325576	0.355962
Cu17	Cu	1.090522	-0.174430	0.144046
Cu18	Cu	1.590522	0.325570	0.644046
O19	O	1.084341	-0.357222	-0.121786
O20	O	1.584341	0.142778	0.378214
C21	C	0.921965	-0.183199	0.000005
C22	C	1.421965	0.316801	0.500005
C23	C	0.819571	-0.180481	0.000006
C24	C	1.319571	0.319519	0.500006
C25	C	0.736416	-0.178272	0.000012
C26	C	1.236416	0.321728	0.500012
C27	C	0.632093	-0.175513	0.000012
C28	C	1.132093	0.324487	0.500012
C29	C	0.548942	-0.173322	0.000012
C30	C	1.048942	0.326678	0.500012
C31	C	0.444612	-0.170563	0.000015
C32	C	0.944612	0.329437	0.500015
C33	C	1.095781	0.055160	-0.000005
C34	C	1.595781	0.555160	0.499995
C35	C	1.093070	0.194578	-0.000002
C36	C	1.593070	0.694578	0.499998
C37	C	1.259068	-0.165655	0.000006
C38	C	1.759068	0.334345	0.500006
C39	C	1.361462	-0.168373	0.000015
C40	C	1.861462	0.331627	0.500015
C41	C	1.085252	-0.404014	0.000015
C42	C	1.585252	0.095986	0.500015
C43	C	1.087963	-0.543432	0.000023
C44	C	1.587963	-0.043432	0.500023
N45	N	1.090509	-0.174418	-0.346661
N46	N	1.590509	0.325582	0.153339
C47	C	1.175710	0.274850	-0.000003
C48	C	1.675710	0.774850	0.499997
C49	C	1.173157	0.405846	0.000015
C50	C	1.673157	0.905846	0.500015
C51	C	1.005317	0.376286	0.000027
C52	C	1.505317	0.876286	0.500027
C53	C	1.007871	0.245293	0.000020
C54	C	1.507871	0.745293	0.500020
C55	C	1.152681	-0.089225	-0.423317
C56	C	1.652681	0.410775	0.076683
C57	C	1.152690	-0.089225	-0.576654
C58	C	1.652690	0.410775	-0.076654
C59	C	1.028353	-0.259623	-0.576665
C60	C	1.528353	0.240377	-0.076665
C61	C	1.028340	-0.259616	-0.423330
C62	C	1.528340	0.240384	0.076670
N63	N	1.090531	-0.174426	0.346668
N64	N	1.590531	0.325574	0.846668
H65	H	1.245085	0.233562	-0.000018
H66	H	1.745085	0.733562	0.499982
Cl67	Cl	0.950171	-0.366718	-0.326953
Cl68	Cl	1.450171	0.133282	0.173047
H69	H	0.940571	0.179931	0.000024
H70	H	1.440571	0.679931	0.500024
H71	H	0.977737	-0.328990	-0.639104
H72	H	1.477737	0.171010	-0.139104
H73	H	1.240451	0.471199	0.000018
H74	H	1.740451	0.971199	0.500018
H75	H	1.203302	-0.019850	-0.360896
H76	H	1.703302	0.480150	0.139104
H77	H	0.935950	0.417595	0.000043
H78	H	1.435950	0.917595	0.500043
H79	H	1.203314	-0.019852	-0.639064
H80	H	1.703314	0.480148	-0.139064
