data_functionalizedCrystal
_audit_creation_method	'MofGen! by Chris Wilmer'
_symmetry_space_group_name_H-M	'P1'
_symmetry_Int_Tables_number	1
_symmetry_cell_setting	triclinic
loop_
_symmetry_equiv_pos_as_xyz
  x,y,z
_cell_length_a	10.723024
_cell_length_b	15.995350
_cell_length_c	15.072220
_cell_angle_alpha	89.998899
_cell_angle_beta	89.987146
_cell_angle_gamma	96.019878
loop_
_atom_site_label
_atom_site_type_symbol
_atom_site_fract_x
_atom_site_fract_y
_atom_site_fract_z
O1	O	-1.655706	0.117431	0.073785
O2	O	-1.292410	0.128672	0.073785
O3	O	-1.483989	0.001221	0.073784
O4	O	-1.464127	0.244882	0.073786
O5	O	-1.483941	0.001228	-0.073781
O6	O	-1.292363	0.128679	-0.073781
O7	O	-1.655658	0.117438	-0.073780
Zn8	Zn	-1.474003	0.123059	-0.097210
Zn9	Zn	-1.474065	0.123050	0.097214
O10	O	-1.464080	0.244889	-0.073780
C11	C	-1.245897	0.127857	0.000002
C12	C	-1.107374	0.125410	0.000002
C13	C	-1.483144	-0.029975	0.000003
C14	C	-1.480682	-0.122940	0.000008
C15	C	-1.031482	0.196725	0.000003
C16	C	-0.888310	0.194197	0.000003
C17	C	-1.471842	-0.460738	0.000005
C18	C	-1.335403	-0.414088	0.000336
C19	C	-1.337865	-0.317383	0.000003
C20	C	-1.476227	-0.293152	0.000007
C21	C	-1.543496	-0.333839	-0.084258
C22	C	-1.540069	-0.430495	-0.084329
C23	C	-1.542941	-0.430844	0.083480
C24	C	-1.542909	-0.333899	0.084594
C25	C	-1.478712	-0.198441	0.000005
C26	C	-1.469360	-0.555450	0.000001
C27	C	-0.702171	0.118252	0.000002
C28	C	-0.840694	0.120700	0.000002
C29	C	-1.464924	0.276085	0.000003
C30	C	-1.467386	0.369049	0.000004
N31	N	-1.473969	0.123065	-0.229898
C32	C	-1.474063	0.123047	-0.589100
C33	C	-1.371208	0.191011	-0.551493
C34	C	-1.371444	0.191263	-0.448667
C35	C	-1.474015	0.123056	-0.410896
C36	C	-1.604214	0.142886	-0.448187
C37	C	-1.603638	0.143369	-0.551045
C38	C	-1.447879	0.035057	-0.551201
C39	C	-1.444892	0.035626	-0.448337
C40	C	-1.473997	0.123060	-0.310182
C41	C	-1.474090	0.123045	-0.689813
N42	N	-1.474109	0.123038	0.229903
H43	H	-1.072501	0.259651	-0.000002
H44	H	-1.281092	-0.433991	-0.059756
O45	O	-1.263190	-0.439064	0.080376
H46	H	-1.233936	-0.382442	0.120886
O47	O	-1.635506	0.226960	-0.414069
H48	H	-1.639629	0.225427	-0.340496
H49	H	-1.355000	0.016175	-0.577191
H50	H	-1.682580	0.094732	-0.423718
O51	O	-1.267326	-0.280864	-0.080155
H52	H	-1.231330	-0.332288	-0.118837
O53	O	-1.708071	0.080356	-0.584004
H54	H	-1.693076	0.016796	-0.559338
H55	H	-1.066355	0.062483	0.000024
O56	O	-1.475041	-0.455116	-0.167766
H57	H	-1.390860	-0.486292	-0.149724
O58	O	-0.801946	0.275074	-0.000005
H59	H	-0.703047	0.260397	-0.000013
O60	O	-0.927061	0.039824	0.000000
H61	H	-0.870395	-0.014399	0.000005
O62	O	-1.537690	-0.034579	-0.414288
H63	H	-1.487020	-0.080249	-0.376770
H64	H	-1.640239	-0.462167	-0.088149
O65	O	-1.318019	0.015711	-0.416072
H66	H	-1.275872	0.067856	-0.373539
O67	O	-1.267795	-0.280137	0.080005
H68	H	-1.313300	-0.306895	0.141344
O69	O	-1.678140	-0.314351	-0.088424
H70	H	-1.698588	-0.275363	-0.030342
H71	H	-1.496735	-0.305723	-0.146968
H72	H	-1.522886	-0.015528	-0.575519
H73	H	-1.498353	-0.451643	0.147348
O74	O	-1.477864	-0.298117	0.167176
H75	H	-1.398377	-0.251502	0.148067
H76	H	-1.643810	-0.317958	0.089685
O77	O	-1.676189	-0.472152	0.084249
H78	H	-1.691762	-0.513776	0.025501
H79	H	-1.274116	0.179271	-0.576254
O80	O	-1.243246	0.175482	-0.415264
H81	H	-1.172475	0.225705	-0.439977
O82	O	-1.393043	0.277000	-0.585704
H83	H	-1.476834	0.271544	-0.629375
H84	H	-1.388164	0.256543	-0.424052
H85	H	-1.626711	0.207563	-0.575026
