data_functionalizedCrystal
_audit_creation_method	'MofGen! by Chris Wilmer'
_symmetry_space_group_name_H-M	'P1'
_symmetry_Int_Tables_number	1
_symmetry_cell_setting	triclinic
loop_
_symmetry_equiv_pos_as_xyz
  x,y,z
_cell_length_a	10.540539
_cell_length_b	10.654541
_cell_length_c	9.730217
_cell_angle_alpha	90.003041
_cell_angle_beta	90.002163
_cell_angle_gamma	95.495290
loop_
_atom_site_label
_atom_site_type_symbol
_atom_site_fract_x
_atom_site_fract_y
_atom_site_fract_z
O1	O	1.685817	-0.176990	-0.114176
O2	O	1.316397	-0.193666	-0.114204
O3	O	1.509602	-0.002592	-0.114181
O4	O	1.492612	-0.368065	-0.114199
O5	O	1.509596	-0.002590	0.114399
O6	O	1.316392	-0.193665	0.114376
O7	O	1.685811	-0.176988	0.114404
Zn8	Zn	1.501100	-0.185326	0.150682
Zn9	Zn	1.501108	-0.185329	-0.150482
O10	O	1.492606	-0.368063	0.114381
C11	C	1.269092	-0.192415	0.000083
C12	C	1.128145	-0.188673	0.000073
C13	C	1.733116	-0.178240	0.000114
C14	C	1.874063	-0.181982	0.000116
C15	C	2.057437	-0.325353	0.000590
C16	C	1.910820	-0.321560	0.000098
C17	C	1.935723	-0.114810	-0.130419
C18	C	2.082266	-0.119574	-0.130552
C19	C	2.082829	-0.116735	0.129387
C20	C	1.935848	-0.115449	0.131135
C21	C	1.508352	0.044208	0.000108
C22	C	1.504622	0.183652	0.000106
C23	C	1.493856	-0.414862	0.000089
C24	C	1.497586	-0.554307	0.000083
N25	N	1.501104	-0.185324	0.356219
C26	C	1.735651	0.211542	0.000140
C27	C	1.849407	0.290996	0.000160
C28	C	1.845894	0.422016	0.000156
C29	C	1.728612	0.473582	0.000127
C30	C	1.614856	0.394128	0.000107
C31	C	1.618381	0.263107	0.000116
C32	C	1.383830	0.366239	0.000063
C33	C	1.387340	0.235219	0.000077
C34	C	1.266548	0.417805	0.000034
C35	C	1.152788	0.338350	0.000024
C36	C	1.156306	0.207324	0.000030
C37	C	1.273583	0.155765	0.000057
N38	N	1.501114	-0.185321	-0.356018
C39	C	1.672257	-0.016177	0.356230
C40	C	1.757843	0.068393	0.428175
C41	C	1.757856	0.068393	0.572055
C42	C	1.672271	-0.016182	0.643992
C43	C	1.586686	-0.100752	0.572047
C44	C	1.586685	-0.100746	0.428164
C45	C	1.415529	-0.269891	0.572036
C46	C	1.415520	-0.269900	0.428157
C47	C	1.329945	-0.354466	0.643974
C48	C	1.244364	-0.439044	0.572029
C49	C	1.244355	-0.439042	0.428140
C50	C	1.329935	-0.354469	0.356211
H51	H	1.868213	-0.374420	0.093666
F52	F	1.329952	-0.354460	0.797104
H53	H	1.329940	-0.354465	0.239057
H54	H	1.174682	-0.507894	0.630609
H55	H	1.174657	-0.507904	0.369570
H56	H	1.263695	0.524489	0.000022
H57	H	1.738523	0.104861	0.000163
H58	H	2.086035	-0.380491	0.094186
H59	H	2.087607	-0.380265	-0.092500
F60	F	1.277337	0.016324	0.000073
F61	F	1.880003	-0.175798	-0.257383
H62	H	1.869029	-0.374781	-0.093627
F63	F	1.974221	0.236107	0.000184
H64	H	2.110430	-0.169221	-0.228131
F65	F	1.906555	0.019169	-0.136754
H66	H	2.130270	-0.019192	-0.136495
H67	H	2.130088	-0.015916	0.130262
F68	F	1.966966	0.506579	0.000166
F69	F	2.124075	-0.175777	0.258691
F70	F	1.672267	-0.016183	0.203099
F71	F	1.724879	0.613025	0.000047
H72	H	1.894912	-0.164533	0.227703
F73	F	1.904237	0.017564	0.141459
F74	F	1.672274	-0.016165	0.797122
F75	F	1.027982	0.393239	-0.000021
F76	F	1.035228	0.122771	-0.000001
F77	F	1.848920	0.158405	0.351607
H78	H	1.827542	0.137262	0.630633
