data_functionalizedCrystal
_audit_creation_method	'MofGen! by Chris Wilmer'
_symmetry_space_group_name_H-M	'P1'
_symmetry_Int_Tables_number	1
_symmetry_cell_setting	triclinic
loop_
_symmetry_equiv_pos_as_xyz
  x,y,z
_cell_length_a	10.489716
_cell_length_b	10.489741
_cell_length_c	9.565339
_cell_angle_alpha	90.000576
_cell_angle_beta	89.996907
_cell_angle_gamma	84.534155
loop_
_atom_site_label
_atom_site_type_symbol
_atom_site_fract_x
_atom_site_fract_y
_atom_site_fract_z
O1	O	1.694059	0.179813	0.116248
O2	O	1.322859	0.196738	0.116253
O3	O	1.516906	0.002677	0.116242
O4	O	1.500013	0.373874	0.116259
O5	O	1.516914	0.002683	-0.116278
O6	O	1.322868	0.196744	-0.116267
O7	O	1.694068	0.179819	-0.116272
Zn8	Zn	1.508469	0.188282	-0.153187
Zn9	Zn	1.508458	0.188275	0.153168
O10	O	1.500021	0.373880	-0.116261
C11	C	1.275332	0.195470	-0.000006
C12	C	1.133701	0.191665	-0.000005
C13	C	1.036027	0.310669	0.000004
C14	C	0.958685	0.247788	-0.114650
C15	C	0.958683	0.247754	0.114597
C16	C	1.058224	0.128833	-0.114753
C17	C	1.058228	0.128817	0.114597
C18	C	0.980935	0.065848	-0.000085
C19	C	1.515634	-0.044852	-0.000017
C20	C	1.511817	-0.186481	-0.000015
C21	C	1.388351	-0.254610	-0.000003
C22	C	1.446679	-0.346735	-0.114648
C23	C	1.446700	-0.346715	0.114599
C24	C	1.570196	-0.276740	-0.114754
C25	C	1.570200	-0.276711	0.114595
C26	C	1.628618	-0.368808	-0.000078
C27	C	1.741596	0.181087	-0.000010
C28	C	1.883227	0.184892	-0.000002
C29	C	1.501293	0.421409	0.000001
C30	C	1.505110	0.563038	0.000008
N31	N	1.508486	0.188287	-0.362267
C32	C	1.598255	0.098546	-0.453437
C33	C	1.482758	0.072721	-0.546607
C34	C	1.623937	0.214028	-0.546652
C35	C	1.392931	0.162404	-0.453385
C36	C	1.534186	0.303762	-0.453421
C37	C	1.418606	0.277986	-0.546549
N38	N	1.508451	0.188260	0.362247
H39	H	0.915206	0.298027	-0.211574
H40	H	1.674096	0.022615	-0.412552
C41	C	1.830099	-0.400242	-0.120300
C42	C	1.765772	-0.435558	-0.000162
H43	H	1.914767	-0.441460	-0.120358
H44	H	1.833260	-0.310052	-0.121062
H45	H	1.785903	-0.425283	-0.200958
H46	H	1.809963	-0.410508	0.080496
H47	H	1.762618	-0.525767	0.000612
C48	C	0.814730	-0.076495	0.001002
C49	C	0.947951	-0.073996	-0.000144
H50	H	0.794372	-0.162829	0.000977
H51	H	0.779137	-0.033970	-0.079672
H52	H	0.780335	-0.034398	0.082493
H53	H	0.982346	-0.116085	-0.081642
H54	H	0.983558	-0.116539	0.080537
H55	H	1.555983	0.401398	-0.412458
H56	H	1.101720	0.078616	0.211526
H57	H	0.915196	0.298013	0.211514
H58	H	1.295257	0.140510	-0.412589
H59	H	1.101544	0.078628	-0.211779
H60	H	1.060696	0.414185	-0.000098
H61	H	1.286838	-0.204950	-0.000117
H62	H	1.394442	-0.377739	-0.211571
C63	C	1.643544	-0.101956	-0.244608
C64	C	1.640657	-0.235132	-0.245753
H65	H	1.687033	-0.076269	-0.325485
H66	H	1.687110	-0.077436	-0.163309
H67	H	1.558442	-0.061844	-0.244275
H68	H	1.725760	-0.275244	-0.246074
H69	H	1.597094	-0.259664	-0.327073
C70	C	1.575819	-0.269734	0.365385
C71	C	1.640657	-0.234793	0.245440
H72	H	1.619307	-0.243844	0.446169
H73	H	1.573232	-0.359990	0.366793
H74	H	1.490950	-0.229045	0.364547
H75	H	1.725524	-0.275490	0.246273
H76	H	1.643259	-0.144521	0.244033
H77	H	1.394440	-0.377677	0.211532
H78	H	1.460997	-0.024945	-0.587541
H79	H	1.342593	0.353869	-0.587175
C80	C	1.849632	0.149416	-0.554845
C81	C	1.755768	0.243489	-0.601886
H82	H	1.931022	0.167615	-0.588916
H83	H	1.830793	0.068001	-0.588170
H84	H	1.850749	0.148849	-0.455543
H85	H	1.754643	0.244050	-0.701189
H86	H	1.774612	0.324925	-0.568569
