data_functionalizedCrystal
_audit_creation_method	'MofGen! by Chris Wilmer'
_symmetry_space_group_name_H-M	'P1'
_symmetry_Int_Tables_number	1
_symmetry_cell_setting	triclinic
loop_
_symmetry_equiv_pos_as_xyz
  x,y,z
_cell_length_a	10.967926
_cell_length_b	10.654536
_cell_length_c	10.065918
_cell_angle_alpha	80.250135
_cell_angle_beta	87.800512
_cell_angle_gamma	95.398707
loop_
_atom_site_label
_atom_site_type_symbol
_atom_site_fract_x
_atom_site_fract_y
_atom_site_fract_z
O1	O	1.618305	-0.137235	-0.267097
O2	O	1.267182	-0.166128	-0.184506
O3	O	1.450815	0.031343	-0.227746
O4	O	1.434673	-0.334706	-0.223857
O5	O	1.418858	0.063315	-0.447226
O6	O	1.235225	-0.134156	-0.403986
O7	O	1.586348	-0.105263	-0.486578
Zn8	Zn	1.405713	-0.114634	-0.480129
Zn9	Zn	1.447817	-0.156757	-0.190954
O10	O	1.402716	-0.302734	-0.443337
C11	C	1.206244	-0.150455	-0.283671
C12	C	1.072277	-0.151375	-0.252162
C13	C	0.995996	-0.135223	-0.351811
C14	C	0.857535	-0.136172	-0.319247
C15	C	1.433651	0.094088	-0.337216
C16	C	1.430103	0.233413	-0.336409
C17	C	1.649687	0.268946	-0.388080
C18	C	1.757808	0.352166	-0.413539
C19	C	1.754467	0.483073	-0.412777
C20	C	1.642996	0.530760	-0.386548
C21	C	1.534876	0.447540	-0.361089
C22	C	1.538227	0.316632	-0.361859
C23	C	1.315296	0.412006	-0.309409
C24	C	1.318632	0.281100	-0.310180
C25	C	1.203824	0.459693	-0.283180
C26	C	1.095700	0.376474	-0.257730
C27	C	1.099045	0.245560	-0.258495
C28	C	1.210512	0.197880	-0.284721
C29	C	1.647287	-0.120936	-0.387409
C30	C	1.781255	-0.120018	-0.418910
N31	N	1.376986	-0.085885	-0.677485
C32	C	1.419877	0.634529	-0.333915
C33	C	1.423416	0.495226	-0.334868
C34	C	1.437815	-0.146755	-0.759556
C35	C	1.415716	-0.124617	-0.911531
N36	N	1.476553	-0.185496	0.006399
H37	H	0.818447	-0.105481	-0.528340
O38	O	1.023021	-0.170630	-0.107212
H39	H	0.921996	-0.168365	-0.104381
O40	O	0.808297	-0.155416	-0.174287
H41	H	0.741734	-0.242434	-0.152755
H42	H	1.652416	0.162359	-0.388722
O43	O	0.975478	0.427904	-0.229454
H44	H	0.991320	0.532912	-0.233204
O45	O	1.045260	-0.115984	-0.496756
H46	H	1.022857	-0.021987	-0.550882
O47	O	1.878035	0.300730	-0.441818
H48	H	1.917014	0.347419	-0.543511
H49	H	1.544998	-0.254001	-0.951362
H50	H	1.506257	-0.215253	-0.717310
H51	H	1.842510	0.550830	-0.433497
O52	O	1.200209	0.600886	-0.282368
H53	H	1.294114	0.650748	-0.304496
O54	O	1.286350	0.004887	-0.733421
H55	H	1.194008	-0.028897	-0.684365
H56	H	1.640288	0.637350	-0.385913
H57	H	1.011000	0.177807	-0.237758
O58	O	1.214116	0.056687	-0.285542
H59	H	1.309791	0.037512	-0.308045
H60	H	1.347278	-0.056106	-0.953773
