data_functionalizedCrystal
_audit_creation_method	'MofGen! by Chris Wilmer'
_symmetry_space_group_name_H-M	'P1'
_symmetry_Int_Tables_number	1
_symmetry_cell_setting	triclinic
loop_
_symmetry_equiv_pos_as_xyz
  x,y,z
_cell_length_a	14.560438
_cell_length_b	18.426585
_cell_length_c	14.560438
_cell_angle_alpha	89.998545
_cell_angle_beta	60.005846
_cell_angle_gamma	60.000820
loop_
_atom_site_label
_atom_site_type_symbol
_atom_site_fract_x
_atom_site_fract_y
_atom_site_fract_z
Zr1	Zr	1.005229	0.699144	-0.120400
O2	O	1.196808	0.583276	-0.267016
O3	O	0.813646	0.734660	-0.075474
O4	O	1.005231	0.734669	-0.267049
O5	O	1.005223	0.583265	0.075698
O6	O	1.005238	0.854095	-0.267053
O7	O	1.005223	0.583267	-0.075441
O8	O	0.662527	0.854079	0.075639
O9	O	1.347934	0.583281	-0.266994
O10	O	0.892453	0.838938	-0.056293
O11	O	0.892448	0.749810	0.056504
O12	O	1.118015	0.749821	-0.169051
O13	O	1.118010	0.660693	-0.056254
Zr14	Zr	1.005239	0.889611	0.120644
Zr15	Zr	1.005239	0.889615	-0.120406
Zr16	Zr	1.005229	0.699141	0.120650
Zr17	Zr	1.246257	0.699152	-0.120365
Zr18	Zr	0.764211	0.889603	0.120609
O19	O	1.196822	0.854096	0.075718
O20	O	1.196823	0.854101	-0.267025
O21	O	1.196807	0.583271	0.075727
O22	O	0.813660	1.005479	0.267260
O23	O	0.813661	1.005484	-0.075483
O24	O	0.813645	0.734654	0.267268
O25	O	1.005245	1.005491	-0.075455
O26	O	1.005237	0.854086	0.267293
O27	O	1.005230	0.734661	0.267296
O28	O	1.005245	1.005488	0.075685
O29	O	1.347942	0.734680	-0.266999
O30	O	0.662526	0.854076	0.267242
O31	O	0.662535	1.005474	0.267238
O32	O	0.662535	1.005477	0.075635
O33	O	1.347933	0.583278	-0.075391
O34	O	1.347941	0.734677	-0.075396
O35	O	0.892453	0.838935	0.169295
O36	O	0.892458	0.928063	0.056498
O37	O	1.118020	0.838945	-0.056260
O38	O	1.118015	0.749817	0.056537
C39	C	0.703745	0.794368	0.000078
C40	C	0.601423	0.794365	0.000063
C41	C	0.636546	0.728579	-0.083156
C42	C	0.540357	0.728593	-0.083100
C43	C	0.373922	0.860183	0.083404
C44	C	0.470111	0.860172	0.083342
C45	C	0.732635	0.652604	-0.179284
C46	C	0.636446	0.652618	-0.179227
C47	C	1.005221	0.556128	0.000129
C48	C	1.005217	0.475268	0.000132
C49	C	1.005256	0.179154	0.000112
C50	C	1.005251	0.261540	0.000115
C51	C	1.005237	0.327208	0.000121
C52	C	1.005231	0.409600	0.000126
C53	C	1.306723	0.794387	0.000166
C54	C	1.409045	0.794390	0.000181
C55	C	1.005235	0.794383	-0.301395
C56	C	1.005235	0.794384	-0.403728
C57	C	1.005247	1.032627	0.000114
C58	C	1.005251	1.113487	0.000112
C59	C	1.005244	0.860173	-0.451814
C60	C	1.005238	0.860168	-0.547963
C61	C	1.005220	0.728579	-0.547934
C62	C	1.005216	0.728588	-0.451782
C63	C	1.005260	0.936143	-0.451834
C64	C	1.005254	0.936138	-0.547983
C65	C	1.005233	0.794373	0.301639
C66	C	1.005233	0.794371	0.403971
C67	C	0.703758	1.032618	0.000070
C68	C	0.601440	1.113474	0.000052
C69	C	0.703745	0.794363	0.301595
C70	C	0.601422	0.794359	0.403912
C71	C	0.703757	1.032613	0.301587
C72	C	0.601439	1.113468	0.403902
C73	C	1.306711	0.556142	-0.301344
C74	C	1.409029	0.475288	-0.403658
C75	C	1.306710	0.556138	0.000174
C76	C	1.409028	0.475281	0.000191
C77	C	1.306723	0.794392	-0.301351
C78	C	1.409046	0.794397	-0.403668
C79	C	0.553388	1.104923	-0.058842
C80	C	0.457262	1.180889	-0.058881
C81	C	0.409184	1.265405	-0.000019
C82	C	0.457246	1.273955	0.058877
C83	C	0.553376	1.197989	0.058909
C84	C	0.553392	1.197970	0.393071
C85	C	0.457266	1.273949	0.489197
C86	C	0.409183	1.265424	0.596153
C87	C	0.457240	1.180913	0.606982
C88	C	0.553370	1.104936	0.510857
C89	C	1.457088	0.390785	-0.392827
C90	C	1.553243	0.314806	-0.488954
C91	C	1.601332	0.323332	-0.595909
C92	C	1.553269	0.407843	-0.606738
C93	C	1.457122	0.483820	-0.510613
C94	C	1.457090	0.483832	0.059075
C95	C	1.553242	0.407866	0.059088
C96	C	1.601324	0.323350	0.000222
C97	C	1.553258	0.314801	-0.058669
C98	C	1.457114	0.390766	-0.058688
C99	C	0.553348	0.840880	0.510857
C100	C	0.457210	0.840868	0.606991
C101	C	0.457224	0.747813	0.489222
C102	C	0.553367	0.747820	0.393090
C103	C	0.553335	0.894607	0.578851
C104	C	0.457197	0.894596	0.674984
H105	H	0.266999	0.913760	0.151208
H106	H	1.592435	0.414773	-0.693833
O107	O	1.128794	0.918570	-0.474087
H108	H	1.177639	0.857624	-0.455609
O109	O	0.636380	0.670207	-0.280493
H110	H	0.654163	0.612846	-0.329318
O111	O	0.816066	0.661266	-0.288071
H112	H	0.780619	0.665526	-0.341277
H113	H	1.592362	0.414845	0.107048
O114	O	0.405368	0.697633	0.477570
H115	H	0.486066	0.626130	0.430906
O116	O	0.605176	1.207225	0.122454
H117	H	0.680103	1.140209	0.112595
O118	O	1.405236	0.381571	-0.277478
H119	H	1.330293	0.448594	-0.212442
H120	H	1.005204	0.675010	-0.587069
H121	H	0.792305	0.592180	-0.162486
H122	H	0.367185	0.965729	0.727167
O123	O	0.505076	0.847612	0.742413
H124	H	0.536830	0.881384	0.769793
O125	O	1.704986	0.241418	0.000282
H126	H	1.730301	0.261572	0.051142
H127	H	0.592527	1.204928	0.305991
H128	H	1.592360	0.246001	-0.480115
H129	H	0.911993	0.996564	-0.531188
O130	O	0.505490	0.985717	0.567275
H131	H	0.585209	0.981966	0.490006
O132	O	0.405429	1.365094	0.477507
H133	H	0.455000	1.358250	0.386982
O134	O	1.405272	0.574962	-0.522300
H135	H	1.454859	0.568116	-0.612825
O136	O	1.605128	0.223641	-0.122160
H137	H	1.586671	0.186808	-0.062708
H138	H	1.417985	0.383791	-0.106635
H139	H	1.095654	0.929587	-0.619273
H140	H	1.005192	0.675024	-0.412623
H141	H	0.643337	0.864729	0.578882
H142	H	1.679621	0.261459	-0.674172
H143	H	0.330907	1.327297	0.674415
H144	H	0.592532	1.036113	-0.106788
H145	H	0.441502	0.913749	0.151098
H146	H	0.647257	0.587736	-0.170916
O147	O	0.405424	1.171659	-0.122396
H148	H	0.454994	1.100126	-0.163299
O149	O	0.885530	1.022083	-0.357412
H150	H	0.826907	1.064149	-0.387436
O151	O	0.305490	1.347338	-0.000047
H152	H	0.280151	1.327184	-0.050882
O153	O	0.405374	1.365113	0.122374
H154	H	0.330445	1.416492	0.112463
H155	H	0.418076	1.173985	0.694078
H156	H	0.592478	1.036133	0.519691
O157	O	0.605000	0.697821	0.277739
H158	H	0.555336	0.665534	0.286370
H159	H	1.417950	0.552643	0.107018
