data_functionalizedCrystal
_audit_creation_method	'MofGen! by Chris Wilmer'
_symmetry_space_group_name_H-M	'P1'
_symmetry_Int_Tables_number	1
_symmetry_cell_setting	triclinic
loop_
_symmetry_equiv_pos_as_xyz
  x,y,z
_cell_length_a	17.019383
_cell_length_b	12.837942
_cell_length_c	11.295483
_cell_angle_alpha	85.469583
_cell_angle_beta	82.036179
_cell_angle_gamma	90.898633
loop_
_atom_site_label
_atom_site_type_symbol
_atom_site_fract_x
_atom_site_fract_y
_atom_site_fract_z
O1	O	1.066670	-0.117430	-0.208298
O2	O	0.837135	-0.135911	-0.184786
O3	O	0.946812	0.024188	-0.196013
O4	O	0.956993	-0.277529	-0.197070
O5	O	0.937178	0.010148	0.003024
O6	O	0.827500	-0.149951	0.014251
O7	O	1.057035	-0.131470	-0.009261
Cu8	Cu	0.941388	-0.141993	0.020669
Cu9	Cu	0.952782	-0.125388	-0.214715
O10	O	0.947358	-0.291569	0.001967
C11	C	0.802734	-0.142504	-0.082237
C12	C	0.714584	-0.141220	-0.073207
C13	C	0.678415	-0.132967	-0.177451
C14	C	0.595588	-0.131778	-0.168949
C15	C	0.548930	-0.138835	-0.056202
C16	C	0.585105	-0.147093	0.048050
C17	C	0.667931	-0.148289	0.039547
C18	C	0.298587	-0.135614	-0.025101
C19	C	0.215755	-0.134414	-0.016605
C20	C	0.226244	-0.119101	-0.233605
C21	C	0.309071	-0.120291	-0.242099
C22	C	0.345238	-0.128554	-0.137847
C23	C	0.464267	-0.137617	-0.047509
C24	C	0.429900	-0.129780	-0.146541
C25	C	0.938556	0.055759	-0.096143
C26	C	0.928300	0.170747	-0.095094
C27	C	1.091436	-0.124877	-0.111812
C28	C	1.179586	-0.126160	-0.120850
C29	C	0.955614	-0.323140	-0.097906
C30	C	0.965870	-0.438128	-0.098962
N31	N	0.933380	-0.153671	0.186225
C32	C	1.051597	0.412772	-0.107749
C33	C	1.041964	0.520815	-0.106764
C34	C	0.899404	0.494879	-0.092149
C35	C	0.909036	0.386836	-0.093133
C36	C	0.985135	0.345787	-0.100932
C37	C	0.994767	0.237741	-0.101908
C38	C	0.852207	0.211808	-0.087301
C39	C	0.842575	0.319851	-0.086317
N40	N	0.960796	-0.113702	-0.380272
C41	C	1.018441	-0.029580	0.426807
C42	C	1.012395	-0.038413	0.552090
C43	C	0.915238	-0.180162	0.562076
C44	C	0.921284	-0.171330	0.436793
C45	C	0.972888	-0.096037	0.369163
C46	C	0.978938	-0.087211	0.243878
C47	C	0.881777	-0.228954	0.253866
C48	C	0.875731	-0.237787	0.379149
H49	H	0.177768	-0.140190	0.075211
Cl50	Cl	0.746913	0.371467	-0.076524
H51	H	0.426270	-0.143360	0.044290
H52	H	0.547109	-0.152845	0.139851
Cl53	Cl	0.768650	0.127590	-0.078716
H54	H	0.328024	-0.142335	0.059789
H55	H	0.566143	-0.125057	-0.253836
H56	H	0.844687	-0.283071	0.206918
Cl57	Cl	1.043812	0.007439	0.158859
H58	H	1.060464	0.031719	0.371741
Cl59	Cl	0.810859	-0.332433	0.464177
Cl60	Cl	0.713400	-0.158670	0.170602
Cl61	Cl	1.090432	0.186137	-0.111704
H62	H	1.049488	0.015704	0.599020
H63	H	0.716399	-0.127216	-0.269262
H64	H	1.096085	0.575351	-0.112319
H65	H	0.837448	0.528321	-0.085812
Cl66	Cl	1.147260	0.361161	-0.117522
H67	H	0.467892	-0.124040	-0.238339
Cl68	Cl	0.850360	-0.274799	0.647109
H69	H	0.347055	-0.114537	-0.333909
H70	H	0.196788	-0.112376	-0.318481
