data_functionalizedCrystal
_audit_creation_method	'MofGen! by Chris Wilmer'
_symmetry_space_group_name_H-M	'P1'
_symmetry_Int_Tables_number	1
_symmetry_cell_setting	triclinic
loop_
_symmetry_equiv_pos_as_xyz
  x,y,z
_cell_length_a	6.817900
_cell_length_b	7.190334
_cell_length_c	19.453103
_cell_angle_alpha	88.400661
_cell_angle_beta	101.709178
_cell_angle_gamma	60.611776
loop_
_atom_site_label
_atom_site_type_symbol
_atom_site_fract_x
_atom_site_fract_y
_atom_site_fract_z
V1	V	-4.214586	0.665981	-0.096059
O2	O	-4.207232	0.652283	0.005769
O3	O	-4.156443	0.662407	-0.191578
O4	O	-4.251923	0.955990	-0.094076
O5	O	-4.111091	0.356667	-0.092408
V6	V	-4.688367	0.628865	-0.083939
O7	O	-4.497215	0.747397	-0.122646
O8	O	-4.855936	0.547449	-0.057353
O9	O	-4.523303	0.632439	0.011580
O10	O	-4.813118	0.642563	-0.185767
O11	O	-4.909259	0.938178	-0.087590
O12	O	-4.427823	0.338856	-0.085923
C13	C	-3.996300	0.652154	-0.214879
C14	C	-4.030620	0.651165	-0.292964
C15	C	-4.118105	1.026646	-0.090502
C16	C	-4.231951	1.268192	-0.089493
C17	C	-4.231670	0.661366	-0.333202
C18	C	-4.263928	0.660458	-0.406572
C19	C	-4.095103	0.649307	-0.439699
C20	C	-3.894030	0.639117	-0.399452
C21	C	-3.861789	0.640046	-0.326084
N22	N	-3.947478	0.517871	-0.546185
N23	N	-3.978117	0.516985	-0.615881
C24	C	-4.192236	0.646511	-0.660751
N25	N	-4.374578	0.776932	-0.633291
N26	N	-4.343937	0.777809	-0.563588
C27	C	-4.130044	0.648299	-0.519253
C28	C	-4.428279	0.655731	-0.780545
C29	C	-4.460537	0.654837	-0.853917
C30	C	-4.090622	0.633473	-0.846794
C31	C	-4.058381	0.634390	-0.773425
C32	C	-4.227212	0.645509	-0.740305
C33	C	-4.346787	0.642686	0.034877
C34	C	-4.291709	0.643689	0.112961
H35	H	-4.369156	0.670434	-0.306241
C36	C	-4.611275	0.667379	-0.744518
C37	C	-4.512003	0.484060	-0.693466
C38	C	-4.680512	0.494700	-0.660270
H39	H	-4.668545	0.793061	-0.722186
H40	H	-4.735645	0.673228	-0.778965
H41	H	-4.387675	0.478232	-0.659024
H42	H	-4.454746	0.358350	-0.715779
H43	H	-4.804882	0.500549	-0.694718
H44	H	-4.737772	0.620389	-0.637943
H45	H	-4.613186	0.370313	-0.625633
H46	H	-3.953167	0.624407	-0.873766
C47	C	-3.710585	0.626561	-0.435430
C48	C	-3.626667	0.440928	-0.468168
C49	C	-3.457652	0.429285	-0.501310
H50	H	-3.777299	0.750609	-0.470158
H51	H	-3.586113	0.620497	-0.400970
H52	H	-3.751116	0.447010	-0.502625
H53	H	-3.559910	0.316849	-0.433456
H54	H	-3.333180	0.423221	-0.466850
H55	H	-3.524384	0.553341	-0.536033
H56	H	-3.400677	0.303324	-0.523520
C57	C	-4.678990	0.666323	-0.897669
C58	C	-4.799942	0.850878	-0.949144
C59	C	-5.001199	0.861530	-0.989458
H60	H	-4.637438	0.541537	-0.920298
H61	H	-4.775044	0.673184	-0.867466
H62	H	-4.703908	0.843999	-0.979344
H63	H	-4.841552	0.975695	-0.926535
H64	H	-5.097253	0.868391	-0.959254
H65	H	-4.959625	0.736736	-1.012082
H66	H	-5.083301	0.986759	-1.024384
C67	C	-3.643214	0.628503	-0.282406
C68	C	-3.447908	0.437369	-0.288938
C69	C	-3.246515	0.426641	-0.248703
H70	H	-3.634244	0.748820	-0.299128
H71	H	-3.648039	0.630522	-0.233953
H72	H	-3.443083	0.435369	-0.337382
H73	H	-3.456801	0.317018	-0.272212
H74	H	-3.251339	0.428660	-0.200250
H75	H	-3.237568	0.546968	-0.265429
H76	H	-3.113978	0.296950	-0.253125
H77	H	-4.427653	0.668764	-0.439341
H78	H	-3.894659	0.626070	-0.740662
