data_functionalizedCrystal
_audit_creation_method	'MofGen! by Chris Wilmer'
_symmetry_space_group_name_H-M	'P1'
_symmetry_Int_Tables_number	1
_symmetry_cell_setting	triclinic
loop_
_symmetry_equiv_pos_as_xyz
  x,y,z
_cell_length_a	15.297475
_cell_length_b	19.121063
_cell_length_c	19.120904
_cell_angle_alpha	94.741613
_cell_angle_beta	83.145247
_cell_angle_gamma	83.156694
loop_
_atom_site_label
_atom_site_type_symbol
_atom_site_fract_x
_atom_site_fract_y
_atom_site_fract_z
Zn1	Zn	1.320044	-0.483150	-0.595230
Zn2	Zn	1.820044	0.016850	-0.095230
Zn3	Zn	1.319934	-0.595782	-0.482565
Zn4	Zn	1.819934	-0.095782	0.017435
Zn5	Zn	1.178098	-0.458146	-0.457640
Zn6	Zn	1.678098	0.041854	0.042360
Zn7	Zn	1.164808	-0.578899	-0.578391
Zn8	Zn	1.664808	-0.078899	-0.078391
O9	O	1.245721	-0.528994	-0.528457
O10	O	1.745721	-0.028994	-0.028457
O11	O	1.444356	-0.515621	-0.597763
O12	O	1.944356	-0.015621	-0.097763
O13	O	1.306636	-0.574125	-0.381573
O14	O	1.806636	-0.074125	0.118427
O15	O	1.202536	-0.363791	-0.472507
O16	O	1.702536	0.136209	0.027493
O17	O	1.444275	-0.598371	-0.514989
O18	O	1.944275	-0.098371	-0.014989
O19	O	1.306823	-0.382161	-0.573594
O20	O	1.806823	0.117839	-0.073594
O21	O	1.202430	-0.473005	-0.363261
O22	O	1.702430	0.026995	0.136739
O23	O	1.052009	-0.456634	-0.456180
O24	O	1.552009	0.043366	0.043820
O25	O	1.179884	-0.569597	-0.678310
O26	O	1.679884	-0.069597	-0.178310
O27	O	1.042245	-0.545351	-0.544895
O28	O	1.542245	-0.045351	-0.044895
O29	O	1.293936	-0.499251	-0.690681
O30	O	1.793936	0.000749	-0.190681
O31	O	1.293748	-0.691215	-0.498661
O32	O	1.793748	-0.191215	0.001339
O33	O	1.179777	-0.678811	-0.569064
O34	O	1.679777	-0.178811	-0.069064
C35	C	1.014891	-0.496448	-0.496006
C36	C	1.514891	0.003552	0.003994
C37	C	0.916138	-0.482542	-0.482140
C38	C	1.416138	0.017458	0.017860
C39	C	0.617535	-0.628388	-0.627557
C40	C	1.117535	-0.128388	-0.127557
C41	C	0.710317	-0.641459	-0.640582
C42	C	1.210317	-0.141459	-0.140582
C43	C	0.761777	-0.601730	-0.600973
C44	C	1.261777	-0.101730	-0.100973
C45	C	0.720446	-0.548930	-0.548336
C46	C	1.220446	-0.048930	-0.048336
C47	C	0.627654	-0.535862	-0.535305
C48	C	1.127654	-0.035862	-0.035305
C49	C	0.771896	-0.509204	-0.508722
C50	C	1.271896	-0.009204	-0.008722
C51	C	0.730565	-0.456403	-0.456084
C52	C	1.230565	0.043597	0.043916
C53	C	0.637782	-0.443337	-0.443057
C54	C	1.137782	0.056663	0.056943
C55	C	0.586322	-0.483066	-0.482666
C56	C	1.086322	0.016934	0.017334
C57	C	0.864688	-0.522272	-0.521752
C58	C	1.364688	-0.022272	-0.021752
C59	C	0.874807	-0.429746	-0.429501
C60	C	1.374807	0.070254	0.070499
C61	C	0.782024	-0.416675	-0.416475
C62	C	1.282024	0.083325	0.083525
C63	C	1.235332	-0.710342	-0.534758
C64	C	1.735332	-0.210342	-0.034758
C65	C	1.230967	-0.787936	-0.537489
C66	C	1.730967	-0.287936	-0.037489
C67	C	1.288297	-0.830831	-0.502160
C68	C	1.788297	-0.330831	-0.002160
C69	C	1.284197	-0.903739	-0.504733
C70	C	1.784197	-0.403739	-0.004733
C71	C	1.222762	-0.933749	-0.542632
C72	C	1.722762	-0.433749	-0.042632
C73	C	1.165430	-0.890848	-0.577965
C74	C	1.665430	-0.390848	-0.077965
C75	C	1.169534	-0.817943	-0.575396
C76	C	1.669534	-0.317943	-0.075396
C77	C	1.207401	-1.153556	-0.552225
C78	C	1.707401	-0.653556	-0.052225
C79	C	1.203299	-1.226467	-0.554790
C80	C	1.703299	-0.726467	-0.054790
C81	C	1.322068	-1.239353	-0.481559
C82	C	1.822068	-0.739353	0.018441
C83	C	1.326164	-1.166445	-0.478989
C84	C	1.826164	-0.666445	0.021011
C85	C	1.268835	-1.123551	-0.514326
C86	C	1.768835	-0.623551	-0.014326
C87	C	1.218568	-1.008272	-0.545261
C88	C	1.718568	-0.508272	-0.045261
C89	C	1.273034	-1.049030	-0.511700
C90	C	1.773034	-0.549030	-0.011700
C91	C	1.477453	-0.561668	-0.561034
C92	C	1.977453	-0.061668	-0.061034
C93	C	1.576203	-0.575592	-0.574917
C94	C	2.076203	-0.075592	-0.074917
C95	C	1.235439	-0.535330	-0.710533
C96	C	1.735439	-0.035330	-0.210533
C97	C	1.231058	-0.538029	-0.788123
C98	C	1.731058	-0.038029	-0.288123
C99	C	1.256175	-0.346942	-0.522149
C100	C	1.756175	0.153058	-0.022149
C101	C	1.260629	-0.269363	-0.519461
C102	C	1.760629	0.230637	-0.019461
C103	C	1.288377	-0.502674	-0.831017
C104	C	1.788377	-0.002674	-0.331017
C105	C	1.284250	-0.505206	-0.903919
C106	C	1.784250	-0.005206	-0.403919
C107	C	1.222806	-0.543099	-0.933927
C108	C	1.722806	-0.043099	-0.433927
C109	C	1.165481	-0.578456	-0.891027
C110	C	1.665481	-0.078456	-0.391027
C111	C	1.169605	-0.575919	-0.818125
C112	C	1.669605	-0.075919	-0.318125
C113	C	1.207380	-0.552588	-1.153720
C114	C	1.707380	-0.052588	-0.653720
C115	C	1.203263	-0.555124	-1.226628
C116	C	1.703263	-0.055124	-0.726628
C117	C	1.322030	-0.481873	-1.239515
C118	C	1.822030	0.018127	-0.739515
C119	C	1.326152	-0.479343	-1.166611
C120	C	1.826152	0.020657	-0.666611
C121	C	1.268824	-0.514697	-1.123718
C122	C	1.768824	-0.014697	-0.623718
C123	C	1.218588	-0.545690	-1.008445
C124	C	1.718588	-0.045690	-0.508445
C125	C	1.273039	-0.512101	-1.049200
C126	C	1.773039	-0.012101	-0.549200
C127	C	1.256017	-0.522641	-0.347094
C128	C	1.756017	-0.022641	0.152906
C129	C	1.260582	-0.519768	-0.269522
C130	C	1.760582	-0.019768	0.230478
H131	H	0.575628	-0.660733	-0.659797
H132	H	1.075628	-0.160733	-0.159797
H133	H	0.604133	-0.400351	-0.400189
H134	H	1.104133	0.099649	0.099811
H135	H	1.115450	-0.609306	-0.915465
H136	H	1.615450	-0.109306	-0.415465
H137	H	1.376188	-0.448489	-1.142185
H138	H	1.876188	0.051511	-0.642185
H139	H	0.837325	-0.612375	-0.611582
H140	H	1.337325	-0.112375	-0.111582
H141	H	1.153225	-0.585982	-1.251057
H142	H	1.653225	-0.085982	-0.751057
H143	H	1.115412	-0.915289	-0.608826
H144	H	1.615412	-0.415289	-0.108826
H145	H	0.743963	-0.684450	-0.683438
H146	H	1.243963	-0.184450	-0.183438
H147	H	0.510771	-0.472425	-0.472064
H148	H	1.010771	0.027575	0.027936
H149	H	1.323062	-0.481245	-1.024764
H150	H	1.823062	0.018755	-0.524764
H151	H	1.168565	-0.576547	-1.032886
H152	H	1.668565	-0.076547	-0.532886
H153	H	1.338320	-0.806402	-0.471296
H154	H	1.838320	-0.306402	0.028704
H155	H	0.748359	-0.373685	-0.373617
H156	H	1.248359	0.126315	0.126383
H157	H	0.898331	-0.565263	-0.564610
H158	H	1.398331	-0.065263	-0.064610
H159	H	0.916705	-0.397397	-0.397247
H160	H	1.416705	0.102603	0.102753
H161	H	1.330881	-0.938662	-0.475964
H162	H	1.830881	-0.438662	0.024036
H163	H	1.160712	-0.581387	-1.118807
H164	H	1.660712	-0.081387	-0.618807
H165	H	1.376189	-1.142013	-0.448130
H166	H	1.876189	-0.642013	0.051870
H167	H	1.368703	-0.453090	-1.274446
H168	H	1.868703	0.046910	-0.774446
H169	H	1.122921	-0.604701	-0.783200
H170	H	1.622921	-0.104701	-0.283200
H171	H	1.153281	-1.250900	-0.585665
H172	H	1.653281	-0.750900	-0.085665
H173	H	1.368744	-1.274285	-0.452791
H174	H	1.868744	-0.774285	0.047209
H175	H	1.160720	-1.118637	-0.580995
H176	H	1.660720	-0.618637	-0.080995
H177	H	1.323057	-1.024594	-0.480847
H178	H	1.823057	-0.524594	0.019153
H179	H	1.122851	-0.783017	-0.604165
H180	H	1.622851	-0.283017	-0.104165
H181	H	1.168546	-1.032714	-0.576116
H182	H	1.668546	-0.532714	-0.076116
H183	H	1.338413	-0.471820	-0.806591
H184	H	1.838413	0.028180	-0.306591
H185	H	1.330927	-0.476418	-0.938841
H186	H	1.830927	0.023582	-0.438841
