data_functionalizedCrystal
_audit_creation_method	'MofGen! by Chris Wilmer'
_symmetry_space_group_name_H-M	'P1'
_symmetry_Int_Tables_number	1
_symmetry_cell_setting	triclinic
loop_
_symmetry_equiv_pos_as_xyz
  x,y,z
_cell_length_a	14.044220
_cell_length_b	22.610064
_cell_length_c	14.044220
_cell_angle_alpha	89.996475
_cell_angle_beta	93.188878
_cell_angle_gamma	90.004031
loop_
_atom_site_label
_atom_site_type_symbol
_atom_site_fract_x
_atom_site_fract_y
_atom_site_fract_z
O1	O	1.277173	0.049124	0.230155
O2	O	1.777173	0.549124	0.730155
O3	O	1.000502	0.049139	0.221849
O4	O	1.500502	0.549139	0.721849
O5	O	1.134685	0.049126	0.087667
O6	O	1.634685	0.549126	0.587667
O7	O	1.142991	0.049137	0.364338
O8	O	1.642991	0.549137	0.864338
O9	O	1.134661	-0.049243	0.087686
O10	O	1.634661	0.450757	0.587686
O11	O	1.000478	-0.049230	0.221869
O12	O	1.500478	0.450770	0.721869
O13	O	1.277149	-0.049245	0.230174
O14	O	1.777149	0.450755	0.730174
Zn15	Zn	1.138810	-0.064856	0.226025
Zn16	Zn	1.638810	0.435144	0.726025
Zn17	Zn	1.138842	0.064750	0.225999
Zn18	Zn	1.638842	0.564750	0.725999
O19	O	1.142966	-0.049232	0.364357
O20	O	1.642966	0.450768	0.864357
C21	C	0.964868	-0.000044	0.218223
C22	C	1.464868	0.499956	0.718223
C23	C	0.858725	-0.000038	0.207379
C24	C	1.358725	0.499962	0.707379
N25	N	1.138795	-0.153308	0.226042
N26	N	1.638795	0.346692	0.726042
C27	C	0.664388	-0.000051	0.187553
C28	C	1.164388	0.499949	0.687553
C29	C	0.613258	-0.000050	0.264467
C30	C	1.113258	0.499950	0.764467
C31	C	0.505122	-0.000057	0.253435
C32	C	1.005122	0.499943	0.753435
C33	C	0.772534	-0.000044	0.198583
C34	C	1.272534	0.499956	0.698583
C35	C	1.198262	-0.561956	0.166593
C36	C	1.698262	-0.061956	0.666593
C37	C	1.198266	-0.623876	0.166587
C38	C	1.698266	-0.123876	0.666587
O39	O	1.248787	-0.655899	0.116052
O40	O	1.748787	-0.155899	0.616052
N41	N	1.138839	-0.654846	0.225979
N42	N	1.638839	-0.154846	0.725979
C43	C	1.079397	-0.623893	0.285375
C44	C	1.579397	-0.123893	0.785375
O45	O	1.028850	-0.655921	0.335892
O46	O	1.528850	-0.155921	0.835892
C47	C	1.079389	-0.561974	0.285376
C48	C	1.579389	-0.061974	0.785376
C49	C	1.138826	-0.531007	0.225987
C50	C	1.638826	-0.031007	0.725987
C51	C	1.257694	-0.530989	0.107208
C52	C	1.757694	-0.030989	0.607208
C53	C	1.257690	-0.469073	0.107216
C54	C	1.757690	0.030927	0.607216
C55	C	1.198255	-0.438124	0.166609
C56	C	1.698255	0.061876	0.666609
C57	C	1.138823	-0.469091	0.225995
C58	C	1.638823	0.030909	0.725995
C59	C	1.019943	-0.531022	0.344766
C60	C	1.519943	-0.031022	0.844766
C61	C	1.019939	-0.469099	0.344762
C62	C	1.519939	0.030901	0.844762
C63	C	1.079376	-0.438132	0.285372
C64	C	1.579376	0.061868	0.785372
C65	C	1.079385	-0.376227	0.285396
C66	C	1.579385	0.123773	0.785396
N67	N	1.138811	-0.345257	0.226004
N68	N	1.638811	0.154743	0.726004
C69	C	1.198247	-0.376206	0.166610
C70	C	1.698247	0.123794	0.666610
C71	C	1.079418	-0.753926	0.285368
C72	C	1.579418	-0.253926	0.785368
C73	C	1.079431	-0.815844	0.285373
C74	C	1.579431	-0.315844	0.785373
C75	C	1.198299	-0.815823	0.166582
C76	C	1.698299	-0.315823	0.666582
C77	C	1.198290	-0.753904	0.166583
C78	C	1.698290	-0.253904	0.666583
C79	C	1.138845	-0.722956	0.225975
C80	C	1.638845	-0.222956	0.725975
C81	C	1.198236	-0.246178	0.166632
C82	C	1.698236	0.253822	0.666632
C83	C	1.198230	-0.184257	0.166648
C84	C	1.698230	0.315743	0.666648
C85	C	1.079360	-0.184284	0.285434
C86	C	1.579360	0.315716	0.785434
C87	C	1.079368	-0.246199	0.285422
C88	C	1.579368	0.253801	0.785422
C89	C	1.138810	-0.277145	0.226013
C90	C	1.638810	0.222855	0.726013
O91	O	1.028887	-0.344164	0.335902
O92	O	1.528887	0.155836	0.835902
O93	O	1.248776	-0.344170	0.116093
O94	O	1.748776	0.155830	0.616093
C95	C	1.312783	-0.000061	0.233800
C96	C	1.812783	0.499939	0.733800
C97	C	1.418926	-0.000063	0.244645
C98	C	1.918926	0.499937	0.744645
C99	C	1.131037	-0.000059	0.052054
C100	C	1.631037	0.499941	0.552054
C101	C	1.120193	-0.000059	-0.054088
C102	C	1.620193	0.499941	0.445912
N103	N	1.138863	0.153202	0.225975
N104	N	1.638863	0.653202	0.725975
C105	C	1.100366	-0.000049	-0.248426
C106	C	1.600366	0.499951	0.251574
C107	C	1.177281	-0.000052	-0.299556
C108	C	1.677281	0.499948	0.200444
C109	C	1.166249	-0.000046	-0.407692
C110	C	1.666249	0.499954	0.092308
C111	C	1.111397	-0.000055	-0.140280
C112	C	1.611397	0.499945	0.359720
C113	C	1.146614	-0.000046	0.399969
C114	C	1.646614	0.499954	0.899969
C115	C	1.157459	-0.000042	0.506112
C116	C	1.657459	0.499958	1.006112
H117	H	0.650697	-0.000044	0.338600
H118	H	1.150697	0.499956	0.838600
N119	N	1.015330	-0.849240	0.349434
N120	N	1.515330	-0.349240	0.849434
H121	H	0.977679	-0.820233	0.387055
H122	H	1.477679	-0.320233	0.887055
H123	H	0.970035	-0.874928	0.309284
H124	H	1.470035	-0.374928	0.809284
H125	H	0.626951	-0.000057	0.113425
H126	H	1.126951	0.499943	0.613425
H127	H	1.251414	-0.000016	-0.262117
H128	H	1.751414	0.499984	0.237883
N129	N	1.262343	-0.150857	0.102593
N130	N	1.762343	0.349143	0.602593
H131	H	1.299992	-0.179863	0.064966
H132	H	1.799992	0.320137	0.564966
H133	H	1.222228	-0.125165	0.057276
H134	H	1.722228	0.374835	0.557276
N135	N	1.002172	-0.000043	-0.298008
N136	N	1.502172	0.499957	0.201992
H137	H	1.008113	-0.000042	-0.369348
H138	H	1.508113	0.499958	0.130652
H139	H	0.966356	-0.036511	-0.278877
H140	H	1.466356	0.463489	0.221123
H141	H	1.246637	-0.271367	0.118255
H142	H	1.746637	0.228633	0.618255
H143	H	1.306087	-0.443863	0.058853
H144	H	1.806087	0.056137	0.558853
H145	H	1.031014	-0.728732	0.333740
H146	H	1.531014	-0.228732	0.833740
N147	N	1.321820	-0.564363	0.043159
N148	N	1.821820	-0.064363	0.543159
H149	H	1.359468	-0.535341	0.005550
H150	H	1.859468	-0.035341	0.505550
H151	H	1.367117	-0.590043	0.083319
H152	H	1.867117	-0.090043	0.583319
H153	H	1.246693	-0.841032	0.118220
H154	H	1.746693	-0.341032	0.618220
N155	N	1.262397	-0.720506	0.102529
N156	N	1.762397	-0.220506	0.602529
H157	H	1.300048	-0.749513	0.064908
H158	H	1.800048	-0.249513	0.564908
H159	H	1.222280	-0.694818	0.057205
H160	H	1.722280	-0.194818	0.557205
N161	N	0.955818	-0.564412	0.408807
N162	N	1.455818	-0.064412	0.908807
H163	H	0.918161	-0.535401	0.446416
H164	H	1.418161	-0.035401	0.946416
H165	H	0.910529	-0.590096	0.368644
H166	H	1.410529	-0.090096	0.868644
H167	H	1.030979	-0.271413	0.333793
H168	H	1.530979	0.228587	0.833793
N169	N	0.955817	-0.435720	0.408817
N170	N	1.455817	0.064280	0.908817
H171	H	0.918168	-0.464737	0.446434
H172	H	1.418168	0.035263	0.946434
H173	H	0.995924	-0.410029	0.454143
H174	H	1.495924	0.089971	0.954143
N175	N	1.015257	-0.150897	0.349492
N176	N	1.515257	0.349103	0.849492
H177	H	1.024275	-0.106974	0.340476
H178	H	1.524275	0.393026	0.840476
H179	H	0.946600	-0.161724	0.332689
H180	H	1.446600	0.338276	0.832689
