data_functionalizedCrystal
_audit_creation_method	'MofGen! by Chris Wilmer'
_symmetry_space_group_name_H-M	'P1'
_symmetry_Int_Tables_number	1
_symmetry_cell_setting	triclinic
loop_
_symmetry_equiv_pos_as_xyz
  x,y,z
_cell_length_a	21.395364
_cell_length_b	21.295417
_cell_length_c	21.395355
_cell_angle_alpha	89.979596
_cell_angle_beta	89.975484
_cell_angle_gamma	90.025467
loop_
_atom_site_label
_atom_site_type_symbol
_atom_site_fract_x
_atom_site_fract_y
_atom_site_fract_z
Zn1	Zn	0.957863	-0.250753	-0.354253
Zn2	Zn	1.457863	0.249247	0.145747
Zn3	Zn	0.957768	-0.356005	-0.249472
Zn4	Zn	1.457768	0.143995	0.250528
Zn5	Zn	0.853078	-0.250746	-0.249489
Zn6	Zn	1.353078	0.249254	0.250511
Zn7	Zn	0.853049	-0.355981	-0.354212
Zn8	Zn	1.353049	0.144019	0.145788
O9	O	0.905440	-0.303371	-0.301856
O10	O	1.405440	0.196629	0.198144
O11	O	1.045529	-0.264728	-0.340363
O12	O	1.545529	0.235272	0.159637
O13	O	0.943853	-0.342049	-0.161796
O14	O	1.443853	0.157951	0.338204
O15	O	0.867030	-0.162657	-0.263411
O16	O	1.367030	0.337343	0.236589
O17	O	1.045458	-0.342056	-0.263381
O18	O	1.545458	0.157944	0.236619
O19	O	0.944016	-0.162663	-0.340380
O20	O	1.444016	0.337337	0.159620
O21	O	0.866938	-0.264715	-0.161809
O22	O	1.366938	0.235285	0.338191
O23	O	0.765397	-0.264692	-0.263371
O24	O	1.265397	0.235308	0.236629
O25	O	0.866981	-0.342015	-0.441895
O26	O	1.366981	0.157985	0.058105
O27	O	0.765375	-0.342008	-0.340311
O28	O	1.265375	0.157992	0.159689
O29	O	0.943987	-0.264705	-0.441925
O30	O	1.443987	0.235295	0.058075
O31	O	0.943824	-0.444091	-0.263341
O32	O	1.443824	0.055909	0.236659
O33	O	0.866888	-0.444073	-0.340293
O34	O	1.366888	0.055927	0.159707
C35	C	0.742652	-0.303347	-0.301839
C36	C	1.242652	0.196653	0.198161
C37	C	0.673011	-0.303352	-0.301846
C38	C	1.173011	0.196648	0.198154
C39	C	0.905360	-0.466923	-0.301825
C40	C	1.405360	0.033077	0.198175
C41	C	0.905383	-0.536891	-0.301832
C42	C	1.405383	-0.036891	0.198168
C43	C	0.171251	-0.263202	-0.342015
C44	C	0.671251	0.236798	0.157985
C45	C	0.236686	-0.263197	-0.342015
C46	C	0.736686	0.236803	0.157985
C47	C	0.269373	-0.303390	-0.301870
C48	C	0.769373	0.196610	0.198130
C49	C	0.236618	-0.343603	-0.261734
C50	C	0.736618	0.156397	0.238266
C51	C	0.171184	-0.343611	-0.261740
C52	C	0.671184	0.156389	0.238260
C53	C	0.373009	-0.308265	-0.245403
C54	C	0.873009	0.191735	0.254597
C55	C	0.438442	-0.308252	-0.245396
C56	C	0.938442	0.191748	0.254604
C57	C	0.471193	-0.303369	-0.301853
C58	C	0.971193	0.196631	0.198147
C59	C	0.438504	-0.298485	-0.358318
C60	C	0.938504	0.201515	0.141682
C61	C	0.373069	-0.298493	-0.358324
C62	C	0.873069	0.201507	0.141676
C63	C	0.340325	-0.303386	-0.301860
C64	C	0.840325	0.196614	0.198140
C65	C	0.574892	-0.263157	-0.341990
C66	C	1.074892	0.236843	0.158010
C67	C	0.640329	-0.263157	-0.341990
C68	C	1.140329	0.236843	0.158010
C69	C	0.640260	-0.343560	-0.261704
C70	C	1.140260	0.156440	0.238296
C71	C	0.574824	-0.343563	-0.261709
C72	C	1.074824	0.156437	0.238291
C73	C	0.542145	-0.303359	-0.301851
C74	C	1.042145	0.196641	0.198149
C75	C	0.945446	-0.569703	-0.341938
C76	C	1.445446	-0.069703	0.158062
C77	C	0.945468	-0.635446	-0.341954
C78	C	1.445468	-0.135446	0.158046
C79	C	0.905434	-0.668373	-0.301852
C80	C	1.405434	-0.168373	0.198148
C81	C	0.865363	-0.635553	-0.261743
C82	C	1.365363	-0.135553	0.238257
C83	C	0.865337	-0.569812	-0.261733
C84	C	1.365337	-0.069812	0.238267
N85	N	0.900697	-0.771625	-0.247018
N86	N	1.400697	-0.271625	0.252982
N87	N	0.900724	-0.834077	-0.247029
N88	N	1.400724	-0.334077	0.252971
C89	C	0.905507	-0.866448	-0.301880
C90	C	1.405507	-0.366448	0.198120
N91	N	0.910273	-0.834009	-0.356720
N92	N	1.410273	-0.334009	0.143280
N93	N	0.910248	-0.771552	-0.356709
N94	N	1.410248	-0.271552	0.143291
C95	C	0.905457	-0.739659	-0.301858
C96	C	1.405457	-0.239659	0.198142
C97	C	0.945596	-0.970546	-0.342007
C98	C	1.445596	-0.470546	0.157993
C99	C	0.945614	-1.036290	-0.342023
C100	C	1.445614	-0.536290	0.157977
C101	C	0.865512	-1.036396	-0.261806
C102	C	1.365512	-0.536396	0.238194
C103	C	0.865491	-0.970653	-0.261795
C104	C	1.365491	-0.470653	0.238205
C105	C	0.905536	-0.937732	-0.301895
C106	C	1.405536	-0.437732	0.198105
C107	C	1.068863	-0.303396	-0.301874
C108	C	1.568863	0.196604	0.198126
C109	C	1.138504	-0.303406	-0.301882
C110	C	1.638504	0.196594	0.198118
C111	C	0.905492	-0.303358	-0.465280
C112	C	1.405492	0.196642	0.034720
C113	C	0.905514	-0.303353	-0.534921
C114	C	1.405514	0.196647	-0.034921
C115	C	0.905537	-0.139181	-0.301902
C116	C	1.405537	0.360819	0.198098
C117	C	0.905578	-0.069213	-0.301921
C118	C	1.405578	0.430787	0.198079
C119	C	0.945609	-0.263096	-0.567651
C120	C	1.445609	0.236904	-0.067651
C121	C	0.945609	-0.263069	-0.633086
C122	C	1.445609	0.236931	-0.133086
C123	C	0.905519	-0.303310	-0.665789
C124	C	1.405519	0.196690	-0.165789
C125	C	0.865415	-0.343570	-0.633052
C126	C	1.365415	0.156430	-0.133052
C127	C	0.865413	-0.343591	-0.567618
C128	C	1.365413	0.156409	-0.067618
C129	C	0.900544	-0.359990	-0.769453
C130	C	1.400544	0.140010	-0.269453
C131	C	0.900551	-0.359969	-0.834886
C132	C	1.400551	0.140031	-0.334886
C133	C	0.905523	-0.303244	-0.867610
C134	C	1.405523	0.196756	-0.367610
C135	C	0.910501	-0.246536	-0.834893
C136	C	1.410501	0.253464	-0.334893
C137	C	0.910499	-0.246558	-0.769459
C138	C	1.410499	0.253442	-0.269459
C139	C	0.905517	-0.303291	-0.736742
C140	C	1.405517	0.196709	-0.236742
C141	C	0.945619	-0.262954	-0.971293
C142	C	1.445619	0.237046	-0.471293
C143	C	0.945614	-0.262926	-1.036729
C144	C	1.445614	0.237074	-0.536729
C145	C	0.865424	-0.343432	-1.036694
C146	C	1.365424	0.156568	-0.536694
C147	C	0.865426	-0.343455	-0.971258
C148	C	1.365426	0.156545	-0.471258
C149	C	0.905527	-0.303216	-0.938562
C150	C	1.405527	0.196784	-0.438562
C151	C	0.905424	-0.303338	-0.139069
C152	C	1.405424	0.196662	0.360931
C153	C	0.905523	-0.303166	-0.069428
C154	C	1.405523	0.196834	0.430572
H155	H	0.263353	-0.230454	-0.374695
H156	H	0.763353	0.269546	0.125305
H157	H	0.896327	-0.406171	-0.742815
H158	H	1.396327	0.093829	-0.242815
N159	N	0.824482	-0.384589	-0.937820
N160	N	1.324482	0.115411	-0.437820
N161	N	0.846501	-0.424717	-0.901314
N162	N	1.346501	0.075283	-0.401314
H163	H	0.817582	-0.453768	-0.877698
H164	H	1.317582	0.046232	-0.377698
N165	N	0.824606	-1.070013	-0.220846
N166	N	1.324606	-0.570013	0.279154
N167	N	0.766787	-1.062713	-0.224950
N168	N	1.266787	-0.562713	0.275050
H169	H	0.737893	-1.086458	-0.196023
H170	H	1.237893	-0.586458	0.303977
H171	H	0.666872	-0.376291	-0.229023
H172	H	1.166872	0.123709	0.270977
N173	N	0.915572	-0.188581	-0.868301
N174	N	1.415572	0.311419	-0.368301
N175	N	0.920013	-0.137957	-0.839084
N176	N	1.420013	0.362043	-0.339084
H177	H	0.923595	-0.097026	-0.862679
H178	H	1.423595	0.402974	-0.362679
H179	H	0.832772	-0.376333	-0.659683
H180	H	1.332772	0.123667	-0.159683
N181	N	0.824406	-0.536301	-0.220761
N182	N	1.324406	-0.036301	0.279239
N183	N	0.788658	-0.565704	-0.184961
N184	N	1.288658	-0.065704	0.315039
H185	H	0.759750	-0.542037	-0.156024
H186	H	1.259750	-0.042037	0.343976
H187	H	0.832776	-0.376191	-1.063320
H188	H	1.332776	0.123809	-0.563320
H189	H	0.548283	-0.230420	-0.374675
H190	H	1.048283	0.269580	0.125325
N191	N	0.824481	-0.669198	-0.220778
N192	N	1.324481	-0.169198	0.279222
N193	N	0.846567	-0.705884	-0.180881
N194	N	1.346567	-0.205884	0.319119
H195	H	0.817693	-0.729648	-0.151949
H196	H	1.317693	-0.229648	0.348051
H197	H	0.978238	-1.063004	-0.374685
H198	H	1.478238	-0.563004	0.125315
H199	H	0.832870	-0.943936	-0.229134
H200	H	1.332870	-0.443936	0.270866
N201	N	0.270013	-0.384660	-0.220735
N202	N	0.770013	0.115340	0.279265
N203	N	0.328436	-0.384647	-0.220735
N204	N	0.828436	0.115353	0.279265
H205	H	0.352022	-0.413647	-0.191780
H206	H	0.852022	0.086353	0.308220
H207	H	0.896501	-0.406144	-0.861519
H208	H	1.396501	0.093856	-0.361519
H209	H	0.832760	-0.376373	-0.540969
H210	H	1.332760	0.123627	-0.040969
N211	N	0.986397	-0.668982	-0.382912
N212	N	1.486397	-0.168982	0.117088
N213	N	0.986415	-0.727679	-0.382910
N214	N	1.486415	-0.227679	0.117090
H215	H	1.015322	-0.751363	-0.411835
H216	H	1.515322	-0.251363	0.088165
H217	H	0.144647	-0.230466	-0.374704
H218	H	0.644647	0.269534	0.125296
N219	N	0.339668	-0.293545	-0.415995
N220	N	0.839668	0.206455	0.084005
N221	N	0.281245	-0.293574	-0.415990
N222	N	0.781245	0.206426	0.084010
H223	H	0.257654	-0.290092	-0.456721
H224	H	0.757654	0.209908	0.043279
H225	H	0.465168	-0.294506	-0.404291
H226	H	0.965168	0.205494	0.095709
N227	N	0.986503	-0.936923	-0.382969
N228	N	1.486503	-0.436923	0.117031
N229	N	1.022269	-0.966231	-0.418781
N230	N	1.522269	-0.466231	0.081219
H231	H	1.051160	-0.942487	-0.447711
H232	H	1.551160	-0.442487	0.052289
H233	H	0.978262	-0.230330	-0.541033
H234	H	1.478262	0.269670	-0.041033
H235	H	0.978258	-0.230283	-0.659740
H236	H	1.478258	0.269717	-0.159740
H237	H	0.666990	-0.230419	-0.374676
H238	H	1.166990	0.269581	0.125324
H239	H	0.548162	-0.376300	-0.229025
H240	H	1.048162	0.123700	0.270975
H241	H	0.465053	-0.312225	-0.199419
H242	H	0.965053	0.187775	0.300581
H243	H	0.914550	-0.200385	-0.742824
H244	H	1.414550	0.299615	-0.242824
H245	H	0.978264	-0.230140	-1.063377
H246	H	1.478264	0.269860	-0.563377
H247	H	0.346348	-0.312244	-0.199426
H248	H	0.846348	0.187756	0.300574
H249	H	0.978052	-0.542901	-0.374591
H250	H	1.478052	-0.042901	0.125409
N251	N	0.137741	-0.384687	-0.220741
N252	N	0.637741	0.115313	0.279259
N253	N	0.166929	-0.420576	-0.184903
N254	N	0.666929	0.079424	0.315097
H255	H	0.143309	-0.449587	-0.155946
H256	H	0.643309	0.050413	0.344054
N257	N	0.986580	-0.221847	-0.937899
N258	N	1.486580	0.278153	-0.437899
N259	N	1.022373	-0.185899	-0.967133
N260	N	1.522373	0.314101	-0.467133
H261	H	1.051302	-0.156865	-0.943551
H262	H	1.551302	0.343135	-0.443551
