data_functionalizedCrystal
_audit_creation_method	'MofGen! by Chris Wilmer'
_symmetry_space_group_name_H-M	'P1'
_symmetry_Int_Tables_number	1
_symmetry_cell_setting	triclinic
loop_
_symmetry_equiv_pos_as_xyz
  x,y,z
_cell_length_a	12.837943
_cell_length_b	10.723022
_cell_length_c	9.798715
_cell_angle_alpha	90.002605
_cell_angle_beta	89.997355
_cell_angle_gamma	90.351917
loop_
_atom_site_label
_atom_site_type_symbol
_atom_site_fract_x
_atom_site_fract_y
_atom_site_fract_z
O1	O	1.377760	-0.324662	-0.113464
O2	O	1.075841	-0.308624	-0.113472
O3	O	1.233765	-0.135823	-0.113461
O4	O	1.219835	-0.497463	-0.113475
O5	O	1.233754	-0.135821	0.113522
O6	O	1.075829	-0.308622	0.113510
O7	O	1.377748	-0.324660	0.113518
Zn8	Zn	1.226787	-0.316641	0.149552
Zn9	Zn	1.226802	-0.316643	-0.149506
O10	O	1.219823	-0.497461	0.113507
C11	C	1.037176	-0.303205	0.000018
C12	C	0.921984	-0.287047	0.000015
C13	C	1.232746	-0.089212	0.000029
C14	C	1.229714	0.049671	0.000026
N15	N	1.226784	-0.316639	0.353652
C16	C	0.682406	-0.481303	0.000027
C17	C	0.574172	-0.466126	0.000025
C18	C	0.597280	-0.241518	0.000019
C19	C	0.705514	-0.256694	0.000021
C20	C	0.748073	-0.376591	0.000023
C21	C	0.856308	-0.391766	0.000015
C22	C	0.879415	-0.167159	0.000019
C23	C	0.771181	-0.151982	0.000017
C24	C	1.416413	-0.330079	0.000025
C25	C	1.531605	-0.346237	0.000019
C26	C	1.138644	0.108123	0.000022
C27	C	1.135509	0.251667	0.000019
C28	C	1.220843	0.455928	0.000017
C29	C	1.223875	0.317045	0.000020
N30	N	1.226813	-0.316636	-0.353606
C31	C	1.293092	-0.243734	0.421434
C32	C	1.293108	-0.243731	0.578597
H33	H	0.890957	-0.489392	0.000018
C34	C	0.729222	-0.613188	0.000019
N35	N	0.764483	-0.712526	0.000015
C36	C	1.369753	-0.159387	0.342650
N37	N	1.427491	-0.095847	0.283312
H38	H	1.305361	0.105898	0.000033
C39	C	1.329221	0.249130	0.000028
N40	N	1.408569	0.197967	0.000037
C41	C	1.369804	-0.159404	0.657341
N42	N	1.427571	-0.095885	0.716654
C43	C	1.150101	-0.400958	0.432436
N44	N	1.092342	-0.464470	0.491774
H45	H	1.062998	0.051897	0.000028
H46	H	1.170045	-0.379062	0.588113
C47	C	0.550446	-0.109642	0.000033
N48	N	0.515170	-0.010311	0.000043
C49	C	0.724354	-0.020103	0.000014
N50	N	0.689085	0.079231	0.000006
C51	C	0.501941	-0.581318	0.000030
N52	N	0.447537	-0.668086	0.000035
H53	H	0.932893	-0.081895	0.000007
C54	C	1.030166	0.319590	0.000018
N55	N	0.950818	0.370752	0.000022
