data_functionalizedCrystal
_audit_creation_method	'MofGen! by Chris Wilmer'
_symmetry_space_group_name_H-M	'P1'
_symmetry_Int_Tables_number	1
_symmetry_cell_setting	triclinic
loop_
_symmetry_equiv_pos_as_xyz
  x,y,z
_cell_length_a	10.654556
_cell_length_b	11.792254
_cell_length_c	9.130313
_cell_angle_alpha	89.995304
_cell_angle_beta	89.998135
_cell_angle_gamma	84.343067
loop_
_atom_site_label
_atom_site_type_symbol
_atom_site_fract_x
_atom_site_fract_y
_atom_site_fract_z
O1	O	1.667392	0.159453	-0.121745
O2	O	2.167392	0.659453	0.378255
O3	O	1.301872	0.174634	-0.121760
O4	O	1.801872	0.674634	0.378240
O5	O	1.493494	0.001895	-0.121742
O6	O	1.993494	0.501895	0.378258
O7	O	1.475770	0.332193	-0.121763
O8	O	1.975770	0.832193	0.378237
O9	O	1.493481	0.001890	0.121857
O10	O	1.993481	0.501890	0.621857
O11	O	1.301859	0.174629	0.121839
O12	O	1.801859	0.674629	0.621839
O13	O	1.667379	0.159448	0.121854
O14	O	2.167379	0.659448	0.621854
Cu15	Cu	1.484618	0.167038	0.144089
Cu16	Cu	1.984618	0.667038	0.644089
Cu17	Cu	1.484633	0.167044	-0.143995
Cu18	Cu	1.984633	0.667044	0.356005
O19	O	1.475757	0.332188	0.121836
O20	O	1.975757	0.832188	0.621836
C21	C	1.255071	0.173516	0.000038
C22	C	1.755071	0.673516	0.500038
C23	C	1.115637	0.170176	0.000032
C24	C	1.615637	0.670176	0.500032
C25	C	0.919112	0.165477	-0.132742
C26	C	1.419112	0.665477	0.367258
C27	C	1.050126	0.168608	-0.132751
C28	C	1.550126	0.668608	0.367249
C29	C	1.050130	0.168602	0.132834
C30	C	1.550130	0.668602	0.632834
C31	C	0.919120	0.165463	0.132841
C32	C	1.419120	0.665463	0.632841
C33	C	1.492371	-0.040401	0.000057
C34	C	1.992371	0.459599	0.500057
C35	C	1.489029	-0.166422	0.000056
C36	C	1.989029	0.333578	0.500056
C37	C	1.486314	-0.268765	0.000051
C38	C	1.986314	0.231235	0.500051
C39	C	1.482919	-0.397159	0.000037
C40	C	1.982919	0.102841	0.500037
C41	C	1.714180	0.160567	0.000053
C42	C	2.214180	0.660567	0.500053
C43	C	1.853613	0.163906	0.000049
C44	C	2.353613	0.663906	0.500049
C45	C	1.476880	0.374484	0.000034
C46	C	1.976880	0.874484	0.500034
C47	C	1.480222	0.500504	0.000026
C48	C	1.980222	1.000504	0.500026
N49	N	1.484616	0.167033	0.346712
N50	N	1.984616	0.667033	0.846712
N51	N	1.484645	0.167040	-0.346617
N52	N	1.984645	0.667040	0.153383
C53	C	1.569495	0.090577	0.423372
C54	C	2.069495	0.590577	0.923372
C55	C	1.569507	0.090577	0.576708
C56	C	2.069507	0.590577	1.076708
C57	C	1.399757	0.243500	0.576712
C58	C	1.899757	0.743500	1.076712
C59	C	1.399740	0.243494	0.423378
C60	C	1.899740	0.743494	0.923378
H61	H	1.103449	0.169885	-0.240883
H62	H	1.603449	0.669885	0.259117
H63	H	1.103481	0.169872	0.240948
H64	H	1.603481	0.669872	0.740948
H65	H	0.865790	0.164183	0.240982
H66	H	1.365790	0.664183	0.740982
O67	O	0.855394	0.164155	-0.261692
O68	O	1.355394	0.664155	0.238308
C69	C	0.766042	0.260452	-0.269631
C70	C	1.266042	0.760452	0.230369
H71	H	0.796053	0.329984	-0.194287
H72	H	1.296053	0.829984	0.305713
H73	H	0.669815	0.235889	-0.233947
H74	H	1.169815	0.735889	0.266053
C75	C	0.721024	0.219495	-0.520822
C76	C	1.221024	0.719495	-0.020822
C77	C	0.757890	0.304899	-0.428292
C78	C	1.257890	0.804899	0.071708
H79	H	0.715990	0.246910	-0.618692
H80	H	1.215990	0.746910	-0.118692
H81	H	0.781218	0.154615	-0.515472
H82	H	1.281218	0.654615	-0.015472
H83	H	0.640838	0.199033	-0.491067
H84	H	1.140838	0.699033	0.008933
H85	H	0.838081	0.325348	-0.458035
H86	H	1.338081	0.825348	0.041965
H87	H	0.697709	0.369783	-0.433650
H88	H	1.197709	0.869783	0.066350
H89	H	1.330615	0.305754	0.360957
H90	H	1.830615	0.805754	0.860957
H91	H	1.638604	0.028317	0.360954
H92	H	2.138604	0.528317	0.860954
H93	H	1.638621	0.028318	0.639121
H94	H	2.138621	0.528318	1.139121
H95	H	1.330654	0.305754	0.639149
H96	H	1.830654	0.805754	1.139149
