data_functionalizedCrystal
_audit_creation_method	'MofGen! by Chris Wilmer'
_symmetry_space_group_name_H-M	'P1'
_symmetry_Int_Tables_number	1
_symmetry_cell_setting	triclinic
loop_
_symmetry_equiv_pos_as_xyz
  x,y,z
_cell_length_a	14.971482
_cell_length_b	17.699092
_cell_length_c	13.448316
_cell_angle_alpha	89.995078
_cell_angle_beta	89.993798
_cell_angle_gamma	83.449488
loop_
_atom_site_label
_atom_site_type_symbol
_atom_site_fract_x
_atom_site_fract_y
_atom_site_fract_z
O1	O	1.186614	0.098620	-0.082675
O2	O	1.686614	0.598620	0.417325
O3	O	0.926173	0.110434	-0.082680
O4	O	1.426173	0.610434	0.417320
O5	O	1.063748	-0.005644	-0.082675
O6	O	1.563748	0.494356	0.417325
O7	O	1.049039	0.214698	-0.082680
O8	O	1.549039	0.714698	0.417320
O9	O	1.063731	-0.005651	0.082709
O10	O	1.563731	0.494349	0.582709
O11	O	0.926156	0.110427	0.082704
O12	O	1.426156	0.610427	0.582704
O13	O	1.186597	0.098612	0.082709
O14	O	1.686597	0.598612	0.582709
Cu15	Cu	1.056375	0.104519	0.097807
Cu16	Cu	1.556375	0.604519	0.597807
Cu17	Cu	1.056395	0.104527	-0.097778
Cu18	Cu	1.556395	0.604527	0.402222
O19	O	1.049022	0.214690	0.082704
O20	O	1.549022	0.714690	0.582704
C21	C	0.892842	0.109903	0.000012
C22	C	1.392842	0.609903	0.500012
C23	C	0.793550	0.108321	0.000010
C24	C	1.293550	0.608321	0.500010
C25	C	1.063211	-0.033846	0.000015
C26	C	1.563211	0.466154	0.500015
C27	C	1.061626	-0.117867	0.000011
C28	C	1.561626	0.382133	0.500011
C29	C	0.746898	0.107572	0.090162
C30	C	1.246898	0.607572	0.590162
C31	C	0.653605	0.106073	0.090163
C32	C	1.153605	0.606073	0.590163
C33	C	0.606964	0.105329	0.000011
C34	C	1.106964	0.605329	0.500011
C35	C	0.653622	0.106076	-0.090148
C36	C	1.153622	0.606076	0.409852
C37	C	0.746915	0.107569	-0.090148
C38	C	1.246915	0.607569	0.409852
C39	C	0.459171	0.102966	-0.090141
C40	C	0.959171	0.602966	0.409859
C41	C	0.365872	0.101475	-0.090141
C42	C	0.865872	0.601475	0.409859
C43	C	0.365861	0.101471	0.090169
C44	C	0.865861	0.601471	0.590169
C45	C	0.459153	0.102963	0.090169
C46	C	0.959153	0.602963	0.590169
C47	C	0.505805	0.103712	0.000010
C48	C	1.005805	0.603712	0.500010
C49	C	1.060893	-0.157333	-0.090141
C50	C	1.560893	0.342667	0.409859
C51	C	1.059398	-0.236279	-0.090142
C52	C	1.559398	0.263721	0.409858
C53	C	1.058643	-0.275760	0.000009
C54	C	1.558643	0.224240	0.500009
C55	C	1.059373	-0.236289	0.090168
C56	C	1.559373	0.263711	0.590168
C57	C	1.060862	-0.157343	0.090168
C58	C	1.560862	0.342657	0.590168
C59	C	1.053369	-0.554668	0.090170
C60	C	1.553369	-0.054668	0.590170
C61	C	1.051883	-0.633620	0.090162
C62	C	1.551883	-0.133620	0.590162
C63	C	1.051906	-0.633605	-0.090141
C64	C	1.551906	-0.133605	0.409859
C65	C	1.053394	-0.554659	-0.090141
C66	C	1.553394	-0.054659	0.409859
C67	C	1.054120	-0.515194	0.000017
C68	C	1.554120	-0.015194	0.500017
C69	C	1.055739	-0.429591	0.000017
C70	C	1.555739	0.070409	0.500017
C71	C	1.057030	-0.361362	0.000010
C72	C	1.557030	0.138638	0.500010
C73	C	1.219928	0.099144	0.000015
C74	C	1.719928	0.599144	0.500015
C75	C	1.319220	0.100726	0.000010
C76	C	1.819220	0.600726	0.500010
C77	C	1.049559	0.242892	0.000012
C78	C	1.549559	0.742892	0.500012
C79	C	1.051144	0.326914	0.000010
C80	C	1.551144	0.826914	0.500010
N81	N	1.056367	0.104513	0.235372
N82	N	1.556367	0.604513	0.735372
N83	N	1.056410	0.104528	-0.235342
N84	N	1.556410	0.604528	0.264658
C85	C	1.117304	0.053134	0.287414
C86	C	1.617304	0.553134	0.787414
C87	C	1.117309	0.053134	0.391517
C88	C	1.617309	0.553134	0.891517
C89	C	1.056382	0.104516	0.443576
C90	C	1.556382	0.604516	0.943576
C91	C	0.995438	0.155896	0.391527
C92	C	1.495438	0.655896	0.891527
C93	C	0.995429	0.155893	0.287425
C94	C	1.495429	0.655893	0.787425
C95	C	0.995463	0.155901	0.608507
C96	C	1.495463	0.655901	1.108507
C97	C	0.995473	0.155906	0.712615
C98	C	1.495473	0.655906	1.212615
C99	C	1.117343	0.053142	0.712599
C100	C	1.617343	0.553142	1.212599
C101	C	1.117334	0.053139	0.608497
C102	C	1.617334	0.553139	1.108497
C103	C	1.056392	0.104521	0.556455
C104	C	1.556392	0.604521	1.056455
H105	H	0.784866	0.108184	0.163574
H106	H	1.284866	0.608184	0.663574
H107	H	1.051266	-0.665763	0.163579
H108	H	1.551266	-0.165763	0.663579
O109	O	1.051107	-0.676167	-0.187390
O110	O	1.551107	-0.176167	0.312610
H111	H	1.049933	-0.737695	-0.172250
H112	H	1.549933	-0.237695	0.327750
H113	H	0.327873	0.100862	0.163580
H114	H	0.827873	0.600862	0.663580
H115	H	1.058805	-0.268409	-0.163553
H116	H	1.558805	0.231591	0.336447
H117	H	0.945825	0.197730	0.433919
H118	H	1.445825	0.697730	0.933919
H119	H	0.327899	0.100869	-0.163551
H120	H	0.827899	0.600869	0.336449
H121	H	1.054013	-0.522518	-0.163552
H122	H	1.554013	-0.022518	0.336448
O123	O	0.603283	0.105274	0.187397
O124	O	1.103283	0.605274	0.687397
H125	H	0.651387	0.106054	0.250085
H126	H	1.151387	0.606054	0.750085
O127	O	0.509499	0.103771	-0.187378
O128	O	1.009499	0.603771	0.312622
H129	H	0.483520	0.155036	-0.230607
H130	H	0.983520	0.655036	0.269393
H131	H	0.945807	0.197729	0.245053
H132	H	1.445807	0.697729	0.745053
O133	O	0.929718	0.211317	0.552388
O134	O	1.429718	0.711317	1.052388
H135	H	0.886308	0.179389	0.504991
H136	H	1.386308	0.679389	1.004991
H137	H	0.615640	0.105465	-0.163551
H138	H	1.115640	0.605465	0.336449
O139	O	0.797238	0.108382	-0.187382
O140	O	1.297238	0.608382	0.312618
H141	H	0.749133	0.107621	-0.250071
H142	H	1.249133	0.607621	0.249929
H143	H	1.061513	-0.125194	-0.163553
H144	H	1.561513	0.374806	0.336447
H145	H	1.053978	-0.522548	0.163582
H146	H	1.553978	-0.022548	0.663582
H147	H	1.166950	0.011304	0.566111
H148	H	1.666950	0.511304	1.066111
H149	H	0.497125	0.103574	0.163579
H150	H	0.997125	0.603574	0.663579
O151	O	1.183007	-0.002291	0.231258
O152	O	1.683007	0.497709	0.731258
H153	H	1.252717	0.007437	0.251216
H154	H	1.752717	0.507437	0.751216
O155	O	1.058576	-0.278867	0.187408
O156	O	1.558576	0.221133	0.687408
H157	H	1.057433	-0.340396	0.172264
H158	H	1.557433	0.159604	0.672264
H159	H	1.061446	-0.125210	0.163579
H160	H	1.561446	0.374790	0.663579
O161	O	1.183050	-0.002267	0.447653
O162	O	1.683050	0.497733	0.947653
H163	H	1.225427	-0.037985	0.393964
H164	H	1.725427	0.462015	0.893964
H165	H	1.166964	0.011306	0.754978
H166	H	1.666964	0.511306	1.254978
H167	H	0.945859	0.197746	0.754996
H168	H	1.445859	0.697746	1.254996
