data_functionalizedCrystal
_audit_creation_method	'MofGen! by Chris Wilmer'
_symmetry_space_group_name_H-M	'P1'
_symmetry_Int_Tables_number	1
_symmetry_cell_setting	triclinic
loop_
_symmetry_equiv_pos_as_xyz
  x,y,z
_cell_length_a	18.050589
_cell_length_b	12.594517
_cell_length_c	12.594510
_cell_angle_alpha	89.978880
_cell_angle_beta	89.966182
_cell_angle_gamma	90.028021
loop_
_atom_site_label
_atom_site_type_symbol
_atom_site_fract_x
_atom_site_fract_y
_atom_site_fract_z
Zn1	Zn	-0.295596	1.627175	-0.601864
Zn2	Zn	-0.419813	1.627029	-0.423887
Zn3	Zn	-0.295641	1.449179	-0.423893
Zn4	Zn	-0.419748	1.449123	-0.601817
O5	O	-0.357700	1.538126	-0.512865
O6	O	-0.312082	1.776101	-0.578272
O7	O	-0.403388	1.603399	-0.274942
O8	O	-0.191711	1.472876	-0.447523
O9	O	-0.403344	1.775994	-0.447513
O10	O	-0.191678	1.603648	-0.578278
O11	O	-0.312159	1.472734	-0.274946
O12	O	-0.312096	1.300226	-0.447478
O13	O	-0.403233	1.472780	-0.750769
O14	O	-0.403277	1.300185	-0.578198
O15	O	-0.312019	1.603594	-0.750804
O16	O	-0.523729	1.603344	-0.447468
O17	O	-0.523682	1.472638	-0.578192
C18	C	-0.357685	1.261585	-0.512834
C19	C	-0.357696	1.143280	-0.512846
C20	C	-0.308035	1.074018	-0.441883
C21	C	-0.375779	1.003187	-0.415704
C22	C	-0.289985	1.003313	-0.539043
C23	C	-0.425476	1.074007	-0.486616
C24	C	-0.339636	1.074139	-0.610001
C25	C	-0.407427	1.003339	-0.583858
C26	C	-0.550652	1.537998	-0.512848
C27	C	-0.633198	1.538040	-0.512876
C28	C	-0.832649	1.467032	-0.583939
C29	C	-0.882102	1.441084	-0.486814
C30	C	-0.784328	1.538145	-0.512890
C31	C	-0.881957	1.564145	-0.610026
C32	C	-0.930313	1.538244	-0.512911
C33	C	-0.832693	1.512146	-0.415713
C34	C	-0.832544	1.635252	-0.538991
C35	C	-0.881974	1.609341	-0.441799
C36	C	-0.700230	1.538085	-0.512878
C37	C	-1.014410	1.538304	-0.512912
C38	C	-0.163994	1.538284	-0.512906
C39	C	-0.081448	1.538352	-0.512924
C40	C	-0.357614	1.538197	-0.790486
C41	C	-0.357577	1.538227	-0.908792
C42	C	-0.357715	1.815747	-0.512897
C43	C	-0.357722	1.934053	-0.512911
C44	C	-0.307963	1.609398	-0.978064
C45	C	-0.289784	1.512327	-1.048854
C46	C	-0.375704	1.635354	-1.048800
C47	C	-0.339364	1.441104	-0.978024
C48	C	-0.425315	1.564197	-0.977964
C49	C	-0.407163	1.467059	-1.048723
C50	C	-0.357732	1.538118	-0.236324
C51	C	-0.357559	1.538294	-0.118019
H52	H	-0.324325	1.105327	-0.692110
C53	C	-0.213455	1.483054	-1.090604
C54	C	-0.214656	1.482533	-1.201758
C55	C	-0.144356	1.455577	-1.240255
H56	H	-0.178206	1.533620	-1.066533
H57	H	-0.200208	1.414541	-1.065402
H58	H	-0.227893	1.551037	-1.226949
H59	H	-0.249890	1.431966	-1.225857
H60	H	-0.131109	1.387063	-1.215053
H61	H	-0.109113	1.506145	-1.216177
H62	H	-0.145163	1.455210	-1.315676
C63	C	-0.910770	1.593641	-0.719510
C64	C	-0.884599	1.694577	-0.747268
C65	C	-0.911131	1.721780	-0.848112
H66	H	-0.893898	1.543118	-0.770001
H67	H	-0.963398	1.594165	-0.718588
H68	H	-0.831982	1.694045	-0.748198
H69	H	-0.901469	1.745123	-0.696804
H70	H	-0.963759	1.722305	-0.847190
H71	H	-0.894257	1.671251	-0.898594
H72	H	-0.893384	1.790271	-0.866954
H73	H	-0.903496	1.669521	-0.381655
H74	H	-0.265980	1.669478	-0.947035
H75	H	-0.811142	1.490099	-0.333552
C76	C	-0.318796	1.331673	-0.936547
C77	C	-0.318998	1.332933	-0.825385
C78	C	-0.300043	1.232151	-0.787137
H79	H	-0.353784	1.281011	-0.961192
H80	H	-0.270802	1.313122	-0.961350
H81	H	-0.366985	1.351470	-0.800592
H82	H	-0.284010	1.383573	-0.800712
H83	H	-0.252049	1.213601	-0.811941
H84	H	-0.335033	1.181498	-0.811790
H85	H	-0.300171	1.232995	-0.711711
C86	C	-0.463001	1.386590	-1.089785
C87	C	-0.443670	1.285144	-1.053750
C88	C	-0.495080	1.210986	-1.091569
H89	H	-0.511010	1.404284	-1.064462
H90	H	-0.462968	1.387394	-1.165215
H91	H	-0.443710	1.284343	-0.978335
H92	H	-0.395669	1.267417	-1.079070
H93	H	-0.495047	1.211789	-1.166999
H94	H	-0.543087	1.228690	-1.066243
H95	H	-0.481968	1.142145	-1.067133
H96	H	-0.810762	1.717308	-0.561093
C97	C	-0.213687	0.961756	-0.568706
C98	C	-0.218919	0.900685	-0.661271
C99	C	-0.148649	0.862376	-0.688610
H100	H	-0.181126	1.019824	-0.580639
H101	H	-0.195038	0.919108	-0.512529
H102	H	-0.237558	0.943330	-0.717436
H103	H	-0.251466	0.842601	-0.649363
H104	H	-0.130000	0.819728	-0.632432
H105	H	-0.116094	0.920451	-0.700537
H106	H	-0.152190	0.820927	-0.751411
H107	H	-0.903886	1.359010	-0.464757
H108	H	-0.482591	1.586169	-0.946804
C109	C	-0.396060	1.744932	-1.090109
C110	C	-0.343950	1.819078	-1.054285
C111	C	-0.362677	1.920035	-1.092302
H112	H	-0.396337	1.744155	-1.165524
H113	H	-0.443836	1.763904	-1.064763
H114	H	-0.296187	1.800111	-1.079636
H115	H	-0.343665	1.819888	-0.978874
H116	H	-0.410452	1.939007	-1.066956
H117	H	-0.362954	1.919247	-1.167716
H118	H	-0.327327	1.970357	-1.067993
C119	C	-0.252103	1.115618	-0.361864
C120	C	-0.252334	1.226774	-0.363544
C121	C	-0.200817	1.265133	-0.289854
H122	H	-0.265002	1.091433	-0.292836
H123	H	-0.204094	1.090432	-0.379780
H124	H	-0.300333	1.251950	-0.345621
H125	H	-0.239427	1.250987	-0.432554
H126	H	-0.152808	1.239947	-0.307770
H127	H	-0.213721	1.240941	-0.220832
H128	H	-0.200962	1.340555	-0.290991
H129	H	-0.391071	0.972024	-0.333570
C130	C	-0.463381	0.962151	-0.664056
C131	C	-0.426797	0.901089	-0.740732
C132	C	-0.478317	0.863141	-0.814630
H133	H	-0.499202	0.919574	-0.628769
H134	H	-0.487316	1.020415	-0.697477
H135	H	-0.402874	0.842833	-0.707315
H136	H	-0.390980	0.943644	-0.776046
H137	H	-0.502252	0.921405	-0.848050
H138	H	-0.514135	0.820568	-0.779333
H139	H	-0.453501	0.821715	-0.866668
C140	C	-0.501805	1.115438	-0.456944
C141	C	-0.500888	1.226600	-0.457187
C142	C	-0.571183	1.264805	-0.429842
H143	H	-0.537180	1.090785	-0.507017
H144	H	-0.514732	1.090614	-0.388139
H145	H	-0.487970	1.251414	-0.525981
H146	H	-0.465528	1.251282	-0.407112
H147	H	-0.584110	1.239981	-0.361038
H148	H	-0.606553	1.240145	-0.479920
H149	H	-0.570569	1.340232	-0.429995
H150	H	-0.810991	1.406806	-0.643938
