data_functionalizedCrystal
_audit_creation_method	'MofGen! by Chris Wilmer'
_symmetry_space_group_name_H-M	'P1'
_symmetry_Int_Tables_number	1
_symmetry_cell_setting	triclinic
loop_
_symmetry_equiv_pos_as_xyz
  x,y,z
_cell_length_a	12.759401
_cell_length_b	12.594516
_cell_length_c	12.759393
_cell_angle_alpha	90.029124
_cell_angle_beta	90.018496
_cell_angle_gamma	90.016214
loop_
_atom_site_label
_atom_site_type_symbol
_atom_site_fract_x
_atom_site_fract_y
_atom_site_fract_z
Zn1	Zn	1.606246	-0.423675	0.593999
Zn2	Zn	1.606136	-0.601694	0.418327
Zn3	Zn	1.430547	-0.423730	0.418339
Zn4	Zn	1.430532	-0.601612	0.593968
O5	O	1.518365	-0.512678	0.506158
O6	O	1.753252	-0.447300	0.570704
O7	O	1.582804	-0.578144	0.271307
O8	O	1.453907	-0.274777	0.441658
O9	O	1.753171	-0.578090	0.441638
O10	O	1.582991	-0.274736	0.570715
O11	O	1.453800	-0.447395	0.271316
O12	O	1.283524	-0.447316	0.441628
O13	O	1.453880	-0.577951	0.740993
O14	O	1.283513	-0.578005	0.570663
O15	O	1.582976	-0.447221	0.741016
O16	O	1.582789	-0.750629	0.441608
O17	O	1.453774	-0.750569	0.570651
C18	C	1.245398	-0.512658	0.506144
C19	C	1.128621	-0.512676	0.506163
C20	C	1.073781	-0.580834	0.573240
C21	C	0.964057	-0.580848	0.573251
C22	C	0.964023	-0.444541	0.439099
C23	C	1.073745	-0.444523	0.439094
C24	C	1.073799	-0.659533	0.650688
C25	C	0.964075	-0.659547	0.650700
C26	C	1.518296	-0.789219	0.506148
C27	C	1.518363	-0.907524	0.506179
C28	C	1.448185	-0.976783	0.576316
C29	C	1.422585	-1.047654	0.480449
C30	C	1.544058	-1.047453	0.602062
C31	C	1.492713	-0.976836	0.410261
C32	C	1.614230	-0.976629	0.531938
C33	C	1.588667	-1.047468	0.436006
C34	C	1.792398	-0.512698	0.506173
C35	C	1.909175	-0.512707	0.506179
C36	C	1.518439	-0.512570	0.780192
C37	C	1.518470	-0.512525	0.896968
C38	C	1.518463	-0.235057	0.506192
C39	C	1.518505	-0.116752	0.506206
C40	C	1.518352	-0.512708	0.233191
C41	C	1.518525	-0.512454	0.116415
C42	C	1.585700	-0.444447	0.951844
C43	C	1.585725	-0.444409	1.061568
C44	C	1.451288	-0.580534	1.061531
C45	C	1.451258	-0.580567	0.951809
C46	C	1.663319	-0.365859	0.951866
C47	C	1.663344	-0.365821	1.061590
H48	H	0.930078	-0.630122	0.728050
N49	N	0.924583	-0.768701	0.621646
H50	H	0.950960	-0.822261	0.674300
H51	H	0.950913	-0.788127	0.549506
N52	N	1.624789	-0.262081	1.106700
H53	H	1.606145	-0.211982	1.047793
H54	H	1.681704	-0.229378	1.151289
N55	N	1.771121	-0.395083	1.101035
H56	H	1.766434	-0.461573	1.145008
H57	H	1.799885	-0.335052	1.144981
N58	N	1.369443	-0.935665	0.654773
H59	H	1.297097	-0.961506	0.635183
H60	H	1.370506	-0.855482	0.654650
H61	H	1.341578	-1.078874	0.458684
H62	H	1.103608	-0.637550	0.732094
H63	H	1.470943	-0.945945	0.329163
H64	H	1.107811	-0.737797	0.621407
N65	N	1.667366	-1.088325	0.357375
H66	H	1.647877	-1.062498	0.285022
H67	H	1.667394	-1.168509	0.358333
H68	H	1.118392	-0.389014	0.384480
N69	N	1.721509	-0.935276	0.560827
H70	H	1.716155	-0.889968	0.625940
H71	H	1.750075	-0.891212	0.501207
N72	N	0.904836	-0.371052	0.366748
H73	H	0.827005	-0.381408	0.376925
H74	H	0.923991	-0.387542	0.291691
N75	N	1.572773	-1.088554	0.709449
H76	H	1.519657	-1.062842	0.762356
H77	H	1.644635	-1.061601	0.729350
N78	N	1.378784	-0.653906	1.120681
H79	H	1.388996	-0.643550	1.198517
H80	H	1.395088	-0.729935	1.101498
N81	N	1.378707	-0.653952	0.892620
H82	H	1.336128	-0.697040	0.944013
H83	H	1.421407	-0.703242	0.847070
H84	H	1.740590	-0.395410	0.917831
N85	N	1.634493	-0.256673	0.912446
H86	H	1.562425	-0.237038	0.938806
H87	H	1.634527	-0.256721	0.833292
