data_functionalizedCrystal
_audit_creation_method	'MofGen! by Chris Wilmer'
_symmetry_space_group_name_H-M	'P1'
_symmetry_Int_Tables_number	1
_symmetry_cell_setting	triclinic
loop_
_symmetry_equiv_pos_as_xyz
  x,y,z
_cell_length_a	14.853567
_cell_length_b	11.792241
_cell_length_c	13.930277
_cell_angle_alpha	89.995317
_cell_angle_beta	89.995755
_cell_angle_gamma	83.914173
loop_
_atom_site_label
_atom_site_type_symbol
_atom_site_fract_x
_atom_site_fract_y
_atom_site_fract_z
O1	O	1.196945	0.148181	-0.079765
O2	O	0.934554	0.165833	-0.079782
O3	O	1.072117	-0.008203	-0.079766
O4	O	1.059382	0.322217	-0.079780
O5	O	1.072098	-0.008206	0.079896
O6	O	0.934535	0.165829	0.079880
O7	O	1.196926	0.148177	0.079897
Zn8	Zn	1.065728	0.157003	0.105238
Zn9	Zn	1.065753	0.157008	-0.105123
O10	O	1.059363	0.322213	0.079881
C11	C	0.900953	0.165032	0.000047
C12	C	0.800860	0.162635	0.000041
C13	C	0.387884	0.049122	0.000068
C14	C	0.367408	0.255880	0.000058
C15	C	0.461451	0.258134	0.000055
C16	C	0.518715	0.155880	0.000056
C17	C	0.481936	0.051372	0.000062
C18	C	0.498237	0.362640	0.000040
C19	C	0.592285	0.364898	0.000035
C20	C	0.649550	0.262642	0.000044
C21	C	0.612766	0.158131	0.000050
C22	C	0.670030	0.055877	0.000052
C23	C	0.633248	-0.048637	0.000065
C24	C	0.539201	-0.050883	0.000070
C25	C	0.743596	0.264889	0.000039
C26	C	0.764081	0.058127	0.000046
C27	C	1.071308	-0.050491	0.000064
C28	C	1.068913	-0.176489	0.000063
C29	C	1.064511	-0.407174	0.000047
C30	C	1.066957	-0.278804	0.000056
C31	C	1.230527	0.148979	0.000066
C32	C	1.330621	0.151376	0.000066
C33	C	1.060173	0.364501	0.000049
C34	C	1.062567	0.490500	0.000044
N35	N	1.065717	0.156999	0.248804
N36	N	1.065771	0.157003	-0.248689
C37	C	1.004838	0.234041	0.701067
C38	C	1.126693	0.079966	0.701050
C39	C	1.126682	0.079963	0.600554
C40	C	1.065749	0.157000	0.550310
C41	C	1.004827	0.234042	0.600562
C42	C	1.187610	0.002930	0.550295
C43	C	1.187602	0.002925	0.449793
C44	C	1.126664	0.079958	0.399547
C45	C	1.065738	0.157001	0.449805
C46	C	1.004805	0.234039	0.399561
C47	C	0.943875	0.311078	0.449817
C48	C	0.943889	0.311075	0.550316
C49	C	1.126650	0.079961	0.299048
C50	C	1.004794	0.234040	0.299056
H51	H	0.509244	-0.135972	0.000104
H52	H	0.622224	0.449998	0.000025
H53	H	1.237224	-0.059786	0.591207
H54	H	0.773540	0.349982	0.000030
H55	H	0.357932	-0.035970	0.000082
H56	H	1.237214	-0.059805	0.408881
N57	N	0.942539	0.312734	0.247752
N58	N	0.888145	0.381504	0.292636
H59	H	0.844175	0.437083	0.256404
N60	N	1.188869	0.001278	0.247699
N61	N	1.188847	0.001283	0.157968
H62	H	1.232790	-0.054292	0.121701
H63	H	1.176308	0.017250	0.741962
N64	N	0.822573	-0.046325	0.000070
N65	N	0.818927	-0.115790	0.067382
H66	H	0.860237	-0.189560	0.067402
N67	N	0.881654	0.389776	0.601636
N68	N	0.827251	0.458552	0.556769
H69	H	0.783297	0.514136	0.593015
N70	N	0.942601	0.312716	0.752410
N71	N	0.942610	0.312704	0.842141
H72	H	0.898655	0.368268	0.878404
N73	N	0.881649	0.389786	0.398490
N74	N	0.910597	0.460305	0.342406
H75	H	0.866653	0.515894	0.306152
N76	N	0.308906	0.360314	0.000035
N77	N	0.224939	0.358289	0.000028
H78	H	0.183617	0.432049	0.000009
N79	N	0.439733	0.467072	0.000008
N80	N	0.355766	0.465043	0.000004
H81	H	0.314442	0.538801	-0.000025
H82	H	0.679884	-0.131891	0.000060
