data_functionalizedCrystal
_audit_creation_method	'MofGen! by Chris Wilmer'
_symmetry_space_group_name_H-M	'P1'
_symmetry_Int_Tables_number	1
_symmetry_cell_setting	triclinic
loop_
_symmetry_equiv_pos_as_xyz
  x,y,z
_cell_length_a	13.635800
_cell_length_b	14.280580
_cell_length_c	9.514072
_cell_angle_alpha	72.012957
_cell_angle_beta	118.843421
_cell_angle_gamma	144.297713
loop_
_atom_site_label
_atom_site_type_symbol
_atom_site_fract_x
_atom_site_fract_y
_atom_site_fract_z
V1	V	2.409858	0.502021	0.225080
O2	O	2.351571	0.491170	-0.007864
O3	O	2.425701	0.499833	0.443457
O4	O	2.539051	0.720402	0.222913
O5	O	2.237436	0.269074	0.214207
V6	V	2.626608	0.474007	0.197064
O7	O	2.595354	0.563471	0.286535
O8	O	2.666211	0.412557	0.135609
O9	O	2.499162	0.476196	-0.021313
O10	O	2.743593	0.484859	0.430009
O11	O	2.857729	0.706954	0.207938
O12	O	2.385812	0.255627	0.199231
V13	V	2.909858	0.502021	0.225080
O14	O	2.851571	0.491170	-0.007864
O15	O	2.925701	0.499833	0.443457
O16	O	3.039051	0.720402	0.222913
O17	O	2.737436	0.269074	0.214207
V18	V	3.126608	0.474007	0.197064
O19	O	3.095354	0.563471	0.286535
O20	O	3.166211	0.412557	0.135609
O21	O	2.999162	0.476196	-0.021313
O22	O	3.243593	0.484859	0.430009
O23	O	3.357729	0.706954	0.207938
O24	O	2.885812	0.255627	0.199231
C25	C	2.352979	0.492235	0.496652
C26	C	2.407598	0.491901	0.675187
C27	C	2.497566	0.773590	0.215325
C28	C	2.644102	0.952125	0.214998
C29	C	2.403553	0.483790	-0.074499
C30	C	2.338561	0.484133	-0.253032
C31	C	2.762450	1.202432	0.206836
C32	C	2.615925	1.023900	0.207187
C33	C	2.258962	0.202430	0.206825
C34	C	2.102043	0.023893	0.207144
C35	C	2.852979	0.492235	0.496652
C36	C	2.907598	0.491901	0.675187
C37	C	2.997566	0.773590	0.215325
C38	C	3.144102	0.952125	0.214998
C39	C	2.903553	0.483790	-0.074499
C40	C	2.838561	0.484133	-0.253032
H41	H	2.479703	0.948768	0.200764
H42	H	2.780344	1.027270	0.221439
Cl43	Cl	2.182682	0.474135	0.630959
H44	H	2.508544	0.498353	0.750333
H45	H	1.977620	-0.037871	0.213830
Cl46	Cl	2.299240	0.031837	0.189332
Cl47	Cl	2.682682	0.474135	0.630959
H48	H	3.008544	0.498353	0.750333
