data_functionalizedCrystal
_audit_creation_method	'MofGen! by Chris Wilmer'
_symmetry_space_group_name_H-M	'P1'
_symmetry_Int_Tables_number	1
_symmetry_cell_setting	triclinic
loop_
_symmetry_equiv_pos_as_xyz
  x,y,z
_cell_length_a	14.519731
_cell_length_b	17.699083
_cell_length_c	16.176319
_cell_angle_alpha	89.994467
_cell_angle_beta	89.995132
_cell_angle_gamma	96.514066
loop_
_atom_site_label
_atom_site_type_symbol
_atom_site_fract_x
_atom_site_fract_y
_atom_site_fract_z
O1	O	-1.223434	0.099278	0.068769
O2	O	-0.723434	0.599278	0.568769
O3	O	-0.954910	0.110945	0.068767
O4	O	-0.454910	0.610945	0.568767
O5	O	-1.096759	-0.005056	0.068761
O6	O	-0.596759	0.494944	0.568761
O7	O	-1.081586	0.215278	0.068775
O8	O	-0.581586	0.715278	0.568775
O9	O	-1.096745	-0.005034	-0.068732
O10	O	-0.596745	0.494966	0.431268
O11	O	-0.954897	0.110966	-0.068727
O12	O	-0.454897	0.610966	0.431273
O13	O	-1.223420	0.099299	-0.068724
O14	O	-0.723420	0.599299	0.431276
Cu15	Cu	-1.089157	0.105134	-0.081279
Cu16	Cu	-0.589157	0.605134	0.418721
Cu17	Cu	-1.089173	0.105110	0.081322
Cu18	Cu	-0.589173	0.605110	0.581322
O19	O	-1.081572	0.215300	-0.068718
O20	O	-0.581572	0.715300	0.431282
C21	C	-0.920546	0.110409	0.000020
C22	C	-0.420546	0.610409	0.500020
C23	C	-0.818173	0.108771	0.000018
C24	C	-0.318173	0.608771	0.500018
C25	C	-1.096208	-0.033244	0.000014
C26	C	-0.596208	0.466756	0.500014
C27	C	-1.094577	-0.117266	0.000014
C28	C	-0.594577	0.382734	0.500014
C29	C	-0.735035	0.107440	0.000020
C30	C	-0.235035	0.607440	0.500020
C31	C	-0.630733	0.105776	0.000019
C32	C	-0.130733	0.605776	0.500019
C33	C	-0.547599	0.104456	0.000017
C34	C	-0.047599	0.604456	0.500017
C35	C	-0.443291	0.102793	0.000017
C36	C	0.056709	0.602793	0.500017
C37	C	-1.177839	-0.165644	0.000014
C38	C	-0.677839	0.334356	0.500014
C39	C	-1.176301	-0.244592	0.000021
C40	C	-0.676301	0.255408	0.500021
C41	C	-1.091500	-0.275161	0.000022
C42	C	-0.591500	0.224839	0.500022
C43	C	-1.008232	-0.226777	0.000025
C44	C	-0.508232	0.273223	0.500025
C45	C	-1.009771	-0.147831	0.000024
C46	C	-0.509771	0.352169	0.500024
C47	C	-1.002023	-0.545158	0.000032
C48	C	-0.502023	-0.045158	0.500032
C49	C	-1.000491	-0.624111	0.000031
C50	C	-0.500491	-0.124111	0.500031
C51	C	-1.168554	-0.641919	0.000029
C52	C	-0.668554	-0.141919	0.500029
C53	C	-1.170093	-0.562973	0.000027
C54	C	-0.670093	-0.062973	0.500027
C55	C	-1.086825	-0.514596	0.000035
C56	C	-0.586825	-0.014596	0.500035
C57	C	-1.088493	-0.428992	0.000028
C58	C	-0.588493	0.071008	0.500028
C59	C	-1.089830	-0.360763	0.000023
C60	C	-0.589830	0.139237	0.500023
C61	C	-0.257784	0.099835	0.000021
C62	C	0.242216	0.599835	0.500021
C63	C	-0.360158	0.101473	0.000016
C64	C	0.139842	0.601473	0.500016
C65	C	-1.082123	0.243488	0.000031
C66	C	-0.582123	0.743488	0.500031
C67	C	-1.083754	0.327510	0.000036
C68	C	-0.583754	0.827510	0.500036
N69	N	-1.089153	0.105151	-0.195645
N70	N	-0.589153	0.605151	0.304355
C71	C	-1.033358	0.059082	-0.761038
C72	C	-0.533358	0.559082	-0.261038
C73	C	-1.033356	0.059088	-0.674491
C74	C	-0.533356	0.559088	-0.174491
C75	C	-1.089177	0.105103	-0.631220
C76	C	-0.589177	0.605103	-0.131220
C77	C	-1.145011	0.151109	-0.674500
C78	C	-0.645011	0.651109	-0.174500
C79	C	-1.145017	0.151099	-0.761046
C80	C	-0.645017	0.651099	-0.261046
C81	C	-1.144988	0.151152	-0.325472
C82	C	-0.644988	0.651152	0.174528
C83	C	-1.144976	0.151160	-0.238920
C84	C	-0.644976	0.651160	0.261080
C85	C	-1.033327	0.059141	-0.238917
C86	C	-0.533327	0.559141	0.261083
C87	C	-1.033333	0.059131	-0.325463
C88	C	-0.533333	0.559131	0.174537
C89	C	-1.089170	0.105134	-0.368736
C90	C	-0.589170	0.605134	0.131264
C91	C	-1.089173	0.105126	-0.462580
C92	C	-0.589173	0.605126	0.037420
C93	C	-1.089170	0.105116	-0.537377
C94	C	-0.589170	0.605116	-0.037377
N95	N	-1.089185	0.105087	0.195688
N96	N	-0.589185	0.605087	0.695688
H97	H	-1.246894	-0.140761	0.000007
H98	H	-0.746894	0.359239	0.500007
Br99	Br	-1.281563	-0.707577	0.000020
Br100	Br	-0.781563	-0.207577	0.500020
Br101	Br	-0.957548	-0.003294	-0.180186
Br102	Br	-0.457548	0.496706	0.319814
H103	H	-0.931431	-0.648996	0.000031
H104	H	-0.431431	-0.148996	0.500031
Br105	Br	-1.220736	0.213616	-0.180195
Br106	Br	-0.720736	0.713616	0.319805
H107	H	-1.239146	-0.538088	0.000022
H108	H	-0.739146	-0.038088	0.500022
Br109	Br	-0.889017	-0.479514	0.000047
Br110	Br	-0.389017	0.020486	0.500047
Br111	Br	-1.289305	-0.310245	0.000021
Br112	Br	-0.789305	0.189755	0.500021
H113	H	-1.190454	0.188611	-0.360694
H114	H	-0.690454	0.688611	0.139306
Br115	Br	-0.896768	-0.082174	0.000031
Br116	Br	-0.396768	0.417826	0.500031
Br117	Br	-0.893143	-0.268262	0.000041
Br118	Br	-0.393143	0.231738	0.500041
Br119	Br	-0.957589	-0.003364	-0.819755
Br120	Br	-0.457589	0.496636	-0.319755
Br121	Br	-0.957557	-0.003325	-0.615765
Br122	Br	-0.457557	0.496675	-0.115765
Br123	Br	-1.220793	0.213529	-0.819776
Br124	Br	-0.720793	0.713529	-0.319776
H125	H	-0.987875	0.021664	-0.360690
H126	H	-0.487875	0.521664	0.139310
Br127	Br	-1.220777	0.213553	-0.615776
Br128	Br	-0.720777	0.713553	-0.115776
