data_functionalizedCrystal
_audit_creation_method	'MofGen! by Chris Wilmer'
_symmetry_space_group_name_H-M	'P1'
_symmetry_Int_Tables_number	1
_symmetry_cell_setting	triclinic
loop_
_symmetry_equiv_pos_as_xyz
  x,y,z
_cell_length_a	17.019282
_cell_length_b	19.188924
_cell_length_c	18.266242
_cell_angle_alpha	90.007204
_cell_angle_beta	86.127719
_cell_angle_gamma	83.265903
loop_
_atom_site_label
_atom_site_type_symbol
_atom_site_fract_x
_atom_site_fract_y
_atom_site_fract_z
O1	O	1.046371	0.088902	-0.005108
O2	O	0.816667	0.100256	0.009381
O3	O	0.938151	-0.007066	0.001710
O4	O	0.924888	0.196224	0.002563
O5	O	0.938130	-0.007069	-0.120051
O6	O	0.816647	0.100253	-0.112380
O7	O	1.046351	0.088899	-0.126869
Zn8	Zn	0.931495	0.094575	-0.138956
Zn9	Zn	0.931523	0.094579	0.021469
O10	O	0.924867	0.196221	-0.119197
C11	C	0.787270	0.099826	-0.049646
C12	C	0.699704	0.098540	-0.044123
C13	C	0.658559	0.097932	-0.107902
C14	C	0.576284	0.096713	-0.102714
C15	C	0.535154	0.096106	-0.033748
C16	C	0.576305	0.096711	0.030036
C17	C	0.658580	0.097926	0.024848
C18	C	0.286739	0.092435	-0.014763
C19	C	0.204459	0.091223	-0.009580
C20	C	0.204443	0.091223	-0.142331
C21	C	0.286719	0.092441	-0.147512
C22	C	0.327863	0.093043	-0.083729
C23	C	0.451055	0.094862	-0.028444
C24	C	0.411961	0.094282	-0.089034
C25	C	0.937712	-0.033079	-0.059144
C26	C	0.936425	-0.110586	-0.059065
C27	C	0.935836	-0.146984	0.007345
C28	C	0.934616	-0.219809	0.007427
C29	C	0.934001	-0.256235	-0.058905
C30	C	0.934586	-0.219827	-0.125323
C31	C	0.935798	-0.147003	-0.125403
N32	N	0.976980	-0.375828	-0.111014
N33	N	0.975830	-0.445008	-0.110934
C34	C	0.930347	-0.475650	-0.058667
N35	N	0.886068	-0.434499	-0.006474
N36	N	0.887221	-0.365313	-0.006553
C37	C	0.932686	-0.335200	-0.058825
C38	C	0.928434	-0.591013	0.007836
C39	C	0.927209	-0.663838	0.007917
C40	C	0.927187	-0.663856	-0.124836
C41	C	0.928404	-0.591031	-0.124914
C42	C	0.929031	-0.554614	-0.058576
C43	C	1.075748	0.089329	-0.067840
C44	C	1.163314	0.090615	-0.073358
C45	C	0.925306	0.222234	-0.058342
C46	C	0.926593	0.299741	-0.058416
N47	N	0.931483	0.094572	-0.248442
C48	C	0.979170	0.136897	-0.289749
C49	C	0.979183	0.136895	-0.366395
C50	C	0.931494	0.094577	-0.401730
C51	C	0.883804	0.052243	-0.360414
C52	C	0.883798	0.052241	-0.283770
N53	N	0.862409	0.092742	-0.517725
N54	N	0.862416	0.092748	-0.590534
C55	C	0.931510	0.094579	-0.632653
N56	N	1.000596	0.096418	-0.599214
N57	N	1.000588	0.096415	-0.526399
C58	C	0.931495	0.094574	-0.484837
C59	C	0.979215	0.136904	-0.757069
C60	C	0.979230	0.136897	-0.833716
C61	C	0.883844	0.052249	-0.827733
C62	C	0.883836	0.052252	-0.751087
C63	C	0.931521	0.094583	-0.715760
N64	N	0.931542	0.094577	0.130954
H65	H	0.542812	0.096212	0.086190
H66	H	0.928940	-0.561360	0.061853
C67	C	1.031677	0.183461	-0.718206
N68	N	1.071192	0.218528	-0.688937
C69	C	0.159218	0.090554	0.066292
N70	N	0.125142	0.090052	0.123436
H71	H	0.936275	-0.117368	-0.179484
H72	H	0.926680	-0.693512	-0.178845
C73	C	0.926600	-0.703881	0.080974
N74	N	0.926158	-0.734043	0.136001
H75	H	0.320229	0.092923	0.037174
C76	C	0.703839	0.098596	0.095010
N77	N	0.737927	0.099098	0.147858
C78	C	0.331956	0.093105	-0.223381
N79	N	0.366028	0.093606	-0.280527
H80	H	0.934083	-0.249489	-0.179331
C81	C	0.831344	0.005695	-0.399284
N82	N	0.791830	-0.029368	-0.428560
C83	C	0.457204	0.094969	-0.164895
N84	N	0.491286	0.095496	-0.222034
H85	H	0.928890	-0.561396	-0.178992
C86	C	0.831386	0.005697	-0.866597
N87	N	0.791876	-0.029369	-0.895873
H88	H	0.936345	-0.117338	0.061362
H89	H	0.845001	0.017790	-0.717454
C90	C	1.031634	0.183455	-0.250894
N91	N	1.071153	0.218519	-0.221628
H92	H	1.018016	0.171363	-0.400034
H93	H	1.018068	0.171361	-0.867347
H94	H	0.844964	0.017775	-0.250138
H95	H	0.934131	-0.249450	0.061508
C96	C	0.703795	0.098599	-0.183771
N97	N	0.737864	0.099098	-0.240918
C98	C	0.405804	0.094198	0.047418
N99	N	0.371718	0.093697	0.104557
H100	H	0.542789	0.096207	-0.154650
C101	C	0.159179	0.090554	-0.212488
N102	N	0.125086	0.090046	-0.265333
