data_functionalizedCrystal
_audit_creation_method	'MofGen! by Chris Wilmer'
_symmetry_space_group_name_H-M	'P1'
_symmetry_Int_Tables_number	1
_symmetry_cell_setting	triclinic
loop_
_symmetry_equiv_pos_as_xyz
  x,y,z
_cell_length_a	13.032891
_cell_length_b	19.120786
_cell_length_c	13.032268
_cell_angle_alpha	94.409956
_cell_angle_beta	90.886842
_cell_angle_gamma	84.951705
loop_
_atom_site_label
_atom_site_type_symbol
_atom_site_fract_x
_atom_site_fract_y
_atom_site_fract_z
Zn1	Zn	1.472794	-0.469319	-0.747726
Zn2	Zn	1.972794	0.030681	-0.247726
Zn3	Zn	1.488872	-0.572861	-0.568441
Zn4	Zn	1.988872	-0.072861	-0.068441
Zn5	Zn	1.324242	-0.440288	-0.556015
Zn6	Zn	1.824242	0.059712	-0.056015
Zn7	Zn	1.295327	-0.569105	-0.718831
Zn8	Zn	1.795327	-0.069105	-0.218831
O9	O	1.395309	-0.512893	-0.647753
O10	O	1.895309	-0.012893	-0.147753
O11	O	1.618096	-0.496775	-0.741236
O12	O	2.118096	0.003225	-0.241236
O13	O	1.485863	-0.544697	-0.423622
O14	O	1.985863	-0.044697	0.076378
O15	O	1.349320	-0.346896	-0.588338
O16	O	1.849320	0.153104	-0.088338
O17	O	1.629908	-0.572847	-0.609516
O18	O	2.129908	-0.072847	-0.109516
O19	O	1.458461	-0.368224	-0.729187
O20	O	1.958461	0.131776	-0.229187
O21	O	1.364910	-0.447297	-0.414493
O22	O	1.864910	0.052703	0.085507
O23	O	1.177237	-0.443655	-0.560320
O24	O	1.677237	0.056345	-0.060320
O25	O	1.300038	-0.566446	-0.865834
O26	O	1.800038	-0.066446	-0.365834
O27	O	1.155993	-0.538296	-0.679940
O28	O	1.655993	-0.038296	-0.179940
O29	O	1.430423	-0.493133	-0.887063
O30	O	1.930423	0.006867	-0.387063
O31	O	1.457825	-0.669606	-0.581498
O32	O	1.957825	-0.169606	-0.081498
O33	O	1.315628	-0.666846	-0.691989
O34	O	1.815628	-0.166846	-0.191989
C35	C	1.129493	-0.487419	-0.615646
C36	C	1.629493	0.012581	-0.115646
C37	C	1.015772	-0.476539	-0.601934
C38	C	1.515772	0.023461	-0.101934
C39	C	0.837058	-0.507332	-0.640746
C40	C	1.337058	-0.007332	-0.140746
C41	C	0.954595	-0.518580	-0.654916
C42	C	1.454595	-0.018580	-0.154916
C43	C	1.385358	-0.693445	-0.634982
C44	C	1.885358	-0.193445	-0.134982
C45	C	1.381191	-0.770697	-0.629564
C46	C	1.881191	-0.270697	-0.129564
C47	C	1.436001	-0.818033	-0.700399
C48	C	1.936001	-0.318033	-0.200399
C49	C	1.432080	-0.890620	-0.695310
C50	C	1.932080	-0.390620	-0.195310
C51	C	1.373355	-0.915868	-0.619380
C52	C	1.873355	-0.415868	-0.119380
C53	C	1.318538	-0.868525	-0.548542
C54	C	1.818538	-0.368525	-0.048542
C55	C	1.322454	-0.795940	-0.553637
C56	C	1.822454	-0.295940	-0.053637
C57	C	1.358689	-1.134475	-0.600330
C58	C	1.858689	-0.634475	-0.100330
C59	C	1.354780	-1.207066	-0.595239
C60	C	1.854780	-0.707066	-0.095239
C61	C	1.468321	-1.229155	-0.742008
C62	C	1.968321	-0.729155	-0.242008
C63	C	1.472236	-1.156568	-0.747093
C64	C	1.972236	-0.656568	-0.247093
C65	C	1.417415	-1.109232	-0.676258
C66	C	1.917415	-0.609232	-0.176258
C67	C	1.369349	-0.990063	-0.614174
C68	C	1.869349	-0.490063	-0.114174
C69	C	1.421416	-1.035038	-0.681469
C70	C	1.921416	-0.535038	-0.181469
C71	C	1.662162	-0.538468	-0.679986
C72	C	2.162162	-0.038468	-0.179986
C73	C	1.775879	-0.549366	-0.693721
C74	C	2.275879	-0.049366	-0.193721
C75	C	1.360212	-0.532609	-0.914609
C76	C	1.860212	-0.032609	-0.414609
C77	C	1.345256	-0.541010	-1.028328
C78	C	1.845256	-0.041010	-0.528328
C79	C	1.405323	-0.331641	-0.660599
C80	C	1.905323	0.168359	-0.160599
C81	C	1.409590	-0.254402	-0.666074
C82	C	1.909590	0.245598	-0.166074
C83	C	1.403100	-0.508482	-1.089530
C84	C	1.903100	-0.008482	-0.589530
C85	C	1.387643	-0.517164	-1.207064
C86	C	1.887643	-0.017164	-0.707064
C87	C	1.430330	-0.493210	-0.381946
C88	C	1.930330	0.006790	0.118054
C89	C	1.445495	-0.484632	-0.268266
C90	C	1.945495	0.015368	0.231734
H91	H	1.483826	-0.797482	-0.762225
H92	H	1.983826	-0.297482	-0.262225
H93	H	1.476721	-0.929159	-0.752984
H94	H	1.976721	-0.429159	-0.252984
H95	H	1.464061	-0.474203	-1.054914
H96	H	1.964061	0.025797	-0.554914
C97	C	1.262889	-0.587314	-1.075086
C98	C	1.762889	-0.087314	-0.575086
N99	N	1.200848	-0.622192	-1.110303
N100	N	1.700848	-0.122192	-0.610303
H101	H	1.506460	-0.450349	-1.233656
H102	H	2.006460	0.049651	-0.733656
H103	H	0.989228	-0.562894	-0.710769
H104	H	1.489228	-0.062894	-0.210769
C105	C	0.822670	-0.609236	-0.769165
C106	C	1.322670	-0.109236	-0.269165
N107	N	0.857911	-0.654332	-0.825989
N108	N	1.357911	-0.154332	-0.325989
C109	C	1.254010	-0.896302	-0.464964
C110	C	1.754010	-0.396302	0.035036
N111	N	1.205435	-0.917224	-0.401989
N112	N	1.705435	-0.417224	0.098011
C113	C	1.298357	-1.082414	-0.522430
C114	C	1.798357	-0.582414	-0.022430
N115	N	1.252902	-1.043198	-0.463759
N116	N	1.752902	-0.543198	0.036241
C117	C	0.968988	-0.416667	-0.526484
C118	C	1.468988	0.083333	-0.026484
N119	N	0.933751	-0.371573	-0.469654
N120	N	1.433751	0.128427	0.030346
C121	C	1.290170	-1.234836	-0.511711
C122	C	1.790170	-0.734836	-0.011711
N123	N	1.241509	-1.255753	-0.448801
N124	N	1.741509	-0.755753	0.051199
H125	H	0.802418	-0.463015	-0.584907
H126	H	1.302418	0.036985	-0.084907
C127	C	1.305272	-0.563471	-1.253818
C128	C	1.805272	-0.063471	-0.753818
N129	N	1.243231	-0.598349	-1.289035
N130	N	1.743231	-0.098349	-0.789035
C131	C	1.536859	-1.128801	-0.830604
C132	C	2.036859	-0.628801	-0.330604
N133	N	1.585545	-1.107888	-0.893499
N134	N	2.085545	-0.607888	-0.393499
C135	C	1.262159	-0.743870	-0.475712
C136	C	1.762159	-0.243870	0.024288
N137	N	1.216741	-0.704650	-0.417019
N138	N	1.716741	-0.204650	0.082981
H139	H	1.512951	-1.267703	-0.799679
H140	H	2.012951	-0.767703	-0.299679
C141	C	1.486014	-1.007262	-0.764987
C142	C	1.986014	-0.507262	-0.264987
N143	N	1.534674	-0.986336	-0.827890
N144	N	2.034674	-0.486336	-0.327890
H145	H	1.321538	-1.010628	-0.552350
H146	H	1.821538	-0.510628	-0.052350
