data_functionalizedCrystal
_audit_creation_method	'MofGen! by Chris Wilmer'
_symmetry_space_group_name_H-M	'P1'
_symmetry_Int_Tables_number	1
_symmetry_cell_setting	triclinic
loop_
_symmetry_equiv_pos_as_xyz
  x,y,z
_cell_length_a	18.101398
_cell_length_b	19.121063
_cell_length_c	18.101389
_cell_angle_alpha	92.419391
_cell_angle_beta	89.975673
_cell_angle_gamma	92.464489
loop_
_atom_site_label
_atom_site_type_symbol
_atom_site_fract_x
_atom_site_fract_y
_atom_site_fract_z
Zn1	Zn	1.119554	-0.279777	-0.431404
Zn2	Zn	1.619554	0.220223	0.068596
Zn3	Zn	1.114175	-0.397213	-0.312837
Zn4	Zn	1.614175	0.102787	0.187163
Zn5	Zn	0.995713	-0.279770	-0.307565
Zn6	Zn	1.495713	0.220230	0.192435
Zn7	Zn	0.990390	-0.397183	-0.436624
Zn8	Zn	1.490390	0.102817	0.063376
O9	O	1.054958	-0.338486	-0.372107
O10	O	1.554958	0.161514	0.127893
O11	O	1.222473	-0.295371	-0.415698
O12	O	1.722473	0.204629	0.084302
O13	O	1.098437	-0.381644	-0.208505
O14	O	1.598437	0.118356	0.291495
O15	O	1.016620	-0.181486	-0.319601
O16	O	1.516620	0.318514	0.180399
O17	O	1.218521	-0.381651	-0.328587
O18	O	1.718521	0.118349	0.171413
O19	O	1.107605	-0.181491	-0.410586
O20	O	1.607605	0.318509	0.089414
O21	O	1.011404	-0.295359	-0.204632
O22	O	1.511404	0.204641	0.295368
O23	O	0.891375	-0.295330	-0.324663
O24	O	1.391375	0.204670	0.175337
O25	O	1.007547	-0.381599	-0.539564
O26	O	1.507547	0.118401	-0.039564
O27	O	0.887464	-0.381592	-0.419482
O28	O	1.387464	0.118408	0.080518
O29	O	1.102443	-0.295342	-0.535729
O30	O	1.602443	0.204658	-0.035729
O31	O	1.093276	-0.495494	-0.333648
O32	O	1.593276	0.004506	0.166352
O33	O	1.002331	-0.495472	-0.424594
O34	O	1.502331	0.004528	0.075406
C35	C	0.862549	-0.338457	-0.372067
C36	C	1.362549	0.161543	0.127933
C37	C	0.780234	-0.338462	-0.372069
C38	C	1.280234	0.161538	0.127931
C39	C	0.481141	-0.338506	-0.372133
C40	C	0.981141	0.161494	0.127867
C41	C	0.514915	-0.283961	-0.312742
C42	C	1.014915	0.216039	0.187258
C43	C	0.600526	-0.284107	-0.312506
C44	C	1.100526	0.215893	0.187494
C45	C	0.629525	-0.338484	-0.372101
C46	C	1.129525	0.161516	0.127899
C47	C	0.595084	-0.412466	-0.354099
C48	C	1.095084	0.087534	0.145901
C49	C	0.509452	-0.412163	-0.353690
C50	C	1.009452	0.087837	0.146310
C51	C	0.513600	-0.319712	-0.449688
C52	C	1.013600	0.180288	0.050312
C53	C	0.599325	-0.318065	-0.449186
C54	C	1.099325	0.181935	0.050814
C55	C	0.713385	-0.338476	-0.372084
C56	C	1.213385	0.161524	0.127916
C57	C	0.397281	-0.338519	-0.372148
C58	C	0.897281	0.161481	0.127852
C59	C	1.046662	-0.520967	-0.380276
C60	C	1.546662	-0.020967	0.119724
C61	C	1.043181	-0.599034	-0.383795
C62	C	1.543181	-0.099034	0.116205
C63	C	1.088932	-0.635698	-0.338137
C64	C	1.588932	-0.135698	0.161863
C65	C	1.085662	-0.709049	-0.341451
C66	C	1.585662	-0.209049	0.158549
C67	C	1.036637	-0.745735	-0.390420
C68	C	1.536637	-0.245735	0.109580
C69	C	0.990884	-0.709066	-0.436083
C70	C	1.490884	-0.209066	0.063917
C71	C	0.994158	-0.635716	-0.432772
C72	C	1.494158	-0.135716	0.067228
C73	C	1.024385	-0.967206	-0.402788
C74	C	1.524385	-0.467206	0.097212
C75	C	1.021113	-1.040562	-0.406094
C76	C	1.521113	-0.540562	0.093906
C77	C	1.115892	-1.040539	-0.311462
C78	C	1.615892	-0.540539	0.188538
C79	C	1.119159	-0.967188	-0.308152
C80	C	1.619159	-0.467188	0.191848
C81	C	1.073408	-0.930525	-0.353818
C82	C	1.573408	-0.430525	0.146182
C83	C	1.033292	-0.820713	-0.393807
C84	C	1.533292	-0.320713	0.106193
C85	C	1.076758	-0.855549	-0.350434
C86	C	1.576758	-0.355549	0.149566
C87	C	1.248119	-0.338515	-0.372148
C88	C	1.748119	0.161485	0.127852
C89	C	1.330432	-0.338528	-0.372165
C90	C	1.830432	0.161472	0.127835
C91	C	1.055002	-0.338468	-0.565269
C92	C	1.555002	0.161532	-0.065269
C93	C	1.055020	-0.338461	-0.647582
C94	C	1.555020	0.161539	-0.147582
C95	C	1.063306	-0.155292	-0.363923
C96	C	1.563306	0.344708	0.136077
C97	C	1.066864	-0.077226	-0.360436
C98	C	1.566864	0.422774	0.139564
C99	C	1.055069	-0.338329	-0.946668
C100	C	1.555069	0.161671	-0.446668
C101	C	0.995174	-0.392427	-0.917747
C102	C	1.495174	0.107573	-0.417747
C103	C	0.995318	-0.392678	-0.832140
C104	C	1.495318	0.107322	-0.332140
C105	C	1.055044	-0.338394	-0.798288
C106	C	1.555044	0.161606	-0.298288
C107	C	1.132167	-0.358491	-0.830296
C108	C	1.632167	0.141509	-0.330296
C109	C	1.131831	-0.358846	-0.915957
C110	C	1.631831	0.141154	-0.415957
C111	C	1.038526	-0.264013	-0.911754
C112	C	1.538526	0.235987	-0.411754
C113	C	1.036771	-0.264443	-0.826122
C114	C	1.536771	0.235557	-0.326122
C115	C	1.055035	-0.338430	-0.714430
C116	C	1.555035	0.161570	-0.214430
C117	C	1.055084	-0.338295	-1.030526
C118	C	1.555084	0.161705	-0.530526
C119	C	1.054959	-0.338453	-0.179695
C120	C	1.554959	0.161547	0.320305
C121	C	1.055093	-0.338263	-0.097373
C122	C	1.555093	0.161737	0.402627
H123	H	0.494409	-0.266704	-0.466696
H124	H	0.994409	0.233296	0.033304
H125	H	0.622115	-0.263622	-0.462821
H126	H	1.122115	0.236378	0.037179
N127	N	0.975033	-0.927669	-0.452030
N128	N	1.475033	-0.427669	0.047970
H129	H	1.006464	-0.897199	-0.485010
H130	H	1.506464	-0.397199	0.014990
H131	H	0.943486	-0.962087	-0.483501
H132	H	1.443486	-0.462087	0.016499
H133	H	0.619076	-0.354899	-0.495539
H134	H	1.119076	0.145101	0.004461
N135	N	0.484410	-0.372335	-0.508254
N136	N	0.984410	0.127665	-0.008254
H137	H	0.450328	-0.408177	-0.484706
H138	H	0.950328	0.091823	0.015294
H139	H	0.456287	-0.347388	-0.546692
H140	H	0.956287	0.152612	-0.046692
H141	H	0.956904	-0.605865	-0.469953
H142	H	1.456904	-0.105865	0.030047
H143	H	1.159079	-0.937319	-0.268278
H144	H	1.659079	-0.437319	0.231722
H145	H	1.153140	-1.070398	-0.274285
H146	H	1.653140	-0.570398	0.225715
H147	H	0.981200	-1.070430	-0.445983
H148	H	1.481200	-0.570430	0.054017
H149	H	0.488724	-0.428103	-0.297092
H150	H	0.988724	0.071897	0.202908
H151	H	1.177791	-0.321154	-0.935005
H152	H	1.677791	0.178846	-0.435005
N153	N	1.141807	-0.596131	-0.285317
N154	N	1.641807	-0.096131	0.214683
H155	H	1.170295	-0.630491	-0.256898
H156	H	1.670295	-0.130491	0.243102
H157	H	1.177420	-0.565659	-0.314123
H158	H	1.677420	-0.065659	0.185877
N159	N	1.135008	-0.748595	-0.292206
N160	N	1.635008	-0.248595	0.207794
H161	H	1.166558	-0.714224	-0.260678
H162	H	1.666558	-0.214224	0.239322
H163	H	1.103521	-0.779068	-0.259282
H164	H	1.603521	-0.279068	0.240718
H165	H	0.993375	-0.850591	-0.433677
H166	H	1.493375	-0.350591	0.066323
N167	N	0.938009	-0.748631	-0.488904
N168	N	1.438009	-0.248631	0.011096
H169	H	0.942874	-0.800662	-0.484072
H170	H	1.442874	-0.300662	0.015928
H171	H	0.885696	-0.735850	-0.476746
H172	H	1.385696	-0.235850	0.023254
N173	N	0.631666	-0.211436	-0.326937
N174	N	1.131666	0.288564	0.173063
H175	H	0.687464	-0.211392	-0.326808
H176	H	1.187464	0.288608	0.173192
H177	H	0.613830	-0.196898	-0.376639
H178	H	1.113830	0.303102	0.123361
N179	N	1.129631	-0.815979	-0.297620
N180	N	1.629631	-0.315979	0.202380
H181	H	1.117587	-0.828775	-0.245272
H182	H	1.617587	-0.328775	0.254728
H183	H	1.181951	-0.828714	-0.309809
H184	H	1.681951	-0.328714	0.190191
N185	N	0.919437	-0.375989	-0.803523
N186	N	1.419437	0.124011	-0.303523
H187	H	0.885591	-0.368406	-0.846534
H188	H	1.385591	0.131594	-0.346534
H189	H	0.898856	-0.416297	-0.774407
H190	H	1.398856	0.083703	-0.274407
N191	N	0.919036	-0.375932	-0.944253
N192	N	1.419036	0.124068	-0.444253
H193	H	0.922627	-0.333234	-0.975268
H194	H	1.422627	0.166766	-0.475268
H195	H	0.897428	-0.417157	-0.974962
H196	H	1.397428	0.082843	-0.474962
N197	N	1.009140	-0.464955	-0.949489
N198	N	1.509140	0.035045	-0.449489
H199	H	1.054094	-0.462921	-0.982525
H200	H	1.554094	0.037079	-0.482525
H201	H	1.017915	-0.497182	-0.907878
H202	H	1.517915	0.002818	-0.407878
H203	H	1.005969	-0.447763	-0.814132
H204	H	1.505969	0.052237	-0.314132
N205	N	1.150923	-0.430804	-0.945667
N206	N	1.650923	0.069196	-0.445667
H207	H	1.159477	-0.461995	-0.903105
H208	H	1.659477	0.038005	-0.403105
H209	H	1.108795	-0.451530	-0.977217
H210	H	1.608795	0.048470	-0.477217
N211	N	0.479496	-0.467814	-0.408727
N212	N	0.979496	0.032186	0.091273
H213	H	0.521924	-0.492436	-0.433144
H214	H	1.021924	0.007564	0.066856
H215	H	0.446957	-0.502929	-0.382270
H216	H	0.946957	-0.002929	0.117730
H217	H	0.620422	-0.296530	-0.254971
H218	H	1.120422	0.203470	0.245029
N219	N	1.151681	-0.429690	-0.805101
N220	N	1.651681	0.070310	-0.305101
H221	H	1.201396	-0.442155	-0.825985
H222	H	1.701396	0.057845	-0.325985
H223	H	1.153862	-0.428662	-0.749313
H224	H	1.653862	0.071338	-0.249313
N225	N	0.961617	-0.244361	-0.798285
N226	N	1.461617	0.255639	-0.298285
H227	H	0.966822	-0.199577	-0.766737
H228	H	1.466822	0.300423	-0.266737
H229	H	0.928224	-0.237092	-0.841730
H230	H	1.428224	0.262908	-0.341730
N231	N	0.619545	-0.467741	-0.409811
N232	N	1.119545	0.032259	0.090189
H233	H	0.653274	-0.445304	-0.447343
H234	H	1.153274	0.054696	0.052657
H235	H	0.646908	-0.504382	-0.383566
H236	H	1.146908	-0.004382	0.116434
H237	H	1.177847	-0.320327	-0.808236
H238	H	1.677847	0.179673	-0.308236
H239	H	0.983441	-0.245705	-0.932518
H240	H	1.483441	0.254295	-0.432518
H241	H	0.615770	-0.428682	-0.298133
H242	H	1.115770	0.071318	0.201867
N243	N	1.090690	-0.208212	-0.795277
N244	N	1.590690	0.291788	-0.295277
H245	H	1.127895	-0.229977	-0.762679
H246	H	1.627895	0.270023	-0.262679
H247	H	1.117240	-0.184838	-0.837326
H248	H	1.617240	0.315162	-0.337326
H249	H	1.082192	-0.223708	-0.930220
H250	H	1.582192	0.276292	-0.430220
H251	H	0.496816	-0.228932	-0.323490
H252	H	0.996816	0.271068	0.176510
N253	N	0.485382	-0.300031	-0.237015
N254	N	0.985382	0.199969	0.262985
H255	H	0.450251	-0.342512	-0.241007
H256	H	0.950251	0.157488	0.258993
H257	H	0.527792	-0.309688	-0.203209
H258	H	1.027792	0.190312	0.296791
