data_functionalizedCrystal
_audit_creation_method	'MofGen! by Chris Wilmer'
_symmetry_space_group_name_H-M	'P1'
_symmetry_Int_Tables_number	1
_symmetry_cell_setting	triclinic
loop_
_symmetry_equiv_pos_as_xyz
  x,y,z
_cell_length_a	9.065218
_cell_length_b	8.140239
_cell_length_c	9.065218
_cell_angle_alpha	90.003526
_cell_angle_beta	94.984115
_cell_angle_gamma	89.999539
loop_
_atom_site_label
_atom_site_type_symbol
_atom_site_fract_x
_atom_site_fract_y
_atom_site_fract_z
O1	O	-1.960393	0.136610	0.216359
O2	O	-1.627059	0.469944	0.549692
O3	O	-1.293726	0.803277	0.883026
O4	O	-1.531108	0.136612	0.234105
O5	O	-1.197774	0.469945	0.567439
O6	O	-0.864441	0.803279	0.900772
O7	O	-1.754623	0.136608	0.010590
O8	O	-1.421290	0.469941	0.343923
O9	O	-1.087957	0.803274	0.677256
O10	O	-1.736877	0.136615	0.439875
O11	O	-1.403544	0.469948	0.773208
O12	O	-1.070210	0.803281	1.106541
O13	O	-1.754622	-0.136619	0.010578
O14	O	-1.421288	0.196714	0.343912
O15	O	-1.087955	0.530047	0.677245
O16	O	-1.531106	-0.136615	0.234094
O17	O	-1.197773	0.196718	0.567427
O18	O	-0.864439	0.530052	0.900761
O19	O	-1.960391	-0.136617	0.216347
O20	O	-1.627058	0.196717	0.549681
O21	O	-1.293724	0.530050	0.883014
Zn22	Zn	-1.745748	-0.179997	0.225219
Zn23	Zn	-1.412415	0.153337	0.558552
Zn24	Zn	-1.079082	0.486670	0.891886
Zn25	Zn	-1.745750	0.179992	0.225234
Zn26	Zn	-1.412417	0.513325	0.558567
Zn27	Zn	-1.079084	0.846659	0.891901
O28	O	-1.736875	-0.136613	0.439863
O29	O	-1.403542	0.196721	0.773196
O30	O	-1.070209	0.530054	1.106530
C31	C	-1.476120	-0.000001	0.232394
C32	C	-1.142787	0.333332	0.565727
C33	C	-0.809454	0.666665	0.899061
C34	C	-1.312277	-0.000000	0.227294
C35	C	-0.978944	0.333333	0.560628
C36	C	-0.645611	0.666666	0.893961
N37	N	-1.745757	-0.425679	0.225208
N38	N	-1.412424	-0.092346	0.558541
N39	N	-1.079091	0.240988	0.891874
C40	C	-1.752917	-0.000003	-0.044403
C41	C	-1.419584	0.333330	0.288931
C42	C	-1.086250	0.666664	0.622264
C43	C	-1.747817	0.000005	-0.208245
C44	C	-1.414484	0.333338	0.125088
C45	C	-1.081151	0.666671	0.458421
C46	C	-2.015378	0.000000	0.218059
C47	C	-1.682045	0.333333	0.551392
C48	C	-1.348712	0.666667	0.884725
C49	C	-2.179221	0.000010	0.223158
C50	C	-1.845888	0.333343	0.556492
C51	C	-1.512555	0.666677	0.889825
N52	N	-1.745753	0.425674	0.225234
N53	N	-1.412419	0.759008	0.558567
N54	N	-1.079086	1.092341	0.891900
C55	C	-1.738582	0.000002	0.494855
C56	C	-1.405248	0.333335	0.828189
C57	C	-1.071915	0.666669	1.161522
C58	C	-1.743681	0.000005	0.658698
C59	C	-1.410348	0.333338	0.992032
C60	C	-1.077015	0.666672	1.325365
