data_functionalizedCrystal
_audit_creation_method	'MofGen! by Chris Wilmer'
_symmetry_space_group_name_H-M	'P1'
_symmetry_Int_Tables_number	1
_symmetry_cell_setting	triclinic
loop_
_symmetry_equiv_pos_as_xyz
  x,y,z
_cell_length_a	29.839134
_cell_length_b	29.839131
_cell_length_c	8.497374
_cell_angle_alpha	90.014356
_cell_angle_beta	90.003493
_cell_angle_gamma	90.021992
loop_
_atom_site_label
_atom_site_type_symbol
_atom_site_fract_x
_atom_site_fract_y
_atom_site_fract_z
Zn1	Zn	0.686681	-0.179164	0.891966
Zn2	Zn	0.686624	-0.254272	0.628141
Zn3	Zn	0.611575	-0.179131	0.628185
Zn4	Zn	0.611511	-0.254242	0.891864
O5	O	0.649098	-0.216702	0.760039
O6	O	0.749541	-0.189153	0.856993
O7	O	0.676672	-0.244303	0.407385
O8	O	0.621588	-0.116268	0.663237
O9	O	0.749499	-0.244335	0.663162
O10	O	0.676768	-0.116293	0.857035
O11	O	0.621534	-0.189097	0.407417
O12	O	0.548700	-0.189069	0.663138
O13	O	0.621480	-0.244285	1.112640
O14	O	0.548653	-0.244252	0.856863
O15	O	0.676707	-0.189125	1.112715
O16	O	0.676610	-0.317135	0.663064
O17	O	0.621425	-0.317113	0.856820
C18	C	0.532375	-0.216654	0.759995
C19	C	0.482441	-0.216644	0.760014
C20	C	0.649017	-0.333425	0.759961
C21	C	0.649023	-0.383359	0.759980
C22	C	0.125871	-0.188029	0.861165
C23	C	0.313544	-0.187993	0.861129
O24	O	0.337824	-0.163606	0.947124
N25	N	0.336996	-0.216674	0.760051
C26	C	0.313526	-0.245368	0.658982
O27	O	0.337779	-0.269765	0.573020
C28	C	0.125854	-0.245406	0.659028
C29	C	0.102405	-0.216720	0.760101
C30	C	0.102422	-0.159346	0.962231
C31	C	0.055507	-0.159354	0.962233
C32	C	0.032040	-0.188044	0.861169
C33	C	0.055489	-0.216727	0.760103
C34	C	0.102385	-0.274101	0.557969
C35	C	0.055464	-0.274109	0.557992
C36	C	0.032015	-0.245423	0.659065
C37	C	-0.014892	-0.245426	0.659041
N38	N	-0.038344	-0.216745	0.760119
C39	C	-0.014877	-0.188054	0.861183
C40	C	0.412057	-0.245345	0.658964
C41	C	0.458975	-0.245335	0.658950
C42	C	0.458990	-0.187961	0.861099
C43	C	0.412071	-0.187969	0.861103
C44	C	0.388605	-0.216664	0.760041
C45	C	-0.113403	-0.188072	0.861179
C46	C	-0.160323	-0.188081	0.861167
C47	C	-0.160334	-0.245456	0.659025
C48	C	-0.113418	-0.245446	0.659030
C49	C	-0.089954	-0.216753	0.760119
O50	O	-0.039201	-0.269803	0.573104
O51	O	-0.039139	-0.163668	0.947157
C52	C	0.172787	-0.188022	0.861163
C53	C	0.196236	-0.216705	0.760097
C54	C	0.172770	-0.245395	0.659033
C55	C	0.243154	-0.216695	0.760083
C56	C	0.266620	-0.188004	0.861148
C57	C	0.243169	-0.159324	0.962225
C58	C	0.196253	-0.159331	0.962227
C59	C	0.196221	-0.274076	0.557955
C60	C	0.243137	-0.274066	0.557960
C61	C	0.266603	-0.245375	0.659024
C62	C	0.677885	-0.693001	0.659297
C63	C	0.677941	-0.880674	0.659359
O64	O	0.702416	-0.904938	0.573695
N65	N	0.649191	-0.904144	0.760158
C66	C	0.620428	-0.880693	0.860956
O67	O	0.595979	-0.904962	0.946705
C68	C	0.620375	-0.693021	0.860902
C69	C	0.649123	-0.669553	0.760085
C70	C	0.706631	-0.669534	0.558490
C71	C	0.706615	-0.622618	0.558469
C72	C	0.677853	-0.599170	0.659257
C73	C	0.649107	-0.622638	0.760064
C74	C	0.591614	-0.669571	0.961707
C75	C	0.591604	-0.622650	0.961688
C76	C	0.620353	-0.599182	0.860870
C77	C	0.620329	-0.552275	0.860831
N78	N	0.649079	-0.528805	0.760032
C79	C	0.677841	-0.552253	0.659245
C80	C	0.620457	-0.979224	0.860976
C81	C	0.620470	-1.026142	0.860988
C82	C	0.677983	-1.026120	0.659392
C83	C	0.677968	-0.979201	0.659373
C84	C	0.649206	-0.955754	0.760176
C85	C	0.677805	-0.453727	0.659209
C86	C	0.677785	-0.406807	0.659193
C87	C	0.620274	-0.406833	0.860794
C88	C	0.620292	-0.453749	0.860805
C89	C	0.649061	-0.477194	0.760007
O90	O	0.595871	-0.527982	0.946463
O91	O	0.702293	-0.527975	0.573533
C92	C	0.677901	-0.739917	0.659318
C93	C	0.649155	-0.763384	0.760126
C94	C	0.620393	-0.739937	0.860913
C95	C	0.649167	-0.810302	0.760137
C96	C	0.677929	-0.833750	0.659350
C97	C	0.706679	-0.810280	0.558551
C98	C	0.706663	-0.763365	0.558530
C99	C	0.591643	-0.763407	0.961712
C100	C	0.591661	-0.810322	0.961723
C101	C	0.620423	-0.833770	0.860936
C102	C	0.766276	-0.216751	0.760084
C103	C	0.816211	-0.216772	0.760103
C104	C	0.649095	-0.216703	1.171519
C105	C	0.649096	-0.216708	1.350163
C106	C	0.649192	-0.099524	0.760152
C107	C	0.649232	-0.049589	0.760200
H108	H	-0.179413	-0.164720	0.943473
N109	N	-0.089447	-0.158761	0.964448
N110	N	-0.110397	-0.133154	1.054669
H111	H	-0.093478	-0.112451	1.127597
H112	H	0.177119	-0.297440	0.475656
H113	H	0.392956	-0.268713	0.576661
H114	H	0.478063	-0.268689	0.576629
N115	N	0.707329	-0.955232	0.556374
N116	N	0.704383	-0.960490	0.410798
H117	H	0.725120	-0.943565	0.338048
H118	H	0.177165	-0.135972	1.044531
N119	N	0.482958	-0.158657	0.964365
N120	N	0.462020	-0.133052	1.054627
H121	H	0.478949	-0.112359	1.127565
N122	N	0.031565	-0.130044	1.065469
N123	N	0.052530	-0.104428	1.155677
H124	H	0.035624	-0.083724	1.228589
N125	N	0.562257	-0.693536	1.064718
N126	N	0.578048	-0.719692	1.165315
H127	H	0.557313	-0.736617	1.238075
N128	N	0.126381	-0.130036	1.065493
N129	N	0.105429	-0.104433	1.155717
H130	H	0.122347	-0.083728	1.228648
H131	H	0.568184	-0.603561	1.043779
N132	N	0.707153	-0.382843	0.556187
N133	N	0.732830	-0.403788	0.466209
H134	H	0.753571	-0.386865	0.393462
N135	N	0.591094	-1.050103	0.963954
N136	N	0.565417	-1.029156	1.053930
H137	H	0.544670	-1.046077	1.126659
H138	H	-0.094325	-0.268800	0.576714
N139	N	0.267093	-0.303370	0.454727
N140	N	0.308984	-0.303366	0.454732
H141	H	0.325902	-0.324063	0.381836
H142	H	0.596884	-0.472857	0.942903
N143	N	0.267151	-0.130016	1.065440
N144	N	0.309041	-0.130017	1.065404
H145	H	0.325981	-0.109321	1.138298
H146	H	0.596855	-0.387735	0.942849
N147	N	0.736031	-0.739404	0.455533
N148	N	0.761706	-0.760353	0.365559
H149	H	0.782449	-0.743433	0.292810
H150	H	0.730097	-0.829379	0.476482
H151	H	0.121469	-0.297460	0.475664
N152	N	-0.184302	-0.274762	0.555777
N153	N	-0.179070	-0.271722	0.410222
H154	H	-0.195998	-0.292421	0.337306
N155	N	0.707194	-0.477664	0.556235
N156	N	0.732854	-0.456698	0.466238
H157	H	0.753608	-0.473603	0.393504
H158	H	0.730026	-0.603514	0.476380
H159	H	0.036361	-0.297478	0.475697
N160	N	0.562287	-0.834284	1.064710
N161	N	0.536610	-0.813337	1.154687
H162	H	0.515867	-0.830258	1.227428
N163	N	0.707359	-1.050082	0.556441
N164	N	0.707362	-1.091973	0.556481
H165	H	0.728109	-1.108899	0.483783
N166	N	0.562261	-0.739466	1.064685
N167	N	0.536597	-0.760432	1.154672
H168	H	0.515842	-0.743526	1.227400
N169	N	0.736019	-0.693473	0.455527
N170	N	0.761681	-0.672505	0.365541
H171	H	0.782437	-0.689410	0.292809
H172	H	0.392982	-0.164610	0.943404
N173	N	0.591074	-0.955284	0.963964
N174	N	0.565409	-0.976250	1.053946
H175	H	0.544655	-0.959345	1.126680
