data_functionalizedCrystal
_audit_creation_method	'MofGen! by Chris Wilmer'
_symmetry_space_group_name_H-M	'P1'
_symmetry_Int_Tables_number	1
_symmetry_cell_setting	triclinic
loop_
_symmetry_equiv_pos_as_xyz
  x,y,z
_cell_length_a	23.532407
_cell_length_b	11.804783
_cell_length_c	13.339070
_cell_angle_alpha	80.547712
_cell_angle_beta	80.761014
_cell_angle_gamma	103.353876
loop_
_atom_site_label
_atom_site_type_symbol
_atom_site_fract_x
_atom_site_fract_y
_atom_site_fract_z
O1	O	0.761925	-0.098867	-0.104525
O2	O	0.598917	-0.098900	-0.122259
O3	O	0.661713	-0.098884	0.033683
O4	O	0.699128	-0.098883	-0.260468
O5	O	0.687945	0.099161	-0.002533
O6	O	0.625149	0.099145	-0.158476
O7	O	0.788157	0.099179	-0.140742
Cu8	Cu	0.709048	0.117245	-0.152916
Cu9	Cu	0.678025	-0.116967	-0.110085
O10	O	0.725361	0.099162	-0.296685
C11	C	0.590743	0.000118	-0.139915
C12	C	0.527306	0.000105	-0.138554
C13	C	0.668509	0.000136	0.053201
C14	C	0.649669	0.000127	0.165315
N15	N	0.730872	0.281977	-0.183040
C16	C	0.141713	0.000159	-0.222331
C17	C	0.082110	0.000166	-0.221070
O18	O	0.057890	0.000209	-0.298730
N19	N	0.044539	0.000164	-0.128360
C20	C	0.066574	0.000166	-0.036907
O21	O	0.029144	0.000166	0.042066
C22	C	0.126177	0.000168	-0.038170
C23	C	0.163744	0.000158	-0.130884
C24	C	0.179280	0.000150	-0.315037
C25	C	0.238878	0.000141	-0.316297
C26	C	0.260910	0.000140	-0.224850
C27	C	0.223343	0.000148	-0.132143
C28	C	0.148212	0.000179	0.053281
C29	C	0.207820	0.000181	0.052010
C30	C	0.245387	0.000171	-0.040704
C31	C	0.304972	0.000138	-0.041956
N32	N	0.342544	0.000140	-0.134666
C33	C	0.320512	0.000141	-0.226113
C34	C	-0.058595	0.000166	-0.034262
C35	C	-0.118198	0.000156	-0.032996
C36	C	-0.102657	0.000158	-0.217160
C37	C	-0.043054	0.000159	-0.218424
C38	C	-0.021023	0.000168	-0.126972
C39	C	0.445672	0.000120	-0.228751
C40	C	0.505274	0.000105	-0.230001
C41	C	0.489729	0.000110	-0.045839
C42	C	0.430131	0.000118	-0.044587
C43	C	0.408106	0.000127	-0.136052
O44	O	0.329235	0.000099	0.035663
O45	O	0.357951	0.000157	-0.305075
C46	C	0.796330	0.000158	-0.123086
C47	C	0.859767	0.000163	-0.124445
N48	N	0.656205	-0.281698	-0.079953
C49	C	0.603776	0.655977	-0.007607
C50	C	0.587254	0.531322	0.015188
C51	C	0.623157	0.468979	-0.034367
C52	C	0.675585	0.531304	-0.106721
C53	C	0.692111	0.655971	-0.129512
C54	C	0.711492	0.468974	-0.156272
C55	C	0.763920	0.531299	-0.228626
C56	C	0.780442	0.655954	-0.251414
C57	C	0.744539	0.718296	-0.201858
C58	C	0.694966	0.344307	-0.133481
C59	C	0.783301	0.344302	-0.255386
C60	C	0.799823	0.468957	-0.278181
C61	C	0.718565	0.000140	-0.316202
C62	C	0.737404	0.000141	-0.428315
C63	C	0.796154	0.000158	0.531575
C64	C	0.813857	0.000173	0.426237
C65	C	0.772812	0.000161	0.361002
C66	C	0.714059	0.000135	0.401114
C67	C	0.696355	0.000130	0.506460
C68	C	0.673013	0.000133	0.335887
C69	C	0.614261	0.000107	0.375999
C70	C	0.596559	0.000100	0.481335
C71	C	0.637605	0.000112	0.546571
C72	C	0.690717	0.000138	0.230541
C73	C	0.590919	0.000110	0.205426
C74	C	0.573215	0.000095	0.310764
H75	H	0.535860	0.000097	-0.305503
O76	O	0.539460	0.000034	0.520141
C77	C	0.442352	0.000084	0.484097
C78	C	0.506993	0.000129	0.440022
H79	H	0.416088	0.000186	0.419337
H80	H	0.420556	-0.082819	0.547908
H81	H	0.442571	0.082944	0.517669
H82	H	0.506828	-0.082675	0.406394
H83	H	0.528763	0.083087	0.376258
H84	H	0.399540	0.000109	0.030912
O85	O	0.836052	0.000013	0.594870
C86	C	0.902312	-0.102598	0.667399
C87	C	0.857145	-0.102569	0.595666
H88	H	0.919370	-0.185539	0.668084
H89	H	0.941410	-0.019764	0.637730
H90	H	0.879559	-0.102545	0.749557
H91	H	0.879845	-0.102664	0.513491
H92	H	0.818051	-0.185395	0.625423
H93	H	0.623193	0.000096	0.632347
H94	H	0.652279	0.293574	-0.074572
O95	O	0.790009	0.000386	0.258632
C96	C	0.801592	0.102955	0.081812
C97	C	0.782105	0.102866	0.197711
H98	H	0.795197	0.185788	0.032524
H99	H	0.850643	0.103052	0.064279
H100	H	0.773320	0.020029	0.062833
H101	H	0.810334	0.185777	0.216772
H102	H	0.733044	0.102706	0.215183
H103	H	0.574552	0.706747	0.032740
H104	H	0.525378	0.000074	0.343438
H105	H	-0.040664	0.000163	0.040216
O106	O	0.275296	0.000198	-0.406461
C107	C	0.284390	0.000146	-0.588981
C108	C	0.243090	0.000101	-0.486940
H109	H	0.258365	0.000042	-0.654070
H110	H	0.323656	0.083049	-0.609408
H111	H	0.301716	-0.082714	-0.578983
H112	H	0.225720	0.082905	-0.496859
H113	H	0.203856	-0.082857	-0.466546
H114	H	0.812537	0.293543	-0.295738
H115	H	0.757987	0.819801	-0.220419
O116	O	0.550973	0.000147	0.142202
C117	C	0.450110	0.000048	0.128413
C118	C	0.495285	0.000029	0.200131
H119	H	0.405073	-0.000073	0.175224
H120	H	0.466841	0.082949	0.063326
H121	H	0.444965	-0.082814	0.093600
H122	H	0.500451	0.082835	0.235018
H123	H	0.478535	-0.082927	0.265158
O124	O	0.157796	-0.000015	-0.403781
C125	C	0.085965	-0.102682	-0.490508
C126	C	0.110224	-0.102614	-0.389928
H127	H	0.047507	-0.185637	-0.479349
H128	H	0.069385	-0.019863	-0.509702
H129	H	0.123080	-0.102631	-0.556966
H130	H	0.073140	-0.102708	-0.323405
H131	H	0.126821	-0.185427	-0.370823
H132	H	0.507677	0.000105	0.028616
O133	O	0.607007	0.347890	-0.012146
C134	C	0.534843	0.169003	0.087491
C135	C	0.553061	0.306141	0.062406
H136	H	0.491232	0.135207	0.147783
H137	H	0.528529	0.135106	0.013707
H138	H	0.571311	0.135170	0.119603
H139	H	0.516614	0.340075	0.030319
H140	H	0.559394	0.339957	0.136216
H141	H	0.427747	0.000131	-0.303231
O142	O	-0.006569	-0.000056	-0.308422
C143	C	0.056168	-0.102624	-0.397959
C144	C	0.014854	-0.102543	-0.295976
H145	H	0.073510	-0.185462	-0.387925
H146	H	0.030194	-0.102705	-0.463120
H147	H	0.095421	-0.019703	-0.418315
H148	H	-0.024406	-0.185449	-0.275524
H149	H	0.040872	-0.102400	-0.230875
H150	H	0.544569	0.480586	0.074100
O151	O	0.831377	0.716314	-0.321752
C152	C	0.917267	0.703149	-0.440215
C153	C	0.859593	0.634647	-0.360597
H154	H	0.940102	0.637151	-0.471629
H155	H	0.905878	0.761489	-0.506980
H156	H	0.948540	0.761534	-0.400918
H157	H	0.828292	0.576197	-0.399802
H158	H	0.871026	0.576382	-0.293840
O159	O	-0.123974	0.000327	-0.306091
C160	C	-0.115371	0.102977	-0.481842
C161	C	-0.091160	0.102921	-0.381210
H162	H	-0.088860	0.185927	-0.542595
H163	H	-0.110785	0.020153	-0.512430
H164	H	-0.164430	0.102924	-0.464968
H165	H	-0.042096	0.103015	-0.398000
H166	H	-0.095792	0.185737	-0.350651
H167	H	0.842510	0.519719	-0.337093
H168	H	0.738554	0.000160	0.197892
H169	H	-0.148784	0.000146	0.042504
H170	H	0.861694	0.000196	0.393585
H171	H	0.117634	0.000188	0.128778
H172	H	0.225753	0.000189	0.126482
