data_functionalizedCrystal
_audit_creation_method	'MofGen! by Chris Wilmer'
_symmetry_space_group_name_H-M	'P1'
_symmetry_Int_Tables_number	1
_symmetry_cell_setting	triclinic
loop_
_symmetry_equiv_pos_as_xyz
  x,y,z
_cell_length_a	16.625546
_cell_length_b	13.033652
_cell_length_c	13.032268
_cell_angle_alpha	76.703346
_cell_angle_beta	97.144614
_cell_angle_gamma	82.784335
loop_
_atom_site_label
_atom_site_type_symbol
_atom_site_fract_x
_atom_site_fract_y
_atom_site_fract_z
Zn1	Zn	-0.207827	-1.547417	-0.394618
Zn2	Zn	-0.323074	-1.569859	-0.217025
Zn3	Zn	-0.207880	-1.392371	-0.239555
Zn4	Zn	-0.362251	-1.369773	-0.417082
O5	O	-0.275258	-1.469855	-0.317070
O6	O	-0.206697	-1.699019	-0.352230
O7	O	-0.291421	-1.565164	-0.071395
O8	O	-0.095037	-1.413003	-0.260152
O9	O	-0.291369	-1.715507	-0.221753
O10	O	-0.094998	-1.526915	-0.374076
O11	O	-0.206788	-1.434764	-0.087947
O12	O	-0.244775	-1.240749	-0.281934
O13	O	-0.358139	-1.374489	-0.562721
O14	O	-0.358191	-1.224147	-0.412363
O15	O	-0.244684	-1.505004	-0.546217
O16	O	-0.441107	-1.543252	-0.243535
O17	O	-0.469890	-1.396250	-0.390517
C18	C	-0.305741	-1.193911	-0.352032
C19	C	-0.318803	-1.075858	-0.367013
C20	C	-0.268450	-1.031399	-0.309263
C21	C	-0.281950	-0.909385	-0.324746
C22	C	-0.484755	-1.469760	-0.317038
C23	C	-0.574372	-1.469812	-0.317048
C24	C	-0.902539	-1.469984	-0.317135
C25	C	-0.811234	-1.469932	-0.317114
C26	C	-0.738459	-1.469897	-0.317091
C27	C	-0.647147	-1.469847	-0.317071
C28	C	-0.064942	-1.469976	-0.317122
C29	C	0.024682	-1.470028	-0.317143
C30	C	-0.305776	-1.434723	-0.594082
C31	C	-0.318781	-1.419751	-0.712128
C32	C	-0.244650	-0.746878	-0.281966
C33	C	-0.231589	-0.864931	-0.266988
C34	C	-0.268444	-1.477652	-0.756591
C35	C	-0.281883	-1.462180	-0.878597
C36	C	-0.244794	-1.504912	-0.041128
C37	C	-0.231539	-1.520089	0.076944
H38	H	-0.178483	-0.917194	-0.206075
H39	H	-0.178486	-1.581114	-0.870803
H40	H	-0.215349	-1.083668	-0.248354
H41	H	-0.335059	-0.857121	-0.385652
O42	O	-0.382060	-1.013448	-0.439795
C43	C	-0.350848	-0.940585	-0.516561
H44	H	-0.284408	-0.973251	-0.519047
H45	H	-0.389252	-0.928864	-0.598397
H46	H	-0.353647	-0.860722	-0.494315
H47	H	-0.215396	-1.538674	-0.704333
O48	O	-0.345267	-1.389437	-0.940803
C49	C	-0.420111	-1.416024	-0.910836
H50	H	-0.408459	-1.466997	-0.825106
H51	H	-0.464333	-1.339817	-0.916855
H52	H	-0.448063	-1.462754	-0.966312
H53	H	-0.371821	-1.358718	-0.764388
