data_functionalizedCrystal
_audit_creation_method	'MofGen! by Chris Wilmer'
_symmetry_space_group_name_H-M	'P1'
_symmetry_Int_Tables_number	1
_symmetry_cell_setting	triclinic
loop_
_symmetry_equiv_pos_as_xyz
  x,y,z
_cell_length_a	17.077404
_cell_length_b	18.050590
_cell_length_c	17.077396
_cell_angle_alpha	89.970225
_cell_angle_beta	89.980499
_cell_angle_gamma	90.018777
loop_
_atom_site_label
_atom_site_type_symbol
_atom_site_fract_x
_atom_site_fract_y
_atom_site_fract_z
Zn1	Zn	1.200078	-0.295655	-0.443836
Zn2	Zn	1.199995	-0.419852	-0.312567
Zn3	Zn	1.068810	-0.295681	-0.312584
Zn4	Zn	1.068788	-0.419808	-0.443790
O5	O	1.134418	-0.357749	-0.378194
O6	O	1.309914	-0.312138	-0.426434
O7	O	1.182568	-0.403410	-0.202722
O8	O	1.086267	-0.191753	-0.330021
O9	O	1.309853	-0.403385	-0.329992
O10	O	1.182709	-0.191734	-0.426451
O11	O	1.086187	-0.312182	-0.202734
O12	O	0.958960	-0.312139	-0.329977
O13	O	1.086229	-0.403310	-0.553643
O14	O	0.958944	-0.403335	-0.426374
O15	O	1.182688	-0.312095	-0.553677
O16	O	1.182546	-0.523771	-0.329948
O17	O	1.086149	-0.523739	-0.426357
C18	C	0.930470	-0.357736	-0.378172
C19	C	0.843220	-0.357748	-0.378182
C20	C	0.802242	-0.405305	-0.428295
C21	C	0.720262	-0.405307	-0.428308
C22	C	0.679261	-0.357754	-0.378202
C23	C	0.720245	-0.310192	-0.328087
C24	C	0.802224	-0.310187	-0.328079
C25	C	0.549375	-0.310206	-0.328106
C26	C	0.467390	-0.310212	-0.328112
C27	C	0.467413	-0.405326	-0.428335
C28	C	0.549392	-0.405321	-0.428327
C29	C	0.590370	-0.357760	-0.378210
C30	C	1.134358	-0.550701	-0.378163
C31	C	1.134404	-0.633247	-0.378176
C32	C	1.186934	-0.832688	-0.325821
C33	C	1.206108	-0.882019	-0.397464
C34	C	1.134448	-0.784377	-0.378207
C35	C	1.115353	-0.882128	-0.306596
C36	C	1.134493	-0.930362	-0.378231
C37	C	1.153660	-0.832621	-0.449887
C38	C	1.062871	-0.832726	-0.358971
C39	C	1.082019	-0.882034	-0.430663
C40	C	1.134424	-0.700279	-0.378192
C41	C	1.134516	-1.014459	-0.378254
C42	C	1.339162	-0.357763	-0.378216
C43	C	1.426412	-0.357769	-0.378226
C44	C	1.134465	-0.357694	-0.582938
C45	C	1.134486	-0.357671	-0.670188
C46	C	1.134500	-0.164043	-0.378243
C47	C	1.134535	-0.081498	-0.378263
C48	C	1.184713	-0.310172	-0.711197
C49	C	1.184723	-0.310147	-0.793178
C50	C	1.134508	-0.357626	-0.834148
C51	C	1.084275	-0.405127	-0.793133
C52	C	1.084262	-0.405148	-0.711154
C53	C	1.084306	-0.405083	-0.964003
C54	C	1.084320	-0.405064	-1.045988
C55	C	1.184767	-0.310082	-1.046027
C56	C	1.184754	-0.310102	-0.964048
C57	C	1.134522	-0.357605	-0.923039
C58	C	1.134416	-0.357750	-0.174246
C59	C	1.134548	-0.357564	-0.086997
H60	H	0.835619	-0.444030	-0.469094
Br61	Br	1.252911	-0.245672	-0.908445
H62	H	0.434009	-0.271482	-0.287321
Br63	Br	1.180737	-0.796536	-0.550869
Br64	Br	1.252943	-0.245617	-1.101680
Br65	Br	1.008070	-0.917924	-0.504599
Br66	Br	1.016120	-0.469560	-0.848735
H67	H	0.582736	-0.271470	-0.287302
H68	H	1.043353	-0.443819	-0.677766
Br69	Br	0.961973	-0.796611	-0.331798
Br70	Br	1.088404	-0.918376	-0.205645
Br71	Br	1.252872	-0.245738	-0.655603
Br72	Br	0.664602	-0.245648	-0.260093
H73	H	1.266659	-0.903674	-0.413749
H74	H	0.582772	-0.444047	-0.469122
H75	H	1.225625	-0.271470	-0.826563
H76	H	1.043429	-0.443724	-1.079344
Br77	Br	1.260931	-0.796572	-0.252057
H78	H	1.043389	-0.443753	-0.930617
H79	H	0.835587	-0.271457	-0.287275
Br80	Br	0.411801	-0.469865	-0.496361
Br81	Br	0.664651	-0.469850	-0.496324
