data_functionalizedCrystal
_audit_creation_method	'MofGen! by Chris Wilmer'
_symmetry_space_group_name_H-M	'P1'
_symmetry_Int_Tables_number	1
_symmetry_cell_setting	triclinic
loop_
_symmetry_equiv_pos_as_xyz
  x,y,z
_cell_length_a	19.188930
_cell_length_b	17.666332
_cell_length_c	19.188930
_cell_angle_alpha	89.988482
_cell_angle_beta	83.144779
_cell_angle_gamma	89.976436
loop_
_atom_site_label
_atom_site_type_symbol
_atom_site_fract_x
_atom_site_fract_y
_atom_site_fract_z
O1	O	0.926150	-0.063200	0.087169
O2	O	0.722839	-0.063149	0.098903
O3	O	0.830361	-0.063161	-0.008620
O4	O	0.818627	-0.063188	0.194691
O5	O	0.830342	0.062735	-0.008625
O6	O	0.722819	0.062747	0.098898
O7	O	0.926130	0.062697	0.087163
Cu8	Cu	0.824473	0.074217	0.093030
Cu9	Cu	0.824496	-0.074670	0.093036
O10	O	0.818608	0.062709	0.194686
C11	C	0.696818	-0.000194	0.098520
C12	C	0.619313	-0.000174	0.097380
C13	C	0.574389	-0.000194	0.160470
C14	C	0.501566	-0.000203	0.159399
C15	C	0.473669	-0.000206	0.095233
C16	C	0.518603	-0.000181	0.032133
C17	C	0.591425	-0.000166	0.033207
N18	N	0.365696	-0.043078	0.046187
N19	N	0.296517	-0.043095	0.045172
C20	C	0.254260	-0.000252	0.091994
N21	N	0.283795	0.042599	0.139881
N22	N	0.352979	0.042612	0.140899
C23	C	0.394707	-0.000222	0.094062
C24	C	0.130372	-0.000280	0.153928
C25	C	0.057547	-0.000283	0.152853
C26	C	0.074586	-0.000270	0.025586
C27	C	0.147409	-0.000258	0.026662
C28	C	0.175298	-0.000267	0.090835
N29	N	0.824462	0.178937	0.093025
C30	C	0.872088	0.218541	0.045437
C31	C	0.872092	0.297789	0.045434
C32	C	0.824476	0.337429	0.093031
C33	C	0.776841	0.297815	0.140622
C34	C	0.776834	0.218569	0.140619
N35	N	0.815399	0.461841	0.154838
N36	N	0.815410	0.537121	0.154839
C37	C	0.824493	0.576193	0.093041
N38	N	0.833579	0.537140	0.031240
N39	N	0.833571	0.461853	0.031241
C40	C	0.824478	0.423358	0.093039
C41	C	0.872126	0.701727	0.045446
C42	C	0.872124	0.780976	0.045441
C43	C	0.776877	0.781000	0.140636
C44	C	0.776875	0.701753	0.140634
C45	C	0.824503	0.662121	0.093039
C46	C	0.952151	-0.000260	0.087546
C47	C	1.029656	-0.000285	0.088687
C48	C	0.829972	-0.000211	-0.034634
C49	C	0.828831	-0.000204	-0.112138
N50	N	0.824507	0.820610	0.093038
C51	C	0.891922	-0.000216	-0.157062
C52	C	0.890850	-0.000228	-0.229886
C53	C	0.826684	-0.000212	-0.257782
C54	C	0.763585	-0.000205	-0.212849
C55	C	0.764658	-0.000200	-0.140026
N56	N	0.777630	0.042645	-0.365789
N57	N	0.776615	0.042642	-0.434968
C58	C	0.823446	-0.000227	-0.477191
N59	N	0.871342	-0.043084	-0.447624
N60	N	0.872359	-0.043079	-0.378439
C61	C	0.825513	-0.000218	-0.336745
C62	C	0.885379	-0.000253	-0.601079
C63	C	0.884305	-0.000270	-0.673904
C64	C	0.757038	-0.000239	-0.656865
C65	C	0.758114	-0.000230	-0.584042
C66	C	0.822287	-0.000233	-0.556154
C67	C	0.818997	-0.000244	0.220700
C68	C	0.820138	-0.000255	0.298204
H69	H	0.464982	-0.000217	0.210776
O70	O	0.191082	-0.000116	-0.034606
C71	C	0.233693	0.065085	-0.037790
H72	H	0.206889	0.110653	-0.002009
H73	H	0.242044	0.086975	-0.094058
H74	H	0.286602	0.050352	-0.019878
O75	O	0.918374	0.180161	-0.000867
C76	C	0.960423	0.232118	-0.042859
H77	H	0.931806	0.288623	-0.043573
H78	H	0.971246	0.209233	-0.098647
H79	H	1.012217	0.240509	-0.020314
O80	O	0.047380	-0.000308	-0.036684
C81	C	-0.026529	-0.000305	-0.024105
H82	H	-0.043783	-0.024146	0.030436
H83	H	-0.048745	-0.036858	-0.065148
H84	H	-0.046823	0.060090	-0.027430
O85	O	0.635139	-0.000253	-0.028037
C86	C	0.677791	-0.065459	-0.031227
H87	H	0.681314	-0.087202	0.024182
H88	H	0.732598	-0.050785	-0.057403
H89	H	0.653953	-0.111118	-0.063040
H90	H	0.910876	0.330041	0.006681
H91	H	0.495885	-0.000194	-0.020111
O92	O	0.013836	-0.000405	0.214098
C93	C	-0.028750	-0.065626	0.217290
H94	H	-0.032254	-0.087352	0.161880
H95	H	-0.083571	-0.050978	0.243468
H96	H	-0.004862	-0.111287	0.249100
H97	H	0.935683	-0.000284	-0.710481
O98	O	0.730592	0.819580	0.186775
C99	C	0.687627	0.865436	0.149489
H100	H	0.715606	0.877308	0.094786
H101	H	0.676494	0.921160	0.178661
H102	H	0.636042	0.834922	0.144871
O103	O	0.696762	-0.000175	-0.540498
C104	C	0.639896	-0.000182	-0.580733
H105	H	0.657781	0.023643	-0.635146
H106	H	0.595698	0.036382	-0.553743
H107	H	0.620225	-0.060577	-0.585844
H108	H	0.597091	-0.000203	0.212725
H109	H	0.738070	0.330094	0.179375
O110	O	0.701210	-0.000088	-0.239861
C111	C	0.662756	0.065132	-0.216911
H112	H	0.681625	0.086869	-0.166463
H113	H	0.604585	0.050478	-0.206623
H114	H	0.670963	0.110786	-0.259086
O115	O	0.947774	-0.000304	-0.574099
C116	C	1.003232	-0.000309	-0.629371
H117	H	0.983814	-0.024140	-0.678778
H118	H	1.048047	-0.036875	-0.614279
H119	H	1.022681	0.060083	-0.639749
H120	H	0.153080	-0.000276	0.206181
O121	O	0.730544	0.180211	0.186919
C122	C	0.688501	0.232187	0.228916
H123	H	0.717124	0.288662	0.229635
H124	H	0.677676	0.209282	0.284702
H125	H	0.636708	0.240645	0.206372
O126	O	0.918410	0.663340	-0.000858
C127	C	0.960455	0.715294	-0.042856
H128	H	0.931837	0.771798	-0.043573
H129	H	0.971277	0.692404	-0.098642
H130	H	1.012250	0.723690	-0.020314
H131	H	0.910905	0.813222	0.006686
H132	H	0.738096	0.669505	0.179387
O133	O	0.694767	-0.000194	-0.684071
C134	C	0.707347	-0.000224	-0.757980
H135	H	0.761881	0.023600	-0.775254
H136	H	0.666293	0.036330	-0.780226
H137	H	0.704039	-0.060626	-0.778225
H138	H	0.944176	-0.000222	-0.134360
H139	H	0.942228	-0.000241	-0.266470
O140	O	0.703415	-0.000084	-0.096312
C141	C	0.700209	0.065134	-0.053709
H142	H	0.755613	0.086862	-0.050203
H143	H	0.674038	0.050481	0.001110
H144	H	0.668385	0.110795	-0.077581
