data_functionalizedCrystal
_audit_creation_method	'MofGen! by Chris Wilmer'
_symmetry_space_group_name_H-M	'P1'
_symmetry_Int_Tables_number	1
_symmetry_cell_setting	triclinic
loop_
_symmetry_equiv_pos_as_xyz
  x,y,z
_cell_length_a	18.215407
_cell_length_b	12.759394
_cell_length_c	18.215399
_cell_angle_alpha	89.974724
_cell_angle_beta	89.980167
_cell_angle_gamma	90.015285
loop_
_atom_site_label
_atom_site_type_symbol
_atom_site_fract_x
_atom_site_fract_y
_atom_site_fract_z
Zn1	Zn	1.125123	-0.418265	-0.416130
Zn2	Zn	1.125053	-0.593962	-0.293069
Zn3	Zn	1.002056	-0.418299	-0.293077
Zn4	Zn	1.002043	-0.593904	-0.416094
O5	O	1.063569	-0.506107	-0.354592
O6	O	1.228098	-0.441581	-0.399817
O7	O	1.108713	-0.570699	-0.190086
O8	O	1.018416	-0.271273	-0.309418
O9	O	1.228047	-0.570666	-0.309405
O10	O	1.108833	-0.271248	-0.399825
O11	O	1.018348	-0.441640	-0.190092
O12	O	0.899070	-0.441583	-0.309384
O13	O	1.018394	-0.570566	-0.519083
O14	O	0.899061	-0.570599	-0.399764
O15	O	1.108821	-0.441525	-0.519109
O16	O	1.108701	-0.740975	-0.309370
O17	O	1.018326	-0.740933	-0.399756
C18	C	0.872363	-0.506089	-0.354571
C19	C	0.790564	-0.506107	-0.354580
C20	C	0.602384	-0.573391	-0.401582
C21	C	0.525526	-0.573395	-0.401591
C22	C	0.525506	-0.438843	-0.307619
C23	C	0.602363	-0.438835	-0.307614
C24	C	0.640800	-0.506115	-0.354594
C25	C	0.487084	-0.506126	-0.354608
C26	C	0.403751	-0.506129	-0.354618
C27	C	0.724139	-0.506111	-0.354586
C28	C	1.063525	-0.779075	-0.354575
C29	C	1.063573	-0.895852	-0.354592
C30	C	1.157751	-0.895843	-0.260543
C31	C	1.204859	-0.950699	-0.213528
C32	C	1.204903	-1.060421	-0.213548
C33	C	1.157834	-1.115289	-0.260590
C34	C	1.110726	-1.060432	-0.307605
C35	C	1.110686	-0.950708	-0.307579
C36	C	1.016553	-1.060441	-0.401656
C37	C	1.016505	-0.950719	-0.401634
C38	C	0.969484	-1.115308	-0.448698
C39	C	0.922371	-1.060452	-0.495711
C40	C	0.922329	-0.950724	-0.495689
C41	C	0.969397	-0.895863	-0.448649
C42	C	1.255522	-0.506126	-0.354614
C43	C	1.337321	-0.506134	-0.354623
C44	C	1.063614	-0.506035	-0.546545
C45	C	1.063633	-0.506004	-0.628344
C46	C	1.063633	-0.232074	-0.354626
C47	C	1.063661	-0.115297	-0.354641
C48	C	1.110735	-0.438750	-0.816553
C49	C	1.110744	-0.438719	-0.893412
C50	C	1.016583	-0.573096	-0.893373
C51	C	1.016571	-0.573121	-0.816516
C52	C	1.063651	-0.505949	-0.778108
C53	C	1.063672	-0.505894	-0.931824
C54	C	1.063681	-0.505861	-1.015158
C55	C	1.063641	-0.505980	-0.694769
C56	C	1.063567	-0.506104	-0.163386
C57	C	1.063690	-0.505839	-0.081588
H58	H	0.494201	-0.384067	-0.269369
H59	H	0.633642	-0.384044	-0.269352
H60	H	1.149083	-0.383997	-0.924711
F61	F	0.969523	-0.779087	-0.448789
F62	F	0.966483	-0.644585	-0.934256
F63	F	0.969287	-1.232083	-0.448475
F64	F	0.966452	-0.644643	-0.775597
H65	H	1.149068	-0.384051	-0.785283
F66	F	0.643290	-0.644994	-0.451584
F67	F	0.484644	-0.644997	-0.451602
F68	F	1.157871	-0.779068	-0.260680
H69	H	1.243266	-1.105085	-0.175267
F70	F	1.254954	-0.892299	-0.163468
H71	H	1.157880	-1.204630	-0.260608
F72	F	0.872288	-1.118851	-0.545776
H73	H	0.883971	-0.906065	-0.533977
