data_functionalizedCrystal
_audit_creation_method	'MofGen! by Chris Wilmer'
_symmetry_space_group_name_H-M	'P1'
_symmetry_Int_Tables_number	1
_symmetry_cell_setting	triclinic
loop_
_symmetry_equiv_pos_as_xyz
  x,y,z
_cell_length_a	17.038272
_cell_length_b	14.044220
_cell_length_c	12.503572
_cell_angle_alpha	93.835250
_cell_angle_beta	93.777379
_cell_angle_gamma	87.849783
loop_
_atom_site_label
_atom_site_type_symbol
_atom_site_fract_x
_atom_site_fract_y
_atom_site_fract_z
O1	O	0.185401	-1.278116	-0.089207
O2	O	0.178559	-1.001597	-0.089234
O3	O	0.068050	-1.138213	-0.089212
O4	O	0.295910	-1.141501	-0.089229
O5	O	0.076376	-1.127940	0.089428
O6	O	0.186885	-0.991324	0.089406
O7	O	0.193727	-1.267843	0.089433
Cu8	Cu	0.191066	-1.128646	0.105731
Cu9	Cu	0.181220	-1.140795	-0.105532
O10	O	0.304236	-1.131228	0.089411
C11	C	0.179728	-0.960905	0.000083
C12	C	0.170796	-0.854959	0.000072
C13	C	0.042876	-1.130087	0.000108
C14	C	-0.044541	-1.121168	0.000106
C15	C	0.192558	-1.308536	0.000114
C16	C	0.201490	-1.414481	0.000117
C17	C	-0.088926	-1.203055	0.000115
C18	C	-0.171064	-1.194670	0.000104
C19	C	-0.208815	-1.104395	0.000092
C20	C	-0.164424	-1.022502	0.000080
C21	C	-0.082288	-1.030888	0.000083
C22	C	-0.456646	-1.074766	0.000074
C23	C	-0.538788	-1.066385	0.000074
C24	C	-0.545422	-1.238555	0.000097
C25	C	-0.463284	-1.246933	0.000107
C26	C	-0.418901	-1.165040	0.000089
C27	C	-0.292772	-1.095822	0.000084
C28	C	-0.334945	-1.173615	0.000089
C29	C	0.329410	-1.139354	0.000089
C30	C	0.416827	-1.148273	0.000083
N31	N	0.197992	-1.120107	0.254322
C32	C	0.154469	-0.660980	0.000095
C33	C	0.217814	-0.608455	0.000095
C34	C	0.208729	-0.500518	0.000107
C35	C	0.163552	-0.768927	0.000082
N36	N	0.174289	-1.149340	-0.254123
C37	C	0.208186	-1.107548	0.473435
C38	C	0.164097	-1.161896	0.526771
C39	C	0.169769	-1.154908	0.648693
C40	C	0.202515	-1.114535	0.351502
H41	H	-0.207199	-1.261352	0.000114
O42	O	0.298691	-0.656254	0.000086
H43	H	0.327684	-0.638699	-0.072722
H44	H	-0.323518	-1.022319	0.000076
H45	H	0.250190	-1.055775	0.519334
O46	O	-0.048210	-1.300424	0.000119
H47	H	-0.092877	-1.355957	0.000109
O48	O	-0.422568	-1.344302	0.000094
H49	H	-0.467232	-1.399838	0.000083
H50	H	-0.569521	-0.992868	0.000081
O51	O	0.108454	-1.230482	0.465971
H52	H	0.124570	-1.304411	0.487483
O53	O	-0.593291	-1.326881	0.000110
H54	H	-0.656748	-1.305888	0.000098
O55	O	-0.408778	-0.986442	0.000082
H56	H	-0.448829	-0.922261	0.000092
H57	H	-0.195167	-0.948998	0.000063
O58	O	-0.034409	-0.942568	0.000085
H59	H	-0.074456	-0.878384	0.000088
H60	H	0.093419	-0.624887	0.000105
O61	O	-0.294236	-1.270983	0.000098
H62	H	-0.253588	-1.274731	0.072914
