data_functionalizedCrystal
_audit_creation_method	'MofGen! by Chris Wilmer'
_symmetry_space_group_name_H-M	'P1'
_symmetry_Int_Tables_number	1
_symmetry_cell_setting	triclinic
loop_
_symmetry_equiv_pos_as_xyz
  x,y,z
_cell_length_a	16.098691
_cell_length_b	14.519709
_cell_length_c	14.519709
_cell_angle_alpha	96.319855
_cell_angle_beta	93.050352
_cell_angle_gamma	86.949594
loop_
_atom_site_label
_atom_site_type_symbol
_atom_site_fract_x
_atom_site_fract_y
_atom_site_fract_z
O1	O	-0.069138	-1.220196	0.117209
O2	O	0.430862	-0.720196	0.617209
O3	O	-0.069166	-0.951717	0.131444
O4	O	0.430834	-0.451717	0.631444
O5	O	-0.069144	-1.093075	-0.009912
O6	O	0.430856	-0.593075	0.490088
O7	O	-0.069160	-1.078838	0.258564
O8	O	0.430840	-0.578838	0.758564
O9	O	0.069366	-1.100419	-0.002539
O10	O	0.569366	-0.600419	0.497461
O11	O	0.069344	-0.959061	0.138817
O12	O	0.569344	-0.459061	0.638817
O13	O	0.069372	-1.227539	0.124582
O14	O	0.569372	-0.727539	0.624582
Zn15	Zn	0.091349	-1.094466	0.132870
Zn16	Zn	0.591349	-0.594466	0.632870
Zn17	Zn	-0.091144	-1.084791	0.123155
Zn18	Zn	0.408856	-0.584791	0.623155
O19	O	0.069350	-1.086181	0.265937
O20	O	0.569350	-0.586181	0.765937
C21	C	0.000085	-0.921029	0.134467
C22	C	0.500085	-0.421029	0.634467
C23	C	0.000075	-0.818647	0.132478
C24	C	0.500075	-0.318647	0.632478
N25	N	0.215896	-1.101076	0.139499
N26	N	0.715896	-0.601076	0.639499
C27	C	0.000110	-0.443753	0.125160
C28	C	0.500110	0.056247	0.625160
C29	C	0.000100	-0.548061	0.127192
C30	C	0.500100	-0.048061	0.627192
C31	C	0.000092	-0.631197	0.128819
C32	C	0.500092	-0.131197	0.628819
C33	C	0.000083	-0.735511	0.130851
C34	C	0.500083	-0.235511	0.630851
C35	C	0.259502	-1.047385	0.085762
C36	C	0.759502	-0.547385	0.585762
C37	C	0.346690	-1.052032	0.090410
C38	C	0.846690	-0.552032	0.590410
C39	C	0.390268	-1.110376	0.148792
C40	C	0.890268	-0.610376	0.648792
C41	C	0.346656	-1.164068	0.202536
C42	C	0.846656	-0.664068	0.702536
C43	C	0.259470	-1.159416	0.197892
C44	C	0.759470	-0.659416	0.697892
C45	C	0.653512	-1.127221	0.165623
C46	C	1.153512	-0.627221	0.665623
C47	C	0.740703	-1.131872	0.170262
C48	C	1.240703	-0.631872	0.670262
C49	C	0.740731	-1.019834	0.058136
C50	C	1.240731	-0.519834	0.558136
C51	C	0.653544	-1.015191	0.053493
C52	C	1.153544	-0.515191	0.553493
C53	C	0.609939	-1.068880	0.107241
C54	C	1.109939	-0.568880	0.607241
C55	C	0.479388	-1.115129	0.153543
C56	C	0.979388	-0.615129	0.653543
C57	C	0.520821	-1.064121	0.102494
C58	C	1.020821	-0.564121	0.602494
N59	N	0.784310	-1.078181	0.116524
N60	N	1.284310	-0.578181	0.616524
C61	C	0.000111	-1.096084	-0.040585
C62	C	0.500111	-0.596084	0.459415
C63	C	0.000111	-1.094095	-0.142966
C64	C	0.500111	-0.594095	0.357034
C65	C	0.000116	-0.258227	0.121559
C66	C	0.500116	0.241773	0.621559
C67	C	0.000115	-0.360609	0.123547
C68	C	0.500115	0.139391	0.623547
C69	C	0.000089	-1.086775	-0.517863
C70	C	0.500089	-0.586775	-0.017863
C71	C	0.000096	-1.088808	-0.413555
C72	C	0.500096	-0.588808	0.086445
C73	C	0.000101	-1.090435	-0.330418
C74	C	0.500101	-0.590435	0.169582
C75	C	0.000106	-1.092468	-0.226103
C76	C	0.500106	-0.592468	0.273897
C77	C	0.000093	-1.083173	0.296610
C78	C	0.500093	-0.583173	0.796610
C79	C	0.000087	-1.085161	0.398991
C80	C	0.500087	-0.585161	0.898991
H81	H	0.382190	-1.008312	0.046650
H82	H	0.882190	-0.508312	0.546650
H83	H	0.223967	-1.203134	0.241654
H84	H	0.723967	-0.703134	0.741654
C85	C	0.373481	-1.201955	0.358541
C86	C	0.873481	-0.701955	0.858541
C87	C	0.394555	-1.228202	0.266711
C88	C	0.894555	-0.728202	0.766711
H89	H	0.403055	-1.241549	0.398158
H90	H	0.903055	-0.741549	0.898158
H91	H	0.315322	-1.206870	0.363461
H92	H	0.815322	-0.706870	0.863461
H93	H	0.387786	-1.139649	0.376286
H94	H	0.887786	-0.639649	0.876286
H95	H	0.380244	-1.290506	0.248964
H96	H	0.880244	-0.790506	0.748964
H97	H	0.452727	-1.223295	0.261788
H98	H	0.952727	-0.723295	0.761788
C99	C	0.662332	-0.904903	-0.056862
C100	C	1.162332	-0.404903	0.443138
C101	C	0.605645	-0.951052	-0.010677
C102	C	1.105645	-0.451052	0.489323
H103	H	0.632759	-0.865305	-0.096475
H104	H	1.132759	-0.365305	0.403525
H105	H	0.696332	-0.949096	-0.092746
H106	H	1.196332	-0.449096	0.407254
H107	H	0.696342	-0.868999	-0.012683
H108	H	1.196342	-0.368999	0.487317
H109	H	0.571639	-0.986963	-0.054856
H110	H	1.071639	-0.486963	0.445144
H111	H	0.571630	-0.906854	0.025209
H112	H	1.071630	-0.406854	0.525209
H113	H	0.776244	-0.976122	0.014380
H114	H	1.276244	-0.476122	0.514380
H115	H	0.485335	-1.016614	0.054964
H116	H	0.985335	-0.516614	0.554964
C117	C	0.555435	-1.246014	0.166455
C118	C	1.055435	-0.746014	0.666455
C119	C	0.605580	-1.186231	0.224699
C120	C	1.105580	-0.686231	0.724699
H121	H	0.525836	-1.282438	0.202931
H122	H	1.025836	-0.782438	0.702931
H123	H	0.589440	-1.285555	0.125920
H124	H	1.089440	-0.785555	0.625920
H125	H	0.517010	-1.210589	0.131023
H126	H	1.017010	-0.710589	0.631023
H127	H	0.644009	-1.221656	0.260126
H128	H	1.144009	-0.721656	0.760126
H129	H	0.571571	-1.146685	0.265250
H130	H	1.071571	-0.646685	0.765250
H131	H	0.224027	-0.999879	0.038218
H132	H	0.724027	-0.499879	0.538218
C133	C	0.731923	-1.242147	0.280640
C134	C	1.231923	-0.742147	0.780640
C135	C	0.788607	-1.196007	0.234442
C136	C	1.288607	-0.696007	0.734442
H137	H	0.761499	-1.281736	0.320260
H138	H	1.261499	-0.781736	0.820260
H139	H	0.697914	-1.278053	0.236476
H140	H	1.197914	-0.778053	0.736476
H141	H	0.697923	-1.197943	0.316526
H142	H	1.197923	-0.697943	0.816526
H143	H	0.822604	-1.240211	0.198549
H144	H	1.322604	-0.740211	0.698549
H145	H	0.822631	-1.160099	0.278611
H146	H	1.322631	-0.660099	0.778611
H147	H	0.514879	-1.162636	0.201075
H148	H	1.014879	-0.662636	0.701075
