data_functionalizedCrystal
_audit_creation_method	'MofGen! by Chris Wilmer'
_symmetry_space_group_name_H-M	'P1'
_symmetry_Int_Tables_number	1
_symmetry_cell_setting	triclinic
loop_
_symmetry_equiv_pos_as_xyz
  x,y,z
_cell_length_a	10.968094
_cell_length_b	10.967829
_cell_length_c	18.366186
_cell_angle_alpha	77.865925
_cell_angle_beta	102.118419
_cell_angle_gamma	87.247546
loop_
_atom_site_label
_atom_site_type_symbol
_atom_site_fract_x
_atom_site_fract_y
_atom_site_fract_z
O1	O	1.657106	0.174982	0.125399
O2	O	2.157106	0.674982	0.625399
O3	O	1.293975	0.191747	0.077736
O4	O	1.793975	0.691747	0.577736
O5	O	1.483911	0.001785	0.125404
O6	O	1.983911	0.501785	0.625404
O7	O	1.467170	0.364944	0.077731
O8	O	1.967170	0.864944	0.577731
O9	O	1.483878	0.001775	0.246501
O10	O	1.983878	0.501775	0.746501
O11	O	1.293942	0.191737	0.198832
O12	O	1.793942	0.691737	0.698832
O13	O	1.657073	0.174973	0.246496
O14	O	2.157073	0.674973	0.746496
Zn15	Zn	1.475502	0.183353	0.241891
Zn16	Zn	1.975502	0.683353	0.741891
Zn17	Zn	1.475545	0.183366	0.082341
Zn18	Zn	1.975545	0.683366	0.582341
O19	O	1.467137	0.364935	0.198827
O20	O	1.967137	0.864935	0.698827
C21	C	1.247462	0.190524	0.132603
C22	C	1.747462	0.690524	0.632603
C23	C	1.108915	0.186881	0.115677
C24	C	1.608915	0.686881	0.615677
C25	C	1.482674	-0.044721	0.191633
C26	C	1.982674	0.455279	0.691633
C27	C	1.479022	-0.183277	0.208558
C28	C	1.979022	0.316723	0.708558
C29	C	0.903929	0.181472	0.153367
C30	C	1.403929	0.681472	0.653367
C31	C	1.047122	0.185247	0.170866
C32	C	1.547122	0.685247	0.670866
C33	C	1.477411	-0.245039	0.153371
C34	C	1.977411	0.254961	0.653371
C35	C	1.473637	-0.388245	0.170862
C36	C	1.973637	0.111755	0.670862
C37	C	1.703586	0.176195	0.191627
C38	C	2.203586	0.676195	0.691627
C39	C	1.842132	0.179839	0.208548
C40	C	2.342132	0.679839	0.708548
C41	C	1.468374	0.411440	0.132597
C42	C	1.968374	0.911440	0.632597
C43	C	1.472026	0.549997	0.115667
C44	C	1.972026	1.049997	0.615667
N45	N	1.475482	0.183344	0.350781
N46	N	1.975482	0.683344	0.850781
N47	N	1.475575	0.183366	-0.026546
N48	N	1.975575	0.683366	0.473454
C49	C	1.559614	0.099271	0.409987
C50	C	2.059614	0.599271	0.909987
C51	C	1.559622	0.099265	0.486216
C52	C	2.059622	0.599265	0.986216
C53	C	1.475510	0.183354	0.503235
C54	C	1.975510	0.683354	1.003235
C55	C	1.391362	0.267434	0.444017
C56	C	1.891362	0.767434	0.944017
C57	C	1.391348	0.267429	0.367790
C58	C	1.891348	0.767429	0.867790
C59	C	1.460138	0.296870	0.607822
C60	C	1.960138	0.796870	1.107822
C61	C	1.460160	0.296877	0.684049
C62	C	1.960160	0.796877	1.184049
C63	C	1.475545	0.183371	0.738345
C64	C	1.975545	0.683371	1.238345
C65	C	1.490935	0.069852	0.716410
C66	C	1.990935	0.569852	1.216410
C67	C	1.490921	0.069847	0.640182
C68	C	1.990921	0.569847	1.140182
C69	C	1.475515	0.183369	0.585889
C70	C	1.975515	0.683369	1.085889
C71	C	1.559690	0.099284	0.880210
C72	C	2.059690	0.599284	1.380210
C73	C	1.559690	0.099277	0.956440
C74	C	2.059690	0.599277	1.456440
C75	C	1.391436	0.267457	0.914239
C76	C	1.891436	0.767457	1.414239
C77	C	1.391431	0.267453	0.838011
C78	C	1.891431	0.767453	1.338011
C79	C	1.475565	0.183368	0.821002
C80	C	1.975565	0.683368	1.321002
H81	H	0.850825	0.180069	0.093170
H82	H	1.350825	0.680069	0.593170
H83	H	1.503462	-0.022576	0.760618
H84	H	2.003462	0.477424	1.260618
C85	C	1.443220	0.421748	0.708169
C86	C	1.943220	0.921748	1.208169
N87	N	1.430452	0.515804	0.726334
N88	N	1.930452	1.015804	1.226334
H89	H	1.478820	-0.191896	0.093174
H90	H	1.978820	0.308104	0.593174
H91	H	1.472214	-0.441382	0.231062
H92	H	1.972214	0.058618	0.731062
C93	C	1.298833	0.359927	0.462740
C94	C	1.798833	0.859927	0.962740
N95	N	1.229133	0.429591	0.476841
N96	N	1.729133	0.929591	0.976841
C97	C	1.652152	0.006762	0.391282
C98	C	2.152152	0.506762	0.891282
N99	N	1.721848	-0.062920	0.377192
N100	N	2.221848	0.437080	0.877192
H101	H	1.473426	-0.396865	0.055464
H102	H	1.973426	0.103135	0.555464
C103	C	1.477107	-0.255064	0.289882
C104	C	1.977107	0.244936	0.789882
N105	N	1.475666	-0.309133	0.351138
N106	N	1.975666	0.190867	0.851138
C107	C	1.118851	0.187153	0.252194
C108	C	1.618851	0.687153	0.752194
N109	N	1.172878	0.188599	0.313448
N110	N	1.672878	0.688599	0.813448
H111	H	1.628134	0.030800	0.534431
H112	H	2.128134	0.530800	1.034431
C113	C	1.507832	-0.055020	0.616053
C114	C	2.007832	0.444980	1.116053
N115	N	1.520562	-0.149073	0.597879
N116	N	2.020562	0.350927	1.097879
H117	H	1.628194	0.030813	0.866361
H118	H	2.128194	0.530813	1.366361
C119	C	0.913866	0.181745	0.289872
C120	C	1.413866	0.681745	0.789872
N121	N	0.967892	0.183191	0.351125
N122	N	1.467892	0.683191	0.851125
H123	H	1.628196	0.030808	1.004649
H124	H	2.128196	0.530808	1.504649
H125	H	1.322946	0.335919	0.928095
H126	H	1.822946	0.835919	1.428095
H127	H	1.447587	0.389306	0.563615
H128	H	1.947587	0.889306	1.063615
C129	C	1.298847	0.359975	0.302659
C130	C	1.798847	0.859975	0.802659
N131	N	1.229195	0.429703	0.253601
N132	N	1.729195	0.929703	0.753601
H133	H	1.055817	0.185486	0.055475
H134	H	1.555817	0.685486	0.555475
C135	C	1.298969	0.360033	0.772880
C136	C	1.798969	0.860033	1.272880
N137	N	1.229350	0.429796	0.723823
N138	N	1.729350	0.929796	1.223823
