data_functionalizedCrystal
_audit_creation_method	'MofGen! by Chris Wilmer'
_symmetry_space_group_name_H-M	'P1'
_symmetry_Int_Tables_number	1
_symmetry_cell_setting	triclinic
loop_
_symmetry_equiv_pos_as_xyz
  x,y,z
_cell_length_a	19.805407
_cell_length_b	25.639239
_cell_length_c	19.805399
_cell_angle_alpha	89.971274
_cell_angle_beta	89.980427
_cell_angle_gamma	90.038686
loop_
_atom_site_label
_atom_site_type_symbol
_atom_site_fract_x
_atom_site_fract_y
_atom_site_fract_z
Zn1	Zn	1.034678	-0.208163	-0.382714
Zn2	Zn	1.368011	0.125170	-0.049381
Zn3	Zn	1.701345	0.458504	0.283952
Zn4	Zn	1.034569	-0.295597	-0.269524
Zn5	Zn	1.367902	0.037736	0.063810
Zn6	Zn	1.701235	0.371070	0.397143
Zn7	Zn	0.921493	-0.208177	-0.269539
Zn8	Zn	1.254826	0.125156	0.063795
Zn9	Zn	1.588159	0.458489	0.397128
Zn10	Zn	0.921432	-0.295569	-0.382670
Zn11	Zn	1.254765	0.037764	-0.049337
Zn12	Zn	1.588099	0.371098	0.283996
O13	O	0.978043	-0.251877	-0.326112
O14	O	1.311376	0.081457	0.007222
O15	O	1.644709	0.414790	0.340555
O16	O	1.129380	-0.219767	-0.367711
O17	O	1.462713	0.113567	-0.034378
O18	O	1.796047	0.446900	0.298955
O19	O	1.019548	-0.284018	-0.174809
O20	O	1.352882	0.049315	0.158524
O21	O	1.686215	0.382648	0.491858
O22	O	0.936578	-0.135010	-0.284576
O23	O	1.269911	0.198323	0.048757
O24	O	1.603245	0.531656	0.382090
O25	O	1.129300	-0.284004	-0.284551
O26	O	1.462633	0.049329	0.048783
O27	O	1.795966	0.382662	0.382116
O28	O	1.019735	-0.135000	-0.367726
O29	O	1.353068	0.198334	-0.034393
O30	O	1.686402	0.531667	0.298941
O31	O	0.936472	-0.219791	-0.174820
O32	O	1.269805	0.113542	0.158513
O33	O	1.603139	0.446875	0.491846
O34	O	0.826768	-0.219764	-0.284534
O35	O	1.160101	0.113569	0.048799
O36	O	1.493435	0.446902	0.382133
O37	O	0.936475	-0.283957	-0.477393
O38	O	1.269808	0.049376	-0.144060
O39	O	1.603141	0.382710	0.189274
O40	O	0.826723	-0.283971	-0.367651
O41	O	1.160057	0.049362	-0.034318
O42	O	1.493390	0.382696	0.299015
O43	O	1.019676	-0.219740	-0.477425
O44	O	1.353009	0.113593	-0.144092
O45	O	1.686343	0.446927	0.189242
O46	O	1.019489	-0.368758	-0.284508
O47	O	1.352823	-0.035425	0.048825
O48	O	1.686156	0.297908	0.382158
O49	O	0.936368	-0.368738	-0.367637
O50	O	1.269702	-0.035405	-0.034303
O51	O	1.603035	0.297929	0.299030
C52	C	0.802187	-0.251867	-0.326090
C53	C	1.135520	0.081467	0.007243
C54	C	1.468853	0.414800	0.340577
C55	C	0.726955	-0.251875	-0.326097
C56	C	1.060288	0.081458	0.007237
C57	C	1.393621	0.414792	0.340570
C58	C	0.691605	-0.285357	-0.369306
C59	C	1.024938	0.047976	-0.035972
C60	C	1.358272	0.381309	0.297361
C61	C	0.620917	-0.285358	-0.369315
C62	C	0.954250	0.047975	-0.035982
C63	C	1.287583	0.381308	0.297351
C64	C	0.585579	-0.251879	-0.326112
C65	C	0.918912	0.081454	0.007222
C66	C	1.252246	0.414788	0.340555
C67	C	0.620934	-0.218393	-0.282901
C68	C	0.954267	0.114941	0.050433
C69	C	1.287600	0.448274	0.383766
C70	C	0.691621	-0.218390	-0.282895
C71	C	1.024954	0.114944	0.050438
C72	C	1.358288	0.448277	0.383772
C73	C	0.335860	-0.218404	-0.282923
C74	C	0.669194	0.114929	0.050410
C75	C	1.002527	0.448262	0.383744
C76	C	0.265168	-0.218411	-0.282931
C77	C	0.598502	0.114922	0.050403
C78	C	0.931835	0.448256	0.383736
C79	C	0.265156	-0.285373	-0.369343
C80	C	0.598489	0.047960	-0.036010
C81	C	0.931823	0.381294	0.297323
C82	C	0.335843	-0.285370	-0.369338
C83	C	0.669177	0.047963	-0.036004
C84	C	1.002510	0.381297	0.297329
C85	C	0.371192	-0.251882	-0.326129
C86	C	0.704525	0.081451	0.007204
C87	C	1.037858	0.414785	0.340537
C88	C	0.447840	-0.251881	-0.326121
C89	C	0.781174	0.081453	0.007213
C90	C	1.114507	0.414786	0.340546
C91	C	0.508932	-0.251883	-0.326117
C92	C	0.842265	0.081451	0.007217
C93	C	1.175599	0.414784	0.340550
C94	C	0.977929	-0.387719	-0.326081
C95	C	1.311262	-0.054386	0.007253
C96	C	1.644596	0.278947	0.340586
C97	C	0.977942	-0.445833	-0.326090
C98	C	1.311275	-0.112500	0.007243
C99	C	1.644609	0.220833	0.340576
C100	C	1.021437	-0.806194	-0.282901
C101	C	1.354770	-0.472861	0.050433
C102	C	1.688103	-0.139528	0.383766
C103	C	1.021463	-0.860799	-0.282910
C104	C	1.354796	-0.527465	0.050424
C105	C	1.688130	-0.194132	0.383757
O106	O	1.058326	-0.889034	-0.246154
O107	O	1.391659	-0.555700	0.087179
O108	O	1.724992	-0.222367	0.420512
N109	N	0.978162	-0.888116	-0.326157
N110	N	1.311495	-0.554782	0.007177
N111	N	1.644828	-0.221449	0.340510
C112	C	0.934836	-0.860825	-0.369402
C113	C	1.268169	-0.527492	-0.036069
C114	C	1.601503	-0.194159	0.297264
O115	O	0.898008	-0.889075	-0.406189
O116	O	1.231341	-0.555741	-0.072855
O117	O	1.564675	-0.222408	0.260478
C118	C	0.934814	-0.806222	-0.369396
C119	C	1.268147	-0.472889	-0.036063
C120	C	1.601481	-0.139556	0.297271
C121	C	0.978113	-0.778908	-0.326141
C122	C	1.311446	-0.445575	0.007192
C123	C	1.644780	-0.112241	0.340525
C124	C	1.064733	-0.778880	-0.239650
C125	C	1.398066	-0.445547	0.093683
C126	C	1.731400	-0.112213	0.427017
C127	C	1.064706	-0.724279	-0.239640
C128	C	1.398039	-0.390946	0.093693
C129	C	1.731372	-0.057613	0.427026
C130	C	1.021382	-0.696993	-0.282881
C131	C	1.354716	-0.363660	0.050452
C132	C	1.688049	-0.030327	0.383786
C133	C	0.978086	-0.724307	-0.326132
C134	C	1.311419	-0.390974	0.007202
C135	C	1.644753	-0.057641	0.340535
C136	C	0.891492	-0.778933	-0.412645
C137	C	1.224826	-0.445600	-0.079311
C138	C	1.558159	-0.112266	0.254022
C139	C	0.891474	-0.724326	-0.412635
C140	C	1.224807	-0.390993	-0.079302
C141	C	1.558141	-0.057659	0.254031
C142	C	0.934773	-0.697012	-0.369381
C143	C	1.268107	-0.363679	-0.036047
C144	C	1.601440	-0.030345	0.297286
C145	C	0.934735	-0.642421	-0.369363
C146	C	1.268068	-0.309087	-0.036029
C147	C	1.601402	0.024246	0.297304
N148	N	0.978036	-0.615104	-0.326116
N149	N	1.311370	-0.281770	0.007218
N150	N	1.644703	0.051563	0.340551
C151	C	1.021360	-0.642390	-0.282875
C152	C	1.354693	-0.309057	0.050458
C153	C	1.688027	0.024277	0.383792
C154	C	0.934887	-0.975496	-0.369413
C155	C	1.268220	-0.642163	-0.036079
C156	C	1.601554	-0.308829	0.297254
C157	C	0.934906	-1.030098	-0.369416
C158	C	1.268239	-0.696765	-0.036083
C159	C	1.601572	-0.363432	0.297251
C160	C	1.021533	-1.030068	-0.282924
C161	C	1.354867	-0.696734	0.050409
C162	C	1.688200	-0.363401	0.383743
C163	C	1.021511	-0.975464	-0.282918
C164	C	1.354845	-0.642131	0.050415
C165	C	1.688178	-0.308798	0.383749
C166	C	0.978188	-0.948179	-0.326166
C167	C	1.311522	-0.614846	0.007168
C168	C	1.644855	-0.281512	0.340501
C169	C	1.021299	-0.527725	-0.282857
C170	C	1.354632	-0.194392	0.050476
C171	C	1.687966	0.138942	0.383809
C172	C	1.021266	-0.473119	-0.282849
C173	C	1.354599	-0.139786	0.050484
C174	C	1.687932	0.193547	0.383817
C175	C	0.934641	-0.473155	-0.369343
C176	C	1.267974	-0.139822	-0.036010
C177	C	1.601307	0.193512	0.297323
C178	C	0.934671	-0.527756	-0.369349
C179	C	1.268004	-0.194422	-0.036016
C180	C	1.601338	0.138911	0.297317
C181	C	0.978006	-0.555039	-0.326104
C182	C	1.311339	-0.221706	0.007230
C183	C	1.644672	0.111628	0.340563
O184	O	0.897893	-0.614151	-0.406101
O185	O	1.231226	-0.280818	-0.072768
O186	O	1.564560	0.052516	0.260565
O187	O	1.058188	-0.614134	-0.246101
O188	O	1.391522	-0.280801	0.087232
O189	O	1.724855	0.052533	0.420566
C190	C	1.154585	-0.251887	-0.326134
C191	C	1.487919	0.081446	0.007199
C192	C	1.821252	0.414780	0.340532
C193	C	1.229817	-0.251891	-0.326144
C194	C	1.563151	0.081442	0.007190
C195	C	1.896484	0.414775	0.340523
C196	C	0.978081	-0.251844	-0.502655
C197	C	1.311414	0.081490	-0.169321
C198	C	1.644747	0.414823	0.164012
C199	C	0.978097	-0.251830	-0.577887
C200	C	1.311430	0.081504	-0.244553
C201	C	1.644764	0.414837	0.088780
C202	C	0.978175	-0.115504	-0.326158
C203	C	1.311509	0.217830	0.007176
C204	C	1.644842	0.551163	0.340509
C205	C	0.978232	-0.057389	-0.326177
C206	C	1.311565	0.275944	0.007156
C207	C	1.644899	0.609277	0.340489
C208	C	1.021421	-0.218390	-0.613249
C209	C	1.354754	0.114943	-0.279915
C210	C	1.688087	0.448276	0.053418
C211	C	1.021428	-0.218375	-0.683937
C212	C	1.354761	0.114958	-0.350604
C213	C	1.688094	0.448292	-0.017270
C214	C	0.978114	-0.251802	-0.719262
C215	C	1.311447	0.081531	-0.385929
C216	C	1.644780	0.414864	-0.052596
C217	C	0.934785	-0.285243	-0.683895
C218	C	1.268118	0.048090	-0.350562
C219	C	1.601452	0.381423	-0.017229
C220	C	0.934775	-0.285255	-0.613208
C221	C	1.268108	0.048078	-0.279875
C222	C	1.601442	0.381411	0.053459
C223	C	0.934823	-0.285194	-0.968969
C224	C	1.268157	0.048139	-0.635635
C225	C	1.601490	0.381472	-0.302302
C226	C	0.934838	-0.285181	-1.039661
C227	C	1.268171	0.048152	-0.706328
C228	C	1.601504	0.381486	-0.372994
C229	C	1.021476	-0.218314	-1.039698
C230	C	1.354809	0.115019	-0.706364
C231	C	1.688143	0.448353	-0.373031
C232	C	1.021466	-0.218326	-0.969011
C233	C	1.354799	0.115007	-0.635677
C234	C	1.688133	0.448340	-0.302344
C235	C	0.978135	-0.251765	-0.933650
C236	C	1.311468	0.081568	-0.600316
C237	C	1.644802	0.414902	-0.266983
C238	C	0.978127	-0.251780	-0.857001
C239	C	1.311460	0.081553	-0.523668
C240	C	1.644794	0.414886	-0.190335
C241	C	0.978125	-0.251790	-0.795909
C242	C	1.311458	0.081543	-0.462576
C243	C	1.644791	0.414877	-0.129243
C244	C	0.978044	-0.251872	-0.150256
C245	C	1.311377	0.081462	0.183078
C246	C	1.644711	0.414795	0.516411
C247	C	0.978159	-0.251738	-0.075024
C248	C	1.311492	0.081595	0.258309
C249	C	1.644826	0.414928	0.591642
H250	H	0.364612	-0.312634	-0.404516
H251	H	0.697945	0.020699	-0.071183
H252	H	1.031278	0.354033	0.262151
H253	H	0.899603	-0.953283	-0.404628
H254	H	1.232936	-0.619950	-0.071295
H255	H	1.566270	-0.286616	0.262038
H256	H	1.056525	-0.450882	-0.247624
H257	H	1.389858	-0.117549	0.085710
H258	H	1.723192	0.215785	0.419043
Br259	Br	1.123482	-0.687219	-0.180944
Br260	Br	1.456816	-0.353885	0.152389
Br261	Br	1.790149	-0.020552	0.485723
H262	H	0.899489	-0.312480	-0.584417
H263	H	1.232823	0.020853	-0.251084
H264	H	1.566156	0.354187	0.082249
H265	H	1.056587	-0.549933	-0.247644
H266	H	1.389921	-0.216599	0.085689
H267	H	1.723254	0.116734	0.419022
Br268	Br	0.572944	-0.330800	-0.427961
Br269	Br	0.906278	0.002534	-0.094627
Br270	Br	1.239611	0.335867	0.238706
H271	H	1.056694	-0.191171	-0.584492
H272	H	1.390028	0.142162	-0.251159
H273	H	1.723361	0.475495	0.082175
Br274	Br	1.080276	-0.938401	-0.224213
Br275	Br	1.413609	-0.605068	0.109121
Br276	Br	1.746942	-0.271734	0.442454
Br277	Br	1.080328	-1.067110	-0.224236
Br278	Br	1.413661	-0.733776	0.109097
Br279	Br	1.746994	-0.400443	0.442430
H280	H	1.100016	-0.801091	-0.204438
H281	H	1.433349	-0.467757	0.128895
H282	H	1.766683	-0.134424	0.462229
Br283	Br	0.217180	-0.330823	-0.427983
Br284	Br	0.550513	0.002510	-0.094650
Br285	Br	0.883846	0.335843	0.238684
H286	H	0.236399	-0.191145	-0.247749
H287	H	0.569732	0.142188	0.085584
H288	H	0.903065	0.475522	0.418918
Br289	Br	0.739597	-0.172944	-0.224256
Br290	Br	1.072930	0.160389	0.109078
Br291	Br	1.406263	0.493722	0.442411
Br292	Br	1.080259	-0.173015	-0.731926
Br293	Br	1.413592	0.160318	-0.398593
Br294	Br	1.746925	0.493651	-0.065259
Br295	Br	0.383825	-0.172953	-0.224287
Br296	Br	0.717158	0.160380	0.109046
Br297	Br	1.050491	0.493713	0.442380
H298	H	0.720372	-0.312622	-0.404485
H299	H	1.053705	0.020711	-0.071152
H300	H	1.387038	0.354045	0.262182
Br301	Br	0.876130	-1.067161	-0.428111
Br302	Br	1.209463	-0.733828	-0.094778
Br303	Br	1.542797	-0.400494	0.238556
Br304	Br	0.876016	-0.330575	-0.920988
Br305	Br	1.209349	0.002759	-0.587655
Br306	Br	1.542682	0.336092	-0.254321
H307	H	0.592156	-0.191131	-0.247727
H308	H	0.925490	0.142202	0.085607
H309	H	1.258823	0.475536	0.418940
H310	H	0.899515	-0.312458	-0.712663
H311	H	1.232849	0.020875	-0.379329
H312	H	1.566182	0.354208	-0.045996
Br313	Br	0.832678	-0.687299	-0.471335
Br314	Br	1.166011	-0.353966	-0.138001
Br315	Br	1.499345	-0.020632	0.195332
H316	H	0.856230	-0.801163	-0.447864
H317	H	1.189563	-0.467830	-0.114531
H318	H	1.522897	-0.134496	0.218803
H319	H	1.056756	-0.191085	-1.068497
H320	H	1.390089	0.142249	-0.735164
H321	H	1.723422	0.475582	-0.401830
H322	H	0.899415	-0.549996	-0.404573
H323	H	1.232749	-0.216663	-0.071239
H324	H	1.566082	0.116671	0.262094
Br325	Br	0.876051	-0.330550	-1.087602
Br326	Br	1.209385	0.002783	-0.754269
Br327	Br	1.542718	0.336116	-0.420936
H328	H	1.056739	-0.191108	-0.940252
H329	H	1.390072	0.142225	-0.606919
H330	H	1.723406	0.475559	-0.273586
Br331	Br	0.875850	-0.436113	-0.428027
Br332	Br	1.209183	-0.102780	-0.094694
Br333	Br	1.542516	0.230554	0.238639
