data_functionalizedCrystal
_audit_creation_method	'MofGen! by Chris Wilmer'
_symmetry_space_group_name_H-M	'P1'
_symmetry_Int_Tables_number	1
_symmetry_cell_setting	triclinic
loop_
_symmetry_equiv_pos_as_xyz
  x,y,z
_cell_length_a	19.288864
_cell_length_b	17.038272
_cell_length_c	17.766277
_cell_angle_alpha	89.993732
_cell_angle_beta	89.976791
_cell_angle_gamma	87.123901
loop_
_atom_site_label
_atom_site_type_symbol
_atom_site_fract_x
_atom_site_fract_y
_atom_site_fract_z
O1	O	0.927386	0.097514	-0.062838
O2	O	1.427386	0.597514	0.437162
O3	O	0.725940	0.110668	-0.062787
O4	O	1.225940	0.610668	0.437213
O5	O	0.825466	-0.009720	-0.062806
O6	O	1.325466	0.490280	0.437194
O7	O	0.827860	0.217903	-0.062819
O8	O	1.327860	0.717903	0.437181
O9	O	0.825447	-0.009726	0.062382
O10	O	1.325447	0.490274	0.562382
O11	O	0.725920	0.110662	0.062402
O12	O	1.225920	0.610662	0.562402
O13	O	0.927367	0.097508	0.062351
O14	O	1.427367	0.597508	0.562351
Cu15	Cu	0.826642	0.104085	0.073807
Cu16	Cu	1.326642	0.604085	0.573807
Cu17	Cu	0.826665	0.104092	-0.074243
Cu18	Cu	1.326665	0.604092	0.425757
O19	O	0.827841	0.217897	0.062370
O20	O	1.327841	0.717897	0.562370
C21	C	0.700027	0.110242	-0.000186
C22	C	1.200027	0.610242	0.499814
C23	C	0.622845	0.108972	-0.000166
C24	C	1.122845	0.608972	0.499834
C25	C	0.582519	0.179610	-0.000182
C26	C	1.082519	0.679610	0.499818
C27	C	0.509998	0.178417	-0.000190
C28	C	1.009998	0.678417	0.499810
C29	C	0.477806	0.106580	-0.000198
C30	C	0.977806	0.606580	0.499802
C31	C	0.518141	0.035932	-0.000178
C32	C	1.018141	0.535932	0.499822
C33	C	0.590661	0.037128	-0.000162
C34	C	1.090661	0.537128	0.499838
C35	C	0.366057	0.050111	-0.044079
C36	C	0.866057	0.550111	0.455921
C37	C	0.293539	0.048918	-0.044100
C38	C	0.793539	0.548918	0.455900
C39	C	0.254132	0.102889	-0.000243
C40	C	0.754132	0.602889	0.499757
C41	C	0.287252	0.158066	0.043624
C42	C	0.787252	0.658066	0.543624
C43	C	0.359772	0.159262	0.043640
C44	C	0.859772	0.659262	0.543640
C45	C	0.399172	0.105276	-0.000214
C46	C	0.899172	0.605276	0.499786
C47	C	0.135171	0.172238	-0.000267
C48	C	0.635171	0.672238	0.499733
C49	C	0.062649	0.171042	-0.000270
C50	C	0.562649	0.671042	0.499730
C51	C	0.070793	0.028556	-0.000266
C52	C	0.570793	0.528556	0.499734
C53	C	0.143314	0.029754	-0.000254
C54	C	0.643314	0.529754	0.499746
C55	C	0.175498	0.101598	-0.000259
C56	C	0.675498	0.601598	0.499741
C57	C	0.823278	-0.038845	-0.000211
C58	C	1.323278	0.461155	0.499789
C59	C	0.816781	-0.125616	-0.000210
C60	C	1.316781	0.374384	0.499790
C61	C	0.876437	-0.175923	-0.000224
C62	C	1.376437	0.324077	0.499776
C63	C	0.870327	-0.257454	-0.000230
C64	C	1.370327	0.242546	0.499770
C65	C	0.804561	-0.288677	-0.000216
C66	C	1.304561	0.211323	0.499784
C67	C	0.744901	-0.238363	-0.000204
C68	C	1.244901	0.261637	0.499796
C69	C	0.751011	-0.156834	-0.000203
C70	C	1.251011	0.343166	0.499797
C71	C	0.782976	-0.534365	-0.000221
C72	C	1.282976	-0.034365	0.499779
C73	C	0.776870	-0.615900	-0.000219
C74	C	1.276870	-0.115900	0.499781
C75	C	0.902297	-0.634985	-0.000246
C76	C	1.402297	-0.134985	0.499754
C77	C	0.908402	-0.553454	-0.000241
C78	C	1.408402	-0.053454	0.499759
C79	C	0.848741	-0.503148	-0.000233
C80	C	1.348741	-0.003148	0.499767
C81	C	0.798315	-0.372014	-0.000219
C82	C	1.298315	0.127986	0.499781
C83	C	0.854988	-0.419812	-0.000235
C84	C	1.354988	0.080188	0.499765
C85	C	0.953279	0.097934	-0.000252
C86	C	1.453279	0.597934	0.499748
C87	C	1.030462	0.099205	-0.000277
C88	C	1.530462	0.599205	0.499723
C89	C	0.830029	0.247021	-0.000227
C90	C	1.330029	0.747021	0.499773
C91	C	0.836526	0.333793	-0.000233
C92	C	1.336526	0.833793	0.499767
N93	N	0.826631	0.104079	0.177937
N94	N	1.326631	0.604079	0.677937
N95	N	0.826681	0.104091	-0.178373
N96	N	1.326681	0.604091	0.321627
C97	C	0.870718	0.050797	0.217315
C98	C	1.370718	0.550797	0.717315
C99	C	0.870722	0.050793	0.296117
C100	C	1.370722	0.550793	0.796117
C101	C	0.826646	0.104085	0.335538
C102	C	1.326646	0.604085	0.835538
C103	C	0.782551	0.157371	0.296150
C104	C	1.282551	0.657371	0.796150
C105	C	0.782543	0.157368	0.217350
C106	C	1.282543	0.657368	0.717350
C107	C	0.821754	0.175309	0.460373
C108	C	1.321754	0.675309	0.960373
C109	C	0.821767	0.175313	0.539172
C110	C	1.321767	0.675313	1.039172
C111	C	0.826665	0.104095	0.578584
C112	C	1.326665	0.604095	1.078584
C113	C	0.831566	0.032869	0.539188
C114	C	1.331566	0.532869	1.039188
C115	C	0.831559	0.032866	0.460387
C116	C	1.331559	0.532866	0.960387
C117	C	0.826649	0.104094	0.420983
C118	C	1.326649	0.604094	0.920983
C119	C	0.870759	0.050804	0.703408
C120	C	1.370759	0.550804	1.203408
C121	C	0.870758	0.050800	0.782212
C122	C	1.370758	0.550800	1.282212
C123	C	0.782590	0.157384	0.782243
C124	C	1.282590	0.657384	1.282243
C125	C	0.782587	0.157382	0.703441
C126	C	1.282587	0.657382	1.203441
C127	C	0.826676	0.104093	0.664028
C128	C	1.326676	0.604093	1.164028
H129	H	0.029816	0.228567	-0.000279
H130	H	0.529816	0.728567	0.499721
F131	F	0.978399	-0.520231	-0.000276
F132	F	1.478399	-0.020231	0.499724
F133	F	0.816591	0.251116	0.418436
F134	F	1.316591	0.751116	0.918436
H135	H	0.906616	0.007404	0.185228
H136	H	1.406616	0.507404	0.685228
F137	F	0.735618	0.214081	0.175438
F138	F	1.235618	0.714081	0.675438
F139	F	0.616768	0.256073	-0.000184
F140	F	1.116768	0.756073	0.499816
F141	F	0.467072	0.253603	-0.000205
F142	F	0.967072	0.753603	0.499795
H143	H	0.950869	-0.675953	-0.000254
H144	H	1.450869	-0.175953	0.499746
F145	F	0.917678	-0.005914	0.661462
F146	F	1.417678	0.494086	1.161462
F147	F	0.186233	-0.045430	-0.000242
F148	F	0.686233	0.454570	0.499758
H149	H	0.906624	0.007403	0.328185
H150	H	1.406624	0.507403	0.828185
H151	H	0.044583	-0.029935	-0.000318
H152	H	0.544583	0.470065	0.499682
H153	H	0.835548	-0.025128	0.428314
H154	H	1.335548	0.474872	0.928314
H155	H	0.398136	0.006160	-0.079797
H156	H	0.898136	0.506160	0.420203
H157	H	0.702432	-0.115875	-0.000192
H158	H	1.202432	0.384125	0.499808
H159	H	0.746691	0.200773	0.671377
H160	H	1.246691	0.700773	1.171377
H161	H	0.491926	-0.022557	-0.000194
H162	H	0.991926	0.477443	0.499806
H163	H	0.744768	-0.397444	-0.000206
H164	H	1.244768	0.102556	0.499794
H165	H	0.623494	-0.020396	-0.000150
H166	H	1.123494	0.479604	0.499850
F167	F	0.258296	-0.009799	-0.090793
F168	F	0.758296	0.490201	0.409207
F169	F	0.816555	0.251117	0.581093
F170	F	1.316555	0.751117	1.081093
H171	H	0.835555	-0.025124	0.571275
H172	H	1.335555	0.474876	1.071275
H173	H	0.723313	-0.641318	-0.000195
H174	H	1.223313	-0.141318	0.499805
F175	F	0.735639	0.214086	0.338104
F176	F	1.235639	0.714086	0.838104
F177	F	0.924979	-0.386581	-0.000255
F178	F	1.424979	0.113419	0.499745
F179	F	0.946434	-0.142702	-0.000232
F180	F	1.446434	0.357298	0.499768
F181	F	0.933822	-0.310991	-0.000244
F182	F	1.433822	0.189009	0.499756
F183	F	0.169426	0.248700	-0.000265
F184	F	0.669426	0.748700	0.499735
F185	F	0.917679	-0.005917	0.824123
F186	F	1.417679	0.494083	1.324123
H187	H	0.734396	-0.493415	-0.000214
H188	H	1.234396	0.006585	0.499786
H189	H	0.746700	0.200773	0.814338
H190	H	1.246700	0.700773	1.314338
H191	H	0.691353	-0.263791	-0.000197
H192	H	1.191353	0.236209	0.499803
H193	H	0.255169	0.202014	0.079337
H194	H	0.755169	0.702014	0.579337
F195	F	0.395018	0.217981	0.090327
F196	F	0.895018	0.717981	0.590327
