data_functionalizedCrystal
_audit_creation_method	'MofGen! by Chris Wilmer'
_symmetry_space_group_name_H-M	'P1'
_symmetry_Int_Tables_number	1
_symmetry_cell_setting	triclinic
loop_
_symmetry_equiv_pos_as_xyz
  x,y,z
_cell_length_a	10.654550
_cell_length_b	10.654550
_cell_length_c	9.730223
_cell_angle_alpha	89.995747
_cell_angle_beta	89.999957
_cell_angle_gamma	84.484931
loop_
_atom_site_label
_atom_site_type_symbol
_atom_site_fract_x
_atom_site_fract_y
_atom_site_fract_z
O1	O	1.667839	0.176399	-0.114187
O2	O	1.302361	0.193205	-0.114212
O3	O	1.493503	0.002062	-0.114190
O4	O	1.476697	0.367541	-0.114209
O5	O	1.493490	0.002057	0.114390
O6	O	1.302348	0.193199	0.114368
O7	O	1.667827	0.176393	0.114393
Zn8	Zn	1.485085	0.184796	0.150672
Zn9	Zn	1.485102	0.184802	-0.150492
O10	O	1.476684	0.367536	0.114371
C11	C	1.255556	0.191968	0.000075
C12	C	1.116113	0.188276	0.000065
C13	C	1.036628	0.300818	0.000064
C14	C	0.905607	0.297341	0.000088
C15	C	0.933570	0.068772	0.000109
C16	C	1.064588	0.072250	0.000095
C17	C	1.492263	-0.044738	0.000099
C18	C	1.488571	-0.184181	0.000096
C19	C	1.601112	-0.263667	0.000104
C20	C	1.597636	-0.394688	0.000087
C21	C	1.369066	-0.366725	0.000061
C22	C	1.372544	-0.235706	0.000068
C23	C	1.714631	0.177630	0.000103
C24	C	1.854074	0.181322	0.000104
C25	C	1.477925	0.414336	0.000079
C26	C	1.481617	0.553779	0.000072
N27	N	1.485083	0.184790	0.356209
N28	N	1.485114	0.184798	-0.356028
C29	C	1.569750	0.100188	0.428144
C30	C	1.569763	0.100189	0.572027
C31	C	1.400438	0.269404	0.572026
C32	C	1.400420	0.269396	0.428146
H33	H	1.129309	-0.019401	0.000100
H34	H	0.840894	0.388984	0.000089
O35	O	1.256334	-0.416722	-0.000200
C36	C	1.187656	-0.376167	-0.118573
H37	H	1.255486	-0.348321	-0.201308
H38	H	1.133535	-0.455986	-0.158318
H39	H	1.118411	-0.291402	-0.091812
O40	O	1.263248	-0.158434	-0.000182
C41	C	1.258452	-0.081781	-0.118548
H42	H	1.322263	-0.129195	-0.201283
H43	H	1.157419	-0.067921	-0.158299
H44	H	1.291792	0.013755	-0.091777
O45	O	1.707044	-0.471770	-0.000085
C46	C	1.777416	-0.448262	-0.118472
H47	H	1.747445	-0.349154	-0.157935
H48	H	1.882080	-0.456568	-0.091832
H49	H	1.759629	-0.520052	-0.201379
O50	O	1.318082	0.351635	0.641696
C51	C	1.243366	0.426323	0.547345
H52	H	1.241495	0.374812	0.444790
H53	H	1.143242	0.444545	0.588928
H54	H	1.284942	0.520005	0.532023
O55	O	1.318345	0.351643	0.358110
C56	C	1.386264	0.429766	0.274887
H57	H	1.484101	0.380657	0.253328
H58	H	1.334008	0.449140	0.173713
H59	H	1.395605	0.522672	0.330320
H60	H	1.638687	0.031295	0.369576
O61	O	1.086888	0.413413	-0.000018
C62	C	1.219574	0.392356	0.000000
H63	H	1.249481	0.294615	-0.043269
H64	H	1.260429	0.466666	-0.066375
H65	H	1.256103	0.398762	0.109656
O66	O	1.652132	0.017963	0.641692
C67	C	1.726825	-0.056732	0.547339
H68	H	1.728675	-0.005226	0.444771
H69	H	1.826958	-0.074954	0.588899
H70	H	1.685244	-0.150413	0.532052
O71	O	1.713785	-0.213556	0.000359
C72	C	1.722624	-0.138593	0.118729
H73	H	1.656721	-0.170148	0.201469
H74	H	1.823740	-0.149481	0.158469
H75	H	1.694562	-0.035537	0.091967
H76	H	0.891602	-0.025693	0.000142
