data_functionalizedCrystal
_audit_creation_method	'MofGen! by Chris Wilmer'
_symmetry_space_group_name_H-M	'P1'
_symmetry_Int_Tables_number	1
_symmetry_cell_setting	triclinic
loop_
_symmetry_equiv_pos_as_xyz
  x,y,z
_cell_length_a	19.851628
_cell_length_b	14.446369
_cell_length_c	14.446369
_cell_angle_alpha	60.000250
_cell_angle_beta	90.005090
_cell_angle_gamma	59.999397
loop_
_atom_site_label
_atom_site_type_symbol
_atom_site_fract_x
_atom_site_fract_y
_atom_site_fract_z
Zr1	Zr	0.648984	1.013130	-0.121411
O2	O	0.541418	1.206259	-0.269240
O3	O	0.681958	0.820008	-0.076088
O4	O	0.681959	1.013117	-0.269207
O5	O	0.541417	1.013159	0.076208
O6	O	0.792821	1.013099	-0.269189
O7	O	0.541417	1.013150	-0.076120
O8	O	0.792818	0.667663	0.076266
O9	O	0.541419	1.358594	-0.269247
O10	O	0.778756	0.899426	-0.056752
O11	O	0.696021	0.899446	0.056916
O12	O	0.696023	1.126806	-0.170457
O13	O	0.613288	1.126826	-0.056790
Zr14	Zr	0.825795	1.013115	0.121565
Zr15	Zr	0.825796	1.013102	-0.121382
Zr16	Zr	0.648984	1.013144	0.121535
Zr17	Zr	0.648985	1.256088	-0.121423
Zr18	Zr	0.825794	0.770157	0.121576
O19	O	0.792822	1.206237	0.076241
O20	O	0.792822	1.206218	-0.269198
O21	O	0.541418	1.206278	0.076199
O22	O	0.933361	0.819987	0.269393
O23	O	0.933361	0.819968	-0.076046
O24	O	0.681957	0.820027	0.269351
O25	O	0.933362	1.013087	-0.076055
O26	O	0.792820	1.013129	0.269361
O27	O	0.681958	1.013146	0.269342
O28	O	0.933362	1.013095	0.076274
O29	O	0.681961	1.358572	-0.269223
O30	O	0.792818	0.667674	0.269376
O31	O	0.933360	0.667651	0.269400
O32	O	0.933360	0.667640	0.076290
O33	O	0.541419	1.358605	-0.076136
O34	O	0.681961	1.358582	-0.076113
O35	O	0.778756	0.899439	0.170611
O36	O	0.861491	0.899419	0.056943
O37	O	0.778758	1.126799	-0.056762
O38	O	0.696023	1.126819	0.056905
C39	C	0.737388	0.709219	0.000091
C40	C	0.737387	0.606077	0.000095
C41	C	0.685456	0.459080	0.072114
C42	C	0.685174	0.566700	0.071823
C43	C	0.699322	0.655073	-0.123446
C44	C	0.698931	0.547840	-0.123072
C45	C	0.827420	0.372608	0.050555
C46	C	0.827288	0.478759	0.053076
C47	C	0.516225	1.013158	0.000040
C48	C	0.441164	1.013171	0.000027
C49	C	0.214709	1.137119	-0.061932
C50	C	0.192347	1.075142	-0.106847
C51	C	0.303757	1.013137	0.000060
C52	C	0.192378	1.075121	0.044954
C53	C	0.171025	1.013113	0.000091
C54	C	0.282384	0.951159	-0.044918
C55	C	0.282412	0.951156	0.106942
C56	C	0.260104	0.889089	0.062054
C57	C	0.380219	1.013154	0.000039
C58	C	0.094568	1.013086	0.000109
C59	C	0.958554	1.013087	0.000114
C60	C	1.033615	1.013075	0.000126
C61	C	0.737390	1.013106	-0.303813
C62	C	0.737390	1.013100	-0.406950
C63	C	0.737392	1.317026	0.000063
C64	C	0.737392	1.420168	0.000058
C65	C	0.789830	0.869707	-0.481917
C66	C	0.789603	0.869610	-0.374589
C67	C	0.647493	1.084343	-0.481528
C68	C	0.647780	1.083432	-0.588387
C69	C	0.774121	1.086365	-0.589939
C70	C	0.775940	1.083662	-0.481267
C71	C	0.737389	1.013139	0.303966
C72	C	0.737389	1.013145	0.407103
C73	C	0.958552	0.709184	0.000128
C74	C	1.033613	0.606030	0.000145
C75	C	0.737387	0.709236	0.303980
C76	C	0.737387	0.606100	0.407122
C77	C	0.958552	0.709200	0.304017
C78	C	1.033612	0.606052	0.407171
C79	C	0.516227	1.317045	-0.303864
C80	C	0.441167	1.420194	-0.407018
C81	C	0.516227	1.317062	0.000026
C82	C	0.441166	1.420216	0.000009
C83	C	0.737392	1.317009	-0.303827
C84	C	0.737393	1.420146	-0.406969
C85	C	1.025675	0.557591	-0.059205
C86	C	1.096196	0.460680	-0.059211
C87	C	1.174653	0.412203	0.000139
C88	C	1.182589	0.460651	0.059491
C89	C	1.112069	0.557567	0.059490
C90	C	1.112056	0.557602	0.396281
C91	C	1.182590	0.460697	0.493196
C92	C	1.174679	0.412236	0.601001
C93	C	1.096227	0.460696	0.611890
C94	C	1.025695	0.557606	0.514975
C95	C	0.362723	1.468655	-0.396127
C96	C	0.292189	1.565591	-0.493043
C97	C	0.300101	1.614056	-0.600848
C98	C	0.378552	1.565591	-0.611736
C99	C	0.449085	1.468663	-0.514822
C100	C	0.449104	1.468665	0.059348
C101	C	0.378583	1.565602	0.059328
C102	C	0.300126	1.614083	-0.000026
C103	C	0.292190	1.565630	-0.059373
C104	C	0.362710	1.468701	-0.059359
C105	C	0.684953	0.459794	0.482102
C106	C	0.685175	0.566714	0.374769
C107	C	0.827285	0.479232	0.481696
C108	C	0.827003	0.371857	0.588560
C109	C	0.700663	0.546851	0.590117
C110	C	0.698839	0.655321	0.481440
H111	H	0.618767	0.655510	0.036814
N112	N	0.140989	1.144545	0.095249
H113	H	0.084291	1.221431	0.037437
H114	H	0.168516	1.176733	0.117394
N115	N	0.354143	1.416450	-0.123364
H116	H	0.293738	1.461875	-0.160960
H117	H	0.381514	1.319166	-0.068869
H118	H	0.606724	1.189847	-0.508770
H119	H	0.228318	1.605035	-0.484155
N120	N	0.941086	0.609852	0.526721
H121	H	0.934477	0.650059	0.569531
H122	H	0.934548	0.535839	0.569508
H123	H	0.961798	0.597060	-0.107549
N124	N	0.877286	0.795573	-0.302670
H125	H	0.916434	0.762704	-0.340564
H126	H	0.889866	0.718847	-0.225575
H127	H	0.710194	0.370123	0.481075
H128	H	0.606581	1.188671	-0.666978
H129	H	1.246478	0.421167	0.107811
H130	H	0.856898	0.440667	0.430096
H131	H	0.618976	0.656073	0.320486
N132	N	0.608257	1.018827	-0.413190
H133	H	0.648563	0.943014	-0.333939
H134	H	0.592939	0.985592	-0.450578
N135	N	0.723782	1.226329	-0.693558
H136	H	0.699997	1.287586	-0.669347
H137	H	0.677450	1.242176	-0.742164
H138	H	0.618584	0.497044	0.479755
H139	H	0.632683	0.588547	-0.163496
H140	H	0.512955	1.429207	-0.523703
N141	N	0.612404	0.777348	-0.177377
H142	H	0.613147	0.848198	-0.180401
H143	H	0.577433	0.757548	-0.130977
N144	N	1.250710	0.307674	0.000133
H145	H	1.233769	0.284350	-0.046472
H146	H	1.284627	0.227318	0.080539
N147	N	0.387080	1.617858	-0.728014
H148	H	0.418234	1.658066	-0.737108
H149	H	0.330464	1.686556	-0.787676
N150	N	0.190290	1.275968	-0.131461
H151	H	0.156033	1.323301	-0.098387
H152	H	0.156991	1.322531	-0.212179
N153	N	0.140944	1.144533	-0.226558
H154	H	0.123177	1.238189	-0.273340
H155	H	0.090571	1.143167	-0.225499
H156	H	1.232117	0.333325	0.679906
N157	N	0.354183	1.416400	-0.279857
H158	H	0.381511	1.319118	-0.236994
H159	H	0.293768	1.461916	-0.287771
N160	N	0.333621	0.881812	-0.095353
H161	H	0.350907	0.788415	-0.048913
H162	H	0.384287	0.882381	-0.095089
H163	H	0.278709	0.784171	0.114479
N164	N	0.598012	0.506454	0.026141
H165	H	0.565071	0.531255	0.072900
H166	H	0.598417	0.434415	0.029988
H167	H	0.321220	0.898805	0.197300
N168	N	0.718994	0.518087	0.192319
H169	H	0.734220	0.426394	0.246104
H170	H	0.675747	0.577894	0.209610
N171	N	0.756407	0.795497	-0.480546
H172	H	0.707443	0.854389	-0.551501
H173	H	0.738707	0.765742	-0.411743
H174	H	1.246462	0.421251	0.484310
H175	H	1.089718	0.421245	-0.107542
N176	N	0.614303	0.599285	0.595562
H177	H	0.598116	0.541458	0.600006
H178	H	0.574635	0.691259	0.525368
H179	H	0.242662	1.692980	-0.679752
H180	H	1.118544	0.596993	0.107826
N181	N	0.533721	1.416398	0.123355
H182	H	0.564913	1.319115	0.183089
H183	H	0.527969	1.461908	0.160860
N184	N	0.745799	0.518720	-0.198048
H185	H	0.766617	0.575539	-0.231200
H186	H	0.708003	0.537602	-0.261377
N187	N	0.387153	1.617848	0.123342
H188	H	0.447558	1.572412	0.160951
H189	H	0.359771	1.600998	0.182994
H190	H	0.856199	0.813403	-0.479565
H191	H	0.242711	1.693009	-0.000029
N192	N	0.860483	1.025565	-0.595378
H193	H	0.876672	0.949934	-0.599817
H194	H	0.900148	0.992839	-0.525184
N195	N	0.865927	0.251637	0.588216
H196	H	0.915998	0.175286	0.658576
H197	H	0.883063	0.268856	0.518739
H198	H	0.764127	0.813366	-0.320804
N199	N	0.864952	0.426343	0.173621
H200	H	0.879792	0.334798	0.226718
H201	H	0.823916	0.484913	0.193706
H202	H	0.618374	1.032818	-0.588120
H203	H	0.842173	1.031707	-0.429836
N204	N	0.207566	1.617904	-0.123366
H205	H	0.164104	1.686646	-0.114352
H206	H	0.201041	1.543883	-0.092182
H207	H	0.710655	0.529241	0.320989
N208	N	1.120601	0.609847	0.280013
H209	H	1.181002	0.564439	0.287837
H210	H	1.093217	0.707135	0.237204
N211	N	0.730603	1.222325	-0.515077
H212	H	0.670900	1.273386	-0.560395
H213	H	0.756788	1.265034	-0.562654
H214	H	0.869244	0.500251	0.006054
N215	N	1.087704	0.408403	0.728170
H216	H	1.027308	0.453792	0.720376
H217	H	1.115088	0.425263	0.770966
N218	N	0.611099	0.775168	0.413336
H219	H	0.596375	0.797502	0.334666
H220	H	0.605696	0.851168	0.407964
H221	H	0.735333	0.683849	-0.179455
H222	H	0.868201	0.341898	0.667148
H223	H	0.868054	0.501474	0.508933
N224	N	0.744172	0.697871	0.515261
H225	H	0.790549	0.685785	0.482745
H226	H	0.767570	0.643133	0.600656
H227	H	0.710854	0.370213	0.163311
N228	N	0.869532	0.248470	0.169225
H229	H	0.837132	0.265097	0.219547
H230	H	0.927194	0.219753	0.199906
N231	N	0.751014	0.514016	0.693729
H232	H	0.727131	0.595755	0.691363
H233	H	0.809914	0.477697	0.694949
H234	H	0.866298	0.346624	-0.001677
