data_functionalizedCrystal
_audit_creation_method	'MofGen! by Chris Wilmer'
_symmetry_space_group_name_H-M	'P1'
_symmetry_Int_Tables_number	1
_symmetry_cell_setting	triclinic
loop_
_symmetry_equiv_pos_as_xyz
  x,y,z
_cell_length_a	13.339070
_cell_length_b	15.186229
_cell_length_c	16.109301
_cell_angle_alpha	89.998295
_cell_angle_beta	99.545387
_cell_angle_gamma	89.992946
loop_
_atom_site_label
_atom_site_type_symbol
_atom_site_fract_x
_atom_site_fract_y
_atom_site_fract_z
O1	O	1.342148	-0.073272	0.416770
O2	O	1.047639	-0.073265	0.362066
O3	O	1.202984	-0.073259	0.270255
O4	O	1.186803	-0.073277	0.508581
O5	O	1.202965	0.073198	0.270258
O6	O	1.047620	0.073192	0.362069
O7	O	1.342129	0.073186	0.416773
Zn8	Zn	1.194872	0.096442	0.389421
Zn9	Zn	1.194896	-0.096521	0.389417
O10	O	1.186784	0.073180	0.508584
C11	C	1.009943	-0.000035	0.352827
C12	C	0.897651	-0.000032	0.325282
C13	C	1.202319	-0.000030	0.239130
C14	C	1.200354	-0.000029	0.146381
N15	N	1.194863	0.228135	0.389425
C16	C	0.532787	-0.000062	0.539450
C17	C	0.638291	-0.000068	0.565332
C18	C	0.703136	-0.000059	0.505322
C19	C	0.662467	-0.000045	0.419426
C20	C	0.556952	-0.000046	0.393541
C21	C	0.727301	-0.000042	0.359413
C22	C	0.686632	-0.000028	0.273517
C23	C	0.581127	-0.000029	0.247637
C24	C	0.516283	-0.000038	0.307647
C25	C	0.832816	-0.000041	0.385297
C26	C	0.856981	-0.000025	0.239388
C27	C	0.751477	-0.000019	0.213506
C28	C	1.379825	-0.000046	0.426012
C29	C	1.492117	-0.000054	0.453556
N30	N	1.194913	-0.228214	0.389409
C31	C	1.256212	0.453852	0.454019
C32	C	1.256223	0.546042	0.454016
C33	C	1.133562	0.546062	0.324808
C34	C	1.133557	0.453874	0.324809
C35	C	1.194880	0.407772	0.389419
C36	C	1.194896	0.592149	0.389415
C37	C	1.194907	0.692105	0.389411
C38	C	1.194870	0.307809	0.389423
C39	C	1.287963	-0.000045	-0.055662
C40	C	1.286109	-0.000052	-0.142810
C41	C	1.101798	-0.000045	-0.165494
C42	C	1.103653	-0.000044	-0.078347
C43	C	1.196739	-0.000039	-0.023433
C44	C	1.193029	-0.000048	-0.197729
C45	C	1.191018	-0.000055	-0.292219
C46	C	1.198750	-0.000033	0.071064
C47	C	1.187449	-0.000051	0.539708
C48	C	1.189414	-0.000058	0.632457
H49	H	0.789042	-0.000065	0.526400
N50	N	0.537255	-0.000021	0.154995
H51	H	0.560910	-0.054308	0.127601
H52	H	0.560900	0.054312	0.127677
N53	N	1.005256	-0.000044	-0.043579
H54	H	0.946005	-0.000041	-0.091589
H55	H	1.002008	0.054249	-0.007916
H56	H	1.306146	0.416319	0.506628
H57	H	1.083612	0.416354	0.272200
N58	N	1.067408	0.595783	0.255131
H59	H	1.087380	0.579739	0.199255
H60	H	1.076738	0.661161	0.265007
H61	H	0.671396	-0.000086	0.635268
N62	N	0.926903	-0.000005	0.174651
H63	H	0.913838	-0.054293	0.138250
H64	H	0.999885	0.000033	0.204140
N65	N	0.876666	-0.000058	0.477937
H66	H	0.853009	0.054230	0.505328
H67	H	0.953337	-0.000091	0.485165
H68	H	1.306167	0.583557	0.506619
H69	H	1.360393	-0.000059	-0.169046
N70	N	0.462852	-0.000083	0.604169
H71	H	0.389843	-0.000085	0.574736
H72	H	0.476000	0.054206	0.640555
N73	N	1.001402	-0.000045	-0.224723
H74	H	1.014067	-0.000044	-0.284822
H75	H	0.961481	0.054251	-0.214443
N76	N	1.388360	-0.000042	0.003566
H77	H	1.428330	-0.054336	-0.006636
H78	H	1.375610	-0.000003	0.063639
N79	N	0.402486	-0.000011	0.279729
H80	H	0.367583	-0.000008	0.330781
H81	H	0.381891	-0.054297	0.244830
H82	H	0.718348	-0.000015	0.143568
