data_functionalizedCrystal
_audit_creation_method	'MofGen! by Chris Wilmer'
_symmetry_space_group_name_H-M	'P1'
_symmetry_Int_Tables_number	1
_symmetry_cell_setting	triclinic
loop_
_symmetry_equiv_pos_as_xyz
  x,y,z
_cell_length_a	17.640112
_cell_length_b	25.639239
_cell_length_c	17.638773
_cell_angle_alpha	101.190494
_cell_angle_beta	87.800676
_cell_angle_gamma	101.263838
loop_
_atom_site_label
_atom_site_type_symbol
_atom_site_fract_x
_atom_site_fract_y
_atom_site_fract_z
Zn1	Zn	1.247721	-0.067218	-0.195077
Zn2	Zn	1.747721	0.432782	0.304923
Zn3	Zn	1.221939	-0.141119	-0.068097
Zn4	Zn	1.721939	0.358881	0.431903
Zn5	Zn	1.095065	-0.074113	-0.093725
Zn6	Zn	1.595065	0.425887	0.406275
Zn7	Zn	1.120643	-0.175061	-0.220677
Zn8	Zn	1.620643	0.324939	0.279323
O9	O	1.171342	-0.114378	-0.144394
O10	O	1.671342	0.385622	0.355606
O11	O	1.350581	-0.059931	-0.156794
O12	O	1.850581	0.440069	0.343206
O13	O	1.183615	-0.120912	0.034774
O14	O	1.683615	0.379088	0.534774
O15	O	1.115401	-0.000023	-0.107181
O16	O	1.615401	0.499977	0.392819
O17	O	1.331639	-0.114226	-0.063503
O18	O	1.831639	0.385774	0.436497
O19	O	1.227557	0.005043	-0.181644
O20	O	1.727557	0.505043	0.318356
O21	O	1.090401	-0.071682	0.015946
O22	O	1.590401	0.428318	0.515946
O23	O	0.992179	-0.104594	-0.132004
O24	O	1.492179	0.395406	0.367996
O25	O	1.158995	-0.172074	-0.323552
O26	O	1.658995	0.327926	0.176448
O27	O	1.010971	-0.178760	-0.225275
O28	O	1.510971	0.321240	0.274725
O29	O	1.252359	-0.092843	-0.304744
O30	O	1.752359	0.407157	0.195256
O31	O	1.208417	-0.218797	-0.088326
O32	O	1.708417	0.281203	0.411674
O33	O	1.133995	-0.243734	-0.200425
O34	O	1.633995	0.256266	0.299575
C35	C	0.974018	-0.146108	-0.184199
C36	C	1.474018	0.353892	0.315801
C37	C	0.889605	-0.159698	-0.201246
C38	C	1.389605	0.340302	0.298754
C39	C	1.171208	-0.250237	-0.144385
C40	C	1.671208	0.249763	0.355615
C41	C	1.171224	-0.308350	-0.144393
C42	C	1.671224	0.191650	0.355607
C43	C	0.563032	-0.011135	-0.014898
C44	C	1.063032	0.488865	0.485102
C45	C	0.483716	-0.023915	-0.030926
C46	C	0.983716	0.476085	0.469074
C47	C	0.503304	-0.101219	-0.127882
C48	C	1.003304	0.398781	0.372118
C49	C	0.582625	-0.088443	-0.111864
C50	C	1.082625	0.411557	0.388136
C51	C	0.612482	-0.043401	-0.055371
C52	C	1.112482	0.456599	0.444629
C53	C	0.632074	-0.120709	-0.152337
C54	C	1.132074	0.379291	0.347663
C55	C	0.711387	-0.107936	-0.136318
C56	C	1.211387	0.392064	0.363682
C57	C	0.741250	-0.062897	-0.079826
C58	C	1.241250	0.437103	0.420174
C59	C	0.691795	-0.030627	-0.039352
C60	C	1.191795	0.469373	0.460648
C61	C	0.602215	-0.165753	-0.208827
C62	C	1.102215	0.334247	0.291173
C63	C	0.651664	-0.198019	-0.249300
C64	C	1.151664	0.301981	0.250700
C65	C	0.730979	-0.185244	-0.233284
C66	C	1.230979	0.314756	0.266716
C67	C	0.760843	-0.140205	-0.176792
C68	C	1.260843	0.359795	0.323208
C69	C	0.780435	-0.217513	-0.273759
C70	C	1.280435	0.282487	0.226241
C71	C	0.859748	-0.204740	-0.257739
C72	C	1.359748	0.295260	0.242261
C73	C	0.840155	-0.127432	-0.160773
C74	C	1.340155	0.372568	0.339227
C75	C	1.210237	-0.655689	-0.086081
C76	C	1.710237	-0.155689	0.413919
C77	C	1.210268	-0.710289	-0.086085
C78	C	1.710268	-0.210289	0.413915
O79	O	1.243298	-0.727470	-0.036495
O80	O	1.743298	-0.227470	0.463505
N81	N	1.171486	-0.750601	-0.144417
N82	N	1.671486	-0.250601	0.355583
C83	C	1.132676	-0.736309	-0.202754
C84	C	1.632676	-0.236309	0.297246
O85	O	1.099692	-0.775610	-0.252370
O86	O	1.599692	-0.275610	0.247630
C87	C	1.132649	-0.681709	-0.202752
C88	C	1.632649	-0.181709	0.297248
C89	C	1.171428	-0.641400	-0.144411
C90	C	1.671428	-0.141400	0.355589
C91	C	1.249013	-0.615381	-0.027746
C92	C	1.749013	-0.115381	0.472254
C93	C	1.248980	-0.560784	-0.027741
C94	C	1.748980	-0.060784	0.472259
C95	C	1.210171	-0.546495	-0.086071
C96	C	1.710171	-0.046495	0.413929
C97	C	1.171395	-0.586803	-0.144407
C98	C	1.671395	-0.086803	0.355593
C99	C	1.093844	-0.667418	-0.261090
C100	C	1.593844	-0.167418	0.238910
C101	C	1.093822	-0.612813	-0.261084
C102	C	1.593822	-0.112813	0.238916
C103	C	1.132600	-0.572504	-0.202743
C104	C	1.632600	-0.072504	0.297257
C105	C	1.132553	-0.517918	-0.202732
C106	C	1.632553	-0.017918	0.297268
N107	N	1.171336	-0.477606	-0.144400
N108	N	1.671336	0.022394	0.355600
C109	C	1.210145	-0.491895	-0.086070
C110	C	1.710145	0.008105	0.413930
C111	C	1.132735	-0.850972	-0.202754
C112	C	1.632735	-0.350972	0.297246
C113	C	1.132757	-0.905571	-0.202753
C114	C	1.632757	-0.405571	0.297247
C115	C	1.210351	-0.879548	-0.086085
C116	C	1.710351	-0.379548	0.413915
C117	C	1.210324	-0.824948	-0.086084
C118	C	1.710324	-0.324948	0.413916
C119	C	1.171518	-0.810660	-0.144422
C120	C	1.671518	-0.310660	0.355578
C121	C	1.210072	-0.377239	-0.086064
C122	C	1.710072	0.122761	0.413936
C123	C	1.210033	-0.322639	-0.086062
C124	C	1.710033	0.177361	0.413938
C125	C	1.132443	-0.348667	-0.202732
C126	C	1.632443	0.151333	0.297268
C127	C	1.132478	-0.403262	-0.202731
C128	C	1.632478	0.096738	0.297269
C129	C	1.171299	-0.417546	-0.144393
C130	C	1.671299	0.082454	0.355607
O131	O	1.099543	-0.500697	-0.252299
O132	O	1.599543	-0.000697	0.247701
O133	O	1.243132	-0.452589	-0.036467
O134	O	1.743132	0.047411	0.463533
C135	C	1.369437	-0.082524	-0.104434
C136	C	1.869437	0.417476	0.395566
C137	C	1.453854	-0.068949	-0.087405
C138	C	1.953854	0.431051	0.412595
C139	C	1.211406	-0.135475	-0.342473
C140	C	1.711406	0.364525	0.157527
C141	C	1.228479	-0.144466	-0.426883
C142	C	1.728479	0.355534	0.073117
C143	C	1.171502	0.022014	-0.144416
C144	C	1.671502	0.522014	0.355584
C145	C	1.171569	0.080136	-0.144425
C146	C	1.671569	0.580136	0.355575
C147	C	1.301069	-0.182766	-0.536054
C148	C	1.801069	0.317234	-0.036054
C149	C	1.285021	-0.174315	-0.456739
C150	C	1.785021	0.325685	0.043261
C151	C	1.187965	-0.123053	-0.476336
C152	C	1.687965	0.376947	0.023664
C153	C	1.204007	-0.131497	-0.555653
C154	C	1.704007	0.368503	-0.055653
C155	C	1.260560	-0.161355	-0.585506
C156	C	1.760560	0.338645	-0.085506
C157	C	1.163498	-0.110086	-0.605105
C158	C	1.663498	0.389914	-0.105105
C159	C	1.179537	-0.118532	-0.684416
C160	C	1.679537	0.381468	-0.184416
C161	C	1.236085	-0.148390	-0.714275
C162	C	1.736085	0.351610	-0.214275
C163	C	1.276599	-0.169801	-0.664817
C164	C	1.776599	0.330199	-0.164817
C165	C	1.106942	-0.080232	-0.575252
C166	C	1.606942	0.419768	-0.075252
C167	C	1.066433	-0.058821	-0.624704
C168	C	1.566433	0.441179	-0.124704
C169	C	1.082475	-0.067264	-0.704016
C170	C	1.582475	0.432736	-0.204016
C171	C	1.139023	-0.097121	-0.733875
C172	C	1.639023	0.402879	-0.233875
C173	C	1.041962	-0.045852	-0.753474
C174	C	1.541962	0.454148	-0.253474
C175	C	1.058000	-0.054298	-0.832785
C176	C	1.558000	0.445702	-0.332785
C177	C	1.155062	-0.105567	-0.813186
C178	C	1.655062	0.394433	-0.313186
C179	C	1.131478	-0.093317	0.052924
C180	C	1.631478	0.406683	0.552924
C181	C	1.114553	-0.084156	0.137363
C182	C	1.614553	0.415844	0.637363
H183	H	0.864469	-0.090747	-0.114781
H184	H	1.364469	0.409253	0.385219
H185	H	0.478983	-0.137893	-0.173877
H186	H	0.978983	0.362107	0.326123
Cl187	Cl	1.297747	-0.510117	0.045596
Cl188	Cl	1.797747	-0.010117	0.545596
Cl189	Cl	1.258874	-0.395187	-0.012722
Cl190	Cl	1.758874	0.104813	0.487278
Cl191	Cl	0.421550	0.016650	0.019967
Cl192	Cl	0.921550	0.516650	0.519967
Cl193	Cl	0.970874	-0.008315	-0.715934
Cl194	Cl	1.470874	0.491685	-0.215934
Cl195	Cl	1.007090	-0.027368	-0.894954
Cl196	Cl	1.507090	0.472632	-0.394954
Cl197	Cl	1.256249	-0.159009	-0.813982
Cl198	Cl	1.756249	0.340991	-0.313982
H199	H	0.537632	-0.176152	-0.221867
H200	H	1.037632	0.323848	0.278133
Cl201	Cl	0.614120	-0.254647	-0.320308
Cl202	Cl	1.114120	0.245353	0.179692
Cl203	Cl	1.083709	-0.453939	-0.276062
Cl204	Cl	1.583709	0.046061	0.223938
Cl205	Cl	1.083994	-0.956240	-0.276091
Cl206	Cl	1.583994	-0.456240	0.223909
H207	H	1.062222	-0.601185	-0.308592
H208	H	1.562222	-0.101185	0.191408
Cl209	Cl	0.840958	-0.046840	-0.059682
Cl210	Cl	1.340958	0.453160	0.440318
H211	H	1.280620	-0.627007	0.019755
H212	H	1.780620	-0.127007	0.519755
Cl213	Cl	1.083662	-0.330692	-0.276061
Cl214	Cl	1.583662	0.169308	0.223939
Cl215	Cl	1.045102	-0.718079	-0.334444
Cl216	Cl	1.545102	-0.218079	0.165556
H217	H	1.241902	-0.792130	-0.038578
H218	H	1.741902	-0.292130	0.461422
Cl219	Cl	0.729336	0.026001	0.031665
Cl220	Cl	1.229336	0.526001	0.531665
Cl221	Cl	0.742887	-0.274144	-0.344761
Cl222	Cl	1.242887	0.225856	0.155239
H223	H	1.201119	-0.129875	-0.837491
H224	H	1.701119	0.370125	-0.337491
Cl225	Cl	1.259138	-0.897521	-0.012754
Cl226	Cl	1.759138	-0.397521	0.487246
H227	H	1.101128	-0.839344	-0.250258
H228	H	1.601128	-0.339344	0.249742
H229	H	1.141917	-0.098745	-0.452019
H230	H	1.641917	0.401255	0.047981
Cl231	Cl	1.258788	-0.271967	-0.012715
Cl232	Cl	1.758788	0.228033	0.487285
Cl233	Cl	0.600574	0.045494	0.056119
Cl234	Cl	1.100574	0.545494	0.556119
Cl235	Cl	0.921917	-0.245304	-0.308618
Cl236	Cl	1.421917	0.254696	0.191382
Cl237	Cl	1.347707	-0.207326	-0.702349
Cl238	Cl	1.847707	0.292674	-0.202349
Cl239	Cl	1.335950	-0.201239	-0.394573
Cl240	Cl	1.835950	0.298761	0.105427
Cl241	Cl	1.372177	-0.220292	-0.573586
Cl242	Cl	1.872177	0.279708	-0.073586
H243	H	1.093878	-0.073362	-0.510673
H244	H	1.593878	0.426638	-0.010673
H245	H	1.020386	-0.034513	-0.600387
H246	H	1.520386	0.465487	-0.100387
