data_functionalizedCrystal
_audit_creation_method	'MofGen! by Chris Wilmer'
_symmetry_space_group_name_H-M	'P1'
_symmetry_Int_Tables_number	1
_symmetry_cell_setting	triclinic
loop_
_symmetry_equiv_pos_as_xyz
  x,y,z
_cell_length_a	21.606444
_cell_length_b	14.560438
_cell_length_c	21.606444
_cell_angle_alpha	89.999117
_cell_angle_beta	59.990220
_cell_angle_gamma	119.994873
loop_
_atom_site_label
_atom_site_type_symbol
_atom_site_fract_x
_atom_site_fract_y
_atom_site_fract_z
Zr1	Zr	0.677529	-0.884753	-0.081324
O2	O	0.806659	-0.738110	-0.180174
O3	O	0.548399	-0.929707	-0.051007
O4	O	0.677533	-0.929709	-0.180150
O5	O	0.677523	-0.738107	0.050822
O6	O	0.677536	-1.080846	-0.180148
O7	O	0.677526	-0.738108	-0.051031
O8	O	0.446540	-1.080842	0.050865
O9	O	0.908519	-0.738111	-0.180191
O10	O	0.601515	-1.061672	-0.038093
O11	O	0.601511	-0.948879	0.037917
O12	O	0.753548	-0.948882	-0.114132
O13	O	0.753544	-0.836089	-0.038121
Zr14	Zr	0.677530	-1.125798	0.081123
Zr15	Zr	0.677534	-1.125800	-0.081321
Zr16	Zr	0.677525	-0.884752	0.081120
Zr17	Zr	0.839985	-0.884755	-0.081351
Zr18	Zr	0.515075	-1.125797	0.081150
O19	O	0.806660	-1.080845	0.050805
O20	O	0.806666	-1.080847	-0.180169
O21	O	0.806653	-0.738108	0.050801
O22	O	0.548401	-1.272442	0.179972
O23	O	0.548406	-1.272444	-0.051002
O24	O	0.548394	-0.929705	0.179968
O25	O	0.677536	-1.272445	-0.051024
O26	O	0.677527	-1.080843	0.179948
O27	O	0.677524	-0.929706	0.179946
O28	O	0.677534	-1.272444	0.050829
O29	O	0.908523	-0.929711	-0.180188
O30	O	0.446537	-1.080841	0.179987
O31	O	0.446540	-1.272441	0.179989
O32	O	0.446544	-1.272442	0.050868
O33	O	0.908516	-0.738110	-0.051069
O34	O	0.908520	-0.929710	-0.051067
O35	O	0.601511	-1.061670	0.113930
O36	O	0.601515	-1.174463	0.037920
O37	O	0.753549	-1.061673	-0.038119
O38	O	0.753545	-0.948880	0.037892
C39	C	0.474323	-1.005274	-0.000067
C40	C	0.405357	-1.005274	-0.000055
C41	C	0.429091	-0.922008	-0.056184
C42	C	0.364302	-0.922011	-0.056200
C43	C	0.275779	-1.005276	-0.000083
C44	C	0.252044	-1.088550	0.056049
C45	C	0.316833	-1.088550	0.056061
C46	C	-0.009242	-1.088549	0.056001
C47	C	-0.074031	-1.088540	0.055986
C48	C	0.038227	-0.922010	-0.056259
C49	C	0.103015	-0.922011	-0.056247
C50	C	0.079276	-1.005287	-0.000118
C51	C	0.149528	-1.005284	-0.000103
C52	C	0.205527	-1.005275	-0.000095
C53	C	0.677524	-0.703763	-0.000104
C54	C	0.677522	-0.601433	-0.000106
C55	C	0.598163	-0.612230	0.039585
C56	C	0.598166	-0.516076	0.039592
C57	C	0.756895	-0.398330	-0.039790
C58	C	0.756890	-0.494484	-0.039791
C59	C	0.518794	-0.719179	0.079271
C60	C	0.439429	-0.729981	0.118965
C61	C	0.439432	-0.633827	0.118971
C62	C	0.518801	-0.526871	0.079284
C63	C	0.880736	-1.005278	-0.000135
C64	C	0.949703	-1.005278	-0.000146
C65	C	0.677535	-1.005278	-0.203293
C66	C	0.677536	-1.005278	-0.272255
C67	C	0.677534	-0.306790	-0.000097
C68	C	0.677529	-0.409125	-0.000097
C69	C	0.677540	-1.088541	-0.304652
C70	C	0.677533	-1.088544	-0.369445
C71	C	0.677530	-1.005280	-0.401843
C72	C	0.677524	-0.922013	-0.369440
C73	C	0.677524	-0.922015	-0.304645
C74	C	0.677524	-0.922003	-0.630750
C75	C	0.677526	-0.922005	-0.695551
C76	C	0.677533	-1.088533	-0.695551
C77	C	0.677533	-1.088535	-0.630756
C78	C	0.677522	-1.005272	-0.598356
C79	C	0.677527	-1.005270	-0.528099
C80	C	0.677531	-1.005276	-0.472102
C81	C	0.677525	-1.005274	0.203092
C82	C	0.677523	-1.005273	0.272054
C83	C	0.474329	-1.306787	-0.000063
C84	C	0.405365	-1.409117	-0.000050
C85	C	0.474318	-1.005272	0.203126
C86	C	0.405350	-1.005271	0.272099
C87	C	0.474324	-1.306785	0.203130
C88	C	0.405358	-1.409114	0.272104
C89	C	0.880735	-0.703767	-0.203331
C90	C	0.949701	-0.601438	-0.272306
C91	C	0.880730	-0.703765	-0.000138
C92	C	0.949695	-0.601435	-0.000151
C93	C	0.880741	-1.005279	-0.203327
C94	C	0.949709	-1.005281	-0.272301
C95	C	0.372978	-1.398296	-0.039729
C96	C	0.308188	-1.494437	-0.039732
C97	C	0.275781	-1.601397	-0.000051
C98	C	0.308174	-1.612216	0.039629
C99	C	0.372967	-1.516076	0.039627
C100	C	0.372962	-1.064147	0.344175
C101	C	0.308168	-1.064141	0.408989
C102	C	0.275759	-1.005266	0.401725
C103	C	0.308154	-0.946384	0.329642
C104	C	0.372951	-0.946383	0.264830
C105	C	0.372973	-1.516056	0.264819
C106	C	0.308181	-1.612215	0.329622
C107	C	0.275771	-1.601429	0.401709
C108	C	0.308162	-1.494476	0.408993
C109	C	0.372958	-1.398320	0.344191
C110	C	0.982094	-0.494496	-0.265020
C111	C	1.046906	-0.398337	-0.329823
C112	C	1.079320	-0.409123	-0.401910
C113	C	1.046924	-0.516076	-0.409194
C114	C	0.982118	-0.612232	-0.344392
C115	C	0.982088	-0.612256	0.039521
C116	C	1.046897	-0.516115	0.039506
C117	C	1.079306	-0.409155	-0.000177
C118	C	1.046910	-0.398336	-0.039854
C119	C	0.982107	-0.494476	-0.039843
C120	C	0.982098	-1.064167	-0.265013
C121	C	1.046892	-1.064190	-0.329815
C122	C	1.079301	-1.005320	-0.401903
C123	C	1.046906	-0.946431	-0.409189
C124	C	0.982109	-0.946416	-0.344388
H125	H	-0.146114	-1.156349	0.101686
H126	H	0.677516	-0.854220	-0.395819
H127	H	0.518783	-0.797480	0.079269
H128	H	0.281778	-1.699315	0.071935
Cl129	Cl	0.194322	-1.722249	-0.000055
Cl130	Cl	0.068068	-0.817320	-0.126825
Cl131	Cl	0.677520	-0.817323	-0.736278
H132	H	0.374810	-0.817069	0.151282
Cl133	Cl	-0.039095	-1.193231	0.126570
Cl134	Cl	1.160765	-1.005347	-0.483360
H135	H	0.677517	-0.854206	-0.604377
H136	H	0.281801	-1.112094	0.467675
Cl137	Cl	0.518802	-0.405992	0.079300
H138	H	0.677520	-0.854215	-0.278267
Cl139	Cl	0.413668	-1.529699	0.089520
Cl140	Cl	0.677536	-1.193220	-0.410174
H141	H	0.821511	-0.485688	-0.072097
Cl142	Cl	0.267399	-0.872378	0.320524
H143	H	1.073304	-0.898501	-0.467892
Cl144	Cl	0.677550	-1.193219	-0.263934
H145	H	1.073272	-0.311261	-0.323877
H146	H	0.179963	-1.156350	0.101737
Cl147	Cl	1.160790	-0.288228	-0.483370
H148	H	0.955707	-0.485692	-0.206329
H149	H	0.374809	-0.642627	0.151298
Cl150	Cl	0.941397	-0.746669	-0.353565
Cl151	Cl	0.941408	-0.872367	-0.353563
Cl152	Cl	0.413689	-1.138173	0.353326
H153	H	0.677540	-1.156333	-0.604381
H154	H	0.297502	-1.156353	0.101767
H155	H	0.383635	-0.854208	-0.101905
Cl156	Cl	0.540375	-0.817322	-0.126732
Cl157	Cl	0.413708	-1.263843	-0.089623
H158	H	0.281815	-1.699292	0.323677
Cl159	Cl	1.087679	-0.529616	-0.499825
Cl160	Cl	1.087609	-1.138219	-0.320637
H161	H	0.222997	-1.005276	0.454506
Cl162	Cl	0.856665	-0.263876	-0.089681
Cl163	Cl	0.677541	-1.193212	-0.736283
Cl164	Cl	0.267475	-1.480810	-0.089616
Cl165	Cl	0.413710	-1.529645	0.174202
Cl166	Cl	0.214301	-0.817327	-0.126794
Cl167	Cl	0.413654	-0.872368	0.174223
Cl168	Cl	0.941368	-1.138187	-0.174395
Cl169	Cl	0.194311	-1.722324	0.483168
Cl170	Cl	0.941363	-0.746709	0.089410
Cl171	Cl	0.267408	-1.480936	0.499623
H172	H	0.399317	-1.311247	0.350134
Cl173	Cl	1.087606	-0.529741	0.089394
Cl174	Cl	1.160772	-0.288303	-0.000181
H175	H	1.073308	-0.311236	-0.072163
H176	H	0.955734	-0.485650	-0.072147
