data_functionalizedCrystal
_audit_creation_method	'MofGen! by Chris Wilmer'
_symmetry_space_group_name_H-M	'P1'
_symmetry_Int_Tables_number	1
_symmetry_cell_setting	triclinic
loop_
_symmetry_equiv_pos_as_xyz
  x,y,z
_cell_length_a	10.654541
_cell_length_b	17.699083
_cell_length_c	16.776229
_cell_angle_alpha	90.001114
_cell_angle_beta	89.993604
_cell_angle_gamma	96.116528
loop_
_atom_site_label
_atom_site_type_symbol
_atom_site_fract_x
_atom_site_fract_y
_atom_site_fract_z
O1	O	0.158809	-1.005087	-0.066176
O2	O	0.658809	-0.505087	0.433824
O3	O	0.179470	-0.784840	-0.066202
O4	O	0.679470	-0.284840	0.433798
O5	O	-0.013689	-0.900029	-0.066184
O6	O	0.486311	-0.400029	0.433816
O7	O	0.351968	-0.889899	-0.066194
O8	O	0.851968	-0.389899	0.433806
O9	O	-0.013700	-0.900013	0.066393
O10	O	0.486300	-0.400013	0.566393
O11	O	0.179458	-0.784825	0.066374
O12	O	0.679458	-0.284825	0.566374
O13	O	0.158797	-1.005072	0.066400
O14	O	0.658797	-0.505072	0.566400
Zn15	Zn	0.169126	-0.894946	0.087437
Zn16	Zn	0.669126	-0.394946	0.587437
Zn17	Zn	0.169142	-0.894966	-0.087238
Zn18	Zn	0.669142	-0.394966	0.412762
O19	O	0.351956	-0.889883	0.066382
O20	O	0.851956	-0.389883	0.566382
C21	C	0.178724	-0.756631	0.000083
C22	C	0.678724	-0.256631	0.500083
C23	C	0.176503	-0.672599	0.000073
C24	C	0.676503	-0.172599	0.500073
C25	C	-0.060480	-0.899277	0.000104
C26	C	0.439520	-0.399277	0.500104
C27	C	-0.199884	-0.897053	0.000103
C28	C	0.300116	-0.397053	0.500103
C29	C	0.159543	-1.033281	0.000114
C30	C	0.659543	-0.533281	0.500114
C31	C	0.161764	-1.117313	0.000118
C32	C	0.661764	-0.617313	0.500118
C33	C	-0.230266	-1.034792	0.000129
C34	C	0.269734	-0.534792	0.500129
C35	C	-0.310947	-1.102614	0.000144
C36	C	0.189053	-0.602614	0.500144
C37	C	-0.441929	-1.100519	0.000141
C38	C	0.058071	-0.600519	0.500141
C39	C	-0.492230	-1.030596	0.000121
C40	C	0.007770	-0.530596	0.500121
C41	C	-0.411549	-0.962775	0.000106
C42	C	0.088451	-0.462775	0.500106
C43	C	-0.280566	-0.964876	0.000111
C44	C	0.219434	-0.464876	0.500111
C45	C	-0.381167	-0.825037	0.000074
C46	C	0.118833	-0.325037	0.500074
C47	C	-0.250185	-0.827130	0.000083
C48	C	0.249815	-0.327130	0.500083
C49	C	-0.431468	-0.755114	0.000054
C50	C	0.068532	-0.255114	0.500054
C51	C	-0.350786	-0.687291	0.000045
C52	C	0.149214	-0.187291	0.500045
C53	C	-0.219798	-0.689388	0.000049
C54	C	0.280202	-0.189388	0.500049
C55	C	-0.169504	-0.759308	0.000068
C56	C	0.330496	-0.259308	0.500068
C57	C	0.398747	-0.890634	0.000093
C58	C	0.898747	-0.390634	0.500093
C59	C	0.538151	-0.892859	0.000089
C60	C	1.038151	-0.392859	0.500089
N61	N	0.169115	-0.894937	0.206648
N62	N	0.669115	-0.394937	0.706648
C63	C	0.289883	-0.624698	0.000070
C64	C	0.789883	-0.124698	0.500070
C65	C	0.287789	-0.545741	0.000080
C66	C	0.787789	-0.045741	0.500080
C67	C	0.172313	-0.514687	0.000088
C68	C	0.672313	-0.014687	0.500088
C69	C	0.058924	-0.562594	0.000094
C70	C	0.558924	-0.062594	0.500094
C71	C	0.061020	-0.641549	0.000089
C72	C	0.561020	-0.141549	0.500089
C73	C	0.050470	-0.244177	0.000114
C74	C	0.550470	0.255823	0.500114
C75	C	0.048383	-0.165216	0.000116
C76	C	0.548383	0.334784	0.500116
C77	C	0.277239	-0.148369	0.000105
C78	C	0.777239	0.351631	0.500105
C79	C	0.279335	-0.227324	0.000100
C80	C	0.779335	0.272676	0.500100
C81	C	0.165946	-0.275224	0.000110
C82	C	0.665946	0.224776	0.500110
C83	C	0.168219	-0.360838	0.000100
C84	C	0.668219	0.139162	0.500100
C85	C	0.170039	-0.429075	0.000092
C86	C	0.670039	0.070925	0.500092
N87	N	0.169143	-0.894981	-0.206450
N88	N	0.669143	-0.394981	0.293550
C89	C	0.083619	-0.945959	0.248373
C90	C	0.583619	-0.445959	0.748373
C91	C	0.083618	-0.945963	0.331826
C92	C	0.583618	-0.445963	0.831826
C93	C	0.169119	-0.894949	0.373551
C94	C	0.669119	-0.394949	0.873551
C95	C	0.254619	-0.843922	0.331820
C96	C	0.754619	-0.343922	0.831820
C97	C	0.254613	-0.843915	0.248369
C98	C	0.754613	-0.343915	0.748369
C99	C	0.254644	-0.843950	0.668367
C100	C	0.754644	-0.343950	1.168367
C101	C	0.254646	-0.843962	0.751824
C102	C	0.754646	-0.343962	1.251824
C103	C	0.083648	-0.945998	0.751823
C104	C	0.583648	-0.445998	1.251823
C105	C	0.083642	-0.945990	0.668373
C106	C	0.583642	-0.445990	1.168373
C107	C	0.169137	-0.894961	0.626649
C108	C	0.669137	-0.394961	1.126649
C109	C	0.169136	-0.894956	0.536161
C110	C	0.669136	-0.394956	1.036161
C111	C	0.169128	-0.894957	0.464038
C112	C	0.669128	-0.394957	0.964038
H113	H	-0.123616	-1.036505	0.000142
H114	H	0.376384	-0.536505	0.500142
H115	H	-0.538121	-0.753413	0.000047
H116	H	-0.038121	-0.253413	0.500047
H117	H	0.369565	-0.109359	0.000101
H118	H	0.869565	0.390641	0.500101
H119	H	0.014000	-0.987508	0.365798
H120	H	0.514000	-0.487508	0.865798
N121	N	-0.061274	-0.693211	0.000090
N122	N	0.438726	-0.193211	0.500090
H123	H	-0.065506	-0.726346	-0.049056
H124	H	0.434494	-0.226346	0.450944
H125	H	-0.065435	-0.726295	0.049269
H126	H	0.434565	-0.226295	0.549269
N127	N	-0.008571	-1.001015	0.623369
N128	N	0.491429	-0.501015	1.123369
H129	H	-0.062736	-1.033338	0.662465
H130	H	0.437264	-0.533338	1.162465
H131	H	-0.064030	-0.971748	0.588754
H132	H	0.435970	-0.471748	1.088754
N133	N	-0.065625	-0.529101	0.000095
N134	N	0.434375	-0.029101	0.500095
H135	H	-0.137134	-0.571429	0.000097
H136	H	0.362866	-0.071429	0.500097
H137	H	-0.071486	-0.496709	0.049242
H138	H	0.428514	0.003291	0.549242
N139	N	-0.008570	-1.001037	0.796825
N140	N	0.491430	-0.501037	1.296825
H141	H	0.004400	-0.993303	0.856022
H142	H	0.504400	-0.493303	1.356022
H143	H	-0.097643	-0.991834	0.782246
H144	H	0.402357	-0.491834	1.282246
H145	H	-0.269977	-1.159544	0.000167
H146	H	0.230023	-0.659544	0.500167
N147	N	0.414430	-0.658193	0.000065
N148	N	0.914430	-0.158193	0.500065
H149	H	0.420407	-0.690573	-0.049084
H150	H	0.920407	-0.190573	0.450916
H151	H	0.485867	-0.615824	0.000097
H152	H	0.985867	-0.115824	0.500097
H153	H	-0.041858	-0.283168	0.000122
H154	H	0.458142	0.216832	0.500122
H155	H	0.324232	-0.802382	0.365797
H156	H	0.824232	-0.302382	0.865797
N157	N	-0.633502	-1.028338	0.000118
N158	N	-0.133502	-0.528338	0.500118
H159	H	-0.653125	-0.973753	0.000106
H160	H	-0.153125	-0.473753	0.500106
H161	H	-0.670911	-1.054917	-0.049027
H162	H	-0.170911	-0.554917	0.450973
N163	N	-0.008595	-1.000986	0.203372
N164	N	0.491405	-0.500986	0.703372
H165	H	-0.062757	-1.033307	0.242471
H166	H	0.437243	-0.533307	0.742471
H167	H	-0.064056	-0.971721	0.168757
H168	H	0.435944	-0.471721	0.668757
H169	H	0.324274	-0.802418	0.785795
H170	H	0.824274	-0.302418	1.285795
H171	H	0.324259	-0.802401	0.634402
H172	H	0.824259	-0.302401	1.134402
N173	N	-0.405029	-0.611878	0.000023
N174	N	0.094971	-0.111878	0.500023
H175	H	-0.458681	-0.607948	-0.049128
H176	H	0.041319	-0.107948	0.450872
H177	H	-0.458650	-0.607975	0.049197
H178	H	0.041350	-0.107975	0.549197
N179	N	-0.028232	-0.761565	0.000071
N180	N	0.471768	-0.261565	0.500071
H181	H	-0.002651	-0.789099	0.049223
H182	H	0.497349	-0.289099	0.549223
H183	H	-0.002738	-0.789105	-0.049101
H184	H	0.497262	-0.289105	0.450899
H185	H	0.324231	-0.802367	0.214397
H186	H	0.824231	-0.302367	0.714397
H187	H	-0.154113	-0.634159	0.000034
H188	H	0.345887	-0.134159	0.500034
N189	N	-0.528966	-1.173663	0.000156
N190	N	-0.028966	-0.673663	0.500156
H191	H	-0.512810	-1.204150	-0.048983
H192	H	-0.012810	-0.704150	0.451017
H193	H	-0.512786	-1.204068	0.049342
H194	H	-0.012786	-0.704068	0.549342
N195	N	0.410077	-0.494076	0.000167
N196	N	0.910077	0.005924	0.500167
H197	H	0.483547	-0.525729	0.000186
H198	H	0.983547	-0.025729	0.500186
H199	H	0.414290	-0.460905	-0.048948
H200	H	0.914290	0.039095	0.451052
H201	H	0.373367	-0.252604	0.000090
H202	H	0.873367	0.247396	0.500090
N203	N	-0.076171	-0.131719	0.000125
N204	N	0.423829	0.368281	0.500125
H205	H	-0.147686	-0.174043	0.000133
H206	H	0.352314	0.325957	0.500133
H207	H	-0.082017	-0.099326	0.049274
H208	H	0.417983	0.400674	0.549274
