data_functionalizedCrystal
_audit_creation_method	'MofGen! by Chris Wilmer'
_symmetry_space_group_name_H-M	'P1'
_symmetry_Int_Tables_number	1
_symmetry_cell_setting	triclinic
loop_
_symmetry_equiv_pos_as_xyz
  x,y,z
_cell_length_a	16.109301
_cell_length_b	9.482900
_cell_length_c	10.967961
_cell_angle_alpha	92.504213
_cell_angle_beta	84.100768
_cell_angle_gamma	99.284076
loop_
_atom_site_label
_atom_site_type_symbol
_atom_site_fract_x
_atom_site_fract_y
_atom_site_fract_z
O1	O	1.120518	0.154712	0.135382
O2	O	0.879087	0.159539	0.154562
O3	O	1.000733	0.113387	-0.029607
O4	O	0.998872	0.200864	0.319551
O5	O	0.976029	-0.118993	0.007952
O6	O	0.854382	-0.072841	0.192121
O7	O	1.095814	-0.077668	0.172941
Cu8	Cu	0.972842	-0.096473	0.185961
Cu9	Cu	1.002058	0.178344	0.141543
O10	O	0.974168	-0.031517	0.357110
C11	C	0.835735	0.043157	0.172564
C12	C	0.743364	0.042582	0.170233
N13	N	0.952300	-0.289764	0.217201
C14	C	0.524492	0.068588	0.274102
C15	C	0.437699	0.068028	0.271905
C16	C	0.450415	0.013289	0.053392
C17	C	0.537206	0.013839	0.055591
C18	C	0.574243	0.041496	0.165949
C19	C	0.400659	0.040387	0.161552
C20	C	0.306554	0.039780	0.159169
C21	C	0.668354	0.042101	0.168333
C22	C	0.995993	-0.378616	0.150751
C23	C	0.978907	-0.539517	0.176753
C24	C	1.139166	0.038717	0.154939
C25	C	1.231538	0.039301	0.157268
C26	C	0.986379	-0.013993	-0.055507
C27	C	0.980403	-0.047337	-0.188639
N28	N	1.022607	0.371633	0.110293
C29	C	0.984365	0.023713	-0.405048
C30	C	0.990539	0.058186	-0.267450
C31	C	0.988522	0.095867	0.383010
C32	C	0.994498	0.129221	0.516140
H33	H	0.397195	0.090086	0.359975
C34	C	1.008436	0.214706	-0.221009
C35	C	1.087691	0.267548	-0.154227
C36	C	1.105588	0.424065	-0.107784
C37	C	1.044229	0.527740	-0.128122
C38	C	0.964969	0.474901	-0.194906
C39	C	0.947072	0.318384	-0.241350
H40	H	1.133117	0.190799	-0.139169
H41	H	1.164262	0.463179	-0.058345
H42	H	1.057478	0.643603	-0.093741
H43	H	0.919543	0.551649	-0.209965
H44	H	0.888398	0.279269	-0.290788
H45	H	1.007739	0.245071	-0.449466
H46	H	0.577715	-0.008227	-0.032485
C47	C	0.962511	-0.203865	-0.235066
C48	C	0.883257	-0.256732	-0.301843
C49	C	0.865367	-0.413258	-0.348264
C50	C	0.926732	-0.516917	-0.327909
C51	C	1.005991	-0.464052	-0.261129
C52	C	1.023881	-0.307525	-0.214707
H53	H	0.837827	-0.179996	-0.316914
H54	H	0.806694	-0.452392	-0.397699
H55	H	0.913489	-0.632787	-0.362273
H56	H	1.051421	-0.540788	-0.246057
H57	H	1.082554	-0.268391	-0.165272
H58	H	0.902240	-0.332815	0.293337
H59	H	1.046046	-0.335569	0.074606
H60	H	0.420249	-0.009237	-0.036456
C61	C	0.565232	0.098994	0.395494
C62	C	0.510502	0.128785	0.514462
C63	C	0.551239	0.159186	0.635858
C64	C	0.646705	0.159797	0.638288
C65	C	0.701440	0.130005	0.519316
C66	C	0.660704	0.099604	0.397919
H67	H	0.439828	0.128333	0.512667
H68	H	0.510719	0.181240	0.723929
H69	H	0.676860	0.182302	0.728153
H70	H	0.772115	0.130457	0.521110
H71	H	0.701223	0.077550	0.309848
C72	C	0.911279	-0.597653	0.279622
C73	C	0.936304	-0.675328	0.387366
C74	C	0.868677	-0.733466	0.490233
C75	C	0.776026	-0.713927	0.485355
C76	C	0.750997	-0.636248	0.377606
C77	C	0.818624	-0.578110	0.274740
H78	H	1.004894	-0.689795	0.390981
H79	H	0.887206	-0.790969	0.569996
H80	H	0.725965	-0.756964	0.561503
H81	H	0.682407	-0.621781	0.373992
H82	H	0.800095	-0.520607	0.194977
H83	H	1.072663	-0.585325	0.034143
H84	H	0.971113	-0.092138	-0.439440
