data_functionalizedCrystal
_audit_creation_method	'MofGen! by Chris Wilmer'
_symmetry_space_group_name_H-M	'P1'
_symmetry_Int_Tables_number	1
_symmetry_cell_setting	triclinic
loop_
_symmetry_equiv_pos_as_xyz
  x,y,z
_cell_length_a	10.723022
_cell_length_b	10.723024
_cell_length_c	14.586319
_cell_angle_alpha	90.002624
_cell_angle_beta	90.003205
_cell_angle_gamma	84.467548
loop_
_atom_site_label
_atom_site_type_symbol
_atom_site_fract_x
_atom_site_fract_y
_atom_site_fract_z
O1	O	1.657188	0.175016	0.076232
O2	O	2.157188	0.675016	0.576232
O3	O	1.294035	0.191772	0.076235
O4	O	1.794035	0.691772	0.576235
O5	O	1.483988	0.001818	0.076230
O6	O	1.983988	0.501818	0.576230
O7	O	1.467235	0.364970	0.076237
O8	O	1.967235	0.864970	0.576237
O9	O	1.483975	0.001815	-0.076251
O10	O	1.983975	0.501815	0.423749
O11	O	1.294022	0.191769	-0.076246
O12	O	1.794022	0.691769	0.423754
O13	O	1.657175	0.175013	-0.076249
O14	O	2.157175	0.675013	0.423751
Cu15	Cu	1.475597	0.183391	-0.090170
Cu16	Cu	1.975597	0.683391	0.409830
Cu17	Cu	1.475613	0.183394	0.090156
Cu18	Cu	1.975613	0.683394	0.590156
O19	O	1.467222	0.364967	-0.076244
O20	O	1.967222	0.864967	0.423756
C21	C	1.247529	0.190551	-0.000005
C22	C	1.747529	0.690551	0.499995
C23	C	1.108975	0.186904	-0.000004
C24	C	1.608975	0.686904	0.499996
C25	C	0.890796	0.289421	-0.000000
C26	C	1.390796	0.789421	0.500000
C27	C	1.033999	0.293192	-0.000002
C28	C	1.533999	0.793192	0.499998
C29	C	1.482763	-0.044683	-0.000009
C30	C	1.982763	0.455317	0.499991
C31	C	1.479115	-0.183238	-0.000006
C32	C	1.979115	0.316762	0.499994
C33	C	1.585403	-0.258221	-0.000006
C34	C	2.085403	0.241779	0.499994
C35	C	1.581635	-0.401424	-0.000002
C36	C	2.081635	0.098576	0.499998
C37	C	1.703681	0.176234	-0.000007
C38	C	2.203681	0.676234	0.499993
C39	C	1.842235	0.179881	-0.000002
C40	C	2.342235	0.679881	0.499998
C41	C	1.468448	0.411468	-0.000003
C42	C	1.968448	0.911468	0.499997
C43	C	1.472095	0.550023	0.000000
C44	C	1.972095	1.050023	0.500000
N45	N	1.475595	0.183388	-0.217002
N46	N	1.975595	0.683388	0.282998
C47	C	1.559735	0.099305	-0.452011
C48	C	2.059735	0.599305	0.047989
C49	C	1.559738	0.099302	-0.547992
C50	C	2.059738	0.599302	-0.047992
C51	C	1.391476	0.267475	-0.547997
C52	C	1.891476	0.767475	-0.047997
C53	C	1.391468	0.267471	-0.452017
C54	C	1.891468	0.767471	0.047983
C55	C	1.475604	0.183387	-0.404027
C56	C	1.975604	0.683387	0.095973
C57	C	1.475616	0.183388	-0.595987
C58	C	1.975616	0.683388	-0.095987
C59	C	1.475619	0.183386	-0.700055
C60	C	1.975619	0.683386	-0.200055
C61	C	1.475599	0.183388	-0.299953
C62	C	1.975599	0.683388	0.200047
N63	N	1.475625	0.183388	0.216988
N64	N	1.975625	0.683388	0.716988
H65	H	0.906678	0.088892	0.000002
H66	H	1.406678	0.588892	0.500002
F67	F	1.649277	0.009812	-0.400939
F68	F	2.149277	0.509812	0.099061
F69	F	1.301940	0.356961	-0.599078
F70	F	1.801940	0.856961	-0.099078
F71	F	1.353154	-0.365770	-0.000007
F72	F	1.853154	0.134230	0.499993
F73	F	1.649279	0.009808	-0.599057
F74	F	2.149279	0.509808	-0.099057
H75	H	1.075811	0.386980	-0.000005
H76	H	1.575811	0.886980	0.499995
F77	F	1.707992	-0.203564	-0.000001
F78	F	2.207992	0.296436	0.499999
H79	H	1.672625	-0.465857	-0.000006
H80	H	2.172625	0.034143	0.499994
F81	F	1.356525	-0.237894	0.000003
F82	F	1.856525	0.262106	0.500003
F83	F	1.301915	0.356962	-0.400945
F84	F	1.801915	0.856962	0.099055
H85	H	0.826354	0.380409	0.000007
H86	H	1.326354	0.880409	0.500007
H87	H	1.067171	0.093113	0.000019
H88	H	1.567171	0.593113	0.500019
