data_functionalizedCrystal
_audit_creation_method	'MofGen! by Chris Wilmer'
_symmetry_space_group_name_H-M	'P1'
_symmetry_Int_Tables_number	1
_symmetry_cell_setting	triclinic
loop_
_symmetry_equiv_pos_as_xyz
  x,y,z
_cell_length_a	14.971486
_cell_length_b	16.109301
_cell_length_c	13.448316
_cell_angle_alpha	89.991973
_cell_angle_beta	89.998199
_cell_angle_gamma	83.537805
loop_
_atom_site_label
_atom_site_type_symbol
_atom_site_fract_x
_atom_site_fract_y
_atom_site_fract_z
O1	O	1.186791	0.108348	-0.082581
O2	O	0.926372	0.121323	-0.082608
O3	O	1.063736	-0.006187	-0.082584
O4	O	1.049428	0.235857	-0.082605
O5	O	1.063718	-0.006195	0.082800
O6	O	0.926355	0.121315	0.082776
O7	O	1.186774	0.108340	0.082803
Cu8	Cu	1.056563	0.114827	0.097890
Cu9	Cu	1.056583	0.114836	-0.097695
O10	O	1.049410	0.235850	0.082778
C11	C	0.893040	0.120739	0.000080
C12	C	0.793745	0.119000	0.000070
C13	C	0.736412	0.193908	0.000065
C14	C	0.643115	0.192269	0.000080
C15	C	0.607153	0.115721	0.000093
C16	C	0.664494	0.040807	0.000101
C17	C	0.757789	0.042447	0.000093
C18	C	0.470036	0.037395	0.000115
C19	C	0.376734	0.035755	0.000121
C20	C	0.355362	0.187217	0.000102
C21	C	0.448657	0.188857	0.000094
C22	C	0.505991	0.113942	0.000100
C23	C	1.063147	-0.037166	0.000109
C24	C	1.061410	-0.129464	0.000110
C25	C	1.138878	-0.351640	0.000102
C26	C	1.137239	-0.438362	0.000094
C27	C	0.974262	-0.418691	0.000081
C28	C	0.975902	-0.331970	0.000082
C29	C	1.058213	-0.298447	0.000098
C30	C	1.054933	-0.471890	0.000088
C31	C	1.053155	-0.565918	0.000079
C32	C	1.059992	-0.204413	0.000105
C33	C	1.220106	0.108924	0.000112
C34	C	1.319401	0.110663	0.000116
C35	C	1.049999	0.266829	0.000084
C36	C	1.051736	0.359127	0.000076
N37	N	1.056555	0.114820	0.235454
N38	N	1.056598	0.114837	-0.235260
C39	C	1.117398	0.058382	0.287506
C40	C	1.117404	0.058381	0.391609
C41	C	1.056570	0.114823	0.443659
C42	C	0.995720	0.171264	0.391601
C43	C	0.995711	0.171260	0.287499
C44	C	0.995745	0.171269	0.608581
C45	C	0.995755	0.171275	0.712689
C46	C	1.117438	0.058391	0.712690
C47	C	1.117429	0.058387	0.608589
C48	C	1.056580	0.114829	0.556538
H49	H	0.308675	0.248215	0.000101
H50	H	0.347458	-0.026577	0.000133
H51	H	0.946216	0.217235	0.755063
O52	O	0.897480	-0.280378	-0.000054
C53	C	0.758721	-0.236981	-0.085779
C54	C	0.847484	-0.295469	-0.085731
H55	H	0.718283	-0.249150	-0.155052
H56	H	0.718144	-0.249195	-0.016616
H57	H	0.774055	-0.169248	-0.085731
H58	H	0.832231	-0.363222	-0.085814
H59	H	0.888035	-0.283183	-0.154887
H60	H	0.907247	-0.445996	0.000070
H61	H	0.516716	-0.023609	0.000122
H62	H	0.635206	-0.021520	0.000126
H63	H	1.166940	0.012424	0.245133
O64	O	1.218909	-0.319212	0.000062
C65	C	1.380387	-0.347881	0.000118
C66	C	1.289813	-0.384712	0.000147
H67	H	1.437736	-0.400819	0.000208
H68	H	1.385291	-0.307795	-0.069112
H69	H	1.385182	-0.307751	0.069314
H70	H	1.284956	-0.424879	-0.069002
H71	H	1.284947	-0.424750	0.069422
O72	O	1.176604	0.003535	0.442017
C73	C	1.297282	-0.108442	0.431032
C74	C	1.230294	-0.046363	0.373823
H75	H	1.340696	-0.148812	0.375922
H76	H	1.342009	-0.072506	0.479723
H77	H	1.258683	-0.150006	0.479817
H78	H	1.268820	-0.004783	0.324984
H79	H	1.185568	-0.082350	0.325195
O80	O	1.176511	0.003446	0.763135
C81	C	1.228960	-0.141038	0.795046
C82	C	1.162020	-0.078914	0.737835
H83	H	1.217255	-0.207639	0.774628
H84	H	1.300607	-0.130154	0.774542
H85	H	1.218533	-0.131304	0.878386
H86	H	1.172365	-0.088610	0.654482
H87	H	1.090397	-0.089813	0.758422
O88	O	0.813521	-0.030297	0.000270
C89	C	0.931300	-0.116330	0.085923
C90	C	0.868223	-0.033923	0.085853
H91	H	0.975556	-0.119280	0.155099
H92	H	0.889618	-0.171355	0.085996
H93	H	0.975470	-0.119336	0.016676
H94	H	0.824040	-0.030835	0.155088
H95	H	0.909959	0.021064	0.085729
H96	H	0.477934	0.251189	0.000074
O97	O	0.936605	0.226178	0.558171
C98	C	0.815886	0.338119	0.569149
C99	C	0.882820	0.275991	0.626362
H100	H	0.772371	0.378397	0.624257
H101	H	0.854440	0.379767	0.520425
H102	H	0.771252	0.302140	0.520398
H103	H	0.927471	0.311903	0.675168
H104	H	0.844210	0.234344	0.675023
O105	O	0.936576	0.226166	0.237087
C106	C	0.815849	0.338098	0.248066
C107	C	0.882789	0.275977	0.305279
H108	H	0.772332	0.378375	0.303174
H109	H	0.854397	0.379749	0.199339
H110	H	0.771217	0.302114	0.199318
H111	H	0.927438	0.311894	0.354081
H112	H	0.844185	0.234327	0.353944
H113	H	0.765684	0.256242	0.000053
O114	O	1.215574	-0.490066	-0.000076
C115	C	1.308294	-0.599410	-0.085726
C116	C	1.219552	-0.540890	-0.085666
H117	H	1.311532	-0.640528	-0.154908
H118	H	1.367436	-0.560590	-0.085780
H119	H	1.311585	-0.640475	-0.016485
H120	H	1.216174	-0.499813	-0.154895
H121	H	1.160453	-0.579759	-0.085560
H122	H	0.596437	0.253267	0.000074
H123	H	1.166969	0.012432	0.566210
H124	H	0.946183	0.217217	0.433986
