data_functionalizedCrystal
_audit_creation_method	'MofGen! by Chris Wilmer'
_symmetry_space_group_name_H-M	'P1'
_symmetry_Int_Tables_number	1
_symmetry_cell_setting	triclinic
loop_
_symmetry_equiv_pos_as_xyz
  x,y,z
_cell_length_a	23.532407
_cell_length_b	8.559649
_cell_length_c	22.010155
_cell_angle_alpha	89.992712
_cell_angle_beta	89.999994
_cell_angle_gamma	76.313671
loop_
_atom_site_label
_atom_site_type_symbol
_atom_site_fract_x
_atom_site_fract_y
_atom_site_fract_z
O1	O	-0.019342	2.120447	-0.050517
O2	O	0.010090	1.654776	-0.050522
O3	O	-0.088144	1.901654	-0.050508
O4	O	0.078891	1.873569	-0.050531
O5	O	-0.088128	1.901609	0.050542
O6	O	0.010105	1.654731	0.050528
O7	O	-0.019326	2.120402	0.050534
Cu8	Cu	-0.004609	1.887562	0.059758
Cu9	Cu	-0.004628	1.887615	-0.059746
O10	O	0.078907	1.873524	0.050520
C11	C	-0.109322	1.900916	0.000019
C12	C	-0.172450	1.898766	0.000023
C13	C	0.012328	1.595188	0.000003
C14	C	0.018967	1.417702	0.000001
C15	C	-0.021565	2.179990	0.000008
C16	C	-0.028204	2.357475	0.000005
C17	C	-0.577085	2.031376	-0.000009
C18	C	-0.636402	2.029379	-0.000013
O19	O	-0.678276	2.152310	-0.000034
N20	N	-0.652905	1.882610	-0.000014
C21	C	-0.610087	1.737829	-0.000017
O22	O	-0.629570	1.612808	-0.000019
C23	C	-0.550771	1.739829	-0.000017
C24	C	-0.534272	1.886607	-0.000010
C25	C	-0.560585	2.178143	-0.000002
C26	C	-0.501273	2.180140	0.000004
C27	C	-0.458460	2.035370	0.000003
C28	C	-0.474960	1.888604	-0.000004
C29	C	-0.507954	1.595049	-0.000024
C30	C	-0.448636	1.597061	-0.000024
C31	C	-0.432137	1.743840	-0.000017
C32	C	-0.372834	1.745831	0.000001
N33	N	-0.356331	1.892599	0.000002
C34	C	-0.399144	2.037369	0.000003
C35	C	-0.734655	1.733642	-0.000019
C36	C	-0.793969	1.731641	-0.000015
C37	C	-0.820281	2.023192	-0.000012
C38	C	-0.760965	2.025191	-0.000012
C39	C	-0.718152	1.880411	-0.000018
C40	C	-0.274582	2.041551	0.000016
C41	C	-0.215262	2.043535	0.000024
C42	C	-0.188956	1.751986	0.000018
C43	C	-0.248270	1.750001	0.000013
C44	C	-0.291083	1.894797	0.000010
O45	O	-0.330928	1.622964	0.000020
O46	O	-0.379651	2.162370	-0.000003
C47	C	0.100085	1.874262	-0.000008
C48	C	0.163213	1.876412	-0.000017
N49	N	-0.004597	1.887536	0.143810
C50	C	-0.048116	1.996937	0.563596
C51	C	-0.048120	1.996945	0.627203
O52	O	-0.085113	2.089898	0.660100
N53	N	-0.004635	1.887612	0.659017
C54	C	0.038854	1.778255	0.627220
O55	O	0.075841	1.685259	0.660121
C56	C	0.038855	1.778241	0.563614
C57	C	-0.004630	1.887592	0.531803
C58	C	-0.091597	2.106277	0.531785
C59	C	-0.091593	2.106272	0.468182
C60	C	-0.048107	1.996926	0.436389
C61	C	-0.004625	1.887586	0.468200
C62	C	0.082340	1.668878	0.531818
C63	C	0.082337	1.668873	0.468207
C64	C	0.038852	1.778223	0.436397
C65	C	0.038865	1.778234	0.372804
N66	N	-0.004620	1.887567	0.340990
C67	C	-0.048106	1.996912	0.372783
C68	C	0.038848	1.778290	0.760798
C69	C	0.038850	1.778310	0.824403
C70	C	-0.048124	1.996998	0.824382
C71	C	-0.048123	1.996984	0.760775
C72	C	-0.004637	1.887622	0.728984
C73	C	-0.048093	1.996893	0.239211
C74	C	-0.048083	1.996882	0.175603
C75	C	0.038889	1.778189	0.175630
C76	C	0.038882	1.778205	0.239233
C77	C	-0.004614	1.887563	0.271022
O78	O	0.075839	1.685324	0.339867
O79	O	-0.085091	2.089878	0.339874
N80	N	-0.004638	1.887651	0.856201
H81	H	-0.201834	2.163065	0.000032
H82	H	0.064431	2.333484	-0.000010
O83	O	-0.744912	2.167729	0.000097
C84	C	-0.693191	2.339153	0.052427
C85	C	-0.711337	2.177681	0.052389
H86	H	-0.666033	2.347236	0.094694
H87	H	-0.733966	2.442334	0.052468
H88	H	-0.666107	2.347381	0.010117
H89	H	-0.738408	2.169295	0.094692
H90	H	-0.670539	2.074577	0.052316
O91	O	0.081200	1.672131	0.144766
C92	C	0.184374	1.576759	0.125325
C93	C	0.136519	1.696993	0.160307
H94	H	0.229111	1.596795	0.137887
H95	H	0.176950	1.595544	0.074394
H96	H	0.182487	1.448835	0.137830
H97	H	0.138378	1.824964	0.147854
H98	H	0.143959	1.678068	0.211230
O99	O	-0.082460	2.457879	-0.000093
C100	C	-0.174551	2.543152	-0.052413
C101	C	-0.113121	2.429382	-0.052384
H102	H	-0.199362	2.520129	-0.094679
H103	H	-0.170459	2.673228	-0.052449
H104	H	-0.199326	2.520247	-0.010102
H105	H	-0.088312	2.452141	-0.094688
H106	H	-0.117255	2.299343	-0.052316
O107	O	0.124550	1.562796	0.562803
C108	C	0.163078	1.465752	0.660789
C109	C	0.115248	1.586014	0.625777
H110	H	0.155567	1.484459	0.711710
H111	H	0.207834	1.485832	0.648326
H112	H	0.161220	1.337839	0.648246
H113	H	0.117052	1.713974	0.638301
H114	H	0.070513	1.565793	0.638243
O115	O	-0.090385	2.103167	0.144797
C116	C	-0.176631	2.320139	0.151500
C117	C	-0.128768	2.199842	0.186460
H118	H	-0.207670	2.398354	0.185170
H119	H	-0.202139	2.251650	0.121740
H120	H	-0.155488	2.399548	0.121702
H121	H	-0.149864	2.120402	0.216291
H122	H	-0.103265	2.268431	0.216182
O123	O	-0.090389	2.102905	0.270114
C124	C	-0.169692	2.138233	0.341941
C125	C	-0.121830	2.017994	0.306971
H126	H	-0.195117	2.069630	0.371758
H127	H	-0.200806	2.216354	0.308300
H128	H	-0.148555	2.217747	0.371689
H129	H	-0.142916	1.938376	0.277222
H130	H	-0.090721	1.939986	0.340645
H131	H	-0.521376	1.475527	-0.000034
H132	H	-0.127003	2.195309	0.442285
H133	H	-0.127011	2.195320	0.557665
H134	H	-0.309434	2.159458	0.000011
O135	O	-0.090424	2.103259	0.729971
C136	C	-0.176668	2.320235	0.736681
C137	C	-0.128803	2.199939	0.771637
H138	H	-0.207703	2.398455	0.770353
H139	H	-0.202181	2.251744	0.706926
H140	H	-0.155528	2.399639	0.706877
H141	H	-0.149895	2.120504	0.801474
H142	H	-0.103295	2.268530	0.801354
H143	H	-0.413779	1.479161	-0.000030
O144	O	0.081172	1.672209	0.270162
C145	C	0.160461	1.636893	0.342009
C146	C	0.112605	1.757126	0.307017
H147	H	0.185880	1.705501	0.371824
H148	H	0.191582	1.558771	0.308382
H149	H	0.139319	1.557380	0.371759
H150	H	0.133696	1.836744	0.277266
H151	H	0.081489	1.835136	0.340677
H152	H	0.117748	1.579812	0.442326
O153	O	-0.602223	2.318679	0.000081
C154	C	-0.684429	2.485675	0.052459
C155	C	-0.637318	2.326432	0.052429
H156	H	-0.712808	2.492011	0.094784
H157	H	-0.712902	2.492093	0.010200
H158	H	-0.662424	2.590875	0.052433
H159	H	-0.659274	2.221143	0.052476
H160	H	-0.608849	2.320155	0.094684
O161	O	0.081123	1.671944	0.855206
C162	C	0.167408	1.455098	0.848497
C163	C	0.119562	1.575458	0.813540
H164	H	0.198506	1.377081	0.814825
H165	H	0.146314	1.375503	0.878261
H166	H	0.192848	1.523698	0.878290
H167	H	0.094106	1.506989	0.783714
H168	H	0.140692	1.655052	0.783814
H169	H	-0.487846	2.299661	0.000007
H170	H	-0.855150	2.141071	-0.000014
H171	H	-0.807396	1.612120	-0.000010
H172	H	-0.083534	2.086031	0.850279
H173	H	-0.699798	1.615737	-0.000018
O174	O	-0.264375	1.607528	-0.000070
C175	C	-0.316037	1.436056	-0.052455
C176	C	-0.297855	1.597478	-0.052423
H177	H	-0.343099	1.427864	-0.094785
H178	H	-0.343191	1.427787	-0.010200
H179	H	-0.275239	1.332953	-0.052423
H180	H	-0.338621	1.700674	-0.052477
H181	H	-0.270680	1.605607	-0.094674
H182	H	-0.154088	1.634119	0.000020
H183	H	0.074264	1.689238	0.734917
