data_functionalizedCrystal
_audit_creation_method	'MofGen! by Chris Wilmer'
_symmetry_space_group_name_H-M	'P1'
_symmetry_Int_Tables_number	1
_symmetry_cell_setting	triclinic
loop_
_symmetry_equiv_pos_as_xyz
  x,y,z
_cell_length_a	11.169417
_cell_length_b	12.594516
_cell_length_c	11.169409
_cell_angle_alpha	89.968646
_cell_angle_beta	89.980176
_cell_angle_gamma	90.016931
loop_
_atom_site_label
_atom_site_type_symbol
_atom_site_fract_x
_atom_site_fract_y
_atom_site_fract_z
Zn1	Zn	1.834915	-0.423631	-0.678551
Zn2	Zn	1.834784	-0.601657	-0.477871
Zn3	Zn	1.634201	-0.423696	-0.477885
Zn4	Zn	1.634188	-0.601571	-0.678516
O5	O	1.734522	-0.512639	-0.578206
O6	O	2.002847	-0.447256	-0.651939
O7	O	1.808127	-0.578114	-0.309923
O8	O	1.660886	-0.274741	-0.504524
O9	O	2.002751	-0.578051	-0.504501
O10	O	1.808349	-0.274694	-0.651953
O11	O	1.660759	-0.447366	-0.309934
O12	O	1.466249	-0.447282	-0.504491
O13	O	1.660864	-0.577903	-0.846471
O14	O	1.466240	-0.577966	-0.651893
O15	O	1.808337	-0.447172	-0.846496
O16	O	1.808115	-0.750592	-0.504467
O17	O	1.660738	-0.750528	-0.651880
C18	C	1.422697	-0.512623	-0.578190
C19	C	1.289297	-0.512641	-0.578212
C20	C	1.734443	-0.789180	-0.578194
C21	C	1.734519	-0.907485	-0.578229
C22	C	1.654353	-0.976742	-0.658351
C23	C	1.625107	-1.047617	-0.548838
C24	C	1.763875	-1.047410	-0.687761
C25	C	1.705215	-0.976801	-0.468658
C26	C	1.844034	-0.976588	-0.607656
C27	C	1.814829	-1.047430	-0.498067
C28	C	2.047564	-0.512656	-0.578222
C29	C	2.180964	-0.512663	-0.578229
C30	C	1.734614	-0.512520	-0.891249
C31	C	1.734653	-0.512470	-1.024649
C32	C	1.734634	-0.235018	-0.578244
C33	C	1.734681	-0.116712	-0.578260
C34	C	1.734499	-0.512680	-0.266381
C35	C	1.734692	-0.512430	-0.132982
H36	H	1.532568	-1.078839	-0.523974
O37	O	1.573249	-0.939882	-0.739080
C38	C	1.515787	-1.026341	-0.794967
H39	H	1.522026	-1.099277	-0.734808
H40	H	1.561206	-1.043705	-0.884253
C41	C	1.375573	-0.909224	-0.890557
C42	C	1.383228	-0.998803	-0.816664
H43	H	1.293806	-0.892236	-0.903946
H44	H	1.414289	-0.850974	-0.852909
H45	H	1.413430	-0.923706	-0.964954
H46	H	1.345385	-0.984315	-0.742264
H47	H	1.344503	-1.057050	-0.854300
O48	O	1.675339	-0.939912	-0.358210
C49	C	1.570754	-0.877690	-0.366553
H50	H	1.518573	-0.901216	-0.450133
H51	H	1.596337	-0.790200	-0.372329
C52	C	1.556531	-0.867232	-0.152306
C53	C	1.492436	-0.896133	-0.254956
H54	H	1.508222	-0.878604	-0.083466
H55	H	1.626995	-0.909149	-0.146684
H56	H	1.577847	-0.794325	-0.157136
H57	H	1.471135	-0.969041	-0.250131
H58	H	1.421967	-0.854229	-0.260574
O59	O	1.895654	-1.084186	-0.417000
C60	C	1.864362	-1.047993	-0.301734
H61	H	1.764773	-1.028319	-0.299363
H62	H	1.918416	-0.973791	-0.279479
C63	C	2.014005	-1.159435	-0.212000
C64	C	1.891686	-1.135279	-0.209085
H65	H	2.030864	-1.213273	-0.154848
H66	H	2.035091	-1.183816	-0.289657
H67	H	2.059036	-1.097592	-0.193458
H68	H	1.846658	-1.197117	-0.227642
H69	H	1.870593	-1.110910	-0.131428
O70	O	1.954370	-0.939383	-0.637585
C71	C	1.984903	-0.975314	-0.753159
H72	H	1.899843	-0.995239	-0.804868
H73	H	2.043190	-1.049309	-0.745646
C74	C	2.158892	-0.863220	-0.756196
C75	C	2.054420	-0.887683	-0.819709
H76	H	2.201778	-0.809168	-0.797247
H77	H	2.138325	-0.839015	-0.678330
H78	H	2.207450	-0.924890	-0.749940
H79	H	2.005857	-0.826018	-0.825952
H80	H	2.074981	-0.911876	-0.897578
O81	O	1.793569	-1.084539	-0.798157
C82	C	1.898751	-1.145985	-0.790002
H83	H	1.909458	-1.176552	-0.694520
H84	H	1.979399	-1.094972	-0.814719
C85	C	1.877092	-1.203178	-0.993960
C86	C	1.890236	-1.240730	-0.876689
H87	H	1.871843	-1.261619	-1.047436
H88	H	1.806231	-1.161778	-0.999457
H89	H	1.944301	-1.160668	-1.014541
H90	H	1.823021	-1.283228	-0.856106
H91	H	1.961086	-1.282139	-0.871192
