data_functionalizedCrystal
_audit_creation_method	'MofGen! by Chris Wilmer'
_symmetry_space_group_name_H-M	'P1'
_symmetry_Int_Tables_number	1
_symmetry_cell_setting	triclinic
loop_
_symmetry_equiv_pos_as_xyz
  x,y,z
_cell_length_a	16.120490
_cell_length_b	19.121063
_cell_length_c	16.120297
_cell_angle_alpha	84.820568
_cell_angle_beta	89.870317
_cell_angle_gamma	89.683840
loop_
_atom_site_label
_atom_site_type_symbol
_atom_site_fract_x
_atom_site_fract_y
_atom_site_fract_z
Zn1	Zn	1.228536	-0.355804	0.551560
Zn2	Zn	1.478536	-0.105804	0.801560
Zn3	Zn	1.728536	0.144196	1.051560
Zn4	Zn	1.978536	0.394196	1.301560
Zn5	Zn	1.229545	-0.467588	0.417851
Zn6	Zn	1.479545	-0.217588	0.667851
Zn7	Zn	1.729545	0.032412	0.917851
Zn8	Zn	1.979545	0.282412	1.167851
Zn9	Zn	1.097156	-0.343933	0.404913
Zn10	Zn	1.347156	-0.093933	0.654913
Zn11	Zn	1.597156	0.156067	0.904913
Zn12	Zn	1.847156	0.406067	1.154913
Zn13	Zn	1.083536	-0.466935	0.549792
Zn14	Zn	1.333536	-0.216935	0.799792
Zn15	Zn	1.583536	0.033065	1.049792
Zn16	Zn	1.833536	0.283065	1.299792
O17	O	1.159693	-0.408565	0.481029
O18	O	1.409693	-0.158565	0.731029
O19	O	1.659693	0.091435	0.981029
O20	O	1.909693	0.341435	1.231029
O21	O	1.344758	-0.375875	0.539977
O22	O	1.594758	-0.125875	0.789977
O23	O	1.844758	0.124125	1.039977
O24	O	2.094758	0.374125	1.289977
O25	O	1.218106	-0.446490	0.299544
O26	O	1.468106	-0.196490	0.549544
O27	O	1.718106	0.053510	0.799544
O28	O	1.968106	0.303510	1.049544
O29	O	1.119862	-0.247249	0.419691
O30	O	1.369862	0.002751	0.669691
O31	O	1.619862	0.252751	0.919691
O32	O	1.869862	0.502751	1.169691
O33	O	1.345500	-0.458001	0.441742
O34	O	1.595500	-0.208001	0.691742
O35	O	1.845500	0.041999	0.941742
O36	O	2.095500	0.291999	1.191742
O37	O	1.216386	-0.255971	0.527432
O38	O	1.466386	-0.005971	0.777432
O39	O	1.716386	0.244029	1.027432
O40	O	1.966386	0.494029	1.277432
O41	O	1.120841	-0.355641	0.290039
O42	O	1.370841	-0.105641	0.540039
O43	O	1.620841	0.144359	0.790039
O44	O	1.870841	0.394359	1.040039
O45	O	0.979261	-0.355007	0.417977
O46	O	1.229261	-0.105007	0.667977
O47	O	1.479261	0.144993	0.917977
O48	O	1.729261	0.394993	1.167977
O49	O	1.096647	-0.456888	0.666617
O50	O	1.346647	-0.206888	0.916617
O51	O	1.596647	0.043112	1.166617
O52	O	1.846647	0.293112	1.416617
O53	O	0.969254	-0.445376	0.524419
O54	O	1.219254	-0.195376	0.774419
O55	O	1.469254	0.054624	1.024419
O56	O	1.719254	0.304624	1.274419
O57	O	1.203178	-0.375241	0.667915
O58	O	1.453178	-0.125241	0.917915
O59	O	1.703178	0.124759	1.167915
O60	O	1.953178	0.374759	1.417915
O61	O	1.204899	-0.565760	0.440028
O62	O	1.454899	-0.315760	0.690028
O63	O	1.704899	-0.065760	0.940028
O64	O	1.954899	0.184240	1.190028
O65	O	1.097626	-0.565280	0.536965
O66	O	1.347626	-0.315280	0.786965
O67	O	1.597626	-0.065280	1.036965
O68	O	1.847626	0.184720	1.286965
C69	C	0.944157	-0.398833	0.469603
C70	C	1.194157	-0.148833	0.719603
C71	C	1.444157	0.101167	0.969603
C72	C	1.694157	0.351167	1.219603
C73	C	0.851948	-0.394688	0.464736
C74	C	1.101948	-0.144688	0.714736
C75	C	1.351948	0.105312	0.964736
C76	C	1.601948	0.355312	1.214736
C77	C	1.149916	-0.590999	0.489728
C78	C	1.399916	-0.340999	0.739728
C79	C	1.649916	-0.090999	0.989728
C80	C	1.899916	0.159001	1.239728
C81	C	1.145807	-0.669049	0.493481
C82	C	1.395807	-0.419049	0.743481
C83	C	1.645807	-0.169049	0.993481
C84	C	1.895807	0.080951	1.243481
C85	C	0.637106	-0.430063	0.506278
C86	C	0.887106	-0.180063	0.756278
C87	C	1.137106	0.069937	1.006278
C88	C	1.387106	0.319937	1.256278
C89	C	0.683125	-0.387125	0.455848
C90	C	0.933125	-0.137125	0.705848
C91	C	1.183125	0.112875	0.955848
C92	C	1.433125	0.362875	1.205848
C93	C	0.777067	-0.391334	0.460795
C94	C	1.027067	-0.141334	0.710795
C95	C	1.277067	0.108666	0.960795
C96	C	1.527067	0.358666	1.210795
C97	C	0.543156	-0.425855	0.501333
C98	C	0.793156	-0.175855	0.751333
C99	C	1.043156	0.074145	1.001333
C100	C	1.293156	0.324145	1.251333
C101	C	1.199767	-0.705948	0.444821
C102	C	1.449767	-0.455948	0.694821
C103	C	1.699767	-0.205948	0.944821
C104	C	1.949767	0.044052	1.194821
C105	C	1.195908	-0.779285	0.448356
C106	C	1.445908	-0.529285	0.698356
C107	C	1.695908	-0.279285	0.948356
C108	C	1.945908	-0.029285	1.198356
C109	C	1.138084	-0.815722	0.500548
C110	C	1.388084	-0.565722	0.750548
C111	C	1.638084	-0.315722	1.000548
C112	C	1.888084	-0.065722	1.250548
C113	C	1.084121	-0.778818	0.549213
C114	C	1.334121	-0.528818	0.799213
C115	C	1.584121	-0.278818	1.049213
C116	C	1.834121	-0.028818	1.299213
C117	C	1.087985	-0.705483	0.545682
C118	C	1.337985	-0.455483	0.795682
C119	C	1.587985	-0.205483	1.045682
C120	C	1.837985	0.044517	1.295682
C121	C	1.123625	-1.037136	0.513736
C122	C	1.373625	-0.787136	0.763736
C123	C	1.623625	-0.537136	1.013736
C124	C	1.873625	-0.287136	1.263736
C125	C	1.119763	-1.110477	0.517262
C126	C	1.369763	-0.860477	0.767262
C127	C	1.619763	-0.610477	1.017262
C128	C	1.869763	-0.360477	1.267262
C129	C	1.231551	-1.110938	0.416406
C130	C	1.481551	-0.860938	0.666406
C131	C	1.731551	-0.610938	0.916406
C132	C	1.981551	-0.360938	1.166406
C133	C	1.235406	-1.037601	0.412875
C134	C	1.485406	-0.787601	0.662875
C135	C	1.735406	-0.537601	0.912875
C136	C	1.985406	-0.287601	1.162875
C137	C	1.181447	-1.000704	0.461544
C138	C	1.431447	-0.750704	0.711544
C139	C	1.681447	-0.500704	0.961544
C140	C	1.931447	-0.250704	1.211544
C141	C	1.134136	-0.890684	0.504160
C142	C	1.384136	-0.640684	0.754160
C143	C	1.634136	-0.390684	1.004160
C144	C	1.884136	-0.140684	1.254160
C145	C	1.185399	-0.925744	0.457935
C146	C	1.435399	-0.675744	0.707935
C147	C	1.685399	-0.425744	0.957935
C148	C	1.935399	-0.175744	1.207935
C149	C	1.376071	-0.418335	0.492500
C150	C	1.626071	-0.168335	0.742500
C151	C	1.876071	0.081665	0.992500
C152	C	2.126071	0.331665	1.242500
C153	C	1.468278	-0.422499	0.497388
C154	C	1.718278	-0.172499	0.747388
C155	C	1.968278	0.077501	0.997388
C156	C	2.218278	0.327501	1.247388
C157	C	1.148281	-0.417316	0.698342
C158	C	1.398281	-0.167316	0.948342
C159	C	1.648281	0.082684	1.198342
C160	C	1.898281	0.332684	1.448342
C161	C	1.143418	-0.421045	0.790948
C162	C	1.393418	-0.171045	1.040948
C163	C	1.643418	0.078955	1.290948
C164	C	1.893418	0.328955	1.540948
C165	C	1.169531	-0.225420	0.472315
C166	C	1.419531	0.024580	0.722315
C167	C	1.669531	0.274580	0.972315
C168	C	1.919531	0.524580	1.222315
C169	C	1.173723	-0.147375	0.468602
C170	C	1.423723	0.102625	0.718602
C171	C	1.673723	0.352625	0.968602
C172	C	1.923723	0.602625	1.218602
C173	C	1.171112	-0.399800	0.264561
C174	C	1.421112	-0.149800	0.514561
C175	C	1.671112	0.100200	0.764561
C176	C	1.921112	0.350200	1.014561
C177	C	1.176146	-0.395880	0.171955
C178	C	1.426146	-0.145880	0.421955
C179	C	1.676146	0.104120	0.671955
C180	C	1.926146	0.354120	0.921955
C181	C	1.134509	-0.427836	0.960498
C182	C	1.384509	-0.177836	1.210498
C183	C	1.634509	0.072164	1.460498
C184	C	1.884509	0.322164	1.710498
C185	C	1.185052	-0.389090	1.002410
C186	C	1.435052	-0.139090	1.252410
C187	C	1.685052	0.110910	1.502410
C188	C	1.935052	0.360910	1.752410
C189	C	1.180095	-0.392869	1.096754
C190	C	1.430095	-0.142869	1.346754
C191	C	1.680095	0.107131	1.596754
C192	C	1.930095	0.357131	1.846754
C193	C	1.139465	-0.424058	0.866146
C194	C	1.389465	-0.174058	1.116146
C195	C	1.639465	0.075942	1.366146
C196	C	1.889465	0.325942	1.616146
H197	H	0.651971	-0.347205	0.408959
H198	H	0.901971	-0.097205	0.658959
H199	H	1.151971	0.152795	0.908959
H200	H	1.401971	0.402795	1.158959
H201	H	0.668258	-0.469981	0.553163
H202	H	0.918258	-0.219981	0.803163
H203	H	1.168258	0.030019	1.053163
H204	H	1.418258	0.280019	1.303163
H205	H	1.282491	-1.007936	0.370377
H206	H	1.532491	-0.757936	0.620377
H207	H	1.782491	-0.507936	0.870377
H208	H	2.032491	-0.257936	1.120377
H209	H	1.087519	-0.463843	0.995467
H210	H	1.337519	-0.213843	1.245467
H211	H	1.587519	0.036157	1.495467
H212	H	1.837519	0.286157	1.745467
H213	H	1.246850	-0.676285	0.402317
H214	H	1.496850	-0.426285	0.652317
H215	H	1.746850	-0.176285	0.902317
H216	H	1.996850	0.073715	1.152317
H217	H	1.239847	-0.809324	0.408731
H218	H	1.489847	-0.559324	0.658731
H219	H	1.739847	-0.309324	0.908731
H220	H	1.989847	-0.059324	1.158731
H221	H	1.275482	-1.140988	0.376784
H222	H	1.525482	-0.890988	0.626784
H223	H	1.775482	-0.640988	0.876784
H224	H	2.025482	-0.390988	1.126784
H225	H	1.232046	-0.353080	0.967439
H226	H	1.482046	-0.103080	1.217439
H227	H	1.732046	0.146920	1.467439
H228	H	1.982046	0.396920	1.717439
H229	H	1.072685	-1.140143	0.559778
H230	H	1.322685	-0.890143	0.809778
H231	H	1.572685	-0.640143	1.059778
H232	H	1.822685	-0.390143	1.309778
H233	H	1.079687	-1.007100	0.553363
H234	H	1.329687	-0.757100	0.803363
H235	H	1.579687	-0.507100	1.053363
H236	H	1.829687	-0.257100	1.303363
H237	H	1.037043	-0.808491	0.591713
H238	H	1.287043	-0.558491	0.841713
H239	H	1.537043	-0.308491	1.091713
H240	H	1.787043	-0.058491	1.341713
H241	H	1.044047	-0.675441	0.585307
H242	H	1.294047	-0.425441	0.835307
H243	H	1.544047	-0.175441	1.085307
H244	H	1.794047	0.074559	1.335307
H245	H	1.232483	-0.896075	0.415444
H246	H	1.482483	-0.646075	0.665444
H247	H	1.732483	-0.396075	0.915444
H248	H	1.982483	-0.146075	1.165444
H249	H	1.087054	-0.920359	0.546653
H250	H	1.337054	-0.670359	0.796653
H251	H	1.587054	-0.420359	1.046653
H252	H	1.837054	-0.170359	1.296653
