data_functionalizedCrystal
_audit_creation_method	'MofGen! by Chris Wilmer'
_symmetry_space_group_name_H-M	'P1'
_symmetry_Int_Tables_number	1
_symmetry_cell_setting	triclinic
loop_
_symmetry_equiv_pos_as_xyz
  x,y,z
_cell_length_a	11.792254
_cell_length_b	11.792241
_cell_length_c	15.186229
_cell_angle_alpha	89.998764
_cell_angle_beta	89.996693
_cell_angle_gamma	95.803993
loop_
_atom_site_label
_atom_site_type_symbol
_atom_site_fract_x
_atom_site_fract_y
_atom_site_fract_z
O1	O	1.506898	-0.155635	-0.073217
O2	O	1.176559	-0.171653	-0.073218
O3	O	1.349745	0.001526	-0.073223
O4	O	1.333712	-0.328814	-0.073213
O5	O	1.349734	0.001529	0.073234
O6	O	1.176548	-0.171650	0.073239
O7	O	1.506887	-0.155632	0.073240
Zn8	Zn	1.341715	-0.163641	0.096493
Zn9	Zn	1.341731	-0.163644	-0.096471
O10	O	1.333701	-0.328811	0.073245
C11	C	1.134263	-0.170642	0.000010
C12	C	1.008250	-0.167622	0.000009
C13	C	0.905913	-0.165168	0.000005
C14	C	0.777527	-0.162100	0.000005
C15	C	1.334714	-0.371104	0.000017
C16	C	1.337728	-0.497118	0.000021
C17	C	1.343271	-0.727830	-0.000001
C18	C	1.340191	-0.599445	0.000011
C19	C	1.549183	-0.156643	0.000010
C20	C	1.675196	-0.159663	0.000005
C21	C	1.348732	0.043819	0.000002
C22	C	1.345718	0.169832	-0.000007
N23	N	1.341713	-0.163638	0.228185
N24	N	1.341742	-0.163638	-0.228164
C25	C	1.418426	-0.086980	0.453906
C26	C	1.418430	-0.086978	0.546096
C27	C	1.265020	-0.240299	0.546109
C28	C	1.265012	-0.240296	0.453921
C29	C	1.341722	-0.163638	0.407822
C30	C	1.341733	-0.163639	0.592200
C31	C	1.341737	-0.163636	0.692156
C32	C	1.341717	-0.163638	0.307860
H33	H	1.480888	-0.024555	0.583615
C34	C	1.181692	-0.323349	0.596277
C35	C	1.111871	-0.262421	0.649230
C36	C	1.035107	-0.338891	0.695465
H37	H	1.135894	-0.369035	0.555729
H38	H	1.222786	-0.370857	0.632285
H39	H	1.070781	-0.214933	0.613225
H40	H	1.157637	-0.216739	0.689794
H41	H	1.076201	-0.386399	0.731472
H42	H	0.989318	-0.384573	0.654910
H43	H	0.987732	-0.297563	0.731404
C44	C	1.501749	-0.003619	0.404014
C45	C	1.568903	0.063535	0.464109
C46	C	1.645661	0.140355	0.418184
H47	H	1.549352	-0.044631	0.368043
H48	H	1.460655	0.043968	0.368075
H49	H	1.609994	0.015955	0.500032
H50	H	1.521331	0.104572	0.500082
H51	H	1.604567	0.187942	0.382245
H52	H	1.693256	0.099333	0.382214
H53	H	1.691226	0.185935	0.458951
C54	C	1.181678	-0.323657	0.404039
C55	C	1.114528	-0.390818	0.464140
C56	C	1.037761	-0.467625	0.418221
H57	H	1.134075	-0.282635	0.368079
H58	H	1.222766	-0.371240	0.368090
H59	H	1.073444	-0.343241	0.500074
H60	H	1.162101	-0.431865	0.500102
H61	H	1.078848	-0.515208	0.382271
H62	H	0.990165	-0.426594	0.382262
H63	H	0.992197	-0.513210	0.458992
