data_functionalizedCrystal
_audit_creation_method	'MofGen! by Chris Wilmer'
_symmetry_space_group_name_H-M	'P1'
_symmetry_Int_Tables_number	1
_symmetry_cell_setting	triclinic
loop_
_symmetry_equiv_pos_as_xyz
  x,y,z
_cell_length_a	12.759395
_cell_length_b	16.120484
_cell_length_c	12.759387
_cell_angle_alpha	92.863576
_cell_angle_beta	89.979491
_cell_angle_gamma	92.926975
loop_
_atom_site_label
_atom_site_type_symbol
_atom_site_fract_x
_atom_site_fract_y
_atom_site_fract_z
Zn1	Zn	1.584987	-0.331828	-0.615167
Zn2	Zn	1.575935	-0.471265	-0.448379
Zn3	Zn	1.409282	-0.331874	-0.439506
Zn4	Zn	1.400339	-0.471205	-0.624015
O5	O	1.492636	-0.401543	-0.531767
O6	O	1.730807	-0.350331	-0.593052
O7	O	1.553783	-0.452818	-0.300184
O8	O	1.440121	-0.215202	-0.455392
O9	O	1.724157	-0.452774	-0.470514
O10	O	1.569211	-0.215169	-0.584449
O11	O	1.431344	-0.350408	-0.293665
O12	O	1.261075	-0.350350	-0.463971
O13	O	1.424878	-0.452673	-0.769859
O14	O	1.254504	-0.452717	-0.599529
O15	O	1.560539	-0.350273	-0.763359
O16	O	1.545111	-0.587922	-0.479094
O17	O	1.416101	-0.587879	-0.608132
C18	C	1.219669	-0.401533	-0.531748
C19	C	1.102891	-0.401549	-0.531766
C20	C	1.096077	-0.508315	-0.672716
C21	C	1.037808	-0.561705	-0.743194
C22	C	0.928086	-0.561715	-0.743207
C23	C	0.876630	-0.508328	-0.672737
C24	C	0.934899	-0.454938	-0.602259
C25	C	1.044623	-0.454935	-0.602251
C26	C	0.941713	-0.348169	-0.461316
C27	C	1.051436	-0.348161	-0.461296
C28	C	0.890258	-0.294781	-0.390846
C29	C	0.948526	-0.241394	-0.320361
C30	C	1.058255	-0.241387	-0.320350
C31	C	1.109704	-0.294771	-0.390818
C32	C	1.478681	-0.618150	-0.545559
C33	C	1.472808	-0.710816	-0.551495
C34	C	1.462090	-0.880477	-0.562353
C35	C	1.523370	-0.921768	-0.501198
C36	C	1.517406	-1.016173	-0.507239
C37	C	1.468052	-0.786063	-0.556313
C38	C	1.766669	-0.401554	-0.531786
C39	C	1.883445	-0.401558	-0.531794
C40	C	1.492720	-0.401461	-0.805795
C41	C	1.492756	-0.401426	-0.922570
C42	C	1.506673	-0.184090	-0.517944
C43	C	1.512655	-0.091424	-0.512053
C44	C	1.634028	-0.294805	-0.915821
C45	C	1.704680	-0.241481	-0.967306
C46	C	1.704707	-0.241451	-1.077026
C47	C	1.634074	-0.294748	-1.135263
C48	C	1.563422	-0.348071	-1.083777
C49	C	1.563404	-0.348098	-0.974055
C50	C	1.422147	-0.454688	-1.090526
C51	C	1.422123	-0.454723	-0.980807
C52	C	1.351514	-0.507985	-1.148763
C53	C	1.280866	-0.561313	-1.097278
C54	C	1.280842	-0.561342	-0.987551
C55	C	1.351472	-0.508047	-0.929321
C56	C	1.492616	-0.401564	-0.258801
C57	C	1.492798	-0.401364	-0.142012
H58	H	1.079716	-0.605170	-0.800571
C59	C	1.655638	-0.374164	-0.763691
C60	C	1.634000	-0.294841	-0.795215
H61	H	1.655626	-0.374181	-0.689233
H62	H	1.603464	-0.413524	-0.791004
H63	H	1.722511	-0.388574	-0.789443
H64	H	1.567123	-0.280433	-0.769470
H65	H	1.686177	-0.255468	-0.767890
H66	H	1.762186	-0.198086	-0.919878
H67	H	1.185418	-0.508318	-0.672704
C68	C	1.270596	-0.236631	-0.314065
C69	C	1.230312	-0.294765	-0.390805
H70	H	1.345054	-0.236632	-0.314058
H71	H	1.249249	-0.182859	-0.328935
H72	H	1.244815	-0.250985	-0.247154
H73	H	1.256087	-0.280407	-0.457718
H74	H	1.251669	-0.348548	-0.375941
C75	C	1.329706	-0.871977	-0.694534
C76	C	1.385221	-0.928461	-0.639152
H77	H	1.282255	-0.901610	-0.741948
H78	H	1.291644	-0.838074	-0.646597
H79	H	1.377573	-0.837951	-0.732632
H80	H	1.337354	-0.962483	-0.601048
H81	H	1.423285	-0.962378	-0.687096
H82	H	0.880644	-0.605185	-0.800602
H83	H	1.634094	-0.294711	-1.224602
H84	H	1.580310	-0.886218	-0.444303
C85	C	1.373192	-0.587260	-1.310972
C86	C	1.351540	-0.507955	-1.269369
H87	H	1.373202	-0.587243	-1.385430
H88	H	1.440046	-0.601683	-1.287079
H89	H	1.320999	-0.626635	-1.288635
H90	H	1.403738	-0.468580	-1.291700
H91	H	1.284677	-0.493522	-1.293272
H92	H	1.762231	-0.198025	-1.118945
H93	H	0.787289	-0.508334	-0.672763
C94	C	0.738190	-0.215518	-0.412777
C95	C	0.769649	-0.294794	-0.390862
H96	H	0.663731	-0.215530	-0.412790
H97	H	0.765522	-0.176088	-0.360720
H98	H	0.763970	-0.201179	-0.479694
H99	H	0.743875	-0.309130	-0.323941
H100	H	0.742306	-0.334236	-0.442922
C101	C	1.450023	-0.529342	-0.773523
C102	C	1.351458	-0.508073	-0.808715
H103	H	1.450018	-0.529349	-0.699065
H104	H	1.464699	-0.583136	-0.801755
H105	H	1.502198	-0.489956	-0.795871
H106	H	1.299284	-0.547463	-0.786374
H107	H	1.336770	-0.454271	-0.780472
H108	H	1.223356	-0.604699	-1.144702
H109	H	1.223298	-0.604756	-0.945638
H110	H	0.906622	-0.197927	-0.262995
C111	C	1.053959	-0.135853	-0.181024
C112	C	1.122300	-0.182703	-0.242871
H113	H	1.093497	-0.099628	-0.133187
H114	H	1.013243	-0.104011	-0.224848
H115	H	1.008801	-0.172149	-0.143081
H116	H	1.167453	-0.146407	-0.280820
H117	H	1.163034	-0.214546	-0.199041
