data_functionalizedCrystal
_audit_creation_method	'MofGen! by Chris Wilmer'
_symmetry_space_group_name_H-M	'P1'
_symmetry_Int_Tables_number	1
_symmetry_cell_setting	triclinic
loop_
_symmetry_equiv_pos_as_xyz
  x,y,z
_cell_length_a	21.395362
_cell_length_b	16.959454
_cell_length_c	21.395355
_cell_angle_alpha	89.987004
_cell_angle_beta	89.956060
_cell_angle_gamma	90.035955
loop_
_atom_site_label
_atom_site_type_symbol
_atom_site_fract_x
_atom_site_fract_y
_atom_site_fract_z
Zn1	Zn	0.957906	-0.314438	-0.354610
Zn2	Zn	1.457906	0.185562	0.145390
Zn3	Zn	0.957828	-0.446599	-0.249842
Zn4	Zn	1.457828	0.053401	0.250158
Zn5	Zn	0.853121	-0.314475	-0.249811
Zn6	Zn	1.353121	0.185525	0.250189
Zn7	Zn	0.853109	-0.446615	-0.354547
Zn8	Zn	1.353109	0.053385	0.145453
O9	O	0.905491	-0.380532	-0.302202
O10	O	1.405491	0.119468	0.197798
O11	O	1.045573	-0.331947	-0.340751
O12	O	1.545573	0.168053	0.159249
O13	O	0.943910	-0.429081	-0.162160
O14	O	1.443910	0.070919	0.337840
O15	O	0.867058	-0.203859	-0.263726
O16	O	1.367058	0.296141	0.236274
O17	O	1.045516	-0.429045	-0.263779
O18	O	1.545516	0.070955	0.236221
O19	O	0.944043	-0.203832	-0.340721
O20	O	1.444043	0.296168	0.159279
O21	O	0.866982	-0.332010	-0.162137
O22	O	1.366982	0.167990	0.337863
O23	O	0.765441	-0.332026	-0.263665
O24	O	1.265441	0.167974	0.236335
O25	O	0.867039	-0.429073	-0.442233
O26	O	1.367039	0.070927	0.057767
O27	O	0.765433	-0.429109	-0.340614
O28	O	1.265433	0.070891	0.159386
O29	O	0.944032	-0.331963	-0.442279
O30	O	1.444032	0.168037	0.057721
O31	O	0.943899	-0.557212	-0.263718
O32	O	1.443899	-0.057212	0.236282
O33	O	0.866963	-0.557224	-0.340645
O34	O	1.366963	-0.057224	0.159355
C35	C	0.742703	-0.380574	-0.302130
C36	C	1.242703	0.119426	0.197870
C37	C	0.673062	-0.380610	-0.302114
C38	C	1.173062	0.119390	0.197886
C39	C	0.905438	-0.585898	-0.302192
C40	C	1.405438	-0.085898	0.197808
C41	C	0.905473	-0.673755	-0.302208
C42	C	1.405473	-0.173755	0.197792
C43	C	0.640361	-0.431228	-0.342121
C44	C	1.140361	0.068772	0.157879
C45	C	0.574925	-0.431209	-0.342149
C46	C	1.074925	0.068791	0.157851
C47	C	0.542194	-0.380580	-0.302158
C48	C	1.042194	0.119420	0.197842
C49	C	0.574903	-0.329952	-0.262148
C50	C	1.074903	0.170048	0.237852
C51	C	0.640337	-0.329967	-0.262126
C52	C	1.140337	0.170033	0.237874
C53	C	0.438468	-0.374212	-0.245752
C54	C	0.938468	0.125788	0.254248
C55	C	0.373035	-0.374203	-0.245774
C56	C	0.873035	0.125797	0.254226
C57	C	0.340373	-0.380528	-0.302227
C58	C	0.840373	0.119472	0.197773
C59	C	0.373152	-0.386881	-0.358661
C60	C	0.873152	0.113119	0.141339
C61	C	0.438586	-0.386896	-0.358639
C62	C	0.938586	0.113104	0.141361
C63	C	0.471241	-0.380557	-0.302178
C64	C	0.971241	0.119443	0.197822
C65	C	0.236719	-0.431128	-0.342268
C66	C	0.736719	0.068872	0.157732
C67	C	0.171283	-0.431103	-0.342297
C68	C	0.671283	0.068897	0.157703
C69	C	0.171261	-0.329850	-0.262291
C70	C	0.671261	0.170150	0.237709
C71	C	0.236697	-0.329871	-0.262267
C72	C	0.736697	0.170129	0.237733
C73	C	0.269422	-0.380514	-0.302255
C74	C	0.769422	0.119486	0.197745
C75	C	0.865488	-1.045266	-0.342254
C76	C	1.365488	-0.545266	0.157746
C77	C	0.945668	-1.045194	-0.262215
C78	C	1.445668	-0.545194	0.237785
C79	C	0.945646	-0.962648	-0.262209
C80	C	1.445646	-0.462648	0.237791
C81	C	0.905544	-0.921407	-0.302226
C82	C	1.405544	-0.421407	0.197774
C83	C	0.865464	-0.962713	-0.342248
C84	C	1.365464	-0.462713	0.157752
C85	C	0.985721	-0.921337	-0.222184
C86	C	1.485721	-0.421337	0.277816
C87	C	0.985700	-0.838786	-0.222176
C88	C	1.485700	-0.338786	0.277824
C89	C	0.945601	-0.797544	-0.262196
C90	C	1.445601	-0.297544	0.237804
C91	C	0.905520	-0.838854	-0.302220
C92	C	1.405520	-0.338854	0.197780
C93	C	0.865418	-0.797613	-0.342236
C94	C	1.365418	-0.297613	0.157764
C95	C	0.825339	-0.838922	-0.382264
C96	C	1.325339	-0.338922	0.117736
C97	C	0.825365	-0.921471	-0.382268
C98	C	1.325365	-0.421471	0.117732
C99	C	0.945575	-0.714995	-0.262192
C100	C	1.445575	-0.214995	0.237808
C101	C	0.865393	-0.715060	-0.342230
C102	C	1.365393	-0.215060	0.157770
C103	C	1.068914	-0.380490	-0.302276
C104	C	1.568914	0.119510	0.197724
C105	C	1.138555	-0.380473	-0.302307
C106	C	1.638555	0.119527	0.197693
C107	C	0.905543	-0.380516	-0.465626
C108	C	1.405543	0.119484	0.034374
C109	C	0.905565	-0.380509	-0.535267
C110	C	1.405565	0.119491	-0.035267
C111	C	0.905561	-0.174363	-0.302227
C112	C	1.405561	0.325637	0.197773
C113	C	0.905590	-0.086507	-0.302237
C114	C	1.405590	0.413493	0.197763
C115	C	0.945654	-0.329942	-0.568005
C116	C	1.445654	0.170058	-0.068005
C117	C	0.945653	-0.329908	-0.633441
C118	C	1.445653	0.170092	-0.133441
C119	C	0.905570	-0.380455	-0.666135
C120	C	1.405570	0.119545	-0.166135
C121	C	0.865473	-0.431026	-0.633389
C122	C	1.365473	0.068974	-0.133389
C123	C	0.865471	-0.431053	-0.567955
C124	C	1.365471	0.068947	-0.067955
C125	C	0.900604	-0.451628	-0.769805
C126	C	1.400604	0.048372	-0.269805
C127	C	0.900611	-0.451602	-0.835238
C128	C	1.400611	0.048398	-0.335238
C129	C	0.905574	-0.380371	-0.867956
C130	C	1.405574	0.119629	-0.367956
C131	C	0.910543	-0.309164	-0.835234
C132	C	1.410543	0.190836	-0.335234
C133	C	0.910540	-0.309191	-0.769800
C134	C	1.410540	0.190809	-0.269800
C135	C	0.905568	-0.380431	-0.737088
C136	C	1.405568	0.119569	-0.237088
C137	C	0.945664	-0.329763	-0.971647
C138	C	1.445664	0.170237	-0.471647
C139	C	0.945659	-0.329728	-1.037084
C140	C	1.445659	0.170272	-0.537084
C141	C	0.865482	-0.430853	-1.037031
C142	C	1.365482	0.069147	-0.537031
C143	C	0.865484	-0.430881	-0.971596
C144	C	1.365484	0.069119	-0.471596
C145	C	0.905578	-0.380337	-0.938908
C146	C	1.405578	0.119663	-0.438908
C147	C	0.905475	-0.380491	-0.139415
C148	C	1.405475	0.119509	0.360585
C149	C	0.905574	-0.380275	-0.069774
C150	C	1.405574	0.119725	0.430226
H151	H	0.667002	-0.472465	-0.374683
H152	H	1.167002	0.027535	0.125317
C153	C	0.821370	-0.486685	-0.531942
C154	C	1.321370	0.013315	-0.031942
N155	N	0.788153	-0.528589	-0.504816
N156	N	1.288153	-0.028589	-0.004816
C157	C	0.821379	-0.486625	-0.669355
C158	C	1.321379	0.013375	-0.169355
N159	N	0.788163	-0.528500	-0.696444
N160	N	1.288163	-0.028500	-0.196444
C161	C	0.915997	-0.230864	-0.733807
C162	C	1.415997	0.269136	-0.233807
N163	N	0.920103	-0.171866	-0.706698
N164	N	1.420103	0.328134	-0.206698
H165	H	0.914585	-0.251161	-0.861872
H166	H	1.414585	0.248839	-0.361872
C167	C	0.989660	-0.669559	-0.218165
C168	C	1.489660	-0.169559	0.281835
N169	N	1.022868	-0.635338	-0.185003
N170	N	1.522868	-0.135338	0.314997
C171	C	0.821284	-0.669702	-0.386260
C172	C	1.321284	-0.169702	0.113740
N173	N	0.788063	-0.635539	-0.419425
N174	N	1.288063	-0.135539	0.080575
H175	H	0.832843	-0.472063	-0.944940
H176	H	1.332843	0.027937	-0.444940
C177	C	0.135260	-0.274157	-0.218301
C178	C	0.635260	0.225843	0.281699
N179	N	0.108141	-0.232206	-0.185167
N180	N	0.608141	0.267794	0.314833
H181	H	1.018365	-0.954921	-0.189600
H182	H	1.518365	-0.454921	0.310400
H183	H	0.144659	-0.472321	-0.374880
H184	H	0.644659	0.027679	0.125120
H185	H	0.896569	-0.509584	-0.861875
H186	H	1.396569	-0.009584	-0.361875
H187	H	0.978301	-0.288784	-0.541395
H188	H	1.478301	0.211216	-0.041395
H189	H	0.346560	-0.392030	-0.404632
H190	H	0.846560	0.107970	0.095368
H191	H	0.978313	-1.078777	-0.229632
H192	H	1.478313	-0.578777	0.270368
C193	C	0.272719	-0.486827	-0.386263
C194	C	0.772719	0.013173	0.113737
N195	N	0.299833	-0.528778	-0.419401
N196	N	0.799833	-0.028778	0.080599
H197	H	0.263322	-0.288656	-0.229686
H198	H	0.763322	0.211344	0.270314
H199	H	0.978303	-0.288545	-1.063738
H200	H	1.478303	0.211455	-0.563738
H201	H	0.548295	-0.472428	-0.374730
H202	H	1.048295	0.027572	0.125270
C203	C	0.474640	-0.393882	-0.420715
C204	C	0.974640	0.106118	0.079285
N205	N	0.501796	-0.399143	-0.467472
N206	N	1.001796	0.100857	0.032528
H207	H	1.018335	-0.805157	-0.189584
H208	H	1.518335	-0.305157	0.310416
C209	C	0.781275	-0.966916	-0.426287
C210	C	1.281275	-0.466916	0.073713
N211	N	0.748064	-1.001150	-0.459439
N212	N	1.248064	-0.501150	0.040561
H213	H	0.346351	-0.369035	-0.199822
H214	H	0.846351	0.130965	0.300178
C215	C	0.474390	-0.367256	-0.183645
C216	C	0.974390	0.132744	0.316355
N217	N	0.501445	-0.362019	-0.136866
N218	N	1.001445	0.137981	0.363134
C219	C	0.538896	-0.274260	-0.218158
C220	C	1.038896	0.225740	0.281842
N221	N	0.511776	-0.232309	-0.185025
N222	N	1.011776	0.267691	0.314975
H223	H	0.666962	-0.288746	-0.229547
H224	H	1.166962	0.211254	0.270453
C225	C	0.781228	-0.793547	-0.426280
C226	C	1.281228	-0.293547	0.073720
N227	N	0.748005	-0.759367	-0.459433
N228	N	1.248005	-0.259367	0.040567
H229	H	0.978297	-0.288725	-0.660101
H230	H	1.478297	0.211275	-0.160101
H231	H	0.896396	-0.509618	-0.743171
H232	H	1.396396	-0.009618	-0.243171
C233	C	0.989762	-0.274157	-0.935688
C234	C	1.489762	0.225843	-0.435688
N235	N	1.022976	-0.232273	-0.908605
N236	N	1.522976	0.267727	-0.408605
C237	C	0.821391	-0.486457	-1.072992
C238	C	1.321391	0.013543	-0.572992
N239	N	0.788179	-0.528338	-1.100080
N240	N	1.288179	-0.028338	-0.600080
H241	H	0.832859	-1.078904	-0.374845
H242	H	1.332859	-0.578904	0.125155
