data_functionalizedCrystal
_audit_creation_method	'MofGen! by Chris Wilmer'
_symmetry_space_group_name_H-M	'P1'
_symmetry_Int_Tables_number	1
_symmetry_cell_setting	triclinic
loop_
_symmetry_equiv_pos_as_xyz
  x,y,z
_cell_length_a	9.065218
_cell_length_b	10.654550
_cell_length_c	7.540329
_cell_angle_alpha	89.995130
_cell_angle_beta	89.999074
_cell_angle_gamma	84.750408
loop_
_atom_site_label
_atom_site_type_symbol
_atom_site_fract_x
_atom_site_fract_y
_atom_site_fract_z
O1	O	-1.959387	-0.184161	0.147487
O2	O	-1.530020	-0.199266	0.147489
O3	O	-1.754575	-0.009013	0.147477
O4	O	-1.734831	-0.374413	0.147499
O5	O	-1.754571	-0.009005	-0.147488
O6	O	-1.530016	-0.199258	-0.147476
O7	O	-1.959383	-0.184152	-0.147478
Cu8	Cu	-1.744699	-0.191704	-0.174410
Cu9	Cu	-1.744704	-0.191714	0.174421
O10	O	-1.734827	-0.374405	-0.147466
C11	C	-1.753124	0.037795	-0.000005
C12	C	-1.748786	0.177255	-0.000002
C13	C	-1.475039	-0.197810	0.000007
C14	C	-1.311220	-0.193469	0.000008
C15	C	-2.014364	-0.185608	0.000008
C16	C	-2.178183	-0.189949	0.000019
C17	C	-1.736279	-0.421213	0.000020
C18	C	-1.740616	-0.560673	0.000028
N19	N	-1.744707	-0.191696	-0.419758
C20	C	-1.881001	0.256217	-0.000002
C21	C	-1.876917	0.387254	0.000019
C22	C	-1.608391	0.360354	0.000034
C23	C	-1.612477	0.229320	0.000025
N24	N	-1.744708	-0.191712	0.419769
H25	H	-1.984580	0.451541	0.000023
C26	C	-2.146014	0.295973	0.000019
C27	C	-2.030830	0.198986	0.000000
H28	H	-2.238513	0.260640	0.000038
H29	H	-2.138841	0.346525	-0.102835
H30	H	-2.138817	0.346515	0.102887
H31	H	-2.038020	0.148449	-0.102875
H32	H	-2.038006	0.148412	0.102865
C33	C	-1.482896	0.549278	0.000031
C34	C	-1.458565	0.417589	0.000037
H35	H	-1.390396	0.584607	0.000018
H36	H	-1.537380	0.576264	0.102887
H37	H	-1.537394	0.576272	-0.102836
H38	H	-1.404077	0.390595	0.102912
H39	H	-1.404058	0.390592	-0.102829
C40	C	-1.346629	0.215881	0.000022
C41	C	-1.467135	0.142514	0.000019
H42	H	-1.256908	0.162288	0.000012
H43	H	-1.350620	0.267537	0.102879
H44	H	-1.350624	0.267561	-0.102844
H45	H	-1.463146	0.090840	0.102892
H46	H	-1.463142	0.090836	-0.102849
