data_functionalizedCrystal
_audit_creation_method	'MofGen! by Chris Wilmer'
_symmetry_space_group_name_H-M	'P1'
_symmetry_Int_Tables_number	1
_symmetry_cell_setting	triclinic
loop_
_symmetry_equiv_pos_as_xyz
  x,y,z
_cell_length_a	27.732048
_cell_length_b	27.732048
_cell_length_c	14.048226
_cell_angle_alpha	90.007623
_cell_angle_beta	89.999178
_cell_angle_gamma	82.642655
loop_
_atom_site_label
_atom_site_type_symbol
_atom_site_fract_x
_atom_site_fract_y
_atom_site_fract_z
O1	O	0.640927	0.057515	0.079048
O2	O	0.974261	0.390849	0.412381
O3	O	1.307594	0.724182	0.745715
O4	O	0.500134	0.066261	0.079078
O5	O	0.833467	0.399594	0.412412
O6	O	1.166801	0.732928	0.745745
O7	O	0.574903	-0.008508	0.079044
O8	O	0.908237	0.324825	0.412377
O9	O	1.241570	0.658158	0.745711
O10	O	0.566158	0.132285	0.079082
O11	O	0.899491	0.465618	0.412416
O12	O	1.232825	0.798952	0.745749
O13	O	0.574896	-0.008508	-0.079277
O14	O	0.908230	0.324826	0.254056
O15	O	1.241563	0.658159	0.587389
O16	O	0.500127	0.066262	-0.079243
O17	O	0.833460	0.399595	0.254090
O18	O	1.166794	0.732928	0.587424
O19	O	0.640920	0.057516	-0.079273
O20	O	0.974254	0.390850	0.254060
O21	O	1.307587	0.724183	0.587393
Zn22	Zn	0.570523	0.061889	-0.104395
Zn23	Zn	0.903856	0.395222	0.228938
Zn24	Zn	1.237189	0.728556	0.562272
Zn25	Zn	0.570532	0.061888	0.104200
Zn26	Zn	0.903865	0.395221	0.437533
Zn27	Zn	1.237198	0.728555	0.770867
O28	O	0.566151	0.132286	-0.079239
O29	O	0.899484	0.465619	0.254094
O30	O	1.232818	0.798952	0.587428
C31	C	0.482124	0.066078	-0.000079
C32	C	0.815457	0.399411	0.333255
C33	C	1.148790	0.732744	0.666588
C34	C	0.428469	0.065525	-0.000068
C35	C	0.761802	0.398858	0.333265
C36	C	1.095135	0.732192	0.666599
C37	C	0.574716	-0.026515	-0.000119
C38	C	0.908050	0.306818	0.333214
C39	C	1.241383	0.640152	0.666548
C40	C	0.574164	-0.080170	-0.000127
C41	C	0.907497	0.253163	0.333207
C42	C	1.240830	0.586497	0.666540
C43	C	0.614867	-0.418985	-0.000087
C44	C	0.948201	-0.085652	0.333247
C45	C	1.281534	0.247682	0.666580
C46	C	0.612816	-0.620645	-0.000073
C47	C	0.946150	-0.287311	0.333260
C48	C	1.279483	0.046022	0.666594
O49	O	0.650037	-0.651900	-0.000039
O50	O	0.983370	-0.318567	0.333294
O51	O	1.316704	0.014766	0.666627
N52	N	0.568481	-0.639768	-0.000064
N53	N	0.901814	-0.306435	0.333269
N54	N	1.235148	0.026898	0.666602
C55	C	0.524656	-0.608474	-0.000053
C56	C	0.857989	-0.275140	0.333280
C57	C	1.191322	0.058193	0.666614
O58	O	0.486899	-0.629367	-0.000035
O59	O	0.820232	-0.296033	0.333298
O60	O	1.153565	0.037300	0.666631
C61	C	0.526707	-0.406815	-0.000060
C62	C	0.860040	-0.073482	0.333274
C63	C	1.193374	0.259852	0.666607
C64	C	0.571045	-0.387694	-0.000078
C65	C	0.904378	-0.054361	0.333255
C66	C	1.237712	0.278972	0.666589
C67	C	0.659202	-0.399864	-0.000104
C68	C	0.992535	-0.066530	0.333229
C69	C	1.325868	0.266803	0.666563
C70	C	0.659714	-0.349452	-0.000113
C71	C	0.993047	-0.016118	0.333221
C72	C	1.326381	0.317215	0.666554
C73	C	0.615892	-0.318161	-0.000104
C74	C	0.949225	0.015172	0.333229
C75	C	1.282559	0.348506	0.666563
C76	C	0.571557	-0.337282	-0.000087
C77	C	0.904891	-0.003949	0.333247
C78	C	1.238224	0.329384	0.666580
C79	C	0.482882	-0.375521	-0.000042
C80	C	0.816215	-0.042188	0.333292
C81	C	1.149549	0.291145	0.666625
C82	C	0.483399	-0.325104	-0.000041
C83	C	0.816732	0.008229	0.333293
C84	C	1.150066	0.341563	0.666626
C85	C	0.527737	-0.305983	-0.000059
C86	C	0.861070	0.027350	0.333274
C87	C	1.194404	0.360683	0.666608
C88	C	0.528247	-0.255580	-0.000087
C89	C	0.861581	0.077754	0.333247
C90	C	1.194914	0.411087	0.666580
N91	N	0.572583	-0.236456	-0.000095
N92	N	0.905916	0.096877	0.333238
N93	N	1.239249	0.430211	0.666571
C94	C	0.616405	-0.267747	-0.000104
C95	C	0.949738	0.065587	0.333229
C96	C	1.283072	0.398920	0.666563
C97	C	0.523582	-0.714348	-0.000051
C98	C	0.856915	-0.381014	0.333282
C99	C	1.190248	-0.047681	0.666616
C100	C	0.523069	-0.764762	-0.000051
C101	C	0.856402	-0.431429	0.333282
C102	C	1.189735	-0.098096	0.666616
C103	C	0.611230	-0.776930	-0.000069
C104	C	0.944563	-0.443596	0.333264
C105	C	1.277896	-0.110263	0.666597
C106	C	0.611742	-0.726514	-0.000076
C107	C	0.945075	-0.393181	0.333257
C108	C	1.278409	-0.059848	0.666590
C109	C	0.567917	-0.695224	-0.000060
C110	C	0.901250	-0.361891	0.333274
C111	C	1.234583	-0.028557	0.666607
C112	C	0.617477	-0.161878	-0.000123
C113	C	0.950811	0.171456	0.333210
C114	C	1.284144	0.504789	0.666544
C115	C	0.617986	-0.111461	-0.000135
C116	C	0.951319	0.221873	0.333198
C117	C	1.284652	0.555206	0.666531
C118	C	0.529825	-0.099298	-0.000112
C119	C	0.863158	0.234036	0.333221
C120	C	1.196492	0.567369	0.666555
C121	C	0.529316	-0.149710	-0.000105
C122	C	0.862650	0.183623	0.333229
C123	C	1.195983	0.516957	0.666562
C124	C	0.573147	-0.180999	-0.000107
C125	C	0.906480	0.152334	0.333227
C126	C	1.239813	0.485667	0.666560
O127	O	0.491047	-0.224296	-0.000110
O128	O	0.824380	0.109038	0.333224
O129	O	1.157713	0.442371	0.666557
O130	O	0.654156	-0.246844	-0.000100
O131	O	0.987490	0.086489	0.333233
O132	O	1.320823	0.419823	0.666566
C133	C	0.614355	-0.469397	-0.000078
C134	C	0.947688	-0.136064	0.333255
C135	C	1.281022	0.197270	0.666589
C136	C	0.570021	-0.488518	-0.000061
C137	C	0.903354	-0.155185	0.333272
C138	C	1.236687	0.178148	0.666606
C139	C	0.526198	-0.457228	-0.000052
C140	C	0.859532	-0.123894	0.333281
C141	C	1.192865	0.209439	0.666614
C142	C	0.569508	-0.538933	-0.000061
C143	C	0.902841	-0.205599	0.333273
C144	C	1.236174	0.127734	0.666606
C145	C	0.613330	-0.570223	-0.000069
C146	C	0.946663	-0.236890	0.333264
C147	C	1.279996	0.096443	0.666597
C148	C	0.657665	-0.551100	-0.000078
C149	C	0.990998	-0.217766	0.333255
C150	C	1.324332	0.115567	0.666589
C151	C	0.658177	-0.500688	-0.000087
C152	C	0.991511	-0.167354	0.333247
C153	C	1.324844	0.165979	0.666580
C154	C	0.481863	-0.476351	-0.000044
C155	C	0.815197	-0.143018	0.333290
C156	C	1.148530	0.190315	0.666623
C157	C	0.481355	-0.526764	-0.000036
C158	C	0.814688	-0.193430	0.333297
C159	C	1.148021	0.139903	0.666631
C160	C	0.525177	-0.558054	-0.000045
C161	C	0.858510	-0.224721	0.333289
C162	C	1.191843	0.108612	0.666622
C163	C	0.089654	0.106229	-0.000098
C164	C	0.422987	0.439562	0.333235
C165	C	0.756320	0.772895	0.666568
C166	C	-0.112006	0.104178	-0.000107
C167	C	0.221327	0.437511	0.333226
C168	C	0.554661	0.770844	0.666559
O169	O	-0.143262	0.141398	-0.000138
O170	O	0.190072	0.474732	0.333195
O171	O	0.523405	0.808065	0.666528
N172	N	-0.131130	0.059843	-0.000118
N173	N	0.202204	0.393176	0.333216
N174	N	0.535537	0.726509	0.666549
C175	C	-0.099835	0.016017	-0.000132
C176	C	0.233498	0.349350	0.333201
C177	C	0.566832	0.682684	0.666535
O178	O	-0.120728	-0.021740	-0.000151
O179	O	0.212605	0.311593	0.333183
O180	O	0.545938	0.644927	0.666516
C181	C	0.101824	0.018068	-0.000130
C182	C	0.435157	0.351402	0.333204
C183	C	0.768490	0.684735	0.666537
C184	C	0.120944	0.062407	-0.000110
C185	C	0.454278	0.395740	0.333224
C186	C	0.787611	0.729073	0.666557
C187	C	0.108775	0.150563	-0.000079
C188	C	0.442108	0.483897	0.333254
C189	C	0.775442	0.817230	0.666587
C190	C	0.159187	0.151075	-0.000072
C191	C	0.492520	0.484409	0.333261
C192	C	0.825853	0.817742	0.666595
C193	C	0.190477	0.107253	-0.000083
C194	C	0.523811	0.440587	0.333250
C195	C	0.857144	0.773920	0.666583
C196	C	0.171356	0.062919	-0.000102
C197	C	0.504690	0.396252	0.333231
C198	C	0.838023	0.729585	0.666564
C199	C	0.133117	-0.025757	-0.000151
C200	C	0.466451	0.307577	0.333183
C201	C	0.799784	0.640910	0.666516
C202	C	0.183535	-0.025240	-0.000153
C203	C	0.516868	0.308094	0.333181
C204	C	0.850201	0.641427	0.666514
C205	C	0.202655	0.019098	-0.000133
C206	C	0.535989	0.352432	0.333201
C207	C	0.869322	0.685765	0.666534
C208	C	0.253059	0.019609	-0.000106
C209	C	0.586392	0.352942	0.333227
C210	C	0.919725	0.686276	0.666560
N211	N	0.272183	0.063944	-0.000096
N212	N	0.605516	0.397277	0.333237
N213	N	0.938849	0.730611	0.666571
C214	C	0.240892	0.107766	-0.000084
C215	C	0.574225	0.441100	0.333249
C216	C	0.907559	0.774433	0.666582
C217	C	-0.205709	0.014943	-0.000131
C218	C	0.127624	0.348276	0.333202
C219	C	0.460957	0.681610	0.666536
C220	C	-0.256124	0.014430	-0.000130
C221	C	0.077210	0.347763	0.333203
C222	C	0.410543	0.681097	0.666537
C223	C	-0.268291	0.102591	-0.000107
C224	C	0.065042	0.435924	0.333226
C225	C	0.398376	0.769258	0.666559
C226	C	-0.217876	0.103104	-0.000102
C227	C	0.115458	0.436437	0.333232
C228	C	0.448791	0.769770	0.666565
C229	C	-0.186585	0.059278	-0.000121
C230	C	0.146748	0.392612	0.333212
C231	C	0.480081	0.725945	0.666546
C232	C	0.346761	0.108839	-0.000068
C233	C	0.680094	0.442172	0.333265
C234	C	1.013428	0.775505	0.666599
C235	C	0.397178	0.109347	-0.000057
C236	C	0.730511	0.442681	0.333277
C237	C	1.063845	0.776014	0.666610
C238	C	0.409341	0.021186	-0.000084
C239	C	0.742674	0.354520	0.333249
C240	C	1.076008	0.687853	0.666582
C241	C	0.358929	0.020678	-0.000091
C242	C	0.692262	0.354011	0.333243
C243	C	1.025595	0.687344	0.666576
C244	C	0.327639	0.064508	-0.000086
C245	C	0.660973	0.397841	0.333248
C246	C	0.994306	0.731175	0.666581
O247	O	0.284343	-0.017592	-0.000086
O248	O	0.617676	0.315741	0.333248
O249	O	0.951009	0.649075	0.666581
O250	O	0.261794	0.145518	-0.000087
O251	O	0.595128	0.478851	0.333247
O252	O	0.928461	0.812184	0.666580
C253	C	0.039242	0.105716	-0.000106
C254	C	0.372575	0.439050	0.333228
C255	C	0.705908	0.772383	0.666561
C256	C	0.020120	0.061382	-0.000125
C257	C	0.353454	0.394715	0.333209
C258	C	0.686787	0.728049	0.666542
C259	C	0.051411	0.017560	-0.000136
C260	C	0.384744	0.350893	0.333197
C261	C	0.718078	0.684226	0.666531
C262	C	-0.030294	0.060869	-0.000123
C263	C	0.303039	0.394202	0.333210
C264	C	0.636373	0.727536	0.666543
C265	C	-0.061585	0.104691	-0.000112
C266	C	0.271749	0.438025	0.333221
C267	C	0.605082	0.771358	0.666555
C268	C	-0.042461	0.149026	-0.000102
C269	C	0.290872	0.482360	0.333232
C270	C	0.624206	0.815693	0.666565
C271	C	0.007951	0.149539	-0.000094
C272	C	0.341284	0.482872	0.333239
C273	C	0.674618	0.816205	0.666572
C274	C	0.032287	-0.026775	-0.000146
C275	C	0.365621	0.306558	0.333187
C276	C	0.698954	0.639891	0.666520
C277	C	-0.018125	-0.027284	-0.000153
C278	C	0.315208	0.306049	0.333181
C279	C	0.648541	0.639383	0.666514
C280	C	-0.049416	0.016538	-0.000141
C281	C	0.283917	0.349871	0.333192
C282	C	0.617251	0.683205	0.666525
C283	C	0.658931	0.057699	-0.000114
C284	C	0.992264	0.391033	0.333219
C285	C	1.325598	0.724366	0.666553
C286	C	0.712586	0.058252	-0.000119
C287	C	1.045919	0.391586	0.333215
C288	C	1.379252	0.724919	0.666548
C289	C	0.566338	0.150292	-0.000074
C290	C	0.899671	0.483626	0.333260
C291	C	1.233005	0.816959	0.666593
C292	C	0.566891	0.203947	-0.000060
C293	C	0.900224	0.537280	0.333274
C294	C	1.233557	0.870614	0.666607
N295	N	0.570520	0.061889	-0.246756
N296	N	0.903853	0.395223	0.086578
N297	N	1.237186	0.728556	0.419911
C298	C	0.541442	0.032767	-0.703625
C299	C	0.874776	0.366100	-0.370292
C300	C	1.208109	0.699434	-0.036958
C301	C	0.541441	0.032766	-0.603967
C302	C	0.874774	0.366099	-0.270634
C303	C	1.208107	0.699432	0.062699
C304	C	0.570533	0.061884	-0.554126
C305	C	0.903866	0.395217	-0.220792
C306	C	1.237199	0.728551	0.112541
C307	C	0.599632	0.091002	-0.603947
C308	C	0.932965	0.424335	-0.270614
C309	C	1.266299	0.757669	0.062720
C310	C	0.599636	0.091000	-0.703603
C311	C	0.932969	0.424334	-0.370270
C312	C	1.266303	0.757667	-0.036936
C313	C	0.599621	0.091004	-0.396233
C314	C	0.932954	0.424337	-0.062899
C315	C	1.266287	0.757671	0.270434
C316	C	0.599616	0.091006	-0.296570
C317	C	0.932949	0.424340	0.036763
C318	C	1.266283	0.757673	0.370097
C319	C	0.541425	0.032769	-0.296597
C320	C	0.874758	0.366102	0.036736
C321	C	1.208092	0.699436	0.370070
C322	C	0.541429	0.032768	-0.396253
C323	C	0.874762	0.366101	-0.062920
C324	C	1.208096	0.699434	0.270414
C325	C	0.570528	0.061886	-0.446067
C326	C	0.903861	0.395220	-0.112734
C327	C	1.237195	0.728553	0.220599
N328	N	0.570538	0.061884	0.246561
N329	N	0.903872	0.395217	0.579894
N330	N	1.237205	0.728551	0.913227
H331	H	0.653168	-0.187348	-0.000121
H332	H	0.986501	0.145985	0.333212
H333	H	1.319835	0.479319	0.666546
O334	O	0.510069	0.001346	-0.450017
O335	O	0.843403	0.334679	-0.116684
O336	O	1.176736	0.668012	0.216650
H337	H	0.489844	-0.018912	-0.398638
H338	H	0.823177	0.314421	-0.065304
H339	H	1.156511	0.647755	0.268029
O340	O	0.510051	0.001368	-0.550239
O341	O	0.843384	0.334701	-0.216905
O342	O	1.176718	0.668034	0.116428
H343	H	0.533414	-0.024776	-0.504842
H344	H	0.866747	0.308557	-0.171509
H345	H	1.200081	0.641890	0.161824
H346	H	-0.180236	-0.020747	-0.000147
H347	H	0.153097	0.312586	0.333186
H348	H	0.486430	0.645920	0.666520
O349	O	0.436127	-0.291358	-0.000034
O350	O	0.769460	0.041975	0.333300
O351	O	1.102793	0.375309	0.666633
H352	H	0.434250	-0.268093	0.064496
H353	H	0.767583	0.065240	0.397829
H354	H	1.100916	0.398573	0.731162
H355	H	0.117558	-0.061861	-0.000168
H356	H	0.450892	0.271472	0.333166
H357	H	0.784225	0.604805	0.666499
H358	H	0.623304	0.114719	-0.255992
H359	H	0.956637	0.448052	0.077342
H360	H	1.289970	0.781385	0.410675
O361	O	0.704932	-0.584853	-0.000088
O362	O	1.038266	-0.251520	0.333246
O363	O	1.371599	0.081814	0.666579
H364	H	0.697122	-0.623120	-0.000073
H365	H	1.030455	-0.289787	0.333260
H366	H	1.363788	0.043547	0.666593
O367	O	-0.276744	-0.033392	-0.000138
O368	O	0.056589	0.299941	0.333195
O369	O	0.389923	0.633275	0.666528
H370	H	-0.299424	-0.035733	-0.064666
H371	H	0.033910	0.297601	0.268668
H372	H	0.367243	0.630934	0.602001
H373	H	0.445246	-0.542327	-0.000030
H374	H	0.778580	-0.208993	0.333304
H375	H	1.111913	0.124340	0.666637
H376	H	0.623329	0.114710	-0.744160
H377	H	0.956663	0.448043	-0.410827
H378	H	1.289996	0.781377	-0.077494
H379	H	0.517731	0.009061	-0.256033
H380	H	0.851064	0.342394	0.077300
H381	H	1.184397	0.675727	0.410633
O382	O	0.434596	-0.442604	-0.000052
O383	O	0.767929	-0.109271	0.333282
O384	O	1.101262	0.224062	0.666615
H385	H	0.403684	-0.464377	-0.000055
H386	H	0.737018	-0.131044	0.333278
H387	H	1.070351	0.202290	0.666611
H388	H	0.623317	0.114714	-0.436789
H389	H	0.956650	0.448048	-0.103455
H390	H	1.289984	0.781381	0.229878
H391	H	0.695819	-0.333889	-0.000124
H392	H	1.029152	-0.000555	0.333210
H393	H	1.362485	0.332778	0.666543
H394	H	0.694889	-0.425336	-0.000107
H395	H	1.028223	-0.092003	0.333226
H396	H	1.361556	0.241330	0.666559
H397	H	0.654093	-0.095896	-0.000153
H398	H	0.987426	0.237438	0.333181
H399	H	1.320759	0.570771	0.666514
H400	H	0.647846	-0.710950	-0.000090
H401	H	0.981179	-0.377617	0.333243
H402	H	1.314513	-0.044283	0.666576
O403	O	0.631006	0.122412	-0.550191
O404	O	0.964340	0.455746	-0.216857
O405	O	1.297673	0.789079	0.116476
H406	H	0.657155	0.099064	-0.504778
H407	H	0.990488	0.432397	-0.171445
H408	H	1.323822	0.765730	0.161888
O409	O	0.417802	0.157171	-0.000036
O410	O	0.751135	0.490504	0.333297
O411	O	1.084468	0.823837	0.666630
H412	H	0.440485	0.159511	-0.064558
H413	H	0.773818	0.492844	0.268775
H414	H	1.107152	0.826178	0.602108
H415	H	0.493213	-0.165279	-0.000116
H416	H	0.826546	0.168055	0.333217
H417	H	1.159879	0.501388	0.666551
H418	H	0.646911	-0.802415	-0.000077
H419	H	0.980245	-0.469082	0.333256
H420	H	1.313578	-0.135749	0.666590
H421	H	0.486964	-0.780325	-0.000053
H422	H	0.820297	-0.446992	0.333281
H423	H	1.153631	-0.113659	0.666614
H424	H	0.487892	-0.688875	-0.000038
H425	H	0.821225	-0.355542	0.333295
H426	H	1.154558	-0.022208	0.666629
H427	H	-0.067947	0.184708	-0.000088
H428	H	0.265386	0.518041	0.333245
H429	H	0.598720	0.851375	0.666578
H430	H	0.517750	0.009058	-0.744199
H431	H	0.851083	0.342392	-0.410865
H432	H	1.184416	0.675725	-0.077532
H433	H	0.494146	-0.073812	-0.000108
H434	H	0.827480	0.259522	0.333225
H435	H	1.160813	0.592855	0.666558
O436	O	0.435060	-0.396138	-0.000019
O437	O	0.768393	-0.062804	0.333315
O438	O	1.101727	0.270529	0.666648
H439	H	0.404679	-0.365902	-0.000001
H440	H	0.738012	-0.032569	0.333333
H441	H	1.071346	0.300764	0.666666
O442	O	0.217285	-0.072509	-0.000170
O443	O	0.550618	0.260824	0.333164
O444	O	0.883951	0.594157	0.666497
H445	H	0.195515	-0.103423	-0.000177
H446	H	0.528848	0.229911	0.333157
H447	H	0.862182	0.563244	0.666490
H448	H	0.694282	-0.485125	-0.000101
H449	H	1.027615	-0.151791	0.333232
H450	H	1.360949	0.181542	0.666565
O451	O	0.313017	0.156111	-0.000054
O452	O	0.646350	0.489444	0.333279
O453	O	0.979683	0.822778	0.666612
H454	H	0.334790	0.187022	-0.000031
H455	H	0.668123	0.520355	0.333303
H456	H	1.001456	0.853688	0.666636
H457	H	0.434827	-0.014492	-0.000090
H458	H	0.768160	0.318841	0.333243
H459	H	1.101494	0.652174	0.666577
H460	H	0.174750	0.187180	-0.000055
H461	H	0.508083	0.520513	0.333278
H462	H	0.841417	0.853847	0.666611
H463	H	0.083302	0.186251	-0.000073
H464	H	0.416636	0.519584	0.333260
H465	H	0.749969	0.852917	0.666593
H466	H	-0.033688	-0.063392	-0.000161
H467	H	0.299645	0.269941	0.333172
H468	H	0.632979	0.603275	0.666505
O469	O	-0.197253	0.150924	-0.000098
O470	O	0.136081	0.484257	0.333235
O471	O	0.469414	0.817591	0.666569
H472	H	-0.227486	0.181307	-0.000098
H473	H	0.105848	0.514641	0.333236
H474	H	0.439181	0.847974	0.666569
H475	H	0.057760	-0.062462	-0.000158
H476	H	0.391093	0.270872	0.333175
H477	H	0.724427	0.604205	0.666509
O478	O	-0.302044	0.149859	-0.000109
O479	O	0.031289	0.483192	0.333224
O480	O	0.364622	0.816525	0.666557
H481	H	-0.340311	0.142048	-0.000122
H482	H	-0.006978	0.475382	0.333211
H483	H	0.326355	0.808715	0.666544
O484	O	0.338300	-0.027142	-0.000109
O485	O	0.671633	0.306191	0.333224
O486	O	1.004967	0.639525	0.666558
H487	H	0.368531	-0.057528	-0.000120
H488	H	0.701864	0.275806	0.333213
H489	H	1.035197	0.609139	0.666547
H490	H	0.023514	0.185643	-0.000079
H491	H	0.356847	0.518977	0.333254
H492	H	0.690181	0.852310	0.666587
