data_functionalizedCrystal
_audit_creation_method	'MofGen! by Chris Wilmer'
_symmetry_space_group_name_H-M	'P1'
_symmetry_Int_Tables_number	1
_symmetry_cell_setting	triclinic
loop_
_symmetry_equiv_pos_as_xyz
  x,y,z
_cell_length_a	16.974897
_cell_length_b	10.654545
_cell_length_c	16.053802
_cell_angle_alpha	92.592866
_cell_angle_beta	83.774775
_cell_angle_gamma	83.942301
loop_
_atom_site_label
_atom_site_type_symbol
_atom_site_fract_x
_atom_site_fract_y
_atom_site_fract_z
O1	O	1.056716	0.149419	-0.140750
O2	O	0.825882	0.170974	-0.125170
O3	O	0.946606	-0.022652	-0.133318
O4	O	0.935992	0.343045	-0.132603
O5	O	0.939961	-0.012038	0.005990
O6	O	0.819237	0.181588	0.014137
O7	O	1.050071	0.160033	-0.001442
Zn8	Zn	0.933599	0.172496	0.028465
Zn9	Zn	0.942354	0.158511	-0.155078
O10	O	0.929347	0.353659	0.006705
C11	C	0.793002	0.175655	-0.053522
C12	C	0.704931	0.173775	-0.047578
C13	C	0.667169	0.167109	-0.120716
C14	C	0.584414	0.165363	-0.115118
C15	C	0.539424	0.170274	-0.036383
C16	C	0.577190	0.176944	0.036761
C17	C	0.659943	0.178699	0.031163
C18	C	0.291542	0.165656	-0.011497
C19	C	0.208784	0.163897	-0.005905
C20	C	0.216014	0.152319	-0.157784
C21	C	0.298768	0.154066	-0.163376
C22	C	0.336527	0.160743	-0.090232
N23	N	0.454835	0.168486	-0.030659
N24	N	0.421113	0.162540	-0.095956
C25	C	0.942504	-0.064127	-0.063613
C26	C	0.940172	-0.203523	-0.063461
C27	C	0.947426	-0.215103	-0.215338
C28	C	0.949961	-0.286381	-0.291203
C29	C	0.947770	-0.417354	-0.291056
C30	C	0.943041	-0.477053	-0.215036
C31	C	0.940507	-0.405775	-0.139171
C32	C	0.942701	-0.274799	-0.139327
C33	C	0.933247	-0.394194	0.012705
C34	C	0.935443	-0.263221	0.012560
C35	C	0.928519	-0.453892	0.088725
C36	C	0.925990	-0.382615	0.164591
C37	C	0.928182	-0.251634	0.164441
C38	C	0.932909	-0.191943	0.088424
C39	C	1.082951	0.155352	-0.073093
C40	C	1.171022	0.157232	-0.079042
C41	C	0.933449	0.395134	-0.063002
C42	C	0.935781	0.534529	-0.063160
N43	N	0.927629	0.182039	0.153728
N44	N	0.948330	0.148958	-0.280342
C45	C	0.979016	0.099680	0.193954
C46	C	0.974848	0.106367	0.281642
C47	C	0.919296	0.195420	0.329103
C48	C	0.867903	0.277783	0.288871
C49	C	0.872068	0.271089	0.201185
C50	C	0.901102	0.224626	0.591740
C51	C	0.896943	0.231317	0.679432
C52	C	1.003887	0.059899	0.672198
C53	C	1.008050	0.053217	0.584510
C54	C	0.956655	0.135575	0.544286
N55	N	0.915036	0.202261	0.418734
N56	N	0.960912	0.128728	0.454656
H57	H	0.690686	0.184132	0.090719
H58	H	0.540551	0.180950	0.100869
H59	H	1.024256	0.027168	0.155317
H60	H	0.926730	-0.560537	0.088840
H61	H	1.045730	-0.007155	0.704956
H62	H	0.185261	0.146886	-0.217333
H63	H	0.953809	-0.237760	-0.353097
H64	H	0.172151	0.167932	0.058215
H65	H	0.322275	0.171084	0.048061
H66	H	0.822667	0.350288	0.327519
N67	N	0.950511	-0.494243	-0.372879
H68	H	0.953842	-0.436558	-0.421060
H69	H	0.998851	-0.559340	-0.379420
N70	N	0.715694	0.161798	-0.205639
H71	H	0.679211	0.157312	-0.251121
H72	H	0.744190	0.240115	-0.210868
N73	N	0.935265	-0.050679	0.088251
H74	H	0.885279	-0.006350	0.121333
H75	H	0.983481	-0.027458	0.114702
H76	H	0.830222	0.338153	0.168434
N77	N	0.940690	-0.618318	-0.214876
H78	H	0.943016	-0.654414	-0.274470
H79	H	0.987831	-0.657982	-0.188296
H80	H	0.859255	0.291688	0.558997
N81	N	0.949804	-0.073843	-0.215497
H82	H	0.953187	-0.046841	-0.275164
H83	H	0.899818	-0.029596	-0.182374
H84	H	0.922135	-0.431231	0.226481
N85	N	0.925442	-0.174757	0.246268
H86	H	0.922114	-0.232454	0.294443
H87	H	0.975281	-0.130678	0.246211
H88	H	0.335395	0.150058	-0.227491
H89	H	1.016691	0.039303	0.314394
H90	H	1.053285	-0.019297	0.545869
N91	N	0.837031	0.327384	0.730624
H92	H	0.805104	0.378544	0.691838
H93	H	0.799976	0.282297	0.769411
H94	H	0.553673	0.159936	-0.174675
