data_functionalizedCrystal
_audit_creation_method	'MofGen! by Chris Wilmer'
_symmetry_space_group_name_H-M	'P1'
_symmetry_Int_Tables_number	1
_symmetry_cell_setting	triclinic
loop_
_symmetry_equiv_pos_as_xyz
  x,y,z
_cell_length_a	21.395364
_cell_length_b	21.395362
_cell_length_c	21.395355
_cell_angle_alpha	90.020549
_cell_angle_beta	90.024552
_cell_angle_gamma	90.044742
loop_
_atom_site_label
_atom_site_type_symbol
_atom_site_fract_x
_atom_site_fract_y
_atom_site_fract_z
Zn1	Zn	0.957863	-0.249261	0.354253
Zn2	Zn	1.457863	0.250739	0.854253
Zn3	Zn	0.957767	-0.354021	0.249471
Zn4	Zn	1.457767	0.145979	0.749471
Zn5	Zn	0.853078	-0.249289	0.249489
Zn6	Zn	1.353078	0.250711	0.749489
Zn7	Zn	0.853049	-0.354032	0.354212
Zn8	Zn	1.353049	0.145968	0.854212
O9	O	0.905439	-0.301651	0.301856
O10	O	1.405439	0.198349	0.801856
O11	O	1.045528	-0.263142	0.340363
O12	O	1.545528	0.236858	0.840363
O13	O	0.943852	-0.340135	0.161796
O14	O	1.443852	0.159865	0.661796
O15	O	0.867030	-0.161607	0.263411
O16	O	1.367030	0.338393	0.763411
O17	O	1.045458	-0.340108	0.263381
O18	O	1.545458	0.159892	0.763381
O19	O	0.944016	-0.161587	0.340380
O20	O	1.444016	0.338413	0.840380
O21	O	0.866938	-0.263188	0.161809
O22	O	1.366938	0.236812	0.661809
O23	O	0.765396	-0.263199	0.263371
O24	O	1.265396	0.236801	0.763371
O25	O	0.866981	-0.340127	0.441895
O26	O	1.366981	0.159873	0.941895
O27	O	0.765375	-0.340154	0.340310
O28	O	1.265375	0.159846	0.840310
O29	O	0.943987	-0.263152	0.441925
O30	O	1.443987	0.236848	0.941925
O31	O	0.943824	-0.441700	0.263341
O32	O	1.443824	0.058300	0.763341
O33	O	0.866888	-0.441709	0.340293
O34	O	1.366888	0.058291	0.840293
C35	C	0.742652	-0.301681	0.301839
C36	C	1.242652	0.198319	0.801839
C37	C	0.673011	-0.301709	0.301846
C38	C	1.173011	0.198291	0.801846
C39	C	0.640356	-0.261698	0.341993
C40	C	1.140356	0.238302	0.841993
C41	C	0.574921	-0.261682	0.341995
C42	C	1.074921	0.238318	0.841995
C43	C	0.542142	-0.301687	0.301857
C44	C	1.042142	0.198313	0.801857
C45	C	0.574804	-0.341701	0.261703
C46	C	1.074804	0.158299	0.761703
C47	C	0.640238	-0.341712	0.261697
C48	C	1.140238	0.158288	0.761697
C49	C	0.438419	-0.358112	0.296818
C50	C	0.938419	0.141888	0.796818
C51	C	0.372986	-0.358102	0.296828
C52	C	0.872986	0.141898	0.796828
C53	C	0.340322	-0.301653	0.301871
C54	C	0.840322	0.198347	0.801871
C55	C	0.373098	-0.245212	0.306918
C56	C	0.873098	0.254788	0.806918
C57	C	0.438532	-0.245223	0.306912
C58	C	0.938532	0.254777	0.806912
C59	C	0.471190	-0.301679	0.301859
C60	C	0.971190	0.198321	0.801859
C61	C	0.236715	-0.261620	0.342023
C62	C	0.736715	0.238380	0.842023
C63	C	0.171278	-0.261603	0.342021
C64	C	0.671278	0.238397	0.842021
C65	C	0.171163	-0.341627	0.261732
C66	C	0.671163	0.158373	0.761732
C67	C	0.236598	-0.341640	0.261731
C68	C	0.736598	0.158360	0.761731
C69	C	0.269370	-0.301637	0.301879
C70	C	0.769370	0.198363	0.801879
C71	C	0.905359	-0.464438	0.301824
C72	C	1.405359	0.035562	0.801824
C73	C	0.905382	-0.534080	0.301831
C74	C	1.405382	-0.034080	0.801831
C75	C	0.945446	-0.566725	0.341938
C76	C	1.445446	-0.066725	0.841938
C77	C	0.945468	-0.632161	0.341953
C78	C	1.445468	-0.132161	0.841953
C79	C	0.905433	-0.664948	0.301851
C80	C	1.405433	-0.164948	0.801851
C81	C	0.865362	-0.632294	0.261742
C82	C	1.365362	-0.132294	0.761742
C83	C	0.865337	-0.566860	0.261732
C84	C	1.365337	-0.066860	0.761732
C85	C	0.900556	-0.768649	0.245412
C86	C	1.400556	-0.268649	0.745412
C87	C	0.900586	-0.834082	0.245421
C88	C	1.400586	-0.334082	0.745421
C89	C	0.905507	-0.866769	0.301881
C90	C	1.405507	-0.366769	0.801881
C91	C	0.910413	-0.834014	0.358334
C92	C	1.410413	-0.334014	0.858334
C93	C	0.910387	-0.768580	0.358325
C94	C	1.410387	-0.268580	0.858325
C95	C	0.905456	-0.735900	0.301857
C96	C	1.405456	-0.235900	0.801857
C97	C	0.945597	-0.970367	0.342007
C98	C	1.445597	-0.470367	0.842007
C99	C	0.945614	-1.035803	0.342024
C100	C	1.445614	-0.535803	0.842024
C101	C	0.865512	-1.035936	0.261807
C102	C	1.365512	-0.535936	0.761807
C103	C	0.865491	-0.970500	0.261796
C104	C	1.365491	-0.470500	0.761796
C105	C	0.905537	-0.937720	0.301895
C106	C	1.405537	-0.437720	0.801895
C107	C	1.068863	-0.301621	0.301874
C108	C	1.568863	0.198379	0.801874
C109	C	1.138504	-0.301608	0.301882
C110	C	1.638504	0.198392	0.801882
C111	C	0.905491	-0.301638	0.465280
C112	C	1.405491	0.198362	0.965280
C113	C	0.905514	-0.301633	0.534921
C114	C	1.405514	0.198367	1.034921
C115	C	0.905537	-0.138227	0.301902
C116	C	1.405537	0.361773	0.801902
C117	C	0.905578	-0.068586	0.301922
C118	C	1.405578	0.431414	0.801922
C119	C	0.905424	-0.301618	0.139069
C120	C	1.405424	0.198382	0.639069
C121	C	0.905523	-0.301447	0.069428
C122	C	1.405523	0.198553	0.569428
C123	C	0.945609	-0.261550	0.567651
C124	C	1.445609	0.238450	1.067651
C125	C	0.945608	-0.261523	0.633086
C126	C	1.445608	0.238477	1.133086
C127	C	0.905519	-0.301590	0.665789
C128	C	1.405519	0.198410	1.165789
C129	C	0.865415	-0.341675	0.633052
C130	C	1.365415	0.158325	1.133052
C131	C	0.865413	-0.341697	0.567617
C132	C	1.365413	0.158303	1.067617
C133	C	0.900543	-0.358007	0.769453
C134	C	1.400543	0.141993	1.269453
C135	C	0.900550	-0.357986	0.834886
C136	C	1.400550	0.142014	1.334886
C137	C	0.905522	-0.301524	0.867610
C138	C	1.405522	0.198476	1.367610
C139	C	0.910501	-0.245080	0.834893
C140	C	1.410501	0.254920	1.334893
C141	C	0.910498	-0.245101	0.769459
C142	C	1.410498	0.254899	1.269459
C143	C	0.905516	-0.301571	0.736742
C144	C	1.405516	0.198429	1.236742
C145	C	0.945619	-0.261409	0.971293
C146	C	1.445619	0.238591	1.471293
C147	C	0.945614	-0.261381	1.036729
C148	C	1.445614	0.238619	1.536729
C149	C	0.865424	-0.341538	1.036693
C150	C	1.365424	0.158462	1.536693
C151	C	0.865426	-0.341561	0.971258
C152	C	1.365426	0.158439	1.471258
C153	C	0.905527	-0.301497	0.938561
C154	C	1.405527	0.198503	1.438561
H155	H	0.666825	-0.374295	0.229004
H156	H	1.166825	0.125705	0.729004
H157	H	0.548329	-0.229097	0.374686
H158	H	1.048329	0.270903	0.874686
N159	N	0.822156	-0.384928	0.532320
N160	N	1.322156	0.115072	1.032320
H161	H	0.831854	-0.429691	0.543711
H162	H	1.331854	0.070309	1.043711
H163	H	0.828252	-0.378813	0.485916
H164	H	1.328252	0.121187	0.985916
N165	N	0.915664	-0.733252	0.419210
N166	N	1.415664	-0.233252	0.919210
H167	H	0.914899	-0.686842	0.410634
H168	H	1.414899	-0.186842	0.910634
H169	H	0.956203	-0.744628	0.440546
H170	H	1.456203	-0.244628	0.940546
N171	N	0.822289	-0.935287	0.218527
N172	N	1.322289	-0.435287	0.718527
H173	H	0.828348	-0.888860	0.224605
H174	H	1.328348	-0.388860	0.724605
H175	H	0.777540	-0.946770	0.228237
H176	H	1.277540	-0.446770	0.728237
H177	H	0.263185	-0.374223	0.229041
H178	H	0.763185	0.125777	0.729041
H179	H	0.896327	-0.403973	0.742814
H180	H	1.396327	0.096027	1.242814
N181	N	0.822335	-1.071292	0.218549
N182	N	1.322335	-0.571292	0.718549
H183	H	0.796953	-1.040678	0.193137
H184	H	1.296953	-0.540678	0.693137
H185	H	0.793337	-1.098461	0.244030
H186	H	1.293337	-0.598461	0.744030
H187	H	0.914550	-0.199143	0.742824
H188	H	1.414550	0.300857	1.242824
N189	N	0.988857	-0.218135	1.072026
N190	N	1.488857	0.281865	1.572026
H191	H	1.033618	-0.227862	1.060659
H192	H	1.533618	0.272138	1.560659
H193	H	0.982722	-0.224210	1.118430
H194	H	1.482722	0.275790	1.618430
N195	N	0.988683	-0.667378	0.385213
N196	N	1.488683	-0.167378	0.885213
H197	H	1.033449	-0.655943	0.375515
H198	H	1.533449	-0.155943	0.875515
H199	H	0.982570	-0.713793	0.379113
H200	H	1.482570	-0.213793	0.879113
H201	H	0.978051	-0.540037	0.374591
H202	H	1.478051	-0.040037	0.874591
N203	N	0.337636	-0.418973	0.291385
N204	N	0.837636	0.081027	0.791385
H205	H	0.368256	-0.454734	0.288180
H206	H	0.868256	0.045266	0.788180
H207	H	0.310469	-0.418004	0.252784
H208	H	0.810469	0.081996	0.752784
H209	H	0.978202	-0.943676	0.374661
H210	H	1.478202	-0.443676	0.874661
H211	H	0.465216	-0.199267	0.311019
H212	H	0.965216	0.300733	0.811019
N213	N	0.988877	-0.218203	0.936029
N214	N	1.488877	0.281797	1.436029
H215	H	1.017898	-0.243679	0.908902
H216	H	1.517898	0.256321	1.408902
H217	H	1.014232	-0.192819	0.966742
H218	H	1.514232	0.307181	1.466742
H219	H	0.896595	-0.860746	0.199453
H220	H	1.396595	-0.360746	0.699453
N221	N	0.895241	-0.733398	0.184512
N222	N	1.395241	-0.233398	0.684512
H223	H	0.892142	-0.764075	0.148752
H224	H	1.392142	-0.264075	0.648752
H225	H	0.933407	-0.706206	0.178724
H226	H	1.433407	-0.206206	0.678724
N227	N	0.822171	-0.384880	0.668328
N228	N	1.322171	0.115120	1.168328
H229	H	0.847614	-0.413903	0.695487
H230	H	1.347614	0.086097	1.195487
H231	H	0.796772	-0.410235	0.637628
H232	H	1.296772	0.089765	1.137628
H233	H	0.832764	-0.658994	0.229091
H234	H	1.332764	-0.158994	0.729091
H235	H	0.914421	-0.860625	0.404310
H236	H	1.414421	-0.360625	0.904310
H237	H	0.263399	-0.229044	0.374710
H238	H	0.763399	0.270956	0.874710
N239	N	0.675703	-0.218554	0.385293
N240	N	1.175703	0.281446	0.885293
H241	H	0.645084	-0.193204	0.410726
H242	H	1.145084	0.306796	0.910726
H243	H	0.702866	-0.189523	0.359841
H244	H	1.202866	0.310477	0.859841
H245	H	0.144475	-0.374200	0.229051
H246	H	0.644475	0.125800	0.729051
N247	N	0.988804	-1.071018	0.385307
N248	N	1.488804	-0.571018	0.885307
H249	H	1.014161	-1.040320	0.410712
H250	H	1.514161	-0.540320	0.910712
H251	H	1.017826	-1.098160	0.359853
H252	H	1.517826	-0.598160	0.859853
N253	N	0.822125	-0.531645	0.218471
N254	N	1.322125	-0.031645	0.718471
H255	H	0.796765	-0.562342	0.193069
H256	H	1.296765	-0.062342	0.693069
H257	H	0.847636	-0.504483	0.189495
H258	H	1.347636	-0.004483	0.689495
H259	H	0.465009	-0.404083	0.292710
H260	H	0.965009	0.095917	0.792710
N261	N	0.988851	-0.218324	0.532395
N262	N	1.488851	0.281676	1.032395
H263	H	0.963401	-0.189301	0.505243
H264	H	1.463401	0.310699	1.005243
H265	H	1.017867	-0.243824	0.505289
H266	H	1.517867	0.256176	1.005289
H267	H	0.978258	-0.228880	0.659740
H268	H	1.478258	0.271120	1.159740
H269	H	0.914551	-0.199103	0.861536
H270	H	1.414551	0.300897	1.361536
N271	N	0.822178	-0.384749	1.071956
N272	N	1.322178	0.115251	1.571956
H273	H	0.828261	-0.378653	1.118376
H274	H	1.328261	0.121347	1.618376
H275	H	0.831901	-0.429500	1.060523
H276	H	1.331901	0.070500	1.560523
H277	H	0.832780	-0.374204	0.944609
H278	H	1.332780	0.125796	1.444609
N279	N	0.895186	-0.418861	0.870171
N280	N	1.395186	0.081139	1.370171
H281	H	0.892028	-0.454633	0.839512
H282	H	1.392028	0.045367	1.339512
H283	H	0.856583	-0.417955	0.897306
H284	H	1.356583	0.082045	1.397306
H285	H	0.346504	-0.199246	0.311025
H286	H	0.846504	0.300754	0.811025
N287	N	0.136063	-0.218434	0.385319
N288	N	0.636063	0.281566	0.885319
H289	H	0.147462	-0.228234	0.430068
H290	H	0.647462	0.271766	0.930068
H291	H	0.089648	-0.224507	0.379178
H292	H	0.589648	0.275493	0.879178
N293	N	0.539455	-0.384846	0.218406
N294	N	1.039455	0.115154	0.718406
H295	H	0.493047	-0.378768	0.224502
H296	H	0.993047	0.121232	0.724502
H297	H	0.550855	-0.429610	0.228071
H298	H	1.050855	0.070390	0.728071
