data_functionalizedCrystal
_audit_creation_method	'MofGen! by Chris Wilmer'
_symmetry_space_group_name_H-M	'P1'
_symmetry_Int_Tables_number	1
_symmetry_cell_setting	triclinic
loop_
_symmetry_equiv_pos_as_xyz
  x,y,z
_cell_length_a	19.121102
_cell_length_b	19.121063
_cell_length_c	13.897441
_cell_angle_alpha	92.405670
_cell_angle_beta	87.539222
_cell_angle_gamma	90.126902
loop_
_atom_site_label
_atom_site_type_symbol
_atom_site_fract_x
_atom_site_fract_y
_atom_site_fract_z
Zn1	Zn	1.059871	-0.324874	-0.626425
Zn2	Zn	1.054772	-0.442120	-0.471683
Zn3	Zn	0.942627	-0.319896	-0.457988
Zn4	Zn	0.937596	-0.437065	-0.625779
O5	O	0.998716	-0.380989	-0.545469
O6	O	1.157299	-0.344626	-0.611899
O7	O	1.039867	-0.425939	-0.334884
O8	O	0.962420	-0.222453	-0.474871
O9	O	1.153553	-0.430766	-0.498211
O10	O	1.048558	-0.226111	-0.598621
O11	O	0.957475	-0.336141	-0.324823
O12	O	0.843855	-0.331240	-0.474245
O13	O	0.953844	-0.422150	-0.760847
O14	O	0.840158	-0.417323	-0.597520
O15	O	1.043679	-0.339725	-0.761321
O16	O	1.034988	-0.539553	-0.497585
O17	O	0.948899	-0.535839	-0.610799
C18	C	0.816569	-0.373193	-0.534327
C19	C	0.738644	-0.369875	-0.529585
C20	C	0.700126	-0.413203	-0.591446
C21	C	0.626908	-0.410076	-0.586994
C22	C	0.592210	-0.363624	-0.520675
C23	C	0.630734	-0.320291	-0.458811
C24	C	0.703950	-0.323415	-0.463268
C25	C	0.371239	-0.351942	-0.504014
C26	C	0.298017	-0.348823	-0.499560
C27	C	0.294197	-0.438607	-0.627745
C28	C	0.367415	-0.441730	-0.632193
C29	C	0.405932	-0.398395	-0.570332
C30	C	0.517370	-0.360428	-0.516121
C31	C	0.480771	-0.401587	-0.574891
C32	C	0.990863	-0.563133	-0.555630
C33	C	0.987568	-0.641058	-0.560013
C34	C	1.030876	-0.679580	-0.503181
C35	C	1.027781	-0.752798	-0.507309
C36	C	0.981374	-0.787495	-0.568265
C37	C	0.938064	-0.748968	-0.625104
C38	C	0.941163	-0.675751	-0.620980
C39	C	0.969775	-1.008468	-0.583668
C40	C	0.966678	-1.081691	-0.587785
C41	C	1.056397	-1.085516	-0.469991
C42	C	1.059489	-1.012297	-0.465868
C43	C	1.016182	-0.973777	-0.522711
C44	C	0.978207	-0.862336	-0.572484
C45	C	1.019352	-0.898937	-0.518496
C46	C	1.181575	-0.388816	-0.556655
C47	C	1.259499	-0.392151	-0.561421
C48	C	0.998769	-0.380929	-0.797062
C49	C	0.998791	-0.380903	-0.904275
C50	C	1.006619	-0.198134	-0.535290
C51	C	1.009987	-0.120212	-0.530953
C52	C	0.998812	-0.380857	-1.100569
C53	C	0.998798	-0.380885	-0.991337
C54	C	0.998707	-0.381000	-0.294855
C55	C	0.998829	-0.380833	-0.187639
H56	H	0.602477	-0.282466	-0.404816
O57	O	0.408686	-0.309781	-0.444057
C58	C	0.453017	-0.266368	-0.499131
H59	H	0.431162	-0.261162	-0.573531
H60	H	0.456161	-0.212421	-0.461401
H61	H	0.507574	-0.290414	-0.506995
O62	O	1.064331	-0.865201	-0.459173
C63	C	1.026224	-0.821198	-0.392033
H64	H	0.970076	-0.840957	-0.383886
H65	H	1.051638	-0.821465	-0.319331
H66	H	1.026143	-0.765592	-0.418588
H67	H	0.735311	-0.288129	-0.412898
O68	O	0.589574	-0.452142	-0.647217
C69	C	0.608144	-0.437670	-0.743633
H70	H	0.662463	-0.412985	-0.747429
H71	H	0.608490	-0.488418	-0.789736
H72	H	0.568497	-0.399908	-0.771700
H73	H	0.940421	-0.890594	-0.622113
H74	H	1.091657	-1.116887	-0.423715
O75	O	0.514392	-0.446803	-0.639266
C76	C	0.493503	-0.515895	-0.620815
H77	H	0.440267	-0.515050	-0.580579
H78	H	0.489672	-0.547290	-0.691964
H79	H	0.533678	-0.541215	-0.574987
O80	O	0.483621	-0.315403	-0.451607
C81	C	0.439509	-0.353450	-0.388884
H82	H	0.459196	-0.409598	-0.387206
H83	H	0.439730	-0.327984	-0.313242
H84	H	0.383930	-0.353531	-0.415483
O85	O	0.927673	-0.970974	-0.638732
C86	C	0.884195	-0.926768	-0.578610
H87	H	0.909415	-0.916879	-0.506437
H88	H	0.876963	-0.874865	-0.614412
H89	H	0.831048	-0.952814	-0.566364
O90	O	1.076017	-0.645990	-0.443944
C91	C	1.113566	-0.695694	-0.394651
H92	H	1.113770	-0.747963	-0.437251
H93	H	1.169703	-0.676860	-0.386605
H94	H	1.087588	-0.702449	-0.320238
H95	H	0.900280	-0.777224	-0.674740
H96	H	1.097278	-0.984049	-0.416233
H97	H	0.395661	-0.479557	-0.686195
O98	O	1.070020	-0.790203	-0.452319
C99	C	1.113480	-0.834356	-0.512544
H100	H	1.118570	-0.812422	-0.587543
H101	H	1.167467	-0.837369	-0.481205
H102	H	1.089548	-0.888979	-0.517584
H103	H	0.928896	-1.109938	-0.637440
H104	H	0.905897	-0.644387	-0.667260
H105	H	0.262828	-0.473887	-0.678110
O106	O	0.733910	-0.458232	-0.655917
C107	C	0.777987	-0.420179	-0.718678
H108	H	0.791235	-0.367490	-0.682477
H109	H	0.828246	-0.450944	-0.736271
H110	H	0.750123	-0.411335	-0.788034
H111	H	0.269768	-0.310988	-0.445560
