data_functionalizedCrystal
_audit_creation_method	'MofGen! by Chris Wilmer'
_symmetry_space_group_name_H-M	'P1'
_symmetry_Int_Tables_number	1
_symmetry_cell_setting	triclinic
loop_
_symmetry_equiv_pos_as_xyz
  x,y,z
_cell_length_a	17.699083
_cell_length_b	17.699083
_cell_length_c	16.176319
_cell_angle_alpha	89.992304
_cell_angle_beta	90.006703
_cell_angle_gamma	96.717152
loop_
_atom_site_label
_atom_site_type_symbol
_atom_site_fract_x
_atom_site_fract_y
_atom_site_fract_z
O1	O	-1.004079	0.095710	-0.068734
O2	O	-0.504079	0.595710	0.431266
O3	O	-0.783701	0.108163	-0.068739
O4	O	-0.283701	0.608163	0.431261
O5	O	-0.900116	-0.008252	-0.068729
O6	O	-0.400116	0.491748	0.431271
O7	O	-0.887664	0.212126	-0.068744
O8	O	-0.387664	0.712126	0.431256
O9	O	-0.900100	-0.008260	0.068764
O10	O	-0.400100	0.491740	0.568764
O11	O	-0.783685	0.108156	0.068754
O12	O	-0.283685	0.608156	0.568754
O13	O	-1.004063	0.095703	0.068759
O14	O	-0.504063	0.595703	0.568759
Cu15	Cu	-0.893872	0.101929	0.081311
Cu16	Cu	-0.393872	0.601929	0.581311
Cu17	Cu	-0.893891	0.101937	-0.081291
Cu18	Cu	-0.393891	0.601937	0.418709
O19	O	-0.887648	0.212119	0.068749
O20	O	-0.387648	0.712119	0.568749
C21	C	-0.755496	0.107713	0.000007
C22	C	-0.255496	0.607713	0.500007
C23	C	-0.671478	0.106375	0.000005
C24	C	-0.171478	0.606375	0.500005
C25	C	-0.632002	0.105740	0.074954
C26	C	-0.132002	0.605740	0.574954
C27	C	-0.553059	0.104471	0.074954
C28	C	-0.053059	0.604471	0.574954
C29	C	-0.513594	0.103841	0.000006
C30	C	-0.013594	0.603841	0.500006
C31	C	-0.553075	0.104474	-0.074948
C32	C	-0.053075	0.604474	0.425052
C33	C	-0.632017	0.105738	-0.074948
C34	C	-0.132017	0.605738	0.425052
C35	C	-0.234713	0.099375	-0.074950
C36	C	0.265287	0.599375	0.425050
C37	C	-0.155765	0.098113	-0.074945
C38	C	0.344235	0.598113	0.425055
C39	C	-0.155755	0.098107	0.074952
C40	C	0.344245	0.598107	0.574952
C41	C	-0.234697	0.099372	0.074952
C42	C	0.265303	0.599372	0.574952
C43	C	-0.274172	0.100000	-0.000001
C44	C	0.225828	0.600000	0.499999
C45	C	-0.359771	0.101375	-0.000001
C46	C	0.140229	0.601375	0.499999
C47	C	-0.427996	0.102472	0.000005
C48	C	0.072004	0.602472	0.500005
C49	C	-0.899662	-0.036453	0.000017
C50	C	-0.399662	0.463547	0.500017
C51	C	-0.898323	-0.120471	0.000018
C52	C	-0.398323	0.379529	0.500018
C53	C	-0.966657	-0.169092	0.000020
C54	C	-0.466657	0.330908	0.500020
C55	C	-0.965395	-0.248036	0.000013
C56	C	-0.465395	0.251964	0.500013
C57	C	-0.895798	-0.278356	0.000009
C58	C	-0.395798	0.221644	0.500009
C59	C	-0.827459	-0.229729	0.000004
C60	C	-0.327459	0.270271	0.500004
C61	C	-0.828722	-0.150787	0.000005
C62	C	-0.328722	0.349213	0.500005
C63	C	-0.822364	-0.548092	-0.000003
C64	C	-0.322364	-0.048092	0.499997
C65	C	-0.821106	-0.627040	-0.000002
C66	C	-0.321106	-0.127040	0.499998
C67	C	-0.959036	-0.645341	0.000005
C68	C	-0.459036	-0.145341	0.500005
C69	C	-0.960299	-0.566399	0.000006
C70	C	-0.460299	-0.066399	0.500006
C71	C	-0.891961	-0.517778	-0.000003
C72	C	-0.391961	-0.017778	0.499997
C73	C	-0.893331	-0.432179	0.000003
C74	C	-0.393331	0.067821	0.500003
C75	C	-0.894428	-0.363954	0.000009
C76	C	-0.394428	0.136046	0.500009
C77	C	-0.032269	0.096148	0.000010
C78	C	0.467731	0.596148	0.500010
C79	C	-0.116289	0.097472	0.000004
C80	C	0.383711	0.597472	0.500004
C81	C	-0.888102	0.240319	0.000001
C82	C	-0.388102	0.740319	0.500001
C83	C	-0.889441	0.324337	-0.000005
C84	C	-0.389441	0.824337	0.499995
N85	N	-0.893865	0.101922	0.195676
N86	N	-0.393865	0.601922	0.695676
N87	N	-0.893905	0.101938	-0.195656
N88	N	-0.393905	0.601938	0.304344
C89	C	-0.945429	0.050394	0.238945
C90	C	-0.445429	0.550394	0.738945
C91	C	-0.945433	0.050393	0.325492
C92	C	-0.445433	0.550393	0.825492
C93	C	-0.893875	0.101925	0.368769
C94	C	-0.393875	0.601925	0.868769
C95	C	-0.842306	0.153455	0.325494
C96	C	-0.342306	0.653455	0.825494
C97	C	-0.842299	0.153452	0.238948
C98	C	-0.342299	0.653452	0.738948
C99	C	-0.842332	0.153469	0.674522
C100	C	-0.342332	0.653469	1.174522
C101	C	-0.842344	0.153470	0.761074
C102	C	-0.342344	0.653470	1.261074
C103	C	-0.945466	0.050411	0.761065
C104	C	-0.445466	0.550411	1.261065
C105	C	-0.945459	0.050408	0.674520
C106	C	-0.445459	0.550408	1.174520
C107	C	-0.893887	0.101935	0.631253
C108	C	-0.393887	0.601935	1.131253
C109	C	-0.893882	0.101934	0.537409
C110	C	-0.393882	0.601934	1.037409
C111	C	-0.893883	0.101930	0.462611
C112	C	-0.393883	0.601930	0.962611
H113	H	-0.123605	0.097592	0.135983
H114	H	0.376395	0.597592	0.635983
O115	O	-0.755019	-0.098343	0.000013
O116	O	-0.255019	0.401657	0.500013
H117	H	-0.721708	-0.109102	-0.056023
H118	H	-0.221708	0.390898	0.443977
O119	O	-1.001027	-0.005192	0.192262
O120	O	-0.501027	0.494808	0.692262
H121	H	-1.060013	0.004364	0.208853
H122	H	-0.560013	0.504364	0.708853
O123	O	-0.746037	-0.659745	-0.000005
O124	O	-0.246037	-0.159745	0.499995
H125	H	-0.742177	-0.695276	-0.056039
H126	H	-0.242177	-0.195276	0.443961
O127	O	-0.113209	0.097422	-0.155793
O128	O	0.386791	0.597422	0.344207
H129	H	-0.070404	0.148415	-0.159398
H130	H	0.429596	0.648415	0.340602
H131	H	-0.800323	0.195410	0.360735
H132	H	-0.300323	0.695410	0.860735
H133	H	-0.987420	0.008435	0.360721
H134	H	-0.487420	0.508435	0.860721
H135	H	-1.014680	-0.684937	0.000008
H136	H	-0.514680	-0.184937	0.500008
O137	O	-0.786732	0.209061	0.807743
O138	O	-0.286732	0.709061	1.307743
H139	H	-0.750016	0.177254	0.847200
H140	H	-0.250016	0.677254	1.347200
H141	H	-0.987444	0.008449	0.639286
H142	H	-0.487444	0.508449	1.139286
H143	H	-0.266845	0.099884	-0.135982
H144	H	0.233155	0.599884	0.364018
H145	H	-1.016972	-0.541717	0.000014
H146	H	-0.516972	-0.041717	0.500014
O147	O	-0.510514	0.103798	-0.155789
O148	O	-0.010514	0.603798	0.344211
H149	H	-0.448987	0.102821	-0.143200
H150	H	0.051013	0.602821	0.356800
O151	O	-0.277266	0.100054	0.155788
O152	O	0.222734	0.600054	0.655788
H153	H	-0.306379	0.152200	0.159364
H154	H	0.193621	0.652200	0.659364
H155	H	-0.664157	0.106256	-0.135979
H156	H	-0.164157	0.606256	0.364021
O157	O	-1.001086	-0.005176	0.807730
O158	O	-0.501086	0.494824	1.307730
H159	H	-0.992427	0.003474	0.875182
H160	H	-0.492427	0.503474	1.375182
O161	O	-0.748660	-0.495655	0.000008
O162	O	-0.248660	0.004345	0.500008
H163	H	-0.700056	-0.530004	0.000020
H164	H	-0.200056	-0.030004	0.500020
H165	H	-1.021039	-0.287620	0.000017
H166	H	-0.521039	0.212380	0.500017
H167	H	-1.023330	-0.144412	0.000029
H168	H	-0.523330	0.355588	0.500029
O169	O	-0.786713	0.209049	0.627865
O170	O	-0.286713	0.709049	1.127865
H171	H	-0.818499	0.245789	0.588414
H172	H	-0.318499	0.745789	1.088414
H173	H	-0.800309	0.195410	0.203720
H174	H	-0.300309	0.695410	0.703720
H175	H	-0.664128	0.106259	0.135986
H176	H	-0.164128	0.606259	0.635986
O177	O	-0.752394	-0.262431	0.000009
O178	O	-0.252394	0.237569	0.500009
H179	H	-0.748526	-0.297961	-0.056025
H180	H	-0.248526	0.202039	0.443975
O181	O	-0.510477	0.103794	0.155791
O182	O	-0.010477	0.603794	0.655791
H183	H	-0.551181	0.104457	0.207906
H184	H	-0.051181	0.604457	0.707906
