data_functionalizedCrystal
_audit_creation_method	'MofGen! by Chris Wilmer'
_symmetry_space_group_name_H-M	'P1'
_symmetry_Int_Tables_number	1
_symmetry_cell_setting	triclinic
loop_
_symmetry_equiv_pos_as_xyz
  x,y,z
_cell_length_a	16.120490
_cell_length_b	18.050590
_cell_length_c	16.120297
_cell_angle_alpha	92.871020
_cell_angle_beta	90.129683
_cell_angle_gamma	87.110849
loop_
_atom_site_label
_atom_site_type_symbol
_atom_site_fract_x
_atom_site_fract_y
_atom_site_fract_z
Zn1	Zn	1.247484	-0.376310	-0.534523
Zn2	Zn	1.254446	-0.494536	-0.395461
Zn3	Zn	1.115472	-0.363754	-0.388444
Zn4	Zn	1.108402	-0.493845	-0.527434
O5	O	1.181451	-0.432111	-0.461466
O6	O	1.364775	-0.397537	-0.521979
O7	O	1.241884	-0.472222	-0.278165
O8	O	1.133029	-0.261498	-0.407852
O9	O	1.369890	-0.484397	-0.419811
O10	O	1.230018	-0.270723	-0.515175
O11	O	1.139780	-0.376137	-0.273010
O12	O	0.998167	-0.375467	-0.400978
O13	O	1.120979	-0.483219	-0.644740
O14	O	0.992972	-0.471044	-0.503094
O15	O	1.223162	-0.396867	-0.649948
O16	O	1.235028	-0.598365	-0.412938
O17	O	1.127730	-0.597857	-0.509898
C18	C	0.965397	-0.421819	-0.450506
C19	C	0.872967	-0.417434	-0.445837
C20	C	0.660009	-0.454848	-0.485686
C21	C	0.703741	-0.409436	-0.437312
C22	C	0.797907	-0.413887	-0.442057
C23	C	0.565834	-0.450398	-0.480942
C24	C	1.181389	-0.625059	-0.461429
C25	C	1.181437	-0.707607	-0.461445
C26	C	1.239897	-0.907316	-0.408802
C27	C	1.256363	-0.960870	-0.485723
C28	C	1.181483	-0.858741	-0.461481
C29	C	1.165100	-0.952274	-0.384598
C30	C	1.181528	-1.004730	-0.461509
C31	C	1.197985	-0.911212	-0.538444
C32	C	1.106690	-0.902608	-0.437266
C33	C	1.123123	-0.956141	-0.514238
C34	C	1.181458	-0.774641	-0.461464
C35	C	1.181552	-1.088829	-0.461534
C36	C	1.398349	-0.442444	-0.472469
C37	C	1.490778	-0.446848	-0.477158
C38	C	1.170505	-0.441366	-0.678360
C39	C	1.165840	-0.445310	-0.770787
C40	C	1.181535	-0.238412	-0.461522
C41	C	1.181571	-0.155869	-0.461545
C42	C	1.157293	-0.452493	-0.940012
C43	C	1.205773	-0.411514	-0.983780
C44	C	1.201017	-0.415511	-1.077942
C45	C	1.162048	-0.448497	-0.845841
C46	C	1.192403	-0.422840	-0.245418
C47	C	1.197229	-0.418695	-0.152999
H48	H	0.670461	-0.367214	-0.392334
O49	O	1.097585	-0.502938	-0.984043
H50	H	1.132832	-0.544141	-1.025501
H51	H	1.211794	-0.893126	-0.603527
H52	H	0.693287	-0.497067	-0.530659
H53	H	1.073741	-0.977452	-0.558853
H54	H	1.250849	-0.373429	-0.950532
H55	H	1.319633	-0.986316	-0.506222
O56	O	1.305342	-0.878901	-0.349856
H57	H	1.367388	-0.902369	-0.370170
H58	H	1.043439	-0.877146	-0.416746
O59	O	1.146706	-0.976348	-0.298460
H60	H	1.195261	-0.956802	-0.254845
