data_functionalizedCrystal
_audit_creation_method	'MofGen! by Chris Wilmer'
_symmetry_space_group_name_H-M	'P1'
_symmetry_Int_Tables_number	1
_symmetry_cell_setting	triclinic
loop_
_symmetry_equiv_pos_as_xyz
  x,y,z
_cell_length_a	12.478026
_cell_length_b	23.196402
_cell_length_c	23.196401
_cell_angle_alpha	60.007472
_cell_angle_beta	84.715245
_cell_angle_gamma	57.042605
loop_
_atom_site_label
_atom_site_type_symbol
_atom_site_fract_x
_atom_site_fract_y
_atom_site_fract_z
Zr1	Zr	1.036819	0.631009	-0.127144
O2	O	0.864933	0.751277	-0.210656
O3	O	1.089507	0.510741	-0.101544
O4	O	1.089460	0.631010	-0.221811
O5	O	0.865023	0.631006	0.004479
O6	O	1.266575	0.631010	-0.230608
O7	O	0.864981	0.631008	-0.090390
O8	O	1.266660	0.415871	-0.015474
O9	O	0.864938	0.846145	-0.210655
O10	O	1.244162	0.560209	-0.097190
O11	O	1.112015	0.560207	-0.019825
O12	O	1.111959	0.701808	-0.161423
O13	O	0.979811	0.701807	-0.084058
Zr14	Zr	1.319365	0.631006	0.010130
Zr15	Zr	1.319298	0.631009	-0.141175
Zr16	Zr	1.036887	0.631006	0.024161
Zr17	Zr	1.036827	0.782313	-0.127142
Zr18	Zr	1.319358	0.479702	0.010128
O19	O	1.266677	0.751274	-0.015469
O20	O	1.266581	0.751277	-0.230606
O21	O	0.865029	0.751273	0.004481
O22	O	1.491252	0.510738	0.093643
O23	O	1.491155	0.510742	-0.121494
O24	O	1.089603	0.510738	0.113593
O25	O	1.491162	0.631008	-0.121493
O26	O	1.266725	0.631005	0.104797
O27	O	1.089609	0.631005	0.113594
O28	O	1.491204	0.631007	-0.026624
O29	O	1.089470	0.846146	-0.221808
O30	O	1.266714	0.415869	0.104794
O31	O	1.491247	0.415870	0.093641
O32	O	1.491193	0.415871	-0.026626
O33	O	0.864991	0.846143	-0.090387
O34	O	1.089524	0.846144	-0.101540
O35	O	1.244226	0.560206	0.044409
O36	O	1.376373	0.560208	-0.032956
O37	O	1.244170	0.701807	-0.097189
O38	O	1.112022	0.701806	-0.019823
C39	C	1.178083	0.441749	-0.058509
C40	C	1.178079	0.377516	-0.058510
C41	C	1.080519	-0.033066	-0.105926
C42	C	1.080508	0.027292	-0.105925
C43	C	1.178104	0.005209	-0.058508
C44	C	1.275698	-0.077241	-0.011077
C45	C	1.275699	-0.137595	-0.011075
C46	C	1.297207	0.060788	-0.048136
C47	C	1.297207	0.121144	-0.048143
C48	C	1.178102	0.191362	-0.058510
C49	C	1.058988	0.201225	-0.068886
C50	C	1.058989	0.140871	-0.068884
C51	C	1.178113	0.070648	-0.058504
C52	C	1.080496	0.339247	-0.105934
C53	C	1.080484	0.399604	-0.105928
C54	C	1.275685	0.295068	-0.011084
C55	C	1.275686	0.234715	-0.011086
C56	C	1.178092	0.256809	-0.058515
C57	C	0.824755	0.631007	-0.040956
C58	C	0.704835	0.631007	-0.035000
C59	C	1.531430	0.631008	-0.076057
C60	C	1.651349	0.631008	-0.082014
C61	C	1.178008	0.631010	-0.247767
C62	C	1.177979	0.631011	-0.312000
C63	C	1.178102	0.820266	-0.058504
C64	C	1.178105	0.884499	-0.058504
C65	C	1.108977	0.704923	-0.375702
C66	C	1.109010	0.704924	-0.436059
C67	C	1.178028	0.631009	-0.432709
C68	C	1.247046	0.557088	-0.368995
C69	C	1.247021	0.557089	-0.308641
C70	C	1.168224	0.574381	-0.499540
C71	C	1.168239	0.574383	-0.559894
C72	C	1.178111	0.631003	-0.618861
C73	C	1.187942	0.687635	-0.617471
C74	C	1.187917	0.687636	-0.557117
C75	C	1.178063	0.631000	-0.498149
C76	C	1.109142	0.704921	-0.748011
C77	C	1.109185	0.704919	-0.808368
C78	C	1.247212	0.557081	-0.741302
C79	C	1.247178	0.557085	-0.680947
C80	C	1.178136	0.631007	-0.684306
C81	C	1.178177	0.631005	0.130753
C82	C	1.178205	0.631004	0.194987
C83	C	1.531420	0.441749	-0.076060
C84	C	1.651337	0.377516	-0.082017
C85	C	1.178167	0.441746	0.130751
C86	C	1.178193	0.377512	0.194983
C87	C	1.531505	0.441746	0.113200
C88	C	1.651450	0.377512	0.171476
C89	C	0.824680	0.820269	-0.230214
C90	C	0.704735	0.884503	-0.288490
C91	C	0.824764	0.820266	-0.040954
C92	C	0.704848	0.884499	-0.034997
C93	C	1.178017	0.820269	-0.247765
C94	C	1.177992	0.884503	-0.311997
C95	C	1.638638	0.347352	-0.118351
C96	C	1.751301	0.287007	-0.123962
C97	C	1.876662	0.256823	-0.093235
C98	C	1.889358	0.286993	-0.056900
C99	C	1.776696	0.347341	-0.051293
C100	C	1.247217	0.347347	0.258683
C101	C	1.247236	0.287001	0.319043
C102	C	1.178237	0.256817	0.315700
C103	C	1.109204	0.286988	0.251993
C104	C	1.109178	0.347337	0.191635
C105	C	1.776769	0.347348	0.158459
C106	C	1.889481	0.287002	0.213209
C107	C	1.876871	0.256817	0.280976
C108	C	1.751539	0.286988	0.293993
C109	C	1.638830	0.347336	0.239243
C110	C	0.579416	0.914674	-0.275472
C111	C	0.466704	0.975039	-0.330222
C112	C	0.479314	1.005227	-0.397989
C113	C	0.604646	0.975053	-0.411006
C114	C	0.717355	0.914693	-0.356257
C115	C	0.717546	0.914669	0.001331
C116	C	0.604883	0.975031	0.006925
C117	C	0.479522	1.005217	-0.023804
C118	C	0.466826	0.975044	-0.060136
C119	C	0.579488	0.914688	-0.065734
C120	C	1.247004	0.914667	-0.308632
C121	C	1.247006	0.975014	-0.368981
C122	C	1.177987	1.005199	-0.432693
C123	C	1.108973	0.975028	-0.436056
C124	C	1.108979	0.914679	-0.375709
H125	H	1.001023	0.094423	-0.144533
H126	H	0.819611	0.890096	0.026360
O127	O	1.790403	0.379857	-0.012089
H128	H	1.845122	0.407345	-0.036154
H129	H	1.178269	0.207677	0.364852
H130	H	1.991442	0.262408	-0.031884
H131	H	1.740938	0.262450	-0.153549
H132	H	0.569130	0.890125	-0.095313
O133	O	1.380960	-0.226516	0.040073
H134	H	1.437200	-0.256511	0.012143
O135	O	0.331539	1.007558	-0.316169
H136	H	0.320108	1.035030	-0.286275
O137	O	0.712209	0.631007	-0.141372
H138	H	0.639023	0.686272	-0.190447
O139	O	0.643974	0.631008	0.024362
H140	H	0.556169	0.631015	0.019884
H141	H	0.387528	1.054375	-0.442564
H142	H	0.962004	0.148905	-0.077330
O143	O	1.321636	0.379899	0.262298
H144	H	1.369617	0.348784	0.316738
O145	O	1.503663	0.379852	0.253287
H146	H	1.513844	0.348710	0.309608
O147	O	0.618226	1.007616	-0.484101
H148	H	0.672925	1.035121	-0.492971
H149	H	1.177992	1.054339	-0.481827
O150	O	0.565802	0.882120	-0.202383
H151	H	0.511117	0.932782	-0.193525
H152	H	0.819392	0.890128	-0.366864
H153	H	1.536573	0.371928	-0.143382
H154	H	1.195974	0.733744	-0.665484
H155	H	1.394195	0.113108	-0.039699
O156	O	1.034522	0.882156	-0.379341
H157	H	0.986520	0.913296	-0.433783
O158	O	1.034518	0.784649	-0.379322
H159	H	0.986547	0.836045	-0.433763
H160	H	1.303207	0.890100	-0.256760
O161	O	1.157692	0.513253	-0.561327
H162	H	1.068177	0.546002	-0.600770
O163	O	0.618590	1.007557	0.046123
H164	H	0.724691	0.976410	0.066561
O165	O	0.331613	1.007605	-0.093279
H166	H	0.255417	1.054637	-0.083273
O167	O	1.998441	0.191717	0.340025
H168	H	2.087697	0.175811	0.319582
H169	H	1.052779	0.999614	-0.487939
O170	O	1.321447	1.007545	-0.365340
H171	H	1.251795	1.074124	-0.387615
H172	H	1.053027	0.262404	0.249281
O173	O	1.034756	0.784645	-0.877079
H174	H	1.104426	0.788189	-0.909784
H175	H	0.387796	1.054363	-0.019240
O176	O	1.321720	0.254452	0.387749
H177	H	1.369716	0.285569	0.379926
H178	H	1.355143	0.277087	0.027528
O179	O	0.975253	-0.009240	-0.157073
H180	H	0.907386	0.058228	-0.190045
H181	H	1.052975	0.371890	0.139770
O182	O	1.790385	0.379908	0.085370
H183	H	1.896472	0.348796	0.085527
O184	O	1.034571	0.784645	-0.504778
H185	H	0.986551	0.836046	-0.496973
H186	H	1.968388	0.207683	-0.097805
O187	O	1.198548	0.748700	-0.555607
H188	H	1.205431	0.788069	-0.606745
H189	H	1.052925	0.765113	-0.750747
O190	O	2.024651	0.254458	0.199162
H191	H	2.014473	0.285578	0.142841
H192	H	1.001027	0.357238	-0.144552
O193	O	0.975235	0.488523	-0.157084
H194	H	0.907388	0.493742	-0.190068
O195	O	1.380969	0.145798	0.040052
H196	H	1.376208	0.132317	0.092987
O197	O	1.380980	-0.101066	0.040060
H198	H	1.364598	-0.045248	0.032085
O199	O	1.321678	0.477347	-0.737664
H200	H	1.252052	0.473790	-0.759941
O201	O	1.321582	0.477366	-0.612233
H202	H	1.369572	0.425967	-0.620040
O203	O	1.737944	0.254417	0.367085
H204	H	1.837379	0.207377	0.402962
H205	H	1.394204	0.003613	-0.039690
O206	O	1.157566	0.513312	-0.435941
H207	H	1.150710	0.473944	-0.447050
H208	H	0.962001	0.258400	-0.077330
H209	H	1.303212	0.496900	-0.256770
O210	O	1.321483	0.477363	-0.365375
H211	H	1.309895	0.489779	-0.418045
