data_functionalizedCrystal
_audit_creation_method	'MofGen! by Chris Wilmer'
_symmetry_space_group_name_H-M	'P1'
_symmetry_Int_Tables_number	1
_symmetry_cell_setting	triclinic
loop_
_symmetry_equiv_pos_as_xyz
  x,y,z
_cell_length_a	13.897448
_cell_length_b	19.805407
_cell_length_c	19.805399
_cell_angle_alpha	89.978486
_cell_angle_beta	89.973574
_cell_angle_gamma	90.016939
loop_
_atom_site_label
_atom_site_type_symbol
_atom_site_fract_x
_atom_site_fract_y
_atom_site_fract_z
Zn1	Zn	-0.384043	1.034759	-0.382815
Zn2	Zn	-0.050710	1.368092	-0.049482
Zn3	Zn	0.282623	1.701425	0.283851
Zn4	Zn	-0.545353	1.034696	-0.269632
Zn5	Zn	-0.212020	1.368029	0.063701
Zn6	Zn	0.121314	1.701363	0.397035
Zn7	Zn	-0.384072	0.921579	-0.269631
Zn8	Zn	-0.050738	1.254912	0.063703
Zn9	Zn	0.282595	1.588245	0.397036
Zn10	Zn	-0.545296	0.921554	-0.382770
Zn11	Zn	-0.211962	1.254887	-0.049436
Zn12	Zn	0.121371	1.588221	0.283897
O13	O	-0.464691	0.978147	-0.326212
O14	O	-0.131358	1.311480	0.007121
O15	O	0.201976	1.644814	0.340455
O16	O	-0.405453	1.129467	-0.367821
O17	O	-0.072120	1.462800	-0.034488
O18	O	0.261213	1.796134	0.298846
O19	O	-0.523995	1.019675	-0.174915
O20	O	-0.190661	1.353008	0.158418
O21	O	0.142672	1.686342	0.491751
O22	O	-0.249086	0.936629	-0.284663
O23	O	0.084247	1.269962	0.048670
O24	O	0.417580	1.603295	0.382003
O25	O	-0.523967	1.129421	-0.284666
O26	O	-0.190634	1.462754	0.048668
O27	O	0.142700	1.796088	0.382001
O28	O	-0.249065	1.019782	-0.367820
O29	O	0.084268	1.353115	-0.034486
O30	O	0.417601	1.686448	0.298847
O31	O	-0.405502	0.936568	-0.174914
O32	O	-0.072169	1.269901	0.158419
O33	O	0.261165	1.603235	0.491752
O34	O	-0.405446	0.826859	-0.284619
O35	O	-0.072113	1.160192	0.048714
O36	O	0.261220	1.493526	0.382047
O37	O	-0.523869	0.936587	-0.477492
O38	O	-0.190536	1.269920	-0.144159
O39	O	0.142797	1.603254	0.189174
O40	O	-0.523897	0.826841	-0.367742
O41	O	-0.190564	1.160174	-0.034409
O42	O	0.142770	1.493508	0.298925
O43	O	-0.405398	1.019758	-0.477526
O44	O	-0.072064	1.353091	-0.144193
O45	O	0.261269	1.686425	0.189141
O46	O	-0.680327	1.019651	-0.284622
O47	O	-0.346994	1.352984	0.048712
O48	O	-0.013660	1.686318	0.382045
O49	O	-0.680285	0.936526	-0.367743
O50	O	-0.346952	1.269860	-0.034410
O51	O	-0.013618	1.603193	0.298923
C52	C	-0.464669	0.802291	-0.326176
C53	C	-0.131336	1.135624	0.007157
C54	C	0.201997	1.468958	0.340491
C55	C	-0.464683	0.727059	-0.326176
C56	C	-0.131350	1.060392	0.007157
C57	C	0.201984	1.393726	0.340490
C58	C	-0.715305	0.978098	-0.326192
C59	C	-0.381972	1.311431	0.007141
C60	C	-0.048639	1.644764	0.340474
C61	C	-0.822519	0.978138	-0.326207
C62	C	-0.489186	1.311472	0.007127
C63	C	-0.155853	1.644805	0.340460
C64	C	-0.526484	0.265276	-0.369469
C65	C	-0.193151	0.598610	-0.036136
C66	C	0.140182	0.931943	0.297197
C67	C	-0.526483	0.335965	-0.369455
C68	C	-0.193149	0.669298	-0.036122
C69	C	0.140184	1.002631	0.297212
C70	C	-0.464714	0.371297	-0.326238
C71	C	-0.131381	0.704631	0.007095
C72	C	0.201952	1.037964	0.340428
C73	C	-0.402950	0.335938	-0.283028
C74	C	-0.069617	0.669271	0.050305
C75	C	0.263716	1.002604	0.383638
C76	C	-0.402958	0.265250	-0.283040
C77	C	-0.069624	0.598584	0.050293
C78	C	0.263709	0.931917	0.383627
C79	C	-0.402921	0.621011	-0.282981
C80	C	-0.069588	0.954344	0.050352
C81	C	0.263746	1.287678	0.383686
C82	C	-0.402916	0.691703	-0.282974
C83	C	-0.069583	1.025036	0.050359
C84	C	0.263750	1.358370	0.383692
C85	C	-0.526446	0.691725	-0.369396
C86	C	-0.193113	1.025058	-0.036063
C87	C	0.140221	1.358392	0.297271
C88	C	-0.526453	0.621038	-0.369407
C89	C	-0.193120	0.954371	-0.036074
C90	C	0.140214	1.287705	0.297259
C91	C	-0.464693	0.585685	-0.326195
C92	C	-0.131360	0.919018	0.007138
C93	C	0.201973	1.252351	0.340471
C94	C	-0.464697	0.509036	-0.326210
C95	C	-0.131364	0.842369	0.007123
C96	C	0.201970	1.175703	0.340456
C97	C	-0.464705	0.447944	-0.326226
C98	C	-0.131372	0.781278	0.007107
C99	C	0.201962	1.114611	0.340440
C100	C	-1.018814	0.978209	-0.326249
C101	C	-0.685481	1.311543	0.007084
C102	C	-0.352148	1.644876	0.340418
C103	C	-0.909582	0.978168	-0.326228
C104	C	-0.576248	1.311501	0.007106
C105	C	-0.242915	1.644835	0.340439
C106	C	-0.213098	0.978215	-0.326246
C107	C	0.120235	1.311548	0.007087
C108	C	0.453569	1.644882	0.340420
C109	C	-0.105884	0.978244	-0.326261
C110	C	0.227449	1.311577	0.007072
C111	C	0.560783	1.644911	0.340406
C112	C	-0.464624	0.978177	-0.502755
C113	C	-0.131291	1.311510	-0.169421
C114	C	0.202043	1.644843	0.163912
C115	C	-0.464595	0.978189	-0.577987
C116	C	-0.131262	1.311523	-0.244653
C117	C	0.202071	1.644856	0.088680
C118	C	-0.464713	1.154690	-0.326249
C119	C	-0.131380	1.488023	0.007085
C120	C	0.201953	1.821356	0.340418
C121	C	-0.464723	1.229922	-0.326264
C122	C	-0.131390	1.563255	0.007069
C123	C	0.201944	1.896588	0.340403
C124	C	-0.402890	0.934928	-0.613330
C125	C	-0.069557	1.268261	-0.279997
C126	C	0.263776	1.601595	0.053337
C127	C	-0.402872	0.934937	-0.684018
C128	C	-0.069538	1.268270	-0.350685
C129	C	0.263795	1.601604	-0.017352
C130	C	-0.464554	0.978212	-0.719362
C131	C	-0.131220	1.311545	-0.386029
C132	C	0.202113	1.644878	-0.052696
C133	C	-0.526266	1.021475	-0.684014
C134	C	-0.192932	1.354808	-0.350681
C135	C	0.140401	1.688142	-0.017348
C136	C	-0.526289	1.021462	-0.613327
C137	C	-0.192955	1.354795	-0.279994
C138	C	0.140378	1.688129	0.053339
C139	C	-0.526175	1.021529	-0.969088
C140	C	-0.192842	1.354862	-0.635754
C141	C	0.140491	1.688195	-0.302421
C142	C	-0.526146	1.021540	-1.039780
C143	C	-0.192812	1.354873	-0.706447
C144	C	0.140521	1.688207	-0.373113
C145	C	-0.402759	0.935004	-1.039779
C146	C	-0.069425	1.268337	-0.706446
C147	C	0.263908	1.601671	-0.373112
C148	C	-0.402781	0.934991	-0.969092
C149	C	-0.069448	1.268324	-0.635758
C150	C	0.263885	1.601657	-0.302425
C151	C	-0.464496	0.978251	-0.933750
C152	C	-0.131163	1.311585	-0.600417
C153	C	0.202170	1.644918	-0.267083
C154	C	-0.464517	0.978240	-0.857101
C155	C	-0.131184	1.311573	-0.523768
C156	C	0.202149	1.644906	-0.190435
C157	C	-0.464529	0.978227	-0.796010
C158	C	-0.131195	1.311561	-0.462676
C159	C	0.202138	1.644894	-0.129343
C160	C	-0.464688	0.978156	-0.150356
C161	C	-0.131355	1.311490	0.182977
C162	C	0.201979	1.644823	0.516311
C163	C	-0.464445	0.978275	-0.075124
C164	C	-0.131111	1.311608	0.258209
C165	C	0.202222	1.644941	0.591542
H166	H	-0.576778	0.236514	-0.404665
H167	H	-0.243445	0.569847	-0.071332
H168	H	0.089889	0.903180	0.262002
H169	H	-0.576378	1.056781	-1.068555
H170	H	-0.243045	1.390115	-0.735222
H171	H	0.090288	1.723448	-0.401888
H172	H	-0.576777	0.364747	-0.404635
H173	H	-0.243444	0.698081	-0.071302
H174	H	0.089890	1.031414	0.262031
H175	H	-0.576748	0.592274	-0.404601
H176	H	-0.243414	0.925607	-0.071268
H177	H	0.089919	1.258940	0.262065
H178	H	-0.576493	1.056707	-0.712797
H179	H	-0.243160	1.390040	-0.379464
H180	H	0.090173	1.723373	-0.046130
Br181	Br	-0.319167	0.876200	-0.565370
Br182	Br	0.014166	1.209533	-0.232036
Br183	Br	0.347500	1.542866	0.101297
H184	H	-0.576736	0.720518	-0.404580
H185	H	-0.243403	1.053852	-0.071246
H186	H	0.089930	1.387185	0.262087
Br187	Br	-0.319002	0.876291	-1.087747
Br188	Br	0.014331	1.209624	-0.754413
Br189	Br	0.347665	1.542958	-0.421080
H190	H	-0.352636	0.592235	-0.247792
H191	H	-0.019303	0.925568	0.085541
H192	H	0.314031	1.258901	0.418874
H193	H	-0.352629	0.899707	-0.712792
H194	H	-0.019296	1.233040	-0.379458
H195	H	0.314038	1.566373	-0.046125
H196	H	-0.576438	1.056747	-0.940321
H197	H	-0.243105	1.390080	-0.606988
H198	H	0.090229	1.723414	-0.273654
H199	H	-0.576528	1.056695	-0.584552
H200	H	-0.243195	1.390028	-0.251218
H201	H	0.090139	1.723362	0.082115
Br202	Br	-0.319081	0.739654	-0.224320
Br203	Br	0.014252	1.072988	0.109013
Br204	Br	0.347586	1.406321	0.442347
H205	H	-0.352662	0.364711	-0.247838
H206	H	-0.019328	0.698044	0.085496
H207	H	0.314005	1.031378	0.418829
H208	H	-0.352663	0.236466	-0.247860
H209	H	-0.019329	0.569799	0.085474
H210	H	0.314004	0.903132	0.418807
H211	H	-0.352550	0.899755	-0.940318
H212	H	-0.019217	1.233088	-0.606985
H213	H	0.314117	1.566421	-0.273651
