data_functionalizedCrystal
_audit_creation_method	'MofGen! by Chris Wilmer'
_symmetry_space_group_name_H-M	'P1'
_symmetry_Int_Tables_number	1
_symmetry_cell_setting	triclinic
loop_
_symmetry_equiv_pos_as_xyz
  x,y,z
_cell_length_a	18.426585
_cell_length_b	19.377372
_cell_length_c	19.377372
_cell_angle_alpha	93.588327
_cell_angle_beta	48.621907
_cell_angle_gamma	131.378702
loop_
_atom_site_label
_atom_site_type_symbol
_atom_site_fract_x
_atom_site_fract_y
_atom_site_fract_z
Zr1	Zr	0.446392	-0.077419	0.857548
O2	O	0.731312	0.101970	0.678166
O3	O	0.254063	-0.132406	0.912538
O4	O	0.492683	0.059127	0.869709
O5	O	0.423889	-0.240653	0.754780
O6	O	0.423873	0.025326	1.020802
O7	O	0.492692	-0.089563	0.720995
O8	O	-0.002974	-0.317291	1.097415
O9	O	0.850736	0.101964	0.678166
O10	O	0.247526	-0.181088	1.048750
O11	O	0.247531	-0.268620	0.961204
O12	O	0.528475	-0.043115	0.910778
O13	O	0.528480	-0.130646	0.823233
Zr14	Zr	0.226914	-0.372298	1.152407
Zr15	Zr	0.336648	-0.131327	1.098524
Zr16	Zr	0.336659	-0.318390	0.911431
Zr17	Zr	0.636860	-0.077427	0.857549
Zr18	Zr	0.036447	-0.372289	1.152406
O19	O	0.419243	-0.317311	1.097417
O20	O	0.575270	0.025319	1.020802
O21	O	0.575285	-0.240660	0.754781
O22	O	-0.058005	-0.551687	1.331789
O23	O	0.098021	-0.209057	1.255174
O24	O	0.098037	-0.475036	0.989153
O25	O	0.249418	-0.209064	1.255175
O26	O	0.180623	-0.508843	1.140246
O27	O	0.249433	-0.475043	0.989154
O28	O	0.180614	-0.360154	1.288960
O29	O	0.763504	0.059114	0.869710
O30	O	-0.090198	-0.508831	1.140245
O31	O	-0.177430	-0.551681	1.331789
O32	O	-0.090206	-0.360141	1.288959
O33	O	0.763513	-0.089575	0.720996
O34	O	0.676281	-0.132425	0.912540
O35	O	0.144831	-0.406602	1.099177
O36	O	0.144826	-0.319070	1.186722
O37	O	0.425776	-0.181097	1.048751
O38	O	0.425781	-0.268628	0.961205
C39	C	0.098407	-0.224847	1.004977
C40	C	0.017548	-0.224844	1.004976
C41	C	0.473913	0.076560	0.937578
C42	C	0.520497	0.178858	0.914703
C43	C	0.199394	-0.526276	1.072377
C44	C	0.152809	-0.628575	1.095252
C45	C	-0.278574	-0.224875	1.004977
C46	C	-0.196183	-0.224868	1.004975
C47	C	-0.130514	-0.224858	1.004976
C48	C	-0.048121	-0.224853	1.004975
C49	C	0.574900	-0.224869	1.004979
C50	C	0.655758	-0.224873	1.004979
C51	C	0.473927	-0.157427	0.703554
C52	C	0.520516	-0.134542	0.601253
C53	C	-0.059524	0.155216	1.199531
C54	C	-0.015710	0.251361	1.178013
C55	C	0.277579	0.395385	1.033981
C56	C	0.233788	0.299250	1.055492
C57	C	0.065233	0.179170	1.138268
C58	C	0.358546	0.323204	0.994228
C59	C	0.314759	0.227077	1.015733
C60	C	0.146214	0.106997	1.098502
C61	C	0.021447	0.083043	1.159772
C62	C	0.527102	0.443286	0.911447
C63	C	0.651860	0.467240	0.850183
C64	C	0.608071	0.371111	0.871694
C65	C	0.439526	0.251031	0.954462
C66	C	0.732838	0.395065	0.810423
C67	C	0.689051	0.298938	0.831928
C68	C	0.395739	0.154904	0.975967
C69	C	-0.059533	-0.419435	0.624905
C70	C	-0.015724	-0.397927	0.528762
C71	C	0.277565	-0.253893	0.384740
C72	C	0.233783	-0.275385	0.480871
C73	C	0.065230	-0.358158	0.600949
C74	C	0.358546	-0.214107	0.456915
C75	C	0.314764	-0.235602	0.553039
C76	C	0.146218	-0.318374	0.673119
C77	C	0.021448	-0.379653	0.697073
C78	C	0.527095	-0.131341	0.336838
C79	C	0.651859	-0.070064	0.312882
C80	C	0.608080	-0.091552	0.409006
C81	C	0.439535	-0.174324	0.529085
C82	C	0.732851	-0.030273	0.385051
C83	C	0.689069	-0.051768	0.481175
C84	C	0.395752	-0.195819	0.625209
C85	C	0.199380	-0.292290	1.306401
C86	C	0.152791	-0.315175	1.408702
C87	C	-0.038866	-0.292279	1.306400
C88	C	-0.166314	-0.315160	1.408700
C89	C	-0.038853	-0.526265	1.072376
C90	C	-0.166296	-0.628560	1.095251
C91	C	-0.176126	-0.593697	1.373800
C92	C	-0.350158	-0.718877	1.498975
C93	C	0.849432	0.143980	0.636155
C94	C	1.023465	0.269160	0.510980
C95	C	0.712173	-0.157438	0.703555
C96	C	0.839621	-0.134556	0.601255
C97	C	0.712159	0.076549	0.937579
C98	C	0.839602	0.178844	0.914704
C99	C	-0.172553	-0.253871	1.384719
C100	C	-0.292279	-0.275346	1.480827
C101	C	-0.405773	-0.358118	1.600916
C102	C	-0.399527	-0.419409	1.624895
C103	C	-0.279794	-0.397927	1.528787
C104	C	-0.279757	-0.748634	1.178015
C105	C	-0.399495	-0.844759	1.199506
C106	C	-0.405777	-0.820809	1.138238
C107	C	-0.292300	-0.700722	1.055463
C108	C	-0.172557	-0.604598	1.033967
C109	C	-0.431893	-0.731975	1.603466
C110	C	-0.595405	-0.849588	1.721088
C111	C	-0.677184	-0.954101	1.734217
C112	C	-0.595435	-0.940999	1.629713
C113	C	-0.431922	-0.823388	1.512094
C114	C	1.105209	0.282258	0.406489
C115	C	1.268744	0.399871	0.288867
C116	C	1.350527	0.504385	0.275738
C117	C	1.268774	0.491282	0.380242
C118	C	1.105247	0.373671	0.497861
C119	C	0.845872	-0.195836	0.625234
C120	C	0.965631	-0.174334	0.529120
C121	C	1.079129	-0.091558	0.409030
C122	C	1.072877	-0.030272	0.385052
C123	C	0.953128	-0.051768	0.481163
C124	C	0.845839	0.154855	0.975992
C125	C	0.965561	0.250958	0.954523
C126	C	1.079053	0.371049	0.871760
C127	C	1.072809	0.395036	0.810470
C128	C	0.953080	0.298933	0.831946
H129	H	0.258483	0.057123	1.043377
H130	H	-0.365390	-0.812739	1.427019
H131	H	1.165305	0.037125	0.287262
H132	H	-0.503288	-0.899091	1.155752
C133	C	0.721039	-0.286892	0.757321
H134	H	0.741942	-0.320292	0.757818
H135	H	0.605756	-0.351528	0.809720
H136	H	0.738439	-0.245020	0.785905
C137	C	1.530398	0.633751	0.146356
H138	H	1.567413	0.694127	0.153493
H139	H	1.525292	0.643474	0.102874
H140	H	1.609469	0.643467	0.102883
H141	H	1.038637	0.197171	0.417155
C142	C	-0.857053	-1.083465	1.863602
H143	H	-0.894016	-1.076287	1.923948
H144	H	-0.851979	-1.126964	1.873350
H145	H	-0.936147	-1.126945	1.873339
C146	C	0.972424	0.224555	1.021933
H147	H	0.887703	0.139272	1.074279
H148	H	0.950549	0.247123	1.069814
H149	H	1.083259	0.270969	0.963283
H150	H	0.948050	-0.001866	0.461623
C151	C	0.826273	0.325276	0.764544
H152	H	0.776056	0.250829	0.789199
H153	H	0.869459	0.358707	0.784677
H154	H	0.917958	0.382530	0.678171
H155	H	1.335282	0.410516	0.203790
C156	C	0.721009	0.022764	1.067039
H157	H	0.741875	0.022257	1.100467
H158	H	0.738405	-0.005820	1.025174
H159	H	0.605722	-0.029632	1.131670
H160	H	1.335382	0.576392	0.369537
C161	C	1.015333	0.359279	0.612793
H162	H	1.087463	0.438372	0.588117
H163	H	0.993610	0.315292	0.660597
H164	H	0.909464	0.315314	0.660558
C165	C	-0.299142	-0.207933	1.454432
H166	H	-0.214420	-0.155581	1.369150
H167	H	-0.277270	-0.160058	1.477006
H168	H	-0.409976	-0.266582	1.500845
C169	C	1.210757	0.476753	0.848137
H170	H	1.198217	0.445258	0.896487
H171	H	1.191321	0.513198	0.869924
H172	H	1.323997	0.537007	0.763421
C173	C	-0.685416	-1.055970	1.644170
H174	H	-0.794512	-1.127883	1.729189
H175	H	-0.616553	-1.055494	1.606124
H176	H	-0.700732	-1.055473	1.606132
H177	H	0.970693	-0.224250	0.548668
H178	H	1.176628	-0.074067	0.330782
H179	H	0.110569	0.028729	1.116003
C180	C	-0.047717	-0.162812	1.252631
H181	H	-0.068585	-0.129384	1.252128
H182	H	-0.065107	-0.204670	1.224039
H183	H	0.067568	-0.098182	1.200239
C184	C	1.197670	0.527141	0.719424
H185	H	1.269875	0.580933	0.715409
H186	H	1.133765	0.529101	0.746583
H187	H	1.266437	0.552901	0.640094
H188	H	0.948024	0.318483	0.782030
H189	H	-0.196781	0.057435	1.266941
C190	C	-0.163962	-0.049049	1.250827
H191	H	-0.231999	-0.049553	1.284235
H192	H	-0.211385	-0.101452	1.315457
H193	H	-0.162879	-0.077624	1.208948
H194	H	-0.297435	-0.681239	1.005584
H195	H	-0.117314	0.231842	1.227904
H196	H	-0.274664	-0.768158	1.227912
C197	C	-0.524398	-0.510475	1.756997
H198	H	-0.503547	-0.543908	1.757528
H199	H	-0.639664	-0.575085	1.809370
H200	H	-0.507006	-0.468609	1.785588
H201	H	0.414817	0.493165	0.966583
H202	H	-0.080184	-0.506832	0.966577
H203	H	0.789097	0.565020	0.782785
C204	C	0.575277	0.549029	0.887786
H205	H	0.693532	0.623976	0.829703
H206	H	0.506777	0.532273	0.962768
H207	H	0.555269	0.556086	0.856265
C208	C	-0.152975	-0.465336	0.555121
H209	H	-0.259622	-0.517704	0.640401
H210	H	-0.166241	-0.513195	0.532531
H211	H	-0.117742	-0.406689	0.508704
C212	C	0.918235	0.527152	0.719374
H213	H	0.926442	0.580970	0.715344
H214	H	0.995570	0.552897	0.640056
H215	H	0.947059	0.529079	0.746568
H216	H	0.258494	-0.263235	0.722990
C217	C	-0.272942	-0.465350	1.555175
H218	H	-0.185375	-0.440703	1.480744
H219	H	-0.380945	-0.551716	1.612438
H220	H	-0.248247	-0.445205	1.588611
H221	H	0.414798	-0.186503	0.286964
H222	H	-0.503260	-0.375600	1.679162
C223	C	-0.524315	-0.976843	1.290568
H224	H	-0.503435	-0.977334	1.323990
H225	H	-0.506920	-1.005433	1.248710
H226	H	-0.639605	-1.029245	1.355203
C227	C	-0.685308	-0.863977	1.836022
H228	H	-0.613190	-0.784885	1.811349
H229	H	-0.707000	-0.907947	1.883810
H230	H	-0.791193	-0.907960	1.883803
C231	C	0.098043	-0.342027	0.778861
H232	H	-0.020210	-0.400106	0.853805
H233	H	0.166550	-0.267041	0.762100
H234	H	0.118042	-0.373552	0.785928
C235	C	-0.163959	-0.470706	0.829163
H236	H	-0.232004	-0.504130	0.829670
H237	H	-0.162888	-0.428839	0.857747
H238	H	-0.211377	-0.535340	0.881561
H239	H	-0.196792	-0.486851	0.722686
H240	H	0.562736	-0.113844	0.258572
H241	H	0.789092	-0.002674	0.215106
H242	H	0.870081	0.037111	0.287276
H243	H	-0.365331	-0.646888	1.592800
C244	C	0.826305	0.015639	0.454829
H245	H	0.932963	0.068024	0.369546
H246	H	0.791073	-0.043002	0.501248
H247	H	0.839568	0.063503	0.477419
