data_functionalizedCrystal
_audit_creation_method	'MofGen! by Chris Wilmer'
_symmetry_space_group_name_H-M	'P1'
_symmetry_Int_Tables_number	1
_symmetry_cell_setting	triclinic
loop_
_symmetry_equiv_pos_as_xyz
  x,y,z
_cell_length_a	13.897441
_cell_length_b	15.297475
_cell_length_c	15.299816
_cell_angle_alpha	107.348877
_cell_angle_beta	99.652794
_cell_angle_gamma	99.687390
loop_
_atom_site_label
_atom_site_type_symbol
_atom_site_fract_x
_atom_site_fract_y
_atom_site_fract_z
Zn1	Zn	-0.934087	-1.485941	-0.616488
Zn2	Zn	-0.806538	-1.512734	-0.771968
Zn3	Zn	-0.739089	-1.330410	-0.589580
Zn4	Zn	-0.934070	-1.357270	-0.744969
O5	O	-0.853446	-1.421589	-0.680751
O6	O	-0.945403	-1.619647	-0.659673
O7	O	-0.662611	-1.488521	-0.747812
O8	O	-0.736735	-1.328588	-0.463050
O9	O	-0.851693	-1.639332	-0.773903
O10	O	-0.879999	-1.442855	-0.482819
O11	O	-0.613056	-1.354568	-0.613812
O12	O	-0.736718	-1.203821	-0.587632
O13	O	-1.069052	-1.374367	-0.727888
O14	O	-0.879970	-1.223555	-0.701796
O15	O	-1.069064	-1.468900	-0.633493
O16	O	-0.851677	-1.514566	-0.898486
O17	O	-0.945373	-1.400347	-0.878650
C18	C	-0.801024	-1.179941	-0.638865
C19	C	-0.778625	-1.076567	-0.620969
C20	C	-1.105035	-1.421641	-0.680680
C21	C	-1.212248	-1.421663	-0.680650
C22	C	-0.905869	-1.463304	-0.922306
C23	C	-0.928346	-1.481235	-1.025658
C24	C	-1.408535	-1.421677	-0.680592
C25	C	-1.299307	-1.421667	-0.680626
C26	C	-0.602832	-1.421579	-0.680764
C27	C	-0.495602	-1.421692	-0.680563
C28	C	-0.906074	-1.664181	-0.722801
C29	C	-0.928501	-1.767559	-0.740721
C30	C	-1.013537	-0.826438	-0.808668
C31	C	-1.034581	-0.923564	-0.825489
C32	C	-0.970594	-0.961820	-0.774360
C33	C	-0.885559	-0.902939	-0.706407
C34	C	-0.864509	-0.805804	-0.689589
C35	C	-0.821566	-0.941186	-0.655282
C36	C	-0.736531	-0.882306	-0.587329
C37	C	-0.715486	-0.785181	-0.570513
C38	C	-0.779473	-0.746925	-0.621642
C39	C	-0.842616	-1.038321	-0.672100
C40	C	-0.693588	-1.017688	-0.553021
C41	C	-0.672545	-0.920561	-0.536200
C42	C	-0.693256	-1.294044	-1.276161
C43	C	-0.672139	-1.277192	-1.179055
C44	C	-0.736188	-1.328201	-1.140701
C45	C	-0.821360	-1.396065	-1.199463
C46	C	-0.842484	-1.412913	-1.296577
C47	C	-0.885416	-1.447071	-1.161117
C48	C	-0.970587	-1.514935	-1.219879
C49	C	-0.991707	-1.531781	-1.316984
C50	C	-0.927657	-1.480771	-1.355338
C51	C	-0.864292	-1.430223	-1.064003
C52	C	-1.013520	-1.549093	-1.084419
C53	C	-1.034637	-1.565944	-1.181525
C54	C	-0.800845	-1.379736	-0.438258
C55	C	-0.778429	-1.361901	-0.334922
H56	H	-0.987733	-1.040905	-0.788060
N57	N	-0.950446	-1.498930	-1.460073
H58	H	-1.014126	-1.549653	-1.491480
H59	H	-0.893050	-1.520081	-1.486396
H60	H	-1.103814	-0.971498	-0.880819
N61	N	-0.623769	-0.721683	-0.497219
H62	H	-0.644978	-0.673967	-0.447208
H63	H	-0.578486	-0.687945	-0.528035
N64	N	-0.624580	-1.058937	-0.497857
H65	H	-0.567516	-1.006899	-0.452260
H66	H	-0.596805	-1.105751	-0.542616
N67	N	-1.082536	-0.785180	-0.863817
H68	H	-1.056294	-0.714715	-0.842853
H69	H	-1.152017	-0.799696	-0.852379
N70	N	-0.934330	-1.101814	-0.745385
H71	H	-0.979647	-1.135616	-0.714639
H72	H	-0.913045	-1.149475	-0.795378
H73	H	-0.762345	-0.667837	-0.607948
H74	H	-0.603308	-0.872608	-0.480872
H75	H	-0.794945	-1.374967	-1.016167
N76	N	-0.713416	-1.310030	-1.035967
H77	H	-0.649741	-1.259301	-1.004561
H78	H	-0.704531	-1.369820	-1.023672
H79	H	-1.061062	-1.587036	-1.364825
H80	H	-0.602794	-1.221937	-1.131215
N81	N	-1.082609	-1.604122	-1.043069
H82	H	-1.152042	-1.592566	-1.057421
H83	H	-1.056219	-1.583130	-0.972647
H84	H	-0.641120	-1.252515	-1.307398
N85	N	-1.126497	-1.639139	-1.244906
H86	H	-1.130154	-1.642069	-1.312242
H87	H	-1.188531	-1.621680	-1.225386
