data_functionalizedCrystal
_audit_creation_method	'MofGen! by Chris Wilmer'
_symmetry_space_group_name_H-M	'P1'
_symmetry_Int_Tables_number	1
_symmetry_cell_setting	triclinic
loop_
_symmetry_equiv_pos_as_xyz
  x,y,z
_cell_length_a	19.902436
_cell_length_b	18.426585
_cell_length_c	19.902436
_cell_angle_alpha	60.007764
_cell_angle_beta	89.999997
_cell_angle_gamma	60.001099
loop_
_atom_site_label
_atom_site_type_symbol
_atom_site_fract_x
_atom_site_fract_y
_atom_site_fract_z
Zr1	Zr	0.647241	0.794421	-0.088218
O2	O	0.539960	0.945793	-0.195480
O3	O	0.680128	0.643030	-0.055340
O4	O	0.680128	0.794412	-0.195502
O5	O	0.539961	0.794426	0.055247
O6	O	0.790693	0.794426	-0.195515
O7	O	0.539961	0.794412	-0.055319
O8	O	0.790694	0.523632	0.055208
O9	O	0.539960	1.065220	-0.195476
O10	O	0.776668	0.705317	-0.041324
O11	O	0.694154	0.705317	0.041200
O12	O	0.694153	0.883549	-0.123822
O13	O	0.611639	0.883549	-0.041298
Zr14	Zr	0.823580	0.794466	0.088101
Zr15	Zr	0.823580	0.794444	-0.088239
Zr16	Zr	0.647240	0.794444	0.088121
Zr17	Zr	0.647240	0.984893	-0.088212
Zr18	Zr	0.823581	0.603995	0.088094
O19	O	0.790692	0.945857	0.055223
O20	O	0.790693	0.945825	-0.195509
O21	O	0.539960	0.945825	0.055252
O22	O	0.930860	0.643094	0.195362
O23	O	0.930860	0.643062	-0.055370
O24	O	0.680128	0.643062	0.195392
O25	O	0.930860	0.794461	-0.055365
O26	O	0.790693	0.794475	0.195384
O27	O	0.680127	0.794461	0.195397
O28	O	0.930860	0.794475	0.055201
O29	O	0.680126	1.065238	-0.195492
O30	O	0.790694	0.523650	0.195375
O31	O	0.930861	0.523667	0.195358
O32	O	0.930861	0.523650	0.055192
O33	O	0.539960	1.065238	-0.055309
O34	O	0.680126	1.065255	-0.055326
O35	O	0.776668	0.705338	0.123704
O36	O	0.859182	0.705338	0.041181
O37	O	0.776667	0.883570	-0.041318
O38	O	0.694153	0.883570	0.041206
C39	C	0.735411	0.556193	-0.000067
C40	C	0.735412	0.475333	-0.000070
C41	C	0.735407	0.179223	-0.000046
C42	C	0.735406	0.261610	-0.000051
C43	C	0.735409	0.327276	-0.000058
C44	C	0.735409	0.409667	-0.000062
C45	C	0.514836	0.794415	-0.000033
C46	C	0.439976	0.794406	-0.000024
C47	C	0.167927	0.794456	-0.000070
C48	C	0.248469	0.682024	0.051723
C49	C	0.326372	0.681954	0.052015
C50	C	0.302894	0.794431	-0.000047
C51	C	0.248774	0.850275	0.037916
C52	C	0.171212	0.849556	0.038295
C53	C	0.170072	0.851849	-0.089849
C54	C	0.248950	0.849736	-0.089707
C55	C	0.379168	0.794422	-0.000035
C56	C	0.091651	0.794468	-0.000080
C57	C	0.955984	0.794472	-0.000085
C58	C	1.030845	0.794481	-0.000094
C59	C	0.735410	0.794415	-0.220633
C60	C	0.735411	0.794406	-0.295494
C61	C	0.735409	1.032694	-0.000051
C62	C	0.735409	1.113554	-0.000048
C63	C	0.735410	0.794456	-0.567542
C64	C	0.787710	0.682024	-0.487010
C65	C	0.787483	0.681954	-0.409107
C66	C	0.735411	0.794431	-0.432575
C67	C	0.645753	0.850259	-0.486683
C68	C	0.646039	0.849540	-0.564245
C69	C	0.772045	0.851865	-0.565399
C70	C	0.773860	0.849752	-0.486521
C71	C	0.735406	0.794422	-0.356301
C72	C	0.735408	0.794468	-0.643819
C73	C	0.735410	0.794472	0.220515
C74	C	0.735410	0.794481	0.295376
C75	C	0.955985	0.556221	-0.000093
C76	C	1.030847	0.475370	-0.000105
C77	C	0.735411	0.556221	0.220507
C78	C	0.735412	0.475370	0.295365
C79	C	0.955985	0.556249	0.220481
C80	C	1.030846	0.475408	0.295330
C81	C	0.514835	1.032638	-0.220599
C82	C	0.439974	1.113479	-0.295448
C83	C	0.514835	1.032666	-0.000025
C84	C	0.439974	1.113517	-0.000013
C85	C	0.735409	1.032666	-0.220625
C86	C	0.735409	1.113517	-0.295483
C87	C	1.022931	0.437391	-0.043184
C88	C	1.093264	0.361434	-0.043211
C89	C	1.171512	0.323452	-0.000154
C90	C	1.179427	0.361439	0.042927
C91	C	1.109094	0.437400	0.042949
C92	C	0.778483	0.437413	0.373593
C93	C	0.778480	0.361456	0.443937
C94	C	0.735410	0.323452	0.436051
C95	C	0.692333	0.361417	0.357815
C96	C	0.692332	0.437378	0.287473
C97	C	1.109081	0.437444	0.287404
C98	C	1.179428	0.361496	0.357726
C99	C	1.171538	0.323508	0.435974
C100	C	1.093295	0.361479	0.443899
C101	C	1.022951	0.437431	0.373577
C102	C	0.361740	1.151452	-0.287521
C103	C	0.291393	1.227424	-0.357844
C104	C	0.299283	1.265416	-0.436091
C105	C	0.377525	1.227440	-0.444016
C106	C	0.447870	1.151475	-0.373695
C107	C	0.447890	1.151504	0.043059
C108	C	0.377557	1.227482	0.043067
C109	C	0.299308	1.265467	0.000007
C110	C	0.291394	1.227476	-0.043070
C111	C	0.361727	1.151505	-0.043082
C112	C	0.778487	1.151496	-0.287570
C113	C	0.778503	1.227454	-0.357901
C114	C	0.735435	1.265436	-0.436142
C115	C	0.692355	1.227449	-0.444053
C116	C	0.692345	1.151487	-0.373724
H117	H	0.365760	0.638155	0.026539
H118	H	0.230426	0.931794	-0.131545
H119	H	0.511570	1.120558	-0.380159
F120	F	0.377397	0.624345	0.138579
H121	H	0.813562	0.330554	0.507633
H122	H	1.115551	0.468313	0.078034
F123	F	0.297727	0.799600	0.123449
F124	F	0.250690	0.624328	0.018614
H125	H	0.657261	0.468273	0.223778
H126	H	0.227691	1.258331	-0.351375
F127	F	0.224407	1.346265	-0.510927
F128	F	0.385909	1.267883	-0.527300
H129	H	0.511597	1.120583	0.078129
H130	H	0.384017	1.258401	0.078148
H131	H	0.813583	1.258375	-0.351444
H132	H	0.735450	1.327289	-0.493403
H133	H	0.242046	1.327328	0.000024
H134	H	1.115520	0.468363	0.223697
H135	H	1.243130	0.330587	0.351259
H136	H	0.959251	0.468331	0.380043
H137	H	0.813559	1.120583	-0.223868
F138	F	0.249451	0.624635	0.137767
F139	F	1.262711	0.321003	0.088750
H140	H	1.228824	0.261663	0.493227
F141	F	1.084912	0.321039	0.527182
F142	F	0.735420	0.242606	0.510923
H143	H	0.227675	1.258415	-0.078128
H144	H	0.657291	1.258386	-0.507767
H145	H	0.355270	1.120578	-0.078154
F146	F	0.646499	0.320960	0.349435
H147	H	0.657262	1.120573	-0.380177
H148	H	0.355300	1.120523	-0.223814
F149	F	0.824331	0.477843	0.382004
H150	H	0.171407	0.809883	0.104360
F151	F	0.874228	0.624342	-0.484803
H152	H	0.114175	0.932047	0.003009
H153	H	1.086804	0.330514	-0.078292
H154	H	1.228775	0.261599	-0.000178
H155	H	0.229008	0.932976	0.002009
H156	H	0.286276	0.809018	-0.118068
F157	F	0.166168	0.804810	-0.131299
H158	H	0.113301	0.934675	-0.128620
H159	H	0.853505	0.638151	-0.369722
H160	H	0.762532	0.638110	-0.486259
H161	H	0.762075	0.637858	-0.370067
H162	H	0.616710	0.809854	-0.564048
F163	F	0.592337	0.957358	-0.638786
H164	H	0.959223	0.468315	-0.078256
H165	H	0.616216	0.811475	-0.449226
F166	F	0.857038	0.804842	-0.569315
F167	F	0.592604	0.958354	-0.512508
H168	H	0.839917	0.809038	-0.449209
H169	H	0.739727	0.931810	-0.505035
H170	H	0.734120	0.934699	-0.622151
