data_functionalizedCrystal
_audit_creation_method	'MofGen! by Chris Wilmer'
_symmetry_space_group_name_H-M	'P1'
_symmetry_Int_Tables_number	1
_symmetry_cell_setting	triclinic
loop_
_symmetry_equiv_pos_as_xyz
  x,y,z
_cell_length_a	13.635800
_cell_length_b	27.923497
_cell_length_c	11.102291
_cell_angle_alpha	84.480506
_cell_angle_beta	108.605752
_cell_angle_gamma	81.035752
loop_
_atom_site_label
_atom_site_type_symbol
_atom_site_fract_x
_atom_site_fract_y
_atom_site_fract_z
V1	V	2.031726	-0.067134	0.397096
O2	O	2.036439	0.003220	0.388676
O3	O	1.996485	-0.133109	0.395209
O4	O	2.020487	-0.066104	0.569906
O5	O	2.012271	-0.064249	0.212770
V6	V	2.273291	-0.058718	0.374949
O7	O	2.162786	-0.085593	0.445679
O8	O	2.367329	-0.040258	0.326366
O9	O	2.196928	0.007257	0.376836
O10	O	2.327276	-0.129072	0.383369
O11	O	2.351444	-0.061603	0.559275
O12	O	2.172926	-0.059748	0.202139
V13	V	2.531726	-0.067134	0.397096
O14	O	2.536439	0.003220	0.388676
O15	O	2.496485	-0.133109	0.395209
O16	O	2.520487	-0.066104	0.569906
O17	O	2.512271	-0.064249	0.212770
V18	V	2.773291	-0.058718	0.374949
O19	O	2.662786	-0.085593	0.445679
O20	O	2.867329	-0.040258	0.326366
O21	O	2.696928	0.007257	0.376836
O22	O	2.827276	-0.129072	0.383369
O23	O	2.851444	-0.061603	0.559275
O24	O	2.672926	-0.059748	0.202139
C25	C	1.915881	-0.149192	0.389158
C26	C	1.927797	-0.203127	0.388767
C27	C	1.974159	-0.530648	0.269731
C28	C	2.018975	-0.733355	0.268192
O29	O	2.001337	-0.753674	0.168942
N30	N	2.052180	-0.765631	0.384474
C31	C	2.074188	-0.747228	0.501149
O32	O	2.103469	-0.779332	0.600020
C33	C	2.029379	-0.544521	0.502688
C34	C	1.996163	-0.512247	0.386397
C35	C	1.940947	-0.498375	0.153450
C36	C	1.929738	-0.447701	0.153836
C37	C	1.951742	-0.429300	0.270502
C38	C	1.984955	-0.461574	0.386783
C39	C	2.051395	-0.526119	0.619363
C40	C	2.040192	-0.475438	0.619737
C41	C	2.006976	-0.443165	0.503447
C42	C	1.995751	-0.392499	0.503835
N43	N	1.962546	-0.360223	0.387553
C44	C	1.940542	-0.378624	0.270886
C45	C	2.097709	-0.853651	0.500333
C46	C	2.108910	-0.904327	0.499949
C47	C	2.053698	-0.890451	0.266991
C48	C	2.042490	-0.839774	0.267376
C49	C	2.064505	-0.821375	0.384051
C50	C	1.917004	-0.272206	0.271705
C51	C	1.905793	-0.221528	0.272101
C52	C	1.961011	-0.235408	0.505058
C53	C	1.972217	-0.286081	0.504663
C54	C	1.950214	-0.304478	0.387976
O55	O	2.013381	-0.372146	0.603034
O56	O	1.911285	-0.346513	0.172032
C57	C	1.985368	-0.581322	0.269345
C58	C	2.018580	-0.613595	0.385626
C59	C	2.040584	-0.595195	0.502293
C60	C	2.029781	-0.664271	0.385242
C61	C	2.007777	-0.682672	0.268575
C62	C	1.974572	-0.650396	0.152293
C63	C	1.963364	-0.599722	0.152679
C64	C	2.073789	-0.627470	0.618575
C65	C	2.084994	-0.678144	0.618179
C66	C	2.062990	-0.696544	0.501513
C67	C	1.946496	-0.063720	0.612000
C68	C	1.977876	-0.063314	0.753278
C69	C	2.109203	0.023337	0.382883
C70	C	2.086906	0.077272	0.383283
C71	C	2.078587	-0.062134	0.160038
C72	C	2.036827	-0.062537	0.018759
C73	C	2.415881	-0.149192	0.389158
C74	C	2.427797	-0.203127	0.388767
C75	C	2.446496	-0.063720	0.612000
C76	C	2.477876	-0.063314	0.753278
C77	C	2.083755	-0.065543	0.826153
C78	C	2.113231	-0.065153	0.958895
C79	C	1.930938	-0.060306	0.945873
C80	C	1.901463	-0.060693	0.813133
C81	C	2.160168	-0.068165	0.766298
C82	C	2.266054	-0.070395	0.839175
C83	C	2.295530	-0.070004	0.971916
C84	C	2.219119	-0.067384	1.031781
C85	C	2.609203	0.023337	0.382883
C86	C	2.586906	0.077272	0.383283
C87	C	2.578587	-0.062134	0.160038
C88	C	2.536827	-0.062537	0.018759
C89	C	2.524525	-0.230930	0.394964
C90	C	2.535741	-0.281609	0.394616
C91	C	2.450225	-0.304485	0.388062
C92	C	2.353491	-0.276679	0.381868
C93	C	2.342279	-0.226001	0.382225
C94	C	2.662672	0.105075	0.377089
C95	C	2.641729	0.155754	0.377443
C96	C	2.545021	0.178629	0.384000
C97	C	2.469248	0.150823	0.390191
C98	C	2.490189	0.100146	0.389827
C99	C	2.583755	-0.065543	0.826153
C100	C	2.613231	-0.065153	0.958895
C101	C	2.430938	-0.060306	0.945873
C102	C	2.401463	-0.060693	0.813133
C103	C	2.660168	-0.068165	0.766298
C104	C	2.766054	-0.070395	0.839175
C105	C	2.795530	-0.070004	0.971916
C106	C	2.719119	-0.067384	1.031781
H107	H	1.878741	-0.195252	0.177399
H108	H	2.428490	0.077512	0.394882
H109	H	2.263509	-0.203367	0.377172
H110	H	2.594165	-0.212311	0.400293
Br111	Br	2.744576	0.193480	0.369042
Br112	Br	2.257764	-0.057657	0.714217
Br113	Br	2.620172	-0.068700	0.586152
H114	H	1.936317	-0.573449	0.057983
Br115	Br	1.757764	-0.057657	0.714217
Br116	Br	2.096401	-0.569905	0.777191
H117	H	2.743126	-0.067062	1.139867
Br118	Br	2.120172	-0.068700	0.586152
H119	H	2.283869	-0.295312	0.376532
H120	H	1.999247	-0.312360	0.599355
Br121	Br	2.667029	-0.319335	0.403018
H122	H	2.328262	-0.072525	0.790423
Br123	Br	2.465460	-0.373264	0.387578
H124	H	2.243126	-0.067062	1.139867
Br125	Br	2.793928	0.074041	0.368191
H126	H	2.527983	0.219895	0.384295
H127	H	2.828262	-0.072525	0.790423
H128	H	1.868731	-0.058173	0.994626
Br129	Br	2.439227	-0.073025	1.070816
Br130	Br	2.338003	0.181877	0.399078
Br131	Br	2.939227	-0.073025	1.070816
H132	H	1.899086	-0.287178	0.176688
H133	H	1.902698	-0.421427	0.059140
H134	H	2.368731	-0.058173	0.994626
H135	H	2.115636	-0.838676	0.595349
H136	H	2.135940	-0.930600	0.594643
H137	H	1.923029	-0.513350	0.058441
H138	H	2.015442	-0.813499	0.172682
Br139	Br	1.944705	-0.675379	-0.006039
Br140	Br	2.070079	-0.450472	0.778092
Br141	Br	2.023835	-0.915433	0.108658
H142	H	2.112035	-0.704418	0.712884
H143	H	1.978920	-0.220417	0.600045
H144	H	2.091709	-0.612495	0.713581
