data_functionalizedCrystal
_audit_creation_method	'MofGen! by Chris Wilmer'
_symmetry_space_group_name_H-M	'P1'
_symmetry_Int_Tables_number	1
_symmetry_cell_setting	triclinic
loop_
_symmetry_equiv_pos_as_xyz
  x,y,z
_cell_length_a	17.699083
_cell_length_b	17.019294
_cell_length_c	16.776229
_cell_angle_alpha	93.872869
_cell_angle_beta	89.997548
_cell_angle_gamma	83.339169
loop_
_atom_site_label
_atom_site_type_symbol
_atom_site_fract_x
_atom_site_fract_y
_atom_site_fract_z
O1	O	1.004145	0.099741	0.073022
O2	O	1.337478	0.433075	0.406355
O3	O	1.670811	0.766408	0.739688
O4	O	0.783775	0.112720	0.073938
O5	O	1.117108	0.446053	0.407272
O6	O	1.450442	0.779386	0.740605
O7	O	0.900107	-0.008613	0.065592
O8	O	1.233441	0.324721	0.398926
O9	O	1.566774	0.658054	0.732259
O10	O	0.887812	0.221074	0.081368
O11	O	1.221146	0.554407	0.414701
O12	O	1.554479	0.887740	0.748034
O13	O	0.900097	-0.008592	-0.066983
O14	O	1.233430	0.324742	0.266351
O15	O	1.566763	0.658075	0.599684
O16	O	0.783764	0.112741	-0.058637
O17	O	1.117098	0.446074	0.274697
O18	O	1.450431	0.779407	0.608030
O19	O	1.004134	0.099762	-0.059553
O20	O	1.337467	0.433096	0.273780
O21	O	1.670800	0.766429	0.607113
Zn22	Zn	0.893947	0.106255	-0.080144
Zn23	Zn	1.227281	0.439588	0.253189
Zn24	Zn	1.560614	0.772922	0.586523
Zn25	Zn	0.893962	0.106227	0.094529
Zn26	Zn	1.227295	0.439560	0.427863
Zn27	Zn	1.560628	0.772894	0.761196
O28	O	0.887802	0.221095	-0.051207
O29	O	1.221135	0.554428	0.282126
O30	O	1.554468	0.887761	0.615459
C31	C	0.755572	0.112265	0.007622
C32	C	1.088906	0.445598	0.340956
C33	C	1.422239	0.778932	0.674289
C34	C	0.671553	0.110870	0.007536
C35	C	1.004887	0.444203	0.340870
C36	C	1.338220	0.777537	0.674203
C37	C	0.622981	0.182090	0.012428
C38	C	0.956315	0.515423	0.345761
C39	C	1.289648	0.848756	0.679094
C40	C	0.544037	0.180774	0.012327
C41	C	0.877370	0.514107	0.345660
C42	C	1.210704	0.847441	0.678994
C43	C	0.513666	0.108238	0.007341
C44	C	0.847000	0.441571	0.340674
C45	C	1.180333	0.774905	0.674007
C46	C	0.562245	0.037013	0.002447
C47	C	0.895578	0.370346	0.335780
C48	C	1.228911	0.703680	0.669113
C49	C	0.641187	0.038329	0.002542
C50	C	0.974521	0.371663	0.335875
C51	C	1.307854	0.704996	0.669208
C52	C	0.243878	0.031703	0.002062
C53	C	0.577211	0.365036	0.335396
C54	C	0.910545	0.698369	0.668729
C55	C	0.164929	0.030392	0.001970
C56	C	0.498263	0.363725	0.335303
C57	C	0.831596	0.697058	0.668637
C58	C	0.146728	0.174147	0.011847
C59	C	0.480061	0.507480	0.345181
C60	C	0.813394	0.840814	0.678514
C61	C	0.225670	0.175463	0.011943
C62	C	0.559004	0.508797	0.345276
C63	C	0.892337	0.842130	0.678609
C64	C	0.274242	0.104239	0.007044
C65	C	0.607575	0.437572	0.340378
C66	C	0.940908	0.770906	0.673711
C67	C	0.359842	0.105666	0.007152
C68	C	0.693175	0.439000	0.340485
C69	C	1.026509	0.772333	0.673819
C70	C	0.428068	0.106810	0.007239
C71	C	0.761401	0.440143	0.340572
C72	C	1.094735	0.773476	0.673905
C73	C	0.899636	-0.037990	-0.002712
C74	C	1.232969	0.295343	0.330622
C75	C	1.566302	0.628677	0.663955
C76	C	0.898237	-0.125557	-0.008720
C77	C	1.231570	0.207777	0.324613
C78	C	1.564904	0.541110	0.657947
C79	C	0.897587	-0.166703	0.060723
C80	C	1.230921	0.166631	0.394057
C81	C	1.564254	0.499964	0.727390
C82	C	0.896268	-0.248980	0.055075
C83	C	1.229602	0.084353	0.388409
C84	C	1.562935	0.417686	0.721742
C85	C	0.895604	-0.290111	-0.020017
C86	C	1.228938	0.043222	0.313317
C87	C	1.562271	0.376556	0.646650
C88	C	0.896252	-0.248959	-0.089465
C89	C	1.229585	0.084375	0.243868
C90	C	1.562918	0.417708	0.577201
C91	C	0.897565	-0.166682	-0.083816
C92	C	1.230898	0.166651	0.249517
C93	C	1.564232	0.499985	0.582850
C94	C	0.891633	-0.538532	-0.040688
C95	C	1.224966	-0.205199	0.292646
C96	C	1.558299	0.128134	0.625979
C97	C	0.890321	-0.620815	-0.046331
C98	C	1.223655	-0.287482	0.287002
C99	C	1.556988	0.045851	0.620335
C100	C	0.890337	-0.620831	0.098210
C101	C	1.223670	-0.287498	0.431543
C102	C	1.557004	0.045836	0.764877
C103	C	0.891655	-0.538553	0.103852
C104	C	1.224988	-0.205220	0.437185
C105	C	1.558322	0.128113	0.770519
C106	C	0.892298	-0.497408	0.034404
C107	C	1.225632	-0.164074	0.367737
C108	C	1.558965	0.169259	0.701070
C109	C	0.894258	-0.374212	-0.025792
C110	C	1.227592	-0.040879	0.307542
C111	C	1.560925	0.292455	0.640875
C112	C	0.893639	-0.413307	0.040179
C113	C	1.226972	-0.079974	0.373513
C114	C	1.560305	0.253359	0.706846
C115	C	1.032337	0.100217	0.006764
C116	C	1.365670	0.433550	0.340098
C117	C	1.699003	0.766883	0.673431
C118	C	1.116356	0.101612	0.006856
C119	C	1.449689	0.434945	0.340189
C120	C	1.783022	0.768279	0.673522
C121	C	0.888273	0.250472	0.017098
C122	C	1.221607	0.583805	0.350432
C123	C	1.554940	0.917139	0.683765
C124	C	0.889672	0.338039	0.023112
C125	C	1.223005	0.671372	0.356445
C126	C	1.556339	1.004705	0.689779
N127	N	0.893943	0.106273	-0.199354
N128	N	1.227277	0.439607	0.133979
N129	N	1.560610	0.772940	0.467313
C130	C	0.848121	0.058425	-0.747807
C131	C	1.181454	0.391759	-0.414473
C132	C	1.514788	0.725092	-0.081140
C133	C	0.848119	0.058432	-0.664354
C134	C	1.181453	0.391765	-0.331021
C135	C	1.514786	0.725099	0.002313
C136	C	0.893965	0.106220	-0.619357
C137	C	1.227298	0.439554	-0.286024
C138	C	1.560631	0.772887	0.047310
C139	C	0.939820	0.153999	-0.657818
C140	C	1.273154	0.487332	-0.324484
C141	C	1.606487	0.820666	0.008849
C142	C	0.939826	0.153988	-0.741269
C143	C	1.273159	0.487321	-0.407936
C144	C	1.606492	0.820654	-0.074602
C145	C	0.939801	0.154046	-0.321267
C146	C	1.273134	0.487379	0.012066
C147	C	1.606467	0.820712	0.345399
C148	C	0.939790	0.154055	-0.237810
C149	C	1.273124	0.487388	0.095523
C150	C	1.606457	0.820722	0.428857
C151	C	0.848094	0.058490	-0.244352
C152	C	1.181428	0.391823	0.088981
C153	C	1.514761	0.725157	0.422315
C154	C	0.848100	0.058478	-0.327804
C155	C	1.181433	0.391812	0.005530
C156	C	1.514766	0.725145	0.338863
C157	C	0.893958	0.106254	-0.366257
C158	C	1.227292	0.439587	-0.032924
C159	C	1.560625	0.772920	0.300410
C160	C	0.893961	0.106245	-0.456746
C161	C	1.227294	0.439578	-0.123413
C162	C	1.560627	0.772912	0.209921
C163	C	0.893959	0.106234	-0.528869
C164	C	1.227292	0.439567	-0.195536
C165	C	1.560625	0.772901	0.137797
N166	N	0.893972	0.106202	0.213739
N167	N	1.227305	0.439536	0.547072
N168	N	1.560638	0.772869	0.880405
H169	H	0.680735	-0.019665	-0.001441
H170	H	1.014068	0.313668	0.331893
H171	H	1.347402	0.647002	0.665226
H172	H	0.893720	-0.407710	-0.086932
H173	H	1.227054	-0.074377	0.246401
H174	H	1.560387	0.258956	0.579735
H175	H	0.894174	-0.379814	0.101319
H176	H	1.227508	-0.046481	0.434652
H177	H	1.560841	0.286852	0.767986
C178	C	0.131524	-0.049407	-0.003525
C179	C	0.464858	0.283926	0.329808
C180	C	0.798191	0.617259	0.663142
N181	N	0.106363	-0.109509	-0.007666
N182	N	0.439697	0.223825	0.325668
N183	N	0.773030	0.557158	0.659001
C184	C	0.892386	-0.493316	0.186459
C185	C	1.225719	-0.159982	0.519793
C186	C	1.559052	0.173351	0.853126
N187	N	0.892939	-0.459243	0.248680
N188	N	1.226272	-0.125910	0.582014
N189	N	1.559605	0.207424	0.915347
C190	C	0.528834	-0.042777	-0.003040
C191	C	0.862168	0.290556	0.330294
C192	C	1.195501	0.623889	0.663627
N193	N	0.503671	-0.102877	-0.007169
N194	N	0.837004	0.230456	0.326164
N195	N	1.170337	0.563789	0.659498
H196	H	0.898132	-0.133221	0.121872
H197	H	1.231466	0.200113	0.455205
H198	H	1.564799	0.533446	0.788538
H199	H	0.977152	0.192905	-0.621175
H200	H	1.310486	0.526239	-0.287841
H201	H	1.643819	0.859572	0.045492
H202	H	0.504492	0.238768	0.016311
H203	H	0.837826	0.572101	0.349644
H204	H	1.171159	0.905435	0.682977
C205	C	0.889588	-0.666057	-0.128942
C206	C	1.222922	-0.332724	0.204391
C207	C	1.556255	0.000610	0.537724
N208	N	0.889037	-0.700133	-0.191161
N209	N	1.222370	-0.366800	0.142172
N210	N	1.555703	-0.033467	0.475505
H211	H	0.283416	-0.026293	-0.001927
H212	H	0.616749	0.307040	0.331407
H213	H	0.950083	0.640374	0.664740
C214	C	0.895624	-0.294247	0.131469
C215	C	1.228957	0.039087	0.464802
C216	C	1.562290	0.372420	0.798135
N217	N	0.895163	-0.328344	0.189011
N218	N	1.228496	0.004989	0.522345
N219	N	1.561829	0.338322	0.855678
H220	H	0.889812	-0.654340	0.154751
H221	H	1.223145	-0.321007	0.488084
H222	H	1.556478	0.012326	0.821418
C223	C	0.892344	-0.493284	-0.117084
C224	C	1.225677	-0.159950	0.216249
C225	C	1.559010	0.173383	0.549582
N226	N	0.892880	-0.459199	-0.174630
N227	N	1.226213	-0.125866	0.158704
N228	N	1.559547	0.207467	0.492037
H229	H	0.977162	0.192892	-0.772577
H230	H	1.310496	0.526226	-0.439244
H231	H	1.643829	0.859559	-0.105911
C232	C	0.895516	-0.294205	-0.172068
C233	C	1.228849	0.039129	0.161266
C234	C	1.562182	0.372462	0.494599
N235	N	0.894963	-0.328283	-0.234286
N236	N	1.228296	0.005050	0.099048
N237	N	1.561629	0.338383	0.432381
C238	C	0.898282	-0.121422	-0.160210
C239	C	1.231615	0.211911	0.173123
C240	C	1.564948	0.545245	0.506457
N241	N	0.898820	-0.087333	-0.217752
N242	N	1.232153	0.246000	0.115581
N243	N	1.565486	0.579334	0.448915
C244	C	0.797686	0.005854	-0.797296
C245	C	1.131020	0.339187	-0.463962
C246	C	1.464353	0.672521	-0.130629
N247	N	0.759700	-0.033747	-0.834569
N248	N	1.093033	0.299586	-0.501236
N249	N	1.426366	0.632920	-0.167902
H250	H	0.810785	0.019525	-0.633048
H251	H	1.144119	0.352858	-0.299715
H252	H	1.477452	0.686192	0.033618
C253	C	0.259073	0.255258	0.017423
C254	C	0.592406	0.588592	0.350756
C255	C	0.925740	0.921925	0.684089
N256	N	0.284230	0.315362	0.021545
N257	N	0.617564	0.648695	0.354879
N258	N	0.950897	0.982028	0.688212
C259	C	0.990232	0.206623	-0.188315
C260	C	1.323565	0.539956	0.145018
C261	C	1.656898	0.873289	0.478352
N262	N	1.028223	0.246214	-0.151036
N263	N	1.361556	0.579547	0.182298
N264	N	1.694889	0.912881	0.515631
C265	C	0.990211	0.206637	-0.363552
C266	C	1.323545	0.539970	-0.030219
C267	C	1.656878	0.873303	0.303114
N268	N	1.028171	0.246264	-0.395403
N269	N	1.361504	0.579597	-0.062070
N270	N	1.694838	0.912930	0.271263
H271	H	0.810765	0.019567	-0.364436
H272	H	1.144098	0.352901	-0.031103
H273	H	1.477432	0.686234	0.302231
H274	H	0.107171	0.232141	0.015831
H275	H	0.440504	0.565475	0.349165
H276	H	0.773838	0.898808	0.682498
C277	C	0.656381	0.261886	0.017912
C278	C	0.989714	0.595219	0.351245
C279	C	1.323047	0.928553	0.684578
N280	N	0.681535	0.321991	0.022039
N281	N	1.014868	0.655325	0.355372
N282	N	1.348201	0.988658	0.688705
C283	C	0.797717	0.005864	-0.202051
C284	C	1.131050	0.339197	0.131282
C285	C	1.464384	0.672531	0.464616
N286	N	0.759796	-0.033795	-0.170193
N287	N	1.093129	0.299538	0.163141
N288	N	1.426462	0.632871	0.496474
