data_functionalizedCrystal
_audit_creation_method	'MofGen! by Chris Wilmer'
_symmetry_space_group_name_H-M	'P1'
_symmetry_Int_Tables_number	1
_symmetry_cell_setting	triclinic
loop_
_symmetry_equiv_pos_as_xyz
  x,y,z
_cell_length_a	21.395362
_cell_length_b	21.295417
_cell_length_c	21.395355
_cell_angle_alpha	89.978549
_cell_angle_beta	89.956060
_cell_angle_gamma	90.046383
loop_
_atom_site_label
_atom_site_type_symbol
_atom_site_fract_x
_atom_site_fract_y
_atom_site_fract_z
Zn1	Zn	0.957860	-0.250415	-0.354573
Zn2	Zn	1.457860	0.249585	0.145427
Zn3	Zn	0.957763	-0.355667	-0.249790
Zn4	Zn	1.457763	0.144333	0.250210
Zn5	Zn	0.853075	-0.250445	-0.249774
Zn6	Zn	1.353075	0.249555	0.250226
Zn7	Zn	0.853045	-0.355680	-0.354495
Zn8	Zn	1.353045	0.144320	0.145505
O9	O	0.905436	-0.303052	-0.302158
O10	O	1.405436	0.196948	0.197842
O11	O	1.045525	-0.264359	-0.340713
O12	O	1.545525	0.235641	0.159287
O13	O	0.943848	-0.341716	-0.162110
O14	O	1.443848	0.158284	0.337890
O15	O	0.867029	-0.162351	-0.263702
O16	O	1.367029	0.337649	0.236298
O17	O	1.045454	-0.341687	-0.263729
O18	O	1.545454	0.158313	0.236271
O19	O	0.944014	-0.162330	-0.340697
O20	O	1.444014	0.337670	0.159303
O21	O	0.866934	-0.264409	-0.162098
O22	O	1.366934	0.235591	0.337902
O23	O	0.765393	-0.264422	-0.263626
O24	O	1.265393	0.235578	0.236374
O25	O	0.866977	-0.341709	-0.442183
O26	O	1.366977	0.158291	0.057817
O27	O	0.765371	-0.341738	-0.340564
O28	O	1.265371	0.158262	0.159436
O29	O	0.943984	-0.264372	-0.442240
O30	O	1.443984	0.235628	0.057760
O31	O	0.943819	-0.443758	-0.263653
O32	O	1.443819	0.056242	0.236347
O33	O	0.866883	-0.443767	-0.340579
O34	O	1.366883	0.056233	0.159421
C35	C	0.742648	-0.303085	-0.302085
C36	C	1.242648	0.196915	0.197915
C37	C	0.673007	-0.303114	-0.302069
C38	C	1.173007	0.196886	0.197931
C39	C	0.640299	-0.343426	-0.342070
C40	C	1.140299	0.156574	0.157930
C41	C	0.574863	-0.343411	-0.342098
C42	C	1.074863	0.156589	0.157902
C43	C	0.542139	-0.303090	-0.302114
C44	C	1.042139	0.196910	0.197886
C45	C	0.574855	-0.262771	-0.262109
C46	C	1.074855	0.237229	0.237891
C47	C	0.640289	-0.262783	-0.262087
C48	C	1.140289	0.237217	0.237913
C49	C	0.438414	-0.298019	-0.245709
C50	C	0.938414	0.201981	0.254291
C51	C	0.372981	-0.298011	-0.245730
C52	C	0.872981	0.201989	0.254270
C53	C	0.340318	-0.303049	-0.302183
C54	C	0.840318	0.196951	0.197817
C55	C	0.373096	-0.308108	-0.358616
C56	C	0.873096	0.191892	0.141384
C57	C	0.438530	-0.308120	-0.358594
C58	C	0.938530	0.191880	0.141406
C59	C	0.471186	-0.303072	-0.302134
C60	C	0.971186	0.196928	0.197866
C61	C	0.236657	-0.343346	-0.342218
C62	C	0.736657	0.156654	0.157782
C63	C	0.171221	-0.343326	-0.342247
C64	C	0.671221	0.156674	0.157753
C65	C	0.171214	-0.262690	-0.262252
C66	C	0.671214	0.237310	0.237748
C67	C	0.236649	-0.262706	-0.262229
C68	C	0.736649	0.237294	0.237771
C69	C	0.269367	-0.303038	-0.302211
C70	C	0.769367	0.196962	0.197789
C71	C	0.905354	-0.466603	-0.302123
C72	C	1.405354	0.033397	0.197877
C73	C	0.905376	-0.536571	-0.302129
C74	C	1.405376	-0.036571	0.197871
C75	C	0.945472	-0.569412	-0.262115
C76	C	1.445472	-0.069412	0.237885
C77	C	0.945502	-0.635155	-0.262129
C78	C	1.445502	-0.135155	0.237871
C79	C	0.905424	-0.668054	-0.302151
C80	C	1.405424	-0.168054	0.197849
C81	C	0.865324	-0.635205	-0.342173
C82	C	1.365324	-0.135205	0.157827
C83	C	0.865301	-0.569464	-0.342162
C84	C	1.365301	-0.069464	0.157838
N85	N	0.850614	-0.771336	-0.306903
N86	N	1.350614	-0.271336	0.193097
N87	N	0.850638	-0.833787	-0.306910
N88	N	1.350638	-0.333787	0.193090
C89	C	0.905494	-0.866129	-0.302187
C90	C	1.405494	-0.366129	0.197813
N91	N	0.960325	-0.833659	-0.297445
N92	N	1.460325	-0.333659	0.202555
N93	N	0.960300	-0.771202	-0.297435
N94	N	1.460300	-0.271202	0.202565
C95	C	0.905445	-0.739339	-0.302167
C96	C	1.405445	-0.239339	0.197833
C97	C	0.945625	-0.970255	-0.262186
C98	C	1.445625	-0.470255	0.237814
C99	C	0.945656	-1.035999	-0.262204
C100	C	1.445656	-0.535999	0.237796
C101	C	0.865473	-1.036048	-0.342245
C102	C	1.365473	-0.536048	0.157755
C103	C	0.865448	-0.970305	-0.342230
C104	C	1.365448	-0.470305	0.157770
C105	C	0.905523	-0.937413	-0.302197
C106	C	1.405523	-0.437413	0.197803
C107	C	1.068859	-0.303019	-0.302231
C108	C	1.568859	0.196981	0.197769
C109	C	1.138501	-0.303005	-0.302262
C110	C	1.638501	0.196995	0.197738
C111	C	0.905488	-0.303039	-0.465581
C112	C	1.405488	0.196961	0.034419
C113	C	0.905510	-0.303033	-0.535223
C114	C	1.405510	0.196967	-0.035223
C115	C	0.905535	-0.138861	-0.302206
C116	C	1.405535	0.361139	0.197794
C117	C	0.905578	-0.068893	-0.302227
C118	C	1.405578	0.431107	0.197773
C119	C	0.945606	-0.262762	-0.567967
C120	C	1.445606	0.237238	-0.067967
C121	C	0.945605	-0.262735	-0.633402
C122	C	1.445605	0.237265	-0.133402
C123	C	0.905515	-0.302991	-0.666091
C124	C	1.405515	0.197009	-0.166091
C125	C	0.865411	-0.343265	-0.633339
C126	C	1.365411	0.156735	-0.133339
C127	C	0.865409	-0.343286	-0.567905
C128	C	1.365409	0.156714	-0.067905
C129	C	0.900539	-0.359672	-0.769752
C130	C	1.400539	0.140328	-0.269752
C131	C	0.900546	-0.359652	-0.835185
C132	C	1.400546	0.140348	-0.335185
C133	C	0.905519	-0.302924	-0.867912
C134	C	1.405519	0.197076	-0.367912
C135	C	0.910498	-0.246215	-0.835198
C136	C	1.410498	0.253785	-0.335198
C137	C	0.910496	-0.246237	-0.769763
C138	C	1.410496	0.253763	-0.269763
C139	C	0.905513	-0.302972	-0.737043
C140	C	1.405513	0.197028	-0.237043
C141	C	0.945616	-0.262620	-0.971608
C142	C	1.445616	0.237380	-0.471608
C143	C	0.945611	-0.262592	-1.037045
C144	C	1.445611	0.237408	-0.537045
C145	C	0.865420	-0.343127	-1.036981
C146	C	1.365420	0.156873	-0.536981
C147	C	0.865422	-0.343150	-0.971545
C148	C	1.365422	0.156850	-0.471545
C149	C	0.905523	-0.302897	-0.938863
C150	C	1.405523	0.197103	-0.438863
C151	C	0.905420	-0.303019	-0.139370
C152	C	1.405420	0.196981	0.360630
C153	C	0.905519	-0.302847	-0.069729
C154	C	1.405519	0.197153	0.430271
H155	H	0.144590	-0.376152	-0.374825
H156	H	0.644590	0.123848	0.125175
H157	H	0.666933	-0.376266	-0.374628
H158	H	1.166933	0.123734	0.125372
H159	H	0.346298	-0.293896	-0.199778
H160	H	0.846298	0.206104	0.300222
H161	H	0.978105	-0.542633	-0.229519
H162	H	1.478105	-0.042633	0.270481
O163	O	0.984606	-0.223739	-0.536184
O164	O	1.484606	0.276261	-0.036184
C165	C	1.025041	-0.259565	-0.498336
C166	C	1.525041	0.240435	0.001664
H167	H	1.028906	-0.309136	-0.518052
H168	H	1.528906	0.190864	-0.018052
H169	H	1.005650	-0.261759	-0.448736
H170	H	1.505650	0.238241	0.051264
C171	C	1.085434	-0.167891	-0.473143
C172	C	1.585434	0.332109	0.026857
C173	C	1.090186	-0.228773	-0.497362
C174	C	1.590186	0.271227	0.002638
H175	H	1.125618	-0.148896	-0.472539
H176	H	1.625618	0.351104	0.027461
H177	H	1.058191	-0.143753	-0.498640
H178	H	1.558191	0.356247	0.001360
H179	H	1.069273	-0.169728	-0.431812
H180	H	1.569273	0.330272	0.068188
H181	H	1.106340	-0.226935	-0.538694
H182	H	1.606340	0.273065	-0.038694
H183	H	1.117433	-0.252910	-0.471872
H184	H	1.617433	0.247090	0.028128
O185	O	0.826410	-0.382391	-0.664993
O186	O	1.326410	0.117609	-0.164993
C187	C	0.791030	-0.417953	-0.622057
C188	C	1.291030	0.082047	-0.122057
H189	H	0.788873	-0.392184	-0.575414
H190	H	1.288873	0.107816	-0.075414
H191	H	0.813944	-0.465760	-0.615110
H192	H	1.313944	0.034240	-0.115110
C193	C	0.726992	-0.458682	-0.704836
C194	C	1.226992	0.041318	-0.204836
C195	C	0.724338	-0.427029	-0.647549
C196	C	1.224338	0.072971	-0.147549
H197	H	0.685854	-0.464284	-0.720561
H198	H	1.185854	0.035716	-0.220561
H199	H	0.750829	-0.434725	-0.733763
H200	H	1.250829	0.065275	-0.233763
H201	H	0.746090	-0.498518	-0.699039
H202	H	1.246090	0.001482	-0.199039
H203	H	0.705247	-0.387192	-0.653348
H204	H	1.205247	0.112808	-0.153348
H205	H	0.700495	-0.450980	-0.618623
H206	H	1.200495	0.049020	-0.118623
H207	H	0.914548	-0.200062	-0.743130
H208	H	1.414548	0.299938	-0.243130
H209	H	0.144570	-0.229857	-0.229699
H210	H	0.644570	0.270143	0.270301
H211	H	0.978259	-0.943473	-0.229590
H212	H	1.478259	-0.443473	0.270410
O213	O	0.984618	-0.223596	-0.665122
O214	O	1.484618	0.276404	-0.165122
C215	C	1.019998	-0.188061	-0.622244
C216	C	1.519998	0.311939	-0.122244
H217	H	1.022148	-0.213856	-0.575599
H218	H	1.522148	0.286144	-0.075599
H219	H	0.997088	-0.140255	-0.615274
H220	H	1.497088	0.359745	-0.115274
C221	C	1.084048	-0.147294	-0.705123
C222	C	1.584048	0.352706	-0.205123
C223	C	1.086693	-0.178978	-0.647834
C224	C	1.586693	0.321022	-0.147834
H225	H	1.125188	-0.141688	-0.720909
H226	H	1.625188	0.358312	-0.220909
H227	H	1.060210	-0.171232	-0.734012
H228	H	1.560210	0.328768	-0.234012
H229	H	1.064954	-0.107459	-0.699307
H230	H	1.564954	0.392541	-0.199307
H231	H	1.105780	-0.218815	-0.653653
H232	H	1.605780	0.281185	-0.153653
H233	H	1.110536	-0.155046	-0.618947
H234	H	1.610536	0.344954	-0.118947
O235	O	0.543166	-0.223545	-0.223247
O236	O	1.043166	0.276455	0.276753
C237	C	0.586071	-0.187978	-0.187922
C238	C	1.086071	0.312022	0.312078
H239	H	0.632745	-0.185844	-0.213574
H240	H	1.132745	0.314156	0.286426
H241	H	0.592957	-0.210960	-0.140292
H242	H	1.092957	0.289040	0.359708
C243	C	0.503263	-0.123585	-0.147516
C244	C	1.003263	0.376415	0.352484
C245	C	0.560587	-0.120959	-0.179026
C246	C	1.060587	0.379041	0.320974
H247	H	0.487542	-0.082246	-0.142026
H248	H	0.987542	0.417754	0.357974
H249	H	0.474356	-0.147549	-0.171313
H250	H	0.974356	0.352451	0.328687
H251	H	0.509008	-0.142740	-0.107828
H252	H	1.009008	0.357260	0.392172
H253	H	0.554839	-0.101812	-0.218716
H254	H	1.054839	0.398188	0.281284
H255	H	0.589491	-0.096991	-0.155235
H256	H	1.089491	0.403009	0.344765
O257	O	0.268471	-0.382584	-0.380970
O258	O	0.768471	0.117416	0.119030
C259	C	0.306249	-0.423189	-0.345213
C260	C	0.806249	0.076811	0.154787
H261	H	0.286471	-0.427002	-0.295866
H262	H	0.786471	0.072998	0.204134
H263	H	0.355859	-0.403735	-0.343072
H264	H	0.855859	0.096265	0.156928
C265	C	0.331513	-0.483990	-0.436313
C266	C	0.831513	0.016010	0.063687
C267	C	0.307217	-0.488677	-0.375706
C268	C	0.807217	0.011323	0.124294
H269	H	0.332113	-0.524386	-0.455124
H270	H	0.832113	-0.024386	0.044876
H271	H	0.306063	-0.456633	-0.460405
H272	H	0.806063	0.043367	0.039595
H273	H	0.372852	-0.467776	-0.434521
H274	H	0.872852	0.032224	0.065479
H275	H	0.265877	-0.504884	-0.377500
H276	H	0.765877	-0.004884	0.122500
H277	H	0.332661	-0.516039	-0.351615
H278	H	0.832661	-0.016039	0.148385
H279	H	0.914548	-0.200022	-0.861842
H280	H	1.414548	0.299978	-0.361842
O281	O	0.268328	-0.223531	-0.223307
O282	O	0.768328	0.276469	0.276693
C283	C	0.225416	-0.187927	-0.188032
C284	C	0.725416	0.312073	0.311968
H285	H	0.178744	-0.213698	-0.185831
H286	H	0.678744	0.286302	0.314169
H287	H	0.218530	-0.140151	-0.211067
H288	H	0.718530	0.359849	0.288933
C289	C	0.308213	-0.147107	-0.124061
C290	C	0.808213	0.352893	0.375939
C291	C	0.250891	-0.178762	-0.121352
C292	C	0.750891	0.321238	0.378648
H293	H	0.323927	-0.141451	-0.082930
H294	H	0.823927	0.358549	0.417070
H295	H	0.337124	-0.171092	-0.147827
H296	H	0.837124	0.328908	0.352173
H297	H	0.302467	-0.107297	-0.143259
H298	H	0.802467	0.392703	0.356741
H299	H	0.256639	-0.218574	-0.102161
H300	H	0.756639	0.281426	0.397839
H301	H	0.221981	-0.154783	-0.097581
H302	H	0.721981	0.345217	0.402419
H303	H	0.832843	-1.062834	-0.374834
H304	H	1.332843	-0.562834	0.125166
H305	H	0.896322	-0.405855	-0.743111
H306	H	1.396322	0.094145	-0.243111
H307	H	0.832755	-0.376079	-0.541245
H308	H	1.332755	0.123921	-0.041245
H309	H	0.832795	-0.943565	-0.374811
H310	H	1.332795	-0.443565	0.125189
H311	H	0.978266	-0.229840	-0.944997
H312	H	1.478266	0.270160	-0.444997
O313	O	0.984470	-0.666968	-0.223196
O314	O	1.484470	-0.166968	0.276804
C315	C	1.019848	-0.623839	-0.187873
C316	C	1.519848	-0.123839	0.312127
H317	H	0.994173	-0.577005	-0.185666
H318	H	1.494173	-0.077005	0.314334
H319	H	1.067423	-0.616782	-0.210869
H320	H	1.567423	-0.116782	0.289131
C321	C	1.060445	-0.707045	-0.123914
C322	C	1.560445	-0.207045	0.376086
C323	C	1.028908	-0.649525	-0.121199
C324	C	1.528908	-0.149525	0.378801
H325	H	1.066036	-0.722890	-0.082788
H326	H	1.566036	-0.222890	0.417212
H327	H	1.036613	-0.736103	-0.147713
H328	H	1.536613	-0.236103	0.352287
H329	H	1.100088	-0.701157	-0.143081
H330	H	1.600088	-0.201157	0.356919
H331	H	0.989263	-0.655415	-0.102040
H332	H	1.489263	-0.155415	0.397960
H333	H	1.052734	-0.620469	-0.097395
H334	H	1.552734	-0.120469	0.402605
H335	H	0.346503	-0.312209	-0.404586
H336	H	0.846503	0.187791	0.095414
H337	H	0.465215	-0.312237	-0.404544
H338	H	0.965215	0.187763	0.095456
H339	H	0.666920	-0.229954	-0.229513
H340	H	1.166920	0.270046	0.270487
O341	O	0.984628	-1.067805	-0.223273
O342	O	1.484628	-0.567805	0.276727
C343	C	1.020002	-1.024672	-0.187951
C344	C	1.520002	-0.524672	0.312049
H345	H	0.994321	-0.977842	-0.185741
H346	H	1.494321	-0.477842	0.314259
H347	H	1.067575	-1.017609	-0.210949
H348	H	1.567575	-0.517609	0.289051
C349	C	1.060612	-1.107875	-0.123996
C350	C	1.560612	-0.607875	0.376004
C351	C	1.029067	-1.050359	-0.121278
C352	C	1.529067	-0.550359	0.378722
H353	H	1.066207	-1.123720	-0.082870
H354	H	1.566207	-0.623720	0.417130
H355	H	1.036782	-1.136935	-0.147795
H356	H	1.536782	-0.636935	0.352205
H357	H	1.100253	-1.101981	-0.143164
H358	H	1.600253	-0.601981	0.356836
H359	H	0.989424	-1.056255	-0.102118
H360	H	1.489424	-0.556255	0.397882
H361	H	1.052891	-1.021301	-0.097474
H362	H	1.552891	-0.521301	0.402526
O363	O	0.826539	-0.382216	-1.068824
O364	O	1.326539	0.117784	-0.568824
C365	C	0.835128	-0.373553	-1.133600
C366	C	1.335128	0.126447	-0.633600
H367	H	0.883491	-0.352917	-1.142573
H368	H	1.383491	0.147083	-0.642573
H369	H	0.797981	-0.340038	-1.152146
H370	H	1.297981	0.159962	-0.652146
C371	C	0.769960	-0.462583	-1.156164
C372	C	1.269960	0.037417	-0.656164
C373	C	0.829362	-0.437242	-1.167185
C374	C	1.329362	0.062758	-0.667185
H375	H	0.766400	-0.501869	-1.176882
H376	H	1.266400	-0.001869	-0.676882
H377	H	0.764171	-0.468419	-1.112523
H378	H	1.264171	0.031581	-0.612523
H379	H	0.739010	-0.434649	-1.171620
H380	H	1.239010	0.065351	-0.671620
H381	H	0.860310	-0.465173	-1.151723
H382	H	1.360310	0.034827	-0.651723
H383	H	0.835156	-0.431413	-1.210824
H384	H	1.335156	0.068587	-0.710824
O385	O	0.826455	-0.382332	-0.939831
O386	O	1.326455	0.117668	-0.439831
C387	C	0.791057	-0.417846	-0.982712
C388	C	1.291057	0.082154	-0.482712
H389	H	0.816721	-0.420007	-1.029374
H390	H	1.316721	0.079993	-0.529374
H391	H	0.743487	-0.394799	-0.989638
H392	H	1.243487	0.105201	-0.489638
C393	C	0.750460	-0.482197	-0.899852
C394	C	1.250460	0.017803	-0.399852
C395	C	0.781984	-0.484856	-0.957162
C396	C	1.281984	0.015144	-0.457162
H397	H	0.744860	-0.523531	-0.884091
H398	H	1.244860	-0.023531	-0.384091
H399	H	0.774307	-0.458269	-0.870962
H400	H	1.274307	0.041731	-0.370962
H401	H	0.710822	-0.462988	-0.905632
H402	H	1.210822	0.037012	-0.405632
H403	H	0.821624	-0.504057	-0.951380
H404	H	1.321624	-0.004057	-0.451380
H405	H	0.758143	-0.508788	-0.986051
H406	H	1.258143	-0.008788	-0.486051
O407	O	0.826378	-0.537628	-0.381119
O408	O	1.326378	-0.037628	0.118881
C409	C	0.840057	-0.553626	-0.443587
C410	C	1.340057	-0.053626	0.056413
H411	H	0.864160	-0.601329	-0.444926
H412	H	1.364160	-0.101329	0.055074
H413	H	0.872246	-0.516575	-0.464721
H414	H	1.372246	-0.016575	0.035279
C415	C	0.749356	-0.498124	-0.479818
C416	C	1.249356	0.001876	0.020182
C417	C	0.778955	-0.556716	-0.481464
C418	C	1.278955	-0.056716	0.018536
H419	H	0.711665	-0.500027	-0.503185
H420	H	1.211665	-0.000027	-0.003185
H421	H	0.740140	-0.487343	-0.437733
H422	H	1.240140	0.012657	0.062267
H423	H	0.776186	-0.467254	-0.497429
H424	H	1.276186	0.032746	0.002571
H425	H	0.752128	-0.587583	-0.463846
H426	H	1.252128	-0.087583	0.036154
H427	H	0.788164	-0.567502	-0.523548
H428	H	1.288164	-0.067502	-0.023548
O429	O	0.543178	-0.382628	-0.380980
O430	O	1.043178	0.117372	0.119020
C431	C	0.586087	-0.418212	-0.416279
C432	C	1.086087	0.081788	0.083721
H433	H	0.632701	-0.420367	-0.390597
H434	H	1.132701	0.079633	0.109403
H435	H	0.593123	-0.395230	-0.463904
H436	H	1.093123	0.104770	0.036096
C437	C	0.503236	-0.482567	-0.456741
C438	C	1.003236	0.017433	0.043259
C439	C	0.560486	-0.485219	-0.425195
C440	C	1.060486	0.014781	0.074805
H441	H	0.487444	-0.523900	-0.462243
H442	H	0.987444	-0.023900	0.037757
H443	H	0.474327	-0.458593	-0.432961
H444	H	0.974327	0.041407	0.067039
H445	H	0.509107	-0.463414	-0.496425
H446	H	1.009107	0.036586	0.003575
H447	H	0.554613	-0.504365	-0.385509
H448	H	1.054613	-0.004365	0.114491
H449	H	0.589394	-0.509199	-0.448968
H450	H	1.089394	-0.009199	0.051032
H451	H	0.978261	-0.229795	-1.063704
H452	H	1.478261	0.270205	-0.563704
O453	O	0.895792	-0.414786	-0.866886
O454	O	1.395792	0.085214	-0.366886
C455	C	0.946401	-0.453994	-0.850935
C456	C	1.446401	0.046006	-0.350935
H457	H	0.965692	-0.439445	-0.803441
H458	H	1.465692	0.060555	-0.303441
H459	H	0.984649	-0.449422	-0.887789
H460	H	1.484649	0.050578	-0.387789
C461	C	0.900265	-0.540524	-0.906215
C462	C	1.400265	-0.040524	-0.406215
C463	C	0.923955	-0.522657	-0.847880
C464	C	1.423955	-0.022657	-0.347880
H465	H	0.886421	-0.582879	-0.904333
H466	H	1.386421	-0.082879	-0.404333
H467	H	0.866170	-0.514108	-0.916964
H468	H	1.366170	-0.014108	-0.416964
H469	H	0.932143	-0.536709	-0.936920
H470	H	1.432143	-0.036709	-0.436920
H471	H	0.892076	-0.526465	-0.817177
H472	H	1.392076	-0.026465	-0.317177
H473	H	0.958045	-0.549076	-0.837126
H474	H	1.458045	-0.049076	-0.337126
O475	O	0.470114	-0.293240	-0.190841
O476	O	0.970114	0.206760	0.309159
C477	C	0.454018	-0.344041	-0.151717
C478	C	0.954018	0.155959	0.348283
H479	H	0.436018	-0.384643	-0.181403
H480	H	0.936018	0.115357	0.318597
H481	H	0.416018	-0.328708	-0.117615
H482	H	0.916018	0.171292	0.382385
C483	C	0.534193	-0.315531	-0.078485
C484	C	1.034193	0.184469	0.421515
C485	C	0.512090	-0.365401	-0.114946
C486	C	1.012090	0.134599	0.385054
H487	H	0.570013	-0.328706	-0.055801
H488	H	1.070013	0.171294	0.444199
H489	H	0.545036	-0.281304	-0.104842
H490	H	1.045036	0.218696	0.395158
H491	H	0.502521	-0.302758	-0.050072
H492	H	1.002521	0.197242	0.449928
H493	H	0.543759	-0.378168	-0.143364
H494	H	1.043759	0.121832	0.356636
H495	H	0.501254	-0.399631	-0.088593
H496	H	1.001254	0.100369	0.411407
O497	O	0.826479	-0.667230	-0.381080
O498	O	1.326479	-0.167230	0.118920
C499	C	0.862146	-0.705183	-0.421608
C500	C	1.362146	-0.205183	0.078392
H501	H	0.909641	-0.714988	-0.399570
H502	H	1.409641	-0.214988	0.100430
H503	H	0.868999	-0.679815	-0.468044
H504	H	1.368999	-0.179815	0.031956
C505	C	0.769353	-0.755623	-0.459985
C506	C	1.269353	-0.255623	0.040015
C507	C	0.827687	-0.767669	-0.432915
C508	C	1.327687	-0.267669	0.067085
H509	H	0.748097	-0.794166	-0.466963
H510	H	1.248097	-0.294166	0.033037
H511	H	0.745323	-0.730051	-0.432683
H512	H	1.245323	-0.230051	0.067317
H513	H	0.775073	-0.734481	-0.498679
H514	H	1.275073	-0.234481	0.001321
H515	H	0.821966	-0.788803	-0.394218
H516	H	1.321966	-0.288803	0.105782
H517	H	0.851715	-0.793246	-0.460211
H518	H	1.351715	-0.293246	0.039789
