data_functionalizedCrystal
_audit_creation_method	'MofGen! by Chris Wilmer'
_symmetry_space_group_name_H-M	'P1'
_symmetry_Int_Tables_number	1
_symmetry_cell_setting	triclinic
loop_
_symmetry_equiv_pos_as_xyz
  x,y,z
_cell_length_a	11.804653
_cell_length_b	19.288862
_cell_length_c	19.288857
_cell_angle_alpha	96.865805
_cell_angle_beta	76.662993
_cell_angle_gamma	103.340157
loop_
_atom_site_label
_atom_site_type_symbol
_atom_site_fract_x
_atom_site_fract_y
_atom_site_fract_z
O1	O	-0.099496	-0.933876	0.099182
O2	O	0.233837	-0.600542	0.432515
O3	O	0.567170	-0.267209	0.765848
O4	O	-0.099399	-0.731602	0.110860
O5	O	0.233935	-0.398269	0.444193
O6	O	0.567268	-0.064936	0.777527
O7	O	-0.099436	-0.838585	0.003889
O8	O	0.233897	-0.505251	0.337222
O9	O	0.567231	-0.171918	0.670555
O10	O	-0.099459	-0.826893	0.206153
O11	O	0.233874	-0.493560	0.539486
O12	O	0.567208	-0.160227	0.872820
O13	O	0.098627	-0.813635	-0.021081
O14	O	0.431960	-0.480302	0.312253
O15	O	0.765294	-0.146968	0.645586
O16	O	0.098664	-0.706652	0.085891
O17	O	0.431998	-0.373319	0.419224
O18	O	0.765331	-0.039986	0.752557
O19	O	0.098567	-0.908926	0.074213
O20	O	0.431900	-0.575593	0.407546
O21	O	0.765233	-0.242259	0.740879
Cu22	Cu	0.116700	-0.805511	0.077772
Cu23	Cu	0.450034	-0.472178	0.411105
Cu24	Cu	0.783367	-0.138844	0.744438
Cu25	Cu	-0.117532	-0.835017	0.107301
Cu26	Cu	0.215801	-0.501684	0.440634
Cu27	Cu	0.549134	-0.168351	0.773967
O28	O	0.098604	-0.801944	0.181184
O29	O	0.431937	-0.468610	0.514517
O30	O	0.765271	-0.135277	0.847851
C31	C	-0.000354	-0.693249	0.097998
C32	C	0.332979	-0.359916	0.431331
C33	C	0.666312	-0.026583	0.764665
C34	C	-0.000317	-0.616141	0.096865
C35	C	0.333017	-0.282808	0.430198
C36	C	0.666350	0.050526	0.763531
N37	N	0.281447	-0.784763	0.057002
N38	N	0.614780	-0.451430	0.390336
N39	N	0.948113	-0.118097	0.723669
C40	C	0.343807	-0.734919	0.007117
C41	C	0.677140	-0.401585	0.340450
C42	C	1.010473	-0.068252	0.673783
C43	C	0.468473	-0.719210	-0.008598
C44	C	0.801806	-0.385877	0.324735
C45	C	1.135139	-0.052544	0.658069
C46	C	0.530791	-0.753349	0.025567
C47	C	0.864124	-0.420016	0.358901
C48	C	1.197458	-0.086683	0.692234
C49	C	0.468431	-0.803199	0.075450
C50	C	0.801764	-0.469865	0.408784
C51	C	1.135098	-0.136532	0.742117
C52	C	0.343753	-0.818904	0.091171
C53	C	0.677086	-0.485571	0.424504
C54	C	1.010419	-0.152238	0.757837
C55	C	0.530737	-0.837335	0.109621
C56	C	0.864070	-0.504002	0.442955
C57	C	1.197404	-0.170668	0.776288
C58	C	0.468377	-0.887184	0.159504
C59	C	0.801710	-0.553851	0.492838
C60	C	1.135044	-0.220518	0.826171
C61	C	0.343711	-0.902888	0.175222
C62	C	0.677044	-0.569554	0.508555
C63	C	1.010378	-0.236221	0.841888
C64	C	0.281393	-0.868749	0.141056
C65	C	0.614726	-0.535416	0.474390
C66	C	0.948059	-0.202082	0.807723
C67	C	0.655415	-0.821629	0.093901
C68	C	0.988749	-0.488296	0.427234
C69	C	1.322082	-0.154962	0.760568
C70	C	0.655361	-0.905615	0.177955
C71	C	0.988695	-0.572281	0.511288
C72	C	1.322028	-0.238948	0.844622
C73	C	0.530695	-0.921323	0.193670
C74	C	0.864029	-0.587990	0.527003
C75	C	1.197362	-0.254656	0.860336
N76	N	0.717721	-0.855770	0.128069
N77	N	1.051055	-0.522437	0.461403
N78	N	1.384388	-0.189104	0.794736
C79	C	-0.000403	-0.825734	-0.034473
C80	C	0.332930	-0.492401	0.298861
C81	C	0.666263	-0.159068	0.632194
C82	C	-0.000399	-0.824607	-0.111577
C83	C	0.332934	-0.491274	0.221756
C84	C	0.666267	-0.157940	0.555090
C85	C	-0.000339	-0.571446	0.159636
C86	C	0.332994	-0.238112	0.492969
C87	C	0.666328	0.095221	0.826303
C88	C	-0.000346	-0.498999	0.158577
C89	C	0.332987	-0.165666	0.491910
C90	C	0.666321	0.167667	0.825244
C91	C	-0.000355	-0.471255	0.094746
C92	C	0.332979	-0.137921	0.428079
C93	C	0.666312	0.195412	0.761412
C94	C	-0.000325	-0.515959	0.031965
C95	C	0.333008	-0.182626	0.365299
C96	C	0.666341	0.150708	0.698632
C97	C	-0.000306	-0.588402	0.033025
C98	C	0.333027	-0.255069	0.366358
C99	C	0.666360	0.078265	0.699691
C100	C	-0.069770	-0.371738	0.053318
C101	C	0.263564	-0.038405	0.386652
C102	C	0.596897	0.294929	0.719985
C103	C	-0.069796	-0.299297	0.052262
C104	C	0.263537	0.034036	0.385596
C105	C	0.596871	0.367370	0.718929
C106	C	-0.000407	-0.247816	0.091475
C107	C	0.332926	0.085518	0.424808
C108	C	0.666259	0.418851	0.758141
C109	C	0.068992	-0.268785	0.131757
C110	C	0.402325	0.064549	0.465090
C111	C	0.735659	0.397882	0.798423
C112	C	0.069011	-0.341228	0.132816
C113	C	0.402344	-0.007895	0.466150
C114	C	0.735678	0.325439	0.799483
C115	C	-0.000374	-0.392703	0.093590
C116	C	0.332959	-0.059370	0.426923
C117	C	0.666292	0.273964	0.760256
C118	C	-0.000436	-0.124565	0.153102
C119	C	0.332898	0.208768	0.486435
C120	C	0.666231	0.542102	0.819768
C121	C	-0.000435	-0.052117	0.152039
C122	C	0.332898	0.281216	0.485372
C123	C	0.666231	0.614550	0.818706
C124	C	-0.000427	-0.069080	0.025427
C125	C	0.332907	0.264254	0.358760
C126	C	0.666240	0.597587	0.692094
C127	C	-0.000415	-0.141525	0.026490
C128	C	0.332918	0.191809	0.359823
C129	C	0.666252	0.525142	0.693157
C130	C	-0.000425	-0.169263	0.090330
C131	C	0.332908	0.164070	0.423663
C132	C	0.666241	0.497403	0.756997
C133	C	-0.000459	0.052724	0.087074
C134	C	0.332874	0.386057	0.420408
C135	C	0.666208	0.719390	0.753741
C136	C	-0.000442	-0.024377	0.088207
C137	C	0.332892	0.308956	0.421540
C138	C	0.666225	0.642290	0.754874
C139	C	-0.108363	-0.837681	-0.134177
C140	C	0.224970	-0.504348	0.199156
C141	C	0.558303	-0.171015	0.532490
C142	C	-0.108372	-0.836614	-0.206622
C143	C	0.224962	-0.503280	0.126711
C144	C	0.558295	-0.169947	0.460045
C145	C	-0.000410	-0.822485	-0.256467
C146	C	0.332923	-0.489152	0.076867
C147	C	0.666257	-0.155818	0.410200
C148	C	0.107568	-0.809405	-0.233859
C149	C	0.440902	-0.476072	0.099474
C150	C	0.774235	-0.142738	0.432807
C151	C	0.107574	-0.810466	-0.161414
C152	C	0.440907	-0.477133	0.171919
C153	C	0.774240	-0.143799	0.505252
C154	C	0.082276	-0.851071	-0.387123
C155	C	0.415610	-0.517737	-0.053789
C156	C	0.748943	-0.184404	0.279544
C157	C	0.082267	-0.850014	-0.459566
C158	C	0.415600	-0.516681	-0.126233
C159	C	0.748933	-0.183348	0.207101
C160	C	-0.000422	-0.819209	-0.479911
C161	C	0.332912	-0.485875	-0.146578
C162	C	0.666245	-0.152542	0.186756
C163	C	-0.083120	-0.789471	-0.427802
C164	C	0.250213	-0.456137	-0.094469
C165	C	0.583546	-0.122804	0.238864
C166	C	-0.083115	-0.790532	-0.355357
C167	C	0.250218	-0.457198	-0.022024
C168	C	0.583552	-0.123865	0.311309
C169	C	-0.000404	-0.821332	-0.335023
C170	C	0.332930	-0.487999	-0.001689
C171	C	0.666263	-0.154666	0.331644
C172	C	-0.108402	-0.831125	-0.581063
C173	C	0.224931	-0.497792	-0.247730
C174	C	0.558264	-0.164458	0.085604
C175	C	-0.108406	-0.830053	-0.653509
C176	C	0.224927	-0.496719	-0.320176
C177	C	0.558261	-0.163386	0.013157
C178	C	0.107537	-0.802851	-0.680747
C179	C	0.440870	-0.469517	-0.347413
C180	C	0.774204	-0.136184	-0.014080
C181	C	0.107538	-0.803917	-0.608301
C182	C	0.440871	-0.470583	-0.274967
C183	C	0.774205	-0.137250	0.058366
C184	C	-0.000435	-0.818058	-0.558463
C185	C	0.332898	-0.484724	-0.225130
C186	C	0.666232	-0.151391	0.108204
C187	C	-0.000431	-0.814794	0.219545
C188	C	0.332902	-0.481461	0.552879
C189	C	0.666235	-0.148128	0.886212
C190	C	-0.000443	-0.815923	0.296651
C191	C	0.332890	-0.482589	0.629984
C192	C	0.666223	-0.149256	0.963317
H193	H	0.706177	-0.781041	0.053287
H194	H	1.039510	-0.447708	0.386620
H195	H	1.372843	-0.114374	0.719954
Br196	Br	0.254090	-0.790221	-0.301503
Br197	Br	0.587423	-0.456888	0.031831
Br198	Br	0.920756	-0.123555	0.365164
H199	H	0.179879	-0.881539	0.153846
H200	H	0.513212	-0.548206	0.487179
H201	H	0.846546	-0.214873	0.820512
Br202	Br	0.254060	-0.783669	-0.748385
Br203	Br	0.587393	-0.450335	-0.415052
Br204	Br	0.920727	-0.117002	-0.081718
Br205	Br	0.254108	-0.792718	-0.130740
Br206	Br	0.587441	-0.459384	0.202593
Br207	Br	0.920775	-0.126051	0.535926
Br208	Br	-0.000388	-0.202187	-0.058704
Br209	Br	0.332946	0.131146	0.274629
Br210	Br	0.666279	0.464480	0.607963
H211	H	0.632300	-0.740557	0.012769
H212	H	0.965633	-0.407223	0.346102
H213	H	1.298967	-0.073890	0.679436
H214	H	0.292941	-0.943473	0.215845
H215	H	0.626274	-0.610140	0.549178
H216	H	0.959607	-0.276806	0.882511
Br217	Br	0.446050	-0.988975	0.261365
Br218	Br	0.779383	-0.655642	0.594699
Br219	Br	1.112717	-0.322308	0.928032
Br220	Br	-0.254905	-0.854356	-0.237303
Br221	Br	0.078429	-0.521022	0.096031
Br222	Br	0.411762	-0.187689	0.429364
Br223	Br	-0.000351	-0.609088	0.246275
Br224	Br	0.332982	-0.275755	0.579608
Br225	Br	0.666316	0.057579	0.912942
Br226	Br	0.739925	-0.951946	0.224330
Br227	Br	1.073259	-0.618612	0.557663
Br228	Br	1.406592	-0.285279	0.890997
H229	H	0.519237	-0.678623	-0.049212
H230	H	0.852571	-0.345290	0.284121
H231	H	1.185904	-0.011956	0.617454
H232	H	-0.000447	-0.015725	0.203156
H233	H	0.332887	0.317608	0.536489
H234	H	0.666220	0.650942	0.869823
H235	H	0.293056	-0.707125	-0.020692
H236	H	0.626389	-0.373791	0.312642
H237	H	0.959722	-0.040458	0.645975
H238	H	-0.000361	-0.462601	0.209694
H239	H	0.332972	-0.129268	0.543027
H240	H	0.666306	0.204066	0.876361
Br241	Br	0.194491	-0.890378	-0.530277
Br242	Br	0.527825	-0.557045	-0.196944
Br243	Br	0.861158	-0.223711	0.136389
Br244	Br	0.163194	-0.369686	0.187479
Br245	Br	0.496527	-0.036352	0.520813
Br246	Br	0.829860	0.296981	0.854146
H247	H	-0.150453	-0.764386	-0.444364
H248	H	0.182880	-0.431052	-0.111031
H249	H	0.516213	-0.097719	0.222303
Br250	Br	-0.195339	-0.750173	-0.284641
Br251	Br	0.137994	-0.416840	0.048692
Br252	Br	0.471327	-0.083506	0.382025
Br253	Br	0.163165	-0.198926	0.184980
Br254	Br	0.496499	0.134408	0.518313
Br255	Br	0.829832	0.467741	0.851647
H256	H	-0.196320	-0.842635	-0.540482
H257	H	0.137013	-0.509302	-0.207149
H258	H	0.470346	-0.175969	0.126184
H259	H	-0.000426	-0.147149	0.205082
H260	H	0.332907	0.186184	0.538415
H261	H	0.666240	0.519518	0.871748
Br262	Br	-0.000418	-0.031432	-0.061205
Br263	Br	0.332915	0.301902	0.272128
Br264	Br	0.666249	0.635235	0.605461
Br265	Br	0.254069	-0.786169	-0.577626
Br266	Br	0.587402	-0.452835	-0.244293
Br267	Br	0.920736	-0.119502	0.089041
Br268	Br	-0.163945	-0.441600	0.000094
Br269	Br	0.169388	-0.108267	0.333428
Br270	Br	0.502722	0.225067	0.666761
Br271	Br	-0.163996	-0.270847	-0.002394
Br272	Br	0.169337	0.062487	0.330939
Br273	Br	0.502671	0.395820	0.664272
H274	H	-0.000349	-0.493367	-0.020004
H275	H	0.332985	-0.160033	0.313329
H276	H	0.666318	0.173300	0.646662
Br277	Br	-0.000273	-0.649064	-0.052172
Br278	Br	0.333060	-0.315731	0.281161
Br279	Br	0.666393	0.017603	0.614495
Br280	Br	-0.254897	-0.856869	-0.066543
Br281	Br	0.078436	-0.523536	0.266790
Br282	Br	0.411770	-0.190203	0.600124
Br283	Br	-0.254942	-0.847790	-0.684180
Br284	Br	0.078391	-0.514457	-0.350846
Br285	Br	0.411724	-0.181123	-0.017513
H286	H	0.149620	-0.876154	-0.370567
H287	H	0.482954	-0.542821	-0.037233
H288	H	0.816287	-0.209488	0.296100
