data_functionalizedCrystal
_audit_creation_method	'MofGen! by Chris Wilmer'
_symmetry_space_group_name_H-M	'P1'
_symmetry_Int_Tables_number	1
_symmetry_cell_setting	triclinic
loop_
_symmetry_equiv_pos_as_xyz
  x,y,z
_cell_length_a	13.635800
_cell_length_b	19.452420
_cell_length_c	19.453162
_cell_angle_alpha	83.669240
_cell_angle_beta	101.710258
_cell_angle_gamma	78.303285
loop_
_atom_site_label
_atom_site_type_symbol
_atom_site_fract_x
_atom_site_fract_y
_atom_site_fract_z
V1	V	1.998982	-0.097924	0.219347
O2	O	1.997558	0.003944	0.214818
O3	O	1.970467	-0.193435	0.218187
O4	O	1.970496	-0.096752	0.314856
O5	O	1.997529	-0.093408	0.117479
V6	V	2.241910	-0.085700	0.207121
O7	O	2.127051	-0.124739	0.246165
O8	O	2.338939	-0.058886	0.180304
O9	O	2.158822	0.009810	0.208281
O10	O	2.302032	-0.187568	0.211650
O11	O	2.302061	-0.090217	0.308989
O12	O	2.158793	-0.086872	0.111612
V13	V	2.498982	-0.097924	0.219347
O14	O	2.497558	0.003944	0.214818
O15	O	2.470467	-0.193435	0.218187
O16	O	2.470496	-0.096752	0.314856
O17	O	2.497529	-0.093408	0.117479
V18	V	2.741910	-0.085700	0.207121
O19	O	2.627051	-0.124739	0.246165
O20	O	2.838939	-0.058886	0.180304
O21	O	2.658822	0.009810	0.208281
O22	O	2.802032	-0.187568	0.211650
O23	O	2.802061	-0.090217	0.308989
O24	O	2.658793	-0.086872	0.111612
C25	C	1.892056	-0.216708	0.214814
C26	C	1.909357	-0.294791	0.214502
C27	C	1.900751	-0.321202	0.149988
C28	C	1.917043	-0.394568	0.149673
C29	C	1.941921	-0.441519	0.213876
C30	C	1.950533	-0.415101	0.278400
C31	C	1.934251	-0.341737	0.278713
N32	N	1.923291	-0.562121	0.259093
N33	N	1.938756	-0.631813	0.258791
C34	C	1.990983	-0.662562	0.212937
N35	N	2.027146	-0.620984	0.167384
N36	N	2.011675	-0.551285	0.167684
C37	C	1.959580	-0.521071	0.213544
C38	C	2.000043	-0.768524	0.148076
C39	C	2.016343	-0.841891	0.147765
C40	C	2.049823	-0.862423	0.276493
C41	C	2.033533	-0.789057	0.276803
C42	C	2.008639	-0.742111	0.212593
C43	C	1.892093	-0.093379	0.338125
C44	C	1.909416	-0.093052	0.416207
C45	C	2.068903	0.033080	0.211652
C46	C	2.041222	0.111162	0.211968
C47	C	2.068867	-0.090248	0.088339
C48	C	2.041163	-0.090571	0.010257
C49	C	2.392056	-0.216708	0.214814
C50	C	2.409357	-0.294791	0.214502
C51	C	2.392093	-0.093379	0.338125
C52	C	2.409416	-0.093052	0.416207
C53	C	2.123759	-0.094233	0.977171
C54	C	2.107492	-0.094545	0.903806
C55	C	2.008621	-0.091180	0.863527
C56	C	1.926016	-0.087521	0.896622
C57	C	1.942287	-0.087217	0.969987
N58	N	1.905094	-0.048854	0.739258
N59	N	1.889643	-0.049142	0.669564
C60	C	1.959592	-0.092099	0.642483
N61	N	2.045589	-0.134749	0.687727
N62	N	2.061043	-0.134458	0.757426
C63	C	1.990968	-0.091510	0.783975
C64	C	2.024557	-0.096100	0.529846
C65	C	2.008287	-0.096416	0.456480
C66	C	1.826806	-0.089385	0.449297
C67	C	1.843080	-0.089076	0.522663
C68	C	1.941956	-0.092431	0.562932
C69	C	2.568903	0.033080	0.211652
C70	C	2.541222	0.111162	0.211968
C71	C	2.568867	-0.090248	0.088339
C72	C	2.541163	-0.090571	0.010257
C73	C	2.508225	-0.335053	0.217878
C74	C	2.524497	-0.408423	0.217596
C75	C	2.441899	-0.441528	0.213933
C76	C	2.343023	-0.401261	0.210559
C77	C	2.326754	-0.327894	0.210846
C78	C	2.508293	-0.096413	0.456467
C79	C	2.524581	-0.096097	0.529833
C80	C	2.441993	-0.092426	0.562937
C81	C	2.343108	-0.089062	0.522670
C82	C	2.326819	-0.089373	0.449306
C83	C	2.614847	0.151424	0.208595
C84	C	2.588846	0.224793	0.208880
C85	C	2.489221	0.257898	0.212545
C86	C	2.415590	0.217632	0.215917
C87	C	2.441589	0.144265	0.215626
C88	C	2.441520	-0.094235	-0.022829
C89	C	2.415473	-0.094530	-0.096197
C90	C	2.489071	-0.091166	-0.136476
C91	C	2.588721	-0.087500	-0.103386
C92	C	2.614766	-0.087200	-0.030020
H93	H	1.910033	-0.416076	0.097136
H94	H	1.880488	-0.282983	0.097703
O95	O	2.076665	-0.913058	0.345741
H96	H	2.079918	-0.882363	0.390657
O97	O	2.362172	0.100845	0.219277
H98	H	2.396974	0.044265	0.218457
O99	O	2.722243	-0.083248	0.005661
H100	H	2.778546	-0.129747	-0.002478
O101	O	2.668279	0.268213	0.205269
H102	H	2.741926	0.232859	0.202692
H103	H	2.009340	-0.863392	0.095227
O104	O	2.461190	0.337029	0.212873
H105	H	2.529136	0.359456	0.209922
H106	H	2.381579	-0.096974	0.009958
O107	O	2.307997	-0.098495	-0.131878
H108	H	2.261209	-0.100798	-0.091536
O109	O	2.042794	-0.760562	0.346386
H110	H	2.062821	-0.805533	0.390979
H111	H	2.575491	-0.308108	0.220856
H112	H	2.334474	0.244597	0.218900
H113	H	2.455161	-0.501270	0.213699
H114	H	2.204270	-0.096965	1.009954
O115	O	2.460979	-0.091497	-0.215606
H116	H	2.379327	-0.094619	-0.231838
O117	O	2.668102	-0.083877	-0.146833
H118	H	2.633244	-0.084711	-0.203403
O119	O	1.720165	-0.085748	0.405859
H120	H	1.720914	-0.133837	0.379925
H121	H	1.970791	-0.453334	0.330674
H122	H	2.275870	-0.086073	0.549635
H123	H	2.105069	-0.098839	0.562637
O124	O	2.220172	-0.085761	0.405885
H125	H	2.165491	-0.083164	0.441237
H126	H	2.605012	-0.441198	0.220341
H127	H	1.941263	-0.320235	0.331250
H128	H	2.695973	0.124480	0.205611
H129	H	1.979773	-0.730298	0.095792
H130	H	2.455270	-0.092174	0.622675
H131	H	2.174754	-0.097528	0.876862
H132	H	1.845514	-0.084783	0.863823
O133	O	1.853298	-0.083641	1.005739
H134	H	1.781847	-0.081490	0.965430
O135	O	2.097380	-0.100358	0.420793
H136	H	2.156532	-0.150099	0.444273
H137	H	2.605105	-0.098839	0.562608
O138	O	1.754125	-0.085613	0.558433
H139	H	1.682685	-0.083502	0.518129
H140	H	2.275777	-0.428227	0.207577
O141	O	2.220111	-0.284468	0.207196
H142	H	2.165415	-0.319819	0.204594
O143	O	2.597375	-0.100363	0.420768
H144	H	2.668857	-0.102635	0.461097
