data_functionalizedCrystal
_audit_creation_method	'MofGen! by Chris Wilmer'
_symmetry_space_group_name_H-M	'P1'
_symmetry_Int_Tables_number	1
_symmetry_cell_setting	triclinic
loop_
_symmetry_equiv_pos_as_xyz
  x,y,z
_cell_length_a	16.120530
_cell_length_b	13.033615
_cell_length_c	13.032268
_cell_angle_alpha	90.919108
_cell_angle_beta	85.357344
_cell_angle_gamma	93.931702
loop_
_atom_site_label
_atom_site_type_symbol
_atom_site_fract_x
_atom_site_fract_y
_atom_site_fract_z
Zn1	Zn	1.157364	-0.564931	0.592636
Zn2	Zn	1.161674	-0.715402	0.399073
Zn3	Zn	1.039079	-0.534792	0.414227
Zn4	Zn	1.004682	-0.726084	0.562438
O5	O	1.090700	-0.635302	0.492094
O6	O	1.273140	-0.593034	0.573255
O7	O	1.161610	-0.674360	0.258050
O8	O	1.067361	-0.395762	0.456873
O9	O	1.276307	-0.703584	0.431046
O10	O	1.154264	-0.417904	0.587949
O11	O	1.071540	-0.541667	0.269183
O12	O	0.919311	-0.552025	0.427591
O13	O	1.008737	-0.721791	0.709477
O14	O	0.894040	-0.692566	0.536482
O15	O	1.120911	-0.603392	0.731664
O16	O	1.128258	-0.859848	0.401764
O17	O	1.012916	-0.867696	0.521788
C18	C	0.876805	-0.620185	0.480405
C19	C	0.785294	-0.613745	0.475425
C20	C	1.067342	-0.900862	0.456878
C21	C	1.057421	-1.014479	0.441851
C22	C	1.060506	-0.667145	0.758695
C23	C	1.047640	-0.680714	0.872304
C24	C	0.617744	-0.601965	0.466345
C25	C	0.564481	-0.668724	0.517906
C26	C	0.471250	-0.662169	0.512854
C27	C	0.710984	-0.608518	0.471396
C28	C	1.305430	-0.650480	0.503829
C29	C	1.396935	-0.656947	0.508830
C30	C	1.114168	-0.368710	0.527470
C31	C	1.124169	-0.255105	0.542545
C32	C	1.085630	-0.193500	0.484412
C33	C	1.095966	-0.076082	0.499992
C34	C	1.120829	-0.603513	0.226542
C35	C	1.133881	-0.589667	0.112980
C36	C	1.097405	-0.628183	0.933932
C37	C	1.084108	-0.642206	1.051353
H38	H	0.593327	-0.539894	0.418411
H39	H	1.164813	-0.220920	0.603853
H40	H	0.995185	-0.736063	0.906473
H41	H	1.016765	-0.048658	0.380549
O42	O	1.021571	-0.708385	1.091970
C43	C	1.033534	-0.808444	1.053439
H44	H	1.073714	-0.803604	0.977338
H45	H	0.970483	-0.849657	1.040565
H46	H	1.066075	-0.852983	1.111257
H47	H	1.044980	-0.227686	0.423112
H48	H	1.186331	-0.534301	1.078818
O49	O	1.144459	-0.035143	0.573058
C50	C	1.143971	0.072977	0.572361
H51	H	1.127207	0.098783	0.493914
H52	H	1.208403	0.108443	0.588019
H53	H	1.095911	0.099134	0.634584
H54	H	0.588899	-0.730799	0.565845
H55	H	1.149853	-0.572823	0.899764
