data_functionalizedCrystal
_audit_creation_method	'MofGen! by Chris Wilmer'
_symmetry_space_group_name_H-M	'P1'
_symmetry_Int_Tables_number	1
_symmetry_cell_setting	triclinic
loop_
_symmetry_equiv_pos_as_xyz
  x,y,z
_cell_length_a	27.440280
_cell_length_b	14.395555
_cell_length_c	14.395555
_cell_angle_alpha	90.002465
_cell_angle_beta	60.005723
_cell_angle_gamma	59.997368
loop_
_atom_site_label
_atom_site_type_symbol
_atom_site_fract_x
_atom_site_fract_y
_atom_site_fract_z
Zr1	Zr	0.533371	-0.121849	0.895041
O2	O	0.635040	-0.270185	0.746730
O3	O	0.431708	-0.076377	0.940489
O4	O	0.533374	-0.270177	0.940507
O5	O	0.533370	0.076489	0.746718
O6	O	0.533370	-0.270169	1.093381
O7	O	0.533374	-0.076385	0.746712
O8	O	0.351508	0.076503	1.093349
O9	O	0.715232	-0.270183	0.746750
O10	O	0.473519	-0.056976	1.073981
O11	O	0.473519	0.057106	0.959897
O12	O	0.593218	-0.171068	0.959918
O13	O	0.593218	-0.056986	0.845834
Zr14	Zr	0.533360	0.121981	1.138866
Zr15	Zr	0.533366	-0.121836	1.138858
Zr16	Zr	0.533366	0.121968	0.895050
Zr17	Zr	0.661269	-0.121846	0.895072
Zr18	Zr	0.405462	0.121978	1.138835
O19	O	0.635024	0.076509	1.093418
O20	O	0.635032	-0.270166	1.093406
O21	O	0.635032	0.076491	0.746743
O22	O	0.431691	0.270317	1.287177
O23	O	0.431699	-0.076359	1.287165
O24	O	0.431699	0.270298	0.940501
O25	O	0.533361	-0.076357	1.287190
O26	O	0.533357	0.270309	1.093400
O27	O	0.533361	0.270301	0.940526
O28	O	0.533357	0.076517	1.287195
O29	O	0.715228	-0.270173	0.940552
O30	O	0.351503	0.270305	1.093355
O31	O	0.351499	0.270315	1.287157
O32	O	0.351503	0.076513	1.287150
O33	O	0.715228	-0.076381	0.746757
O34	O	0.715223	-0.076371	0.940559
O35	O	0.473514	0.171200	1.073989
O36	O	0.473514	0.057118	1.188073
O37	O	0.593212	-0.056974	1.074010
O38	O	0.593212	0.057108	0.959926
C39	C	0.373385	0.000062	1.016914
C40	C	0.319089	0.000061	1.016901
C41	C	0.533373	0.000050	0.711976
C42	C	0.533375	0.000044	0.608470
C43	C	0.533358	0.305043	1.016964
C44	C	0.533356	0.408550	1.016968
C45	C	-0.017653	-0.059474	1.076536
C46	C	-0.068677	-0.059471	1.076546
O47	O	-0.095083	-0.110081	1.127227
N48	N	-0.094193	0.000077	1.016995
C49	C	-0.068687	0.059634	0.957438
O50	O	-0.095077	0.110285	0.906786
C51	C	-0.017668	0.059637	0.957435
C52	C	0.007851	0.000077	1.016981
C53	C	0.007865	-0.119029	1.136078
C54	C	0.058886	-0.119033	1.136066
C55	C	0.084390	-0.059483	1.076511
C56	C	0.058872	0.000072	1.016969
C57	C	0.007833	0.119201	0.897886
C58	C	0.058856	0.119199	0.897889
C59	C	0.084374	0.059639	0.957435
C60	C	0.135396	0.059618	0.957402
N61	N	0.160913	0.000070	1.016954
C62	C	0.135409	-0.059480	1.076508
C63	C	-0.175833	0.059625	0.957450
C64	C	-0.226848	0.059617	0.957446
C65	C	-0.226834	-0.059487	1.076557
C66	C	-0.175815	-0.059484	1.076554
C67	C	-0.150316	0.000078	1.017002
C68	C	0.242558	-0.059486	1.076477
C69	C	0.293586	-0.059489	1.076456
C70	C	0.293566	0.059619	0.957351
C71	C	0.242545	0.059618	0.957367
C72	C	0.217041	0.000063	1.016939
O73	O	0.161833	0.110206	0.906751
O74	O	0.161798	-0.110110	1.127164
C75	C	0.693346	0.000070	1.016993
C76	C	0.747642	0.000071	1.017006
C77	C	0.533373	-0.304911	1.016943
C78	C	0.533375	-0.408418	1.016939
C79	C	0.468091	0.531347	1.079155
C80	C	0.500715	0.562178	1.124245
C81	C	0.500734	0.562142	0.971901
C82	C	0.565981	0.438017	1.062121
C83	C	0.565990	0.437985	0.909717
C84	C	0.598662	0.468743	0.954780
C85	C	0.598640	-0.062154	0.485689
C86	C	0.566016	-0.107231	0.454844
C87	C	0.565997	0.045113	0.454892
C88	C	0.500751	-0.045096	0.578988
C89	C	0.500741	0.107308	0.579033
C90	C	0.468069	0.062257	0.548261
C91	C	0.533358	0.000082	1.321931
C92	C	0.533356	0.000088	1.425437
C93	C	0.373378	0.000079	1.321892
C94	C	0.319080	0.000083	1.425385
C95	C	0.373378	0.305040	1.016925
C96	C	0.319080	0.408545	1.016915
C97	C	0.373371	0.305056	1.321902
C98	C	0.319070	0.408567	1.425399
C99	C	0.693361	-0.304924	0.712005
C100	C	0.747661	-0.408435	0.608508
C101	C	0.693353	0.000053	0.712016
C102	C	0.747652	0.000049	0.608522
C103	C	0.693353	-0.304908	1.016982
C104	C	0.747652	-0.408413	1.016992
C105	C	0.293583	-0.059481	1.414431
C106	C	0.242571	-0.059500	1.511665
C107	C	0.217053	0.000053	1.619851
C108	C	0.242554	0.059619	1.630802
C109	C	0.293569	0.059630	1.533570
C110	C	0.293578	0.516719	1.076466
C111	C	0.242566	0.613982	1.076452
C112	C	0.217053	0.603070	1.016894
C113	C	0.242560	0.494885	0.957337
C114	C	0.293575	0.397624	0.957344
C115	C	0.293570	0.397627	1.533563
C116	C	0.242555	0.494877	1.630819
C117	C	0.217039	0.603066	1.619908
C118	C	0.242544	0.614004	1.511732
C119	C	0.293561	0.516755	1.414479
C120	C	0.773168	-0.397495	0.500344
C121	C	0.824198	-0.494745	0.403088
C122	C	0.849717	-0.602934	0.414000
C123	C	0.824209	-0.613871	0.522175
C124	C	0.773183	-0.516622	0.619428
C125	C	0.773153	0.059603	0.619476
C126	C	0.824179	0.059595	0.522242
C127	C	0.849700	0.000039	0.414057
C128	C	0.824196	-0.059523	0.403105
C129	C	0.773174	-0.059520	0.500338
C130	C	0.773148	-0.397464	1.076561
C131	C	0.824160	-0.494709	1.076593
C132	C	0.849679	-0.602902	1.017047
C133	C	0.824177	-0.613848	0.957476
C134	C	0.773163	-0.516604	0.957452
H135	H	0.314363	-0.107994	1.124945
C136	C	0.745111	-0.278496	0.488314
N137	N	0.723985	-0.188868	0.479243
H138	H	0.175514	0.682275	1.016897
H139	H	0.844936	0.108101	0.531181
H140	H	0.593601	-0.197925	0.401330
H141	H	0.891265	-0.682111	0.334801
C142	C	0.852266	-0.125012	0.284090
N143	N	0.873404	-0.174327	0.194444
H144	H	0.752412	-0.108013	0.491403
C145	C	0.321636	0.528750	1.141981
N146	N	0.342770	0.537822	1.191325
H147	H	0.752416	-0.525544	0.707498
C148	C	0.321648	-0.125006	1.295435
N149	N	0.342786	-0.174370	1.205810
H150	H	0.473180	0.197983	0.632544
H151	H	0.221798	-0.107979	1.124988
H152	H	0.653828	-0.114833	0.460257
C153	C	0.214511	0.732974	1.141986
N154	N	0.193380	0.822597	1.191349
H155	H	0.752379	-0.309377	1.125050
C156	C	0.745131	-0.528668	0.891899
N157	N	0.724022	-0.537762	0.842518
C158	C	0.321632	0.278628	1.545593
N159	N	0.342769	0.189000	1.554664
H160	H	0.844918	-0.485774	1.125101
H161	H	0.412836	0.114862	0.573907
H162	H	0.221814	-0.108006	1.502726
H163	H	0.891219	-0.682075	1.017076
H164	H	0.175513	0.000035	1.699014
H165	H	0.314331	0.309548	0.908855
H166	H	0.221794	0.485951	1.718891
C167	C	0.214485	0.482900	0.891833
N168	N	0.193334	0.473877	0.842503
C169	C	0.160913	0.710032	1.726901
N170	N	0.118637	0.790596	1.807492
C171	C	0.214463	0.733023	1.499749
N172	N	0.193306	0.822671	1.490726
H173	H	0.844993	-0.701970	0.531046
H174	H	0.473188	-0.083298	0.632339
C175	C	0.852231	-0.732871	0.892027
N176	N	0.873356	-0.822522	0.842744
H177	H	0.752379	0.108109	0.707558
H178	H	0.844958	-0.485817	0.315017
H179	H	-0.012897	-0.167520	1.184580
C180	C	0.086943	-0.184542	1.201586
N181	N	0.108070	-0.233882	1.250944
C182	C	0.905822	0.000054	0.307108
N183	N	0.948092	0.000073	0.226559
C184	C	0.603221	0.365686	0.787228
N185	N	0.631257	0.311232	0.694968
C186	C	0.214472	0.125132	1.749818
N187	N	0.193314	0.174484	1.839463
H188	H	0.314317	0.525678	1.326410
H189	H	0.079615	0.167701	0.849392
H190	H	-0.247609	-0.107974	1.125051
C191	C	-0.254925	0.125163	0.891965
N192	N	-0.276081	0.174553	0.842661
H193	H	0.314321	0.108141	1.542504
C194	C	-0.020272	0.184811	0.832466
N195	N	-0.041456	0.234265	0.783220
H196	H	-0.155070	0.108122	0.908944
C197	C	0.321626	0.125126	0.891849
N198	N	0.342759	0.174476	0.842521
H199	H	-0.155041	-0.107983	1.125042
H200	H	0.221775	0.108102	0.908864
C201	C	0.463449	0.634480	1.246761
N202	N	0.435376	0.688940	1.339040
H203	H	0.412903	0.556790	1.131819
H204	H	0.653895	0.443084	0.902191
C205	C	0.603211	0.365935	1.113747
N206	N	0.631249	0.311644	1.152636
C207	C	0.463457	0.634422	0.920419
N208	N	0.435376	0.688863	0.881651
H209	H	0.593592	0.083212	0.401394
