data_functionalizedCrystal
_audit_creation_method	'MofGen! by Chris Wilmer'
_symmetry_space_group_name_H-M	'P1'
_symmetry_Int_Tables_number	1
_symmetry_cell_setting	triclinic
loop_
_symmetry_equiv_pos_as_xyz
  x,y,z
_cell_length_a	8.497374
_cell_length_b	8.497374
_cell_length_c	16.120530
_cell_angle_alpha	92.900151
_cell_angle_beta	92.902542
_cell_angle_gamma	90.004389
loop_
_atom_site_label
_atom_site_type_symbol
_atom_site_fract_x
_atom_site_fract_y
_atom_site_fract_z
Zn1	Zn	0.750812	1.014365	1.274554
Zn2	Zn	1.014560	0.750630	1.274547
Zn3	Zn	0.737393	0.737223	1.135175
Zn4	Zn	1.001146	1.000991	1.135156
O5	O	0.875978	0.875802	1.204858
O6	O	0.797028	0.990588	1.391220
O7	O	0.977792	0.528090	1.256064
O8	O	0.518412	0.773972	1.153675
O9	O	0.990803	0.796823	1.391214
O10	O	0.528270	0.977588	1.256076
O11	O	0.774159	0.518239	1.153668
O12	O	0.761151	0.761004	1.018506
O13	O	0.967940	1.223527	1.153642
O14	O	0.954929	0.954793	1.018492
O15	O	0.784021	1.233353	1.256058
O16	O	1.233542	0.783855	1.256045
O17	O	1.223687	0.967794	1.153635
C18	C	0.855130	0.854993	0.988248
C19	C	0.846249	0.846128	0.895582
C20	C	1.285857	0.875824	1.204847
C21	C	1.464503	0.875800	1.204870
C22	C	0.876004	1.465923	1.204863
C23	C	0.875995	1.287278	1.204854
C24	C	0.829998	0.829957	0.725919
C25	C	0.922074	0.921762	0.684637
C26	C	0.913032	0.912764	0.590231
C27	C	0.839038	0.838953	0.820334
C28	C	0.896909	0.896693	1.422313
C29	C	0.905828	0.905596	1.514980
H30	H	1.007692	1.007118	0.720195
H31	H	0.744385	0.744610	0.690363
