data_functionalizedCrystal
_audit_creation_method	'MofGen! by Chris Wilmer'
_symmetry_space_group_name_H-M	'P1'
_symmetry_Int_Tables_number	1
_symmetry_cell_setting	triclinic
loop_
_symmetry_equiv_pos_as_xyz
  x,y,z
_cell_length_a	16.959455
_cell_length_b	16.959454
_cell_length_c	12.759393
_cell_angle_alpha	89.970360
_cell_angle_beta	89.975981
_cell_angle_gamma	90.019023
loop_
_atom_site_label
_atom_site_type_symbol
_atom_site_fract_x
_atom_site_fract_y
_atom_site_fract_z
Zn1	Zn	1.208441	-0.314665	-0.594113
Zn2	Zn	1.208346	-0.446865	-0.418435
Zn3	Zn	1.076252	-0.314702	-0.418438
Zn4	Zn	1.076234	-0.446803	-0.594063
O5	O	1.142318	-0.380759	-0.506262
O6	O	1.319039	-0.332212	-0.570828
O7	O	1.190792	-0.429374	-0.271415
O8	O	1.093835	-0.204086	-0.441764
O9	O	1.318970	-0.429339	-0.441759
O10	O	1.190953	-0.204059	-0.570831
O11	O	1.093743	-0.332274	-0.271417
O12	O	0.965639	-0.332215	-0.441716
O13	O	1.093803	-0.429234	-0.741091
O14	O	0.965625	-0.429269	-0.570747
O15	O	1.190935	-0.332153	-0.741127
O16	O	1.190774	-0.557467	-0.441711
O17	O	1.093712	-0.557422	-0.570744
C18	C	0.936952	-0.380740	-0.506227
C19	C	0.849095	-0.380751	-0.506237
C20	C	0.807805	-0.330147	-0.439164
C21	C	0.807832	-0.431361	-0.573325
C22	C	0.725286	-0.431370	-0.573340
C23	C	0.683996	-0.380766	-0.506268
C24	C	0.725252	-0.330153	-0.439179
C25	C	0.684025	-0.481976	-0.640435
C26	C	0.601474	-0.481987	-0.640454
C27	C	0.560182	-0.431386	-0.573375
C28	C	0.601443	-0.380772	-0.506283
C29	C	0.560152	-0.330168	-0.439210
C30	C	0.601411	-0.279556	-0.372113
C31	C	0.683960	-0.279552	-0.372101
C32	C	0.477633	-0.431391	-0.573387
C33	C	0.477599	-0.330173	-0.439226
C34	C	1.142252	-0.586125	-0.506245
C35	C	1.142296	-0.673982	-0.506272
C36	C	1.091851	-1.045464	-0.573443
C37	C	1.193006	-1.045451	-0.439189
C38	C	1.192978	-0.962905	-0.439180
C39	C	1.142385	-0.921635	-0.506301
C40	C	1.091820	-0.962910	-0.573433
C41	C	1.243536	-0.921623	-0.372042
C42	C	1.243510	-0.839072	-0.372029
C43	C	1.192921	-0.797800	-0.439157
C44	C	1.142355	-0.839081	-0.506292
C45	C	1.091762	-0.797811	-0.573413
C46	C	1.041199	-0.839090	-0.640555
C47	C	1.041231	-0.921639	-0.640561
C48	C	1.192889	-0.715252	-0.439150
C49	C	1.091731	-0.715257	-0.573404
C50	C	1.348487	-0.380778	-0.506299
C51	C	1.436343	-0.380787	-0.506314
C52	C	1.142377	-0.380683	-0.780296
C53	C	1.142403	-0.380651	-0.897073
C54	C	1.142406	-0.174591	-0.506303
C55	C	1.142444	-0.086734	-0.506321
C56	C	1.192983	-0.330092	-0.951955
C57	C	1.192996	-0.330058	-1.061679
C58	C	1.091847	-0.431147	-1.061629
C59	C	1.091830	-0.431177	-0.951907
C60	C	1.142305	-0.380777	-0.233295
C61	C	1.142433	-0.380587	-0.116519
H62	H	1.050535	-0.681660	-0.628067
H63	H	1.284682	-0.805467	-0.317360
O64	O	0.556864	-0.224994	-0.299758
H65	H	0.519276	-0.184826	-0.346870
O66	O	1.037302	-0.485641	-1.120772
H67	H	1.072666	-0.525853	-1.170758
H68	H	1.234160	-0.288948	-0.907313
O69	O	1.247430	-0.670738	-0.366751
H70	H	1.287611	-0.633084	-0.413830
O71	O	0.986626	-0.794579	-0.712947
H72	H	1.021967	-0.756920	-0.766441
O73	O	1.247552	-0.275521	-1.120863
H74	H	1.212197	-0.235279	-1.170835
H75	H	1.050686	-1.079077	-0.628110
O76	O	0.728464	-0.224968	-0.299740
H77	H	0.685887	-0.189786	-0.253093
H78	H	1.050636	-0.472347	-0.907220
O79	O	0.852297	-0.275557	-0.366798
H80	H	0.916636	-0.284048	-0.378055
H81	H	0.717649	-0.523173	-0.695045
O82	O	0.433064	-0.275590	-0.366886
H83	H	0.475624	-0.240396	-0.320237
O84	O	0.852361	-0.485916	-0.645698
H85	H	0.916693	-0.477402	-0.634424
H86	H	1.000065	-0.955255	-0.695222
O87	O	0.556974	-0.536678	-0.712675
H88	H	0.599555	-0.571905	-0.759256
H89	H	1.234191	-1.079058	-0.384535
O90	O	0.433130	-0.486005	-0.645699
H91	H	0.475710	-0.521206	-0.692318
H92	H	1.284720	-0.955231	-0.317387
