data_functionalizedCrystal
_audit_creation_method	'MofGen! by Chris Wilmer'
_symmetry_space_group_name_H-M	'P1'
_symmetry_Int_Tables_number	1
_symmetry_cell_setting	triclinic
loop_
_symmetry_equiv_pos_as_xyz
  x,y,z
_cell_length_a	18.215407
_cell_length_b	18.050589
_cell_length_c	18.215399
_cell_angle_alpha	89.976397
_cell_angle_beta	89.982632
_cell_angle_gamma	90.025664
loop_
_atom_site_label
_atom_site_type_symbol
_atom_site_fract_x
_atom_site_fract_y
_atom_site_fract_z
Zn1	Zn	1.125055	-0.295718	-0.416090
Zn2	Zn	1.124956	-0.419913	-0.293033
Zn3	Zn	1.001987	-0.295736	-0.293042
Zn4	Zn	1.001946	-0.419865	-0.416063
O5	O	1.063486	-0.357808	-0.354557
O6	O	1.228026	-0.312205	-0.399773
O7	O	1.108620	-0.403468	-0.190050
O8	O	1.018371	-0.191809	-0.309380
O9	O	1.227953	-0.403451	-0.309364
O10	O	1.108788	-0.191796	-0.399782
O11	O	1.018275	-0.312235	-0.190057
O12	O	0.898998	-0.312189	-0.309354
O13	O	1.018301	-0.403369	-0.519051
O14	O	0.898967	-0.403386	-0.399737
O15	O	1.108748	-0.312159	-0.519070
O16	O	1.108580	-0.523831	-0.309338
O17	O	1.018205	-0.523796	-0.399727
C18	C	0.872280	-0.357785	-0.354544
C19	C	0.790481	-0.357793	-0.354556
C20	C	0.602324	-0.310379	-0.401707
C21	C	0.525465	-0.310386	-0.401709
C22	C	0.525400	-0.405257	-0.307420
C23	C	0.602258	-0.405246	-0.307415
C24	C	0.640717	-0.357809	-0.354562
C25	C	0.487001	-0.357826	-0.354570
C26	C	0.403668	-0.357833	-0.354572
C27	C	0.724056	-0.357800	-0.354559
C28	C	1.063397	-0.550760	-0.354545
C29	C	1.063427	-0.633306	-0.354564
C30	C	1.014329	-0.832764	-0.403701
C31	C	0.996389	-0.882204	-0.336547
C32	C	1.063499	-0.784436	-0.354574
C33	C	1.081475	-0.882078	-0.421735
C34	C	1.063567	-0.930421	-0.354589
C35	C	1.045524	-0.832788	-0.287385
C36	C	1.130641	-0.832658	-0.372617
C37	C	1.112726	-0.882076	-0.305418
C38	C	1.063458	-0.700338	-0.354566
C39	C	1.063609	-1.014518	-0.354589
C40	C	1.255439	-0.357831	-0.354570
C41	C	1.337238	-0.357841	-0.354576
C42	C	1.063531	-0.357757	-0.546510
C43	C	1.063550	-0.357735	-0.628309
C44	C	1.063595	-0.164102	-0.354585
C45	C	1.063642	-0.081556	-0.354597
C46	C	1.110663	-0.310197	-0.816514
C47	C	1.110672	-0.310175	-0.893373
C48	C	1.016489	-0.405158	-0.893341
C49	C	1.016477	-0.405175	-0.816484
C50	C	1.063568	-0.357696	-0.778072
C51	C	1.063589	-0.357657	-0.931789
C52	C	1.063598	-0.357634	-1.015122
C53	C	1.063558	-0.357718	-0.694733
C54	C	1.063484	-0.357805	-0.163351
C55	C	1.063607	-0.357618	-0.081552
H56	H	0.494208	-0.271763	-0.440098
H57	H	0.633635	-0.271750	-0.440095
H58	H	0.494077	-0.443880	-0.269035
N59	N	0.641481	-0.453686	-0.259244
N60	N	0.632875	-0.448672	-0.191345
H61	H	0.660577	-0.482878	-0.157323
N62	N	1.026401	-0.805753	-0.216117
N63	N	1.065145	-0.822059	-0.161843
H64	H	1.051637	-0.802963	-0.111512
H65	H	1.149020	-0.271496	-0.924669
H66	H	0.972687	-0.811111	-0.445187
N67	N	1.164934	-0.909063	-0.253254
N68	N	1.201706	-0.864478	-0.215783
H69	H	1.238576	-0.883538	-0.178941
H70	H	1.096652	-0.903729	-0.478526
H71	H	0.939642	-0.903983	-0.321300
N72	N	1.201814	-0.805345	-0.391791
N73	N	1.229190	-0.821084	-0.452751
H74	H	1.279458	-0.801793	-0.466301
H75	H	1.149006	-0.271534	-0.785242
H76	H	0.978151	-0.443815	-0.924625
N77	N	0.968358	-0.453696	-0.777223
N78	N	0.926320	-0.496086	-0.811525
H79	H	0.892335	-0.530351	-0.783798
