data_functionalizedCrystal
_audit_creation_method	'MofGen! by Chris Wilmer'
_symmetry_space_group_name_H-M	'P1'
_symmetry_Int_Tables_number	1
_symmetry_cell_setting	triclinic
loop_
_symmetry_equiv_pos_as_xyz
  x,y,z
_cell_length_a	16.992701
_cell_length_b	14.853567
_cell_length_c	16.053802
_cell_angle_alpha	92.572962
_cell_angle_beta	87.243340
_cell_angle_gamma	87.151050
loop_
_atom_site_label
_atom_site_type_symbol
_atom_site_fract_x
_atom_site_fract_y
_atom_site_fract_z
O1	O	1.043903	0.187610	-0.069424
O2	O	0.815616	0.185515	-0.069424
O3	O	0.935858	0.055763	-0.069427
O4	O	0.923662	0.317362	-0.069422
O5	O	0.929239	0.062873	0.069432
O6	O	0.808997	0.192625	0.069435
O7	O	1.037285	0.194720	0.069435
Zn8	Zn	0.922090	0.194802	0.091482
Zn9	Zn	0.930810	0.185433	-0.091471
O10	O	0.917043	0.324472	0.069437
C11	C	0.783091	0.186372	0.000005
C12	C	0.696038	0.178323	0.000004
C13	C	0.207020	0.124237	0.000000
C14	C	0.288814	0.131808	0.000006
C15	C	0.320450	0.217054	0.000003
C16	C	0.270287	0.294735	0.000005
C17	C	0.188494	0.287163	0.000005
C18	C	0.564082	0.248432	0.000006
C19	C	0.645881	0.255998	0.000003
C20	C	0.664403	0.093070	0.000006
C21	C	0.582608	0.085506	0.000001
C22	C	0.532451	0.163187	0.000007
N23	N	0.404057	0.224794	0.000006
N24	N	0.448845	0.155446	0.000010
C25	C	0.931996	0.025690	0.000000
C26	C	0.930340	-0.074511	-0.000007
C27	C	0.851913	-0.492580	0.000009
C28	C	0.994763	-0.503777	0.000009
C29	C	0.996320	-0.409633	0.000004
C30	C	0.925673	-0.356959	0.000003
C31	C	0.853468	-0.398428	0.000007
C32	C	1.068524	-0.368156	0.000009
C33	C	1.070084	-0.274008	0.000005
C34	C	0.999436	-0.221332	-0.000002
C35	C	0.927228	-0.262806	0.000001
C36	C	0.856581	-0.210132	-0.000001
C37	C	0.784372	-0.251605	-0.000004
C38	C	0.782820	-0.345752	-0.000001
C39	C	1.000988	-0.127185	-0.000006
C40	C	0.858136	-0.115980	-0.000003
C41	C	1.069810	0.193863	0.000004
C42	C	1.156863	0.201912	-0.000001
C43	C	0.920905	0.354545	0.000008
C44	C	0.922561	0.454745	0.000010
N45	N	0.916145	0.201195	0.216342
N46	N	0.936762	0.179033	-0.216331
C47	C	0.967327	0.146008	0.260035
C48	C	0.963175	0.150489	0.347442
C49	C	0.907845	0.210163	0.391154
C50	C	0.856657	0.265353	0.347455
C51	C	0.860806	0.260866	0.260050
C52	C	0.889723	0.229736	0.652564
C53	C	0.885580	0.234220	0.739976
C54	C	0.992097	0.119355	0.739956
C55	C	0.996244	0.114878	0.652549
C56	C	0.945054	0.170064	0.608858
N57	N	0.903601	0.214748	0.480498
N58	N	0.949294	0.165474	0.519516
H59	H	0.705249	0.029827	0.000002
C60	C	1.146230	-0.426103	0.000016
N61	N	1.204761	-0.469753	0.000021
C62	C	1.080412	-0.081568	-0.000002
N63	N	1.140238	-0.047211	-0.000001
C64	C	1.019461	0.089756	0.395500
N65	N	1.061850	0.043999	0.431697
C66	C	0.706663	-0.193652	-0.000005
N67	N	0.648134	-0.149997	-0.000008
C68	C	0.703398	-0.391379	0.000013
N69	N	0.643577	-0.425749	0.000031
C70	C	0.547814	-0.008270	0.000021
N71	N	0.521607	-0.078904	0.000040
H72	H	0.811602	0.313938	0.383051
H73	H	1.052281	-0.546669	0.000017
C74	C	0.343984	0.046358	0.000006
N75	N	0.385538	-0.018006	0.000008
H76	H	0.671635	0.325419	0.000013
H77	H	0.147656	0.350415	0.000007
C78	C	0.772488	-0.538201	0.000013
N79	N	0.712663	-0.572563	0.000020
C80	C	1.057108	0.049227	0.604472
N81	N	1.102951	-0.000222	0.568261
H82	H	0.523254	0.311686	0.000007
C83	C	1.048396	0.058647	0.788024
N84	N	1.090800	0.012916	0.824229
H85	H	0.840521	0.282818	0.775562
C86	C	0.305089	0.388507	0.000005
N87	N	0.331302	0.459138	0.000002
C88	C	1.149513	-0.228396	0.000002
N89	N	1.209341	-0.194041	-0.000003
C90	C	1.028194	0.080361	0.211960
N91	N	1.074039	0.030910	0.175752
C92	C	0.833514	0.290567	0.604515
N93	N	0.791211	0.336433	0.568321
H94	H	0.181269	0.054820	-0.000003
H95	H	0.800605	-0.073098	-0.000008
C96	C	0.804508	0.321584	0.211988
N97	N	0.762103	0.367320	0.175789
