data_functionalizedCrystal
_audit_creation_method	'MofGen! by Chris Wilmer'
_symmetry_space_group_name_H-M	'P1'
_symmetry_Int_Tables_number	1
_symmetry_cell_setting	triclinic
loop_
_symmetry_equiv_pos_as_xyz
  x,y,z
_cell_length_a	6.394989
_cell_length_b	10.654550
_cell_length_c	9.730223
_cell_angle_alpha	90.000043
_cell_angle_beta	90.001437
_cell_angle_gamma	85.491321
loop_
_atom_site_label
_atom_site_type_symbol
_atom_site_fract_x
_atom_site_fract_y
_atom_site_fract_z
O1	O	-0.293441	-1.670947	-0.114177
O2	O	-0.321399	-1.305765	-0.114202
O3	O	-0.003431	-1.493539	-0.114190
O4	O	-0.611409	-1.483172	-0.114189
O5	O	-0.003422	-1.493527	0.114390
O6	O	-0.321390	-1.305752	0.114378
O7	O	-0.293433	-1.670934	0.114403
Zn8	Zn	-0.307410	-1.488341	0.150682
Zn9	Zn	-0.307421	-1.488358	-0.150482
O10	O	-0.611400	-1.483160	0.114391
C11	C	-0.319341	-1.258939	0.000085
C12	C	-0.313200	-1.119430	0.000075
C13	C	-0.295490	-1.717760	0.000113
C14	C	-0.301631	-1.857269	0.000113
N15	N	-0.307401	-1.488339	0.356219
C16	C	0.074425	-1.491483	0.000094
C17	C	0.310750	-1.485219	0.000093
N18	N	-0.307414	-1.488369	-0.356018
C19	C	-0.500414	-1.041927	0.000080
C20	C	-0.494631	-0.910845	0.000104
C21	C	-0.114403	-0.934782	0.000113
C22	C	-0.120188	-1.065861	0.000099
C23	C	-0.166665	-1.571516	0.428150
C24	C	-0.166665	-1.571528	0.572033
C25	C	-0.448157	-1.405184	0.572041
C26	C	-0.448144	-1.405166	0.428161
H27	H	-0.657577	-1.085539	0.000071
O28	O	-0.584663	-1.324224	0.641870
C29	C	-0.703776	-1.107758	0.685865
C30	C	-0.549028	-1.199303	0.606725
H31	H	-0.675048	-1.006741	0.657458
H32	H	-0.679611	-1.121951	0.801072
H33	H	-0.871352	-1.126823	0.657581
H34	H	-0.381391	-1.180294	0.634894
H35	H	-0.573376	-1.185090	0.491537
O36	O	0.073026	-0.882680	-0.000120
C37	C	0.300165	-0.748509	-0.118487
C38	C	0.087849	-0.807450	-0.118405
H39	H	0.312200	-0.687651	-0.214095
H40	H	0.433068	-0.826369	-0.118579
H41	H	0.312348	-0.687798	-0.022779
H42	H	0.075461	-0.868150	-0.214096
H43	H	-0.044951	-0.729528	-0.118241
O44	O	0.061626	-1.141210	0.000334
C45	C	0.275687	-1.303165	0.118700
C46	C	0.069742	-1.217887	0.118616
H47	H	0.282296	-1.365199	0.214306
H48	H	0.414713	-1.242427	0.118796
H49	H	0.282449	-1.365067	0.022990
H50	H	0.062775	-1.155971	0.214309
H51	H	-0.069187	-1.278699	0.118449
H52	H	-0.647080	-0.847747	0.000110
H53	H	-0.052060	-1.639238	0.369578
H54	H	-0.052063	-1.639256	0.630595
H55	H	-0.562749	-1.337428	0.369590
