data_functionalizedCrystal
_audit_creation_method	'MofGen! by Chris Wilmer'
_symmetry_space_group_name_H-M	'P1'
_symmetry_Int_Tables_number	1
_symmetry_cell_setting	triclinic
loop_
_symmetry_equiv_pos_as_xyz
  x,y,z
_cell_length_a	19.288864
_cell_length_b	10.654550
_cell_length_c	17.766277
_cell_angle_alpha	89.994852
_cell_angle_beta	89.976791
_cell_angle_gamma	83.810575
loop_
_atom_site_label
_atom_site_type_symbol
_atom_site_fract_x
_atom_site_fract_y
_atom_site_fract_z
O1	O	0.922379	0.156657	-0.062834
O2	O	1.422379	0.656657	0.437166
O3	O	0.720257	0.177789	-0.062782
O4	O	1.220257	0.677789	0.437218
O5	O	0.825965	-0.015616	-0.062807
O6	O	1.325965	0.484384	0.437193
O7	O	0.816670	0.350062	-0.062810
O8	O	1.316670	0.850062	0.437190
O9	O	0.825946	-0.015625	0.062382
O10	O	1.325946	0.484375	0.562382
O11	O	0.720238	0.177780	0.062406
O12	O	1.220238	0.677780	0.562406
O13	O	0.922360	0.156647	0.062355
O14	O	1.422360	0.656647	0.562355
Cu15	Cu	0.821297	0.167212	0.073811
Cu16	Cu	1.321297	0.667212	0.573811
Cu17	Cu	0.821319	0.167224	-0.074239
Cu18	Cu	1.321319	0.667224	0.425761
O19	O	0.816652	0.350052	0.062379
O20	O	1.316652	0.850052	0.562379
C21	C	0.694366	0.177105	-0.000181
C22	C	1.194366	0.677105	0.499819
C23	C	0.617249	0.175063	-0.000162
C24	C	1.117249	0.675063	0.499838
C25	C	0.573296	0.288545	-0.000175
C26	C	1.073296	0.788545	0.499825
C27	C	0.500836	0.286627	-0.000183
C28	C	1.000836	0.786627	0.499817
C29	C	0.472333	0.171222	-0.000193
C30	C	0.972333	0.671222	0.499807
C31	C	0.516296	0.057725	-0.000176
C32	C	1.016296	0.557725	0.499824
C33	C	0.588754	0.059646	-0.000160
C34	C	1.088754	0.559646	0.499840
C35	C	0.363484	0.080503	-0.044077
C36	C	0.863484	0.580503	0.455923
C37	C	0.291027	0.078587	-0.044098
C38	C	0.791027	0.578587	0.455902
C39	C	0.248849	0.165292	-0.000239
C40	C	0.748849	0.665292	0.499761
C41	C	0.279135	0.253934	0.043630
C42	C	0.779135	0.753934	0.543630
C43	C	0.351593	0.255855	0.043646
C44	C	0.851593	0.755855	0.543646
C45	C	0.393766	0.169126	-0.000210
C46	C	0.893766	0.669126	0.499790
C47	C	0.126326	0.276702	-0.000260
C48	C	0.626326	0.776702	0.499740
C49	C	0.053865	0.274779	-0.000263
C50	C	0.553865	0.774779	0.499737
C51	C	0.069327	0.045875	-0.000264
C52	C	0.569327	0.545875	0.499736
C53	C	0.141786	0.047800	-0.000253
C54	C	0.641786	0.547800	0.499747
C55	C	0.170281	0.163217	-0.000254
C56	C	0.670281	0.663217	0.499746
C57	C	0.825273	-0.062404	-0.000213
C58	C	1.325273	0.437596	0.499787
C59	C	0.823231	-0.201803	-0.000215
C60	C	1.323231	0.298197	0.499785
C61	C	0.885471	-0.282621	-0.000229
C62	C	1.385471	0.217379	0.499771
C63	C	0.883548	-0.413601	-0.000234
C64	C	1.383548	0.086399	0.499766
C65	C	0.757141	-0.382932	-0.000208
C66	C	1.257141	0.117068	0.499792
C67	C	0.759065	-0.251955	-0.000208
C68	C	1.259065	0.248045	0.499792
C69	C	0.958451	-0.300329	-0.000240
C70	C	1.458451	0.199671	0.499760
C71	C	0.956528	-0.431309	-0.000245
C72	C	1.456528	0.068691	0.499755
C73	C	0.948250	0.157332	-0.000248
C74	C	1.448250	0.657332	0.499752
C75	C	1.025367	0.159373	-0.000273
C76	C	1.525367	0.659373	0.499727
C77	C	0.817344	0.396840	-0.000216
C78	C	1.317344	0.896840	0.499784
C79	C	0.819385	0.536240	-0.000219
C80	C	1.319385	1.036240	0.499781
N81	N	0.821287	0.167203	0.177941
N82	N	1.321287	0.667203	0.677941
N83	N	0.821335	0.167223	-0.178369
N84	N	1.321335	0.667223	0.321631
C85	C	0.868110	0.081606	0.217318
C86	C	1.368110	0.581606	0.717318
C87	C	0.868114	0.081600	0.296119
C88	C	1.368114	0.581600	0.796119
C89	C	0.821301	0.167213	0.335542
C90	C	1.321301	0.667213	0.835542
C91	C	0.774469	0.252818	0.296156
C92	C	1.274469	0.752818	0.796156
C93	C	0.774462	0.252813	0.217356
C94	C	1.274462	0.752813	0.717356
C95	C	0.812752	0.281634	0.460380
C96	C	1.312752	0.781634	0.960380
C97	C	0.812764	0.281641	0.539179
C98	C	1.312764	0.781641	1.039179
C99	C	0.821320	0.167229	0.578588
C100	C	1.321320	0.667229	1.078588
C101	C	0.829879	0.052804	0.539189
C102	C	1.329879	0.552804	1.039189
C103	C	0.829871	0.052799	0.460389
C104	C	1.329871	0.552799	0.960389
C105	C	0.821304	0.167228	0.420988
C106	C	1.321304	0.667228	0.920988
C107	C	0.868150	0.081617	0.703410
C108	C	1.368150	0.581617	1.203410
C109	C	0.868149	0.081610	0.782214
C110	C	1.368149	0.581610	1.282214
C111	C	0.774508	0.252839	0.782249
C112	C	1.274508	0.752839	1.282249
C113	C	0.774506	0.252835	0.703447
C114	C	1.274506	0.752835	1.203447
C115	C	0.821330	0.167226	0.664033
C116	C	1.321330	0.667226	1.164033
H117	H	0.376250	0.328027	0.079369
H118	H	0.876250	0.828027	0.579369
H119	H	0.177574	-0.044609	-0.000247
H120	H	0.677574	0.455391	0.499753
N121	N	0.723974	0.345153	0.338671
N122	N	1.223974	0.845153	0.838671
H123	H	0.731084	0.332170	0.394566
H124	H	1.231084	0.832170	0.894566
H125	H	0.732419	0.434205	0.324884
H126	H	1.232419	0.934205	0.824884
N127	N	0.691936	-0.164784	-0.000207
N128	N	1.191936	0.335216	0.499793
H129	H	0.650997	-0.216433	-0.000202
H130	H	1.150997	0.283567	0.499798
H131	H	0.689967	-0.109775	0.046201
H132	H	1.189967	0.390225	0.546201
N133	N	0.687936	-0.437024	-0.000202
N134	N	1.187936	0.062976	0.499798
H135	H	0.696160	-0.532262	-0.000205
H136	H	1.196160	-0.032262	0.499795
H137	H	0.660663	-0.407443	0.046214
H138	H	1.160663	0.092557	0.546214
H139	H	0.978592	-0.477420	-0.054304
H140	H	1.478592	0.022580	0.445696
H141	H	0.906235	0.011895	0.185229
H142	H	1.406235	0.511895	0.685229
N143	N	0.992938	-0.487425	0.069138
N144	N	1.492938	0.012575	0.569138
H145	H	1.010568	-0.417993	0.100107
H146	H	1.510568	0.082007	0.600107
H147	H	0.959059	-0.531930	0.100052
H148	H	1.459059	-0.031930	0.600052
H149	H	0.836845	-0.040361	0.571274
H150	H	1.336845	0.459639	1.071274
H151	H	0.736390	0.322542	0.814346
H152	H	1.236390	0.822542	1.314346
H153	H	0.736380	0.322542	0.671385
H154	H	1.236380	0.822542	1.171385
N155	N	0.233655	0.347468	0.090935
N156	N	0.733655	0.847468	0.590935
H157	H	0.183157	0.332801	0.084273
H158	H	0.683157	0.832801	0.584273
H159	H	0.247085	0.336062	0.145644
H160	H	0.747085	0.836062	0.645644
H161	H	0.987004	-0.271578	-0.052635
H162	H	1.487004	0.228422	0.447365
H163	H	0.981682	-0.265204	0.053808
H164	H	1.481682	0.234796	0.553808
H165	H	0.624542	-0.032767	-0.000150
H166	H	1.124542	0.467233	0.499850
N167	N	0.006476	0.397208	-0.000232
N168	N	0.506476	0.897208	0.499768
H169	H	0.015724	0.447611	-0.046628
H170	H	0.515724	0.947611	0.453372
H171	H	-0.043738	0.378419	-0.000196
H172	H	0.456262	0.878419	0.499804
H173	H	0.736332	0.322518	0.185295
H174	H	1.236332	0.822518	0.685295
H175	H	0.493084	-0.036239	-0.000195
H176	H	0.993084	0.463761	0.499805
H177	H	0.149528	0.370681	-0.000250
H178	H	0.649528	0.870681	0.499750
H179	H	0.906244	0.011893	0.328185
H180	H	1.406244	0.511893	0.828185
N181	N	0.839099	-0.070603	0.417892
N182	N	1.339099	0.429397	0.917892
H183	H	0.844522	-0.143087	0.454809
H184	H	1.344522	0.356913	0.954809
H185	H	0.796867	-0.077739	0.385222
H186	H	1.296867	0.422261	0.885222
N187	N	0.918648	-0.010716	0.660892
N188	N	1.418648	0.489284	1.160892
H189	H	0.948309	-0.064952	0.697797
H190	H	1.448309	0.435048	1.197797
H191	H	0.891791	-0.066110	0.628213
H192	H	1.391791	0.433890	1.128213
N193	N	0.038595	-0.078602	-0.000267
N194	N	0.538595	0.421398	0.499733
H195	H	-0.013977	-0.062601	-0.000277
H196	H	0.486023	0.437399	0.499723
H197	H	0.054660	-0.128243	-0.046673
H198	H	0.554660	0.371757	0.453327
H199	H	0.805772	0.374809	0.428300
H200	H	1.305772	0.874809	0.928300
H201	H	0.465043	0.379040	-0.000191
H202	H	0.965043	0.879040	0.499809
N203	N	0.803529	0.405047	0.581671
N204	N	1.303529	0.905047	1.081671
H205	H	0.798096	0.477526	0.544751
H206	H	1.298096	0.977526	1.044751
H207	H	0.760558	0.407856	0.614387
H208	H	1.260558	0.907856	1.114387
N209	N	0.604030	0.413024	-0.000181
N210	N	1.104030	0.913024	0.499819
H211	H	0.565186	0.484624	-0.000193
H212	H	1.065186	0.984624	0.499807
H213	H	0.633732	0.418817	0.046232
H214	H	1.133732	0.918817	0.546232
H215	H	0.266373	0.006415	-0.079822
H216	H	0.766373	0.506415	0.420178
N217	N	0.918665	-0.010697	0.824688
N218	N	1.418665	0.489303	1.324688
H219	H	0.948331	-0.064916	0.787759
H220	H	1.448331	0.435084	1.287759
H221	H	0.949592	0.037276	0.857355
H222	H	1.449592	0.537276	1.357355
H223	H	0.397820	0.009895	-0.079796
H224	H	0.897820	0.509895	0.420204
