data_functionalizedCrystal
_audit_creation_method	'MofGen! by Chris Wilmer'
_symmetry_space_group_name_H-M	'P1'
_symmetry_Int_Tables_number	1
_symmetry_cell_setting	triclinic
loop_
_symmetry_equiv_pos_as_xyz
  x,y,z
_cell_length_a	35.277628
_cell_length_b	35.288095
_cell_length_c	35.277682
_cell_angle_alpha	59.997929
_cell_angle_beta	89.998958
_cell_angle_gamma	60.000166
loop_
_atom_site_label
_atom_site_type_symbol
_atom_site_fract_x
_atom_site_fract_y
_atom_site_fract_z
O1	O	-0.323087	-0.271234	0.011271
O2	O	-0.267964	-0.193634	-0.011228
O3	O	-0.267962	-0.271233	0.066395
O4	O	-0.323089	-0.193635	-0.066351
O5	O	-0.204915	-0.334261	0.066394
O6	O	-0.204918	-0.256661	-0.011228
O7	O	-0.260040	-0.334261	0.011271
Zn8	Zn	-0.222469	-0.305468	0.000022
Zn9	Zn	-0.305535	-0.222427	0.000022
O10	O	-0.260043	-0.256662	-0.066351
C11	C	-0.163481	-0.071298	-0.023519
C12	C	-0.186872	-0.024531	-0.020298
C13	C	-0.117860	-0.093995	-0.023838
C14	C	-0.163483	-0.139918	-0.023524
C15	C	-0.186875	-0.166518	-0.020308
C16	C	-0.117862	-0.162510	-0.023843
C17	C	-0.094838	-0.139921	-0.023519
C18	C	-0.044836	-0.166525	-0.020298
C19	C	-0.186401	-0.093991	-0.023843
C20	C	-0.004439	-0.188019	-0.017694
C21	C	-0.205769	0.013252	-0.017695
C22	C	-0.205774	-0.188010	-0.017709
C23	C	0.046241	-0.214983	-0.014429
C24	C	-0.229477	0.060653	-0.014430
C25	C	-0.229483	-0.214971	-0.014450
C26	C	-0.500364	-0.466062	0.034181
C27	C	-0.477341	-0.511990	0.034503
C28	C	-0.431722	-0.466060	0.034178
C29	C	-0.408804	-0.511988	0.034500
C30	C	-0.431721	-0.534685	0.034181
C31	C	-0.477342	-0.443470	0.034500
C32	C	-0.665895	-0.342485	0.021756
C33	C	-0.712772	-0.317221	0.018243
C34	C	-0.736287	-0.338907	0.016481
C35	C	-0.787116	-0.311512	0.012664
C36	C	-0.712921	-0.385861	0.018236
C37	C	-0.666047	-0.411125	0.021755
C38	C	-0.642533	-0.389434	0.023515
C39	C	-0.389805	-0.687746	0.021758
C40	C	-0.368199	-0.731097	0.018245
C41	C	-0.322995	-0.752841	0.016478
C42	C	-0.299567	-0.799839	0.012662
C43	C	-0.299393	-0.731235	0.018230
C44	C	-0.320995	-0.687892	0.021751
C45	C	-0.366205	-0.666148	0.023512
C46	C	-0.389808	-0.342477	0.021744
C47	C	-0.368205	-0.317208	0.018222
C48	C	-0.322998	-0.338892	0.016457
C49	C	-0.299573	-0.311495	0.012637
C50	C	-0.299398	-0.385842	0.018210
C51	C	-0.321003	-0.411107	0.021730
C52	C	-0.366208	-0.389423	0.023501
C53	C	-0.591706	-0.416830	0.027326
C54	C	-0.551191	-0.438667	0.030366
C55	C	-0.408299	-0.438663	0.030360
C56	C	-0.389629	-0.416824	0.027317
C57	C	-0.408298	-0.581682	0.030365
C58	C	-0.389627	-0.619146	0.027325
C59	C	-0.432024	-0.061845	-0.438511
C60	C	-0.477645	-0.015917	-0.461431
C61	C	-0.432025	-0.061844	-0.369869
C62	C	-0.477645	-0.015916	-0.392892
C63	C	-0.500668	0.006779	-0.438513
C64	C	-0.409106	-0.084435	-0.392891
C65	C	-0.320834	-0.185425	-0.480424
C66	C	-0.299076	-0.210690	-0.502029
C67	C	-0.322531	-0.189005	-0.547237
C68	C	-0.298945	-0.216401	-0.570661
C69	C	-0.367745	-0.142051	-0.570839
C70	C	-0.389497	-0.116787	-0.549237
C71	C	-0.366040	-0.138476	-0.504027
C72	C	-0.666200	0.159838	-0.549704
C73	C	-0.713077	0.203188	-0.571462
C74	C	-0.736595	0.224934	-0.548009
C75	C	-0.787423	0.271931	-0.571594
C76	C	-0.713230	0.203329	-0.502796
C77	C	-0.666353	0.159987	-0.481041
C78	C	-0.642841	0.138241	-0.504500
C79	C	-0.320836	-0.185423	-0.204335
C80	C	-0.299080	-0.210691	-0.157455
C81	C	-0.322536	-0.189006	-0.133940
C82	C	-0.298950	-0.216402	-0.083110
C83	C	-0.367748	-0.142056	-0.157305
C84	C	-0.389502	-0.116792	-0.204182
C85	C	-0.366040	-0.138478	-0.227695
C86	C	-0.389632	-0.111079	-0.480604
C87	C	-0.408436	-0.089241	-0.461934
C88	C	-0.408437	-0.089240	-0.319041
C89	C	-0.389634	-0.111078	-0.278525
C90	C	-0.551496	0.053776	-0.462102
C91	C	-0.592011	0.091239	-0.480906
O92	O	0.196122	-0.334274	0.011291
O93	O	0.063378	-0.256674	-0.011208
O94	O	0.140994	-0.334276	0.066414
O95	O	0.118506	-0.256671	-0.066331
O96	O	0.140996	-0.271251	0.066419
O97	O	0.063380	-0.193649	-0.011203
O98	O	0.196124	-0.271249	0.011296
Zn99	Zn	0.129752	-0.222442	0.000047
Zn100	Zn	0.129750	-0.305480	0.000041
O101	O	0.118508	-0.193647	-0.066327
O102	O	-0.260036	0.184774	0.011294
O103	O	-0.204910	0.074561	-0.011204
O104	O	-0.204913	0.074554	0.066418
O105	O	-0.260033	0.184781	-0.066328
O106	O	-0.267961	0.074557	0.066413
O107	O	-0.267958	0.074564	-0.011209
O108	O	-0.323083	0.184777	0.011289
Zn109	Zn	-0.305531	0.129671	0.000039
Zn110	Zn	-0.222463	0.129667	0.000046
O111	O	-0.323081	0.184784	-0.066333
O112	O	-0.936929	0.397535	-0.602582
O113	O	-0.804185	0.287317	-0.547454
O114	O	-0.881802	0.287315	-0.547452
O115	O	-0.859312	0.397537	-0.602584
O116	O	-0.881801	0.287314	-0.610498
O117	O	-0.804183	0.287316	-0.610500
O118	O	-0.936927	0.397533	-0.665628
Zn119	Zn	-0.870555	0.342425	-0.648073
Zn120	Zn	-0.870557	0.342426	-0.565008
O121	O	-0.859310	0.397536	-0.665629
O122	O	-0.267961	-0.271234	-0.665316
O123	O	-0.323086	-0.193638	-0.610192
O124	O	-0.323085	-0.271236	-0.610189
O125	O	-0.267962	-0.193636	-0.665319
O126	O	-0.260038	-0.334264	-0.547142
O127	O	-0.260039	-0.256666	-0.547145
O128	O	-0.204914	-0.334262	-0.602269
Zn129	Zn	-0.222466	-0.305471	-0.564697
Zn130	Zn	-0.305534	-0.222429	-0.647764
O131	O	-0.204915	-0.256664	-0.602272
C132	C	-0.094840	-0.456607	0.293255
C133	C	-0.044837	-0.503376	0.316647
C134	C	-0.117862	-0.433912	0.316174
C135	C	-0.163483	-0.387984	0.224612
C136	C	-0.186875	-0.361381	0.174609
C137	C	-0.186401	-0.365393	0.247634
C138	C	-0.163483	-0.387984	0.293255
C139	C	-0.186874	-0.361382	0.316646
C140	C	-0.117862	-0.433912	0.247635
C141	C	-0.205772	-0.339889	0.335543
C142	C	-0.004440	-0.541160	0.335545
C143	C	-0.205773	-0.339888	0.134212
C144	C	-0.229480	-0.312925	0.359250
C145	C	0.046239	-0.588562	0.359254
C146	C	-0.229481	-0.312924	0.083532
C147	C	0.153295	-0.388013	0.293279
C148	C	0.150076	-0.361413	0.316673
C149	C	0.153614	-0.433940	0.316196
C150	C	0.153297	-0.388008	0.224634
C151	C	0.150079	-0.361403	0.174632
C152	C	0.153616	-0.433935	0.247655
C153	C	0.153293	-0.456633	0.293275
C154	C	0.150072	-0.503401	0.316665
C155	C	0.153617	-0.365420	0.247659
C156	C	0.147469	-0.541185	0.335561
C157	C	0.147474	-0.339922	0.335572
C158	C	0.147479	-0.339908	0.134234
C159	C	0.144204	-0.588587	0.359267
C160	C	0.144211	-0.312962	0.359282
C161	C	0.144218	-0.312942	0.083555
C162	C	-0.163482	-0.139963	0.293267
C163	C	-0.186875	-0.166567	0.316654
C164	C	-0.117861	-0.162559	0.316187
C165	C	-0.163482	-0.071333	0.224628
C166	C	-0.186873	-0.024557	0.174627
C167	C	-0.117860	-0.094033	0.247653
C168	C	-0.094838	-0.139967	0.293272
C169	C	-0.044835	-0.166574	0.316665
C170	C	-0.186401	-0.094030	0.247648
C171	C	-0.004438	-0.188070	0.335563
C172	C	-0.205773	-0.188061	0.335549
C173	C	-0.205771	0.013233	0.134231
C174	C	0.046242	-0.215038	0.359273
C175	C	-0.229482	-0.215026	0.359253
C176	C	-0.229479	0.060643	0.083553
C177	C	0.095627	0.006487	-0.438489
C178	C	0.095306	-0.016206	-0.461409
C179	C	0.095623	-0.062137	-0.369847
C180	C	0.095303	-0.084726	-0.392871
C181	C	0.095625	-0.062133	-0.438492
C182	C	0.095305	-0.016210	-0.392868
C183	C	0.108059	0.159543	-0.480399
C184	C	0.111575	0.202893	-0.502003
C185	C	0.113340	0.224640	-0.547210
C186	C	0.117161	0.271637	-0.570634
C187	C	0.111587	0.203038	-0.570814
C188	C	0.108065	0.159695	-0.549212
C189	C	0.106302	0.137948	-0.504002
C190	C	0.108054	-0.116452	-0.549685
C191	C	0.111568	-0.141562	-0.571444
C192	C	0.113332	-0.188519	-0.547992
C193	C	0.117148	-0.215753	-0.571578
C194	C	0.111577	-0.210363	-0.502779
C195	C	0.108055	-0.185249	-0.481023
C196	C	0.106297	-0.138292	-0.504481
C197	C	0.108046	-0.116473	-0.204312
C198	C	0.111564	-0.141591	-0.157432
C199	C	0.113326	-0.188548	-0.133918
C200	C	0.117142	-0.215786	-0.083088
C201	C	0.111574	-0.210388	-0.157283
C202	C	0.108058	-0.185270	-0.204161
C203	C	0.106290	-0.138308	-0.227673
C204	C	0.102487	0.090947	-0.480580
C205	C	0.099445	0.053484	-0.461911
C206	C	0.099438	-0.089371	-0.319019
C207	C	0.102477	-0.111078	-0.278503
C208	C	0.099442	-0.089362	-0.462081
C209	C	0.102482	-0.111066	-0.480886
O210	O	0.118477	-0.256700	0.452885
O211	O	0.140984	-0.334299	0.397762
O212	O	0.063360	-0.256699	0.397752
O213	O	0.196101	-0.334300	0.452895
O214	O	0.063367	-0.193672	0.334708
O215	O	0.140992	-0.271271	0.334718
O216	O	0.118484	-0.193673	0.389842
Zn217	Zn	0.129739	-0.222465	0.352270
Zn218	Zn	0.129729	-0.305506	0.435333
O219	O	0.196108	-0.271272	0.389852
C220	C	-0.500364	0.533998	-0.438484
C221	C	-0.477341	0.556591	-0.461399
C222	C	-0.431721	0.465364	-0.369840
C223	C	-0.408802	0.488061	-0.392859
C224	C	-0.431720	0.533995	-0.438478
C225	C	-0.477342	0.488064	-0.392865
C226	C	-0.665898	0.588334	-0.480407
C227	C	-0.712776	0.613450	-0.502014
C228	C	-0.736291	0.660414	-0.547220
C229	C	-0.787122	0.687654	-0.570647
C230	C	-0.712926	0.682257	-0.570819
C231	C	-0.666050	0.657138	-0.549214
C232	C	-0.642536	0.610174	-0.504006
C233	C	-0.389802	0.657585	-0.549654
C234	C	-0.368196	0.682850	-0.571408
C235	C	-0.322990	0.661164	-0.547952
C236	C	-0.299561	0.688558	-0.571532
C237	C	-0.299388	0.614205	-0.502740
C238	C	-0.320990	0.588935	-0.480990
C239	C	-0.366202	0.610633	-0.504452
C240	C	-0.389804	0.312282	-0.204314
C241	C	-0.368201	0.268929	-0.157436
C242	C	-0.322993	0.247179	-0.133918
C243	C	-0.299567	0.200174	-0.083089
C244	C	-0.299392	0.268786	-0.157278
C245	C	-0.320998	0.312139	-0.204154
C246	C	-0.366204	0.333881	-0.227670
C247	C	-0.591708	0.582942	-0.480581
C248	C	-0.551193	0.561234	-0.461909
C249	C	-0.408297	0.418359	-0.319013
C250	C	-0.389626	0.380890	-0.278499
C251	C	-0.408296	0.561393	-0.462062
C252	C	-0.389624	0.583232	-0.480862
H253	H	-0.099379	-0.074998	-0.024355
C254	C	-0.468353	-0.073584	-0.246329
C255	C	-0.439194	-0.065180	-0.229867
H256	H	-0.499031	-0.041720	-0.262184
H257	H	-0.457496	-0.082884	-0.267038
H258	H	-0.468313	-0.101843	-0.220926
H259	H	-0.439231	-0.036923	-0.255270
H260	H	-0.450054	-0.055874	-0.209157
C261	C	-0.365632	-0.797479	0.012855
C262	C	-0.394142	-0.754841	0.016314
H263	H	-0.381649	-0.812138	0.011666
H264	H	-0.357828	-0.784873	-0.014577
H265	H	-0.338087	-0.824347	0.039137
H266	H	-0.421685	-0.727971	-0.009969
H267	H	-0.401952	-0.767446	0.043750
C268	C	-0.455643	0.727973	-0.619720
C269	C	-0.439493	0.681427	-0.575445
H270	H	-0.486318	0.742687	-0.635641
H271	H	-0.455657	0.753377	-0.616903
H272	H	-0.435909	0.719417	-0.636646
H273	H	-0.459225	0.689982	-0.558518
H274	H	-0.439482	0.656017	-0.578260
H275	H	-0.496124	0.003081	-0.498917
C276	C	-0.090606	-0.422413	0.369389
C277	C	-0.092925	-0.459553	0.366780
H278	H	-0.075219	-0.438242	0.400631
H279	H	-0.073898	-0.412056	0.350347
H280	H	-0.121132	-0.391756	0.358963
H281	H	-0.062399	-0.490208	0.377202
H282	H	-0.109634	-0.469918	0.385828
H283	H	-0.262268	-0.248920	-0.138435
C284	C	-0.398355	0.776108	-0.621133
C285	C	-0.394136	0.734469	-0.621098
H286	H	-0.414368	0.807975	-0.651810
H287	H	-0.415222	0.781796	-0.601348
H288	H	-0.368335	0.766795	-0.610272
H289	H	-0.424156	0.743781	-0.631956
H290	H	-0.377270	0.728782	-0.640890
C291	C	-0.252348	-0.023161	-0.024758
C292	C	-0.237005	-0.068346	-0.024550
H293	H	-0.283589	-0.007328	-0.025199
H294	H	-0.233299	-0.033534	0.002315
H295	H	-0.250570	0.002026	-0.051535
H296	H	-0.238780	-0.093535	0.002230
H297	H	-0.256060	-0.057974	-0.051625
H298	H	-0.371622	-0.121391	-0.374409
H299	H	0.154122	-0.452930	0.353678
C300	C	-0.265089	-0.053107	0.247308
C301	C	-0.237002	-0.068377	0.222687
H302	H	-0.296327	-0.037267	0.231895
H303	H	-0.254681	-0.083767	0.277821
H304	H	-0.263312	-0.027924	0.248899
H305	H	-0.238776	-0.093564	0.221099
H306	H	-0.247413	-0.037713	0.192166
C307	C	0.114823	-0.459834	0.220371
C308	C	0.154304	-0.459566	0.222696
H309	H	0.115245	-0.475652	0.204958
H310	H	0.114689	-0.479944	0.250892
H311	H	0.087759	-0.424086	0.203678
H312	H	0.181368	-0.495315	0.239392
H313	H	0.154443	-0.439457	0.192169
H314	H	-0.262584	-0.748943	0.016794
H315	H	0.154133	-0.328462	0.229178
C316	C	0.143691	-0.221947	-0.402172
C317	C	0.106124	-0.209254	-0.431329
H318	H	0.142497	-0.236764	-0.371494
H319	H	0.171914	-0.247296	-0.402213
H320	H	0.142134	-0.190384	-0.413034
H321	H	0.107683	-0.240818	-0.420469
H322	H	0.077894	-0.183903	-0.431286
C323	C	-0.453473	0.378795	-0.276241
C324	C	-0.439496	0.336185	-0.230163
H325	H	-0.484149	0.393550	-0.292200
H326	H	-0.452749	0.405600	-0.276772
H327	H	-0.433004	0.366130	-0.291003
H328	H	-0.459964	0.348851	-0.215400
H329	H	-0.440224	0.309375	-0.229630
C330	C	-0.547286	0.492067	-0.397768
C331	C	-0.502294	0.462421	-0.367913
H332	H	-0.562687	0.476234	-0.382363
H333	H	-0.563977	0.527804	-0.406446
H334	H	-0.545705	0.492259	-0.424739
H335	H	-0.503874	0.462233	-0.340943
H336	H	-0.485599	0.426675	-0.359228
H337	H	-0.426615	-0.670047	0.023195
H338	H	-0.371321	-0.530978	0.035012
C339	C	-0.047901	-0.504696	0.252516
C340	C	-0.092899	-0.459524	0.222667
H341	H	-0.032489	-0.520500	0.237098
H342	H	-0.031226	-0.494317	0.261213
H343	H	-0.049473	-0.529911	0.279476
H344	H	-0.091326	-0.434308	0.195708
H345	H	-0.109578	-0.469902	0.213963
H346	H	-0.495827	-0.530983	0.035020
C347	C	-0.047919	-0.227578	0.382128
C348	C	-0.092906	-0.212456	0.366786
H349	H	-0.032515	-0.258379	0.413366
H350	H	-0.031226	-0.235579	0.363070
H351	H	-0.049509	-0.199033	0.380361
H352	H	-0.091316	-0.241000	0.368550
H353	H	-0.109604	-0.204457	0.385851
C354	C	-0.405019	-0.066300	-0.650693
C355	C	-0.393524	-0.118217	-0.620529
H356	H	-0.420933	-0.051588	-0.681370
H357	H	-0.424444	-0.044539	-0.641205
H358	H	-0.377472	-0.067568	-0.649965
H359	H	-0.421071	-0.116949	-0.621255
H360	H	-0.374098	-0.139984	-0.630020
C361	C	-0.053156	-0.105529	0.220376
C362	C	-0.092908	-0.068390	0.222703
H363	H	-0.037754	-0.089696	0.204971
H364	H	-0.032909	-0.136180	0.250896
H365	H	-0.061848	-0.115890	0.203674
H366	H	-0.084216	-0.058032	0.239408
H367	H	-0.113159	-0.037729	0.192178
H368	H	0.094785	-0.121682	-0.374387
C369	C	0.094464	0.054581	-0.527333
C370	C	0.094651	0.009410	-0.511997
H371	H	0.094074	0.070383	-0.558559
H372	H	0.067674	0.079793	-0.525597
H373	H	0.121524	0.044198	-0.508248
H374	H	0.067589	0.019793	-0.531081
H375	H	0.121444	-0.015807	-0.513737
C376	C	-0.547285	-0.378443	0.035395
C377	C	-0.502294	-0.393577	0.035190
H378	H	-0.562687	-0.347643	0.035823
H379	H	-0.563977	-0.370437	0.008329
H380	H	-0.545703	-0.406985	0.062180
H381	H	-0.503876	-0.365036	0.008404
H382	H	-0.485598	-0.401580	0.062260
C383	C	-0.252342	-0.300384	0.252547
C384	C	-0.237002	-0.315503	0.222684
H385	H	-0.283578	-0.269584	0.237143
H386	H	-0.250572	-0.328928	0.279509
H387	H	-0.233281	-0.292379	0.261234
H388	H	-0.256061	-0.323512	0.213999
H389	H	-0.238776	-0.286954	0.195713
H390	H	0.094825	0.002760	-0.374372
H391	H	0.113001	-0.123813	-0.138408
C392	C	-0.090574	-0.254470	0.014941
C393	C	-0.092907	-0.212399	-0.024540
H394	H	-0.075170	-0.285266	0.014508
H395	H	-0.073876	-0.262474	0.042003
H396	H	-0.121097	-0.244202	0.015081
H397	H	-0.062384	-0.222665	-0.024679
H398	H	-0.109604	-0.204394	-0.051609
H399	H	0.106608	-0.078237	-0.223453
H400	H	-0.301729	-0.203089	-0.443614
C401	C	-0.438385	-0.251906	0.018592
C402	C	-0.394147	-0.265601	0.016295
H403	H	-0.454399	-0.220048	0.017406
H404	H	-0.455253	-0.246206	-0.006890
H405	H	-0.435505	-0.280174	0.046824
H406	H	-0.397027	-0.237334	-0.011938
H407	H	-0.377275	-0.271298	0.041779
C408	C	0.108394	0.163760	-0.414555
C409	C	0.106115	0.135645	-0.430707
H410	H	0.107191	0.149006	-0.383879
H411	H	0.136621	0.160934	-0.414539
H412	H	0.082908	0.200409	-0.434288
H413	H	0.131603	0.098997	-0.410975
H414	H	0.077885	0.138466	-0.430719
H415	H	-0.426617	-0.324814	0.023182
C416	C	0.075941	0.280646	-0.500925
C417	C	0.113507	0.226633	-0.476057
H418	H	0.077134	0.295299	-0.484904
H419	H	0.077498	0.299796	-0.530936
H420	H	0.047715	0.283470	-0.503794
H421	H	0.141734	0.223808	-0.473190
H422	H	0.111954	0.207476	-0.446038
H423	H	-0.301784	-0.449335	0.023157
C424	C	-0.670446	-0.272121	0.021446
C425	C	-0.640045	-0.318657	0.023716
H426	H	-0.654483	-0.257419	0.022664
H427	H	-0.695842	-0.246704	-0.006786
H428	H	-0.681626	-0.280684	0.046927
H429	H	-0.628868	-0.310094	-0.001767
H430	H	-0.614641	-0.344079	0.051951
H431	H	0.113022	0.220750	-0.607622
C432	C	-0.235718	-0.377603	0.012825
C433	C	-0.249702	-0.409687	0.016279
H434	H	-0.205037	-0.392327	0.011638
H435	H	-0.256176	-0.342387	-0.014607
H436	H	-0.236449	-0.376342	0.039107
H437	H	-0.248974	-0.410944	-0.010005
H438	H	-0.229238	-0.444912	0.043714
C439	C	-0.775891	-0.223961	-0.025306
C440	C	-0.738455	-0.265609	0.016308
H441	H	-0.791748	-0.192099	-0.026499
H442	H	-0.764719	-0.218269	-0.050784
H443	H	-0.796599	-0.233269	-0.026851
H444	H	-0.717745	-0.256303	0.017852
H445	H	-0.749627	-0.271302	0.041793
H446	H	0.106637	0.142110	-0.568432
C447	C	0.108392	-0.050963	-0.619749
C448	C	0.106113	-0.064834	-0.575472
H449	H	0.107192	-0.019095	-0.635667
H450	H	0.136619	-0.079167	-0.616936
H451	H	0.082906	-0.045210	-0.636675
H452	H	0.131602	-0.070591	-0.558544
H453	H	0.077884	-0.036623	-0.578283
H454	H	0.112999	-0.123775	-0.608256
H455	H	0.113006	-0.248593	-0.483685
H456	H	0.106630	-0.203055	-0.223182
C457	C	-0.233542	0.543809	-0.432682
C458	C	-0.249695	0.590360	-0.476955
H459	H	-0.202864	0.529089	-0.416765
H460	H	-0.253269	0.552357	-0.415753
H461	H	-0.233533	0.518407	-0.435505
H462	H	-0.249708	0.615763	-0.474132
H463	H	-0.229964	0.581813	-0.493888
C464	C	-0.641253	-0.502439	0.062420
C465	C	-0.640366	-0.462732	0.023683
H466	H	-0.625401	-0.534297	0.063607
H467	H	-0.626422	-0.509459	0.089850
H468	H	-0.672537	-0.490492	0.060069
H469	H	-0.609082	-0.474678	0.026035
H470	H	-0.655196	-0.455712	-0.003754
H471	H	0.113009	-0.248624	-0.138135
C472	C	-0.784856	0.751321	-0.634484
C473	C	-0.738775	0.733882	-0.620504
H474	H	-0.800814	0.783196	-0.665157
H475	H	-0.785394	0.724332	-0.633771
H476	H	-0.799613	0.758271	-0.614008
H477	H	-0.724017	0.726928	-0.640978
H478	H	-0.738235	0.760877	-0.621220
H479	H	-0.371318	0.469063	-0.374372
C480	C	-0.784847	-0.377608	0.012840
C481	C	-0.738768	-0.409697	0.016300
H482	H	-0.800803	-0.392324	0.011642
H483	H	-0.785381	-0.376350	0.039120
H484	H	-0.799609	-0.342387	-0.014594
H485	H	-0.724005	-0.444917	0.043735
H486	H	-0.738232	-0.410961	-0.009983
H487	H	-0.495826	0.593550	-0.498882
C488	C	-0.438383	0.273420	-0.162300
C489	C	-0.394143	0.245180	-0.131759
H490	H	-0.454396	0.258755	-0.146449
H491	H	-0.455249	0.310056	-0.173461
H492	H	-0.435504	0.270593	-0.187700
H493	H	-0.397021	0.248010	-0.106361
H494	H	-0.377273	0.208534	-0.120591
C495	C	-0.670457	0.522838	-0.414571
C496	C	-0.640052	0.536709	-0.430718
H497	H	-0.654498	0.490966	-0.383897
H498	H	-0.695856	0.551040	-0.414553
H499	H	-0.681630	0.517094	-0.434309
H500	H	-0.628881	0.542457	-0.410982
H501	H	-0.614645	0.508501	-0.430733
H502	H	-0.731797	0.595663	-0.482796
C503	C	-0.670907	0.727674	-0.619390
C504	C	-0.640369	0.681148	-0.575151
H505	H	-0.655052	0.742500	-0.635400
H506	H	-0.682071	0.719065	-0.636262
H507	H	-0.696304	0.753015	-0.616510
H508	H	-0.614974	0.655806	-0.578031
H509	H	-0.629198	0.689756	-0.558275
H510	H	-0.301775	-0.670305	0.023178
H511	H	-0.301770	0.550701	-0.444180
C512	C	-0.250811	0.307639	-0.199293
C513	C	-0.295054	0.335885	-0.229832
H514	H	-0.234794	0.322297	-0.215148
H515	H	-0.253683	0.310465	-0.173897
H516	H	-0.233949	0.270998	-0.188131
H517	H	-0.311918	0.372525	-0.240992
H518	H	-0.292184	0.333064	-0.255237
H519	H	-0.262581	0.251075	-0.138127
H520	H	-0.301727	-0.203079	-0.223479
C521	C	-0.477997	0.025015	-0.355143
C522	C	-0.502609	0.009733	-0.367950
H523	H	-0.493413	0.040854	-0.339750
H524	H	-0.447483	-0.005640	-0.334883
H525	H	-0.476410	0.050202	-0.382113
H526	H	-0.504193	-0.015457	-0.340980
H527	H	-0.533131	0.040392	-0.388211
C528	C	-0.233383	-0.275990	-0.431848
C529	C	-0.249378	-0.262292	-0.476089
H530	H	-0.202702	-0.307847	-0.415835
H531	H	-0.233433	-0.247725	-0.434726
H532	H	-0.253165	-0.281696	-0.414979
H533	H	-0.229598	-0.256582	-0.492960
H534	H	-0.249325	-0.290564	-0.473213
C535	C	-0.624211	0.082228	-0.402189
C536	C	-0.640672	0.136241	-0.431347
H537	H	-0.608355	0.067569	-0.371510
H538	H	-0.649608	0.079403	-0.402232
H539	H	-0.603498	0.063080	-0.413049
H540	H	-0.661387	0.155390	-0.420489
H541	H	-0.615271	0.139069	-0.431303
H542	H	-0.426308	-0.078556	-0.568458
C543	C	-0.670758	0.164060	-0.619769
C544	C	-0.640354	0.135942	-0.575491
H545	H	-0.654799	0.149307	-0.635687
H546	H	-0.696157	0.161233	-0.616956
H547	H	-0.681930	0.200708	-0.636695
H548	H	-0.629184	0.099294	-0.558564
H549	H	-0.614946	0.138763	-0.578303
H550	H	-0.732378	0.221040	-0.483702
C551	C	-0.784870	0.269569	-0.635297
C552	C	-0.738759	0.226931	-0.621156
H553	H	-0.800723	0.284227	-0.665977
H554	H	-0.799693	0.256963	-0.614883
H555	H	-0.785465	0.296437	-0.634629
H556	H	-0.738165	0.200060	-0.621820
H557	H	-0.723933	0.239535	-0.641575
C558	C	-0.364894	-0.150299	-0.085381
C559	C	-0.393533	-0.118214	-0.131460
H560	H	-0.380812	-0.135576	-0.069429
H561	H	-0.357096	-0.185515	-0.070615
H562	H	-0.337352	-0.151556	-0.084851
H563	H	-0.421073	-0.116960	-0.131990
H564	H	-0.401337	-0.082988	-0.146230
