data_functionalizedCrystal
_audit_creation_method	'MofGen! by Chris Wilmer'
_symmetry_space_group_name_H-M	'P1'
_symmetry_Int_Tables_number	1
_symmetry_cell_setting	triclinic
loop_
_symmetry_equiv_pos_as_xyz
  x,y,z
_cell_length_a	17.699083
_cell_length_b	10.723024
_cell_length_c	16.776229
_cell_angle_alpha	89.994545
_cell_angle_beta	89.998886
_cell_angle_gamma	83.875442
loop_
_atom_site_label
_atom_site_type_symbol
_atom_site_fract_x
_atom_site_fract_y
_atom_site_fract_z
O1	O	1.005074	0.157797	-0.066174
O2	O	0.784825	0.178327	-0.066200
O3	O	0.900030	-0.013601	-0.066184
O4	O	0.889869	0.349725	-0.066191
O5	O	0.900014	-0.013613	0.066393
O6	O	0.784809	0.178315	0.066376
O7	O	1.005058	0.157785	0.066402
Zn8	Zn	0.894931	0.168048	0.087439
Zn9	Zn	0.894952	0.168064	-0.087237
O10	O	0.889854	0.349713	0.066386
C11	C	0.756616	0.177585	0.000085
C12	C	0.672584	0.175378	0.000075
C13	C	0.624673	0.288036	0.000073
C14	C	0.545717	0.285955	0.000083
C15	C	0.514672	0.171215	0.000090
C16	C	0.562589	0.058549	0.000094
C17	C	0.641544	0.060631	0.000090
C18	C	0.244173	0.050148	0.000114
C19	C	0.165212	0.048075	0.000116
C20	C	0.148346	0.275473	0.000108
C21	C	0.227301	0.277555	0.000103
C22	C	0.275210	0.164889	0.000112
C23	C	0.360824	0.167147	0.000102
C24	C	0.429060	0.168956	0.000094
C25	C	0.899283	-0.060094	0.000103
C26	C	0.897070	-0.198610	0.000100
C27	C	0.961533	-0.274698	0.000107
C28	C	0.959248	-0.417863	0.000104
C29	C	1.033268	0.158527	0.000115
C30	C	1.117300	0.160734	0.000120
C31	C	0.890601	0.396206	0.000097
C32	C	0.892813	0.534723	0.000095
N33	N	0.894923	0.168037	0.206650
N34	N	0.894966	0.168065	-0.206448
C35	C	0.945952	0.083086	0.248374
C36	C	0.945956	0.083085	0.331826
C37	C	0.894934	0.168042	0.373553
C38	C	0.843900	0.252997	0.331822
C39	C	0.843893	0.252991	0.248372
C40	C	0.843928	0.253021	0.668370
C41	C	0.843941	0.253023	0.751826
C42	C	0.945991	0.083115	0.751824
C43	C	0.945983	0.083109	0.668374
C44	C	0.894947	0.168059	0.626651
C45	C	0.894942	0.168058	0.536162
C46	C	0.894942	0.168050	0.464040
H47	H	0.109328	0.367210	0.000105
O48	O	1.029412	-0.226038	-0.000028
C49	C	1.147774	-0.211787	-0.068679
C50	C	1.070918	-0.266951	-0.068633
H51	H	1.181360	-0.244864	-0.124131
H52	H	1.137569	-0.105000	-0.068732
H53	H	1.181314	-0.244729	-0.013168
H54	H	1.037338	-0.234105	-0.124134
H55	H	1.081177	-0.373732	-0.068539
O56	O	0.829255	-0.247475	-0.000016
C57	C	0.747070	-0.377028	-0.068740
C58	C	0.823906	-0.321802	-0.068697
H59	H	0.742714	-0.437111	-0.124271
H60	H	0.742682	-0.437318	-0.013298
H61	H	0.698903	-0.297453	-0.068705
H62	H	0.872118	-0.401296	-0.068760
H63	H	0.828228	-0.261479	-0.124135
H64	H	0.987532	0.013934	0.634403
O65	O	1.025108	-0.495798	0.000250
C66	C	1.142182	-0.561599	0.068919
C67	C	1.067614	-0.473283	0.068863
H68	H	1.176576	-0.543409	0.124378
H69	H	1.128653	-0.663189	0.068967
H70	H	1.176544	-0.543520	0.013414
H71	H	1.033215	-0.491250	0.124358
H72	H	1.081196	-0.371722	0.068773
O73	O	0.794266	0.335424	0.792325
C74	C	0.663049	0.408835	0.817845
C75	C	0.719216	0.315436	0.771944
H76	H	0.602359	0.392725	0.801371
H77	H	0.671759	0.394247	0.884665
H78	H	0.673454	0.508752	0.801437
H79	H	0.708845	0.215482	0.788285
H80	H	0.710493	0.330133	0.705135
O81	O	0.794433	0.335723	0.627887
C82	C	0.751176	0.552792	0.602397
C83	C	0.807286	0.459262	0.648280
H84	H	0.761537	0.652694	0.618880
H85	H	0.759924	0.538317	0.535574
H86	H	0.690485	0.536595	0.618811
H87	H	0.867999	0.475403	0.631932
H88	H	0.798472	0.473760	0.715091
H89	H	0.252572	0.370988	0.000094
O90	O	0.826950	-0.387350	0.000228
C91	C	0.709859	-0.321574	0.068870
C92	C	0.784427	-0.409889	0.068829
H93	H	0.675452	-0.339785	0.124319
H94	H	0.723388	-0.219984	0.068925
H95	H	0.675510	-0.339634	0.013356
H96	H	0.818813	-0.391942	0.124333
H97	H	0.770846	-0.511451	0.068732
H98	H	0.506711	0.377693	0.000081
O99	O	0.995543	0.000437	0.207968
C100	C	1.096794	-0.168049	0.216784
C101	C	1.040662	-0.074531	0.262639
H102	H	1.133299	-0.228667	0.260966
H103	H	1.063834	-0.230408	0.177746
H104	H	1.134844	-0.114233	0.177683
H105	H	1.002599	-0.128244	0.301783
H106	H	1.073670	-0.012173	0.301627
H107	H	0.987545	0.013940	0.785804
O108	O	0.290596	-0.059406	0.000084
C109	C	0.298986	-0.285181	0.000143
C110	C	0.246320	-0.161198	0.000158
H111	H	0.263210	-0.367512	0.000220
H112	H	0.336360	-0.289982	-0.055352
H113	H	0.336387	-0.289828	0.055614
H114	H	0.208872	-0.156468	-0.055275
H115	H	0.208998	-0.156449	0.055690
H116	H	0.139939	-0.045366	0.000123
H117	H	0.537306	-0.034875	0.000111
H118	H	0.649943	0.381471	0.000067
O119	O	0.995425	0.000443	0.372389
C120	C	1.010685	-0.169964	0.466646
C121	C	0.954573	-0.076457	0.420749
H122	H	0.977678	-0.232145	0.505769
H123	H	1.047140	-0.230765	0.422520
H124	H	1.048786	-0.116138	0.505671
H125	H	0.916423	-0.130181	0.381723
H126	H	0.918171	-0.015657	0.464918
H127	H	0.802354	0.322166	0.365801
O128	O	0.794298	0.335636	0.207962
C129	C	0.693045	0.504118	0.216765
C130	C	0.749186	0.410613	0.262627
H131	H	0.656546	0.564743	0.260942
H132	H	0.725997	0.566472	0.177706
H133	H	0.654991	0.450292	0.177685
H134	H	0.787254	0.464336	0.301751
H135	H	0.716186	0.348260	0.301636
H136	H	0.680552	-0.031107	0.000091
