data_functionalizedCrystal
_audit_creation_method	'MofGen! by Chris Wilmer'
_symmetry_space_group_name_H-M	'P1'
_symmetry_Int_Tables_number	1
_symmetry_cell_setting	triclinic
loop_
_symmetry_equiv_pos_as_xyz
  x,y,z
_cell_length_a	19.121241
_cell_length_b	19.121063
_cell_length_c	19.121324
_cell_angle_alpha	89.866514
_cell_angle_beta	90.083384
_cell_angle_gamma	95.003121
loop_
_atom_site_label
_atom_site_type_symbol
_atom_site_fract_x
_atom_site_fract_y
_atom_site_fract_z
Zn1	Zn	1.045284	-0.215900	-0.450988
Zn2	Zn	1.378618	0.117433	-0.117655
Zn3	Zn	1.711951	0.450766	0.215679
Zn4	Zn	1.044767	-0.338162	-0.338724
Zn5	Zn	1.378101	-0.004829	-0.005391
Zn6	Zn	1.711434	0.328505	0.327942
Zn7	Zn	0.932603	-0.225912	-0.329163
Zn8	Zn	1.265936	0.107422	0.004171
Zn9	Zn	1.599269	0.440755	0.337504
Zn10	Zn	0.922562	-0.338542	-0.450928
Zn11	Zn	1.255895	-0.005209	-0.117595
Zn12	Zn	1.589229	0.328124	0.215738
O13	O	0.986304	-0.279629	-0.392451
O14	O	1.319637	0.053704	-0.059118
O15	O	1.652971	0.387038	0.274216
O16	O	1.143517	-0.227770	-0.440122
O17	O	1.476850	0.105564	-0.106789
O18	O	1.810183	0.438897	0.226544
O19	O	1.033874	-0.327302	-0.239514
O20	O	1.367208	0.006031	0.093820
O21	O	1.700541	0.339364	0.427153
O22	O	0.951969	-0.126280	-0.341347
O23	O	1.285302	0.207053	-0.008013
O24	O	1.618635	0.540386	0.325320
O25	O	1.143137	-0.317595	-0.357643
O26	O	1.476470	0.015739	-0.024309
O27	O	1.809804	0.349072	0.309024
O28	O	1.034755	-0.118925	-0.430851
O29	O	1.368089	0.214408	-0.097518
O30	O	1.701422	0.547742	0.235816
O31	O	0.951467	-0.244833	-0.232489
O32	O	1.284801	0.088501	0.100844
O33	O	1.618134	0.421834	0.434178
O34	O	0.832970	-0.245201	-0.341289
O35	O	1.166303	0.088132	-0.007956
O36	O	1.499637	0.421465	0.325378
O37	O	0.934856	-0.318243	-0.548878
O38	O	1.268189	0.015090	-0.215545
O39	O	1.601522	0.348424	0.117788
O40	O	0.825593	-0.327951	-0.430750
O41	O	1.158926	0.005383	-0.097416
O42	O	1.492260	0.338716	0.235917
O43	O	1.025019	-0.228139	-0.548922
O44	O	1.358352	0.105195	-0.215589
O45	O	1.691686	0.438528	0.117744
O46	O	1.024138	-0.436516	-0.357585
O47	O	1.357472	-0.103182	-0.024252
O48	O	1.690805	0.230151	0.309082
O49	O	0.934354	-0.436795	-0.440021
O50	O	1.267688	-0.103462	-0.106688
O51	O	1.601021	0.229871	0.226646
C52	C	0.803793	-0.287704	-0.384976
C53	C	1.137126	0.045629	-0.051642
C54	C	1.470460	0.378963	0.281691
C55	C	0.725713	-0.291175	-0.381795
C56	C	1.059046	0.042158	-0.048462
C57	C	1.392379	0.375492	0.284872
C58	C	0.689223	-0.246107	-0.423315
C59	C	1.022556	0.087226	-0.089981
C60	C	1.355889	0.420560	0.243352
C61	C	0.615858	-0.249365	-0.420320
C62	C	0.949192	0.083968	-0.086987
C63	C	1.282525	0.417302	0.246347
C64	C	0.578985	-0.297695	-0.375809
C65	C	0.912318	0.035638	-0.042475
C66	C	1.245652	0.368972	0.290858
C67	C	0.615480	-0.342765	-0.334284
C68	C	0.948813	-0.009432	-0.000951
C69	C	1.282147	0.323902	0.332382
C70	C	0.688843	-0.339503	-0.337276
C71	C	1.022177	-0.006170	-0.003943
C72	C	1.355510	0.327164	0.329391
C73	C	0.357465	-0.309877	-0.364621
C74	C	0.690799	0.023456	-0.031288
C75	C	1.024132	0.356790	0.302046
C76	C	0.284097	-0.313137	-0.361634
C77	C	0.617430	0.020196	-0.028301
C78	C	0.950763	0.353530	0.305033
C79	C	0.284480	-0.219736	-0.447669
C80	C	0.617813	0.113598	-0.114336
C81	C	0.951147	0.446931	0.218998
C82	C	0.357845	-0.216481	-0.450660
C83	C	0.691178	0.116853	-0.117326
C84	C	1.024511	0.450186	0.216007
C85	C	0.394334	-0.261548	-0.409133
C86	C	0.727667	0.071785	-0.075799
C87	C	1.061000	0.405118	0.257534
C88	C	0.503994	-0.301028	-0.372748
C89	C	0.837328	0.032306	-0.039415
C90	C	1.170661	0.365639	0.293918
C91	C	0.469323	-0.258211	-0.412190
C92	C	0.802656	0.075122	-0.078857
C93	C	1.135990	0.408455	0.254477
C94	C	0.978119	-0.462143	-0.399850
C95	C	1.311452	-0.128810	-0.066517
C96	C	1.644786	0.204524	0.266817
C97	C	0.974681	-0.540219	-0.403041
C98	C	1.308014	-0.206886	-0.069708
C99	C	1.641348	0.126447	0.263625
C100	C	1.019845	-0.576728	-0.361659
C101	C	1.353178	-0.243395	-0.028326
C102	C	1.686511	0.089939	0.305007
C103	C	1.016615	-0.650089	-0.364665
C104	C	1.349948	-0.316755	-0.031332
C105	C	1.683282	0.016578	0.302002
C106	C	0.968218	-0.686940	-0.409050
C107	C	1.301551	-0.353606	-0.075717
C108	C	1.634884	-0.020273	0.257617
C109	C	0.923052	-0.650426	-0.450437
C110	C	1.256385	-0.317093	-0.117103
C111	C	1.589719	0.016241	0.216230
C112	C	0.926286	-0.577066	-0.447434
C113	C	1.259619	-0.243733	-0.114101
C114	C	1.592952	0.089600	0.219233
C115	C	0.956117	-0.908447	-0.420265
C116	C	1.289450	-0.575113	-0.086931
C117	C	1.622784	-0.241780	0.246402
C118	C	0.952885	-0.981812	-0.423262
C119	C	1.286219	-0.648478	-0.089929
C120	C	1.619552	-0.315145	0.243404
C121	C	1.046450	-0.981469	-0.337492
C122	C	1.379783	-0.648136	-0.004158
C123	C	1.713116	-0.314803	0.329175
C124	C	1.049676	-0.908109	-0.334490
C125	C	1.383009	-0.574775	-0.001156
C126	C	1.716343	-0.241442	0.332177
C127	C	1.004513	-0.871601	-0.375879
C128	C	1.337846	-0.538268	-0.042546
C129	C	1.671180	-0.204934	0.290787
C130	C	0.964914	-0.761926	-0.412122
C131	C	1.298247	-0.428593	-0.078788
C132	C	1.631580	-0.095260	0.254545
C133	C	1.007821	-0.796615	-0.372811
C134	C	1.341154	-0.463282	-0.039477
C135	C	1.674487	-0.129949	0.293856
C136	C	1.169528	-0.271523	-0.399956
C137	C	1.502861	0.061810	-0.066622
C138	C	1.836194	0.395144	0.266711
C139	C	1.247607	-0.268069	-0.403154
C140	C	1.580940	0.065265	-0.069820
C141	C	1.914273	0.398598	0.263513
C142	C	0.978875	-0.272117	-0.575006
C143	C	1.312208	0.061217	-0.241672
C144	C	1.645542	0.394550	0.091661
C145	C	0.975709	-0.268915	-0.652800
C146	C	1.309043	0.064418	-0.319466
C147	C	1.642376	0.397752	0.013867
C148	C	0.994540	-0.096401	-0.385039
C149	C	1.327873	0.236932	-0.051706
C150	C	1.661206	0.570266	0.281628
C151	C	0.998049	-0.018320	-0.381880
C152	C	1.331382	0.315013	-0.048547
C153	C	1.664716	0.648346	0.284786
C154	C	1.017123	-0.310346	-0.693007
C155	C	1.350457	0.022987	-0.359674
C156	C	1.683790	0.356320	-0.026341
C157	C	1.014149	-0.307330	-0.766103
C158	C	1.347482	0.026004	-0.432769
C159	C	1.680816	0.359337	-0.099436
C160	C	0.969756	-0.262885	-0.798989
C161	C	1.303090	0.070448	-0.465656
C162	C	1.636423	0.403782	-0.132322
C163	C	0.928341	-0.221449	-0.758776
C164	C	1.261674	0.111884	-0.425443
C165	C	1.595007	0.445218	-0.092109
C166	C	0.931319	-0.224462	-0.685682
C167	C	1.264653	0.108871	-0.352349
C168	C	1.597986	0.442204	-0.019015
C169	C	0.958620	-0.251635	-1.019503
C170	C	1.291954	0.081698	-0.686169
C171	C	1.625287	0.415032	-0.352836
C172	C	0.955644	-0.248626	-1.092602
C173	C	1.288977	0.084707	-0.759269
C174	C	1.622310	0.418040	-0.425935
C175	C	1.041453	-0.334506	-1.099924
C176	C	1.374787	-0.001173	-0.766591
C177	C	1.708120	0.332160	-0.433257
C178	C	1.044425	-0.337519	-1.026828
C179	C	1.377758	-0.004186	-0.693495
C180	C	1.711091	0.329148	-0.360161
C181	C	1.003012	-0.296080	-0.986621
C182	C	1.336345	0.037253	-0.653288
C183	C	1.669678	0.370586	-0.319955
C184	C	0.966714	-0.259802	-0.873704
C185	C	1.300047	0.073531	-0.540371
C186	C	1.633380	0.406865	-0.207038
C187	C	1.006059	-0.299160	-0.911908
C188	C	1.339392	0.034173	-0.578574
C189	C	1.672725	0.367507	-0.245241
C190	C	0.993747	-0.287060	-0.210606
C191	C	1.327080	0.046273	0.122728
C192	C	1.660414	0.379607	0.456061
C193	C	0.997058	-0.290058	-0.132810
C194	C	1.330391	0.043276	0.200524
C195	C	1.663724	0.376609	0.533857
H196	H	0.718553	-0.376202	-0.303466
H197	H	1.051886	-0.042868	0.029868
H198	H	1.385219	0.290465	0.363201
H199	H	0.919496	-0.212428	-1.119375
H200	H	1.252829	0.120905	-0.786042
H201	H	1.586162	0.454238	-0.452709
H202	H	0.924896	-0.217896	-0.986775
H203	H	1.258229	0.115438	-0.653441
H204	H	1.591563	0.448771	-0.320108
H205	H	0.499349	-0.218859	-0.448428
H206	H	0.832682	0.114475	-0.115095
H207	H	1.166015	0.447808	0.218239
H208	H	0.919342	-0.878728	-0.453964
H209	H	1.252675	-0.545395	-0.120631
H210	H	1.586009	-0.212061	0.212703
O211	O	0.575710	-0.394892	-0.286275
O212	O	0.909043	-0.061558	0.047059
O213	O	1.242377	0.271775	0.380392
H214	H	0.592554	-0.384385	-0.231445
H215	H	0.925887	-0.051052	0.101888
H216	H	1.259221	0.282281	0.435222
H217	H	1.080562	-0.373722	-1.000057
H218	H	1.413895	-0.040389	-0.666724
H219	H	1.747229	0.292944	-0.333391
H220	H	0.892199	-0.185258	-0.785558
H221	H	1.225532	0.148075	-0.452224
H222	H	1.558865	0.481409	-0.118891
O223	O	0.244327	-0.365264	-0.313617
O224	O	0.577661	-0.031931	0.019716
O225	O	0.910994	0.301402	0.353049
H226	H	0.213747	-0.336711	-0.275429
H227	H	0.547081	-0.003378	0.057904
H228	H	0.880414	0.329956	0.391238
H229	H	0.473964	-0.340378	-0.336507
H230	H	0.807297	-0.007045	-0.003174
H231	H	1.140631	0.326289	0.330160
O232	O	0.886653	-0.179775	-0.642309
O233	O	1.219986	0.153558	-0.308976
O234	O	1.553320	0.486891	0.024357
H235	H	0.855280	-0.148367	-0.677456
H236	H	1.188613	0.184966	-0.344122
H237	H	1.521946	0.518300	-0.010789
H238	H	1.059252	-0.546729	-0.325513
H239	H	1.392585	-0.213395	0.007820
H240	H	1.725918	0.119938	0.341153
O241	O	1.101884	-0.868369	-0.286620
O242	O	1.435217	-0.535036	0.046713
O243	O	1.768551	-0.201703	0.380046
H244	H	1.091497	-0.885284	-0.231767
H245	H	1.424831	-0.551951	0.101566
H246	H	1.758164	-0.218617	0.434899
O247	O	0.245120	-0.171124	-0.492446
O248	O	0.578453	0.162209	-0.159113
O249	O	0.911786	0.495543	0.174220
H250	H	0.256426	-0.180372	-0.548425
H251	H	0.589760	0.152961	-0.215092
H252	H	0.923093	0.486295	0.118241
H253	H	0.930567	-0.223617	-0.900488
H254	H	1.263901	0.109717	-0.567155
H255	H	1.597234	0.443050	-0.233822
H256	H	0.387862	-0.177128	-0.486908
H257	H	0.721195	0.156205	-0.153575
H258	H	1.054529	0.489539	0.179758
O259	O	0.728993	-0.193975	-0.471319
O260	O	1.062327	0.139358	-0.137986
O261	O	1.395660	0.472692	0.195348
H262	H	0.691292	-0.163178	-0.499680
H263	H	1.024625	0.170155	-0.166347
H264	H	1.357958	0.503488	0.166987
H265	H	1.083220	-1.011202	-0.303796
H266	H	1.416553	-0.677868	0.029538
H267	H	1.749886	-0.344535	0.362871
H268	H	0.883649	-0.680436	-0.486579
H269	H	1.216982	-0.347102	-0.153246
H270	H	1.550315	-0.013769	0.180088
O271	O	1.065322	-0.689469	-0.320028
O272	O	1.398656	-0.356136	0.013305
O273	O	1.731989	-0.022802	0.346639
H274	H	1.099512	-0.651520	-0.288652
H275	H	1.432845	-0.318187	0.044681
H276	H	1.766178	0.015146	0.378014
H277	H	1.075171	-0.368242	-1.132668
H278	H	1.408504	-0.034909	-0.799335
H279	H	1.741837	0.298425	-0.466001
H280	H	0.387166	-0.346575	-0.330807
H281	H	0.720499	-0.013241	0.002526
H282	H	1.053832	0.320092	0.335859
H283	H	0.913482	-1.011813	-0.459418
H284	H	1.246816	-0.678480	-0.126085
H285	H	1.580149	-0.345146	0.207248
O286	O	0.877566	-0.537684	-0.492059
O287	O	1.210900	-0.204351	-0.158725
O288	O	1.544233	0.128983	0.174608
H289	H	0.843363	-0.575633	-0.523420
H290	H	1.176696	-0.242299	-0.190086
H291	H	1.510029	0.091034	0.143247
H292	H	1.042206	-0.335344	-0.885129
H293	H	1.375539	-0.002011	-0.551795
H294	H	1.708872	0.331323	-0.218462
H295	H	0.586151	-0.212667	-0.454131
H296	H	0.919485	0.120666	-0.120798
H297	H	1.252818	0.454000	0.212535
O298	O	1.060028	-0.756868	-0.324951
O299	O	1.393361	-0.423535	0.008383
O300	O	1.726695	-0.090202	0.341716
H301	H	1.031540	-0.726343	-0.286664
H302	H	1.364873	-0.393010	0.046670
H303	H	1.698207	-0.059676	0.380003
O304	O	0.912704	-0.801681	-0.459978
O305	O	1.246037	-0.468347	-0.126645
O306	O	1.579370	-0.135014	0.206689
H307	H	0.941190	-0.832212	-0.498262
H308	H	1.274523	-0.498878	-0.164928
H309	H	1.607856	-0.165545	0.168405
O310	O	1.065010	-0.358277	-0.657538
O311	O	1.398344	-0.024944	-0.324204
O312	O	1.731677	0.308389	0.009129
H313	H	1.093315	-0.386573	-0.697780
H314	H	1.426648	-0.053239	-0.364447
H315	H	1.759982	0.280094	-0.031113
H316	H	1.047873	-0.341068	-0.798837
H317	H	1.381206	-0.007734	-0.465504
H318	H	1.714540	0.325599	-0.132170
