data_functionalizedCrystal
_audit_creation_method	'MofGen! by Chris Wilmer'
_symmetry_space_group_name_H-M	'P1'
_symmetry_Int_Tables_number	1
_symmetry_cell_setting	triclinic
loop_
_symmetry_equiv_pos_as_xyz
  x,y,z
_cell_length_a	12.645331
_cell_length_b	12.759400
_cell_length_c	12.759393
_cell_angle_alpha	89.968436
_cell_angle_beta	89.974415
_cell_angle_gamma	90.008939
loop_
_atom_site_label
_atom_site_type_symbol
_atom_site_fract_x
_atom_site_fract_y
_atom_site_fract_z
Zn1	Zn	-1.620745	0.418365	0.594180
Zn2	Zn	-1.620639	0.594084	0.418500
Zn3	Zn	-1.443462	0.418402	0.418498
Zn4	Zn	-1.443451	0.593985	0.594120
O5	O	-1.532074	0.506209	0.506324
O6	O	-1.769078	0.441701	0.570902
O7	O	-1.597096	0.570836	0.271479
O8	O	-1.467028	0.271376	0.441826
O9	O	-1.769000	0.570801	0.441831
O10	O	-1.597278	0.271349	0.570899
O11	O	-1.466925	0.441764	0.271477
O12	O	-1.295113	0.441668	0.441768
O13	O	-1.467009	0.570632	0.741149
O14	O	-1.295105	0.570668	0.570797
O15	O	-1.597266	0.441605	0.741193
O16	O	-1.597085	0.741092	0.441772
O17	O	-1.466906	0.741019	0.570799
C18	C	-1.256644	0.506162	0.506276
C19	C	-1.138814	0.506167	0.506281
C20	C	-0.971220	0.424626	0.425546
C21	C	-1.093780	0.424847	0.425198
C22	C	-1.094300	0.616842	0.476033
C23	C	-0.971702	0.616386	0.475474
C24	C	-0.971662	0.478055	0.617551
C25	C	-1.094268	0.475593	0.616941
C26	C	-1.532011	0.779177	0.506302
C27	C	-1.532081	0.895953	0.506328
C28	C	-1.532148	0.506103	0.780358
C29	C	-1.532180	0.506058	0.897135
C30	C	-0.808579	0.506237	0.506357
C31	C	-0.926409	0.506197	0.506330
C32	C	-1.532166	0.232176	0.506369
C33	C	-1.532205	0.115399	0.506389
C34	C	-1.599941	0.950818	0.439218
C35	C	-1.600006	1.060542	0.439251
C36	C	-1.464343	1.060527	0.573506
C37	C	-1.464284	0.950805	0.573478
C38	C	-1.667738	0.895967	0.372068
C39	C	-1.735602	0.950832	0.304952
C40	C	-1.735667	1.060556	0.304984
C41	C	-1.667868	1.115415	0.372133
C42	C	-1.532061	0.506239	0.233357
C43	C	-1.532235	0.505988	0.116581
C44	C	-1.600014	0.438867	0.952021
C45	C	-1.600040	0.438829	1.061746
C46	C	-1.464393	0.573182	1.061686
C47	C	-1.464363	0.573214	0.951964
C48	C	-1.667831	0.371711	0.897192
C49	C	-1.735672	0.304516	0.952078
C50	C	-1.735697	0.304478	1.061803
C51	C	-1.667881	0.371635	1.116640
H52	H	-1.124927	0.530676	0.680355
H53	H	-1.790878	0.249832	0.907423
F54	F	-1.392062	0.892410	0.644906
H55	H	-1.409180	0.627858	1.106344
F56	F	-0.933788	0.555710	0.696227
F57	F	-1.392190	1.118915	0.644963
F58	F	-1.132056	0.449161	0.317474
H59	H	-1.123876	0.342777	0.444157
F60	F	-1.667899	0.371579	1.233419
F61	F	-1.667813	0.371749	0.780414
F62	F	-1.807763	0.892446	0.233500
F63	F	-0.934260	0.647576	0.369199
H64	H	-1.409110	0.627910	0.907274
H65	H	-0.941751	0.342304	0.444298
F66	F	-1.132418	0.698412	0.550537
F67	F	-0.930885	0.448651	0.318454
F68	F	-0.932954	0.698519	0.549022
H69	H	-1.790928	0.249757	1.106489
H70	H	-0.940761	0.398755	0.645055
F71	F	-1.134368	0.648578	0.370902
F72	F	-1.132316	0.369146	0.646764
F73	F	-1.667907	0.779190	0.372259
H74	H	-1.790933	1.105224	0.250342
H75	H	-1.667935	1.204760	0.372162
