data_functionalizedCrystal
_audit_creation_method	'MofGen! by Chris Wilmer'
_symmetry_space_group_name_H-M	'P1'
_symmetry_Int_Tables_number	1
_symmetry_cell_setting	triclinic
loop_
_symmetry_equiv_pos_as_xyz
  x,y,z
_cell_length_a	6.817900
_cell_length_b	11.168121
_cell_length_c	14.125465
_cell_angle_alpha	94.659390
_cell_angle_beta	100.398878
_cell_angle_gamma	108.508496
loop_
_atom_site_label
_atom_site_type_symbol
_atom_site_fract_x
_atom_site_fract_y
_atom_site_fract_z
V1	V	-4.016762	-0.173620	-0.299984
O2	O	-3.978122	0.009459	-0.294266
O3	O	-3.993684	-0.345333	-0.297941
O4	O	-3.952441	-0.170460	-0.430814
O5	O	-4.019650	-0.166624	-0.160472
V6	V	-4.499172	-0.151779	-0.283297
O7	O	-4.280462	-0.221529	-0.336590
O8	O	-4.685669	-0.103870	-0.246691
O9	O	-4.299043	0.019933	-0.285340
O10	O	-4.655209	-0.334859	-0.289015
O11	O	-4.613680	-0.158775	-0.422809
O12	O	-4.340286	-0.154940	-0.152467
C13	C	-3.845360	-0.387208	-0.293210
C14	C	-3.907672	-0.527582	-0.292411
C15	C	-4.108875	-0.596259	-0.296618
C16	C	-4.173281	-0.741343	-0.295793
C17	C	-3.792749	-0.164138	-0.462703
C18	C	-3.821611	-0.162690	-0.569657
C19	C	-3.874512	-0.160035	-0.765480
C20	C	-4.060790	-0.165361	-0.817801
C21	C	-4.090227	-0.163884	-0.926764
C22	C	-3.845067	-0.161513	-0.656507
C23	C	-4.110711	0.061802	-0.290068
C24	C	-4.027637	0.202175	-0.290873
C25	C	-4.163321	-0.161265	-0.120573
C26	C	-4.113697	-0.162707	-0.013618
H27	H	-4.233452	-0.547647	-0.300837
C28	C	-4.403077	-0.819944	-0.300394
C29	C	-4.468405	-0.775117	-0.220303
C30	C	-4.680078	-0.847505	-0.224502
H31	H	-4.489524	-0.812407	-0.358797
H32	H	-4.415894	-0.907000	-0.299149
H33	H	-4.455606	-0.688083	-0.221557
H34	H	-4.382016	-0.782658	-0.161888
H35	H	-4.692895	-0.934561	-0.223257
H36	H	-4.766505	-0.839962	-0.282908
H37	H	-4.724424	-0.817107	-0.170158
H38	H	-3.737154	-0.154368	-0.802517
H39	H	-4.198166	-0.171043	-0.780763
H40	H	-3.855267	-0.738795	-0.287268
H41	H	-3.783099	-0.576196	-0.288204
