data_functionalizedCrystal
_audit_creation_method	'MofGen! by Chris Wilmer'
_symmetry_space_group_name_H-M	'P1'
_symmetry_Int_Tables_number	1
_symmetry_cell_setting	triclinic
loop_
_symmetry_equiv_pos_as_xyz
  x,y,z
_cell_length_a	16.992694
_cell_length_b	14.044190
_cell_length_c	16.053802
_cell_angle_alpha	92.795827
_cell_angle_beta	87.249047
_cell_angle_gamma	91.930000
loop_
_atom_site_label
_atom_site_type_symbol
_atom_site_fract_x
_atom_site_fract_y
_atom_site_fract_z
O1	O	1.057569	0.198305	-0.069339
O2	O	0.829130	0.196087	-0.069363
O3	O	0.939917	0.058952	-0.069335
O4	O	0.946782	0.335440	-0.069367
O5	O	0.933817	0.066468	0.069522
O6	O	0.823029	0.203602	0.069494
O7	O	1.051469	0.205821	0.069519
Zn8	Zn	0.936281	0.205905	0.091553
Zn9	Zn	0.944318	0.196003	-0.091398
O10	O	0.940682	0.342955	0.069490
C11	C	0.796668	0.196993	0.000063
C12	C	0.709029	0.188484	0.000054
C13	C	0.664532	0.270580	0.000045
C14	C	0.582185	0.262581	0.000058
C15	C	0.544337	0.172483	0.000073
C16	C	0.588839	0.090381	0.000084
C17	C	0.671184	0.098382	0.000078
C18	C	0.298418	0.139322	0.000099
C19	C	0.216067	0.131327	0.000103
C20	C	0.209419	0.303528	0.000078
C21	C	0.291766	0.311521	0.000066
C22	C	0.336261	0.229419	0.000082
N23	N	0.460165	0.164304	0.000083
N24	N	0.420431	0.237599	0.000078
C25	C	0.933864	0.027168	0.000096
C26	C	0.924907	-0.078736	0.000102
C27	C	0.972055	-0.325452	0.000075
C28	C	0.908547	-0.272634	0.000074
C29	C	0.917652	-0.164739	0.000090
C30	C	0.962951	-0.433357	0.000059
C31	C	1.083931	0.204915	0.000091
C32	C	1.171570	0.213424	0.000094
C33	C	0.946735	0.374740	0.000058
C34	C	0.955691	0.480643	0.000046
N35	N	0.930801	0.212662	0.216412
N36	N	0.949803	0.189239	-0.216256
C37	C	0.977961	0.154334	0.260118
C38	C	0.974136	0.159071	0.347524
C39	C	0.923154	0.222140	0.391222
C40	C	0.875989	0.280470	0.347510
C41	C	0.879810	0.275728	0.260106
C42	C	0.906459	0.242827	0.652627
C43	C	0.902643	0.247566	0.740038
C44	C	1.000790	0.126165	0.740045
C45	C	1.004610	0.121433	0.652640
C46	C	0.957442	0.179759	0.608935
N47	N	0.919245	0.226985	0.480565
N48	N	0.961348	0.174909	0.519594
H49	H	0.545960	0.329433	0.000049
O50	O	0.835569	-0.315464	-0.000047
C51	C	0.829674	-0.376535	-0.071980
H52	H	0.891154	-0.397754	-0.095958
H53	H	0.800024	-0.338038	-0.122334
C54	C	0.704728	-0.440525	-0.020697
C55	C	0.780238	-0.466593	-0.050142
H56	H	0.674231	-0.496075	-0.007228
H57	H	0.708697	-0.399378	0.027765
H58	H	0.680030	-0.408443	-0.062663
H59	H	0.804939	-0.498663	-0.008172
H60	H	0.776272	-0.507748	-0.098596
O61	O	1.027395	0.092915	0.217729
C62	C	1.007040	-0.001221	0.239154
H63	H	0.942841	-0.005182	0.263177
H64	H	1.046541	-0.023105	0.289907
C65	C	1.097021	-0.064272	0.132041
C66	C	1.018168	-0.069139	0.161540
H67	H	1.103888	-0.106169	0.084167
H68	H	1.110737	-0.000851	0.117609
H69	H	1.129929	-0.082507	0.174343
H70	H	0.985262	-0.050893	0.119243
H71	H	1.004446	-0.132559	0.175963
H72	H	0.322577	0.384887	0.000044
H73	H	1.033259	-0.289642	0.000090
O74	O	0.860617	0.299584	0.610310
C75	C	0.814790	0.356251	0.667625
H76	H	0.844465	0.363176	0.729922
H77	H	0.753662	0.321337	0.676940
C78	C	0.770773	0.447455	0.556981
C79	C	0.807224	0.455967	0.633494
H80	H	0.766102	0.508963	0.535927
H81	H	0.801645	0.409275	0.518366
H82	H	0.719837	0.418356	0.564754
H83	H	0.858162	0.485054	0.625718
H84	H	0.776360	0.494154	0.672107
H85	H	1.012537	0.111576	0.383109
O86	O	0.166076	0.383182	0.000106
C87	C	0.085281	0.356806	0.000094
H88	H	0.075740	0.283141	0.026391
H89	H	0.064671	0.355013	-0.066521
C90	C	0.049471	0.520400	0.022247
C91	C	0.037752	0.429927	0.054552
H92	H	0.020151	0.565506	0.055836
H93	H	0.103904	0.538172	0.022252
H94	H	0.032296	0.518892	-0.033265
H95	H	0.054935	0.431432	0.110059
H96	H	-0.016680	0.412157	0.054558
H97	H	0.558015	0.017022	0.000109
O98	O	1.054149	0.060080	0.610323
C99	C	1.094970	0.009630	0.667643
H100	H	1.059853	0.009461	0.729953
H101	H	1.155285	0.045554	0.676923
C102	C	1.148652	-0.093570	0.557019
C103	C	1.105517	-0.093785	0.633547
H104	H	1.155162	-0.157360	0.535986
H105	H	1.121153	-0.059579	0.518400
H106	H	1.198911	-0.063629	0.564762
H107	H	1.055257	-0.123714	0.625800
H108	H	1.133008	-0.127784	0.672163
H109	H	0.707412	0.031530	0.000085
H110	H	1.039192	0.078678	0.775638
O111	O	0.826349	0.341628	0.389920
C112	C	0.748169	0.319022	0.368563
H113	H	0.743502	0.241395	0.344551
H114	H	0.730923	0.367319	0.317822
C115	C	0.698101	0.429294	0.475705
C116	C	0.692367	0.333948	0.446220
H117	H	0.663678	0.438504	0.523605
H118	H	0.750772	0.444527	0.490092
H119	H	0.683731	0.469530	0.433414
H120	H	0.706746	0.293715	0.488507
H121	H	0.639697	0.318709	0.431841
H122	H	0.861125	0.298929	0.775613
O123	O	0.179422	0.043730	0.000154
C124	C	0.236352	-0.027023	0.000145
H125	H	0.292924	0.005339	0.026432
H126	H	0.249053	-0.056252	-0.066469
C127	C	0.135480	-0.148286	0.022323
C128	C	0.204961	-0.108541	0.054616
H129	H	0.116116	-0.198573	0.055920
H130	H	0.097125	-0.100620	0.022326
H131	H	0.146074	-0.172637	-0.033188
H132	H	0.194364	-0.084181	0.110121
H133	H	0.243314	-0.156205	0.054623
O134	O	0.834115	0.332433	0.217555
C135	C	0.882651	0.391724	0.166992
H136	H	0.942254	0.357777	0.153897
H137	H	0.891458	0.464390	0.200659
C138	C	0.770056	0.445879	0.100051
C139	C	0.843258	0.404181	0.083963
H140	H	0.745756	0.453567	0.048836
H141	H	0.737355	0.405936	0.134118
H142	H	0.777405	0.506430	0.128109
H143	H	0.835908	0.343626	0.055915
H144	H	0.875957	0.444113	0.049888
O145	O	0.341719	0.059631	-0.000007
C146	C	0.392684	0.055197	-0.071936
H147	H	0.403191	0.129852	-0.095918
H148	H	0.364790	0.006908	-0.122289
C149	C	0.458939	-0.076954	-0.020638
C150	C	0.471849	0.014740	-0.050089
H151	H	0.507771	-0.101914	-0.007165
H152	H	0.424602	-0.073970	0.027820
H153	H	0.435692	-0.117183	-0.062604
H154	H	0.495087	0.054971	-0.008121
H155	H	0.506193	0.011762	-0.098541
H156	H	0.695343	0.343947	0.000032
