data_functionalizedCrystal
_audit_creation_method	'MofGen! by Chris Wilmer'
_symmetry_space_group_name_H-M	'P1'
_symmetry_Int_Tables_number	1
_symmetry_cell_setting	triclinic
loop_
_symmetry_equiv_pos_as_xyz
  x,y,z
_cell_length_a	13.033409
_cell_length_b	19.120786
_cell_length_c	13.033109
_cell_angle_alpha	95.029172
_cell_angle_beta	90.883633
_cell_angle_gamma	85.590070
loop_
_atom_site_label
_atom_site_type_symbol
_atom_site_fract_x
_atom_site_fract_y
_atom_site_fract_z
Zn1	Zn	1.614313	-0.447734	-0.356951
Zn2	Zn	1.585317	-0.547588	-0.179548
Zn3	Zn	1.422564	-0.418739	-0.208469
Zn4	Zn	1.435014	-0.551249	-0.373136
O5	O	1.514302	-0.491328	-0.279526
O6	O	1.753616	-0.471583	-0.314541
O7	O	1.546383	-0.516830	-0.040227
O8	O	1.454925	-0.325340	-0.233496
O9	O	1.732313	-0.544945	-0.184204
O10	O	1.595801	-0.346643	-0.342585
O11	O	1.426809	-0.422165	-0.061475
O12	O	1.281066	-0.425714	-0.249190
O13	O	1.476143	-0.551184	-0.514147
O14	O	1.290212	-0.523069	-0.370170
O15	O	1.607873	-0.475133	-0.502256
O16	O	1.558455	-0.645319	-0.199898
O17	O	1.448027	-0.648009	-0.342126
C18	C	1.248522	-0.471643	-0.314575
C19	C	1.134822	-0.463241	-0.329593
C20	C	0.956065	-0.487035	-0.287229
C21	C	1.073580	-0.495721	-0.271702
C22	C	1.501476	-0.671883	-0.269649
C23	C	1.496087	-0.749135	-0.265445
C24	C	1.566859	-0.796461	-0.320326
C25	C	1.561791	-0.869047	-0.316379
C26	C	1.485955	-0.894307	-0.257543
C27	C	1.415175	-0.846975	-0.202660
C28	C	1.420239	-0.774390	-0.206614
C29	C	1.466993	-1.112915	-0.242765
C30	C	1.461936	-1.185506	-0.238813
C31	C	1.608552	-1.207573	-0.352534
C32	C	1.613613	-1.134985	-0.356478
C33	C	1.542830	-1.087660	-0.301599
C34	C	1.480775	-0.968502	-0.253504
C35	C	1.548006	-1.013467	-0.305644
C36	C	1.781120	-0.511090	-0.244341
C37	C	1.894822	-0.519511	-0.229347
C38	C	1.546631	-0.516801	-0.546358
C39	C	1.560408	-0.527656	-0.660066
C40	C	1.527209	-0.310072	-0.289461
C41	C	1.532709	-0.232832	-0.293695
C42	C	1.507387	-0.485658	-0.721274
C43	C	1.521625	-0.496876	-0.838798
C44	C	1.482161	-0.465908	-0.013727
C45	C	1.468597	-0.454871	0.099996
H46	H	0.921500	-0.452804	-0.348283
C47	C	1.393837	-0.395925	-0.853956
C48	C	1.294661	-0.406026	-0.892377
C49	C	1.225766	-0.351745	-0.849971
H50	H	1.414096	-0.351959	-0.871979
H51	H	1.394107	-0.396227	-0.781097
H52	H	1.294395	-0.405717	-0.965220
H53	H	1.274371	-0.449982	-0.874356
H54	H	1.226036	-0.352047	-0.777112
H55	H	1.246034	-0.307782	-0.867998
H56	H	1.158466	-0.358595	-0.876026
H57	H	1.108142	-0.529963	-0.210654
C58	C	1.695799	-1.107473	-0.420449
C59	C	1.648672	-1.067769	-0.495871
C60	C	1.724352	-1.042408	-0.554810
H61	H	1.737261	-1.145989	-0.452667
H62	H	1.737634	-1.078671	-0.377047
H63	H	1.606855	-1.096569	-0.539268
H64	H	1.607217	-1.029243	-0.463682
H65	H	1.766188	-1.013606	-0.511408
H66	H	1.765810	-1.080928	-0.587021
H67	H	1.692388	-1.015461	-0.605984
H68	H	1.451449	-0.441398	-0.686671
C69	C	1.343234	-0.723086	-0.147106
C70	C	1.243457	-0.735437	-0.181671
C71	C	1.172488	-0.688196	-0.126871
H72	H	1.356963	-0.676213	-0.157844
H73	H	1.349036	-0.729546	-0.075741
H74	H	1.237659	-0.728971	-0.253018
H75	H	1.229695	-0.782300	-0.170930
H76	H	1.178289	-0.694655	-0.055506
H77	H	1.186226	-0.641326	-0.137613
H78	H	1.104781	-0.696573	-0.150308
C79	C	1.398336	-0.995791	-0.189602
C80	C	1.337421	-0.938813	-0.142395
C81	C	1.261459	-0.963927	-0.083535
H82	H	1.430012	-1.022730	-0.138284
H83	H	1.356437	-1.024533	-0.233027
H84	H	1.379314	-0.910084	-0.098974
H85	H	1.305720	-0.911869	-0.193689
H86	H	1.219560	-0.992669	-0.126959
H87	H	1.293144	-0.990866	-0.032222
H88	H	1.220113	-0.925272	-0.051505
H89	H	1.616340	-0.571919	-0.694670
C90	C	1.088551	-0.417593	-0.410918
C91	C	0.981193	-0.418033	-0.410132
C92	C	0.938533	-0.375985	-0.485024
H93	H	1.113518	-0.435630	-0.476835
H94	H	1.107461	-0.370726	-0.396324
H95	H	0.962292	-0.464891	-0.424732
H96	H	0.956198	-0.399991	-0.344233
H97	H	0.957443	-0.329118	-0.470430
H98	H	0.963507	-0.394026	-0.550935
H99	H	0.865686	-0.376273	-0.484494
H100	H	0.929388	-0.553750	-0.168303
C101	C	1.649239	-0.769179	-0.384311
C102	C	1.710113	-0.826165	-0.431552
C103	C	1.786001	-0.801063	-0.490519
H104	H	1.691190	-0.740430	-0.340983
H105	H	1.617466	-0.742252	-0.435610
H106	H	1.741885	-0.853080	-0.380260
H107	H	1.668191	-0.854919	-0.474898
H108	H	1.754228	-0.774136	-0.541819
H109	H	1.827945	-0.772313	-0.447184
H110	H	1.827308	-0.839723	-0.522588
H111	H	1.619429	-0.907577	-0.361060
H112	H	1.577561	-0.541142	-0.873397
C113	C	1.685267	-1.259068	-0.412091
C114	C	1.664589	-1.328043	-0.396061
C115	C	1.735228	-1.375499	-0.450926
H116	H	1.753081	-1.250893	-0.388818
H117	H	1.679382	-1.252653	-0.483465
H118	H	1.670482	-1.334455	-0.324702
H119	H	1.596788	-1.336240	-0.419339
H120	H	1.729344	-1.369083	-0.522300
H121	H	1.803038	-1.367317	-0.427648
H122	H	1.721202	-1.422303	-0.440065
H123	H	1.409360	-1.074388	-0.198079
C124	C	1.379482	-1.212795	-0.174919
C125	C	1.318557	-1.155815	-0.127728
C126	C	1.242588	-1.180927	-0.068875
H127	H	1.411151	-1.239729	-0.123592
H128	H	1.337590	-1.241540	-0.218346
H129	H	1.360443	-1.127082	-0.084304
H130	H	1.286863	-1.128875	-0.179031
H131	H	1.200696	-1.209672	-0.112302
H132	H	1.274267	-1.207861	-0.017554
H133	H	1.201235	-1.142271	-0.036856
H134	H	1.353423	-0.867547	-0.154760
H135	H	1.609750	-0.992899	-0.353553
