data_functionalizedCrystal
_audit_creation_method	'MofGen! by Chris Wilmer'
_symmetry_space_group_name_H-M	'P1'
_symmetry_Int_Tables_number	1
_symmetry_cell_setting	triclinic
loop_
_symmetry_equiv_pos_as_xyz
  x,y,z
_cell_length_a	16.109301
_cell_length_b	17.699083
_cell_length_c	14.586319
_cell_angle_alpha	89.995320
_cell_angle_beta	89.999213
_cell_angle_gamma	83.372248
loop_
_atom_site_label
_atom_site_type_symbol
_atom_site_fract_x
_atom_site_fract_y
_atom_site_fract_z
O1	O	1.102963	0.097285	-0.076184
O2	O	0.860880	0.109391	-0.076199
O3	O	0.988761	-0.006841	-0.076183
O4	O	0.975082	0.213517	-0.076200
O5	O	0.988752	-0.006843	0.076298
O6	O	0.860872	0.109390	0.076282
O7	O	1.102954	0.097283	0.076297
Cu8	Cu	0.981912	0.103336	0.090212
Cu9	Cu	0.981923	0.103338	-0.090114
O10	O	0.975074	0.213516	0.076281
C11	C	0.829902	0.108900	0.000040
C12	C	0.737609	0.107430	0.000034
C13	C	0.515224	0.172981	0.000040
C14	C	0.428506	0.171594	0.000046
C15	C	0.448618	0.033688	0.000053
C16	C	0.535334	0.035076	0.000053
C17	C	0.568635	0.104725	0.000042
C18	C	0.395200	0.101949	0.000047
C19	C	0.301177	0.100445	0.000054
C20	C	0.662664	0.106230	0.000037
C21	C	0.988267	-0.035040	0.000057
C22	C	0.986796	-0.119060	0.000058
C23	C	1.061860	-0.167574	0.000064
C24	C	1.060473	-0.246519	0.000055
C25	C	0.984022	-0.276949	0.000048
C26	C	0.908953	-0.228429	0.000039
C27	C	0.910341	-0.149485	0.000041
C28	C	0.903356	-0.546800	0.000031
C29	C	0.901974	-0.625750	0.000033
C30	C	1.053488	-0.643834	0.000046
C31	C	1.054876	-0.564890	0.000048
C32	C	0.979807	-0.516377	0.000034
C33	C	0.981312	-0.430776	0.000041
C34	C	0.982517	-0.362549	0.000047
C35	C	1.133933	0.097774	0.000056
C36	C	1.226226	0.099244	0.000055
C37	C	0.975568	0.241714	0.000038
C38	C	0.977039	0.325734	0.000032
N39	N	0.981911	0.103334	0.217044
N40	N	0.981931	0.103334	-0.216946
C41	C	1.038555	0.051884	0.452057
C42	C	1.038558	0.051882	0.548038
C43	C	0.925280	0.154787	0.548034
C44	C	0.925274	0.154785	0.452054
C45	C	0.981917	0.103334	0.404068
C46	C	0.981925	0.103334	0.596029
C47	C	0.981927	0.103333	0.700096
C48	C	0.981914	0.103334	0.299995
H49	H	0.421494	-0.023018	0.000067
O50	O	0.827726	-0.655347	0.000179
C51	C	0.738240	-0.734026	0.079128
C52	C	0.822339	-0.700544	0.079087
H53	H	0.733864	-0.770588	0.142908
H54	H	0.684790	-0.685823	0.079174
H55	H	0.733830	-0.770500	0.015285
H56	H	0.826830	-0.664079	0.142918
H57	H	0.875748	-0.748783	0.078993
H58	H	0.542334	0.229694	0.000038
O59	O	0.376540	0.237849	-0.000084
C60	C	0.267001	0.316341	-0.079116
C61	C	0.325791	0.241267	-0.079072
H62	H	0.225968	0.319136	-0.142980
H63	H	0.225843	0.319152	-0.015346
H64	H	0.305720	0.366342	-0.079079
H65	H	0.287138	0.191224	-0.079141
H66	H	0.366952	0.238523	-0.142837
H67	H	0.879165	0.196679	0.587113
H68	H	1.084675	0.009988	0.412989
H69	H	1.114613	-0.683343	0.000052
H70	H	0.879149	0.196682	0.412979
H71	H	0.578824	-0.020510	0.000058
O72	O	1.136198	-0.138144	0.000028
C73	C	1.286338	-0.164423	0.000084
C74	C	1.202207	-0.197850	0.000108
H75	H	1.339728	-0.212679	0.000168
H76	H	1.290834	-0.127939	-0.063744
H77	H	1.290731	-0.127893	0.063882
H78	H	1.197758	-0.234413	-0.063647
H79	H	1.197747	-0.234290	0.063978
O80	O	0.830361	-0.499790	0.000071
C81	C	0.679928	-0.490190	0.000020
C82	C	0.762537	-0.543521	-0.000008
H83	H	0.625071	-0.525526	-0.000064
H84	H	0.676729	-0.452798	0.063849
H85	H	0.676831	-0.452758	-0.063777
H86	H	0.765689	-0.581001	0.063745
H87	H	0.765701	-0.580861	-0.063880
O88	O	1.133370	-0.293673	-0.000102
C89	C	1.219732	-0.393316	-0.079073
C90	C	1.137150	-0.339947	-0.079015
H91	H	1.222808	-0.430753	-0.142857
H92	H	1.274640	-0.358040	-0.079122
H93	H	1.222859	-0.430702	-0.015234
H94	H	1.133941	-0.302551	-0.142842
H95	H	1.082281	-0.375269	-0.078918
H96	H	1.084677	0.009985	0.587108
H97	H	1.117130	-0.540119	0.000058
H98	H	0.846705	-0.253211	0.000027
O99	O	0.837347	-0.102464	0.000076
C100	C	0.686914	-0.092853	-0.000001
C101	C	0.769518	-0.146190	-0.000012
H102	H	0.632053	-0.128184	-0.000091
H103	H	0.683710	-0.055457	0.063825
H104	H	0.683830	-0.055425	-0.063801
H105	H	0.772658	-0.183666	0.063745
H106	H	0.772688	-0.183534	-0.063880
