data_functionalizedCrystal
_audit_creation_method	'MofGen! by Chris Wilmer'
_symmetry_space_group_name_H-M	'P1'
_symmetry_Int_Tables_number	1
_symmetry_cell_setting	triclinic
loop_
_symmetry_equiv_pos_as_xyz
  x,y,z
_cell_length_a	19.188930
_cell_length_b	27.732025
_cell_length_c	18.266242
_cell_angle_alpha	90.008162
_cell_angle_beta	89.977082
_cell_angle_gamma	82.889129
loop_
_atom_site_label
_atom_site_type_symbol
_atom_site_fract_x
_atom_site_fract_y
_atom_site_fract_z
O1	O	0.925757	0.060349	-0.061093
O2	O	1.259091	0.393682	0.272240
O3	O	1.592424	0.727015	0.605574
O4	O	0.722393	0.068472	-0.061040
O5	O	1.055727	0.401806	0.272294
O6	O	1.389060	0.735139	0.605627
O7	O	0.830400	-0.005968	-0.061090
O8	O	1.163733	0.327366	0.272243
O9	O	1.497066	0.660699	0.605577
O10	O	0.817751	0.134789	-0.061042
O11	O	1.151084	0.468122	0.272291
O12	O	1.484418	0.801455	0.605624
O13	O	0.830381	-0.005971	0.060672
O14	O	1.163715	0.327362	0.394005
O15	O	1.497048	0.660695	0.727338
O16	O	0.722375	0.068469	0.060722
O17	O	1.055708	0.401802	0.394056
O18	O	1.389042	0.735135	0.727389
O19	O	0.925739	0.060345	0.060669
O20	O	1.259073	0.393678	0.394002
O21	O	1.592406	0.727011	0.727336
Zn22	Zn	0.824054	0.064406	0.080028
Zn23	Zn	1.157388	0.397739	0.413361
Zn24	Zn	1.490721	0.731073	0.746695
Zn25	Zn	0.824078	0.064411	-0.080399
Zn26	Zn	1.157412	0.397744	0.252935
Zn27	Zn	1.490745	0.731078	0.586268
O28	O	0.817733	0.134785	0.060720
O29	O	1.151066	0.468118	0.394053
O30	O	1.484400	0.801452	0.727386
C31	C	0.696375	0.068207	-0.000152
C32	C	1.029708	0.401541	0.333181
C33	C	1.363042	0.734874	0.666514
C34	C	0.618876	0.067418	-0.000133
C35	C	0.952209	0.400751	0.333200
C36	C	1.285542	0.734084	0.666533
C37	C	0.830127	-0.023977	-0.000216
C38	C	1.163461	0.309356	0.333117
C39	C	1.496794	0.642689	0.666450
C40	C	0.829335	-0.077635	-0.000238
C41	C	1.162669	0.255698	0.333095
C42	C	1.496002	0.589031	0.666429
C43	C	0.573668	0.111097	-0.000130
C44	C	0.907001	0.444430	0.333203
C45	C	1.240335	0.777763	0.666537
C46	C	0.500849	0.110355	-0.000138
C47	C	0.834182	0.443688	0.333195
C48	C	1.167516	0.777021	0.666528
C49	C	0.473241	0.065931	-0.000165
C50	C	0.806574	0.399265	0.333169
C51	C	1.139907	0.732598	0.666502
C52	C	0.518458	0.022247	-0.000164
C53	C	0.851792	0.355580	0.333170
C54	C	1.185125	0.688913	0.666503
C55	C	0.591276	0.022990	-0.000148
C56	C	0.924609	0.356323	0.333185
C57	C	1.257942	0.689656	0.666519
N58	N	0.365487	0.031977	-0.041647
N59	N	0.698821	0.365310	0.291687
N60	N	1.032154	0.698643	0.625020
N61	N	0.296313	0.031274	-0.041663
N62	N	0.629647	0.364607	0.291670
N63	N	0.962980	0.697940	0.625004
C64	C	0.253847	0.063690	-0.000210
C65	C	0.587180	0.397023	0.333123
C66	C	0.920513	0.730356	0.666457
N67	N	0.283166	0.096843	0.041251
N68	N	0.616499	0.430176	0.374584
N69	N	0.949833	0.763509	0.707917
N70	N	0.352346	0.097547	0.041264
N71	N	0.685679	0.430880	0.374597
N72	N	1.019013	0.764214	0.707930
C73	C	0.394284	0.065121	-0.000181
C74	C	0.727617	0.398454	0.333152
C75	C	1.060950	0.731787	0.666486
C76	C	0.129680	0.106567	-0.000215
C77	C	0.463013	0.439900	0.333119
C78	C	0.796347	0.773234	0.666452
C79	C	0.056860	0.105823	-0.000218
C80	C	0.390193	0.439157	0.333115
C81	C	0.723527	0.772490	0.666448
C82	C	0.074471	0.017714	-0.000251
C83	C	0.407804	0.351047	0.333082
C84	C	0.741138	0.684381	0.666415
C85	C	0.147289	0.018459	-0.000240
C86	C	0.480623	0.351792	0.333093
C87	C	0.813956	0.685126	0.666426
C88	C	0.174889	0.062887	-0.000225
C89	C	0.508222	0.396220	0.333108
C90	C	0.841556	0.729554	0.666441
C91	C	0.823717	-0.460816	-0.066566
C92	C	1.157050	-0.127483	0.266767
C93	C	1.490383	0.205851	0.600100
C94	C	0.826681	-0.259148	-0.066591
C95	C	1.160015	0.074186	0.266743
C96	C	1.493348	0.407519	0.600076
O97	O	0.827101	-0.233077	-0.123040
O98	O	1.160434	0.100256	0.210294
O99	O	1.493768	0.433590	0.543627
N100	N	0.827042	-0.233927	-0.000220
N101	N	1.160375	0.099406	0.333113
N102	N	1.493709	0.432739	0.666446
C103	C	0.826666	-0.259128	0.066161
C104	C	1.160000	0.074206	0.399494
C105	C	1.493333	0.407539	0.732828
O106	O	0.827048	-0.233049	0.122613
O107	O	1.160382	0.100284	0.455946
O108	O	1.493715	0.433617	0.789279
C109	C	0.823707	-0.460796	0.066185
C110	C	1.157040	-0.127462	0.399518
C111	C	1.490373	0.205871	0.732851
C112	C	0.823339	-0.486013	-0.000190
C113	C	1.156672	-0.152679	0.333143
C114	C	1.490005	0.180654	0.666477
C115	C	0.823350	-0.486033	-0.132936
C116	C	1.156683	-0.152700	0.200398
C117	C	1.490016	0.180634	0.533731
C118	C	0.822605	-0.536447	-0.132929
C119	C	1.155938	-0.203114	0.200405
C120	C	1.489271	0.130220	0.533738
C121	C	0.822227	-0.561644	-0.066553
C122	C	1.155560	-0.228310	0.266781
C123	C	1.488893	0.105023	0.600114
C124	C	0.822594	-0.536426	-0.000183
C125	C	1.155927	-0.203093	0.333150
C126	C	1.489260	0.130240	0.666483
C127	C	0.823336	-0.485996	0.132565
C128	C	1.156669	-0.152662	0.465898
C129	C	1.490002	0.180671	0.799232
C130	C	0.822598	-0.536416	0.132565
C131	C	1.155931	-0.203083	0.465898
C132	C	1.489264	0.130251	0.799232
C133	C	0.822230	-0.561633	0.066190
C134	C	1.155563	-0.228300	0.399524
C135	C	1.488896	0.105034	0.732857
C136	C	0.821471	-0.612037	0.066199
C137	C	1.154804	-0.278703	0.399533
C138	C	1.488138	0.054630	0.732866
N139	N	0.821110	-0.637257	-0.000171
N140	N	1.154444	-0.303924	0.333162
N141	N	1.487777	0.029410	0.666496
C142	C	0.821488	-0.612060	-0.066547
C143	C	1.154821	-0.278727	0.266786
C144	C	1.488155	0.054606	0.600120
C145	C	0.828219	-0.153249	0.066144
C146	C	1.161552	0.180084	0.399477
C147	C	1.494885	0.513418	0.732811
C148	C	0.828957	-0.102832	0.066138
C149	C	1.162291	0.230501	0.399472
C150	C	1.495624	0.563835	0.732805
C151	C	0.828974	-0.102856	-0.066614
C152	C	1.162307	0.230478	0.266720
C153	C	1.495640	0.563811	0.600053
C154	C	0.828230	-0.153273	-0.066607
C155	C	1.161563	0.180060	0.266726
C156	C	1.494897	0.513394	0.600059
C157	C	0.827858	-0.178469	-0.000226
C158	C	1.161191	0.154864	0.333107
C159	C	1.494525	0.488198	0.666440
C160	C	0.819923	-0.717933	-0.066528
C161	C	1.153256	-0.384600	0.266806
C162	C	1.486590	-0.051266	0.600139
C163	C	0.819175	-0.768351	-0.066515
C164	C	1.152508	-0.435017	0.266818
C165	C	1.485842	-0.101684	0.600152
C166	C	0.819162	-0.768323	0.066236
C167	C	1.152496	-0.434990	0.399570
C168	C	1.485829	-0.101656	0.732903
C169	C	0.819907	-0.717909	0.066224
C170	C	1.153240	-0.384576	0.399557
C171	C	1.486573	-0.051243	0.732891
C172	C	0.820289	-0.692716	-0.000164
C173	C	1.153623	-0.359382	0.333169
C174	C	1.486956	-0.026049	0.666503
O175	O	0.821059	-0.638139	0.122619
O176	O	1.154392	-0.304806	0.455952
O177	O	1.487725	0.028528	0.789286
O178	O	0.821122	-0.638149	-0.122990
O179	O	1.154455	-0.304815	0.210343
O180	O	1.487788	0.028518	0.543677
C181	C	0.824462	-0.410402	-0.066573
C182	C	1.157795	-0.077069	0.266760
C183	C	1.491128	0.256264	0.600094
C184	C	0.824829	-0.385185	-0.000204
C185	C	1.158162	-0.051852	0.333130
C186	C	1.491495	0.281482	0.666463
C187	C	0.824451	-0.410382	0.066172
C188	C	1.157784	-0.077048	0.399506
C189	C	1.491117	0.256285	0.732839
C190	C	0.825567	-0.334768	-0.000209
C191	C	1.158901	-0.001435	0.333124
C192	C	1.492234	0.331898	0.666457
C193	C	0.825945	-0.309572	-0.066585
C194	C	1.159279	0.023762	0.266748
C195	C	1.492612	0.357095	0.600081
C196	C	0.825585	-0.334792	-0.132956
C197	C	1.158918	-0.001459	0.200377
C198	C	1.492251	0.331875	0.533711
C199	C	0.824840	-0.385206	-0.132949
C200	C	1.158173	-0.051872	0.200384
C201	C	1.491506	0.281461	0.533718
C202	C	0.824811	-0.385161	0.132543
C203	C	1.158145	-0.051828	0.465876
C204	C	1.491478	0.281505	0.799209
C205	C	0.825556	-0.334748	0.132531
C206	C	1.158889	-0.001414	0.465864
C207	C	1.492222	0.331919	0.799197
C208	C	0.825934	-0.309551	0.066155
C209	C	1.159267	0.023782	0.399488
C210	C	1.492600	0.357116	0.732821
C211	C	0.951758	0.060610	-0.000220
C212	C	1.285091	0.393943	0.333113
C213	C	1.618424	0.727276	0.666447
C214	C	1.029257	0.061400	-0.000244
C215	C	1.362590	0.394733	0.333090
C216	C	1.695924	0.728066	0.666423
C217	C	0.818005	0.152795	-0.000156
C218	C	1.151338	0.486128	0.333178
C219	C	1.484672	0.819461	0.666511
C220	C	0.818797	0.206453	-0.000139
C221	C	1.152131	0.539786	0.333194
C222	C	1.485464	0.873119	0.666528
N223	N	0.824043	0.064402	0.189515
N224	N	1.157376	0.397736	0.522848
N225	N	1.490710	0.731069	0.856182
N226	N	0.824095	0.064411	-0.189886
N227	N	1.157428	0.397744	0.143448
N228	N	1.490762	0.731078	0.476781
C229	C	0.871884	0.031456	0.227801
C230	C	1.205217	0.364790	0.561135
C231	C	1.538550	0.698123	0.894468
C232	C	0.871888	0.031454	0.304446
C233	C	1.205221	0.364787	0.637780
C234	C	1.538555	0.698121	0.971113
C235	C	0.824059	0.064406	0.342802
C236	C	1.157392	0.397740	0.676135
C237	C	1.490725	0.731073	1.009469
C238	C	0.776209	0.097355	0.304506
C239	C	1.109542	0.430688	0.637840
C240	C	1.442876	0.764021	0.971173
C241	C	0.776201	0.097353	0.227863
C242	C	1.109535	0.430686	0.561196
C243	C	1.442868	0.764019	0.894529
N244	N	0.814705	0.107197	0.463150
N245	N	1.148038	0.440530	0.796484
N246	N	1.481372	0.773863	1.129817
N247	N	0.814717	0.107197	0.535958
N248	N	1.148050	0.440530	0.869292
N249	N	1.481383	0.773864	1.202625
C250	C	0.824078	0.064413	0.573724
C251	C	1.157411	0.397747	0.907058
C252	C	1.490745	0.731080	1.240391
N253	N	0.833441	0.021628	0.535932
N254	N	1.166775	0.354961	0.869265
N255	N	1.500108	0.688294	1.202598
N256	N	0.833433	0.021628	0.463117
N257	N	1.166767	0.354961	0.796450
N258	N	1.500100	0.688294	1.129784
C259	C	0.824061	0.064412	0.425909
C260	C	1.157395	0.397745	0.759242
C261	C	1.490728	0.731078	1.092576
C262	C	0.871926	0.031462	0.695118
C263	C	1.205260	0.364795	1.028451
C264	C	1.538593	0.698129	1.361785
C265	C	0.871926	0.031459	0.771764
C266	C	1.205259	0.364792	1.105098
C267	C	1.538592	0.698126	1.438431
C268	C	0.776250	0.097364	0.771823
C269	C	1.109583	0.430697	1.105156
C270	C	1.442917	0.764031	1.438489
C271	C	0.776247	0.097363	0.695178
C272	C	1.109580	0.430696	1.028511
C273	C	1.442914	0.764029	1.361844
C274	C	0.824089	0.064412	0.656830
C275	C	1.157422	0.397746	0.990163
C276	C	1.490756	0.731079	1.323497
H277	H	0.596134	0.147273	-0.000119
H278	H	0.929468	0.480607	0.333214
H279	H	1.262801	0.813940	0.666547
H280	H	0.464034	0.145925	-0.000133
H281	H	0.797367	0.479258	0.333200
H282	H	1.130700	0.812591	0.666533
F283	F	0.725332	0.132430	0.654427
F284	F	1.058665	0.465764	0.987761
F285	F	1.391998	0.799097	1.321094
F286	F	0.922798	-0.003613	0.186991
F287	F	1.256131	0.329720	0.520324
F288	F	1.589464	0.663053	0.853657
H289	H	0.824506	-0.405672	0.186595
H290	H	1.157839	-0.072338	0.519929
H291	H	1.491172	0.260995	0.853262
H292	H	0.910880	0.004630	0.663894
H293	H	1.244213	0.337964	0.997227
H294	H	1.577547	0.671297	1.330561
F295	F	0.922843	-0.003611	0.812513
F296	F	1.256176	0.329723	1.145846
F297	F	1.589509	0.663056	1.479180
F298	F	0.489075	-0.025032	-0.000188
F299	F	0.822408	0.308301	0.333145
F300	F	1.155742	0.641635	0.666478
F301	F	0.829367	-0.076030	-0.137256
F302	F	1.162700	0.257303	0.196077
F303	F	1.496033	0.590637	0.529410
F304	F	0.725342	0.132431	0.812640
F305	F	1.058675	0.465764	1.145973
F306	F	1.392009	0.799098	1.479306
H307	H	0.051994	-0.018457	-0.000318
H308	H	0.385327	0.314877	0.333015
H309	H	0.718660	0.648210	0.666348
F310	F	0.195405	-0.028031	-0.000248
F311	F	0.528738	0.305302	0.333086
F312	F	0.862072	0.638636	0.666419
H313	H	0.628085	-0.012580	-0.000151
H314	H	0.961418	0.320753	0.333182
H315	H	1.294751	0.654087	0.666515
F316	F	0.824449	-0.412037	-0.203595
F317	F	1.157783	-0.078704	0.129738
F318	F	1.491116	0.254629	0.463072
F319	F	0.818782	-0.795186	-0.137163
F320	F	1.152115	-0.461852	0.196170
F321	F	1.485449	-0.128519	0.529503
H322	H	0.825887	-0.314268	-0.187002
H323	H	1.159221	0.019066	0.146332
H324	H	1.492554	0.352399	0.479665
H325	H	0.152153	0.142743	-0.000192
H326	H	0.485486	0.476076	0.333141
H327	H	0.818819	0.809410	0.666475
H328	H	0.020052	0.141394	-0.000212
H329	H	0.353385	0.474727	0.333122
H330	H	0.686718	0.808060	0.666455
F331	F	0.922809	-0.003613	0.345200
F332	F	1.256143	0.329720	0.678534
F333	F	1.589476	0.663053	1.011867
F334	F	0.820330	-0.691127	-0.137185
F335	F	1.153663	-0.357794	0.196148
F336	F	1.486997	-0.024460	0.529481
H337	H	0.822310	-0.556975	-0.186978
H338	H	1.155643	-0.223641	0.146355
H339	H	1.488977	0.109692	0.479689
H340	H	0.737243	0.124182	0.196689
H341	H	1.070576	0.457515	0.530023
H342	H	1.403910	0.790849	0.863356
H343	H	0.737264	0.124184	0.335739
H344	H	1.070598	0.457517	0.669072
H345	H	1.403931	0.790851	1.002406
H346	H	0.823660	-0.465524	-0.186990
H347	H	1.156993	-0.132190	0.146343
H348	H	1.490326	0.201143	0.479677
F349	F	0.827840	-0.180106	-0.137251
F350	F	1.161173	0.153227	0.196082
F351	F	1.494506	0.486560	0.529415
H352	H	0.829243	-0.082303	0.120187
H353	H	1.162577	0.251030	0.453521
H354	H	1.495910	0.584363	0.786854
F355	F	0.827820	-0.180058	0.136800
F356	F	1.161153	0.153275	0.470134
F357	F	1.494486	0.486608	0.803467
H358	H	0.823643	-0.465473	0.186615
H359	H	1.156976	-0.132140	0.519948
H360	H	1.490309	0.201194	0.853281
H361	H	0.822295	-0.556928	0.186622
H362	H	1.155628	-0.223595	0.519955
H363	H	1.488962	0.109739	0.853288
H364	H	0.820178	-0.697374	0.120272
H365	H	1.153512	-0.364041	0.453605
H366	H	1.486845	-0.030707	0.786938
H367	H	0.818852	-0.788847	0.120278
H368	H	1.152185	-0.455514	0.453611
H369	H	1.485519	-0.122180	0.786945
H370	H	0.825848	-0.314220	0.186585
H371	H	1.159182	0.019114	0.519918
H372	H	1.492515	0.352447	0.853252
