data_functionalizedCrystal
_audit_creation_method	'MofGen! by Chris Wilmer'
_symmetry_space_group_name_H-M	'P1'
_symmetry_Int_Tables_number	1
_symmetry_cell_setting	triclinic
loop_
_symmetry_equiv_pos_as_xyz
  x,y,z
_cell_length_a	14.628931
_cell_length_b	14.560438
_cell_length_c	14.628931
_cell_angle_alpha	59.998856
_cell_angle_beta	90.000000
_cell_angle_gamma	119.994281
loop_
_atom_site_label
_atom_site_type_symbol
_atom_site_fract_x
_atom_site_fract_y
_atom_site_fract_z
Zr1	Zr	-0.880742	1.005213	-0.119943
O2	O	-0.734804	1.196802	-0.265901
O3	O	-0.925463	0.813623	-0.075202
O4	O	-0.925487	1.005212	-0.265904
O5	O	-0.734780	1.005214	0.075233
O6	O	-1.075919	1.005212	-0.265904
O7	O	-0.734781	1.005213	-0.075199
O8	O	-1.075877	0.662494	0.075228
O9	O	-0.734823	1.347931	-0.265899
O10	O	-1.056822	0.892427	-0.056117
O11	O	-0.944556	0.892427	0.056148
O12	O	-0.944584	1.117998	-0.168379
O13	O	-0.832318	1.117999	-0.056114
Zr14	Zr	-1.120663	1.005213	0.119978
Zr15	Zr	-1.120664	1.005212	-0.119943
Zr16	Zr	-0.880741	1.005213	0.119978
Zr17	Zr	-0.880771	1.246246	-0.119940
Zr18	Zr	-1.120634	0.764179	0.119974
O19	O	-1.075942	1.196802	0.075236
O20	O	-1.075942	1.196801	-0.265901
O21	O	-0.734804	1.196803	0.075236
O22	O	-1.266601	0.813623	0.265936
O23	O	-1.266601	0.813622	-0.075201
O24	O	-0.925463	0.813624	0.265935
O25	O	-1.266625	1.005212	-0.075198
O26	O	-1.075918	1.005213	0.265939
O27	O	-0.925486	1.005214	0.265938
O28	O	-1.266624	1.005212	0.075234
O29	O	-0.925529	1.347931	-0.265899
O30	O	-1.075876	0.662495	0.265933
O31	O	-1.266582	0.662494	0.265933
O32	O	-1.266583	0.662494	0.075228
O33	O	-0.734822	1.347932	-0.075194
O34	O	-0.925528	1.347931	-0.075193
O35	O	-1.056821	0.892427	0.168414
O36	O	-1.169087	0.892427	0.056149
O37	O	-1.056849	1.117998	-0.056114
O38	O	-0.944583	1.117999	0.056152
C39	C	-1.000666	0.703717	0.000013
C40	C	-1.000653	0.601392	0.000011
C41	C	-1.083547	0.470076	0.082886
C42	C	-1.083594	0.373895	0.082895
C43	C	-0.917850	0.540363	-0.082856
C44	C	-0.917799	0.636541	-0.082859
C45	C	-1.166401	0.434926	0.165756
C46	C	-1.249302	0.303603	0.248637
C47	C	-1.249349	0.207423	0.248646
C48	C	-1.166496	0.242566	0.165774
C49	C	-0.700597	1.005214	0.000017
C50	C	-0.598744	1.005214	0.000017
C51	C	-0.609012	0.893315	0.055706
C52	C	-0.503743	0.893313	0.055707
C53	C	-0.300808	1.005212	0.000018
C54	C	-0.402661	1.005212	0.000018
C55	C	-1.000703	1.005212	-0.300087
C56	C	-1.000703	1.005212	-0.401940
C57	C	-1.000739	1.306709	0.000022
C58	C	-1.000752	1.409034	0.000024
C59	C	-0.945025	1.117110	-0.503039
C60	C	-0.945024	1.117113	-0.608311
C61	C	-1.000702	1.005214	0.300122
C62	C	-1.000702	1.005214	0.401975
C63	C	-1.300771	0.703716	0.000013
C64	C	-1.402612	0.601391	0.000012
C65	C	-1.000665	0.703718	0.300117
C66	C	-1.000653	0.601393	0.401969
C67	C	-1.300771	0.703717	0.300118
C68	C	-1.402611	0.601392	0.401969
C69	C	-0.700634	1.306709	-0.300083
C70	C	-0.598793	1.409034	-0.401935
C71	C	-0.700634	1.306710	0.000022
C72	C	-0.598793	1.409035	0.000023
C73	C	-1.000740	1.306708	-0.300083
C74	C	-1.000752	1.409033	-0.401934
C75	C	-1.392324	0.555771	-0.055680
C76	C	-1.497581	0.450012	-0.055683
C77	C	-1.056338	0.555773	0.503068
C78	C	-1.056327	0.450015	0.608338
C79	C	-1.503707	0.555772	0.391686
C80	C	-1.608965	0.450013	0.496954
H81	H	-1.166535	0.164243	0.165795
C82	C	-0.391007	1.134644	-0.064399
N83	N	-0.382235	1.232133	-0.112916
H84	H	-0.897364	1.212909	-0.511658
C85	C	-1.610347	0.457393	0.064422
N86	N	-1.619136	0.497320	0.112936
H87	H	-1.393986	0.562157	0.488705
H88	H	-1.511950	0.443618	0.606686
H89	H	-1.489344	0.562156	0.047685
C90	C	-1.065165	0.875781	-0.480862
N91	N	-1.113742	0.778292	-0.392608
C92	C	-1.275155	0.608768	-0.120085
N93	N	-1.186903	0.648680	-0.168592
C94	C	-1.166356	0.540719	0.165753
N95	N	-1.166323	0.620403	0.165749
C96	C	-1.726128	0.397013	0.485291
N97	N	-1.814379	0.357092	0.476507
H98	H	-1.316752	0.275000	0.316113
C99	C	-1.120761	0.608777	0.514722
N100	N	-1.169289	0.648696	0.523502
H101	H	-0.695737	0.797516	0.103388
H102	H	-1.048373	0.909413	-0.393322
C103	C	-1.340546	0.062970	0.339809
N104	N	-1.409246	-0.045833	0.408470
H105	H	-0.850396	0.568965	-0.150327
C106	C	-1.485912	0.397011	-0.120096
N107	N	-1.477124	0.357088	-0.168614
H108	H	-0.512360	0.797512	0.103378
C109	C	-0.826614	0.780996	-0.174028
N110	N	-0.757930	0.889802	-0.242698
C111	C	-0.880625	1.246540	-0.725477
N112	N	-0.832119	1.344029	-0.813731
C113	C	-1.120737	0.397016	0.725506
N114	N	-1.169252	0.357096	0.813761
H115	H	-0.512019	1.101013	-0.047658
C116	C	-0.936236	0.457375	0.480886
N117	N	-0.887740	0.497276	0.392631
H118	H	-0.952965	0.562159	0.393348
H119	H	-1.512335	0.595013	0.304952
