data_functionalizedCrystal
_audit_creation_method	'MofGen! by Chris Wilmer'
_symmetry_space_group_name_H-M	'P1'
_symmetry_Int_Tables_number	1
_symmetry_cell_setting	triclinic
loop_
_symmetry_equiv_pos_as_xyz
  x,y,z
_cell_length_a	19.288864
_cell_length_b	9.616153
_cell_length_c	10.540510
_cell_angle_alpha	89.999754
_cell_angle_beta	83.824779
_cell_angle_gamma	90.020701
loop_
_atom_site_label
_atom_site_type_symbol
_atom_site_fract_x
_atom_site_fract_y
_atom_site_fract_z
O1	O	0.922398	0.116085	0.158340
O2	O	0.720279	0.115989	0.179701
O3	O	0.825961	0.116038	-0.015791
O4	O	0.816717	0.116035	0.353833
O5	O	0.825946	-0.115253	-0.015787
O6	O	0.720264	-0.115303	0.179705
O7	O	0.922384	-0.115207	0.158345
Zn8	Zn	0.821322	-0.151977	0.169026
Zn9	Zn	0.821341	0.152759	0.169020
O10	O	0.816702	-0.115256	0.353837
C11	C	0.694391	0.000331	0.179016
C12	C	0.617273	0.000294	0.176953
N13	N	0.821314	-0.359952	0.169029
C14	C	0.573336	0.000315	0.291659
C15	C	0.500876	0.000331	0.289720
C16	C	0.472357	0.000353	0.173069
C17	C	0.516304	0.000324	0.058348
C18	C	0.588762	0.000295	0.060290
C19	C	0.363493	0.081432	0.081367
C20	C	0.291036	0.081470	0.079430
C21	C	0.248872	0.000437	0.167076
C22	C	0.279172	-0.080616	0.256680
C23	C	0.351630	-0.080645	0.258622
C24	C	0.393789	0.000384	0.170951
C25	C	0.126364	0.000473	0.279688
C26	C	0.053903	0.000480	0.277745
C27	C	0.069333	0.000487	0.046370
C28	C	0.141792	0.000467	0.048316
C29	C	0.170303	0.000466	0.164979
C30	C	0.764608	-0.580348	0.273261
C31	C	0.764733	-0.419181	0.273644
C32	C	0.893929	-0.418367	0.197544
C33	C	0.893620	-0.579585	0.198280
C34	C	0.806126	-0.579871	0.035927
C35	C	0.804460	-0.418645	0.036829
C36	C	0.948272	0.000454	0.159030
C37	C	1.025389	0.000500	0.161093
C38	C	0.825264	0.000395	-0.063077
C39	C	0.823203	0.000403	-0.203981
N40	N	0.821354	0.360734	0.169007
C41	C	0.896620	-0.000092	-0.423073
C42	C	0.898819	0.000437	-0.276526
C43	C	0.784504	0.132460	-0.247880
C44	C	0.782841	0.132563	-0.394604
C45	C	0.781250	-0.130460	-0.394372
C46	C	0.784837	-0.132196	-0.248111
C47	C	0.817398	0.000390	0.401123
C48	C	0.819459	0.000392	0.542027
H49	H	0.596544	0.000317	0.386654
H50	H	0.465095	0.000344	0.383131
H51	H	0.754294	-0.620633	0.008402
H52	H	0.774269	-0.620842	0.371471
H53	H	0.843052	-0.378332	-0.044353
H54	H	0.805273	-0.230562	-0.437088
H55	H	0.926073	-0.094797	-0.465683
H56	H	0.376298	-0.146645	0.331576
H57	H	0.046114	0.000592	-0.048610
H58	H	0.906940	-0.617166	0.295322
H59	H	0.751039	-0.380470	0.015179
H60	H	0.624537	0.000279	-0.033121
H61	H	0.929287	0.095292	-0.248802
H62	H	0.907546	-0.377969	0.293480
H63	H	0.244843	-0.146601	0.328049
H64	H	0.149579	0.000452	0.374682
H65	H	0.812996	-0.229892	-0.220125
H66	H	0.726286	0.138520	-0.416338
H67	H	0.847501	-0.617967	-0.041651
H68	H	0.774521	-0.380596	0.372412
H69	H	0.937200	-0.618553	0.125318
H70	H	0.018129	0.000489	0.371156
H71	H	0.925915	0.094104	-0.467233
H72	H	0.177568	0.000457	-0.045090
H73	H	0.929099	-0.094224	-0.247856
H74	H	0.809300	0.231304	-0.435411
H75	H	0.266371	0.147474	0.006475
H76	H	0.728838	0.137345	-0.199250
H77	H	0.937187	-0.379994	0.123616
H78	H	0.811392	0.230764	-0.217624
H79	H	0.397819	0.147427	0.009993
H80	H	0.493079	0.000362	-0.036630
H81	H	0.710778	-0.379691	0.256715
H82	H	0.710484	-0.619185	0.256615
H83	H	0.729631	-0.140198	-0.197814
H84	H	0.724478	-0.131376	-0.415257
