data_functionalizedCrystal
_audit_creation_method	'MofGen! by Chris Wilmer'
_symmetry_space_group_name_H-M	'P1'
_symmetry_Int_Tables_number	1
_symmetry_cell_setting	triclinic
loop_
_symmetry_equiv_pos_as_xyz
  x,y,z
_cell_length_a	15.944564
_cell_length_b	15.995350
_cell_length_c	14.472310
_cell_angle_alpha	90.001162
_cell_angle_beta	90.008537
_cell_angle_gamma	96.501845
loop_
_atom_site_label
_atom_site_type_symbol
_atom_site_fract_x
_atom_site_fract_y
_atom_site_fract_z
O1	O	-1.114522	0.108034	-0.076740
O2	O	-0.869974	0.121336	-0.076762
O3	O	-0.998933	-0.007202	-0.076750
O4	O	-0.985563	0.236572	-0.076753
O5	O	-0.998900	-0.007194	0.076932
O6	O	-0.869940	0.121344	0.076920
O7	O	-1.114489	0.108041	0.076942
Cu8	Cu	-0.992212	0.114693	0.090963
Cu9	Cu	-0.992251	0.114684	-0.090784
O10	O	-0.985530	0.236579	0.076929
C11	C	-0.838663	0.120786	0.000076
C12	C	-0.745418	0.119125	0.000067
C13	C	-0.530567	0.035477	0.000086
C14	C	-0.469562	0.074309	-0.075688
C15	C	-0.574693	0.116119	0.000078
C16	C	-0.469551	0.074335	0.075831
C17	C	-0.409782	0.113210	0.000093
C18	C	-0.514916	0.154974	-0.075758
C19	C	-0.514912	0.154989	0.075828
C20	C	-0.453924	0.193880	0.000036
C21	C	-0.669695	0.117793	0.000069
C22	C	-0.314781	0.111543	0.000095
C23	C	-0.998364	-0.038393	0.000089
C24	C	-0.996707	-0.131344	0.000084
C25	C	-0.990756	-0.469092	0.000087
C26	C	-0.898913	-0.421667	-0.000266
C27	C	-0.900570	-0.324977	0.000080
C28	C	-0.993707	-0.301531	0.000085
C29	C	-1.038988	-0.342599	0.087847
C30	C	-1.036681	-0.439235	0.087921
C31	C	-1.038616	-0.439602	-0.086844
C32	C	-1.038595	-0.342657	-0.088004
C33	C	-0.995380	-0.206833	0.000087
C34	C	-0.989085	-0.563790	0.000091
C35	C	-0.145801	0.108580	0.000102
C36	C	-0.239051	0.110207	0.000105
C37	C	-0.986099	0.267771	0.000088
C38	C	-0.987756	0.360721	0.000087
N39	N	-0.992190	0.114699	0.218794
N40	N	-0.992279	0.114672	-0.218614
C41	C	-0.992250	0.114681	0.592885
C42	C	-0.923015	0.183229	0.553713
C43	C	-0.923175	0.183479	0.446625
C44	C	-0.992220	0.114690	0.407294
C45	C	-1.079861	0.133781	0.446139
C46	C	-1.079472	0.134268	0.553261
C47	C	-0.974625	0.026840	0.553414
C48	C	-0.972615	0.027425	0.446286
C49	C	-0.992208	0.114693	0.302406
C50	C	-0.992267	0.114679	0.697773
H51	H	-0.862218	-0.440205	-0.063203
H52	H	-0.420762	0.260873	-0.000007
H53	H	-1.107413	-0.328467	0.091115
H54	H	-0.934430	0.248664	0.420991
H55	H	-1.005488	-0.315414	-0.152928
C56	C	-0.542097	0.201030	0.162369
H57	H	-0.526746	0.172298	0.216160
H58	H	-0.514798	0.256985	0.162914
H59	H	-0.601530	0.202190	0.161436
H60	H	-0.864709	-0.297112	0.063093
H61	H	-0.862354	-0.441262	0.062313
C62	C	-1.036317	-0.044716	0.410137
H63	H	-1.075884	-0.022460	0.370619
H64	H	-1.007172	-0.083591	0.376693
H65	H	-1.065217	-0.072595	0.460807
H66	H	-1.132601	0.086310	0.579172
H67	H	-0.534915	0.189054	-0.139889
C68	C	-0.442402	0.028248	0.162370
H69	H	-0.468921	-0.028017	0.162270
H70	H	-0.382858	0.027969	0.162051
H71	H	-0.458698	0.056351	0.216179
C72	C	-0.992028	-0.463963	0.176531
H73	H	-0.975462	-0.414970	0.212143
H74	H	-1.029545	-0.501928	0.211623
H75	H	-0.943512	-0.490231	0.160491
H76	H	-0.864975	-0.296561	-0.062832
H77	H	-1.095764	0.197113	0.419303
C78	C	-1.127764	-0.482799	0.093329
H79	H	-1.126972	-0.542098	0.093408
H80	H	-1.153627	-0.466194	0.148472
H81	H	-1.158880	-0.466985	0.041435
C82	C	-0.996461	-0.304274	0.176073
H83	H	-0.951117	-0.263255	0.159611
H84	H	-1.036567	-0.278529	0.211585
H85	H	-0.975441	-0.347399	0.211443
C86	C	-0.998070	-0.467350	-0.176706
H87	H	-0.951567	-0.497182	-0.162044
H88	H	-1.038602	-0.502822	-0.210971
H89	H	-0.979003	-0.419155	-0.212531
C90	C	-1.100447	0.220808	0.587012
H91	H	-1.100399	0.221867	0.652647
H92	H	-1.059289	0.263462	0.564351
H93	H	-1.154606	0.230479	0.564868
H94	H	-0.857658	0.172040	0.579495
H95	H	-1.132613	0.085182	0.420661
H96	H	-1.106515	-0.327288	-0.093300
H97	H	-1.106331	-0.471356	-0.087431
C98	C	-0.835166	0.168128	0.411142
H99	H	-0.798992	0.161686	0.462196
H100	H	-0.839775	0.118516	0.374548
H101	H	-0.812426	0.214728	0.374804
C102	C	-0.442413	0.028237	-0.162231
H103	H	-0.404747	0.065558	-0.197908
H104	H	-0.414955	-0.018825	-0.144025
H105	H	-0.490800	0.009563	-0.198161
H106	H	-0.912104	0.008485	0.580476
C107	C	-0.938008	0.270795	0.590056
H108	H	-0.986279	0.265761	0.628996
H109	H	-0.890059	0.294103	0.624156
H110	H	-0.946953	0.306539	0.539430
H111	H	-0.908145	0.012937	0.420898
C112	C	-1.042823	-0.042074	0.587640
H113	H	-1.081853	-0.017480	0.625800
H114	H	-1.071698	-0.068511	0.536126
H115	H	-1.016990	-0.082738	0.622130
H116	H	-0.563904	-0.031447	-0.000007
