data_functionalizedCrystal
_audit_creation_method	'MofGen! by Chris Wilmer'
_symmetry_space_group_name_H-M	'P1'
_symmetry_Int_Tables_number	1
_symmetry_cell_setting	triclinic
loop_
_symmetry_equiv_pos_as_xyz
  x,y,z
_cell_length_a	14.519709
_cell_length_b	27.731996
_cell_length_c	13.596369
_cell_angle_alpha	89.988048
_cell_angle_beta	90.000291
_cell_angle_gamma	83.150767
loop_
_atom_site_label
_atom_site_type_symbol
_atom_site_fract_x
_atom_site_fract_y
_atom_site_fract_z
O1	O	1.222743	0.063364	-0.081677
O2	O	1.722743	0.563364	0.418323
O3	O	0.954134	0.070825	-0.081708
O4	O	1.454134	0.570825	0.418292
O5	O	1.096806	-0.003264	-0.081670
O6	O	1.596806	0.496736	0.418330
O7	O	1.080071	0.137453	-0.081715
O8	O	1.580071	0.637453	0.418285
O9	O	1.096792	-0.003268	0.081913
O10	O	1.596792	0.496732	0.581913
O11	O	0.954120	0.070822	0.081874
O12	O	1.454120	0.570822	0.581874
O13	O	1.222729	0.063360	0.081906
O14	O	1.722729	0.563360	0.581906
Zn15	Zn	1.088422	0.067090	0.107863
Zn16	Zn	1.588422	0.567090	0.607863
Zn17	Zn	1.088441	0.067095	-0.107665
Zn18	Zn	1.588441	0.567095	0.392335
O19	O	1.080057	0.137449	0.081868
O20	O	1.580057	0.637449	0.581868
C21	C	0.919773	0.070476	0.000079
C22	C	1.419773	0.570476	0.500079
C23	C	0.817411	0.069434	0.000068
C24	C	1.317411	0.569434	0.500068
C25	C	1.096455	-0.021275	0.000124
C26	C	1.596455	0.478725	0.500124
C27	C	1.095420	-0.074936	0.000134
C28	C	1.595420	0.425064	0.500134
C29	C	0.442583	0.065597	0.000114
C30	C	0.942583	0.565597	0.500114
C31	C	0.546872	0.066663	0.000101
C32	C	1.046872	0.566663	0.500101
C33	C	0.629994	0.067515	0.000090
C34	C	1.129994	0.567515	0.500090
C35	C	0.734289	0.068581	0.000079
C36	C	1.234289	0.568581	0.500079
C37	C	1.088913	-0.407681	-0.089084
C38	C	1.588913	0.092319	0.410916
C39	C	1.084981	-0.609358	-0.089101
C40	C	1.584981	-0.109358	0.410899
O41	O	1.084439	-0.635430	-0.164937
O42	O	1.584439	-0.135430	0.335063
N43	N	1.084485	-0.634580	0.000067
N44	N	1.584485	-0.134580	0.500067
C45	C	1.084966	-0.609379	0.089246
C46	C	1.584966	-0.109379	0.589246
O47	O	1.084444	-0.635458	0.165088
O48	O	1.584444	-0.135458	0.665088
C49	C	1.088891	-0.407702	0.089262
C50	C	1.588891	0.092298	0.589262
C51	C	1.089397	-0.382484	0.000088
C52	C	1.589397	0.117516	0.500088
C53	C	1.089417	-0.382463	-0.178250
C54	C	1.589417	0.117537	0.321750
C55	C	1.090405	-0.332047	-0.178245
C56	C	1.590405	0.167953	0.321755
C57	C	1.090889	-0.306850	-0.089073
C58	C	1.590889	0.193150	0.410927
C59	C	1.090385	-0.332068	0.000094
C60	C	1.590385	0.167932	0.500094
C61	C	1.089366	-0.382502	0.178440
C62	C	1.589366	0.117498	0.678440
C63	C	1.090345	-0.332079	0.178437
C64	C	1.590345	0.167921	0.678437
C65	C	1.090850	-0.306861	0.089263
C66	C	1.590850	0.193139	0.589263
C67	C	1.091856	-0.256455	0.089271
C68	C	1.591856	0.243545	0.589271
N69	N	1.092352	-0.231233	0.000103
N70	N	1.592352	0.268767	0.500103
C71	C	1.091869	-0.256431	-0.089069
C72	C	1.591869	0.243569	0.410931
C73	C	1.082907	-0.715262	0.089231
C74	C	1.582907	-0.215262	0.589231
C75	C	1.081927	-0.765681	0.089227
C76	C	1.581927	-0.265681	0.589227
C77	C	1.081941	-0.765657	-0.089121
C78	C	1.581941	-0.265657	0.410879
C79	C	1.082927	-0.715238	-0.089116
C80	C	1.582927	-0.215238	0.410884
C81	C	1.083403	-0.690041	0.000063
C82	C	1.583403	-0.190041	0.500063
C83	C	1.093944	-0.150554	-0.089051
C84	C	1.593944	0.349446	0.410949
C85	C	1.094936	-0.100134	-0.089038
C86	C	1.594936	0.399866	0.410962
C87	C	1.094918	-0.100162	0.089309
C88	C	1.594918	0.399838	0.589309
C89	C	1.093931	-0.150578	0.089296
C90	C	1.593931	0.349422	0.589296
C91	C	1.093441	-0.175772	0.000108
C92	C	1.593441	0.324228	0.500108
O93	O	1.092388	-0.230352	0.165067
O94	O	1.592388	0.269648	0.665067
O95	O	1.092370	-0.230341	-0.164900
O96	O	1.592370	0.269659	0.335100
C97	C	1.087925	-0.458097	-0.089089
C98	C	1.587925	0.041903	0.410911
C99	C	1.087421	-0.483316	0.000078
C100	C	1.587421	0.016684	0.500078
C101	C	1.087904	-0.458118	0.089250
C102	C	1.587904	0.041882	0.589250
C103	C	1.086441	-0.533735	0.000074
C104	C	1.586441	-0.033735	0.500074
C105	C	1.085957	-0.558932	-0.089098
C106	C	1.585957	-0.058932	0.410902
C107	C	1.086453	-0.533711	-0.178266
C108	C	1.586453	-0.033711	0.321734
C109	C	1.087441	-0.483295	-0.178261
C110	C	1.587441	0.016705	0.321739
C111	C	1.087408	-0.483340	0.178418
C112	C	1.587408	0.016660	0.678418
C113	C	1.086421	-0.533756	0.178405
C114	C	1.586421	-0.033756	0.678405
C115	C	1.085938	-0.558953	0.089233
C116	C	1.585938	-0.058953	0.589233
C117	C	1.257090	0.063709	0.000116
C118	C	1.757090	0.563709	0.500116
C119	C	1.359453	0.064752	0.000121
C120	C	1.859453	0.564752	0.500121
C121	C	1.080408	0.155460	0.000071
C122	C	1.580408	0.655460	0.500071
C123	C	1.081443	0.209121	0.000055
C124	C	1.581443	0.709121	0.500055
N125	N	1.088417	0.067086	0.254954
N126	N	1.588417	0.567086	0.754954
N127	N	1.088454	0.067095	-0.254757
N128	N	1.588454	0.567095	0.245243
C129	C	1.088440	0.067096	0.656245
C130	C	1.588440	0.567096	1.156245
C131	C	1.088431	0.067095	0.544594
C132	C	1.588431	0.567095	1.044594
C133	C	1.088429	0.067091	0.455603
C134	C	1.588429	0.567091	0.955603
C135	C	1.088419	0.067090	0.343945
C136	C	1.588419	0.567090	0.843945
H137	H	1.095350	-0.079603	-0.161657
H138	H	1.595350	0.420397	0.338343
O139	O	1.087721	-0.458836	0.265020
O140	O	1.587721	0.041164	0.765020
C141	C	1.008408	-0.424252	0.270360
C142	C	1.508408	0.075748	0.770360
H143	H	0.952262	-0.435650	0.219749
H144	H	1.452262	0.064350	0.719749
H145	H	0.981601	-0.421880	0.349228
H146	H	1.481601	0.078120	0.849228
H147	H	1.027224	-0.387259	0.246423
H148	H	1.527224	0.112741	0.746423
O149	O	1.081300	-0.790149	-0.175718
O150	O	1.581300	-0.290149	0.324282
C151	C	1.000842	-0.813913	-0.181033
C152	C	1.500842	-0.313913	0.318967
H153	H	0.945297	-0.794940	-0.130432
H154	H	1.445297	-0.294940	0.369568
H155	H	0.974007	-0.812665	-0.259900
H156	H	1.474007	-0.312665	0.240100
H157	H	1.018162	-0.853348	-0.157067
H158	H	1.518162	-0.353348	0.342933
O159	O	1.085813	-0.558206	-0.264860
O160	O	1.585813	-0.058206	0.235140
C161	C	1.005352	-0.581967	-0.270171
C162	C	1.505352	-0.081967	0.229829
H163	H	0.949806	-0.562989	-0.219577
H164	H	1.449806	-0.062989	0.280423
H165	H	0.978519	-0.580723	-0.349039
H166	H	1.478519	-0.080723	0.150961
H167	H	1.022665	-0.621401	-0.246195
H168	H	1.522665	-0.121401	0.253805
H169	H	1.081530	-0.786211	0.161841
H170	H	1.581530	-0.286211	0.661841
O171	O	1.090932	-0.307561	0.265008
O172	O	1.590932	0.192439	0.765008
C173	C	1.171411	-0.283818	0.270386
C174	C	1.671411	0.216182	0.770386
H175	H	1.198210	-0.278053	0.192973
H176	H	1.698210	0.221947	0.692973
H177	H	1.154127	-0.247154	0.308137
H178	H	1.654127	0.252846	0.808137
H179	H	1.226973	-0.307046	0.314395
H180	H	1.726973	0.192954	0.814395
H181	H	1.093528	-0.171112	0.161909
H182	H	1.593528	0.328888	0.661909
H183	H	1.087852	-0.462766	-0.250876
H184	H	1.587852	0.037234	0.249124
H185	H	1.093541	-0.171061	-0.161676
H186	H	1.593541	0.328939	0.338324
O187	O	1.090843	-0.307625	-0.264957
O188	O	1.590843	0.192375	0.235043
C189	C	1.090224	-0.340686	-0.343653
C190	C	1.590224	0.159314	0.156347
H191	H	1.060319	-0.374651	-0.317502
H192	H	1.560319	0.125349	0.182498
H193	H	1.045717	-0.323085	-0.406025
H194	H	1.545717	0.176915	0.093975
H195	H	1.164133	-0.351056	-0.371067
H196	H	1.664133	0.148944	0.128933
O197	O	1.095217	-0.075643	0.175897
O198	O	1.595217	0.424357	0.675897
C199	C	1.015893	-0.041063	0.181182
C200	C	1.515893	0.458937	0.681182
H201	H	0.959766	-0.052480	0.130568
H202	H	1.459766	0.447520	0.630568
H203	H	0.989064	-0.038673	0.260040
H204	H	1.489064	0.461327	0.760040
H205	H	1.034704	-0.004074	0.157212
H206	H	1.534704	0.495926	0.657212
O207	O	1.083368	-0.690814	-0.175826
O208	O	1.583368	-0.190814	0.324174
C209	C	1.082759	-0.723874	-0.254526
C210	C	1.582759	-0.223874	0.245474
H211	H	1.052854	-0.757840	-0.228382
H212	H	1.552854	-0.257840	0.271618
H213	H	1.038257	-0.706272	-0.316900
H214	H	1.538257	-0.206272	0.183100
H215	H	1.156671	-0.734242	-0.281933
H216	H	1.656671	-0.234242	0.218067
O217	O	1.089074	-0.406997	-0.264817
O218	O	1.589074	0.093003	0.235183
C219	C	1.168422	-0.441558	-0.270162
C220	C	1.668422	0.058442	0.229838
H221	H	1.194900	-0.450930	-0.192737
H222	H	1.694900	0.049070	0.307263
H223	H	1.149774	-0.475789	-0.307926
H224	H	1.649774	0.024211	0.192074
H225	H	1.224755	-0.425902	-0.314143
H226	H	1.724755	0.074098	0.185857
O227	O	1.083422	-0.690868	0.175953
O228	O	1.583422	-0.190868	0.675953
C229	C	1.082757	-0.723945	0.254642
C230	C	1.582757	-0.223945	0.754642
H231	H	1.111259	-0.761858	0.228483
H232	H	1.611259	-0.261858	0.728483
H233	H	1.127835	-0.712424	0.317014
H234	H	1.627835	-0.212424	0.817014
H235	H	1.008640	-0.724301	0.282061
H236	H	1.508640	-0.224301	0.782061
O237	O	1.088829	-0.406913	0.265153
O238	O	1.588829	0.093087	0.765153
C239	C	1.089482	-0.373853	0.343846
C240	C	1.589482	0.126147	0.843846
H241	H	1.060985	-0.335934	0.317684
H242	H	1.560985	0.164066	0.817684
H243	H	1.044392	-0.385387	0.406205
H244	H	1.544392	0.114613	0.906205
H245	H	1.163593	-0.373504	0.371285
H246	H	1.663593	0.126496	0.871285
H247	H	1.086017	-0.554285	0.251027
H248	H	1.586017	-0.054285	0.751027
