data_functionalizedCrystal
_audit_creation_method	'MofGen! by Chris Wilmer'
_symmetry_space_group_name_H-M	'P1'
_symmetry_Int_Tables_number	1
_symmetry_cell_setting	triclinic
loop_
_symmetry_equiv_pos_as_xyz
  x,y,z
_cell_length_a	12.759400
_cell_length_b	12.759401
_cell_length_c	10.685880
_cell_angle_alpha	85.605729
_cell_angle_beta	94.339195
_cell_angle_gamma	90.014356
loop_
_atom_site_label
_atom_site_type_symbol
_atom_site_fract_x
_atom_site_fract_y
_atom_site_fract_z
Zn1	Zn	-0.463735	1.651821	-0.713418
Zn2	Zn	-0.625991	1.638239	-0.502423
Zn3	Zn	-0.450327	1.462648	-0.502442
Zn4	Zn	-0.639369	1.476108	-0.713369
O5	O	-0.544855	1.557204	-0.607913
O6	O	-0.485272	1.797041	-0.685442
O7	O	-0.591479	1.603629	-0.325849
O8	O	-0.305086	1.487793	-0.530458
O9	O	-0.604480	1.787063	-0.530424
O10	O	-0.314937	1.626777	-0.685461
O11	O	-0.462419	1.474623	-0.325864
O12	O	-0.475391	1.317412	-0.530409
O13	O	-0.627281	1.510734	-0.889951
O14	O	-0.614279	1.327301	-0.685376
O15	O	-0.498244	1.639829	-0.889988
O16	O	-0.774785	1.616681	-0.530376
O17	O	-0.784613	1.497565	-0.685357
C18	C	-0.544832	1.284235	-0.607890
C19	C	-0.544850	1.167460	-0.607910
C20	C	-0.606835	0.997673	-0.527107
C21	C	-0.606812	1.107396	-0.527085
C22	C	-0.482897	1.117795	-0.688754
C23	C	-0.482915	1.008074	-0.688768
C24	C	-0.668809	0.937615	-0.446285
C25	C	-0.730760	0.987272	-0.365440
C26	C	-0.730738	1.096995	-0.365418
C27	C	-0.668764	1.157061	-0.446242
C28	C	-0.817821	1.557140	-0.607887
C29	C	-0.934600	1.557212	-0.607918
C30	C	-0.984315	1.619316	-0.527308
C31	C	-1.094041	1.619383	-0.527347
C32	C	-1.104328	1.495232	-0.688608
C33	C	-0.994604	1.495172	-0.688575
C34	C	-0.924311	1.681356	-0.446651
C35	C	-0.974025	1.743464	-0.366034
C36	C	-1.083752	1.743531	-0.366073
C37	C	-1.143764	1.681490	-0.446729
C38	C	-0.270826	1.557299	-0.607967
C39	C	-0.154050	1.557339	-0.607990
C40	C	-0.565750	1.578298	-0.937034
C41	C	-0.574654	1.587287	-1.077285
C42	C	-0.544879	1.831239	-0.607936
C43	C	-0.544890	1.948016	-0.607946
C44	C	-0.523966	1.536252	-0.280073
C45	C	-0.514766	1.527467	-0.139822
H46	H	-0.668837	0.848273	-0.446296
H47	H	-0.432469	0.967642	-0.754589
C48	C	-0.803610	1.681304	-0.446619
N49	N	-0.712699	1.681269	-0.446601
C50	C	-0.414738	1.183872	-0.777660
N51	N	-0.363402	1.233641	-0.844630
C52	C	-0.653222	1.665689	-1.149911
N53	N	-0.712430	1.724708	-1.204615
C54	C	-0.798879	1.151614	-0.276483
N55	N	-0.850210	1.192751	-0.209498
C56	C	-1.264467	1.681571	-0.446771
N57	N	-1.355379	1.681629	-0.446797
H58	H	-0.925159	1.793983	-0.300373
C59	C	-0.798923	0.921198	-0.276534
N60	N	-0.850264	0.871432	-0.209568
C61	C	-0.939913	1.426837	-0.777231
N62	N	-0.898720	1.375362	-0.844005
C63	C	-0.668740	1.277759	-0.446210
N64	N	-0.668728	1.368668	-0.446190
C65	C	-1.138435	1.811853	-0.277396
N66	N	-1.179620	1.863310	-0.210595
C67	C	-1.170344	1.426981	-0.777311
N68	N	-1.220067	1.375568	-0.844119
H69	H	-0.456685	1.469367	-1.086065
