data_functionalizedCrystal
_audit_creation_method	'MofGen! by Chris Wilmer'
_symmetry_space_group_name_H-M	'P1'
_symmetry_Int_Tables_number	1
_symmetry_cell_setting	triclinic
loop_
_symmetry_equiv_pos_as_xyz
  x,y,z
_cell_length_a	31.640172
_cell_length_b	31.640172
_cell_length_c	31.640172
_cell_angle_alpha	59.997781
_cell_angle_beta	90.009241
_cell_angle_gamma	60.004780
loop_
_atom_site_label
_atom_site_type_symbol
_atom_site_fract_x
_atom_site_fract_y
_atom_site_fract_z
Zr1	Zr	0.407237	0.462541	-0.055408
O2	O	0.339750	0.550723	-0.122905
O3	O	0.427918	0.374369	-0.034717
O4	O	0.427917	0.462545	-0.122894
O5	O	0.339761	0.462540	0.034829
O6	O	0.497474	0.462537	-0.122885
O7	O	0.339751	0.462547	-0.034728
O8	O	0.497475	0.304806	0.034848
O9	O	0.339760	0.620271	-0.122904
O10	O	0.488657	0.410625	-0.025885
O11	O	0.436755	0.410626	0.026017
O12	O	0.436754	0.514442	-0.077800
O13	O	0.384852	0.514443	-0.025897
Zr14	Zr	0.518189	0.462515	0.055541
Zr15	Zr	0.518173	0.462527	-0.055393
Zr16	Zr	0.407253	0.462529	0.055527
Zr17	Zr	0.407253	0.573461	-0.055406
Zr18	Zr	0.518174	0.351595	0.055540
O19	O	0.497509	0.550687	0.034851
O20	O	0.497486	0.550703	-0.122884
O21	O	0.339773	0.550706	0.034830
O22	O	0.585676	0.374333	0.123038
O23	O	0.585653	0.374349	-0.034696
O24	O	0.427940	0.374352	0.123017
O25	O	0.585666	0.462516	-0.034695
O26	O	0.497509	0.462510	0.123028
O27	O	0.427952	0.462519	0.123018
O28	O	0.585676	0.462509	0.034861
O29	O	0.427939	0.620260	-0.122892
O30	O	0.497488	0.304796	0.123026
O31	O	0.585667	0.304785	0.123038
O32	O	0.585654	0.304794	0.034860
O33	O	0.339772	0.620261	-0.034726
O34	O	0.427951	0.620250	-0.034714
O35	O	0.488672	0.410614	0.077933
O36	O	0.540574	0.410613	0.026031
O37	O	0.488671	0.514430	-0.025884
O38	O	0.436769	0.514431	0.026019
C39	C	0.462694	0.323784	0.000065
C40	C	0.462688	0.276695	0.000065
C41	C	0.489816	-0.015347	-0.027021
C42	C	0.489827	-0.192343	-0.027020
O43	O	0.512887	-0.215248	-0.050043
N44	N	0.462734	-0.214472	0.000071
C45	C	0.435639	-0.192351	0.027167
O46	O	0.412599	-0.215239	0.050214
C47	C	0.435631	-0.015360	0.027169
C48	C	0.462722	0.006771	0.000072
C49	C	0.516905	0.006783	-0.054116
C50	C	0.516900	0.051031	-0.054118
C51	C	0.489806	0.073150	-0.027025
C52	C	0.462717	0.051020	0.000070
C53	C	0.408540	0.006757	0.054268
C54	C	0.408542	0.051007	0.054267
C55	C	0.435632	0.073137	0.027170
C56	C	0.435617	0.117387	0.027160
N57	N	0.462711	0.139515	0.000069
C58	C	0.489805	0.117397	-0.027024
C59	C	0.435644	-0.285274	0.027163
C60	C	0.435645	-0.329521	0.027162
C61	C	0.489833	-0.329510	-0.027025
C62	C	0.489829	-0.285260	-0.027027
C63	C	0.462737	-0.263145	0.000072
C64	C	0.489791	0.210322	-0.027026
C65	C	0.489782	0.254577	-0.027028
C66	C	0.435595	0.254560	0.027161
C67	C	0.435602	0.210312	0.027160
C68	C	0.462704	0.188193	0.000066
O69	O	0.412574	0.140314	0.050176
O70	O	0.512850	0.140282	-0.050058
C71	C	0.489821	-0.059596	-0.027019
C72	C	0.462732	-0.081726	0.000076
C73	C	0.435638	-0.059608	0.027169
C74	C	0.462733	-0.125973	0.000075
C75	C	0.489827	-0.148092	-0.027018
C76	C	0.516920	-0.125963	-0.054109
C77	C	0.516915	-0.081715	-0.054111
C78	C	0.408545	-0.081736	0.054260
C79	C	0.408552	-0.125984	0.054260
C80	C	0.435646	-0.148103	0.027167
C81	C	0.323950	0.462545	0.000048
C82	C	0.276855	0.462551	0.000042
C83	C	0.011942	0.408331	0.027176
C84	C	-0.165043	0.408320	0.027187
O85	O	-0.164888	0.362232	0.050252
N86	N	-0.214266	0.462511	0.000087
C87	C	-0.219241	0.516709	-0.027015
O88	O	-0.265169	0.562802	-0.050060
C89	C	-0.042257	0.516719	-0.027021
C90	C	0.006965	0.462524	0.000076
C91	C	0.061161	0.354141	0.054272
C92	C	0.105405	0.354144	0.054267
C93	C	0.100428	0.408337	0.027166
C94	C	0.051209	0.462527	0.000071
C95	C	-0.047233	0.570916	-0.054120
C96	C	-0.002981	0.570913	-0.054118
C97	C	0.046241	0.516719	-0.027021
C98	C	0.090475	0.516724	-0.027035
N99	N	0.139698	0.462533	0.000065
C100	C	0.144674	0.408339	0.027165
C101	C	-0.312159	0.516700	-0.027010
C102	C	-0.356405	0.516698	-0.027009
C103	C	-0.302204	0.408309	0.027193
C104	C	-0.257957	0.408312	0.027189
C105	C	-0.262936	0.462509	0.000090
C106	C	0.237586	0.408350	0.027152
C107	C	0.281831	0.408358	0.027143
C108	C	0.227627	0.516746	-0.027057
C109	C	0.183385	0.516739	-0.027050
C110	C	0.188369	0.462536	0.000058
O111	O	0.090359	0.562788	-0.050084
O112	O	0.190606	0.362254	0.050217
C113	C	-0.032302	0.408328	0.027181
C114	C	-0.081522	0.462518	0.000086
C115	C	-0.086498	0.516711	-0.027015
C116	C	-0.125768	0.462516	0.000087
C117	C	-0.120791	0.408322	0.027188
C118	C	-0.071569	0.354131	0.054287
C119	C	-0.027325	0.354134	0.054282
C120	C	-0.135720	0.570902	-0.054114
C121	C	-0.179962	0.570895	-0.054107
C122	C	-0.174985	0.516701	-0.027007
C123	C	0.601477	0.462510	0.000085
C124	C	0.648572	0.462504	0.000092
C125	C	0.462693	0.462543	-0.138695
C126	C	0.462686	0.462548	-0.185790
C127	C	0.462732	0.601272	0.000068
C128	C	0.462739	0.648361	0.000069
C129	C	0.501042	0.462512	-0.477790
C130	C	0.501054	0.462504	-0.654776
O131	O	0.533657	0.462474	-0.677644
N132	N	0.462734	0.462510	-0.676912
C133	C	0.424410	0.462514	-0.654796
O134	O	0.391820	0.462513	-0.677682
C135	C	0.424401	0.462518	-0.477809
C136	C	0.462721	0.462518	-0.455678
C137	C	0.539359	0.462512	-0.455659
C138	C	0.539354	0.462517	-0.411417
C139	C	0.501033	0.462523	-0.389305
C140	C	0.462716	0.462523	-0.411436
C141	C	0.386080	0.462518	-0.455692
C142	C	0.386082	0.462517	-0.411441
C143	C	0.424401	0.462517	-0.389311
C144	C	0.424389	0.462534	-0.345082
N145	N	0.462709	0.462528	-0.322946
C146	C	0.501031	0.462523	-0.345058
C147	C	0.424417	0.462514	-0.747718
C148	C	0.424418	0.462514	-0.791965
C149	C	0.501063	0.462503	-0.791941
C150	C	0.501059	0.462507	-0.747695
C151	C	0.462737	0.462508	-0.725582
C152	C	0.501018	0.462534	-0.252146
C153	C	0.501008	0.462542	-0.207901
C154	C	0.424365	0.462550	-0.207927
C155	C	0.424373	0.462545	-0.252170
C156	C	0.462704	0.462535	-0.274277
O157	O	0.391806	0.462558	-0.322183
O158	O	0.533623	0.462511	-0.322158
C159	C	0.501047	0.462507	-0.522032
C160	C	0.462730	0.462508	-0.544163
C161	C	0.424409	0.462513	-0.522051
C162	C	0.462732	0.462508	-0.588410
C163	C	0.501054	0.462502	-0.610522
C164	C	0.539374	0.462496	-0.588386
C165	C	0.539369	0.462501	-0.544144
C166	C	0.386088	0.462519	-0.544187
C167	C	0.386096	0.462515	-0.588430
C168	C	0.424418	0.462509	-0.610541
C169	C	0.462733	0.462513	0.138829
C170	C	0.462740	0.462508	0.185923
C171	C	0.601457	0.323766	0.000084
C172	C	0.648546	0.276672	0.000090
C173	C	0.462714	0.323769	0.138827
C174	C	0.462714	0.276675	0.185921
C175	C	0.601477	0.323751	0.138846
C176	C	0.648573	0.276652	0.185946
C177	C	0.323949	0.601304	-0.138712
C178	C	0.276854	0.648404	-0.185812
C179	C	0.323969	0.601290	0.000050
C180	C	0.276880	0.648384	0.000044
C181	C	0.462712	0.601287	-0.138694
C182	C	0.462712	0.648380	-0.185788
C183	C	0.643559	0.254562	-0.027012
C184	C	0.687800	0.210318	-0.027017
C185	C	0.737026	0.188181	0.000083
C186	C	0.742012	0.210295	0.027185
C187	C	0.697772	0.254542	0.027187
C188	C	0.489815	0.254553	0.235141
C189	C	0.489813	0.210310	0.279395
C190	C	0.462714	0.188187	0.274428
C191	C	0.435610	0.210313	0.225203
C192	C	0.435609	0.254558	0.180950
C193	C	0.697786	0.254533	0.180972
C194	C	0.742042	0.210284	0.225224
C195	C	0.737082	0.188152	0.274448
C196	C	0.687864	0.210275	0.279421
C197	C	0.643609	0.254526	0.235170
C198	C	0.227640	0.670528	-0.180839
C199	C	0.183385	0.714791	-0.225090
C200	C	0.188344	0.736925	-0.274315
C201	C	0.237563	0.714799	-0.279287
C202	C	0.281817	0.670540	-0.235036
C203	C	0.281867	0.670498	0.027141
C204	C	0.237627	0.714755	0.027134
C205	C	0.188400	0.736893	0.000032
C206	C	0.183414	0.714777	-0.027068
C207	C	0.227654	0.670524	-0.027063
C208	C	0.489816	0.670490	-0.180804
C209	C	0.489826	0.714733	-0.225049
C210	C	0.462728	0.736870	-0.274278
C211	C	0.435623	0.714756	-0.279261
C212	C	0.435616	0.670510	-0.235016
H213	H	0.538970	-0.011224	-0.076177
Cl214	Cl	0.374482	-0.053938	0.088324
Cl215	Cl	0.523863	0.182522	-0.061088
Cl216	Cl	0.462721	0.132562	0.330067
H217	H	0.321888	0.652527	-0.239092
H218	H	0.152381	0.772926	0.000033
Cl219	Cl	0.704051	0.282327	0.061265
Cl220	Cl	0.462740	0.792496	-0.329896
H221	H	0.511883	0.652473	-0.140723
H222	H	0.413547	0.192293	0.221166
H223	H	0.241595	0.732827	-0.319371
Cl224	Cl	0.523901	0.742528	-0.218773
H225	H	0.354883	0.462523	-0.526187
H226	H	0.511889	-0.267244	-0.049091
H227	H	0.532262	0.462506	-0.729679
Cl228	Cl	0.132704	0.792564	-0.329940
Cl229	Cl	0.343747	0.642680	0.061213
H230	H	0.386478	0.069011	0.076333
Cl231	Cl	0.581743	0.282324	0.241432
H232	H	0.511842	0.272595	-0.049096
H233	H	0.143313	0.732798	-0.221031
H234	H	0.354887	0.462520	-0.606448
H235	H	-0.067524	0.310005	0.076350
H236	H	0.532266	0.462499	-0.809953
H237	H	0.413560	0.732786	-0.319349
H238	H	0.413542	0.652513	-0.239081
Cl239	Cl	0.704035	0.282351	0.119095
H240	H	0.241697	0.732754	0.049204
H241	H	0.782114	0.192276	0.221166
H242	H	0.143328	0.732808	-0.049133
H243	H	0.223586	0.652520	-0.049128
Cl244	Cl	0.581679	0.282384	-0.061087
Cl245	Cl	0.221392	0.642711	-0.118962
Cl246	Cl	0.792722	0.132520	0.330074
H247	H	0.511894	-0.347526	-0.049086
Cl248	Cl	0.401578	-0.357328	0.061220
Cl249	Cl	0.550961	0.078843	-0.088182
Cl250	Cl	0.681520	0.182524	-0.061089
H251	H	0.413581	-0.267273	0.049231
H252	H	0.386481	-0.011255	0.076334
H253	H	0.683833	0.192249	0.319506
Cl254	Cl	0.401540	0.282360	0.119075
H255	H	0.413534	0.272579	0.049217
Cl256	Cl	0.401538	0.182497	0.061219
H257	H	0.538975	-0.063699	-0.076176
H258	H	0.782099	0.192265	0.049249
Cl259	Cl	0.587546	0.462500	-0.516328
H260	H	0.773045	0.152152	0.000078
H261	H	0.223583	0.560869	-0.049123
Cl262	Cl	0.523888	0.282355	0.241400
Cl263	Cl	0.034549	0.286000	0.088350
H264	H	0.511886	0.192300	0.319472
Cl265	Cl	0.243859	0.340208	0.061230
Cl266	Cl	0.374490	-0.153798	0.088326
Cl267	Cl	0.343710	0.340222	0.061209
Cl268	Cl	0.550980	-0.153776	-0.088170
Cl269	Cl	-0.196082	0.340179	0.061256
H270	H	-0.220039	0.615030	-0.076178
Cl271	Cl	0.067430	0.286002	0.088347
Cl272	Cl	0.167279	0.286009	0.088338
H273	H	-0.298158	0.364183	0.049256
H274	H	-0.316221	0.560836	-0.049081
Cl275	Cl	-0.418280	0.584831	-0.061083
H276	H	-0.007041	0.615048	-0.076179
Cl277	Cl	0.121505	0.584870	-0.061126
Cl278	Cl	-0.109103	0.639051	-0.088182
H279	H	0.532213	0.462543	-0.189885
Cl280	Cl	-0.141987	0.639038	-0.088188
H281	H	0.570559	0.462514	-0.393399
Cl282	Cl	0.587542	0.462505	-0.483449
Cl283	Cl	0.549205	0.462523	-0.279932
H284	H	0.393209	0.462515	-0.729716
Cl285	Cl	0.337905	0.462516	-0.483503
Cl286	Cl	0.337903	0.462517	-0.383644
Cl287	Cl	0.376237	0.462526	-0.819787
H288	H	0.393165	0.462554	-0.270193
H289	H	0.393163	0.462557	-0.189918
H290	H	0.570576	0.462494	-0.606398
