data_functionalizedCrystal
_audit_creation_method	'MofGen! by Chris Wilmer'
_symmetry_space_group_name_H-M	'P1'
_symmetry_Int_Tables_number	1
_symmetry_cell_setting	triclinic
loop_
_symmetry_equiv_pos_as_xyz
  x,y,z
_cell_length_a	15.944545
_cell_length_b	15.944551
_cell_length_c	15.455313
_cell_angle_alpha	92.664316
_cell_angle_beta	87.321378
_cell_angle_gamma	83.497455
loop_
_atom_site_label
_atom_site_type_symbol
_atom_site_fract_x
_atom_site_fract_y
_atom_site_fract_z
O1	O	1.118206	0.104636	-0.072076
O2	O	1.451539	0.437969	0.261257
O3	O	1.784873	0.771302	0.594590
O4	O	0.873657	0.117997	-0.072091
O5	O	1.206990	0.451330	0.261243
O6	O	1.540323	0.784663	0.594576
O7	O	1.002609	-0.010958	-0.072075
O8	O	1.335942	0.322375	0.261258
O9	O	1.669276	0.655708	0.594591
O10	O	0.989254	0.233591	-0.072092
O11	O	1.322587	0.566924	0.261242
O12	O	1.655920	0.900258	0.594575
O13	O	0.995235	-0.003614	0.072186
O14	O	1.328568	0.329719	0.405519
O15	O	1.661902	0.663052	0.738853
O16	O	0.866282	0.125341	0.072171
O17	O	1.199616	0.458674	0.405504
O18	O	1.532949	0.792007	0.738837
O19	O	1.110832	0.111980	0.072185
O20	O	1.444165	0.445313	0.405518
O21	O	1.777499	0.778646	0.738852
Cu22	Cu	0.987884	0.119331	0.085350
Cu23	Cu	1.321217	0.452664	0.418683
Cu24	Cu	1.654551	0.785997	0.752017
Cu25	Cu	0.996605	0.110646	-0.085256
Cu26	Cu	1.329938	0.443979	0.248078
Cu27	Cu	1.663271	0.777312	0.581411
O28	O	0.981880	0.240935	0.072170
O29	O	1.315213	0.574268	0.405503
O30	O	1.648546	0.907601	0.738836
C31	C	0.838676	0.121115	0.000038
C32	C	1.172009	0.454448	0.333372
C33	C	1.505342	0.787782	0.666705
C34	C	0.745429	0.119454	0.000033
C35	C	1.078763	0.452788	0.333366
C36	C	1.412096	0.786121	0.666700
C37	C	0.998367	-0.038580	0.000055
C38	C	1.331701	0.294753	0.333389
C39	C	1.665034	0.628086	0.666722
C40	C	0.996705	-0.131826	0.000056
C41	C	1.330039	0.201507	0.333389
C42	C	1.663372	0.534840	0.666723
C43	C	0.474796	0.034562	0.000048
C44	C	0.808129	0.367895	0.333381
C45	C	1.141463	0.701228	0.666715
C46	C	0.521742	0.079111	0.071176
C47	C	0.855075	0.412445	0.404509
C48	C	1.188408	0.745778	0.737842
C49	C	0.409785	0.113535	0.000048
C50	C	0.743118	0.446868	0.333382
C51	C	1.076452	0.780201	0.666715
C52	C	0.528993	0.071892	-0.071055
C53	C	0.862326	0.405225	0.262279
C54	C	1.195659	0.738559	0.595612
C55	C	0.574699	0.116439	0.000039
C56	C	0.908032	0.449772	0.333373
C57	C	1.241365	0.783105	0.666706
C58	C	0.455499	0.158066	0.071235
C59	C	0.788833	0.491399	0.404568
C60	C	1.122166	0.824733	0.737901
C61	C	0.462750	0.150832	-0.071059
C62	C	0.796084	0.484165	0.262274
C63	C	1.129417	0.817499	0.595607
C64	C	0.509662	0.195441	0.000086
C65	C	0.842996	0.528774	0.333419
C66	C	1.176329	0.862107	0.666752
C67	C	0.314782	0.111859	0.000054
C68	C	0.648116	0.445193	0.333388
C69	C	0.981449	0.778526	0.666721
C70	C	0.669698	0.118121	0.000040
C71	C	1.003031	0.451454	0.333373
C72	C	1.336365	0.784787	0.666706
C73	C	0.912801	-0.346682	0.000039
C74	C	1.246135	-0.013349	0.333372
C75	C	1.579468	0.319985	0.666706
C76	C	0.948128	-0.404079	0.071171
C77	C	1.281461	-0.070746	0.404504
C78	C	1.614795	0.262588	0.737837
C79	C	0.993698	-0.302552	0.000049
C80	C	1.327032	0.030781	0.333382
C81	C	1.660365	0.364114	0.666716
C82	C	0.955417	-0.411303	-0.071059
C83	C	1.288751	-0.077970	0.262274
C84	C	1.622084	0.255364	0.595607
C85	C	0.990788	-0.467466	0.000039
C86	C	1.324121	-0.134132	0.333372
C87	C	1.657455	0.199201	0.666705
C88	C	1.029044	-0.358718	0.071240
C89	C	1.362377	-0.025385	0.404573
C90	C	1.695711	0.307948	0.737906
C91	C	1.036325	-0.365939	-0.071055
C92	C	1.369659	-0.032606	0.262279
C93	C	1.702992	0.300728	0.595612
C94	C	1.071710	-0.423318	0.000095
C95	C	1.405043	-0.089984	0.333428
C96	C	1.738376	0.243349	0.666761
C97	C	0.995372	-0.207550	0.000056
C98	C	1.328706	0.125784	0.333389
C99	C	1.662039	0.459117	0.666722
C100	C	0.989120	-0.562467	0.000038
C101	C	1.322453	-0.229133	0.333371
C102	C	1.655786	0.104200	0.666705
C103	C	1.145813	0.108861	0.000054
C104	C	1.479146	0.442195	0.333387
C105	C	1.812480	0.775528	0.666721
C106	C	1.239059	0.110522	0.000054
C107	C	1.572393	0.443855	0.333387
C108	C	1.905726	0.777188	0.666720
C109	C	0.986121	0.268557	0.000037
C110	C	1.319454	0.601890	0.333370
C111	C	1.652788	0.935223	0.666704
C112	C	0.987784	0.361802	0.000031
C113	C	1.321117	0.695136	0.333364
C114	C	1.654450	1.028469	0.666698
N115	N	0.981756	0.125439	0.205345
N116	N	1.315090	0.458772	0.538678
N117	N	1.648423	0.792105	0.872011
N118	N	1.002739	0.104531	-0.205250
N119	N	1.336072	0.437864	0.128083
N120	N	1.669406	0.771198	0.461416
C121	C	1.036559	0.070674	0.250745
C122	C	1.369892	0.404008	0.584079
C123	C	1.703226	0.737341	0.917412
C124	C	1.031933	0.075301	0.341553
C125	C	1.365266	0.408635	0.674886
C126	C	1.698599	0.741968	1.008219
C127	C	0.972507	0.134697	0.386958
C128	C	1.305841	0.468031	0.720291
C129	C	1.639174	0.801364	1.053624
C130	C	0.917699	0.189464	0.341551
C131	C	1.251032	0.522798	0.674884
C132	C	1.584366	0.856131	1.008217
C133	C	0.922322	0.184833	0.250745
C134	C	1.255655	0.518166	0.584078
C135	C	1.588988	0.851499	0.917412
C136	C	0.952553	0.154666	0.658537
C137	C	1.285887	0.488000	0.991870
C138	C	1.619220	0.821333	1.325204
C139	C	0.947936	0.159296	0.749349
C140	C	1.281270	0.492629	1.082682
C141	C	1.614603	0.825962	1.416016
C142	C	1.062170	0.045131	0.749345
C143	C	1.395503	0.378464	1.082678
C144	C	1.728836	0.711798	1.416011
C145	C	1.066791	0.040508	0.658537
C146	C	1.400124	0.373841	0.991871
C147	C	1.733457	0.707175	1.325204
C148	C	1.011979	0.095272	0.613138
C149	C	1.345313	0.428605	0.946471
C150	C	1.678646	0.761939	1.279805
N151	N	0.967779	0.139430	0.479777
N152	N	1.301112	0.472763	0.813111
N153	N	1.634445	0.806097	1.146444
N154	N	1.016704	0.090535	0.520320
N155	N	1.350038	0.423868	0.853653
N156	N	1.683371	0.757201	1.186987
H157	H	0.459139	-0.033447	0.000122
H158	H	0.792472	0.299886	0.333455
H159	H	1.125806	0.633220	0.666788
H160	H	1.060154	-0.335664	0.131442
H161	H	1.393488	-0.002331	0.464775
H162	H	1.726821	0.331003	0.798109
H163	H	0.877695	0.229427	0.213781
H164	H	1.211028	0.562760	0.547114
H165	H	1.544361	0.896093	0.880447
H166	H	0.910838	-0.421125	0.131303
H167	H	1.244171	-0.087792	0.464636
H168	H	1.577504	0.245541	0.797970
Cl169	Cl	1.141498	-0.034161	0.601456
Cl170	Cl	1.474832	0.299172	0.934790
Cl171	Cl	1.808165	0.632506	1.268123
H172	H	1.073586	-0.348871	-0.131190
H173	H	1.406919	-0.015537	0.202143
H174	H	1.740253	0.317796	0.535477
H175	H	0.907925	0.199259	0.621580
H176	H	1.241258	0.532592	0.954913
H177	H	1.574592	0.865926	1.288247
H178	H	0.547599	0.048820	0.131313
H179	H	0.880932	0.382154	0.464646
H180	H	1.214265	0.715487	0.797980
H181	H	0.845650	-0.313369	0.000106
H182	H	1.178983	0.019964	0.333439
H183	H	1.512316	0.353297	0.666773
H184	H	1.138915	-0.456476	0.000139
H185	H	1.472248	-0.123142	0.333472
H186	H	1.805582	0.210191	0.666805
H187	H	0.423613	0.194458	0.131432
H188	H	0.756946	0.527791	0.464765
H189	H	1.090280	0.861125	0.798099
Cl190	Cl	0.907314	-0.447047	-0.163898
Cl191	Cl	1.240647	-0.113713	0.169435
Cl192	Cl	1.573980	0.219620	0.502769
Cl193	Cl	1.111273	-0.003995	0.193674
Cl194	Cl	1.444607	0.329338	0.527008
Cl195	Cl	1.777940	0.662671	0.860341
Cl196	Cl	1.100828	0.006452	0.398629
Cl197	Cl	1.434161	0.339786	0.731963
Cl198	Cl	1.767494	0.673119	1.065296
Cl199	Cl	1.131068	-0.023714	0.806422
Cl200	Cl	1.464401	0.309619	1.139755
Cl201	Cl	1.797735	0.642953	1.473088
Cl202	Cl	0.578385	0.015654	-0.163889
Cl203	Cl	0.911719	0.348987	0.169444
Cl204	Cl	1.245052	0.682321	0.502778
H205	H	0.899542	0.207667	0.786314
H206	H	1.232876	0.541000	1.119647
H207	H	1.566209	0.874333	1.452980
H208	H	0.525152	0.263507	0.000123
H209	H	0.858486	0.596841	0.333456
H210	H	1.191819	0.930174	0.666789
Cl211	Cl	0.422801	0.197554	-0.163911
Cl212	Cl	0.756134	0.530887	0.169423
Cl213	Cl	1.089467	0.864220	0.502756
H214	H	0.869309	0.237823	0.378525
H215	H	1.202642	0.571156	0.711858
H216	H	1.535976	0.904490	1.045191
