data_functionalizedCrystal
_audit_creation_method	'MofGen! by Chris Wilmer'
_symmetry_space_group_name_H-M	'P1'
_symmetry_Int_Tables_number	1
_symmetry_cell_setting	triclinic
loop_
_symmetry_equiv_pos_as_xyz
  x,y,z
_cell_length_a	12.837943
_cell_length_b	12.837942
_cell_length_c	13.448316
_cell_angle_alpha	89.994234
_cell_angle_beta	89.994605
_cell_angle_gamma	94.828940
loop_
_atom_site_label
_atom_site_type_symbol
_atom_site_fract_x
_atom_site_fract_y
_atom_site_fract_z
O1	O	1.402339	0.272143	-0.082673
O2	O	1.099206	0.258700	-0.082679
O3	O	1.244051	0.113855	-0.082670
O4	O	1.257494	0.416988	-0.082682
O5	O	1.244030	0.113843	0.082714
O6	O	1.099185	0.258688	0.082705
O7	O	1.402318	0.272131	0.082711
Cu8	Cu	1.250749	0.265409	0.097809
Cu9	Cu	1.250774	0.265423	-0.097777
O10	O	1.257473	0.416976	0.082702
C11	C	1.060126	0.254153	0.000012
C12	C	0.943711	0.240608	0.000010
C13	C	0.718837	0.403437	0.000018
C14	C	0.609454	0.390716	0.000017
C15	C	0.615562	0.202445	0.000013
C16	C	0.724944	0.215166	0.000015
C17	C	0.776578	0.315666	0.000015
C18	C	0.885962	0.328386	0.000009
C19	C	0.892067	0.140116	0.000013
C20	C	0.782685	0.127395	0.000012
C21	C	1.239499	0.074780	0.000021
C22	C	1.225954	-0.041635	0.000019
C23	C	1.388784	-0.266510	0.000002
C24	C	1.376062	-0.375892	-0.000000
C25	C	1.187791	-0.369785	0.000006
C26	C	1.200513	-0.260402	0.000008
C27	C	1.301012	-0.208769	0.000007
C28	C	1.313732	-0.099384	0.000016
C29	C	1.125462	-0.093279	0.000016
C30	C	1.112741	-0.202661	0.000014
C31	C	1.441398	0.276679	0.000017
C32	C	1.557813	0.290223	0.000013
C33	C	1.262025	0.456051	0.000008
C34	C	1.275569	0.572467	0.000004
N35	N	1.250739	0.265399	0.235373
N36	N	1.250792	0.265425	-0.235341
C37	C	1.314902	0.201293	0.287417
C38	C	1.314908	0.201293	0.391520
C39	C	1.250757	0.265405	0.443577
C40	C	1.186587	0.329513	0.391526
C41	C	1.186576	0.329507	0.287424
C42	C	1.186617	0.329523	0.608506
C43	C	1.186629	0.329531	0.712614
C44	C	1.314949	0.201308	0.712602
C45	C	1.314938	0.201302	0.608500
C46	C	1.250769	0.265413	0.556456
H47	H	0.562446	0.462189	0.000021
H48	H	1.367153	0.149092	0.433894
O49	O	1.411427	-0.049389	-0.000034
C50	C	1.596822	-0.066997	0.000002
C51	C	1.486242	-0.123744	0.000042
H52	H	1.657340	-0.127087	0.000085
H53	H	1.607552	-0.015963	-0.069227
H54	H	1.607434	-0.015917	0.069199
H55	H	1.475553	-0.174878	-0.069107
H56	H	1.475563	-0.174714	0.069318
O57	O	1.377099	0.138838	0.236920
C58	C	1.420478	-0.037116	0.205207
C59	C	1.349955	0.033509	0.262420
H60	H	1.398572	-0.122287	0.225818
H61	H	1.409464	-0.026230	0.121844
H62	H	1.505667	-0.015098	0.225656
H63	H	1.264739	0.011536	0.242054
H64	H	1.361059	0.022614	0.345768
O65	O	0.732640	0.029723	-0.000125
C66	C	0.704349	-0.135042	-0.085853
C67	C	0.761107	-0.024466	-0.085804
H68	H	0.727326	-0.178878	-0.155127
H69	H	0.727375	-0.179047	-0.016692
H70	H	0.616256	-0.129031	-0.085804
H71	H	0.849210	-0.030381	-0.085888
H72	H	0.737994	0.019497	-0.154959
O73	O	1.377284	0.138930	0.558084
C74	C	1.504606	0.011796	0.569051
C75	C	1.434035	0.082366	0.626271
H76	H	1.550523	-0.033938	0.624155
H77	H	1.454286	-0.045060	0.520358
H78	H	1.561309	0.062206	0.520268
H79	H	1.377320	0.032040	0.675108
H80	H	1.484420	0.139227	0.674901
H81	H	1.367197	0.149108	0.754982
O82	O	1.461435	-0.431823	0.000041
C83	C	1.649517	-0.426333	-0.000029
C84	C	1.552919	-0.362864	-0.000049
H85	H	1.723505	-0.370607	-0.000122
H86	H	1.648340	-0.477679	0.069199
H87	H	1.648212	-0.477713	-0.069227
H88	H	1.554161	-0.311425	0.069102
H89	H	1.554132	-0.311586	-0.069323
H90	H	1.134390	0.381736	0.754994
O91	O	1.124257	0.391899	0.558103
C92	C	0.996949	0.519044	0.569095
C93	C	1.067529	0.448470	0.626300
H94	H	0.951049	0.564784	0.624208
H95	H	1.047261	0.575894	0.520369
H96	H	0.940229	0.468636	0.520346
H97	H	1.124260	0.498794	0.675104
H98	H	1.017152	0.391614	0.674963
O99	O	1.124222	0.391880	0.237019
C100	C	0.996903	0.519014	0.248012
C101	C	1.067491	0.448449	0.305217
H102	H	0.951001	0.564751	0.303125
H103	H	1.047208	0.575866	0.199283
H104	H	0.940185	0.468600	0.199266
H105	H	1.124220	0.498779	0.354017
H106	H	1.017121	0.391591	0.353883
H107	H	0.939092	0.068646	0.000005
H108	H	1.134349	0.381711	0.433917
H109	H	1.053992	-0.046254	0.000029
O110	O	1.090155	-0.419908	-0.000179
C111	C	0.925345	-0.448111	-0.085843
C112	C	1.035895	-0.391297	-0.085765
H113	H	0.881437	-0.424983	-0.155021
H114	H	0.931280	-0.536217	-0.085917
H115	H	0.881450	-0.425138	-0.016599
H116	H	1.079852	-0.414184	-0.154997
H117	H	1.029886	-0.303203	-0.085639
O118	O	0.769116	0.501004	0.000147
C119	C	0.889009	0.624647	0.085854
C120	C	0.832156	0.514114	0.085820
H121	H	0.939972	0.635290	0.155124
H122	H	0.940145	0.635337	0.016689
H123	H	0.828929	0.685176	0.085802
H124	H	0.892162	0.453518	0.085907
H125	H	0.781000	0.503513	0.154979
O126	O	1.015101	-0.252777	-0.000161
C127	C	0.850276	-0.280965	-0.085801
C128	C	0.960833	-0.224165	-0.085741
H129	H	0.806361	-0.257836	-0.154975
H130	H	0.856198	-0.369072	-0.085870
H131	H	0.806396	-0.257979	-0.016553
H132	H	1.004775	-0.247064	-0.154978
H133	H	0.954836	-0.136069	-0.085621
H134	H	0.928000	0.410218	0.000012
H135	H	0.573502	0.120623	0.000095
H136	H	1.470614	-0.224469	0.000011
