data_functionalizedCrystal
_audit_creation_method	'MofGen! by Chris Wilmer'
_symmetry_space_group_name_H-M	'P1'
_symmetry_Int_Tables_number	1
_symmetry_cell_setting	triclinic
loop_
_symmetry_equiv_pos_as_xyz
  x,y,z
_cell_length_a	18.101398
_cell_length_b	18.101395
_cell_length_c	18.101390
_cell_angle_alpha	90.031336
_cell_angle_beta	90.024681
_cell_angle_gamma	90.026371
loop_
_atom_site_label
_atom_site_type_symbol
_atom_site_fract_x
_atom_site_fract_y
_atom_site_fract_z
Zn1	Zn	1.132124	-0.294895	0.418847
Zn2	Zn	1.132019	-0.418752	0.295009
Zn3	Zn	1.008282	-0.294918	0.295008
Zn4	Zn	1.008233	-0.418689	0.418797
O5	O	1.070164	-0.356813	0.356915
O6	O	1.235743	-0.311341	0.402441
O7	O	1.115581	-0.402361	0.191376
O8	O	1.024774	-0.191282	0.311456
O9	O	1.235666	-0.402338	0.311457
O10	O	1.115760	-0.191265	0.402440
O11	O	1.024672	-0.311381	0.191375
O12	O	0.904642	-0.311320	0.311408
O13	O	1.024691	-0.402231	0.522437
O14	O	0.904607	-0.402254	0.402355
O15	O	1.115713	-0.311280	0.522473
O16	O	1.115534	-0.522376	0.311409
O17	O	1.024590	-0.522330	0.402356
C18	C	0.877754	-0.356783	0.356877
C19	C	0.795440	-0.356788	0.356878
C20	C	0.496349	-0.356835	0.356940
C21	C	0.527672	-0.299336	0.299997
C22	C	0.613290	-0.299490	0.299754
C23	C	0.644731	-0.356811	0.356909
C24	C	0.613613	-0.434824	0.335587
C25	C	0.527968	-0.434505	0.335191
C26	C	0.527964	-0.336998	0.435339
C27	C	0.613615	-0.335261	0.434911
C28	C	0.728591	-0.356803	0.356893
C29	C	0.412489	-0.356848	0.356954
C30	C	1.070065	-0.549224	0.356893
C31	C	1.070091	-0.631538	0.356909
C32	C	1.070253	-0.930629	0.356949
C33	C	1.013166	-0.899306	0.414312
C34	C	1.012895	-0.813688	0.414133
C35	C	1.070172	-0.782247	0.356930
C36	C	1.049043	-0.813402	0.278878
C37	C	1.048675	-0.899047	0.279221
C38	C	1.148595	-0.898978	0.376950
C39	C	1.148134	-0.813327	0.378661
C40	C	1.070128	-0.698387	0.356914
C41	C	1.070296	-1.014488	0.356959
C42	C	1.263326	-0.356844	0.356954
C43	C	1.345640	-0.356857	0.356971
C44	C	1.070208	-0.356746	0.550077
C45	C	1.070227	-0.356717	0.632391
C46	C	1.070284	-0.163652	0.356953
C47	C	1.070335	-0.081337	0.356970
C48	C	1.070163	-0.356827	0.164505
C49	C	1.070288	-0.356648	0.082191
C50	C	1.070267	-0.356671	0.931483
C51	C	1.127724	-0.299648	0.900180
C52	C	1.127545	-0.299437	0.814562
C53	C	1.070248	-0.356694	0.783100
C54	C	0.992231	-0.335484	0.814166
C55	C	0.992575	-0.335057	0.899811
C56	C	1.090140	-0.435050	0.899899
C57	C	1.091852	-0.434650	0.814249
C58	C	1.070232	-0.356708	0.699240
C59	C	1.070278	-0.356655	1.015342
H60	H	0.633978	-0.478814	0.375763
H61	H	0.975078	-0.278826	0.792724
H62	H	0.506122	-0.312301	0.242242
Br63	Br	0.648363	-0.203069	0.322030
H64	H	1.146032	-0.454361	0.921548
H65	H	0.635027	-0.451937	0.278892
H66	H	0.507101	-0.241309	0.313215
H67	H	0.633959	-0.277852	0.450989
H68	H	0.991407	-0.919086	0.262279
Br69	Br	0.954603	-0.777759	0.250131
H70	H	0.633743	-0.312604	0.241661
Br71	Br	0.964456	-0.239575	0.933130
H72	H	0.954826	-0.793261	0.400884
H73	H	1.114736	-0.241908	0.921715
Br74	Br	0.492013	-0.243831	0.467651
H75	H	1.026114	-0.792621	0.472007
Br76	Br	1.114961	-0.933592	0.205551
H77	H	1.191127	-0.919234	0.335170
H78	H	1.053046	-0.479420	0.792829
H79	H	1.048295	-0.477538	0.920146
H80	H	1.149265	-0.450643	0.793944
H81	H	0.507956	-0.451326	0.277877
H82	H	1.089314	-0.793038	0.234972
H83	H	0.635020	-0.374088	0.479611
Br84	Br	0.494204	-0.406800	0.506055
Br85	Br	0.493425	-0.508329	0.401297
Br86	Br	1.180705	-0.934888	0.470196
H87	H	1.164068	-0.792961	0.436103
H88	H	1.026255	-0.919850	0.472374
Br89	Br	1.105621	-0.202658	0.780428
H90	H	0.955450	-0.920888	0.401230
H91	H	1.192917	-0.791921	0.339927
Br92	Br	1.223970	-0.321565	0.779552
Br93	Br	1.224466	-0.321508	0.934529
Br94	Br	0.918788	-0.401254	0.934325
H95	H	0.948259	-0.375737	0.793784
