data_functionalizedCrystal
_audit_creation_method	'MofGen! by Chris Wilmer'
_symmetry_space_group_name_H-M	'P1'
_symmetry_Int_Tables_number	1
_symmetry_cell_setting	triclinic
loop_
_symmetry_equiv_pos_as_xyz
  x,y,z
_cell_length_a	16.992694
_cell_length_b	12.837942
_cell_length_c	16.053802
_cell_angle_alpha	92.838962
_cell_angle_beta	87.249047
_cell_angle_gamma	92.748582
loop_
_atom_site_label
_atom_site_type_symbol
_atom_site_fract_x
_atom_site_fract_y
_atom_site_fract_z
O1	O	1.059913	0.217066	-0.069322
O2	O	0.831447	0.214638	-0.069347
O3	O	0.940614	0.064530	-0.069330
O4	O	0.950746	0.367174	-0.069339
O5	O	0.934602	0.072756	0.069528
O6	O	0.825435	0.222864	0.069511
O7	O	1.053901	0.225292	0.069536
Zn8	Zn	0.938714	0.225384	0.091570
Zn9	Zn	0.946634	0.214546	-0.091381
O10	O	0.944734	0.375400	0.069519
C11	C	0.798996	0.215629	0.000079
C12	C	0.711256	0.206315	0.000070
C13	C	0.667730	0.296178	0.000068
C14	C	0.585288	0.287422	0.000079
C15	C	0.546375	0.188801	0.000087
C16	C	0.589907	0.098931	0.000092
C17	C	0.672346	0.107689	0.000086
C18	C	0.300064	0.152502	0.000111
C19	C	0.217618	0.143751	0.000114
C20	C	0.213006	0.332243	0.000103
C21	C	0.295447	0.340992	0.000092
C22	C	0.338972	0.251122	0.000101
N23	N	0.462107	0.179847	0.000097
N24	N	0.423238	0.260077	0.000098
C25	C	0.934185	0.029738	0.000098
C26	C	0.923977	-0.086184	0.000096
C27	C	1.046699	-0.316977	0.000092
C28	C	1.037111	-0.425897	0.000089
C29	C	0.895215	-0.412948	0.000082
C30	C	0.904802	-0.304027	0.000085
C31	C	0.980547	-0.256046	0.000091
C32	C	0.990134	-0.147123	0.000099
C33	C	0.848238	-0.134176	0.000086
C34	C	0.838650	-0.243097	0.000084
C35	C	1.086353	0.224300	0.000108
C36	C	1.174092	0.233614	0.000112
C37	C	0.951163	0.410191	0.000089
C38	C	0.961371	0.526114	0.000086
N39	N	0.933314	0.232780	0.216430
N40	N	0.952040	0.207141	-0.216241
C41	C	0.979785	0.168935	0.260131
C42	C	0.976016	0.174120	0.347537
C43	C	0.925779	0.243156	0.391240
C44	C	0.879303	0.307004	0.347533
C45	C	0.883068	0.301813	0.260129
C46	C	0.909329	0.265799	0.652647
C47	C	0.905569	0.270987	0.740058
C48	C	1.002281	0.138101	0.740056
C49	C	1.006046	0.132921	0.652650
C50	C	0.959566	0.196765	0.608950
N51	N	0.921927	0.248459	0.480584
N52	N	0.963414	0.191455	0.519608
H53	H	0.327125	0.421299	0.000076
N54	N	0.813525	-0.464707	0.000070
H55	H	0.808616	-0.512651	-0.051409
H56	H	0.804209	-0.506512	0.051575
H57	H	1.040121	0.086121	0.775644
N58	N	0.719299	0.010768	0.000083
H59	H	0.751384	0.013254	0.051557
H60	H	0.682092	-0.052987	0.000055
H61	H	1.046952	0.076706	0.617068
N62	N	0.832942	0.370668	0.212989
H63	H	0.800546	0.415191	0.253936
H64	H	0.868150	0.417155	0.176712
N65	N	0.851391	0.345461	0.787199
H66	H	0.822518	0.385121	0.746253
H67	H	0.811969	0.304770	0.823481
N68	N	0.859195	0.334650	0.605521
H69	H	0.826802	0.379171	0.646472
H70	H	0.894399	0.381139	0.569241
N71	N	0.825112	0.381458	0.394666
H72	H	0.829778	0.375061	0.456668
H73	H	0.840408	0.455310	0.379376
H74	H	1.090979	-0.475503	0.000087
H75	H	0.549853	0.360598	0.000077
N76	N	0.709699	0.402548	0.000049
H77	H	0.669612	0.458146	0.000050
H78	H	0.741584	0.413342	0.051521
N79	N	0.166071	0.429177	0.000103
H80	H	0.133982	0.426706	-0.051367
H81	H	0.129591	0.432745	0.051616
N82	N	0.175645	0.037376	0.000117
H83	H	0.215726	-0.018228	0.000123
H84	H	0.139315	0.032692	0.051593
N85	N	0.756959	-0.294851	0.000075
H86	H	0.760921	-0.373098	0.000073
H87	H	0.725430	-0.269940	0.051553
H88	H	1.051809	-0.108058	0.000107
N89	N	1.128389	-0.265216	0.000112
H90	H	1.159972	-0.290041	-0.051357
H91	H	1.124353	-0.186982	0.000147
H92	H	0.335492	0.079324	0.000119
H93	H	1.020697	0.112723	0.224553
N94	N	0.547940	-0.007440	0.000114
H95	H	0.489110	0.000646	0.000117
H96	H	0.565578	-0.050121	-0.051359
N97	N	1.026168	0.105296	0.394673
H98	H	1.058578	0.060793	0.353724
H99	H	1.062456	0.150341	0.430912
N100	N	0.776882	-0.068459	0.000090
H101	H	0.794446	0.007824	0.000095
H102	H	0.746450	-0.087713	-0.051388
