data_functionalizedCrystal
_audit_creation_method	'MofGen! by Chris Wilmer'
_symmetry_space_group_name_H-M	'P1'
_symmetry_Int_Tables_number	1
_symmetry_cell_setting	triclinic
loop_
_symmetry_equiv_pos_as_xyz
  x,y,z
_cell_length_a	16.120484
_cell_length_b	16.959455
_cell_length_c	16.959447
_cell_angle_alpha	90.017493
_cell_angle_beta	92.870259
_cell_angle_gamma	87.077546
loop_
_atom_site_label
_atom_site_type_symbol
_atom_site_fract_x
_atom_site_fract_y
_atom_site_fract_z
Zn1	Zn	-0.331988	-1.192418	-0.462853
Zn2	Zn	0.168012	-0.692418	0.037147
Zn3	Zn	-0.471408	-1.185618	-0.337370
Zn4	Zn	0.028592	-0.685618	0.162630
Zn5	Zn	-0.332005	-1.060238	-0.330691
Zn6	Zn	0.167995	-0.560238	0.169309
Zn7	Zn	-0.471354	-1.053498	-0.469506
Zn8	Zn	0.028646	-0.553498	0.030494
O9	O	-0.401689	-1.122943	-0.400105
O10	O	0.098311	-0.622943	0.099895
O11	O	-0.350497	-1.302126	-0.446218
O12	O	0.149503	-0.802126	0.053782
O13	O	-0.452945	-1.168961	-0.225874
O14	O	0.047055	-0.668961	0.274126
O15	O	-0.215337	-1.083439	-0.342643
O16	O	0.284663	-0.583439	0.157357
O17	O	-0.452928	-1.297130	-0.354026
O18	O	0.047072	-0.797130	0.145974
O19	O	-0.215324	-1.180551	-0.439742
O20	O	0.284676	-0.680551	0.060258
O21	O	-0.350527	-1.076845	-0.220967
O22	O	0.149473	-0.576845	0.279033
O23	O	-0.350475	-0.948734	-0.349094
O24	O	0.149525	-0.448734	0.150906
O25	O	-0.452837	-1.071952	-0.579233
O26	O	0.047163	-0.571952	-0.079233
O27	O	-0.452854	-0.943782	-0.451081
O28	O	0.047146	-0.443782	0.048919
O29	O	-0.350445	-1.174015	-0.574345
O30	O	0.149555	-0.674015	-0.074345
O31	O	-0.588066	-1.162425	-0.360477
O32	O	-0.088066	-0.662425	0.139523
O33	O	-0.588027	-1.065358	-0.457557
O34	O	-0.088027	-0.565358	0.042443
C35	C	-0.401661	-0.917578	-0.400085
C36	C	0.098339	-0.417578	0.099915
C37	C	-0.401670	-0.829721	-0.400097
C38	C	0.098330	-0.329721	0.099903
C39	C	-0.618297	-1.112444	-0.410481
C40	C	-0.118297	-0.612444	0.089519
C41	C	-0.710962	-1.108024	-0.414947
C42	C	-0.210962	-0.608024	0.085053
C43	C	-0.401633	-1.122990	-0.606270
C44	C	0.098367	-0.622990	-0.106270
C45	C	-0.401610	-1.123010	-0.694126
C46	C	0.098390	-0.623010	-0.194126
C47	C	-0.880624	-1.099961	-0.423116
C48	C	-0.380624	-0.599961	0.076884
C49	C	-0.921913	-1.146067	-0.377107
C50	C	-0.421913	-0.646067	0.122893
C51	C	-1.016318	-1.141581	-0.381652
C52	C	-0.516318	-0.641581	0.118348
C53	C	-0.786210	-1.104446	-0.418571
C54	C	-0.286210	-0.604446	0.081429
C55	C	-0.184235	-1.133505	-0.389705
C56	C	0.315765	-0.633505	0.110295
C57	C	-0.091569	-1.138006	-0.385273
C58	C	0.408431	-0.638006	0.114727
C59	C	-0.401717	-1.329110	-0.400125
C60	C	0.098283	-0.829110	0.099875
C61	C	-0.401729	-1.416966	-0.400133
C62	C	0.098271	-0.916966	0.099867
C63	C	-0.348336	-0.460801	-0.347104
C64	C	0.151664	0.039199	0.152896
C65	C	-0.455110	-0.455685	-0.453154
C66	C	0.044890	0.044315	0.046846
C67	C	-0.455098	-0.538232	-0.453149
C68	C	0.044902	-0.038232	0.046851
C69	C	-0.401705	-0.582067	-0.400119
C70	C	0.098295	-0.082067	0.099881
C71	C	-0.348324	-0.543355	-0.347095
C72	C	0.151676	-0.043355	0.152905
C73	C	-0.508483	-0.576949	-0.506167
C74	C	-0.008483	-0.076949	-0.006167
C75	C	-0.508474	-0.659501	-0.506163
C76	C	-0.008474	-0.159501	-0.006163
C77	C	-0.455077	-0.703337	-0.453136
C78	C	0.044923	-0.203337	0.046864
C79	C	-0.401693	-0.664621	-0.400111
C80	C	0.098307	-0.164621	0.099889
C81	C	-0.348301	-0.708455	-0.347081
C82	C	0.151699	-0.208455	0.152919
C83	C	-0.294912	-0.669741	-0.294059
C84	C	0.205088	-0.169741	0.205941
C85	C	-0.294927	-0.587191	-0.294069
C86	C	0.205073	-0.087191	0.205931
C87	C	-0.455062	-0.785886	-0.453126
C88	C	0.044938	-0.285886	0.046874
C89	C	-0.348289	-0.791010	-0.347072
C90	C	0.151711	-0.291010	0.152928
C91	C	-0.454910	-1.069881	-0.737946
C92	C	0.045090	-0.569881	-0.237946
C93	C	-0.348282	-1.176154	-0.732858
C94	C	0.151718	-0.676154	-0.232858
C95	C	-0.348254	-1.176172	-0.815403
C96	C	0.151746	-0.676172	-0.315403
C97	C	-0.401555	-1.123042	-0.859223
C98	C	0.098445	-0.623042	-0.359223
C99	C	-0.454883	-1.069895	-0.820498
C100	C	0.045117	-0.569895	-0.320498
C101	C	-0.294922	-1.229313	-0.854133
C102	C	0.205078	-0.729313	-0.354133
C103	C	-0.294892	-1.229332	-0.936683
C104	C	0.205108	-0.729332	-0.436683
C105	C	-0.348197	-1.176206	-0.980505
C106	C	0.151803	-0.676206	-0.480505
C107	C	-0.401527	-1.123057	-0.941775
C108	C	0.098473	-0.623057	-0.441775
C109	C	-0.454828	-1.069927	-0.985595
C110	C	0.045172	-0.569927	-0.485595
C111	C	-0.508163	-1.016782	-0.946867
C112	C	-0.008163	-0.516782	-0.446867
C113	C	-0.508188	-1.016769	-0.864320
C114	C	-0.008188	-0.516769	-0.364320
C115	C	-0.348172	-1.176219	-1.063052
C116	C	0.151828	-0.676219	-0.563052
C117	C	-0.454800	-1.069942	-1.068147
C118	C	0.045200	-0.569942	-0.568147
C119	C	-0.401684	-1.122945	-0.194738
C120	C	0.098316	-0.622945	0.305262
C121	C	-0.401473	-1.123089	-0.106872
C122	C	0.098527	-0.623089	0.393128
H123	H	-0.886361	-1.188910	-0.334303
H124	H	-0.386361	-0.688910	0.165697
O125	O	-0.927712	-1.043210	-0.479806
O126	O	-0.427712	-0.543210	0.020194
H127	H	-0.882905	-1.010125	-0.512815
H128	H	-0.382905	-0.510125	-0.012815
H129	H	-0.498337	-1.026613	-0.706410
H130	H	0.001663	-0.526613	-0.206410
H131	H	-0.551959	-0.541253	-0.549335
H132	H	-0.051959	-0.041253	-0.049335
O133	O	-0.237433	-1.286607	-0.806868
O134	O	0.262567	-0.786607	-0.306868
H135	H	-0.200335	-1.323557	-0.847663
H136	H	0.299665	-0.823557	-0.347663
O137	O	-0.237351	-0.545446	-0.236873
O138	O	0.262649	-0.045446	0.263127
H139	H	-0.251567	-0.560595	-0.175499
H140	H	0.248433	-0.060595	0.324501
O141	O	-0.290710	-0.838288	-0.289867
O142	O	0.209290	-0.338288	0.210133
H143	H	-0.253600	-0.797497	-0.252995
H144	H	0.246400	-0.297497	0.247005
O145	O	-0.237327	-0.717017	-0.236857
O146	O	0.262673	-0.217017	0.263143
H147	H	-0.194953	-0.756689	-0.270266
H148	H	0.305047	-0.256689	0.229734
H149	H	-0.304883	-1.219406	-0.697175
H150	H	0.195117	-0.719406	-0.197175
O151	O	-0.237365	-1.286650	-0.978446
O152	O	0.262635	-0.786650	-0.478446
H153	H	-0.246294	-1.277733	-1.043209
H154	H	0.253706	-0.777733	-0.543209
H155	H	-0.304741	-1.219483	-1.094580
H156	H	0.195259	-0.719483	-0.594580
H157	H	-0.304867	-0.429276	-0.303936
H158	H	0.195133	0.070724	0.196064
H159	H	-0.498584	-0.419990	-0.496324
H160	H	0.001416	0.080010	0.003676
H161	H	-0.551946	-0.691015	-0.549337
H162	H	-0.051946	-0.191015	-0.049337
H163	H	-0.498208	-1.026680	-1.103820
H164	H	0.001792	-0.526680	-0.603820
H165	H	-0.498533	-0.817404	-0.496294
H166	H	0.001467	-0.317404	0.003706
H167	H	-0.551556	-0.973520	-0.982556
H168	H	-0.051556	-0.473520	-0.482556
H169	H	-0.551610	-0.973500	-0.832780
H170	H	-0.051610	-0.473500	-0.332780
