data_functionalizedCrystal
_audit_creation_method	'MofGen! by Chris Wilmer'
_symmetry_space_group_name_H-M	'P1'
_symmetry_Int_Tables_number	1
_symmetry_cell_setting	triclinic
loop_
_symmetry_equiv_pos_as_xyz
  x,y,z
_cell_length_a	8.497374
_cell_length_b	11.169416
_cell_length_c	11.169417
_cell_angle_alpha	89.988781
_cell_angle_beta	89.999788
_cell_angle_gamma	90.005100
loop_
_atom_site_label
_atom_site_type_symbol
_atom_site_fract_x
_atom_site_fract_y
_atom_site_fract_z
Zn1	Zn	0.891929	-0.477987	-1.834730
Zn2	Zn	1.225263	-0.144654	-1.501397
Zn3	Zn	1.558596	0.188680	-1.168063
Zn4	Zn	0.628147	-0.678637	-1.834688
Zn5	Zn	0.961481	-0.345304	-1.501355
Zn6	Zn	1.294814	-0.011971	-1.168021
Zn7	Zn	0.628164	-0.477970	-1.634085
Zn8	Zn	0.961497	-0.144637	-1.300751
Zn9	Zn	1.294830	0.188697	-0.967418
Zn10	Zn	0.891886	-0.678630	-1.634023
Zn11	Zn	1.225219	-0.345297	-1.300690
Zn12	Zn	1.558552	-0.011963	-0.967357
O13	O	0.760031	-0.578306	-1.734381
O14	O	1.093365	-0.244973	-1.401048
O15	O	1.426698	0.088361	-1.067715
O16	O	0.856949	-0.504614	-2.002674
O17	O	1.190283	-0.171281	-1.669341
O18	O	1.523616	0.162053	-1.336007
O19	O	0.407387	-0.652014	-1.808086
O20	O	0.740720	-0.318681	-1.474752
O21	O	1.074054	0.014652	-1.141419
O22	O	0.663178	-0.310023	-1.660744
O23	O	0.996511	0.023311	-1.327410
O24	O	1.329844	0.356644	-0.994077
O25	O	0.663150	-0.652031	-2.002643
O26	O	0.996483	-0.318698	-1.669310
O27	O	1.329817	0.014636	-1.335977
O28	O	0.856965	-0.310035	-1.808157
O29	O	1.190298	0.023298	-1.474824
O30	O	1.523632	0.356632	-1.141490
O31	O	0.407399	-0.504585	-1.660703
O32	O	0.740732	-0.171252	-1.327370
O33	O	1.074066	0.162082	-0.994036
O34	O	0.663135	-0.504578	-1.466127
O35	O	0.996469	-0.171244	-1.132793
O36	O	1.329802	0.162089	-0.799460
O37	O	1.112654	-0.652018	-1.660639
O38	O	1.445987	-0.318685	-1.327306
O39	O	1.779320	0.014648	-0.993973
O40	O	0.856891	-0.652002	-1.466082
O41	O	1.190224	-0.318668	-1.132748
O42	O	1.523558	0.014665	-0.799415
O43	O	1.112686	-0.504607	-1.808098
O44	O	1.446019	-0.171274	-1.474764
O45	O	1.779352	0.162060	-1.141431
O46	O	0.663108	-0.846586	-1.808026
O47	O	0.996441	-0.513253	-1.474693
O48	O	1.329774	-0.179919	-1.141360
O49	O	0.856875	-0.846581	-1.660599
O50	O	1.190209	-0.513247	-1.327265
O51	O	1.523542	-0.179914	-0.993932
C52	C	0.760019	-0.890131	-1.734334
C53	C	1.093353	-0.556797	-1.401001
C54	C	1.426686	-0.223464	-1.067667
C55	C	0.760067	-1.023531	-1.734423
C56	C	1.093400	-0.690197	-1.401090
C57	C	1.426734	-0.356864	-1.067757
C58	C	0.760011	-0.578288	-1.422557
C59	C	1.093344	-0.244955	-1.089223
C60	C	1.426678	0.088379	-0.755890
C61	C	0.760040	-0.578309	-1.289157
C62	C	1.093373	-0.244976	-0.955823
C63	C	1.426707	0.088358	-0.622490
C64	C	1.171512	-0.578308	-1.734373
C65	C	1.504845	-0.244975	-1.401039
C66	C	1.838178	0.088359	-1.067706
C67	C	1.350156	-0.578321	-1.734375
C68	C	1.683489	-0.244987	-1.401042
C69	C	2.016822	0.088346	-1.067709
C70	C	0.760078	-0.265264	-1.734462
C71	C	1.093411	0.068070	-1.401129
C72	C	1.426745	0.401403	-1.067795
C73	C	0.760098	-0.131864	-1.734496
C74	C	1.093431	0.201470	-1.401163
C75	C	1.426765	0.534803	-1.067830
C76	C	0.760053	-0.578325	-2.047424
C77	C	1.093386	-0.244992	-1.714090
C78	C	1.426719	0.088341	-1.380757
C79	C	0.760062	-0.578333	-2.180824
C80	C	1.093395	-0.245000	-1.847490
C81	C	1.426728	0.088333	-1.514157
