data_functionalizedCrystal
_audit_creation_method	'MofGen! by Chris Wilmer'
_symmetry_space_group_name_H-M	'P1'
_symmetry_Int_Tables_number	1
_symmetry_cell_setting	triclinic
loop_
_symmetry_equiv_pos_as_xyz
  x,y,z
_cell_length_a	12.759395
_cell_length_b	25.639239
_cell_length_c	12.759387
_cell_angle_alpha	89.963582
_cell_angle_beta	89.980569
_cell_angle_gamma	90.038532
loop_
_atom_site_label
_atom_site_type_symbol
_atom_site_fract_x
_atom_site_fract_y
_atom_site_fract_z
Zn1	Zn	1.606094	-0.208125	-0.593934
Zn2	Zn	1.605911	-0.295571	-0.418237
Zn3	Zn	1.430392	-0.208151	-0.418274
Zn4	Zn	1.430311	-0.295531	-0.593879
O5	O	1.518177	-0.251845	-0.506081
O6	O	1.753090	-0.219731	-0.570635
O7	O	1.582585	-0.284002	-0.271221
O8	O	1.453809	-0.134983	-0.441614
O9	O	1.752956	-0.283977	-0.441551
O10	O	1.582897	-0.134964	-0.570670
O11	O	1.453632	-0.219775	-0.271248
O12	O	1.283360	-0.219737	-0.441561
O13	O	1.453671	-0.283909	-0.740908
O14	O	1.283300	-0.283934	-0.570578
O15	O	1.582818	-0.219693	-0.740948
O16	O	1.582506	-0.368731	-0.441498
O17	O	1.453494	-0.368702	-0.570542
C18	C	1.245209	-0.251834	-0.506068
C19	C	1.128432	-0.251843	-0.506087
C20	C	1.128553	-0.185051	-0.640719
C21	C	1.073753	-0.151662	-0.708044
C22	C	0.964031	-0.151671	-0.708057
C23	C	0.909107	-0.185072	-0.640736
C24	C	0.963908	-0.218462	-0.573412
C25	C	1.073632	-0.218450	-0.573408
C26	C	0.963787	-0.285249	-0.438776
C27	C	1.073509	-0.285244	-0.438767
C28	C	0.908864	-0.318651	-0.371455
C29	C	0.963664	-0.352043	-0.304134
C30	C	1.073392	-0.352033	-0.304125
C31	C	1.128309	-0.318633	-0.371442
C32	C	1.518000	-0.387687	-0.506033
C33	C	1.518020	-0.445801	-0.506047
C34	C	1.585529	-0.806167	-0.439002
C35	C	1.585570	-0.860771	-0.439017
O36	O	1.642784	-0.889010	-0.381960
N37	N	1.518361	-0.888084	-0.506151
C38	C	1.451115	-0.860789	-0.573283
O39	O	1.393954	-0.889035	-0.630387
C40	C	1.451081	-0.806186	-0.573273
C41	C	1.518286	-0.778876	-0.506127
C42	C	1.652729	-0.778857	-0.371863
C43	C	1.652687	-0.724257	-0.371848
C44	C	1.585444	-0.696966	-0.438972
C45	C	1.518244	-0.724276	-0.506112
C46	C	1.383841	-0.778892	-0.640410
C47	C	1.383813	-0.724285	-0.640395
C48	C	1.451018	-0.696976	-0.573249
C49	C	1.450958	-0.642384	-0.573221
N50	N	1.518167	-0.615072	-0.506087
C51	C	1.585409	-0.642363	-0.438963
C52	C	1.451195	-0.975460	-0.573299
C53	C	1.451223	-1.030062	-0.573304
C54	C	1.585679	-1.030041	-0.439039
C55	C	1.585644	-0.975437	-0.439029
C56	C	1.518403	-0.948147	-0.506165
C57	C	1.585315	-0.527698	-0.438935
C58	C	1.585263	-0.473092	-0.438923
C59	C	1.450812	-0.473119	-0.573191
C60	C	1.450859	-0.527719	-0.573200
C61	C	1.518119	-0.555007	-0.506069
O62	O	1.393776	-0.614111	-0.630252
O63	O	1.642571	-0.614111	-0.381877
C64	C	1.792210	-0.251856	-0.506095
C65	C	1.908987	-0.251860	-0.506100
C66	C	1.518256	-0.251794	-0.780115
C67	C	1.518290	-0.251772	-0.896891
C68	C	1.518383	-0.115472	-0.506152
C69	C	1.518470	-0.057358	-0.506183
C70	C	1.652780	-0.184907	-0.896953
C71	C	1.720039	-0.151467	-0.951844
C72	C	1.720065	-0.151448	-1.061566
C73	C	1.652821	-0.184872	-1.116399
C74	C	1.585562	-0.218312	-1.061507
C75	C	1.585546	-0.218328	-0.951783
C76	C	1.451068	-0.285173	-1.061446
C77	C	1.451046	-0.285195	-0.951724
C78	C	1.383825	-0.318596	-1.116279
C79	C	1.316569	-0.352040	-1.061387
C80	C	1.316547	-0.352058	-0.951659
C81	C	1.383787	-0.318635	-0.896833
C82	C	1.518158	-0.251858	-0.233114
C83	C	1.518328	-0.251733	-0.116337
H84	H	1.217650	-0.318619	-0.371436
O85	O	1.378656	-0.946025	-0.645701
H86	H	1.325218	-0.921189	-0.598623
O87	O	1.725188	-0.694804	-0.299442
H88	H	1.771956	-0.722962	-0.252785
O89	O	1.657759	-0.443635	-0.366507
H90	H	1.704532	-0.471790	-0.319845
H91	H	1.640086	-0.549909	-0.384273
O92	O	1.383758	-0.318661	-0.778490
H93	H	1.362580	-0.279230	-0.749576
O94	O	0.904422	-0.388061	-0.231527
H95	H	0.960958	-0.411277	-0.184707
H96	H	1.774827	-0.124215	-1.106259
H97	H	1.383846	-0.318576	-1.205620
H98	H	0.819766	-0.185073	-0.640744
H99	H	1.396138	-0.549956	-0.627879
O100	O	1.792573	-0.115424	-0.892701
H101	H	1.745592	-0.088829	-0.842710
O102	O	1.243981	-0.388116	-0.892453
H103	H	1.197229	-0.411350	-0.949019
O104	O	1.246896	-0.185042	-0.640702
H105	H	1.275881	-0.156206	-0.698817
H106	H	0.919412	-0.124480	-0.762872
O107	O	1.132499	-0.388045	-0.231508
H108	H	1.075870	-0.411271	-0.184707
H109	H	1.396060	-0.450890	-0.627840
O110	O	1.652837	-0.184849	-1.234742
H111	H	1.710903	-0.155982	-1.263699
H112	H	1.118483	-0.124467	-0.762853
O113	O	0.790521	-0.318658	-0.371465
H114	H	0.761539	-0.347489	-0.313338
O115	O	1.244040	-0.388082	-1.120525
H116	H	1.291022	-0.414679	-1.170508
O117	O	1.725254	-0.808289	-0.299451
H118	H	1.771963	-0.780117	-0.252765
O119	O	1.311270	-0.694854	-0.712797
H120	H	1.329246	-0.705298	-0.795272
H121	H	1.652776	-0.184924	-0.807612
H122	H	1.640435	-1.052271	-0.384386
O123	O	1.658139	-0.945982	-0.366620
H124	H	1.704904	-0.974138	-0.319955
O125	O	1.311359	-0.808336	-0.712843
H126	H	1.257929	-0.833255	-0.665795
H127	H	1.396488	-1.052293	-0.627971
