data_functionalizedCrystal
_audit_creation_method	'MofGen! by Chris Wilmer'
_symmetry_space_group_name_H-M	'P1'
_symmetry_Int_Tables_number	1
_symmetry_cell_setting	triclinic
loop_
_symmetry_equiv_pos_as_xyz
  x,y,z
_cell_length_a	25.639243
_cell_length_b	25.639239
_cell_length_c	25.639234
_cell_angle_alpha	89.975095
_cell_angle_beta	89.976852
_cell_angle_gamma	90.041410
loop_
_atom_site_label
_atom_site_type_symbol
_atom_site_fract_x
_atom_site_fract_y
_atom_site_fract_z
Zn1	Zn	0.799262	-0.208145	-0.295656
Zn2	Zn	1.049262	0.041855	-0.045656
Zn3	Zn	1.299262	0.291855	0.204344
Zn4	Zn	1.549262	0.541855	0.454344
Zn5	Zn	0.799175	-0.295573	-0.208220
Zn6	Zn	1.049175	-0.045573	0.041780
Zn7	Zn	1.299175	0.204427	0.291780
Zn8	Zn	1.549175	0.454427	0.541780
Zn9	Zn	0.711828	-0.208157	-0.208229
Zn10	Zn	0.961828	0.041843	0.041771
Zn11	Zn	1.211828	0.291843	0.291771
Zn12	Zn	1.461828	0.541843	0.541771
Zn13	Zn	0.711784	-0.295555	-0.295619
Zn14	Zn	0.961784	-0.045555	-0.045619
Zn15	Zn	1.211784	0.204445	0.204381
Zn16	Zn	1.461784	0.454445	0.454381
O17	O	0.755512	-0.251857	-0.251931
O18	O	1.005512	-0.001857	-0.001931
O19	O	1.255512	0.248143	0.248069
O20	O	1.505512	0.498143	0.498069
O21	O	0.872416	-0.219744	-0.284069
O22	O	1.122416	0.030256	-0.034069
O23	O	1.372416	0.280256	0.215931
O24	O	1.622416	0.530256	0.465931
O25	O	0.787570	-0.283990	-0.135056
O26	O	1.037570	-0.033990	0.114944
O27	O	1.287570	0.216010	0.364944
O28	O	1.537570	0.466010	0.614944
O29	O	0.723481	-0.134990	-0.219846
O30	O	0.973481	0.115010	0.030154
O31	O	1.223481	0.365010	0.280154
O32	O	1.473481	0.615010	0.530154
O33	O	0.872351	-0.283977	-0.219830
O34	O	1.122351	-0.033977	0.030170
O35	O	1.372351	0.216023	0.280170
O36	O	1.622351	0.466023	0.530170
O37	O	0.787719	-0.134981	-0.284077
O38	O	1.037719	0.115019	-0.034077
O39	O	1.287719	0.365019	0.215923
O40	O	1.537719	0.615019	0.465923
O41	O	0.723396	-0.219766	-0.135063
O42	O	0.973396	0.030234	0.114937
O43	O	1.223396	0.280234	0.364937
O44	O	1.473396	0.530234	0.614937
O45	O	0.638656	-0.219749	-0.219810
O46	O	0.888656	0.030251	0.030190
O47	O	1.138656	0.280251	0.280190
O48	O	1.388656	0.530251	0.530190
O49	O	0.723406	-0.283947	-0.368789
O50	O	0.973406	-0.033947	-0.118789
O51	O	1.223406	0.216053	0.131211
O52	O	1.473406	0.466053	0.381211
O53	O	0.638624	-0.283959	-0.284016
O54	O	0.888624	-0.033959	-0.034016
O55	O	1.138624	0.216041	0.215984
O56	O	1.388624	0.466041	0.465984
O57	O	0.787676	-0.219727	-0.368816
O58	O	1.037676	0.030273	-0.118816
O59	O	1.287676	0.280273	0.131184
O60	O	1.537676	0.530273	0.381184
O61	O	0.787527	-0.368736	-0.219795
O62	O	1.037527	-0.118736	0.030205
O63	O	1.287527	0.131264	0.280205
O64	O	1.537527	0.381264	0.530205
O65	O	0.723321	-0.368723	-0.284007
O66	O	0.973321	-0.118723	-0.034007
O67	O	1.223321	0.131277	0.215993
O68	O	1.473321	0.381277	0.465993
C69	C	0.619669	-0.251854	-0.251910
C70	C	0.869669	-0.001854	-0.001910
C71	C	1.119669	0.248146	0.248090
C72	C	1.369669	0.498146	0.498090
C73	C	0.561555	-0.251865	-0.251914
C74	C	0.811555	-0.001865	-0.001914
C75	C	1.061555	0.248135	0.248086
C76	C	1.311555	0.498135	0.498086
C77	C	0.201220	-0.218464	-0.285436
C78	C	0.451220	0.031536	-0.035436
C79	C	0.701220	0.281536	0.214564
C80	C	0.951220	0.531536	0.464564
C81	C	0.146616	-0.218463	-0.285439
C82	C	0.396616	0.031537	-0.035439
C83	C	0.646616	0.281537	0.214561
C84	C	0.896616	0.531537	0.464561
O85	O	0.118403	-0.190055	-0.313915
O86	O	0.368403	0.059945	-0.063915
O87	O	0.618403	0.309945	0.186085
O88	O	0.868403	0.559945	0.436085
N89	N	0.119273	-0.251856	-0.251945
N90	N	0.369273	-0.001856	-0.001945
N91	N	0.619273	0.248144	0.248055
N92	N	0.869273	0.498144	0.498055
C93	C	0.146537	-0.285247	-0.218443
C94	C	0.396537	-0.035247	0.031557
C95	C	0.646537	0.214753	0.281557
C96	C	0.896537	0.464753	0.531557
O97	O	0.118266	-0.313650	-0.189954
O98	O	0.368266	-0.063650	0.060046
O99	O	0.618266	0.186350	0.310046
O100	O	0.868266	0.436350	0.560046
C101	C	0.201140	-0.285245	-0.218437
C102	C	0.451140	-0.035245	0.031563
C103	C	0.701140	0.214755	0.281563
C104	C	0.951140	0.464755	0.531563
C105	C	0.228481	-0.251854	-0.251937
C106	C	0.478481	-0.001854	-0.001937
C107	C	0.728481	0.248146	0.248063
C108	C	0.978481	0.498146	0.498063
C109	C	0.228560	-0.185075	-0.318932
C110	C	0.478560	0.064925	-0.068932
C111	C	0.728560	0.314925	0.181068
C112	C	0.978560	0.564925	0.431068
C113	C	0.283161	-0.185076	-0.318930
C114	C	0.533161	0.064924	-0.068930
C115	C	0.783161	0.314924	0.181070
C116	C	1.033161	0.564924	0.431070
C117	C	0.310421	-0.218466	-0.285431
C118	C	0.560421	0.031534	-0.035431
C119	C	0.810421	0.281534	0.214569
C120	C	1.060421	0.531534	0.464569
C121	C	0.283081	-0.251855	-0.251934
C122	C	0.533081	-0.001855	-0.001934
C123	C	0.783081	0.248145	0.248066
C124	C	1.033081	0.498145	0.498066
C125	C	0.228404	-0.318633	-0.184932
C126	C	0.478404	-0.068633	0.065068
C127	C	0.728404	0.181367	0.315068
C128	C	0.978404	0.431367	0.565068
C129	C	0.283011	-0.318627	-0.184929
C130	C	0.533011	-0.068627	0.065071
C131	C	0.783011	0.181373	0.315071
C132	C	1.033011	0.431373	0.565071
C133	C	0.310351	-0.285236	-0.218429
C134	C	0.560351	-0.035236	0.031571
C135	C	0.810351	0.214764	0.281571
C136	C	1.060351	0.464764	0.531571
C137	C	0.364942	-0.285246	-0.218432
C138	C	0.614942	-0.035246	0.031568
C139	C	0.864942	0.214754	0.281568
C140	C	1.114942	0.464754	0.531568
N141	N	0.392285	-0.251854	-0.251926
N142	N	0.642285	-0.001854	-0.001926
N143	N	0.892285	0.248146	0.248074
N144	N	1.142285	0.498146	0.498074
C145	C	0.365025	-0.218464	-0.285425
C146	C	0.615025	0.031536	-0.035425
C147	C	0.865025	0.281536	0.214575
C148	C	1.115025	0.531536	0.464575
C149	C	0.031866	-0.285250	-0.218456
C150	C	0.281866	-0.035250	0.031544
C151	C	0.531866	0.214750	0.281544
C152	C	0.781866	0.464750	0.531544
C153	C	-0.022736	-0.285255	-0.218464
C154	C	0.227264	-0.035255	0.031536
C155	C	0.477264	0.214745	0.281536
C156	C	0.727264	0.464745	0.531536
C157	C	-0.022653	-0.218470	-0.285460
C158	C	0.227347	0.031530	-0.035460
C159	C	0.477347	0.281530	0.214540
C160	C	0.727347	0.531530	0.464540
C161	C	0.031950	-0.218468	-0.285454
C162	C	0.281950	0.031532	-0.035454
C163	C	0.531950	0.281532	0.214546
C164	C	0.781950	0.531532	0.464546
C165	C	0.059209	-0.251857	-0.251950
C166	C	0.309209	-0.001857	-0.001950
C167	C	0.559209	0.248143	0.248050
C168	C	0.809209	0.498143	0.498050
C169	C	0.479690	-0.218469	-0.285417
C170	C	0.729690	0.031531	-0.035417
C171	C	0.979690	0.281531	0.214583
C172	C	1.229690	0.531531	0.464583
C173	C	0.534295	-0.218475	-0.285413
C174	C	0.784295	0.031525	-0.035413
C175	C	1.034295	0.281525	0.214587
C176	C	1.284295	0.531525	0.464587
C177	C	0.534208	-0.285258	-0.218415
C178	C	0.784208	-0.035258	0.031585
C179	C	1.034208	0.214742	0.281585
C180	C	1.284208	0.464742	0.531585
C181	C	0.479607	-0.285254	-0.218421
C182	C	0.729607	-0.035254	0.031579
C183	C	0.979607	0.214746	0.281579
C184	C	1.229607	0.464746	0.531579
C185	C	0.452349	-0.251856	-0.251924
C186	C	0.702349	-0.001856	-0.001924
C187	C	0.952349	0.248144	0.248076
C188	C	1.202349	0.498144	0.498076
O189	O	0.393190	-0.313639	-0.189969
O190	O	0.643190	-0.063639	0.060031
O191	O	0.893190	0.186361	0.310031
O192	O	1.143190	0.436361	0.560031
O193	O	0.393303	-0.190061	-0.313904
O194	O	0.643303	0.059939	-0.063904
O195	O	0.893303	0.309939	0.186096
O196	O	1.143303	0.559939	0.436096
C197	C	0.755424	-0.387700	-0.251907
C198	C	1.005424	-0.137700	-0.001907
C199	C	1.255424	0.112300	0.248093
C200	C	1.505424	0.362300	0.498093
C201	C	0.755434	-0.445814	-0.251914
C202	C	1.005434	-0.195814	-0.001914
C203	C	1.255434	0.054186	0.248086
C204	C	1.505434	0.304186	0.498086
C205	C	0.789031	-0.806171	-0.218553
C206	C	1.039031	-0.556171	0.031447
C207	C	1.289031	-0.306171	0.281447
C208	C	1.539031	-0.056171	0.531447
C209	C	0.789051	-0.860776	-0.218560
C210	C	1.039051	-0.610776	0.031440
C211	C	1.289051	-0.360776	0.281440
C212	C	1.539051	-0.110776	0.531440
O213	O	0.817526	-0.889007	-0.190169
O214	O	1.067526	-0.639007	0.059831
O215	O	1.317526	-0.389007	0.309831
O216	O	1.567526	-0.139007	0.559831
N217	N	0.755604	-0.888096	-0.251966
N218	N	1.005604	-0.638096	-0.001966
N219	N	1.255604	-0.388096	0.248034
N220	N	1.505604	-0.138096	0.498034
C221	C	0.722138	-0.860810	-0.285371
C222	C	0.972138	-0.610810	-0.035371
C223	C	1.222138	-0.360810	0.214629
C224	C	1.472138	-0.110810	0.464629
O225	O	0.693690	-0.889063	-0.313786
O226	O	0.943690	-0.639063	-0.063786
O227	O	1.193690	-0.389063	0.186214
O228	O	1.443690	-0.139063	0.436214
C229	C	0.722120	-0.806207	-0.285366
C230	C	0.972120	-0.556207	-0.035366
C231	C	1.222120	-0.306207	0.214634
C232	C	1.472120	-0.056207	0.464634
C233	C	0.755566	-0.778889	-0.251954
C234	C	1.005566	-0.528889	-0.001954
C235	C	1.255566	-0.278889	0.248046
C236	C	1.505566	-0.028889	0.498046
C237	C	0.822475	-0.778853	-0.185144
C238	C	1.072475	-0.528853	0.064856
C239	C	1.322475	-0.278853	0.314856
C240	C	1.572475	-0.028853	0.564856
C241	C	0.822454	-0.724253	-0.185137
C242	C	1.072454	-0.474253	0.064863
C243	C	1.322454	-0.224253	0.314863
C244	C	1.572454	0.025747	0.564863
C245	C	0.788989	-0.696970	-0.218538
C246	C	1.038989	-0.446970	0.031462
C247	C	1.288989	-0.196970	0.281462
C248	C	1.538989	0.053030	0.531462
C249	C	0.755545	-0.724288	-0.251946
C250	C	1.005545	-0.474288	-0.001946
C251	C	1.255545	-0.224288	0.248054
C252	C	1.505545	0.025712	0.498054
C253	C	0.688657	-0.778922	-0.318773
C254	C	0.938657	-0.528922	-0.068773
C255	C	1.188657	-0.278922	0.181227
C256	C	1.438657	-0.028922	0.431227
C257	C	0.688643	-0.724315	-0.318765
C258	C	0.938643	-0.474315	-0.068765
C259	C	1.188643	-0.224315	0.181235
C260	C	1.438643	0.025685	0.431235
C261	C	0.722089	-0.696997	-0.285354
C262	C	0.972089	-0.446997	-0.035354
C263	C	1.222089	-0.196997	0.214646
C264	C	1.472089	0.053003	0.464646
C265	C	0.722059	-0.642405	-0.285340
C266	C	0.972059	-0.392405	-0.035340
C267	C	1.222059	-0.142405	0.214660
C268	C	1.472059	0.107595	0.464660
N269	N	0.755507	-0.615084	-0.251934
N270	N	1.005507	-0.365084	-0.001934
N271	N	1.255507	-0.115084	0.248066
N272	N	1.505507	0.134916	0.498066
C273	C	0.788972	-0.642367	-0.218533
C274	C	1.038972	-0.392367	0.031467
C275	C	1.288972	-0.142367	0.281467
C276	C	1.538972	0.107633	0.531467
C277	C	0.722177	-0.975481	-0.285379
C278	C	0.972177	-0.725481	-0.035379
C279	C	1.222177	-0.475481	0.214621
C280	C	1.472177	-0.225481	0.464621
C281	C	0.722191	-1.030083	-0.285381
C282	C	0.972191	-0.780083	-0.035381
C283	C	1.222191	-0.530083	0.214619
C284	C	1.472191	-0.280083	0.464619
C285	C	0.789106	-1.030045	-0.218571
C286	C	1.039106	-0.780045	0.031429
C287	C	1.289106	-0.530045	0.281429
C288	C	1.539106	-0.280045	0.531429
C289	C	0.789089	-0.975441	-0.218566
C290	C	1.039089	-0.725441	0.031434
C291	C	1.289089	-0.475441	0.281434
C292	C	1.539089	-0.225441	0.531434
C293	C	0.755625	-0.948160	-0.251973
C294	C	1.005625	-0.698160	-0.001973
C295	C	1.255625	-0.448160	0.248027
C296	C	1.505625	-0.198160	0.498027
C297	C	0.788925	-0.527702	-0.218519
C298	C	1.038925	-0.277702	0.031481
C299	C	1.288925	-0.027702	0.281481
C300	C	1.538925	0.222298	0.531481
C301	C	0.788899	-0.473097	-0.218513
C302	C	1.038899	-0.223097	0.031487
C303	C	1.288899	0.026903	0.281487
C304	C	1.538899	0.276903	0.531487
C305	C	0.721987	-0.473140	-0.285325
C306	C	0.971987	-0.223140	-0.035325
C307	C	1.221987	0.026860	0.214675
C308	C	1.471987	0.276860	0.464675
C309	C	0.722010	-0.527740	-0.285330
C310	C	0.972010	-0.277740	-0.035330
C311	C	1.222010	-0.027740	0.214670
C312	C	1.472010	0.222260	0.464670
C313	C	0.755483	-0.555020	-0.251925
C314	C	1.005483	-0.305020	-0.001925
C315	C	1.255483	-0.055020	0.248075
C316	C	1.505483	0.194980	0.498075
O317	O	0.693601	-0.614139	-0.313718
O318	O	0.943601	-0.364139	-0.063718
O319	O	1.193601	-0.114139	0.186282
O320	O	1.443601	0.135861	0.436282
O321	O	0.817419	-0.614108	-0.190127
O322	O	1.067419	-0.364108	0.059873
O323	O	1.317419	-0.114108	0.309873
O324	O	1.567419	0.135892	0.559873
C325	C	0.891885	-0.251861	-0.251952
C326	C	1.141885	-0.001861	-0.001952
C327	C	1.391885	0.248139	0.248048
C328	C	1.641885	0.498139	0.498048
C329	C	0.949999	-0.251863	-0.251961
C330	C	1.199999	-0.001863	-0.001961
C331	C	1.449999	0.248137	0.248039
C332	C	1.699999	0.498137	0.498039
C333	C	0.755546	-0.251834	-0.388304
C334	C	1.005546	-0.001834	-0.138304
C335	C	1.255546	0.248166	0.111696
C336	C	1.505546	0.498166	0.361696
C337	C	0.755560	-0.251823	-0.446418
C338	C	1.005560	-0.001823	-0.196418
C339	C	1.255560	0.248177	0.053582
C340	C	1.505560	0.498177	0.303582
C341	C	0.755615	-0.115484	-0.251967
C342	C	1.005615	0.134516	-0.001967
C343	C	1.255615	0.384516	0.248033
C344	C	1.505615	0.634516	0.498033
C345	C	0.755658	-0.057370	-0.251982
C346	C	1.005658	0.192630	-0.001982
C347	C	1.255658	0.442630	0.248018
C348	C	1.505658	0.692630	0.498018
C349	C	0.722160	-0.218320	-0.806790
C350	C	0.972160	0.031680	-0.556790
C351	C	1.222160	0.281680	-0.306790
C352	C	1.472160	0.531680	-0.056790
C353	C	0.722163	-0.218310	-0.861395
C354	C	0.972163	0.031690	-0.611395
C355	C	1.222163	0.281690	-0.361395
C356	C	1.472163	0.531690	-0.111395
O357	O	0.693738	-0.189882	-0.889639
O358	O	0.943738	0.060118	-0.639639
O359	O	1.193738	0.310118	-0.389639
O360	O	1.443738	0.560118	-0.139639
N361	N	0.755578	-0.251741	-0.888701
N362	N	1.005578	-0.001741	-0.638701
N363	N	1.255578	0.248259	-0.388701
N364	N	1.505578	0.498259	-0.138701
C365	C	0.788989	-0.285188	-0.861400
C366	C	1.038989	-0.035188	-0.611400
C367	C	1.288989	0.214812	-0.361400
C368	C	1.538989	0.464812	-0.111400
O369	O	0.817411	-0.313623	-0.889640
O370	O	1.067411	-0.063623	-0.639640
O371	O	1.317411	0.186377	-0.389640
O372	O	1.567411	0.436377	-0.139640
C373	C	0.788983	-0.285200	-0.806797
C374	C	1.038983	-0.035200	-0.556797
C375	C	1.288983	0.214800	-0.306797
C376	C	1.538983	0.464800	-0.056797
C377	C	0.755569	-0.251763	-0.779493
C378	C	1.005569	-0.001763	-0.529493
C379	C	1.255569	0.248237	-0.279493
C380	C	1.505569	0.498237	-0.029493
C381	C	0.688749	-0.184886	-0.779487
C382	C	0.938749	0.065114	-0.529487
C383	C	1.188749	0.315114	-0.279487
C384	C	1.438749	0.565114	-0.029487
C385	C	0.688747	-0.184895	-0.724887
C386	C	0.938747	0.065105	-0.474887
C387	C	1.188747	0.315105	-0.224887
C388	C	1.438747	0.565105	0.025113
C389	C	0.722156	-0.218338	-0.697589
C390	C	0.972156	0.031662	-0.447589
C391	C	1.222156	0.281662	-0.197589
C392	C	1.472156	0.531662	0.052411
C393	C	0.755567	-0.251772	-0.724893
C394	C	1.005567	-0.001772	-0.474893
C395	C	1.255567	0.248228	-0.224893
C396	C	1.505567	0.498228	0.025107
C397	C	0.822390	-0.318648	-0.779496
C398	C	1.072390	-0.068648	-0.529496
C399	C	1.322390	0.181352	-0.279496
C400	C	1.572390	0.431352	-0.029496
C401	C	0.822381	-0.318657	-0.724889
C402	C	1.072381	-0.068657	-0.474889
C403	C	1.322381	0.181343	-0.224889
C404	C	1.572381	0.431343	0.025111
C405	C	0.788968	-0.285220	-0.697586
C406	C	1.038968	-0.035220	-0.447586
C407	C	1.288968	0.214780	-0.197586
C408	C	1.538968	0.464780	0.052414
C409	C	0.788974	-0.285223	-0.642995
C410	C	1.038974	-0.035223	-0.392995
C411	C	1.288974	0.214777	-0.142995
C412	C	1.538974	0.464777	0.107005
N413	N	0.755559	-0.251792	-0.615689
N414	N	1.005559	-0.001792	-0.365689
N415	N	1.255559	0.248208	-0.115689
N416	N	1.505559	0.498208	0.134311
C417	C	0.722150	-0.218349	-0.642986
C418	C	0.972150	0.031651	-0.392986
C419	C	1.222150	0.281651	-0.142986
C420	C	1.472150	0.531651	0.107014
C421	C	0.788998	-0.285161	-0.976071
C422	C	1.038998	-0.035161	-0.726071
C423	C	1.288998	0.214839	-0.476071
C424	C	1.538998	0.464839	-0.226071
C425	C	0.789006	-0.285147	-1.030673
C426	C	1.039006	-0.035147	-0.780673
C427	C	1.289006	0.214853	-0.530673
C428	C	1.539006	0.464853	-0.280673
C429	C	0.722180	-0.218270	-1.030664
C430	C	0.972180	0.031730	-0.780664
C431	C	1.222180	0.281730	-0.530664
C432	C	1.472180	0.531730	-0.280664
C433	C	0.722174	-0.218282	-0.976061
C434	C	0.972174	0.031718	-0.726061
C435	C	1.222174	0.281718	-0.476061
C436	C	1.472174	0.531718	-0.226061
C437	C	0.755583	-0.251730	-0.948764
C438	C	1.005583	-0.001730	-0.698764
C439	C	1.255583	0.248270	-0.448764
C440	C	1.505583	0.498270	-0.198764
C441	C	0.722149	-0.218370	-0.528321
C442	C	0.972149	0.031630	-0.278321
C443	C	1.222149	0.281630	-0.028321
C444	C	1.472149	0.531630	0.221679
C445	C	0.722151	-0.218381	-0.473715
C446	C	0.972151	0.031619	-0.223715
C447	C	1.222151	0.281619	0.026285
C448	C	1.472151	0.531619	0.276285
C449	C	0.788976	-0.285259	-0.473729
C450	C	1.038976	-0.035259	-0.223729
C451	C	1.288976	0.214741	0.026271
C452	C	1.538976	0.464741	0.276271
C453	C	0.788975	-0.285247	-0.528330
C454	C	1.038975	-0.035247	-0.278330
C455	C	1.288975	0.214753	-0.028330
C456	C	1.538975	0.464753	0.221670
C457	C	0.755558	-0.251801	-0.555624
C458	C	1.005558	-0.001801	-0.305624
C459	C	1.255558	0.248199	-0.055624
C460	C	1.505558	0.498199	0.194376
O461	O	0.817383	-0.313639	-0.614716
O462	O	1.067383	-0.063639	-0.364716
O463	O	1.317383	0.186361	-0.114716
O464	O	1.567383	0.436361	0.135284
O465	O	0.693728	-0.189924	-0.614739
O466	O	0.943728	0.060076	-0.364739
O467	O	1.193728	0.310076	-0.114739
O468	O	1.443728	0.560076	0.135261
C469	C	0.755508	-0.251843	-0.116089
C470	C	1.005508	-0.001843	0.133911
C471	C	1.255508	0.248157	0.383911
C472	C	1.505508	0.498157	0.633911
C473	C	0.755595	-0.251706	-0.057975
C474	C	1.005595	-0.001706	0.192025
C475	C	1.255595	0.248294	0.442025
C476	C	1.505595	0.498294	0.692025
H477	H	0.054207	-0.191277	-0.312732
H478	H	0.304207	0.058723	-0.062732
H479	H	0.554207	0.308723	0.187268
H480	H	0.804207	0.558723	0.437268
H481	H	0.694777	-0.549984	-0.312538
H482	H	0.944777	-0.299984	-0.062538
H483	H	1.194777	-0.049984	0.187462
H484	H	1.444777	0.200016	0.437462
H485	H	0.694976	-0.191040	-1.052899
H486	H	0.944976	0.058960	-0.802899
H487	H	1.194976	0.308960	-0.552899
H488	H	1.444976	0.558960	-0.302899
H489	H	0.694966	-0.191054	-0.953834
H490	H	0.944966	0.058946	-0.703834
H491	H	1.194966	0.308946	-0.453834
H492	H	1.444966	0.558946	-0.203834
H493	H	0.816189	-0.312469	-0.550561
H494	H	1.066189	-0.062469	-0.300561
H495	H	1.316189	0.187531	-0.050561
H496	H	1.566189	0.437531	0.199439
H497	H	0.816357	-1.052268	-0.191376
H498	H	1.066357	-0.802268	0.058624
H499	H	1.316357	-0.552268	0.308624
H500	H	1.566357	-0.302268	0.558624
H501	H	0.694951	-1.052321	-0.312583
H502	H	0.944951	-0.802321	-0.062583
H503	H	1.194951	-0.552321	0.187417
H504	H	1.444951	-0.302321	0.437417
H505	H	0.816178	-0.312486	-0.451494
H506	H	1.066178	-0.062486	-0.201494
H507	H	1.316178	0.187514	0.048506
H508	H	1.566178	0.437514	0.298506
H509	H	0.457346	-0.312450	-0.191149
H510	H	0.707346	-0.062450	0.058851
H511	H	0.957346	0.187550	0.308851
H512	H	1.207346	0.437550	0.558851
H513	H	0.556553	-0.191283	-0.312694
H514	H	0.806553	0.058717	-0.062694
H515	H	1.056553	0.308717	0.187306
H516	H	1.306553	0.558717	0.437306
H517	H	0.694922	-0.953271	-0.312581
H518	H	0.944922	-0.703271	-0.062581
H519	H	1.194922	-0.453271	0.187419
H520	H	1.444922	-0.203271	0.437419
H521	H	0.661419	-0.801155	-0.345978
H522	H	0.911419	-0.551155	-0.095978
H523	H	1.161419	-0.301155	0.154022
H524	H	1.411419	-0.051155	0.404022
H525	H	0.457503	-0.191272	-0.312697
H526	H	0.707503	0.058728	-0.062697
H527	H	0.957503	0.308728	0.187303
H528	H	1.207503	0.558728	0.437303
H529	H	-0.044859	-0.191281	-0.312735
H530	H	0.205141	0.058719	-0.062735
H531	H	0.455141	0.308719	0.187265
H532	H	0.705141	0.558719	0.437265
H533	H	-0.044992	-0.312451	-0.191191
H534	H	0.205008	-0.062451	0.058809
H535	H	0.455008	0.187549	0.308809
H536	H	0.705008	0.437549	0.558809
H537	H	0.661393	-0.702105	-0.345971
H538	H	0.911393	-0.452105	-0.095971
H539	H	1.161393	-0.202105	0.154029
H540	H	1.411393	0.047895	0.404029
H541	H	0.849729	-0.801061	-0.157945
H542	H	1.099729	-0.551061	0.092055
H543	H	1.349729	-0.301061	0.342055
H544	H	1.599729	-0.051061	0.592055
H545	H	0.694738	-0.450918	-0.312518
H546	H	0.944738	-0.200918	-0.062518
H547	H	1.194738	0.049082	0.187482
H548	H	1.444738	0.299082	0.437482
H549	H	0.849690	-0.702014	-0.157932
H550	H	1.099690	-0.452014	0.092068
H551	H	1.349690	-0.202014	0.342068
H552	H	1.599690	0.047986	0.592068
H553	H	0.694942	-0.191150	-0.451488
H554	H	0.944942	0.058850	-0.201488
H555	H	1.194942	0.308850	0.048512
H556	H	1.444942	0.558850	0.298512
H557	H	0.305416	-0.157885	-0.346208
H558	H	0.555416	0.092115	-0.096208
H559	H	0.805416	0.342115	0.153792
H560	H	1.055416	0.592115	0.403792
H561	H	0.054058	-0.312444	-0.191174
H562	H	0.304058	-0.062444	0.058826
H563	H	0.554058	0.187556	0.308826
H564	H	0.804058	0.437556	0.558826
H565	H	0.694937	-0.191135	-0.550538
H566	H	0.944937	0.058865	-0.300538
H567	H	1.194937	0.308865	-0.050538
H568	H	1.444937	0.558865	0.199462
H569	H	0.661536	-0.157669	-0.702661
H570	H	0.911536	0.092331	-0.452661
H571	H	1.161536	0.342331	-0.202661
H572	H	1.411536	0.592331	0.047339
H573	H	0.206153	-0.345823	-0.157652
H574	H	0.456153	-0.095823	0.092348
H575	H	0.706153	0.154177	0.342348
H576	H	0.956153	0.404177	0.592348
H577	H	0.849599	-0.345877	-0.801717
H578	H	1.099599	-0.095877	-0.551717
H579	H	1.349599	0.154123	-0.301717
H580	H	1.599599	0.404123	-0.051717
H581	H	0.661540	-0.157653	-0.801707
H582	H	0.911540	0.092347	-0.551707
H583	H	1.161540	0.342347	-0.301707
H584	H	1.411540	0.592347	-0.051707
H585	H	0.816221	-0.312369	-1.052899
H586	H	1.066221	-0.062369	-0.802899
H587	H	1.316221	0.187631	-0.552899
H588	H	1.566221	0.437631	-0.302899
H589	H	0.816324	-0.953202	-0.191360
H590	H	1.066324	-0.703202	0.058640
H591	H	1.316324	-0.453202	0.308640
H592	H	1.566324	-0.203202	0.558640
H593	H	0.305202	-0.345817	-0.157644
H594	H	0.555202	-0.095817	0.092356
H595	H	0.805202	0.154183	0.342356
H596	H	1.055202	0.404183	0.592356
H597	H	0.816209	-0.312396	-0.953849
H598	H	1.066209	-0.062396	-0.703849
H599	H	1.316209	0.187604	-0.453849
H600	H	1.566209	0.437604	-0.203849
H601	H	0.556413	-0.312444	-0.191142
H602	H	0.806413	-0.062444	0.058858
H603	H	1.056413	0.187556	0.308858
H604	H	1.306413	0.437556	0.558858
H605	H	0.849590	-0.345892	-0.702668
H606	H	1.099590	-0.095892	-0.452668
H607	H	1.349590	0.154108	-0.202668
H608	H	1.599590	0.404108	0.047332
H609	H	0.206371	-0.157882	-0.346212
H610	H	0.456371	0.092118	-0.096212
H611	H	0.706371	0.342118	0.153788
H612	H	0.956371	0.592118	0.403788
H613	H	0.816135	-0.450856	-0.191304
H614	H	1.066135	-0.200856	0.058696
H615	H	1.316135	0.049144	0.308696
H616	H	1.566135	0.299144	0.558696
H617	H	0.816183	-0.549907	-0.191319
H618	H	1.066183	-0.299907	0.058681
H619	H	1.316183	-0.049907	0.308681
H620	H	1.566183	0.200093	0.558681
