data_functionalizedCrystal
_audit_creation_method	'MofGen! by Chris Wilmer'
_symmetry_space_group_name_H-M	'P1'
_symmetry_Int_Tables_number	1
_symmetry_cell_setting	triclinic
loop_
_symmetry_equiv_pos_as_xyz
  x,y,z
_cell_length_a	15.944551
_cell_length_b	19.288864
_cell_length_c	17.766277
_cell_angle_alpha	90.023209
_cell_angle_beta	89.992686
_cell_angle_gamma	96.682508
loop_
_atom_site_label
_atom_site_type_symbol
_atom_site_fract_x
_atom_site_fract_y
_atom_site_fract_z
O1	O	0.104784	-0.921629	-0.062837
O2	O	0.118919	-0.719406	-0.062786
O3	O	-0.010445	-0.826040	-0.062806
O4	O	0.234147	-0.814995	-0.062817
O5	O	-0.010451	-0.826021	0.062382
O6	O	0.118912	-0.719387	0.062403
O7	O	0.104777	-0.921610	0.062351
Cu8	Cu	0.111844	-0.820497	0.073808
Cu9	Cu	0.111852	-0.820519	-0.074242
O10	O	0.234141	-0.814976	0.062372
C11	C	0.118461	-0.693519	-0.000185
C12	C	0.117095	-0.616411	-0.000165
C13	C	-0.041740	-0.825572	-0.000212
C14	C	-0.134981	-0.824197	-0.000211
N15	N	0.111838	-0.820486	0.177938
C16	C	-0.349571	-0.754815	-0.000204
C17	C	-0.410715	-0.787024	0.061514
C18	C	-0.305697	-0.821710	-0.000216
C19	C	-0.410692	-0.787059	-0.061912
C20	C	-0.470601	-0.819303	-0.000224
C21	C	-0.365614	-0.853938	0.061552
C22	C	-0.365585	-0.853963	-0.061929
C23	C	-0.426712	-0.886222	-0.000197
C24	C	-0.210700	-0.823095	-0.000211
C25	C	-0.565597	-0.817924	-0.000224
C26	C	0.265436	-0.815444	-0.000225
C27	C	0.358677	-0.816819	-0.000230
C28	C	0.105235	-0.947497	-0.000251
C29	C	0.106600	-1.024605	-0.000276
C30	C	0.193000	-0.571915	-0.000181
C31	C	0.191717	-0.499465	-0.000189
C32	C	0.114526	-0.471514	-0.000197
C33	C	0.038611	-0.516020	-0.000178
C34	C	0.039896	-0.588469	-0.000162
C35	C	0.053847	-0.363099	-0.044079
C36	C	0.052565	-0.290651	-0.044099
C37	C	0.110560	-0.248058	-0.000242
C38	C	0.169850	-0.277920	0.043625
C39	C	0.171135	-0.350369	0.043641
C40	C	0.113124	-0.392956	-0.000214
C41	C	0.185079	-0.125002	-0.000265
C42	C	0.183793	-0.052550	-0.000269
C43	C	0.030684	-0.069107	-0.000265
C44	C	0.031972	-0.141557	-0.000254
C45	C	0.109172	-0.169500	-0.000258
N46	N	0.111851	-0.820535	-0.178373
C47	C	0.054584	-0.867719	0.217316
C48	C	0.054580	-0.867723	0.296118
C49	C	0.111845	-0.820501	0.335539
C50	C	0.169103	-0.773259	0.296151
C51	C	0.169100	-0.773252	0.217351
C52	C	0.188378	-0.811404	0.460375
C53	C	0.188382	-0.811416	0.539173
C54	C	0.111855	-0.820520	0.578585
C55	C	0.035319	-0.829626	0.539188
C56	C	0.035316	-0.829618	0.460387
C57	C	0.111854	-0.820503	0.420984
C58	C	0.054592	-0.867759	0.703409
C59	C	0.054587	-0.867759	0.782212
C60	C	0.169117	-0.773298	0.782244
C61	C	0.169115	-0.773295	0.703442
C62	C	0.111853	-0.820530	0.664029
H63	H	-0.316049	-0.699288	-0.000128
N64	N	-0.008707	-0.409033	-0.091388
H65	H	0.001100	-0.459460	-0.084720
H66	H	-0.068004	-0.402746	-0.074993
N67	N	-0.007162	-0.918709	0.824691
H68	H	0.024857	-0.949453	0.857364
H69	H	-0.044260	-0.892125	0.857362
N70	N	0.230881	-0.722355	0.660973
H71	H	0.267990	-0.748892	0.628258
H72	H	0.198818	-0.691609	0.628344
H73	H	-0.430717	-0.758722	0.113705
N74	N	-0.007180	-0.918661	0.174810
H75	H	-0.044293	-0.892119	0.142136
H76	H	0.024886	-0.949396	0.142138
H77	H	-0.345735	-0.882201	0.113786
H78	H	0.007955	-0.906187	0.328185
H79	H	-0.027001	-0.837031	0.428314
N80	N	0.276263	-0.602051	-0.000167
H81	H	0.265562	-0.654699	-0.000153
H82	H	0.309472	-0.585800	-0.046579
N83	N	-0.041980	-0.636461	-0.000144
H84	H	-0.075671	-0.627496	-0.046552
H85	H	-0.029386	-0.686579	-0.000106
H86	H	-0.026997	-0.837039	0.571275
N87	N	0.230857	-0.722303	0.174880
H88	H	0.290450	-0.730300	0.188581
H89	H	0.222096	-0.729488	0.118992
N90	N	0.268342	-0.155141	-0.000259
H91	H	0.272284	-0.184809	0.046153
H92	H	0.272243	-0.184819	-0.046693
H93	H	-0.430657	-0.758764	-0.114093
N94	N	-0.339059	-0.891426	-0.131062
H95	H	-0.355262	-0.866119	-0.177658
H96	H	-0.275883	-0.892464	-0.130215
H97	H	0.250702	-0.804006	0.571244
H98	H	0.245606	-0.016321	-0.000277
N99	N	-0.007167	-0.918700	0.660892
H100	H	-0.043444	-0.948619	0.697799
H101	H	-0.044219	-0.892108	0.628214
H102	H	0.215740	-0.734846	0.814340
N103	N	0.270924	-0.801586	0.417870
H104	H	0.319407	-0.795826	0.454783
H105	H	0.275692	-0.843779	0.385153
N106	N	0.273588	-0.451460	-0.000207
H107	H	0.322688	-0.480155	-0.000206
H108	H	0.276382	-0.421069	-0.046625
N109	N	0.230864	-0.722322	0.338664
H110	H	0.222180	-0.729495	0.394559
H111	H	0.290428	-0.730341	0.324875
H112	H	0.219409	-0.374680	0.079362
N113	N	-0.470923	-0.959834	-0.000177
H114	H	-0.454549	-0.984997	0.046459
H115	H	-0.534046	-0.958452	-0.000648
H116	H	0.217075	-0.243242	0.079338
H117	H	-0.032167	-0.046351	-0.000319
H118	H	-0.029838	-0.177787	-0.000246
H119	H	0.004291	-0.266342	-0.079822
N120	N	-0.044647	-0.485878	-0.000178
H121	H	-0.033944	-0.433230	-0.000191
H122	H	-0.077854	-0.502182	-0.046580
