data_functionalizedCrystal
_audit_creation_method	'MofGen! by Chris Wilmer'
_symmetry_space_group_name_H-M	'P1'
_symmetry_Int_Tables_number	1
_symmetry_cell_setting	triclinic
loop_
_symmetry_equiv_pos_as_xyz
  x,y,z
_cell_length_a	8.597187
_cell_length_b	8.634740
_cell_length_c	8.140239
_cell_angle_alpha	89.998579
_cell_angle_beta	82.295481
_cell_angle_gamma	92.880146
loop_
_atom_site_label
_atom_site_type_symbol
_atom_site_fract_x
_atom_site_fract_y
_atom_site_fract_z
O1	O	2.117351	0.230694	-0.436298
O2	O	1.663086	0.248388	-0.372004
O3	O	1.868715	0.014741	-0.401104
O4	O	1.911722	0.464342	-0.407198
O5	O	1.868701	0.014738	-0.127875
O6	O	1.663072	0.248385	-0.098775
O7	O	2.117337	0.230692	-0.163069
Zn8	Zn	1.890203	0.239538	-0.087541
Zn9	Zn	1.890221	0.239542	-0.447532
O10	O	1.911708	0.464339	-0.133969
C11	C	1.604319	0.246486	-0.227073
C12	C	1.429230	0.240803	-0.202292
C13	C	1.858966	-0.042857	-0.263113
C14	C	1.829917	-0.214479	-0.259009
C15	C	2.176104	0.232594	-0.308004
C16	C	2.351193	0.238277	-0.332796
C17	C	1.921458	0.521937	-0.271964
C18	C	1.950506	0.693559	-0.276079
N19	N	1.890202	0.239535	0.158142
N20	N	1.890232	0.239533	-0.693216
H21	H	1.418338	0.240462	-0.463483
Br22	Br	1.620783	-0.302084	-0.229433
Br23	Br	2.159631	-0.218841	-0.305693
Br24	Br	1.317338	0.237195	0.015524
