data_functionalizedCrystal
_audit_creation_method	'MofGen! by Chris Wilmer'
_symmetry_space_group_name_H-M	'P1'
_symmetry_Int_Tables_number	1
_symmetry_cell_setting	triclinic
loop_
_symmetry_equiv_pos_as_xyz
  x,y,z
_cell_length_a	12.827893
_cell_length_b	25.639240
_cell_length_c	12.827885
_cell_angle_alpha	89.956835
_cell_angle_beta	89.980728
_cell_angle_gamma	90.032919
loop_
_atom_site_label
_atom_site_type_symbol
_atom_site_fract_x
_atom_site_fract_y
_atom_site_fract_z
Zn1	Zn	1.597543	-0.208123	-0.590751
Zn2	Zn	1.597385	-0.295568	-0.415971
Zn3	Zn	1.422785	-0.208149	-0.416025
Zn4	Zn	1.422717	-0.295530	-0.590671
O5	O	1.510108	-0.251843	-0.503355
O6	O	1.743758	-0.219728	-0.567578
O7	O	1.574185	-0.283999	-0.269742
O8	O	1.446062	-0.134980	-0.439259
O9	O	1.743642	-0.283974	-0.439167
O10	O	1.574456	-0.134961	-0.567630
O11	O	1.445908	-0.219772	-0.269782
O12	O	1.276540	-0.219735	-0.439181
O13	O	1.445946	-0.283908	-0.736918
O14	O	1.276490	-0.283933	-0.567493
O15	O	1.574391	-0.219691	-0.736977
O16	O	1.574120	-0.368728	-0.439089
O17	O	1.445792	-0.368700	-0.567440
C18	C	1.238598	-0.251833	-0.503335
C19	C	1.122445	-0.251841	-0.503351
C20	C	1.070717	-0.220107	-0.566992
C21	C	0.950667	-0.220115	-0.567010
C22	C	1.509960	-0.387685	-0.503273
C23	C	1.509992	-0.445799	-0.503273
C24	C	1.576996	-0.806114	-0.570318
C25	C	1.577027	-0.860718	-0.570339
O26	O	1.633820	-0.888914	-0.627259
N27	N	1.510253	-0.888082	-0.503456
C28	C	1.443436	-0.860838	-0.436554
O29	O	1.386642	-0.889127	-0.379667
C30	C	1.443401	-0.806235	-0.436539
C31	C	1.510186	-0.778874	-0.503419
C32	C	1.643775	-0.778753	-0.637194
C33	C	1.643746	-0.724153	-0.637171
C34	C	1.576936	-0.696913	-0.570272
C35	C	1.510157	-0.724273	-0.503396
C36	C	1.376579	-0.778992	-0.369643
C37	C	1.376549	-0.724385	-0.369634
C38	C	1.443335	-0.697024	-0.436515
C39	C	1.443318	-0.642433	-0.436475
N40	N	1.510092	-0.615070	-0.503358
C41	C	1.576901	-0.642310	-0.570257
C42	C	1.443514	-0.975508	-0.436592
C43	C	1.443554	-1.030111	-0.436601
C44	C	1.577143	-1.029987	-0.570388
C45	C	1.577108	-0.975384	-0.570373
C46	C	1.510288	-0.948145	-0.503476
C47	C	1.576834	-0.527644	-0.570203
C48	C	1.576802	-0.473039	-0.570171
C49	C	1.443209	-0.473167	-0.436389
C50	C	1.443245	-0.527768	-0.436417
C51	C	1.510061	-0.555005	-0.503332
O52	O	1.386551	-0.614203	-0.379587
O53	O	1.633676	-0.614014	-0.627144
C54	C	1.782678	-0.251853	-0.503375
C55	C	1.898831	-0.251857	-0.503384
C56	C	1.510179	-0.251792	-0.775925
C57	C	1.510209	-0.251771	-0.892078
C58	C	1.510284	-0.115470	-0.503460
C59	C	1.510360	-0.057355	-0.503504
C60	C	1.573774	-0.219988	-0.943892
C61	C	1.573807	-0.219965	-1.063943
C62	C	1.510097	-0.251855	-0.231845
C63	C	1.510269	-0.251729	-0.115692
H64	H	1.631190	-0.450764	-0.624633
O65	O	1.638882	-0.187557	-1.117046
C66	C	1.816647	-0.162168	-1.150631
C67	C	1.743068	-0.198913	-1.090442
H68	H	1.900895	-0.171329	-1.129128
H69	H	1.805195	-0.167936	-1.237993
H70	H	1.798307	-0.120006	-1.129277
H71	H	1.761362	-0.241089	-1.111709
H72	H	1.754533	-0.193099	-1.003095
H73	H	0.943308	-0.279030	-0.448902
H74	H	1.455850	-0.278943	-1.071140
O75	O	1.123792	-0.187713	-0.632127
C76	C	1.157555	-0.162479	-0.809953
C77	C	1.097368	-0.199189	-0.736301
H78	H	1.136230	-0.171751	-0.894194
H79	H	1.136167	-0.120291	-0.791879
H80	H	1.244893	-0.168242	-0.798303
H81	H	1.010016	-0.193473	-0.747910
H82	H	1.118842	-0.241363	-0.754393
O83	O	1.445463	-0.284272	-0.945221
C84	C	1.431462	-0.354763	-1.068569
C85	C	1.504907	-0.317994	-1.008437
H86	H	1.479492	-0.382030	-1.119711
H87	H	1.383618	-0.378736	-1.010931
H88	H	1.376887	-0.330715	-1.119639
H89	H	1.559546	-0.342002	-0.957366
H90	H	1.552678	-0.294020	-1.066132
O91	O	1.638529	-0.187521	-0.890677
C92	C	1.652537	-0.116992	-0.767415
C93	C	1.579082	-0.153736	-0.827595
H94	H	1.604503	-0.089661	-0.716416
H95	H	1.707067	-0.141005	-0.716230
H96	H	1.700429	-0.093083	-0.825115
H97	H	1.531122	-0.177654	-0.769970
H98	H	1.524621	-0.129693	-0.878796
O99	O	1.069419	-0.284280	-0.438266
C100	C	1.080574	-0.350562	-0.305468
C101	C	1.140751	-0.313842	-0.379108
H102	H	1.138220	-0.374480	-0.257636
H103	H	1.029497	-0.326532	-0.250901
H104	H	1.029444	-0.377886	-0.353413
H105	H	1.191938	-0.286511	-0.331247
H106	H	1.191762	-0.337905	-0.433678
O107	O	1.641833	-0.554017	-0.635241
C108	C	1.774280	-0.548117	-0.767986
C109	C	1.700740	-0.518186	-0.694370
H110	H	1.821909	-0.519161	-0.815826
H111	H	1.829040	-0.573667	-0.720129
H112	H	1.726269	-0.573687	-0.822555
H113	H	1.748665	-0.492587	-0.639785
H114	H	1.645976	-0.492668	-0.742291
H115	H	1.388870	-0.550046	-0.381949
H116	H	1.698125	-0.701879	-0.691633
H117	H	1.389181	-1.052383	-0.382130
O118	O	1.708781	-0.805128	-0.702215
C119	C	1.841247	-0.799224	-0.834940
C120	C	1.767686	-0.769296	-0.761341
H121	H	1.888875	-0.770267	-0.882778
H122	H	1.896008	-0.824768	-0.787069
H123	H	1.793254	-0.824801	-0.889512
H124	H	1.815595	-0.743691	-0.706754
H125	H	1.712922	-0.743785	-0.809277
O126	O	1.641863	-0.948831	-0.635496
C127	C	1.692517	-0.932056	-0.813298
C128	C	1.619102	-0.962147	-0.739659
H129	H	1.674156	-0.942820	-0.897528
H130	H	1.681016	-0.888343	-0.801897
H131	H	1.776792	-0.942756	-0.794971
H132	H	1.534799	-0.951491	-0.757940
H133	H	1.630693	-1.005853	-0.751074
H134	H	0.906183	-0.192948	-0.621498
O135	O	1.642188	-1.056431	-0.635270
C136	C	1.819917	-1.073026	-0.686213
C137	C	1.746380	-1.043054	-0.612660
H138	H	1.904171	-1.062214	-0.667974
H139	H	1.808551	-1.116757	-0.674728
H140	H	1.801455	-1.062268	-0.770451
H141	H	1.764796	-1.053769	-0.528394
H142	H	1.757759	-0.999330	-0.624236
O143	O	1.378577	-0.949131	-0.371495
C144	C	1.246039	-0.955028	-0.238841
C145	C	1.319544	-0.984961	-0.312489
H146	H	1.198276	-0.983983	-0.191132
H147	H	1.293977	-0.929483	-0.184160
H148	H	1.191392	-0.929453	-0.286772
H149	H	1.374205	-1.010565	-0.264643
H150	H	1.271540	-1.010473	-0.367173
O151	O	1.311599	-0.805480	-0.304646
C152	C	1.179119	-0.799816	-0.171925
C153	C	1.252646	-0.769755	-0.245500
H154	H	1.131452	-0.770945	-0.124070
H155	H	1.124393	-0.825365	-0.219814
H156	H	1.227142	-0.825400	-0.117366
H157	H	1.204707	-0.744142	-0.300074
H158	H	1.307375	-0.744238	-0.197546
H159	H	1.322133	-0.702209	-0.315160
H160	H	1.388816	-0.450980	-0.381918
