data_functionalizedCrystal
_audit_creation_method	'MofGen! by Chris Wilmer'
_symmetry_space_group_name_H-M	'P1'
_symmetry_Int_Tables_number	1
_symmetry_cell_setting	triclinic
loop_
_symmetry_equiv_pos_as_xyz
  x,y,z
_cell_length_a	13.897448
_cell_length_b	12.759395
_cell_length_c	12.759387
_cell_angle_alpha	90.022830
_cell_angle_beta	89.967288
_cell_angle_gamma	89.982954
loop_
_atom_site_label
_atom_site_type_symbol
_atom_site_fract_x
_atom_site_fract_y
_atom_site_fract_z
Zn1	Zn	-0.383981	-1.606247	-0.594056
Zn2	Zn	-0.545308	-1.606128	-0.418371
Zn3	Zn	-0.384027	-1.430545	-0.418386
Zn4	Zn	-0.545234	-1.430528	-0.594003
O5	O	-0.464637	-1.518362	-0.506204
O6	O	-0.405393	-1.753252	-0.570767
O7	O	-0.523965	-1.582794	-0.271352
O8	O	-0.249039	-1.453909	-0.441718
O9	O	-0.523920	-1.753165	-0.441692
O10	O	-0.249005	-1.582996	-0.570782
O11	O	-0.405472	-1.453794	-0.271363
O12	O	-0.405400	-1.283522	-0.441666
O13	O	-0.523792	-1.453880	-0.741031
O14	O	-0.523837	-1.283509	-0.570691
O15	O	-0.405320	-1.582980	-0.741070
O16	O	-0.680280	-1.582778	-0.441640
O17	O	-0.680225	-1.453765	-0.570676
C18	C	-0.715252	-1.518285	-0.506173
C19	C	-0.822466	-1.518349	-0.506196
C20	C	-0.464616	-1.245395	-0.506175
C21	C	-0.464630	-1.128618	-0.506187
C22	C	-0.464543	-1.518441	-0.780237
C23	C	-0.464503	-1.518475	-0.897014
C24	C	-1.018761	-1.518459	-0.506261
C25	C	-0.909528	-1.518395	-0.506228
C26	C	-0.213044	-1.518468	-0.506257
C27	C	-0.105830	-1.518513	-0.506280
C28	C	-0.588176	-0.909220	-0.640358
C29	C	-0.649933	-0.964105	-0.707423
C30	C	-0.649923	-1.073826	-0.707412
C31	C	-0.588153	-1.128666	-0.640327
C32	C	-0.526396	-1.073781	-0.573263
C33	C	-0.526410	-0.964057	-0.573283
C34	C	-0.402874	-1.073733	-0.439123
C35	C	-0.402877	-0.964012	-0.439137
C36	C	-0.341103	-1.128573	-0.372038
C37	C	-0.279340	-1.073688	-0.304977
C38	C	-0.279352	-0.963960	-0.304991
C39	C	-0.341120	-0.909127	-0.372073
C40	C	-0.464654	-0.792395	-0.506228
C41	C	-0.464647	-0.909172	-0.506222
C42	C	-0.341146	-1.652916	-0.897075
C43	C	-0.279453	-1.720151	-0.951966
C44	C	-0.279418	-1.720176	-1.061688
C45	C	-0.341080	-1.652958	-1.116521
C46	C	-0.402773	-1.585723	-1.061630
C47	C	-0.402803	-1.585707	-0.951905
C48	C	-0.526123	-1.451278	-1.061569
C49	C	-0.526165	-1.451256	-0.951847
C50	C	-0.587785	-1.384059	-1.116402
C51	C	-0.649484	-1.316828	-1.061511
C52	C	-0.649518	-1.316806	-0.951783
C53	C	-0.587857	-1.384021	-0.896956
C54	C	-0.464662	-1.518344	-0.233236
C55	C	-0.464431	-1.518513	-0.116460
H56	H	-0.700227	-0.919443	-0.762039
N57	N	-0.716536	-1.133031	-0.779736
H58	H	-0.755671	-1.081647	-0.822233
H59	H	-0.677320	-1.178590	-0.828425
H60	H	-0.699745	-1.262044	-0.907097
H61	H	-0.588159	-1.218007	-0.640315
H62	H	-0.699680	-1.262098	-1.106165
N63	N	-0.212717	-1.132836	-0.232638
H64	H	-0.173589	-1.081421	-0.190159
H65	H	-0.251922	-1.178323	-0.183932
H66	H	-0.341104	-1.217914	-0.372029
N67	N	-0.212750	-0.904764	-0.232647
H68	H	-0.143845	-0.923879	-0.249087
H69	H	-0.222212	-0.826954	-0.242867
H70	H	-0.341131	-0.819786	-0.372096
H71	H	-0.341177	-1.652912	-0.807734
H72	H	-0.229248	-1.774877	-0.907309
N73	N	-0.587902	-1.383981	-0.778614
H74	H	-0.605655	-1.456034	-0.752183
H75	H	-0.521723	-1.364652	-0.752284
N76	N	-0.212872	-1.792682	-1.120900
H77	H	-0.173812	-1.835258	-1.069519
H78	H	-0.252130	-1.841291	-1.166425
N79	N	-0.341019	-1.652955	-1.234863
H80	H	-0.292573	-1.705738	-1.261315
H81	H	-0.407211	-1.672201	-1.261219
H82	H	-0.588181	-0.819879	-0.640384
H83	H	-0.587749	-1.384081	-1.205743
