data_functionalizedCrystal
_audit_creation_method	'MofGen! by Chris Wilmer'
_symmetry_space_group_name_H-M	'P1'
_symmetry_Int_Tables_number	1
_symmetry_cell_setting	triclinic
loop_
_symmetry_equiv_pos_as_xyz
  x,y,z
_cell_length_a	23.532355
_cell_length_b	22.010155
_cell_length_c	19.288857
_cell_angle_alpha	90.000355
_cell_angle_beta	82.980304
_cell_angle_gamma	90.008557
loop_
_atom_site_label
_atom_site_type_symbol
_atom_site_fract_x
_atom_site_fract_y
_atom_site_fract_z
O1	O	0.755460	0.050445	0.084139
O2	O	1.255460	0.550445	0.584139
O3	O	0.589618	0.050465	0.096377
O4	O	1.089618	0.550465	0.596377
O5	O	0.677333	0.050447	-0.010889
O6	O	1.177333	0.550447	0.489111
O7	O	0.667745	0.050463	0.191404
O8	O	1.167745	0.550463	0.691404
O9	O	0.677308	-0.050603	-0.010876
O10	O	1.177308	0.449397	0.489124
O11	O	0.589592	-0.050585	0.096389
O12	O	1.089592	0.449415	0.596389
O13	O	0.755435	-0.050605	0.084152
O14	O	1.255435	0.449395	0.584152
Cu15	Cu	0.672511	-0.059822	0.090272
Cu16	Cu	1.172511	0.440178	0.590272
Cu17	Cu	0.672541	0.059682	0.090257
Cu18	Cu	1.172541	0.559682	0.590257
O19	O	0.667719	-0.050587	0.191417
O20	O	1.167719	0.449413	0.691417
C21	C	0.568388	-0.000058	0.096077
C22	C	1.068388	0.499942	0.596077
C23	C	0.505167	-0.000050	0.095158
C24	C	1.005167	0.499950	0.595158
N25	N	0.672494	-0.143874	0.090282
N26	N	1.172494	0.356126	0.590282
C27	C	0.638098	-0.436478	0.048345
C28	C	1.138098	0.063522	0.548345
C29	C	0.638093	-0.372871	0.048348
C30	C	1.138093	0.127129	0.548348
O31	O	0.608826	-0.339973	0.012693
O32	O	1.108826	0.160027	0.512693
N33	N	0.672517	-0.341058	0.090260
N34	N	1.172517	0.158942	0.590260
C35	C	0.706952	-0.372857	0.132166
C36	C	1.206952	0.127143	0.632166
O37	O	0.736232	-0.339958	0.167816
O38	O	1.236232	0.160042	0.667816
C39	C	0.706960	-0.436464	0.132159
C40	C	1.206960	0.063536	0.632159
C41	C	0.672529	-0.468272	0.090249
C42	C	1.172529	0.031728	0.590249
C43	C	0.603671	-0.468287	0.006438
C44	C	1.103671	0.031713	0.506438
C45	C	0.603675	-0.531891	0.006436
C46	C	1.103675	-0.031891	0.506436
C47	C	0.638107	-0.563685	0.048341
C48	C	1.138107	-0.063685	0.548341
C49	C	0.672534	-0.531876	0.090247
C50	C	1.172534	-0.031876	0.590247
C51	C	0.741398	-0.468261	0.174061
C52	C	1.241398	0.031739	0.674061
C53	C	0.741403	-0.531872	0.174050
C54	C	1.241403	-0.031872	0.674050
C55	C	0.706972	-0.563681	0.132140
C56	C	1.206972	-0.063681	0.632140
C57	C	0.706969	-0.627273	0.132150
C58	C	1.206969	-0.127273	0.632150
N59	N	0.672546	-0.659085	0.090238
N60	N	1.172546	-0.159085	0.590238
C61	C	0.638114	-0.627291	0.048333
C62	C	1.138114	-0.127291	0.548333
C63	C	0.706934	-0.239279	0.132178
C64	C	1.206934	0.260721	0.632178
C65	C	0.706924	-0.175674	0.132189
C66	C	1.206924	0.324326	0.632189
C67	C	0.638065	-0.175692	0.048370
C68	C	1.138065	0.324308	0.548370
C69	C	0.638073	-0.239298	0.048362
C70	C	1.138073	0.260702	0.548362
C71	C	0.672510	-0.271092	0.090266
C72	C	1.172510	0.228908	0.590266
C73	C	0.638126	-0.760863	0.048333
C74	C	1.138126	-0.260863	0.548333
C75	C	0.638131	-0.824471	0.048336
C76	C	1.138131	-0.324471	0.548336
C77	C	0.706992	-0.824448	0.132153
C78	C	1.206992	-0.324448	0.632153
C79	C	0.706984	-0.760845	0.132152
C80	C	1.206984	-0.260845	0.632152
C81	C	0.672549	-0.729053	0.090236
C82	C	1.172549	-0.229053	0.590236
O83	O	0.736223	-0.660212	0.167785
O84	O	1.236223	-0.160212	0.667785
O85	O	0.608845	-0.660198	0.012683
O86	O	1.108845	-0.160198	0.512683
C87	C	0.113128	-0.055159	0.089386
C88	C	0.613128	0.444841	0.589386
C89	C	0.053726	-0.055161	0.088511
C90	C	0.553726	0.444839	0.588511
O91	O	0.022995	-0.102006	0.088040
O92	O	0.522995	0.397994	0.588040
N93	N	0.024031	-0.000079	0.088070
N94	N	0.524031	0.499921	0.588070
C95	C	0.053741	0.055009	0.088497
C96	C	0.553741	0.555009	0.588497
O97	O	0.023028	0.101861	0.088041
O98	O	0.523028	0.601861	0.588041
C99	C	0.113141	0.055011	0.089367
C100	C	0.613141	0.555011	0.589367
C101	C	0.142833	-0.000075	0.089815
C102	C	0.642833	0.499925	0.589815
C103	C	0.142820	-0.110240	0.089833
C104	C	0.642820	0.389760	0.589833
C105	C	0.202216	-0.110238	0.090709
C106	C	0.702216	0.389762	0.590709
C107	C	0.231922	-0.055153	0.091138
C108	C	0.731922	0.444847	0.591138
C109	C	0.202230	-0.000072	0.090691
C110	C	0.702230	0.499928	0.590691
C111	C	0.142850	0.110099	0.089789
C112	C	0.642850	0.610099	0.589789
C113	C	0.202255	0.110096	0.090659
C114	C	0.702255	0.610096	0.590659
C115	C	0.231947	0.055010	0.091107
C116	C	0.731947	0.555010	0.591107
C117	C	0.291332	0.055015	0.091997
C118	C	0.791332	0.555015	0.591997
N119	N	0.321027	-0.000068	0.092437
N120	N	0.821027	0.499932	0.592437
C121	C	0.291322	-0.055152	0.092008
C122	C	0.791322	0.444848	0.592008
C123	C	-0.071005	0.055001	0.086669
C124	C	0.428995	0.555001	0.586669
C125	C	-0.130405	0.055000	0.085804
C126	C	0.369595	0.555000	0.585804
C127	C	-0.130415	-0.055171	0.085816
C128	C	0.369585	0.444829	0.585816
C129	C	-0.071014	-0.055169	0.086686
C130	C	0.428986	0.444831	0.586686
C131	C	-0.041309	-0.000081	0.087110
C132	C	0.458691	0.499919	0.587110
C133	C	0.416060	-0.055142	0.093849
C134	C	0.916060	0.444858	0.593849
C135	C	0.475462	-0.055134	0.094728
C136	C	0.975462	0.444866	0.594728
C137	C	0.475467	0.055036	0.094712
C138	C	0.975467	0.555036	0.594712
C139	C	0.416070	0.055029	0.093837
C140	C	0.916070	0.555029	0.593837
C141	C	0.386368	-0.000065	0.093403
C142	C	0.886368	0.499935	0.593403
O143	O	0.322101	0.101836	0.092465
O144	O	0.822101	0.601836	0.592465
O145	O	0.322043	-0.101995	0.092455
O146	O	0.822043	0.398005	0.592455
C147	C	0.776665	-0.000081	0.084451
C148	C	1.276665	0.499919	0.584451
C149	C	0.839885	-0.000084	0.085371
C150	C	1.339885	0.499916	0.585371
C151	C	0.677013	-0.000078	-0.036758
C152	C	1.177013	0.499922	0.463242
C153	C	0.676089	-0.000080	-0.113859
C154	C	1.176089	0.499920	0.386141
N155	N	0.672563	0.143734	0.090241
N156	N	1.172563	0.643734	0.590241
C157	C	0.675671	0.055003	-0.150075
C158	C	1.175671	0.555003	0.349925
C159	C	0.674795	0.055007	-0.222518
C160	C	1.174795	0.555007	0.277482
C161	C	0.674348	-0.000074	-0.258744
C162	C	1.174348	0.499926	0.241256
C163	C	0.674762	-0.055164	-0.222519
C164	C	1.174762	0.444836	0.277481
C165	C	0.675632	-0.055167	-0.150076
C166	C	1.175632	0.444833	0.349924
C167	C	0.706316	-0.042273	-0.379076
C168	C	1.206316	0.457727	0.120924
C169	C	0.705449	-0.042268	-0.451518
C170	C	1.205449	0.457732	0.048482
C171	C	0.671660	-0.000067	-0.482181
C172	C	1.171660	0.499933	0.017819
C173	C	0.638746	0.042139	-0.440394
C174	C	1.138746	0.542139	0.059606
C175	C	0.639616	0.042136	-0.367952
C176	C	1.139616	0.542136	0.132048
C177	C	0.673403	-0.000077	-0.337296
C178	C	1.173403	0.499923	0.162704
C179	C	0.670292	0.055025	-0.596948
C180	C	1.170292	0.555025	-0.096948
C181	C	0.669412	0.055027	-0.669392
C182	C	1.169412	0.555027	-0.169392
C183	C	0.669385	-0.055146	-0.669392
C184	C	1.169385	0.444854	-0.169392
C185	C	0.670259	-0.055146	-0.596949
C186	C	1.170259	0.444854	-0.096949
C187	C	0.670715	-0.000059	-0.560732
C188	C	1.170715	0.499941	-0.060732
C189	C	0.668040	-0.000060	0.217286
C190	C	1.168040	0.499940	0.717286
C191	C	0.668964	-0.000055	0.294387
C192	C	1.168964	0.499945	0.794387
H193	H	0.610092	-0.850367	0.014209
H194	H	1.110092	-0.350367	0.514209
Br195	Br	0.102570	0.184863	0.089181
Br196	Br	0.602570	0.684863	0.589181
Br197	Br	0.591396	-0.717727	-0.008557
Br198	Br	1.091396	-0.217727	0.491443
H199	H	0.769447	-0.557754	0.208172
H200	H	1.269447	-0.057754	0.708172
Br201	Br	0.750122	-0.099543	-0.508222
Br202	Br	1.250122	0.400457	-0.008222
H203	H	-0.154611	-0.100023	0.085465
H204	H	0.345389	0.399977	0.585465
H205	H	0.676041	0.099859	-0.120591
H206	H	1.176041	0.599859	0.379409
Br207	Br	0.556931	-0.425150	-0.050435
Br208	Br	1.056931	0.074850	0.449565
Br209	Br	0.375771	0.129789	0.093243
Br210	Br	0.875771	0.629789	0.593243
H211	H	0.499663	0.099884	0.095065
H212	H	0.999663	0.599884	0.595065
Br213	Br	0.674226	0.129768	-0.271679
Br214	Br	1.174226	0.629768	0.228321
H215	H	0.612815	0.076501	-0.333932
H216	H	1.112815	0.576501	0.166068
H217	H	-0.154576	0.099857	0.085450
H218	H	0.345424	0.599857	0.585450
Br219	Br	0.674147	-0.129918	-0.271680
Br220	Br	1.174147	0.370082	0.228320
H221	H	0.734975	-0.265161	0.166307
H222	H	1.234975	0.234839	0.666307
Br223	Br	0.591345	-0.282461	-0.008517
Br224	Br	1.091345	0.217539	0.491483
Br225	Br	0.591336	-0.132531	-0.008502
Br226	Br	1.091336	0.367469	0.491498
Br227	Br	0.753713	-0.867609	0.189026
Br228	Br	1.253713	-0.367609	0.689026
H229	H	0.391883	-0.100005	0.093502
H230	H	0.891883	0.399995	0.593502
Br231	Br	0.668839	0.129789	-0.718543
Br232	Br	1.168839	0.629789	-0.218543
H233	H	0.734953	-0.149780	0.166325
H234	H	1.234953	0.350220	0.666325
Br235	Br	0.753719	-0.717674	0.189021
Br236	Br	1.253719	-0.217674	0.689021
H237	H	0.675970	-0.100023	-0.120589
H238	H	1.175970	0.399977	0.379411
H239	H	0.499634	-0.099994	0.095095
H240	H	0.999634	0.400006	0.595095
Br241	Br	0.102516	-0.185008	0.089253
Br242	Br	0.602516	0.314992	0.589253
H243	H	0.769436	-0.442373	0.208187
H244	H	1.269436	0.057627	0.708187
H245	H	0.226387	-0.155094	0.091069
H246	H	0.726387	0.344906	0.591069
H247	H	0.670603	-0.100001	-0.567462
H248	H	1.170603	0.399999	-0.067462
Br249	Br	0.752192	-0.099538	-0.337473
Br250	Br	1.252192	0.400462	0.162527
Br251	Br	-0.030724	-0.129931	0.087293
Br252	Br	0.469276	0.370069	0.587293
Br253	Br	0.592884	0.099415	-0.481998
Br254	Br	1.092884	0.599415	0.018002
H255	H	-0.046823	0.099863	0.087020
H256	H	0.453177	0.599863	0.587020
H257	H	0.670660	0.099880	-0.567458
H258	H	1.170660	0.599880	-0.067458
Br259	Br	0.242566	0.184863	0.091230
Br260	Br	0.742566	0.684863	0.591230
H261	H	0.575641	-0.557784	-0.027694
H262	H	1.075641	-0.057784	0.472306
Br263	Br	0.668771	-0.129900	-0.718548
Br264	Br	1.168771	0.370100	-0.218548
