data_functionalizedCrystal
_audit_creation_method	'MofGen! by Chris Wilmer'
_symmetry_space_group_name_H-M	'P1'
_symmetry_Int_Tables_number	1
_symmetry_cell_setting	triclinic
loop_
_symmetry_equiv_pos_as_xyz
  x,y,z
_cell_length_a	14.044220
_cell_length_b	14.044220
_cell_length_c	13.101039
_cell_angle_alpha	93.669626
_cell_angle_beta	93.659868
_cell_angle_gamma	86.811122
loop_
_atom_site_label
_atom_site_type_symbol
_atom_site_fract_x
_atom_site_fract_y
_atom_site_fract_z
O1	O	-1.281968	0.225349	-0.085100
O2	O	-0.781968	0.725349	0.414900
O3	O	-1.005298	0.217042	-0.085126
O4	O	-0.505298	0.717042	0.414874
O5	O	-1.139480	0.082860	-0.085109
O6	O	-0.639480	0.582860	0.414891
O7	O	-1.147786	0.359531	-0.085117
O8	O	-0.647786	0.859531	0.414883
O9	O	-1.129854	0.092504	0.085320
O10	O	-0.629854	0.592504	0.585320
O11	O	-0.995672	0.226686	0.085302
O12	O	-0.495672	0.726686	0.585302
O13	O	-1.272342	0.234994	0.085329
O14	O	-0.772342	0.734994	0.585329
Zn15	Zn	-1.132479	0.232371	0.112375
Zn16	Zn	-0.632479	0.732371	0.612375
Zn17	Zn	-1.145161	0.219664	-0.112172
Zn18	Zn	-0.645161	0.719664	0.387828
O19	O	-1.138160	0.369176	0.085311
O20	O	-0.638160	0.869176	0.585311
C21	C	-0.964863	0.218228	0.000085
C22	C	-0.464863	0.718228	0.500085
C23	C	-0.858721	0.207383	0.000075
C24	C	-0.358721	0.707383	0.500075
C25	C	-1.131031	0.052060	0.000104
C26	C	-0.631031	0.552060	0.500104
C27	C	-1.120187	-0.054083	0.000100
C28	C	-0.620187	0.445917	0.500100
C29	C	-1.312777	0.233807	0.000115
C30	C	-0.812777	0.733807	0.500115
C31	C	-1.418919	0.244652	0.000119
C32	C	-0.918919	0.744652	0.500119
C33	C	-1.146609	0.399975	0.000096
C34	C	-0.646609	0.899975	0.500096
C35	C	-1.157454	0.506117	0.000093
C36	C	-0.657454	1.006117	0.500093
C37	C	-0.664382	0.187558	0.000096
C38	C	-0.164382	0.687558	0.500096
C39	C	-0.613252	0.264472	0.000098
C40	C	-0.113252	0.764472	0.500098
C41	C	-0.505115	0.253442	0.000109
C42	C	-0.005115	0.753442	0.500109
C43	C	-0.772529	0.198587	0.000084
C44	C	-0.272529	0.698587	0.500084
N45	N	-1.123830	0.241044	0.265622
N46	N	-0.623830	0.741044	0.765622
C47	C	-1.177279	0.700456	0.000100
C48	C	-0.677279	1.200456	0.500100
C49	C	-1.100365	0.751585	0.000094
C50	C	-0.600365	1.251585	0.500094
C51	C	-1.111397	0.859721	0.000097
C52	C	-0.611397	1.359721	0.500097
C53	C	-1.166249	0.592309	0.000096
C54	C	-0.666249	1.092309	0.500096
N55	N	-1.153817	0.210984	-0.265420
N56	N	-0.653817	0.710984	0.234580
C57	C	-1.112064	0.252852	0.474663
C58	C	-0.612064	0.752852	0.974663
C59	C	-1.165580	0.199179	0.525546
C60	C	-0.665580	0.699179	1.025546
C61	C	-1.159033	0.205749	0.641863
C62	C	-0.659033	0.705749	1.141863
C63	C	-1.118610	0.246283	0.358335
C64	C	-0.618610	0.746283	0.858335
H65	H	-0.650692	0.338606	0.000091
H66	H	-0.150692	0.838606	0.500091
C67	C	-1.043510	0.321569	0.533815
C68	C	-0.543510	0.821569	1.033815
H69	H	-1.010780	0.354373	0.486596
H70	H	-0.510780	0.854373	0.986596
H71	H	-1.078944	0.366504	0.575682
H72	H	-0.578944	0.866504	1.075682
H73	H	-0.998492	0.286209	0.575656
H74	H	-0.498492	0.786209	1.075656
C75	C	-0.613812	0.087417	0.000092
C76	C	-0.113812	0.587417	0.500092
H77	H	-0.546714	0.093047	0.000088
H78	H	-0.046714	0.593047	0.500088
H79	H	-0.628404	0.057067	0.059518
H80	H	-0.128404	0.557067	0.559518
H81	H	-0.635103	0.050359	-0.059353
H82	H	-0.135103	0.550359	0.440647
C83	C	-1.234148	0.130470	0.466389
C84	C	-0.734148	0.630470	0.966389
H85	H	-1.229629	0.135028	0.394838
H86	H	-0.729629	0.635028	0.894838
H87	H	-1.217349	0.066854	0.483895
H88	H	-0.717349	0.566854	0.983895
H89	H	-1.297785	0.147165	0.483925
H90	H	-0.797785	0.647165	0.983925
C91	C	-1.000215	0.701019	0.000092
C92	C	-0.500215	1.201019	0.500092
H93	H	-0.953408	0.747321	0.000084
H94	H	-0.453408	1.247321	0.500084
H95	H	-0.989373	0.665634	0.059523
H96	H	-0.489373	1.165634	0.559523
H97	H	-0.996077	0.658913	-0.059349
H98	H	-0.496077	1.158913	0.440651
C99	C	-1.277419	0.751027	0.000124
C100	C	-0.777419	1.251027	0.500124
H101	H	-1.271788	0.818127	0.000135
H102	H	-0.771788	1.318127	0.500135
H103	H	-1.314489	0.729729	-0.059300
H104	H	-0.814489	1.229729	0.440700
H105	H	-1.307754	0.736445	0.059572
H106	H	-0.807754	1.236445	0.559572
