data_functionalizedCrystal
_audit_creation_method	'MofGen! by Chris Wilmer'
_symmetry_space_group_name_H-M	'P1'
_symmetry_Int_Tables_number	1
_symmetry_cell_setting	triclinic
loop_
_symmetry_equiv_pos_as_xyz
  x,y,z
_cell_length_a	13.635800
_cell_length_b	19.453030
_cell_length_c	9.582860
_cell_angle_alpha	86.193618
_cell_angle_beta	111.206767
_cell_angle_gamma	78.292263
loop_
_atom_site_label
_atom_site_type_symbol
_atom_site_fract_x
_atom_site_fract_y
_atom_site_fract_z
V1	V	2.023542	-0.218869	0.208613
O2	O	1.996549	-0.214835	-0.008422
O3	O	2.019000	-0.217245	0.412102
O4	O	1.994753	-0.314383	0.206107
O5	O	2.020964	-0.117024	0.198999
V6	V	2.263403	-0.206703	0.182570
O7	O	2.158339	-0.245556	0.265740
O8	O	2.353704	-0.180016	0.125442
O9	O	2.156341	-0.208327	-0.020920
O10	O	2.349094	-0.210737	0.399604
O11	O	2.324679	-0.308548	0.192183
O12	O	2.180588	-0.111189	0.185075
V13	V	2.523542	-0.218869	0.208613
O14	O	2.496549	-0.214835	-0.008422
O15	O	2.519000	-0.217245	0.412102
O16	O	2.494753	-0.314383	0.206107
O17	O	2.520964	-0.117024	0.198999
V18	V	2.763403	-0.206703	0.182570
O19	O	2.658339	-0.245556	0.265740
O20	O	2.853704	-0.180016	0.125442
O21	O	2.656341	-0.208327	-0.020920
O22	O	2.849094	-0.210737	0.399604
O23	O	2.824679	-0.308548	0.192183
O24	O	2.680588	-0.111189	0.185075
C25	C	1.915501	-0.337668	0.198917
C26	C	1.932736	-0.415751	0.198215
C27	C	1.973697	-0.462371	0.335006
C28	C	1.989904	-0.535740	0.334362
C29	C	1.965127	-0.562484	0.196918
C30	C	1.924165	-0.515854	0.060110
C31	C	1.907969	-0.442487	0.060759
N32	N	1.908878	-0.668045	0.089158
N33	N	1.924263	-0.737741	0.088551
C34	C	2.013923	-0.783532	0.194956
N35	N	2.087609	-0.756997	0.302014
N36	N	2.072219	-0.687295	0.302625
C37	C	1.982685	-0.642036	0.196200
C38	C	2.072461	-0.909708	0.331058
C39	C	2.088673	-0.983078	0.330409
C40	C	2.022922	-0.963189	0.056153
C41	C	2.006722	-0.889822	0.056806
C42	C	2.031488	-0.863086	0.194263
C43	C	1.946431	-0.213759	0.461686
C44	C	1.983331	-0.213068	0.628046
C45	C	2.060582	-0.211811	-0.070496
C46	C	2.013301	-0.212507	-0.236854
C47	C	2.091511	-0.087900	0.192270
C48	C	2.063896	-0.009817	0.192964
C49	C	2.446431	-0.213759	0.461686
C50	C	2.483331	-0.213068	0.628046
C51	C	2.415501	-0.337668	0.198917
C52	C	2.432736	-0.415751	0.198215
C53	C	2.560582	-0.211811	-0.070496
C54	C	2.513301	-0.212507	-0.236854
C55	C	2.591511	-0.087900	0.192270
C56	C	2.563896	-0.009817	0.192964
C57	C	2.532452	-0.455995	0.205372
C58	C	2.548655	-0.529361	0.204693
C59	C	2.465142	-0.562482	0.196867
C60	C	2.365416	-0.522233	0.189705
C61	C	2.349212	-0.448867	0.190374
C62	C	2.465176	0.023287	0.200773
C63	C	2.439208	0.096655	0.201408
C64	C	2.511966	0.136918	0.194244
C65	C	2.610693	0.103810	0.186430
C66	C	2.636656	0.030444	0.185785
H67	H	1.993870	-0.440608	0.446934
F68	F	2.033502	-0.585365	0.479958
H69	H	2.490818	0.196656	0.194790
F70	F	2.688122	0.146670	0.178819
H71	H	1.903995	-0.537633	-0.051797
F72	F	2.654800	-0.572186	0.212325
H73	H	2.717047	0.003497	0.179435
H74	H	2.268012	-0.416106	0.184549
F75	F	1.864362	-0.392868	-0.084839
H76	H	2.297426	-0.549212	0.183334
F77	F	2.132279	-1.032696	0.476009
H78	H	1.973362	-0.851862	-0.054584
H79	H	2.405919	-0.009486	0.206605
H80	H	2.092629	-0.887938	0.442983
F81	F	1.996563	-0.991648	-0.090125
H82	H	2.478351	-0.622222	0.196325
F83	F	2.621349	-0.420758	0.213702
H84	H	2.358816	0.123601	0.207770
