data_functionalizedCrystal
_audit_creation_method	'MofGen! by Chris Wilmer'
_symmetry_space_group_name_H-M	'P1'
_symmetry_Int_Tables_number	1
_symmetry_cell_setting	triclinic
loop_
_symmetry_equiv_pos_as_xyz
  x,y,z
_cell_length_a	16.109301
_cell_length_b	17.038272
_cell_length_c	15.186229
_cell_angle_alpha	89.995962
_cell_angle_beta	89.999362
_cell_angle_gamma	87.286518
loop_
_atom_site_label
_atom_site_type_symbol
_atom_site_fract_x
_atom_site_fract_y
_atom_site_fract_z
O1	O	1.110268	0.100495	-0.073174
O2	O	0.869094	0.113001	-0.073188
O3	O	0.988247	-0.007067	-0.073174
O4	O	0.991114	0.220563	-0.073187
O5	O	0.988239	-0.007069	0.073284
O6	O	0.869085	0.113000	0.073270
O7	O	1.110259	0.100493	0.073284
Zn8	Zn	0.989671	0.106746	0.096530
Zn9	Zn	0.989682	0.106748	-0.096434
O10	O	0.991105	0.220562	0.073270
C11	C	0.838079	0.112494	0.000039
C12	C	0.745676	0.110975	0.000034
C13	C	0.528212	0.178690	0.000040
C14	C	0.441390	0.177257	0.000046
C15	C	0.451147	0.034799	0.000051
C16	C	0.537968	0.036233	0.000051
C17	C	0.576498	0.108181	0.000042
C18	C	0.402855	0.105314	0.000047
C19	C	0.308719	0.103759	0.000053
C20	C	0.670640	0.109736	0.000037
C21	C	0.985636	-0.036196	0.000055
C22	C	0.977857	-0.122989	0.000054
C23	C	1.049277	-0.173104	0.000059
C24	C	1.041963	-0.254654	0.000050
C25	C	0.963228	-0.286089	0.000043
C26	C	0.891802	-0.235967	0.000035
C27	C	0.899116	-0.154418	0.000038
C28	C	0.937385	-0.531846	0.000029
C29	C	0.930076	-0.613402	0.000029
C30	C	1.080238	-0.632083	0.000043
C31	C	1.087546	-0.550532	0.000051
C32	C	1.016120	-0.500418	0.000038
C33	C	0.955749	-0.369446	0.000037
C34	C	1.023599	-0.417062	0.000038
C35	C	1.141274	0.101001	0.000055
C36	C	1.233677	0.102519	0.000054
C37	C	0.993717	0.249691	0.000039
C38	C	1.001496	0.336484	0.000034
N39	N	0.989669	0.106744	0.228223
N40	N	0.989690	0.106744	-0.228126
C41	C	1.042451	0.053596	0.453952
C42	C	1.042453	0.053594	0.546141
C43	C	0.936902	0.159895	0.546138
C44	C	0.936896	0.159893	0.453950
C45	C	0.989675	0.106744	0.407859
C46	C	0.989684	0.106745	0.592237
C47	C	0.989686	0.106743	0.692193
C48	C	0.989672	0.106744	0.307897
H49	H	0.402079	0.234672	0.000047
C50	C	1.120526	-0.309777	0.000065
H51	H	1.168465	-0.279377	0.000083
H52	H	1.120806	-0.341976	-0.051008
H53	H	1.120784	-0.341980	0.051145
C54	C	1.100503	-0.004864	0.403250
H55	H	1.092950	0.002751	0.341744
H56	H	1.087790	-0.057048	0.418363
H57	H	1.156591	0.003652	0.418357
C58	C	0.843465	-0.647981	0.000021
H59	H	0.849341	-0.703726	0.000033
H60	H	0.813816	-0.630780	-0.051055
H61	H	0.813811	-0.630780	0.051097
H62	H	0.559580	0.237274	0.000039
C63	C	0.408761	-0.044336	0.000050
H64	H	0.350138	-0.035093	0.000040
H65	H	0.424991	-0.073373	0.051122
H66	H	0.424997	-0.073361	-0.051030
C67	C	1.174155	-0.515960	0.000048
H68	H	1.215645	-0.557487	0.000040
H69	H	1.180131	-0.484537	0.051119
H70	H	1.180127	-0.484535	-0.051033
C71	C	1.100510	-0.004866	0.596839
H72	H	1.131944	-0.036514	0.556183
H73	H	1.068307	-0.037422	0.632808
H74	H	1.137110	0.023275	0.632795
C75	C	1.158799	-0.687209	0.000044
H76	H	1.143169	-0.740279	0.000033
H77	H	1.190848	-0.677688	0.051116
H78	H	1.190844	-0.677676	-0.051036
H79	H	0.577284	-0.021187	0.000055
C80	C	1.135887	-0.138534	0.000067
H81	H	1.177374	-0.180063	0.000061
H82	H	1.141861	-0.107113	0.051141
H83	H	1.141864	-0.107107	-0.051012
C84	C	0.858819	-0.476731	0.000031
H85	H	0.810882	-0.507135	0.000038
H86	H	0.858546	-0.444524	-0.051039
H87	H	0.858551	-0.444538	0.051113
H88	H	0.827693	-0.261567	0.000023
H89	H	0.891642	-0.395049	0.000032
C90	C	0.878859	0.218361	0.596841
H91	H	0.886427	0.210757	0.658346
H92	H	0.822770	0.209859	0.581741
H93	H	0.891585	0.270545	0.581722
H94	H	0.840958	-0.113615	0.000033
C95	C	0.878843	0.218360	0.403245
H96	H	0.847419	0.250022	0.443897
H97	H	0.842245	0.190225	0.367288
H98	H	0.911056	0.250915	0.367277
H99	H	1.087705	-0.391465	0.000025
