data_functionalizedCrystal
_audit_creation_method	'MofGen! by Chris Wilmer'
_symmetry_space_group_name_H-M	'P1'
_symmetry_Int_Tables_number	1
_symmetry_cell_setting	triclinic
loop_
_symmetry_equiv_pos_as_xyz
  x,y,z
_cell_length_a	19.188930
_cell_length_b	14.971486
_cell_length_c	14.048226
_cell_angle_alpha	90.006640
_cell_angle_beta	90.020343
_cell_angle_gamma	83.379454
loop_
_atom_site_label
_atom_site_type_symbol
_atom_site_fract_x
_atom_site_fract_y
_atom_site_fract_z
O1	O	-0.926506	-0.111670	-0.079467
O2	O	-0.593173	0.221663	0.253866
O3	O	-0.259839	0.554996	0.587199
O4	O	-0.723243	-0.126703	-0.079402
O5	O	-0.389910	0.206630	0.253931
O6	O	-0.056576	0.539964	0.587265
O7	O	-0.830323	0.011042	-0.079430
O8	O	-0.496989	0.344375	0.253904
O9	O	-0.163656	0.677709	0.587237
O10	O	-0.819427	-0.249416	-0.079440
O11	O	-0.486093	0.083918	0.253894
O12	O	-0.152760	0.417251	0.587227
O13	O	-0.830310	0.011050	0.078892
O14	O	-0.496976	0.344384	0.412225
O15	O	-0.163643	0.677717	0.745558
O16	O	-0.723230	-0.126695	0.078919
O17	O	-0.389897	0.206638	0.412253
O18	O	-0.056564	0.539972	0.745586
O19	O	-0.926493	-0.111662	0.078854
O20	O	-0.593160	0.221671	0.412187
O21	O	-0.259827	0.555004	0.745521
Zn22	Zn	-0.824860	-0.119177	0.104024
Zn23	Zn	-0.491526	0.214156	0.437357
Zn24	Zn	-0.158193	0.547489	0.770690
Zn25	Zn	-0.824877	-0.119188	-0.104572
Zn26	Zn	-0.491543	0.214145	0.228762
Zn27	Zn	-0.158210	0.547479	0.562095
O28	O	-0.819414	-0.249408	0.078882
O29	O	-0.486080	0.083926	0.412215
O30	O	-0.152747	0.417259	0.745548
C31	C	-0.829829	0.044368	-0.000269
C32	C	-0.496496	0.377702	0.333064
C33	C	-0.163162	0.711035	0.666398
C34	C	-0.828369	0.143658	-0.000269
C35	C	-0.495035	0.476991	0.333064
C36	C	-0.161702	0.810324	0.666397
C37	C	-0.697224	-0.126212	-0.000233
C38	C	-0.363891	0.207121	0.333100
C39	C	-0.030557	0.540455	0.666434
C40	C	-0.619715	-0.124751	-0.000208
C41	C	-0.286382	0.208583	0.333125
C42	C	0.046952	0.541916	0.666459
C43	C	-0.952512	-0.112153	-0.000317
C44	C	-0.619179	0.221180	0.333016
C45	C	-0.285846	0.554513	0.666350
C46	C	-1.030021	-0.113615	-0.000348
C47	C	-0.696688	0.219719	0.332985
C48	C	-0.363355	0.553052	0.666318
C49	C	-0.575051	-0.205575	-0.000226
C50	C	-0.241718	0.127758	0.333107
C51	C	0.091616	0.461092	0.666441
C52	C	-0.502223	-0.204202	-0.000236
C53	C	-0.168890	0.129131	0.333097
C54	C	0.164444	0.462464	0.666430
C55	C	-0.474062	-0.122000	-0.000248
C56	C	-0.140728	0.211333	0.333085
C57	C	0.192605	0.544666	0.666419
C58	C	-0.518735	-0.041166	-0.000224
C59	C	-0.185402	0.292168	0.333109
C60	C	0.147931	0.625501	0.666442
C61	C	-0.591562	-0.042541	-0.000204
C62	C	-0.258229	0.290793	0.333129
C63	C	0.075105	0.624126	0.666462
N64	N	-0.365884	-0.059170	-0.054167
N65	N	-0.032550	0.274163	0.279166
N66	N	0.300783	0.607497	0.612499
N67	N	-0.296701	-0.057869	-0.054188
N68	N	0.036632	0.275464	0.279145
N69	N	0.369966	0.608797	0.612478
C70	C	-0.254640	-0.117852	-0.000306
C71	C	0.078694	0.215481	0.333027
C72	C	0.412027	0.548815	0.666361
N73	N	-0.284374	-0.179199	0.053586
N74	N	0.048960	0.154135	0.386920
N75	N	0.382293	0.487468	0.720253
N76	N	-0.353562	-0.180502	0.053603
N77	N	-0.020229	0.152831	0.386936
N78	N	0.313104	0.486165	0.720270
C79	C	-0.395094	-0.120500	-0.000269
C80	C	-0.061761	0.212833	0.333064
C81	C	0.271572	0.546166	0.666398
C82	C	-0.131007	-0.197193	-0.000334
C83	C	0.202327	0.136140	0.332999
C84	C	0.535660	0.469473	0.666333
C85	C	-0.058178	-0.195817	-0.000338
C86	C	0.275156	0.137516	0.332995
C87	C	0.608489	0.470850	0.666328
C88	C	-0.074692	-0.032778	-0.000336
C89	C	0.258642	0.300555	0.332997
C90	C	0.591975	0.633889	0.666331
C91	C	-0.147519	-0.034157	-0.000322
C92	C	0.185814	0.299177	0.333011
C93	C	0.519147	0.632510	0.666345
C94	C	-0.175672	-0.116367	-0.000325
C95	C	0.157661	0.216967	0.333008
C96	C	0.490995	0.550300	0.666341
C97	C	-0.819907	-0.282734	-0.000281
C98	C	-0.486574	0.050600	0.333052
C99	C	-0.153241	0.383933	0.666386
C100	C	-0.821368	-0.382023	-0.000287
C101	C	-0.488034	-0.048690	0.333047
C102	C	-0.154701	0.284644	0.666380
N103	N	-0.824853	-0.119170	0.246384
N104	N	-0.491520	0.214164	0.579718
N105	N	-0.158187	0.547497	0.913051
C106	C	-0.891275	0.201215	-0.000289
C107	C	-0.557942	0.534549	0.333044
C108	C	-0.224608	0.867882	0.666378
C109	C	-0.889899	0.294507	-0.000298
C110	C	-0.556565	0.627841	0.333035
C111	C	-0.223232	0.961174	0.666369
C112	C	-0.825615	0.330240	-0.000281
C113	C	-0.492282	0.663574	0.333052
C114	C	-0.158949	0.996907	0.666386
C115	C	-0.762704	0.272675	-0.000264
C116	C	-0.429371	0.606009	0.333069
C117	C	-0.096038	0.939342	0.666402
C118	C	-0.764081	0.179385	-0.000262
C119	C	-0.430748	0.512718	0.333071
C120	C	-0.097415	0.846052	0.666405
C121	C	-0.759839	0.467123	-0.000267
C122	C	-0.426505	0.800456	0.333067
C123	C	-0.093172	1.133789	0.666400
C124	C	-0.758461	0.560419	-0.000267
C125	C	-0.425128	0.893753	0.333066
C126	C	-0.091795	1.227086	0.666399
C127	C	-0.885656	0.582245	-0.000303
C128	C	-0.552323	0.915579	0.333030
C129	C	-0.218989	1.248912	0.666364
C130	C	-0.887033	0.488955	-0.000301
C131	C	-0.553700	0.822288	0.333033
C132	C	-0.220366	1.155621	0.666366
C133	C	-0.824122	0.431396	-0.000282
C134	C	-0.490788	0.764730	0.333051
C135	C	-0.157455	1.098063	0.666385
N136	N	-0.824889	-0.119189	-0.246932
N137	N	-0.491555	0.214145	0.086401
N138	N	-0.158222	0.547478	0.419734
C139	C	-0.872283	-0.058201	0.296190
C140	C	-0.538950	0.275132	0.629524
C141	C	-0.205616	0.608466	0.962857
C142	C	-0.872288	-0.058201	0.395848
C143	C	-0.538954	0.275133	0.729181
C144	C	-0.205621	0.608466	1.062515
C145	C	-0.824865	-0.119174	0.445698
C146	C	-0.491532	0.214160	0.779031
C147	C	-0.158199	0.547493	1.112364
C148	C	-0.777431	-0.180145	0.395885
C149	C	-0.444097	0.153188	0.729218
C150	C	-0.110764	0.486522	1.062552
C151	C	-0.777423	-0.180140	0.296229
C152	C	-0.444090	0.153193	0.629563
C153	C	-0.110756	0.486526	0.962896
C154	C	-0.777451	-0.180151	0.603599
C155	C	-0.444117	0.153182	0.936933
C156	C	-0.110784	0.486515	1.270266
C157	C	-0.777459	-0.180157	0.703262
C158	C	-0.444126	0.153176	1.036595
C159	C	-0.110792	0.486509	1.369929
C160	C	-0.872315	-0.058211	0.703218
C161	C	-0.538982	0.275122	1.036551
C162	C	-0.205649	0.608455	1.369885
C163	C	-0.872308	-0.058207	0.603562
C164	C	-0.538974	0.275126	0.936895
C165	C	-0.205641	0.608460	1.270229
C166	C	-0.824874	-0.119180	0.553756
C167	C	-0.491540	0.214154	0.887089
C168	C	-0.158207	0.547487	1.220423
H169	H	-0.597968	-0.272517	-0.000231
H170	H	-0.264635	0.060816	0.333103
H171	H	0.068699	0.394150	0.666436
F172	F	-0.726956	-0.245034	0.448940
F173	F	-0.393623	0.088300	0.782273
F174	F	-0.060290	0.421633	1.115607
H175	H	-0.465851	-0.270021	-0.000248
H176	H	-0.132517	0.063312	0.333085
H177	H	0.200816	0.396645	0.666418
F178	F	-0.488763	0.046319	-0.000232
F179	F	-0.155430	0.379653	0.333101
F180	F	0.177903	0.712986	0.666435
F181	F	-0.690044	0.598447	-0.000248
F182	F	-0.356711	0.931780	0.333085
F183	F	-0.023378	1.265113	0.666419
H184	H	-0.943622	0.172130	-0.000297
H185	H	-0.610288	0.505463	0.333036
H186	H	-0.276955	0.838796	0.666370
H187	H	-0.710364	0.301776	-0.000256
H188	H	-0.377030	0.635109	0.333077
H189	H	-0.043697	0.968443	0.666410
F190	F	-0.639099	0.043488	-0.000185
F191	F	-0.305765	0.376821	0.333148
F192	F	0.027568	0.710154	0.666482
H193	H	-0.910902	-0.008554	0.255609
H194	H	-0.577569	0.324780	0.588942
H195	H	-0.244236	0.658113	0.922276
H196	H	-0.738842	-0.229807	0.743845
H197	H	-0.405509	0.103527	1.077178
H198	H	-0.072176	0.436860	1.410511
H199	H	-0.910926	-0.008563	0.562974
H200	H	-0.577592	0.324771	0.896308
H201	H	-0.244259	0.658104	1.229641
H202	H	-0.708609	0.420260	-0.000254
H203	H	-0.375276	0.753593	0.333079
H204	H	-0.041943	1.086927	0.666412
F205	F	-0.922767	0.006690	0.448855
F206	F	-0.589433	0.340023	0.782189
F207	F	-0.256100	0.673356	1.115522
F208	F	-0.922798	0.006679	0.756229
F209	F	-0.589465	0.340012	1.089562
F210	F	-0.256132	0.673345	1.422896
H211	H	-0.712856	0.132522	-0.000246
H212	H	-0.379523	0.465855	0.333087
H213	H	-0.046190	0.799188	0.666420
F214	F	-0.160972	-0.284687	-0.000330
F215	F	0.172362	0.048646	0.333003
F216	F	0.505695	0.381979	0.666336
H217	H	-0.939378	0.459865	-0.000308
H218	H	-0.606045	0.793198	0.333026
H219	H	-0.272711	1.126531	0.666359
F220	F	-0.010642	-0.281846	-0.000353
F221	F	0.322691	0.051487	0.332981
F222	F	0.656025	0.384820	0.666314
H223	H	-0.051764	0.034152	-0.000404
H224	H	0.281570	0.367486	0.332929
H225	H	0.614903	0.700819	0.666262
F226	F	-0.726963	-0.245044	0.550596
F227	F	-0.393630	0.088289	0.883930
F228	F	-0.060296	0.421623	1.217263
H229	H	-0.183886	0.031659	-0.000312
H230	H	0.149448	0.364993	0.333021
H231	H	0.482781	0.698326	0.666354
F232	F	-0.726940	-0.245029	0.243223
F233	F	-0.393606	0.088304	0.576557
F234	F	-0.060273	0.421637	0.909890
H235	H	-0.941123	0.341368	-0.000312
H236	H	-0.607790	0.674701	0.333022
H237	H	-0.274457	1.008035	0.666355
H238	H	-0.936881	0.629114	-0.000321
H239	H	-0.603548	0.962448	0.333012
H240	H	-0.270214	1.295781	0.666346
