data_functionalizedCrystal
_audit_creation_method	'MofGen! by Chris Wilmer'
_symmetry_space_group_name_H-M	'P1'
_symmetry_Int_Tables_number	1
_symmetry_cell_setting	triclinic
loop_
_symmetry_equiv_pos_as_xyz
  x,y,z
_cell_length_a	19.188930
_cell_length_b	19.288865
_cell_length_c	17.766277
_cell_angle_alpha	90.011603
_cell_angle_beta	90.023242
_cell_angle_gamma	83.140512
loop_
_atom_site_label
_atom_site_type_symbol
_atom_site_fract_x
_atom_site_fract_y
_atom_site_fract_z
O1	O	-0.926143	-0.086718	-0.062845
O2	O	-0.722831	-0.098391	-0.062794
O3	O	-0.830362	0.008575	-0.062806
O4	O	-0.818612	-0.193685	-0.062833
O5	O	-0.830343	0.008581	0.062382
O6	O	-0.722812	-0.098386	0.062394
O7	O	-0.926124	-0.086712	0.062344
Cu8	Cu	-0.824466	-0.092549	0.073800
Cu9	Cu	-0.824489	-0.092555	-0.074250
O10	O	-0.818593	-0.193679	0.062356
C11	C	-0.696811	-0.098011	-0.000193
C12	C	-0.619306	-0.096876	-0.000173
C13	C	-0.829974	0.034454	-0.000209
C14	C	-0.828839	0.111558	-0.000203
C15	C	-0.952145	-0.087093	-0.000259
C16	C	-1.029649	-0.088228	-0.000284
C17	C	-0.574377	-0.159640	-0.000194
C18	C	-0.501554	-0.158574	-0.000202
C19	C	-0.473662	-0.094740	-0.000205
C20	C	-0.518600	-0.031967	-0.000180
C21	C	-0.591423	-0.033035	-0.000165
N22	N	-0.365692	-0.045949	-0.042836
N23	N	-0.296513	-0.044938	-0.042852
C24	C	-0.254254	-0.091519	-0.000250
N25	N	-0.283784	-0.139158	0.042359
N26	N	-0.352969	-0.140170	0.042372
C27	C	-0.394700	-0.093575	-0.000221
C28	C	-0.130361	-0.153132	-0.000278
C29	C	-0.057536	-0.152063	-0.000282
C30	C	-0.074584	-0.025454	-0.000268
C31	C	-0.147407	-0.026525	-0.000257
C32	C	-0.175291	-0.090365	-0.000266
C33	C	-0.818981	-0.219558	-0.000243
C34	C	-0.820116	-0.296662	-0.000255
N35	N	-0.824456	-0.092544	0.177930
C36	C	-0.891934	0.156250	-0.000215
C37	C	-0.890867	0.228697	-0.000226
C38	C	-0.826703	0.256449	-0.000211
C39	C	-0.763601	0.211748	-0.000203
C40	C	-0.764669	0.139302	-0.000199
C41	C	-0.776256	0.364742	0.043653
C42	C	-0.775191	0.437187	0.043653
C43	C	-0.823407	0.479895	-0.000227
C44	C	-0.872700	0.450151	-0.044098
C45	C	-0.873768	0.377706	-0.044093
C46	C	-0.825538	0.335003	-0.000216
C47	C	-0.885349	0.603143	-0.000252
C48	C	-0.884280	0.675591	-0.000269
C49	C	-0.757012	0.658640	-0.000238
C50	C	-0.758083	0.586194	-0.000229
C51	C	-0.822253	0.558449	-0.000233
N52	N	-0.824505	-0.092555	-0.178381
C53	C	-0.872086	-0.045202	0.217312
C54	C	-0.872090	-0.045199	0.296114
C55	C	-0.824471	-0.092549	0.335531
C56	C	-0.776832	-0.139895	0.296139
C57	C	-0.776824	-0.139892	0.217339
C58	C	-0.815123	-0.155836	0.460362
C59	C	-0.815136	-0.155840	0.539160
C60	C	-0.824489	-0.092558	0.578577
C61	C	-0.833845	-0.029269	0.539185
C62	C	-0.833838	-0.029266	0.460385
C63	C	-0.824473	-0.092557	0.420976
C64	C	-0.872126	-0.045209	0.703405
C65	C	-0.872125	-0.045204	0.782208
C66	C	-0.776871	-0.139906	0.782232
C67	C	-0.776868	-0.139904	0.703430
C68	C	-0.824500	-0.092556	0.664021
H69	H	-0.597075	-0.211624	-0.000202
H70	H	-0.495886	0.020007	-0.000193
H71	H	-0.937601	0.580552	-0.000259
H72	H	-0.051876	0.026521	-0.000317
H73	H	-0.628004	0.018077	-0.000149
Cl74	Cl	-0.445061	-0.237484	-0.000225
H75	H	-0.713288	0.102913	-0.000189
Cl76	Cl	-0.165418	-0.233387	-0.000282
H77	H	-0.910877	-0.006646	0.328184
Cl78	Cl	-0.716964	-0.199418	0.345690
H79	H	-0.020955	-0.203175	-0.000294
Cl80	Cl	-0.715638	0.311059	0.098824
H81	H	-0.738037	-0.178444	0.185274
Cl82	Cl	-0.932004	0.014320	0.831719
H83	H	-0.183989	0.024585	-0.000245
Cl84	Cl	-0.972605	0.121375	-0.000240
Cl85	Cl	-0.970192	0.284891	-0.000242
H86	H	-0.911961	0.484923	-0.079829
H87	H	-0.913902	0.353491	-0.079816
Cl88	Cl	-0.845591	0.050293	0.410866
H89	H	-0.935661	0.711979	-0.000283
Cl90	Cl	-0.676348	0.693522	-0.000223
H91	H	-0.735051	0.461398	0.079371
Cl92	Cl	-0.678759	0.530007	-0.000211
Cl93	Cl	-0.682937	0.246635	-0.000190
Cl94	Cl	-0.931960	0.014323	0.167769
Cl95	Cl	-0.845610	0.050292	0.588728
H96	H	-0.910909	-0.006653	0.671316
Cl97	Cl	-0.717001	-0.199427	0.831779
H98	H	-0.738086	-0.178457	0.671364
H99	H	-0.807522	-0.207373	0.571227
H100	H	-0.807495	-0.207372	0.428275
