data_functionalizedCrystal
_audit_creation_method	'MofGen! by Chris Wilmer'
_symmetry_space_group_name_H-M	'P1'
_symmetry_Int_Tables_number	1
_symmetry_cell_setting	triclinic
loop_
_symmetry_equiv_pos_as_xyz
  x,y,z
_cell_length_a	14.395555
_cell_length_b	18.760492
_cell_length_c	14.395555
_cell_angle_alpha	59.996973
_cell_angle_beta	60.001260
_cell_angle_gamma	89.998746
loop_
_atom_site_label
_atom_site_type_symbol
_atom_site_fract_x
_atom_site_fract_y
_atom_site_fract_z
Zr1	Zr	0.894951	-0.093518	1.016752
O2	O	0.746634	-0.207342	1.210554
O3	O	0.940414	-0.058623	0.822954
O4	O	0.940430	-0.207332	1.016750
O5	O	0.746610	0.058670	1.016758
O6	O	1.093304	-0.207326	1.016743
O7	O	0.746618	-0.058633	1.016758
O8	O	1.093276	0.058688	0.670077
O9	O	0.746639	-0.207344	1.363424
O10	O	1.073897	-0.043738	0.902659
O11	O	0.959803	0.043800	0.902664
O12	O	0.959821	-0.131287	1.130834
O13	O	0.845727	-0.043749	1.130839
Zr14	Zr	1.138755	0.093577	1.016740
Zr15	Zr	1.138768	-0.093508	1.016741
Zr16	Zr	0.894938	0.093567	1.016751
Zr17	Zr	0.894958	-0.093520	1.260561
Zr18	Zr	1.138748	0.093580	0.772931
O19	O	1.093292	0.058682	1.210538
O20	O	1.093310	-0.207328	1.210539
O21	O	0.746616	0.058668	1.210554
O22	O	1.287072	0.207402	0.822938
O23	O	1.287090	-0.058608	0.822938
O24	O	0.940396	0.207387	0.822953
O25	O	1.287096	-0.058611	1.016734
O26	O	1.093276	0.207391	1.016742
O27	O	0.940402	0.207385	1.016749
O28	O	1.287088	0.058692	1.016734
O29	O	0.940440	-0.207336	1.363415
O30	O	1.093266	0.207396	0.670077
O31	O	1.287067	0.207403	0.670068
O32	O	1.287077	0.058696	0.670068
O33	O	0.746629	-0.058637	1.363424
O34	O	0.940430	-0.058629	1.363415
O35	O	1.073885	0.131346	0.902658
O36	O	1.187979	0.043809	0.902653
O37	O	1.073904	-0.043740	1.130828
O38	O	0.959809	0.043797	1.130833
C39	C	0.711876	0.000017	1.016760
C40	C	0.608369	0.000013	1.016764
C41	C	1.016844	0.000033	0.711778
C42	C	1.016841	0.000034	0.608274
C43	C	1.016837	0.234044	1.016746
C44	C	1.016832	0.313466	1.016745
C45	C	0.485581	-0.047715	1.141175
C46	C	0.454746	-0.082302	1.078982
C47	C	0.454781	0.034594	1.078953
C48	C	0.578898	-0.034622	0.954571
C49	C	0.578929	0.082320	0.954559
C50	C	0.548167	0.047753	0.892275
C51	C	1.321830	0.000042	1.016732
C52	C	1.425337	0.000046	1.016728
C53	C	1.016869	-0.233984	1.016746
C54	C	1.016874	-0.313407	1.016747
C55	C	1.076419	0.694983	0.897636
C56	C	0.957323	0.603576	1.135855
C57	C	0.957311	0.528954	1.135857
C58	C	1.016856	0.537344	1.016747
C59	C	1.076413	0.620355	0.897635
C60	C	0.897766	0.445937	1.254967
C61	C	0.897753	0.371308	1.254974
C62	C	0.957292	0.379698	1.135862
C63	C	1.016850	0.462716	1.016745
C64	C	1.076395	0.471106	0.897635
C65	C	1.135946	0.554123	0.778517
C66	C	1.135952	0.628745	0.778523
C67	C	0.957287	0.305076	1.135856
C68	C	1.076388	0.396478	0.897633
C69	C	0.954635	0.047766	0.547685
C70	C	0.909558	-0.034553	0.561943
C71	C	1.061890	0.082329	0.409620
C72	C	0.971701	-0.082333	0.623959
C73	C	1.124093	0.034608	0.471573
C74	C	1.079043	-0.047761	0.485878
C75	C	1.016862	0.000026	1.321714
C76	C	1.016865	0.000025	1.425218
C77	C	1.321821	0.000046	0.711764
C78	C	1.425325	0.000051	0.608256
C79	C	1.016828	0.234047	0.711777
C80	C	1.016820	0.313471	0.608274
C81	C	1.321805	0.234060	0.711764
C82	C	1.425303	0.313488	0.608255
C83	C	0.711901	-0.234000	1.321728
C84	C	0.608403	-0.313428	1.425237
C85	C	0.711885	0.000014	1.321728
C86	C	0.608381	0.000008	1.425236
C87	C	1.016878	-0.233988	1.321715
C88	C	1.016886	-0.313411	1.425218
C89	C	1.076365	0.396475	0.559665
C90	C	1.076353	0.471109	0.462426
C91	C	1.016801	0.462737	0.413791
C92	C	0.957248	0.379724	0.462410
C93	C	0.957254	0.305092	0.559654
C94	C	1.533473	0.305094	0.559644
C95	C	1.630730	0.379718	0.462401
C96	C	1.619814	0.462734	0.413764
C97	C	1.511633	0.471126	0.462385
C98	C	1.414379	0.396503	0.559633
C99	C	0.500233	-0.305035	1.473860
C100	C	0.402976	-0.379658	1.571133
C101	C	0.413892	-0.462675	1.619775
C102	C	0.522073	-0.471066	1.571148
C103	C	0.619327	-0.396443	1.473883
C104	C	1.076450	-0.305011	1.473822
C105	C	1.076480	-0.379631	1.571062
C106	C	1.016940	-0.462650	1.619702
C107	C	0.957374	-0.471048	1.571089
C108	C	0.957351	-0.396430	1.473844
C109	C	1.548114	0.047763	0.547694
C110	C	1.578969	0.082336	0.409585
C111	C	1.578887	-0.034562	0.561990
C112	C	1.454816	0.034673	0.471446
C113	C	1.454738	-0.082271	0.623925
C114	C	1.485519	-0.047717	0.485825
H115	H	0.460144	-0.088139	1.246377
H116	H	0.908851	0.596751	1.232829
H117	H	1.401209	-0.151841	0.715590
C118	C	0.283987	-0.370408	1.624603
N119	N	0.194368	-0.363438	1.664873
C120	C	0.883469	0.102207	0.584495
N121	N	0.829863	0.143205	0.612231
H122	H	0.401235	-0.151895	1.131563
H123	H	1.401475	0.063992	0.434031
C124	C	1.651140	-0.074068	0.612288
N125	N	1.705563	-0.103817	0.650172
C126	C	0.306897	-0.544754	1.726760
N127	N	0.226305	-0.606573	1.807336
C128	C	0.920092	-0.176403	0.747665
N129	N	0.881215	-0.247255	0.840844
C130	C	1.295394	0.405751	0.613092
N131	N	1.205775	0.412722	0.653354
C132	C	0.832294	0.436716	1.385979
N133	N	0.782983	0.429772	1.484662
C134	C	1.150101	-0.102374	0.449467
N135	N	1.203615	-0.143512	0.422044
H136	H	1.184437	0.696342	0.681543
H137	H	0.707402	-0.403288	1.434295
C138	C	0.891805	-0.405685	1.420408
N139	N	0.842428	-0.412662	1.380168
C140	C	1.246587	0.074153	0.421361
N141	N	1.338852	0.103948	0.383535
H142	H	1.124984	-0.372776	1.610632
H143	H	1.016967	-0.523402	1.698885
H144	H	1.573554	0.088193	0.574764
C145	C	0.891930	-0.562378	1.624561
N146	N	0.842651	-0.631170	1.664827
H147	H	1.099979	0.151928	0.318010
C148	C	0.488197	-0.213724	1.420380
N149	N	0.479123	-0.144950	1.380112
H150	H	1.502762	0.538727	0.422770
C151	C	0.534061	-0.562393	1.624657
N152	N	0.543088	-0.631182	1.664955
C153	C	1.141882	0.562415	0.408951
N154	N	1.191242	0.631185	0.368673
C155	C	1.651307	0.176338	0.285774
N156	N	1.705799	0.247140	0.192524
C157	C	1.016817	0.544844	0.306807
N158	N	1.016840	0.606690	0.226220
H159	H	0.632257	-0.063935	0.902027
H160	H	1.459864	-0.088090	0.458809
H161	H	0.908762	0.372920	0.422797
H162	H	1.124935	-0.237420	1.434234
C163	C	1.142073	0.786300	0.766612
N164	N	1.191580	0.855081	0.667924
H165	H	0.573819	0.088120	0.786988
C166	C	1.545509	0.213783	0.613134
N167	N	1.554583	0.145009	0.653424
H168	H	0.632437	0.151897	0.902023
C169	C	1.726809	0.544813	0.306778
N170	N	1.807401	0.606633	0.226191
C171	C	1.749719	0.370467	0.408924
N172	N	1.839338	0.363497	0.368645
H173	H	0.401275	0.063826	1.131558
H174	H	1.124872	0.403320	0.800638
C175	C	0.832211	0.279996	1.386005
N176	N	0.782831	0.211218	1.484699
H177	H	0.908806	0.237488	1.232840
C178	C	1.201444	0.563341	0.647499
N179	N	1.250773	0.570280	0.548820
H180	H	0.818866	-0.063804	0.599133
H181	H	1.124860	0.403309	0.599252
H182	H	0.908769	0.237509	0.599218
