data_functionalizedCrystal
_audit_creation_method	'MofGen! by Chris Wilmer'
_symmetry_space_group_name_H-M	'P1'
_symmetry_Int_Tables_number	1
_symmetry_cell_setting	triclinic
loop_
_symmetry_equiv_pos_as_xyz
  x,y,z
_cell_length_a	15.298068
_cell_length_b	15.298853
_cell_length_c	12.759393
_cell_angle_alpha	99.705489
_cell_angle_beta	99.710563
_cell_angle_gamma	88.373576
loop_
_atom_site_label
_atom_site_type_symbol
_atom_site_fract_x
_atom_site_fract_y
_atom_site_fract_z
Zn1	Zn	1.399674	-0.117155	0.853069
Zn2	Zn	1.424944	-0.263670	0.652980
Zn3	Zn	1.253182	-0.142524	0.642712
Zn4	Zn	1.278511	-0.288912	0.793963
O5	O	1.339078	-0.203065	0.735681
O6	O	1.525617	-0.115410	0.855560
O7	O	1.402135	-0.247653	0.504581
O8	O	1.251439	-0.016577	0.691055
O9	O	1.544182	-0.223054	0.708556
O10	O	1.359066	0.002061	0.845604
O11	O	1.275942	-0.158647	0.497037
O12	O	1.133952	-0.183123	0.633742
O13	O	1.294608	-0.266075	0.948840
O14	O	1.152561	-0.290674	0.744866
O15	O	1.383627	-0.139886	0.992265
O16	O	1.426695	-0.389599	0.651243
O17	O	1.319111	-0.408145	0.754822
C18	C	1.378417	-0.430652	0.697762
C19	C	1.395327	-0.528000	0.681594
C20	C	1.111470	-0.242391	0.681776
C21	C	1.014102	-0.259236	0.658737
C22	C	1.459325	-0.564038	0.620138
C23	C	1.475220	-0.655501	0.604953
C24	C	1.427114	-0.710935	0.651216
C25	C	1.363110	-0.674899	0.712667
C26	C	1.347218	-0.583426	0.727860
C27	C	1.315007	-0.730323	0.758938
C28	C	1.251003	-0.694286	0.820390
C29	C	1.235113	-0.602823	0.835579
C30	C	1.283220	-0.547388	0.789316
C31	C	1.330898	-0.821796	0.743745
C32	C	1.218791	-0.841183	0.851468
C33	C	1.202896	-0.749721	0.866652
C34	C	0.701037	-0.082892	0.900312
C35	C	0.792520	-0.067068	0.921964
C36	C	0.847920	-0.115108	0.856159
C37	C	0.811828	-0.178976	0.768698
C38	C	0.720338	-0.194807	0.747049
C39	C	0.867220	-0.227023	0.702896
C40	C	0.831129	-0.290891	0.615436
C41	C	0.739647	-0.306718	0.593790
C42	C	0.684247	-0.258678	0.659595
C43	C	0.958711	-0.211192	0.724546
C44	C	0.978011	-0.323107	0.571283
C45	C	0.886529	-0.338931	0.549631
C46	C	1.567575	-0.163586	0.789797
C47	C	1.664946	-0.146763	0.812858
C48	C	1.339124	-0.202966	1.009744
C49	C	1.339144	-0.202924	1.126533
C50	C	1.299609	0.025414	0.773777
C51	C	1.282789	0.122779	0.790012
C52	C	1.339071	-0.203092	0.462707
C53	C	1.339179	-0.202858	0.346000
C54	C	1.385502	-0.137211	1.204011
C55	C	1.385518	-0.137175	1.313745
C56	C	1.292814	-0.268575	1.268512
C57	C	1.292794	-0.268606	1.158780
C58	C	1.431851	-0.071529	1.171764
C59	C	1.478215	-0.005811	1.249244
C60	C	1.478230	-0.005776	1.358978
C61	C	1.431882	-0.071459	1.391233
H62	H	1.383012	-0.851128	0.693712
H63	H	1.431846	-0.071552	1.082416
H64	H	1.515974	0.047740	1.422060
H65	H	0.821899	-0.015069	0.993177
F66	F	0.642074	-0.031781	0.970345
F67	F	1.431888	-0.071409	1.508024
H68	H	0.922408	-0.102217	0.873791
H69	H	0.857130	-0.390934	0.478420
H70	H	1.179621	-0.886318	0.889142
H71	H	0.710266	-0.358730	0.522581
H72	H	1.527332	-0.684835	0.554919
F73	F	1.243494	-0.338476	1.302845
F74	F	0.586878	-0.275514	0.636553
H75	H	1.023119	-0.362230	0.517703
F76	F	1.243453	-0.338544	1.076318
F77	F	0.997111	-0.143221	0.817625
H78	H	1.515943	0.047670	1.222974
H79	H	1.498493	-0.518898	0.582482
F80	F	1.443762	-0.808324	0.634664
F81	F	1.266493	-0.450009	0.805743
H82	H	1.150783	-0.720368	0.916687
F83	F	1.167004	-0.564470	0.900996
