data_functionalizedCrystal
_audit_creation_method	'MofGen! by Chris Wilmer'
_symmetry_space_group_name_H-M	'P1'
_symmetry_Int_Tables_number	1
_symmetry_cell_setting	triclinic
loop_
_symmetry_equiv_pos_as_xyz
  x,y,z
_cell_length_a	14.044220
_cell_length_b	13.101039
_cell_length_c	14.044220
_cell_angle_alpha	86.332523
_cell_angle_beta	86.811122
_cell_angle_gamma	86.340132
loop_
_atom_site_label
_atom_site_type_symbol
_atom_site_fract_x
_atom_site_fract_y
_atom_site_fract_z
O1	O	1.281968	-0.085109	-0.225348
O2	O	1.781968	0.414891	0.274652
O3	O	1.005298	-0.085135	-0.217041
O4	O	1.505298	0.414865	0.282959
O5	O	1.139480	-0.085112	-0.082860
O6	O	1.639480	0.414888	0.417140
O7	O	1.147787	-0.085132	-0.359530
O8	O	1.647787	0.414868	0.140470
O9	O	1.129854	0.085316	-0.092504
O10	O	1.629854	0.585316	0.407496
O11	O	0.995673	0.085293	-0.226686
O12	O	1.495673	0.585293	0.273314
O13	O	1.272343	0.085319	-0.234993
O14	O	1.772343	0.585319	0.265007
Zn15	Zn	1.132479	0.112365	-0.232371
Zn16	Zn	1.632479	0.612365	0.267629
Zn17	Zn	1.145162	-0.112181	-0.219663
Zn18	Zn	1.645162	0.387819	0.280337
O19	O	1.138161	0.085296	-0.369175
O20	O	1.638161	0.585296	0.130825
C21	C	0.964864	0.000076	-0.218228
C22	C	1.464864	0.500076	0.281772
C23	C	0.858722	0.000066	-0.207383
C24	C	1.358722	0.500066	0.292617
C25	C	1.131031	0.000102	-0.052060
C26	C	1.631031	0.500102	0.447940
C27	C	1.120187	0.000102	0.054083
C28	C	1.620187	0.500102	0.554083
N29	N	1.123831	0.265612	-0.241043
N30	N	1.623831	0.765612	0.258957
C31	C	0.664383	0.000088	-0.187558
C32	C	1.164383	0.500088	0.312442
C33	C	0.613253	0.000087	-0.264472
C34	C	1.113253	0.500087	0.235528
C35	C	0.505116	0.000099	-0.253441
C36	C	1.005116	0.500099	0.246559
C37	C	0.772529	0.000076	-0.198587
C38	C	1.272529	0.500076	0.301413
C39	C	1.312777	0.000106	-0.233806
C40	C	1.812777	0.500106	0.266194
C41	C	1.418920	0.000109	-0.244651
C42	C	1.918920	0.500109	0.255349
N43	N	1.153817	-0.265428	-0.210984
N44	N	1.653817	0.234572	0.289016
C45	C	1.112065	0.474653	-0.252851
C46	C	1.612065	0.974653	0.247149
C47	C	1.165580	0.525538	-0.199179
C48	C	1.665580	1.025538	0.300821
C49	C	1.159034	0.641855	-0.205749
C50	C	1.659034	1.141855	0.294251
C51	C	1.118610	0.358325	-0.246282
C52	C	1.618610	0.858325	0.253718
C53	C	1.146610	0.000080	-0.399974
C54	C	1.646610	0.500080	0.100026
C55	C	1.157455	0.000073	-0.506116
C56	C	1.657455	0.500073	-0.006116
C57	C	1.100362	0.000086	0.248421
C58	C	1.600362	0.500086	0.748421
C59	C	1.177276	0.000090	0.299551
C60	C	1.677276	0.500090	0.799551
C61	C	1.166245	0.000080	0.407688
C62	C	1.666245	0.500080	0.907688
C63	C	1.111391	0.000095	0.140275
C64	C	1.611391	0.500095	0.640275
H65	H	0.650693	0.000077	-0.338605
H66	H	1.150693	0.500077	0.161395
H67	H	1.026235	0.000076	0.285859
H68	H	1.526235	0.500076	0.785859
H69	H	1.251413	0.000028	0.262115
H70	H	1.751413	0.500028	0.762115
H71	H	1.216314	0.481744	-0.148295
H72	H	1.716314	0.981744	0.351705
H73	H	1.061336	0.518442	-0.303733
H74	H	1.561336	1.018442	0.196267
Cl75	Cl	0.606582	0.000098	-0.073108
Cl76	Cl	1.106582	0.500098	0.426892
