data_functionalizedCrystal
_audit_creation_method	'MofGen! by Chris Wilmer'
_symmetry_space_group_name_H-M	'P1'
_symmetry_Int_Tables_number	1
_symmetry_cell_setting	triclinic
loop_
_symmetry_equiv_pos_as_xyz
  x,y,z
_cell_length_a	15.297475
_cell_length_b	12.827892
_cell_length_c	12.827885
_cell_angle_alpha	90.029786
_cell_angle_beta	80.312761
_cell_angle_gamma	99.681360
loop_
_atom_site_label
_atom_site_type_symbol
_atom_site_fract_x
_atom_site_fract_y
_atom_site_fract_z
Zn1	Zn	1.379327	0.692884	-0.866944
Zn2	Zn	1.879327	1.192884	-0.366944
Zn3	Zn	1.379235	0.867643	-0.692186
Zn4	Zn	1.879235	1.367643	-0.192186
Zn5	Zn	1.228451	0.662646	-0.662018
Zn6	Zn	1.728451	1.162646	-0.162018
Zn7	Zn	1.228439	0.837293	-0.836702
Zn8	Zn	1.728439	1.337293	-0.336702
O9	O	1.303863	0.765116	-0.764462
O10	O	1.803863	1.265116	-0.264462
O11	O	1.505566	0.741422	-0.869045
O12	O	2.005566	1.241422	-0.369045
O13	O	1.359200	0.840497	-0.541941
O14	O	1.859200	1.340497	-0.041941
O15	O	1.248509	0.520430	-0.689232
O16	O	1.748509	1.020430	-0.189232
O17	O	1.505498	0.869817	-0.740651
O18	O	2.005498	1.369817	-0.240651
O19	O	1.359357	0.542645	-0.839791
O20	O	1.859357	1.042645	-0.339791
O21	O	1.248420	0.689887	-0.519777
O22	O	1.748420	1.189887	-0.019777
O23	O	1.102199	0.660457	-0.659908
O24	O	1.602199	1.160457	-0.159908
O25	O	1.248488	0.818089	-0.986956
O26	O	1.748488	1.318089	-0.486956
O27	O	1.102190	0.788769	-0.788247
O28	O	1.602190	1.288769	-0.288247
O29	O	1.359345	0.711993	-1.009175
O30	O	1.859345	1.211993	-0.509175
O31	O	1.359188	1.009844	-0.711326
O32	O	1.859188	1.509844	-0.211326
O33	O	1.248399	0.987546	-0.817501
O34	O	1.748399	1.487546	-0.317501
C35	C	1.069459	0.718039	-0.717523
C36	C	1.569459	1.218039	-0.217523
C37	C	0.969180	0.697925	-0.697466
C38	C	1.469180	1.197925	-0.197466
C39	C	1.303807	1.036615	-0.764433
C40	C	1.803807	1.536615	-0.264433
C41	C	1.303865	1.152780	-0.764471
C42	C	1.803865	1.652780	-0.264471
C43	C	1.303925	0.765029	-1.037045
C44	C	1.803925	1.265029	-0.537045
C45	C	1.303952	0.764991	-1.153204
C46	C	1.803952	1.264991	-0.653204
C47	C	0.686591	0.908886	-0.907810
C48	C	1.186591	1.408886	-0.407810
C49	C	0.780808	0.927792	-0.926651
C50	C	1.280808	1.427792	-0.426651
C51	C	0.827906	0.870327	-0.869357
C52	C	1.327906	1.370327	-0.369357
C53	C	0.780777	0.793952	-0.793218
C54	C	1.280777	1.293952	-0.293218
C55	C	0.686550	0.775050	-0.774369
C56	C	1.186550	1.275050	-0.274369
C57	C	0.827865	0.736491	-0.735916
C58	C	1.327865	1.236491	-0.235916
C59	C	0.780736	0.660116	-0.659777
C60	C	1.280736	1.160116	-0.159777
C61	C	0.686519	0.641217	-0.640932
C62	C	1.186519	1.141217	-0.140932
C63	C	0.639421	0.698682	-0.698226
C64	C	1.139421	1.198682	-0.198226
C65	C	0.922092	0.755393	-0.754765
C66	C	1.422092	1.255393	-0.254765
C67	C	0.922051	0.621557	-0.621323
C68	C	1.422051	1.121557	-0.121323
C69	C	0.827834	0.602651	-0.602483
C70	C	1.327834	1.102651	-0.102483
C71	C	1.539183	0.812378	-0.811586
C72	C	2.039183	1.312378	-0.311586
C73	C	1.639462	0.832518	-0.831668
C74	C	2.139462	1.332518	-0.331668
C75	C	1.303944	0.492563	-0.764520
C76	C	1.803944	0.992563	-0.264520
C77	C	1.303979	0.376416	-0.764545
C78	C	1.803979	0.876416	-0.264545
C79	C	1.358752	1.215577	-0.712016
C80	C	1.858752	1.715577	-0.212016
C81	C	1.358814	1.335639	-0.712055
C82	C	1.858814	1.835639	-0.212055
C83	C	1.249152	0.690456	-1.194024
C84	C	1.749152	1.190456	-0.694024
C85	C	1.249178	0.690415	-1.314080
C86	C	1.749178	1.190415	-0.814080
C87	C	1.303853	0.765139	-0.492951
C88	C	1.803853	1.265139	0.007049
C89	C	1.304001	0.764917	-0.376828
C90	C	1.804001	1.264917	0.123172
H91	H	0.960455	0.817578	-0.816758
H92	H	1.460455	1.317578	-0.316758
H93	H	1.256982	1.322461	-0.809451
H94	H	1.756982	1.822461	-0.309451
H95	H	1.405802	1.389601	-0.667143
H96	H	1.905802	1.889601	-0.167143
C97	C	0.535776	0.677873	-0.677521
C98	C	1.035776	1.177873	-0.177521
N99	N	0.457709	0.662197	-0.661933
N100	N	0.957709	1.162197	-0.161933
H101	H	0.819174	0.989978	-0.988642
H102	H	1.319174	1.489978	-0.488642
H103	H	1.405702	1.180457	-0.667083
H104	H	1.905702	1.680457	-0.167083
H105	H	1.350924	0.828730	-1.341689
H106	H	1.850924	1.328730	-0.841689
H107	H	0.960397	0.574766	-0.574668
H108	H	1.460397	1.074766	-0.074668
H109	H	0.904622	0.885724	-0.884702
H110	H	1.404622	1.385724	-0.384702
H111	H	1.256924	1.187904	-0.809414
H112	H	1.756924	1.687904	-0.309414
H113	H	0.789448	0.540466	-0.540489
H114	H	1.289448	1.040466	-0.040489
C115	C	1.367284	0.851237	-1.226044
C116	C	1.867284	1.351237	-0.726044
N117	N	1.414961	0.916226	-1.280901
N118	N	1.914961	1.416226	-0.780901
H119	H	0.648235	0.955672	-0.954445
H120	H	1.148235	1.455672	-0.454445
H121	H	1.202265	0.626599	-1.349227
H122	H	1.702265	1.126599	-0.849227
C123	C	0.634680	0.557204	-0.557175
C124	C	1.134680	1.057204	-0.057175
N125	N	0.595636	0.493923	-0.494091
N126	N	1.095636	0.993923	0.005909
H127	H	1.202213	0.626676	-1.140091
H128	H	1.702213	1.126676	-0.640091
