data_functionalizedCrystal
_audit_creation_method	'MofGen! by Chris Wilmer'
_symmetry_space_group_name_H-M	'P1'
_symmetry_Int_Tables_number	1
_symmetry_cell_setting	triclinic
loop_
_symmetry_equiv_pos_as_xyz
  x,y,z
_cell_length_a	16.704494
_cell_length_b	23.096457
_cell_length_c	16.704494
_cell_angle_alpha	89.998889
_cell_angle_beta	60.174809
_cell_angle_gamma	63.426309
loop_
_atom_site_label
_atom_site_type_symbol
_atom_site_fract_x
_atom_site_fract_y
_atom_site_fract_z
Zr1	Zr	0.863911	0.595134	-0.142488
O2	O	1.018036	0.513214	-0.271916
O3	O	0.701128	0.615747	-0.097156
O4	O	0.851427	0.627513	-0.263768
O5	O	0.880603	0.497286	0.019689
O6	O	0.851429	0.722794	-0.263772
O7	O	0.867737	0.501448	-0.105305
O8	O	0.582571	0.701747	0.034265
O9	O	1.149462	0.518333	-0.278349
O10	O	0.771291	0.701082	-0.084658
O11	O	0.780892	0.626869	0.008627
O12	O	0.957851	0.640722	-0.187537
O13	O	0.967452	0.566509	-0.094252
Zr14	Zr	0.884435	0.740458	0.056855
Zr15	Zr	0.863914	0.747096	-0.142495
Zr16	Zr	0.884432	0.588496	0.056863
Zr17	Zr	1.073520	0.603299	-0.152747
Zr18	Zr	0.674826	0.732294	0.067114
O19	O	1.047219	0.719845	0.011524
O20	O	1.018040	0.729283	-0.271927
O21	O	1.047215	0.503775	0.011534
O22	O	0.730310	0.822379	0.186284
O23	O	0.701132	0.831817	-0.097167
O24	O	0.730306	0.606309	0.186294
O25	O	0.867743	0.838307	-0.105321
O26	O	0.896919	0.708079	0.178135
O27	O	0.896917	0.612799	0.178140
O28	O	0.880610	0.834145	0.019672
O29	O	1.149464	0.639122	-0.278355
O30	O	0.598882	0.696470	0.192722
O31	O	0.598884	0.817260	0.192716
O32	O	0.582573	0.822536	0.034259
O33	O	1.165774	0.513057	-0.119892
O34	O	1.165776	0.633846	-0.119898
O35	O	0.790496	0.694870	0.101904
O36	O	0.780895	0.769083	0.008620
O37	O	0.967454	0.708723	-0.094259
O38	O	0.977055	0.634510	-0.000974
C39	C	0.611984	0.657584	-0.029984
C40	C	0.523000	0.654118	-0.025628
C41	C	0.345750	0.725099	-0.114828
C42	C	0.262140	0.721845	-0.110738
C43	C	0.272166	0.644358	-0.013354
C44	C	0.355775	0.647613	-0.017444
C45	C	0.392565	0.687984	-0.068184
C46	C	0.476181	0.691234	-0.072279
C47	C	0.486199	0.613752	0.025111
C48	C	0.402590	0.610497	0.029200
C49	C	0.874170	0.477715	-0.042807
C50	C	0.874169	0.413204	-0.042804
C51	C	0.776789	0.414406	0.010889
C52	C	0.776787	0.353790	0.010893
C53	C	0.874170	0.291974	-0.042814
C54	C	0.971563	0.290775	-0.096510
C55	C	0.971563	0.351390	-0.096504
N56	N	0.942231	0.174785	-0.125794
N57	N	0.942225	0.117206	-0.125796
C58	C	0.874179	0.109342	-0.042831
N59	N	0.806121	0.161238	0.040137
N60	N	0.806124	0.218824	0.040138
C61	C	0.874182	0.226243	-0.042825
C62	C	0.776791	0.044820	0.010871
C63	C	0.776794	-0.015799	0.010877
C64	C	0.971572	-0.078814	-0.096534
C65	C	0.971567	-0.018196	-0.096532
C66	C	0.874173	0.043618	-0.042831
C67	C	1.136362	0.678009	-0.055649
C68	C	1.225346	0.681475	-0.060004
C69	C	0.848505	0.676099	-0.292173
C70	C	0.839793	0.678917	-0.376803
C71	C	0.874177	0.857877	-0.042826
C72	C	0.874178	0.922389	-0.042829
C73	C	1.018208	0.621202	-0.643247
C74	C	1.010028	0.623848	-0.722767
C75	C	0.815253	0.686860	-0.615364
C76	C	0.823433	0.684214	-0.535844
C77	C	0.924914	0.651383	-0.549791
C78	C	0.933094	0.648733	-0.470269
C79	C	0.738320	0.711748	-0.362868
C80	C	0.730139	0.714394	-0.442388
C81	C	0.899842	0.659493	0.206541
C82	C	0.908554	0.656675	0.291170
C83	C	0.611988	0.847665	-0.029993
C84	C	0.523005	0.908710	-0.025641
C85	C	0.637653	0.649281	0.219373
C86	C	0.557380	0.642997	0.308358
C87	C	0.637656	0.839361	0.219364
C88	C	0.557385	0.897589	0.308345
C89	C	1.110690	0.496231	-0.304996
C90	C	1.190961	0.438003	-0.393978
C91	C	1.136359	0.487928	-0.055640
C92	C	1.225342	0.426882	-0.059992
C93	C	1.110693	0.686312	-0.305006
C94	C	1.190966	0.692596	-0.393991
C95	C	0.476203	0.901882	-0.072296
C96	C	0.392604	0.959237	-0.068225
C97	C	0.355802	1.023417	-0.017495
C98	C	0.402612	1.030244	0.029161
C99	C	0.486215	0.972891	0.025085
C100	C	0.524697	0.675541	0.398845
C101	C	0.449285	0.669634	0.482462
C102	C	0.406551	0.631186	0.475591
C103	C	0.439242	0.598638	0.385095
C104	C	0.514658	0.604541	0.301479
C105	C	0.514677	0.963678	0.301438
C106	C	0.439264	1.018396	0.385038
C107	C	0.406555	1.007023	0.475544
C108	C	0.449271	0.940927	0.482448
C109	C	0.524688	0.886211	0.398850
C110	C	1.233680	0.371915	-0.387071
C111	C	1.309118	0.317198	-0.470672
C112	C	1.341832	0.328571	-0.561178
C113	C	1.299110	0.394667	-0.568083
C114	C	1.223679	0.449382	-0.484483
C115	C	1.272151	0.433711	-0.013346
C116	C	1.355771	0.376358	-0.017439
C117	C	1.392576	0.312177	-0.068173
C118	C	1.345763	0.305351	-0.114825
C119	C	1.262149	0.362703	-0.110737
C120	C	1.233676	0.731049	-0.387089
C121	C	1.309091	0.736966	-0.470691
C122	C	1.341799	0.704427	-0.561195
C123	C	1.299081	0.665972	-0.568094
C124	C	1.223662	0.660059	-0.484493
H125	H	0.375711	0.757966	-0.156150
Br126	Br	1.367054	0.789154	-0.461305
Br127	Br	0.198602	0.772221	-0.174039
H128	H	1.207049	0.362641	-0.313384
H129	H	0.422628	0.931676	0.556149
H130	H	0.697489	0.095151	0.054617
Br131	Br	0.404935	0.713813	0.605265
H132	H	0.345143	0.626385	0.543684
H133	H	0.404491	1.072209	0.379399
Br134	Br	1.367080	0.227505	-0.461279
Br135	Br	0.559000	0.560371	0.178680
H136	H	1.188897	0.503194	-0.490118
Br137	Br	1.343492	0.621809	-0.690929
Br138	Br	0.242338	1.101248	-0.011972
H139	H	1.242192	0.485964	0.027973
Br140	Br	1.155927	0.576646	-0.662167
Br141	Br	0.582671	0.727728	0.408196
H142	H	1.403211	0.709247	-0.629261
Br143	Br	1.070816	0.604177	-0.489195
Br144	Br	0.222181	0.589603	0.055546
Br145	Br	0.549716	0.982169	0.088415
Br146	Br	0.352651	1.117352	0.098010
Br147	Br	0.559056	0.979132	0.178620
Br148	Br	1.165716	0.607862	-0.493877
Br149	Br	1.419284	0.385639	0.045882
Br150	Br	0.352639	0.555721	0.098074
H151	H	1.050853	0.240440	-0.140237
H152	H	0.559452	0.832399	0.404487
H153	H	1.403254	0.284013	-0.629243
Br154	Br	0.304201	1.081288	0.588991
Br155	Br	1.343516	0.410091	-0.690920
Br156	Br	0.644625	-0.014165	0.083768
Br157	Br	0.526114	0.746020	-0.141143
H158	H	1.050863	-0.129145	-0.140264
H159	H	1.460660	0.265483	-0.071494
Br160	Br	1.395721	0.218243	-0.183671
H161	H	1.224039	0.357133	-0.148719
Br162	Br	1.189304	0.775217	-0.264273
H163	H	1.050864	0.350406	-0.140225
H164	H	0.697482	0.464734	0.054610
H165	H	0.524329	0.583527	0.063088
H166	H	1.085997	0.599272	-0.798861
Br167	Br	0.644619	0.355415	0.083764
Br168	Br	1.103733	-0.019826	-0.169408
H169	H	0.404437	0.567334	0.379515
Br170	Br	0.592422	0.758949	-0.423471
Br171	Br	0.677540	0.731416	-0.596457
Br172	Br	0.611698	0.752703	-0.236026
Br173	Br	0.329091	0.949956	-0.131547
Br174	Br	0.526132	0.814787	-0.141155
