data_functionalizedCrystal
_audit_creation_method	'MofGen! by Chris Wilmer'
_symmetry_space_group_name_H-M	'P1'
_symmetry_Int_Tables_number	1
_symmetry_cell_setting	triclinic
loop_
_symmetry_equiv_pos_as_xyz
  x,y,z
_cell_length_a	6.817900
_cell_length_b	10.943925
_cell_length_c	10.943624
_cell_angle_alpha	91.772910
_cell_angle_beta	108.838799
_cell_angle_gamma	108.844289
loop_
_atom_site_label
_atom_site_type_symbol
_atom_site_fract_x
_atom_site_fract_y
_atom_site_fract_z
V1	V	-4.115532	-0.178599	-0.402534
O2	O	-4.073202	0.008617	-0.394889
O3	O	-4.093518	-0.354165	-0.399763
O4	O	-4.093494	-0.175837	-0.578100
O5	O	-4.073227	-0.170946	-0.215317
V6	V	-4.592325	-0.156208	-0.380143
O7	O	-4.391553	-0.227716	-0.451649
O8	O	-4.766501	-0.107090	-0.331028
O9	O	-4.391132	0.019359	-0.382914
O10	O	-4.752051	-0.343424	-0.387788
O11	O	-4.752026	-0.163861	-0.567359
O12	O	-4.391156	-0.158970	-0.204576
C13	C	-3.944085	-0.396965	-0.393408
C14	C	-4.007548	-0.540493	-0.392314
C15	C	-4.274915	-0.717225	-0.397745
C16	C	-4.085582	-0.611235	-0.288089
C17	C	-4.196062	-0.644571	-0.501935
C18	C	-3.931139	-0.690208	-0.280609
C19	C	-4.041699	-0.723567	-0.494552
C20	C	-3.852230	-0.617606	-0.384865
C21	C	-3.944052	-0.169487	-0.620894
C22	C	-4.007492	-0.168390	-0.764420
C23	C	-3.852320	-0.161003	-0.841568
C24	C	-4.041701	-0.270649	-0.947548
C25	C	-3.931176	-0.056802	-0.914182
C26	C	-4.196083	-0.278139	-0.868523
C27	C	-4.085478	-0.064195	-0.835134
C28	C	-4.274995	-0.173872	-0.941083
C29	C	-4.203907	0.062152	-0.389265
C30	C	-4.119684	0.205678	-0.390368
C31	C	-4.203939	-0.165324	-0.161776
C32	C	-4.119737	-0.166414	-0.018248
H33	H	-4.103473	-0.562326	-0.200807
H34	H	-3.819723	-0.710753	-0.186971
N35	N	-4.512511	-0.181109	-0.998386
H36	H	-4.518335	-0.100753	-1.040205
H37	H	-4.577015	-0.185946	-0.926798
N38	N	-3.614728	-0.560349	-0.377678
H39	H	-3.514471	-0.576597	-0.294110
H40	H	-3.573385	-0.463243	-0.379293
H41	H	-3.673119	-0.155709	-0.798120
N42	N	-4.018089	-0.386267	-1.012379
H43	H	-3.858990	-0.381350	-0.975990
H44	H	-4.062940	-0.385068	-1.109648
N45	N	-4.109019	0.051416	-0.770257
H46	H	-4.008271	0.134949	-0.786252
H47	H	-4.067094	0.049183	-0.673224
N48	N	-4.343667	-0.402183	-0.841314
H49	H	-4.299560	-0.402196	-0.743891
H50	H	-4.327406	-0.480023	-0.883421
N51	N	-4.018114	-0.788395	-0.610177
H52	H	-4.166062	-0.854982	-0.665779
H53	H	-3.906752	-0.833269	-0.578197
N54	N	-4.343637	-0.617090	-0.625800
H55	H	-4.454727	-0.702235	-0.680924
H56	H	-4.250420	-0.568367	-0.676312
N57	N	-4.512295	-0.774844	-0.404779
H58	H	-4.529102	-0.733587	-0.326689
H59	H	-4.554042	-0.872196	-0.404858
N60	N	-3.783665	0.067109	-0.941646
H61	H	-3.624658	0.071849	-0.905277
H62	H	-3.798824	0.145073	-0.898995
