data_functionalizedCrystal
_audit_creation_method	'MofGen! by Chris Wilmer'
_symmetry_space_group_name_H-M	'P1'
_symmetry_Int_Tables_number	1
_symmetry_cell_setting	triclinic
loop_
_symmetry_equiv_pos_as_xyz
  x,y,z
_cell_length_a	10.967862
_cell_length_b	10.967954
_cell_length_c	10.065875
_cell_angle_alpha	93.077153
_cell_angle_beta	110.772341
_cell_angle_gamma	82.168187
loop_
_atom_site_label
_atom_site_type_symbol
_atom_site_fract_x
_atom_site_fract_y
_atom_site_fract_z
O1	O	-1.744048	-0.087848	-0.544373
O2	O	-1.367896	-0.117644	-0.462906
O3	O	-1.557848	0.072303	-0.462910
O4	O	-1.554096	-0.277795	-0.544368
O5	O	-1.521633	0.035941	-0.235956
O6	O	-1.331681	-0.154006	-0.235951
O7	O	-1.707833	-0.124210	-0.317418
Zn8	Zn	-1.514007	-0.144881	-0.240650
Zn9	Zn	-1.561722	-0.096973	-0.539673
O10	O	-1.517881	-0.314157	-0.317413
C11	C	-1.301498	-0.136403	-0.338206
C12	C	-1.157607	-0.138110	-0.304763
C13	C	-1.536731	0.098824	-0.338215
C14	C	-1.527747	0.232021	-0.304783
C15	C	-0.963508	-0.121807	-0.372887
C16	C	-1.112226	-0.120035	-0.407442
C17	C	-0.774231	-0.105449	-0.442115
C18	C	-0.918122	-0.103735	-0.475551
C19	C	-1.533223	0.447906	-0.372896
C20	C	-1.542505	0.310241	-0.407457
C21	C	-1.538997	0.659323	-0.442113
C22	C	-1.547979	0.526127	-0.475555
N23	N	-1.481453	-0.177576	-0.036577
N24	N	-1.594286	-0.064269	-0.743746
C25	C	-1.550386	-0.108341	0.031271
C26	C	-1.525342	-0.133513	0.188409
H27	H	-0.892264	-0.138597	-0.259413
O28	O	-1.501907	0.278297	-0.154457
H29	H	-1.492501	0.200054	-0.084515
O30	O	-1.507381	0.494191	-0.222577
H31	H	-1.497974	0.415949	-0.152632
O32	O	-1.012483	-0.081505	-0.625867
H33	H	-0.956614	-0.068545	-0.695817
H34	H	-1.403891	-0.255481	0.021670
H35	H	-1.183465	-0.103258	-0.520927
H36	H	-1.086368	-0.154902	-0.191281
O37	O	-1.568344	0.263973	-0.557786
H38	H	-1.571588	0.163108	-0.561345
H39	H	-1.447775	-0.211423	0.246651
H40	H	-1.671843	0.013650	0.198016
O41	O	-1.653101	-0.005128	-0.045882
H42	H	-1.750547	-0.021674	-0.045385
O43	O	-1.573816	0.479853	-0.625876
H44	H	-1.577060	0.378988	-0.629435
