data_functionalizedCrystal
_audit_creation_method	'MofGen! by Chris Wilmer'
_symmetry_space_group_name_H-M	'P1'
_symmetry_Int_Tables_number	1
_symmetry_cell_setting	triclinic
loop_
_symmetry_equiv_pos_as_xyz
  x,y,z
_cell_length_a	16.959455
_cell_length_b	16.959454
_cell_length_c	16.959447
_cell_angle_alpha	89.973264
_cell_angle_beta	89.979626
_cell_angle_gamma	90.017095
loop_
_atom_site_label
_atom_site_type_symbol
_atom_site_fract_x
_atom_site_fract_y
_atom_site_fract_z
Zn1	Zn	1.208384	-0.314729	-0.447056
Zn2	Zn	1.208306	-0.446921	-0.314886
Zn3	Zn	1.076212	-0.314754	-0.314880
Zn4	Zn	1.076177	-0.446862	-0.447010
O5	O	1.142270	-0.380816	-0.380958
O6	O	1.318984	-0.332279	-0.429545
O7	O	1.190766	-0.429424	-0.204274
O8	O	1.093792	-0.204140	-0.332430
O9	O	1.318927	-0.429400	-0.332440
O10	O	1.190898	-0.204121	-0.429539
O11	O	1.093717	-0.332321	-0.204269
O12	O	0.965597	-0.332264	-0.332385
O13	O	1.093732	-0.429299	-0.557627
O14	O	0.965571	-0.429324	-0.429461
O15	O	1.190864	-0.332221	-0.557661
O16	O	1.190732	-0.557524	-0.332396
O17	O	1.093657	-0.557481	-0.429467
C18	C	0.936904	-0.380791	-0.380918
C19	C	0.849047	-0.380799	-0.380920
C20	C	0.477531	-0.431337	-0.330370
C21	C	0.477612	-0.330361	-0.431642
C22	C	0.560158	-0.330348	-0.431623
C23	C	0.601394	-0.380831	-0.380977
C24	C	0.560085	-0.431328	-0.330350
C25	C	0.601473	-0.279859	-0.482255
C26	C	0.684024	-0.279844	-0.482238
C27	C	0.725262	-0.330324	-0.431588
C28	C	0.683948	-0.380822	-0.380958
C29	C	0.725184	-0.431305	-0.330312
C30	C	0.683871	-0.481799	-0.279678
C31	C	0.601323	-0.481807	-0.279700
C32	C	0.807811	-0.330315	-0.431566
C33	C	0.807738	-0.431295	-0.330293
C34	C	1.142204	-0.586183	-0.380944
C35	C	1.142248	-0.674039	-0.380965
C36	C	1.091796	-1.045522	-0.431498
C37	C	1.192964	-1.045507	-0.330499
C38	C	1.192936	-0.962962	-0.330491
C39	C	1.142337	-0.921692	-0.380987
C40	C	1.091765	-0.962969	-0.431490
C41	C	1.243501	-0.921679	-0.279984
C42	C	1.243475	-0.839128	-0.279974
C43	C	1.192879	-0.797857	-0.330474
C44	C	1.142306	-0.839139	-0.380980
C45	C	1.091707	-0.797869	-0.431476
C46	C	1.041138	-0.839150	-0.481986
C47	C	1.041170	-0.921698	-0.481991
C48	C	1.192847	-0.715309	-0.330469
C49	C	1.091676	-0.715316	-0.431468
C50	C	1.348438	-0.380843	-0.380998
C51	C	1.436295	-0.380854	-0.381016
C52	C	1.142303	-0.380751	-0.587126
C53	C	1.142317	-0.380723	-0.674983
C54	C	1.142358	-0.174648	-0.380989
C55	C	1.142395	-0.086792	-0.381002
C56	C	1.091839	-0.431184	-1.046444
C57	C	1.192983	-0.330096	-1.046474
C58	C	1.192962	-0.330113	-0.963928
C59	C	1.142380	-0.380667	-0.922636
C60	C	1.091818	-0.431204	-0.963890
C61	C	1.243529	-0.279582	-0.922667
C62	C	1.243510	-0.279597	-0.840116
C63	C	1.192923	-0.330148	-0.798823
C64	C	1.142359	-0.380686	-0.840082
C65	C	1.091776	-0.431240	-0.798791
C66	C	1.041207	-0.481776	-0.840048
C67	C	1.041231	-0.481754	-0.922597
C68	C	1.192899	-0.330169	-0.716275
C69	C	1.091755	-0.431260	-0.716237
C70	C	1.142283	-0.380825	-0.175592
C71	C	1.142422	-0.380630	-0.087736
H72	H	0.841444	-0.289205	-0.472793
C73	C	0.986251	-0.794437	-0.536938
C74	C	1.003410	-0.814466	-0.615165
C75	C	0.952862	-0.773296	-0.665806
H76	H	0.993428	-0.739351	-0.529800
H77	H	0.933140	-0.808022	-0.525372
H78	H	1.056509	-0.800876	-0.626727
H79	H	0.996228	-0.869545	-0.622327
H80	H	0.899750	-0.786881	-0.654240
H81	H	0.960043	-0.718213	-0.658662
H82	H	0.964492	-0.786886	-0.718888
C83	C	1.298487	-0.224850	-0.795276
C84	C	1.349133	-0.269607	-0.747879
C85	C	1.399786	-0.219196	-0.706564
H86	H	1.268331	-0.190405	-0.763023
H87	H	1.328661	-0.194746	-0.831660
H88	H	1.318962	-0.299697	-0.711500
H89	H	1.379307	-0.304050	-0.780112
H90	H	1.429960	-0.189091	-0.742948
H91	H	1.369623	-0.184753	-0.674316
H92	H	1.434159	-0.249556	-0.674406
C93	C	1.036807	-0.485953	-1.091190
C94	C	0.958604	-0.468722	-1.071115
C95	C	0.907886	-0.519152	-1.112328
H96	H	1.048245	-0.539094	-1.077685
H97	H	1.044005	-0.478696	-1.146275
H98	H	0.951409	-0.475986	-1.016042
H99	H	0.947141	-0.415590	-1.084622
H100	H	0.915085	-0.511895	-1.167413
H101	H	0.919331	-0.572291	-1.098819
H102	H	0.854819	-0.507464	-1.098718
H103	H	1.234170	-0.288941	-1.080098
C104	C	1.036865	-0.486064	-0.671266
C105	C	1.047655	-0.475257	-0.590142
C106	C	0.997098	-0.525720	-0.548691
H107	H	1.048361	-0.539203	-0.684692
H108	H	0.983747	-0.474475	-0.684744
H109	H	1.100761	-0.486851	-0.576670
H110	H	1.036154	-0.422128	-0.576693
H111	H	0.943980	-0.514131	-0.562169
H112	H	1.008598	-0.578855	-0.562123
H113	H	1.004407	-0.518389	-0.493645
H114	H	1.234074	-0.289026	-0.682686
H115	H	0.567892	-0.238763	-0.523493
C116	C	0.728545	-0.536566	-0.224566
C117	C	0.708419	-0.519275	-0.146391
C118	C	0.749551	-0.569716	-0.095604
H119	H	0.783636	-0.529379	-0.231705
H120	H	0.714995	-0.589703	-0.235999
H121	H	0.721974	-0.466150	-0.134963
H122	H	0.653335	-0.526466	-0.139228
H123	H	0.736001	-0.622853	-0.107037
H124	H	0.804640	-0.562525	-0.102750
H125	H	0.735896	-0.557996	-0.042558
C126	C	1.247657	-0.670348	-0.275666
C127	C	1.236790	-0.589222	-0.286455
C128	C	1.287264	-0.547781	-0.235974
H129	H	1.300796	-0.683741	-0.287234
H130	H	1.236116	-0.683866	-0.222530
H131	H	1.248337	-0.575709	-0.339578
H132	H	1.183662	-0.575806	-0.274881
H133	H	1.275723	-0.561299	-0.182838
H134	H	1.340400	-0.561180	-0.247546
H135	H	1.279893	-0.492733	-0.243282
H136	H	0.567678	-0.522917	-0.238476
H137	H	0.717654	-0.238728	-0.523467
H138	H	1.000027	-0.522940	-0.806418
H139	H	1.050475	-0.681719	-0.472591
C140	C	0.986384	-0.536749	-0.967293
C141	C	1.003543	-0.614962	-0.947181
C142	C	0.953031	-0.665645	-0.988335
H143	H	0.993596	-0.529605	-1.022380
H144	H	0.933261	-0.525227	-0.953750
H145	H	1.056653	-0.626480	-0.960729
H146	H	0.996326	-0.622132	-0.892101
H147	H	0.899908	-0.654122	-0.974793
H148	H	0.960247	-0.658493	-1.043421
H149	H	0.964662	-0.718717	-0.974690
C150	C	0.986293	-0.966659	-0.536733
C151	C	0.997133	-1.047784	-0.525911
C152	C	0.946586	-1.089230	-0.576315
H153	H	0.997767	-0.953195	-0.589887
H154	H	0.933171	-0.953216	-0.525099
H155	H	1.050243	-1.061222	-0.537550
H156	H	0.985654	-1.061272	-0.472768
H157	H	0.893464	-1.075786	-0.564681
H158	H	0.958064	-1.075759	-0.629465
H159	H	0.953929	-1.144277	-0.568974
C160	C	0.432825	-0.486191	-0.275314
C161	C	0.486610	-0.530385	-0.230947
C162	C	0.445456	-0.580917	-0.180214
H163	H	0.400629	-0.520741	-0.305409
H164	H	0.400627	-0.455934	-0.240887
H165	H	0.518795	-0.560639	-0.265369
H166	H	0.518808	-0.495855	-0.200835
H167	H	0.413258	-0.550660	-0.145787
H168	H	0.413262	-0.615462	-0.210316
H169	H	0.481942	-0.610903	-0.150100
C170	C	1.298463	-0.966342	-0.225076
C171	C	1.342726	-0.912525	-0.180826
C172	C	1.393360	-0.953644	-0.130228
H173	H	1.332966	-0.998505	-0.255264
H174	H	1.268277	-0.998570	-0.190569
H175	H	1.372910	-0.880311	-0.215328
H176	H	1.308244	-0.880361	-0.150622
H177	H	1.363174	-0.985871	-0.095721
H178	H	1.427858	-0.985805	-0.160422
H179	H	1.423393	-0.917136	-0.100193
C180	C	1.298366	-0.224736	-0.967640
C181	C	1.287545	-0.235522	-1.048763
C182	C	1.338044	-0.185005	-1.090219
H183	H	1.351497	-0.236273	-0.954210
H184	H	1.286819	-0.171609	-0.954171
H185	H	1.299097	-0.288637	-1.062226
H186	H	1.234425	-0.223980	-1.062215
H187	H	1.326497	-0.131878	-1.076750
H188	H	1.391172	-0.196546	-1.076783
H189	H	1.330704	-0.192311	-1.145265
C190	C	0.432741	-0.275683	-0.486673
C191	C	0.385358	-0.320508	-0.537257
C192	C	0.344000	-0.270163	-0.587955
H193	H	0.469074	-0.245589	-0.516897
H194	H	0.400479	-0.241226	-0.456521
H195	H	0.417618	-0.354951	-0.567405
H196	H	0.349010	-0.350601	-0.507055
H197	H	0.311738	-0.235705	-0.557804
H198	H	0.380340	-0.240070	-0.618174
H199	H	0.311841	-0.300568	-0.622278
C200	C	0.852465	-0.486240	-0.275403
C201	C	0.832391	-0.564470	-0.292497
C202	C	0.873585	-0.615108	-0.241957
H203	H	0.838944	-0.474712	-0.222288
H204	H	0.907552	-0.479060	-0.282650
H205	H	0.777316	-0.571647	-0.285244
H206	H	0.845914	-0.576023	-0.345603
H207	H	0.928673	-0.607927	-0.249204
H208	H	0.860061	-0.603573	-0.188845
H209	H	0.859977	-0.668193	-0.253553
H210	H	1.050626	-1.079136	-0.472624
C211	C	1.247832	-1.090454	-0.275728
C212	C	1.237031	-1.171582	-0.286540
C213	C	1.287557	-1.213014	-0.236090
H214	H	1.236313	-1.077038	-0.222586
H215	H	1.300957	-1.076950	-0.287325
H216	H	1.183917	-1.185080	-0.274937
H217	H	1.248555	-1.185021	-0.339672
H218	H	1.340682	-1.199510	-0.247687
H219	H	1.276034	-1.199592	-0.182951
H220	H	1.280240	-1.268063	-0.243424
H221	H	1.284651	-0.805523	-0.238847
