data_functionalizedCrystal
_audit_creation_method	'MofGen! by Chris Wilmer'
_symmetry_space_group_name_H-M	'P1'
_symmetry_Int_Tables_number	1
_symmetry_cell_setting	triclinic
loop_
_symmetry_equiv_pos_as_xyz
  x,y,z
_cell_length_a	9.065215
_cell_length_b	10.723023
_cell_length_c	7.540329
_cell_angle_alpha	89.997411
_cell_angle_beta	89.997574
_cell_angle_gamma	84.741123
loop_
_atom_site_label
_atom_site_type_symbol
_atom_site_fract_x
_atom_site_fract_y
_atom_site_fract_z
O1	O	1.959361	0.182967	-0.147458
O2	O	1.529991	0.197980	-0.147465
O3	O	1.754581	0.008937	-0.147454
O4	O	1.734771	0.372010	-0.147469
O5	O	1.754567	0.008935	0.147511
O6	O	1.529977	0.197977	0.147500
O7	O	1.959348	0.182964	0.147507
Cu8	Cu	1.744661	0.190471	0.174436
Cu9	Cu	1.744677	0.190474	-0.174394
O10	O	1.734758	0.372007	0.147496
C11	C	1.475005	0.196537	0.000016
C12	C	1.311187	0.192225	0.000013
C13	C	1.753133	-0.037569	0.000027
C14	C	1.748820	-0.176141	0.000021
C15	C	1.746905	-0.237913	-0.152782
C16	C	1.742448	-0.381135	-0.152792
C17	C	2.014333	0.184408	0.000022
C18	C	2.178152	0.188719	0.000013
C19	C	1.736206	0.418514	0.000012
C20	C	1.740518	0.557086	0.000006
N21	N	1.744661	0.190468	0.419785
N22	N	1.744689	0.190467	-0.419743
H23	H	1.748558	-0.184767	-0.283596
H24	H	1.740808	-0.434258	-0.283612
H25	H	1.742173	-0.389801	0.130833
O26	O	1.746628	-0.239643	0.155980
C27	C	1.616697	-0.302240	0.165471
H28	H	1.573580	-0.317384	0.025826
H29	H	1.528928	-0.243241	0.244898
C30	C	1.704529	-0.411255	0.428694
C31	C	1.651579	-0.429866	0.257179
H32	H	1.726042	-0.489979	0.485271
H33	H	1.792064	-0.369080	0.422305
H34	H	1.631380	-0.362086	0.494861
H35	H	1.724735	-0.479021	0.191009
H36	H	1.564057	-0.472053	0.263559
