data_functionalizedCrystal
_audit_creation_method	'MofGen! by Chris Wilmer'
_symmetry_space_group_name_H-M	'P1'
_symmetry_Int_Tables_number	1
_symmetry_cell_setting	triclinic
loop_
_symmetry_equiv_pos_as_xyz
  x,y,z
_cell_length_a	13.635800
_cell_length_b	11.163930
_cell_length_c	11.102107
_cell_angle_alpha	103.982069
_cell_angle_beta	71.397426
_cell_angle_gamma	109.523281
loop_
_atom_site_label
_atom_site_type_symbol
_atom_site_fract_x
_atom_site_fract_y
_atom_site_fract_z
V1	V	1.852344	0.175843	0.396251
O2	O	1.833228	-0.008445	0.388714
O3	O	1.844532	0.348662	0.393536
O4	O	1.750916	0.173140	0.569072
O5	O	1.927492	0.168292	0.211962
V6	V	2.102041	0.153799	0.374209
O7	O	1.965565	0.224196	0.444602
O8	O	2.213918	0.105446	0.325859
O9	O	1.998249	-0.019020	0.376925
O10	O	2.179855	0.338087	0.381747
O11	O	2.085591	0.161350	0.558498
O12	O	2.091865	0.156502	0.201388
V13	V	2.352344	0.175843	0.396251
O14	O	2.333228	-0.008445	0.388714
O15	O	2.344532	0.348662	0.393536
O16	O	2.250916	0.173140	0.569072
O17	O	2.427492	0.168292	0.211962
V18	V	2.602041	0.153799	0.374209
O19	O	2.465565	0.224196	0.444602
O20	O	2.713918	0.105446	0.325859
O21	O	2.498249	-0.019020	0.376925
O22	O	2.679855	0.338087	0.381747
O23	O	2.585591	0.161350	0.558498
O24	O	2.591865	0.156502	0.201388
C25	C	1.773518	0.390791	0.387283
C26	C	1.807260	0.532073	0.386215
C27	C	1.654102	0.166894	0.611196
C28	C	1.611924	0.165828	0.752478
C29	C	1.853237	0.580297	0.269329
C30	C	1.884951	0.713048	0.268331
C31	C	1.824699	0.749340	0.501114
C32	C	1.792994	0.616592	0.502111
C33	C	1.680839	0.171674	0.825327
C34	C	1.641201	0.170668	0.958075
C35	C	1.463731	0.157974	0.945115
C36	C	1.503367	0.158971	0.812368
C37	C	1.904421	0.938856	0.383166
C38	C	1.870678	0.797572	0.384219
C39	C	2.020354	0.162752	0.159258
C40	C	2.052151	0.163812	0.017974
C41	C	1.978472	0.170659	-0.041935
C42	C	2.008357	0.171662	-0.174685
C43	C	2.185606	0.158977	-0.187605
C44	C	2.155719	0.157964	-0.054859
C45	C	2.154102	0.166894	0.611196
C46	C	2.111924	0.165828	0.752478
C47	C	2.273518	0.390791	0.387283
C48	C	2.307260	0.532073	0.386215
C49	C	2.400936	-0.061142	0.383174
C50	C	2.356810	-0.202423	0.384250
C51	C	2.520354	0.162752	0.159258
C52	C	2.552151	0.163812	0.017974
C53	C	2.411911	0.604921	0.392053
C54	C	2.443607	0.737671	0.391060
C55	C	2.265990	0.724713	0.378383
C56	C	2.234294	0.591967	0.379386
H57	H	1.864855	0.511484	0.174959
C58	C	2.557254	0.816881	0.397175
C59	C	2.609055	0.876362	0.287135
C60	C	2.713748	0.949350	0.292729
H61	H	2.596296	0.762330	0.401321
H62	H	2.554088	0.880615	0.471465
H63	H	2.612227	0.812637	0.212865
H64	H	2.570045	0.930935	0.282968
H65	H	2.710582	1.013084	0.367018
H66	H	2.752780	0.894790	0.296877
H67	H	2.748905	0.989726	0.218075
H68	H	1.755558	0.577330	0.597300
H69	H	1.769230	0.177256	0.776569
C70	C	1.866113	0.177253	0.037245
C71	C	1.873961	0.286907	0.130949
C72	C	1.770475	0.293028	0.203896
H73	H	1.830211	0.102758	0.077805
H74	H	1.826496	0.181543	-0.017401
H75	H	1.913562	0.282607	0.185587
H76	H	1.909844	0.361421	0.090425
H77	H	1.730858	0.297317	0.149251
H78	H	1.734581	0.218528	0.244448
H79	H	1.775786	0.367433	0.267475
C80	C	2.120611	0.512837	0.373308
C81	C	2.068786	0.453404	0.483375
C82	C	1.964060	0.380514	0.477832
H83	H	2.123688	0.449075	0.299060
H84	H	2.081639	0.567483	0.369154
H85	H	2.107748	0.398763	0.487516
H86	H	2.065679	0.517136	0.557639
H87	H	1.925088	0.435159	0.473679
H88	H	1.967149	0.316759	0.403581
H89	H	1.928881	0.340189	0.552516
C90	C	1.809419	0.841267	0.626851
C91	C	1.909669	0.924667	0.639046
C92	C	1.895630	1.009375	0.754852
H93	H	1.777554	0.793700	0.696720
H94	H	1.763768	0.889743	0.627254
H95	H	1.955303	0.876196	0.638654
H96	H	1.941551	0.972263	0.569205
H97	H	1.849979	1.057852	0.755255
H98	H	1.863762	0.961798	0.824711
H99	H	1.963645	1.065980	0.763136
H100	H	2.471327	0.556160	0.397612
H101	H	1.447240	0.154200	0.753050
H102	H	2.206588	0.773494	0.372821
H103	H	2.269932	0.154217	-0.246921
H104	H	1.697322	0.175427	1.017383
C105	C	1.934797	0.765151	0.141288
C106	C	1.940477	0.662714	0.040011
C107	C	1.986378	0.710659	-0.077045
H108	H	2.005262	0.820291	0.139927
H109	H	1.891598	0.812007	0.131936
H110	H	1.983675	0.615878	0.049360
H111	H	1.870026	0.607565	0.041330
H112	H	1.943179	0.757516	-0.086397
H113	H	2.056840	0.765799	-0.078392
H114	H	1.990229	0.641163	-0.145776
C115	C	1.345861	0.150347	1.010283
C116	C	1.296914	0.039577	1.069023
C117	C	1.188336	0.032521	1.129081
H118	H	1.310354	0.146932	0.948013
H119	H	1.340920	0.224113	1.073471
H120	H	1.301847	-0.034171	1.005842
H121	H	1.332389	0.042966	1.131311
H122	H	1.183395	0.106287	1.192268
H123	H	1.152840	0.029110	1.066802
H124	H	1.155114	-0.042629	1.168952
H125	H	1.948356	0.177233	-0.223457
H126	H	2.215722	0.152385	-0.006081
