data_functionalizedCrystal
_audit_creation_method	'MofGen! by Chris Wilmer'
_symmetry_space_group_name_H-M	'P1'
_symmetry_Int_Tables_number	1
_symmetry_cell_setting	triclinic
loop_
_symmetry_equiv_pos_as_xyz
  x,y,z
_cell_length_a	19.121215
_cell_length_b	19.121063
_cell_length_c	19.121242
_cell_angle_alpha	94.950219
_cell_angle_beta	85.000193
_cell_angle_gamma	95.002544
loop_
_atom_site_label
_atom_site_type_symbol
_atom_site_fract_x
_atom_site_fract_y
_atom_site_fract_z
Zn1	Zn	1.082278	-0.252928	-0.454183
Zn2	Zn	1.332278	-0.002928	-0.204183
Zn3	Zn	1.582278	0.247072	0.045817
Zn4	Zn	1.832278	0.497072	0.295817
Zn5	Zn	1.072553	-0.365976	-0.341135
Zn6	Zn	1.322553	-0.115976	-0.091135
Zn7	Zn	1.572553	0.134024	0.158865
Zn8	Zn	1.822553	0.384024	0.408865
Zn9	Zn	0.959604	-0.252939	-0.331502
Zn10	Zn	1.209604	-0.002939	-0.081502
Zn11	Zn	1.459604	0.247061	0.168498
Zn12	Zn	1.709604	0.497061	0.418498
Zn13	Zn	0.959551	-0.375563	-0.454119
Zn14	Zn	1.209551	-0.125563	-0.204119
Zn15	Zn	1.459551	0.124437	0.045881
Zn16	Zn	1.709551	0.374437	0.295881
O17	O	1.018497	-0.311851	-0.395235
O18	O	1.268497	-0.061851	-0.145235
O19	O	1.518497	0.188149	0.104765
O20	O	1.768497	0.438149	0.354765
O21	O	1.179620	-0.263907	-0.443246
O22	O	1.429620	-0.013907	-0.193246
O23	O	1.679620	0.236093	0.056754
O24	O	1.929620	0.486093	0.306754
O25	O	1.053523	-0.346974	-0.241230
O26	O	1.303523	-0.096974	0.008770
O27	O	1.553523	0.153026	0.258770
O28	O	1.803523	0.403026	0.508770
O29	O	0.979969	-0.154308	-0.343772
O30	O	1.229969	0.095692	-0.093772
O31	O	1.479969	0.345692	0.156228
O32	O	1.729969	0.595692	0.406228
O33	O	1.172475	-0.346962	-0.360190
O34	O	1.422475	-0.096962	-0.110190
O35	O	1.672475	0.153038	0.139810
O36	O	1.922475	0.403038	0.389810
O37	O	1.070097	-0.154300	-0.433905
O38	O	1.320097	0.095700	-0.183905
O39	O	1.570097	0.345700	0.066095
O40	O	1.820097	0.595700	0.316095
O41	O	0.970540	-0.263926	-0.234153
O42	O	1.220540	-0.013926	0.015847
O43	O	1.470540	0.236074	0.265847
O44	O	1.720540	0.486074	0.515847
O45	O	0.860966	-0.273223	-0.343709
O46	O	1.110966	-0.023223	-0.093709
O47	O	1.360966	0.226777	0.156291
O48	O	1.610966	0.476777	0.406291
O49	O	0.979878	-0.363303	-0.552754
O50	O	1.229878	-0.113303	-0.302754
O51	O	1.479878	0.136697	-0.052754
O52	O	1.729878	0.386697	0.197246
O53	O	0.860926	-0.363314	-0.433795
O54	O	1.110926	-0.113314	-0.183795
O55	O	1.360926	0.136686	0.066205
O56	O	1.610926	0.386686	0.316205
O57	O	1.070046	-0.273203	-0.552802
O58	O	1.320046	-0.023203	-0.302802
O59	O	1.570046	0.226797	-0.052802
O60	O	1.820046	0.476797	0.197198
O61	O	1.053471	-0.465877	-0.360127
O62	O	1.303471	-0.215877	-0.110127
O63	O	1.553471	0.034123	0.139873
O64	O	1.803471	0.284123	0.389873
O65	O	0.970448	-0.472921	-0.443135
O66	O	1.220448	-0.222921	-0.193135
O67	O	1.470448	0.027079	0.056865
O68	O	1.720448	0.277079	0.306865
C69	C	0.835372	-0.319311	-0.387700
C70	C	1.085372	-0.069311	-0.137700
C71	C	1.335372	0.180689	0.112300
C72	C	1.585372	0.430689	0.362300
C73	C	0.757030	-0.322519	-0.384494
C74	C	1.007030	-0.072519	-0.134494
C75	C	1.257030	0.177481	0.115506
C76	C	1.507030	0.427481	0.365506
C77	C	0.313760	-0.342833	-0.364211
C78	C	0.563760	-0.092833	-0.114211
C79	C	0.813760	0.157167	0.135789
C80	C	1.063760	0.407167	0.385789
C81	C	0.387370	-0.339814	-0.367218
C82	C	0.637370	-0.089814	-0.117218
C83	C	0.887370	0.160186	0.132782
C84	C	1.137370	0.410186	0.382782
C85	C	0.427897	-0.295139	-0.412041
C86	C	0.677897	-0.045139	-0.162041
C87	C	0.927897	0.204861	0.087959
C88	C	1.177897	0.454861	0.337959
C89	C	0.394810	-0.253474	-0.453855
C90	C	0.644810	-0.003474	-0.203855
C91	C	0.894810	0.246526	0.046145
C92	C	1.144810	0.496526	0.296145
C93	C	0.321201	-0.256490	-0.450844
C94	C	0.571201	-0.006490	-0.200844
C95	C	0.821201	0.243510	0.049156
C96	C	1.071201	0.493510	0.299156
C97	C	0.650335	-0.283870	-0.423296
C98	C	0.900335	-0.033870	-0.173296
C99	C	1.150335	0.216130	0.076704
C100	C	1.400335	0.466130	0.326704
C101	C	0.723948	-0.280859	-0.426306
C102	C	0.973948	-0.030859	-0.176306
C103	C	1.223948	0.219141	0.073694
C104	C	1.473948	0.469141	0.323694
C105	C	0.716503	-0.367199	-0.339668
C106	C	0.966503	-0.117199	-0.089668
C107	C	1.216503	0.132801	0.160332
C108	C	1.466503	0.382801	0.410332
C109	C	0.642893	-0.370214	-0.336664
C110	C	0.892893	-0.120214	-0.086664
C111	C	1.142893	0.129786	0.163336
C112	C	1.392893	0.379786	0.413336
C113	C	0.609813	-0.328546	-0.378475
C114	C	0.859813	-0.078546	-0.128475
C115	C	1.109813	0.171454	0.121525
C116	C	1.359813	0.421454	0.371525
C117	C	0.503139	-0.292053	-0.415117
C118	C	0.753139	-0.042053	-0.165117
C119	C	1.003139	0.207947	0.084883
C120	C	1.253139	0.457947	0.334883
C121	C	0.534572	-0.331628	-0.375394
C122	C	0.784572	-0.081628	-0.125394
C123	C	1.034572	0.168372	0.124606
C124	C	1.284572	0.418372	0.374606
C125	C	1.010918	-0.494972	-0.402685
C126	C	1.260918	-0.244972	-0.152685
C127	C	1.510918	0.005028	0.097315
C128	C	1.760918	0.255028	0.347315
C129	C	1.007742	-0.573311	-0.405899
C130	C	1.257742	-0.323311	-0.155899
C131	C	1.507742	-0.073311	0.094101
C132	C	1.757742	0.176689	0.344101
C133	C	1.049512	-0.606424	-0.364229
C134	C	1.299512	-0.356424	-0.114229
C135	C	1.549512	-0.106424	0.135771
C136	C	1.799512	0.143576	0.385771
C137	C	1.046528	-0.680031	-0.367256
C138	C	1.296528	-0.430031	-0.117256
C139	C	1.546528	-0.180031	0.132744
C140	C	1.796528	0.069969	0.382744
C141	C	1.001771	-0.720524	-0.411949
C142	C	1.251771	-0.470524	-0.161949
C143	C	1.501771	-0.220524	0.088051
C144	C	1.751771	0.029476	0.338051
C145	C	0.960000	-0.687406	-0.453623
C146	C	1.210000	-0.437406	-0.203623
C147	C	1.460000	-0.187406	0.046377
C148	C	1.710000	0.062594	0.296377
C149	C	0.962988	-0.613800	-0.450600
C150	C	1.212988	-0.363800	-0.200600
C151	C	1.462988	-0.113800	0.049400
C152	C	1.712988	0.136200	0.299400
C153	C	0.990591	-0.942951	-0.423242
C154	C	1.240591	-0.692951	-0.173242
C155	C	1.490591	-0.442951	0.076758
C156	C	1.740591	-0.192951	0.326758
C157	C	0.987605	-1.016562	-0.426260
C158	C	1.237605	-0.766562	-0.176260
C159	C	1.487605	-0.516562	0.073740
C160	C	1.737605	-0.266562	0.323740
C161	C	1.074135	-1.009182	-0.339894
C162	C	1.324135	-0.759182	-0.089894
C163	C	1.574135	-0.509182	0.160106
C164	C	1.824135	-0.259182	0.410106
C165	C	1.077115	-0.935575	-0.336871
C166	C	1.327115	-0.685575	-0.086871
C167	C	1.577115	-0.435575	0.163129
C168	C	1.827115	-0.185575	0.413129
C169	C	1.035346	-0.902463	-0.378548
C170	C	1.285346	-0.652463	-0.128548
C171	C	1.535346	-0.402463	0.121452
C172	C	1.785346	-0.152463	0.371452
C173	C	0.998719	-0.795763	-0.415042
C174	C	1.248719	-0.545763	-0.165042
C175	C	1.498719	-0.295763	0.084958
C176	C	1.748719	-0.045763	0.334958
C177	C	1.038402	-0.827226	-0.375458
C178	C	1.288402	-0.577226	-0.125458
C179	C	1.538402	-0.327226	0.124542
C180	C	1.788402	-0.077226	0.374542
C181	C	1.202336	-0.304364	-0.402800
C182	C	1.452336	-0.054364	-0.152800
C183	C	1.702336	0.195636	0.097200
C184	C	1.952336	0.445636	0.347200
C185	C	1.280678	-0.301173	-0.406023
C186	C	1.530678	-0.051173	-0.156023
C187	C	1.780678	0.198827	0.093977
C188	C	2.030678	0.448827	0.343977
C189	C	1.026041	-0.319321	-0.579066
C190	C	1.276041	-0.069321	-0.329066
C191	C	1.526041	0.180679	-0.079066
C192	C	1.776041	0.430679	0.170934
C193	C	1.029255	-0.322505	-0.657403
C194	C	1.279255	-0.072505	-0.407403
C195	C	1.529255	0.177495	-0.157403
C196	C	1.779255	0.427495	0.092597
C197	C	1.026124	-0.128015	-0.387771
C198	C	1.276124	0.121985	-0.137771
C199	C	1.526124	0.371985	0.112229
C200	C	1.776124	0.621985	0.362229
C201	C	1.029375	-0.049675	-0.384591
C202	C	1.279375	0.200325	-0.134591
C203	C	1.529375	0.450325	0.115409
C204	C	1.779375	0.700325	0.365409
C205	C	1.049643	-0.342711	-1.100654
C206	C	1.299643	-0.092711	-0.850654
C207	C	1.549643	0.157289	-0.600654
C208	C	1.799643	0.407289	-0.350654
C209	C	1.046612	-0.339716	-1.027046
C210	C	1.296612	-0.089716	-0.777046
C211	C	1.546612	0.160284	-0.527046
C212	C	1.796612	0.410284	-0.277046
C213	C	1.001896	-0.294977	-0.986566
C214	C	1.251896	-0.044977	-0.736566
C215	C	1.501896	0.205023	-0.486566
C216	C	1.751896	0.455023	-0.236566
C217	C	0.960203	-0.253235	-1.019696
C218	C	1.210203	-0.003235	-0.769696
C219	C	1.460203	0.246765	-0.519696
C220	C	1.710203	0.496765	-0.269696
C221	C	0.963230	-0.256234	-1.093302
C222	C	1.213230	-0.006234	-0.843302
C223	C	1.463230	0.243766	-0.593302
C224	C	1.713230	0.493766	-0.343302
C225	C	0.990590	-0.283762	-0.764139
C226	C	1.240590	-0.033762	-0.514139
C227	C	1.490590	0.216238	-0.264139
C228	C	1.740590	0.466238	-0.014139
C229	C	0.987567	-0.280764	-0.690529
C230	C	1.237567	-0.030764	-0.440529
C231	C	1.487567	0.219236	-0.190529
C232	C	1.737567	0.469236	0.059471
C233	C	1.073976	-0.367247	-0.697884
C234	C	1.323976	-0.117247	-0.447884
C235	C	1.573976	0.132753	-0.197884
C236	C	1.823976	0.382753	0.052116
C237	C	1.077002	-0.370239	-0.771491
C238	C	1.327002	-0.120239	-0.521491
C239	C	1.577002	0.129761	-0.271491
C240	C	1.827002	0.379761	-0.021491
C241	C	1.035307	-0.328500	-0.804615
C242	C	1.285307	-0.078500	-0.554615
C243	C	1.535307	0.171500	-0.304615
C244	C	1.785307	0.421500	-0.054615
C245	C	0.998799	-0.291913	-0.911327
C246	C	1.248799	-0.041913	-0.661327
C247	C	1.498799	0.208087	-0.411327
C248	C	1.748799	0.458087	-0.161327
C249	C	1.038401	-0.331568	-0.879852
C250	C	1.288401	-0.081568	-0.629852
C251	C	1.538401	0.168432	-0.379852
C252	C	1.788401	0.418432	-0.129852
C253	C	1.011025	-0.304358	-0.212119
C254	C	1.261025	-0.054358	0.037881
C255	C	1.511025	0.195642	0.287881
C256	C	1.761025	0.445642	0.537881
C257	C	1.007954	-0.300971	-0.133779
C258	C	1.257954	-0.050971	0.116221
C259	C	1.507954	0.199029	0.366221
C260	C	1.757954	0.449029	0.616221
H261	H	0.623410	-0.249945	-0.457345
H262	H	0.873410	0.000055	-0.207345
H263	H	1.123410	0.250055	0.042655
H264	H	1.373410	0.500055	0.292655
H265	H	1.113414	-0.406671	-0.804446
H266	H	1.363414	-0.156671	-0.554446
H267	H	1.613414	0.093329	-0.304446
H268	H	1.863414	0.343329	-0.054446
H269	H	0.929284	-0.222244	-1.120271
H270	H	1.179284	0.027756	-0.870271
H271	H	1.429284	0.277756	-0.620271
H272	H	1.679284	0.527756	-0.370271
H273	H	0.928975	-0.586841	-0.484533
H274	H	1.178975	-0.336841	-0.234533
H275	H	1.428975	-0.086841	0.015467
H276	H	1.678975	0.163159	0.265467
C277	C	1.092509	-0.385598	-0.990612
C278	C	1.342509	-0.135598	-0.740612
C279	C	1.592509	0.114402	-0.490612
C280	C	1.842509	0.364402	-0.240612
N281	N	1.127093	-0.420146	-0.963170
N282	N	1.377093	-0.170146	-0.713170
N283	N	1.627093	0.079854	-0.463170
N284	N	1.877093	0.329854	-0.213170
H285	H	0.609900	-0.406592	-0.300163
H286	H	0.859900	-0.156592	-0.050163
H287	H	1.109900	0.093408	0.199837
H288	H	1.359900	0.343408	0.449837
H289	H	1.074807	-0.367996	-0.912814
H290	H	1.324807	-0.117996	-0.662814
H291	H	1.574807	0.132004	-0.412814
H292	H	1.824807	0.382004	-0.162814
H293	H	1.080541	-0.706988	-0.333324
H294	H	1.330541	-0.456988	-0.083324
H295	H	1.580541	-0.206988	0.166676
H296	H	1.830541	0.043012	0.416676
C297	C	0.269187	-0.391979	-0.314901
C298	C	0.519187	-0.141979	-0.064901
C299	C	0.769187	0.108021	0.185099
C300	C	1.019187	0.358021	0.435099
N301	N	0.235616	-0.428995	-0.277757
N302	N	0.485616	-0.178995	-0.027757
N303	N	0.735616	0.071005	0.222243
N304	N	0.985616	0.321005	0.472243
H305	H	0.956580	-0.915998	-0.457175
H306	H	1.206580	-0.665998	-0.207175
H307	H	1.456580	-0.415998	0.042825
H308	H	1.706580	-0.165998	0.292825
C309	C	0.439393	-0.204328	-0.503158
C310	C	0.689393	0.045672	-0.253158
C311	C	0.939393	0.295672	-0.003158
C312	C	1.189393	0.545672	0.246842
N313	N	0.472972	-0.167311	-0.540296
N314	N	0.722972	0.082689	-0.290296
N315	N	0.972972	0.332689	-0.040296
N316	N	1.222972	0.582689	0.209704
C317	C	0.284812	-0.210662	-0.496842
C318	C	0.534812	0.039338	-0.246842
C319	C	0.784812	0.289338	0.003158
C320	C	1.034812	0.539338	0.253158
N321	N	0.257405	-0.176142	-0.531488
N322	N	0.507405	0.073858	-0.281488
N323	N	0.757405	0.323858	-0.031488
N324	N	1.007405	0.573858	0.218512
H325	H	0.743445	-0.401121	-0.305628
H326	H	0.993445	-0.151121	-0.055628
H327	H	1.243445	0.098879	0.194372
H328	H	1.493445	0.348879	0.444372
C329	C	0.423756	-0.385644	-0.321222
C330	C	0.673756	-0.135644	-0.071222
C331	C	0.923756	0.114356	0.178778
C332	C	1.173756	0.364356	0.428778
N333	N	0.451162	-0.420164	-0.286574
N334	N	0.701162	-0.170164	-0.036574
N335	N	0.951162	0.079836	0.213426
N336	N	1.201162	0.329836	0.463426
C337	C	0.944734	-0.237836	-0.800566
C338	C	1.194734	0.012164	-0.550566
C339	C	1.444734	0.262164	-0.300566
C340	C	1.694734	0.512164	-0.050566
N341	N	0.910196	-0.203239	-0.828005
N342	N	1.160196	0.046761	-0.578005
N343	N	1.410196	0.296761	-0.328005
N344	N	1.660196	0.546761	-0.078005
C345	C	0.547726	-0.242913	-0.464423
C346	C	0.797726	0.007087	-0.214423
C347	C	1.047726	0.257087	0.035577
C348	C	1.297726	0.507087	0.285577
N349	N	0.581311	-0.205899	-0.501559
N350	N	0.831311	0.044101	-0.251559
N351	N	1.081311	0.294101	-0.001559
N352	N	1.331311	0.544101	0.248441
H353	H	1.086059	-0.379139	-1.133608
H354	H	1.336059	-0.129139	-0.883608
H355	H	1.586059	0.120861	-0.633608
H356	H	1.836059	0.370861	-0.383608
C357	C	0.949480	-0.840312	-0.464195
C358	C	1.199480	-0.590312	-0.214195
C359	C	1.449480	-0.340312	0.035805
C360	C	1.699480	-0.090312	0.285805
N361	N	0.912391	-0.873870	-0.501216
N362	N	1.162391	-0.623870	-0.251216
N363	N	1.412391	-0.373870	-0.001216
N364	N	1.662391	-0.123870	0.248784
H365	H	0.501572	-0.368001	-0.338898
H366	H	0.751572	-0.118001	-0.088898
H367	H	1.001572	0.131999	0.161102
H368	H	1.251572	0.381999	0.411102
H369	H	1.085954	-0.573458	-0.327832
H370	H	1.335954	-0.323458	-0.077832
H371	H	1.585954	-0.073458	0.172168
H372	H	1.835954	0.176542	0.422168
C373	C	1.120079	-1.045610	-0.294054
C374	C	1.370079	-0.795610	-0.044054
C375	C	1.620079	-0.545610	0.205946
C376	C	1.870079	-0.295610	0.455946
N377	N	1.154688	-1.073049	-0.259528
N378	N	1.404688	-0.823049	-0.009528
N379	N	1.654688	-0.573049	0.240472
N380	N	1.904688	-0.323049	0.490472
H381	H	1.113559	-0.902606	-0.300478
H382	H	1.363559	-0.652606	-0.050478
H383	H	1.613559	-0.402606	0.199522
H384	H	1.863559	-0.152606	0.449522
H385	H	0.951167	-1.049531	-0.462668
H386	H	1.201167	-0.799531	-0.212668
H387	H	1.451167	-0.549531	0.037332
H388	H	1.701167	-0.299531	0.287332
C389	C	0.910764	-0.731952	-0.502784
C390	C	1.160764	-0.481952	-0.252784
C391	C	1.410764	-0.231952	-0.002784
C392	C	1.660764	0.018048	0.247216
N393	N	0.873676	-0.765502	-0.539810
N394	N	1.123676	-0.515502	-0.289810
N395	N	1.373676	-0.265502	-0.039810
N396	N	1.623676	-0.015502	0.210190
C397	C	1.087632	-0.782681	-0.326296
C398	C	1.337632	-0.532681	-0.076296
C399	C	1.587632	-0.282681	0.173704
C400	C	1.837632	-0.032681	0.423704
N401	N	1.124709	-0.749124	-0.289263
N402	N	1.374709	-0.499124	-0.039263
N403	N	1.624709	-0.249124	0.210737
N404	N	1.874709	0.000876	0.460737
H405	H	1.107921	-0.401229	-0.670906
H406	H	1.357921	-0.151229	-0.420906
H407	H	1.607921	0.098771	-0.170906
H408	H	1.857921	0.348771	0.079094
H409	H	0.951155	-0.244327	-0.657571
H410	H	1.201155	0.005673	-0.407571
H411	H	1.451155	0.255673	-0.157571
H412	H	1.701155	0.505673	0.092429
C413	C	0.911021	-0.204015	-0.975165
C414	C	1.161021	0.045985	-0.725165
C415	C	1.411021	0.295985	-0.475165
C416	C	1.661021	0.545985	-0.225165
N417	N	0.873980	-0.166937	-0.941624
N418	N	1.123980	0.083063	-0.691624
N419	N	1.373980	0.333063	-0.441624
N420	N	1.623980	0.583063	-0.191624
H421	H	0.756944	-0.244474	-0.462805
H422	H	1.006944	0.005526	-0.212805
H423	H	1.256944	0.255526	0.037195
H424	H	1.506944	0.505526	0.287195
H425	H	0.962391	-0.255485	-0.878360
H426	H	1.212391	-0.005485	-0.628360
H427	H	1.462391	0.244515	-0.378360
H428	H	1.712391	0.494515	-0.128360
