data_functionalizedCrystal
_audit_creation_method	'MofGen! by Chris Wilmer'
_symmetry_space_group_name_H-M	'P1'
_symmetry_Int_Tables_number	1
_symmetry_cell_setting	triclinic
loop_
_symmetry_equiv_pos_as_xyz
  x,y,z
_cell_length_a	11.792241
_cell_length_b	10.723024
_cell_length_c	9.798715
_cell_angle_alpha	90.001978
_cell_angle_beta	89.999488
_cell_angle_gamma	84.330643
loop_
_atom_site_label
_atom_site_type_symbol
_atom_site_fract_x
_atom_site_fract_y
_atom_site_fract_z
O1	O	-1.507282	-0.171036	-0.113355
O2	O	-1.176980	-0.188663	-0.113386
O3	O	-1.349750	0.001747	-0.113365
O4	O	-1.334512	-0.361446	-0.113376
O5	O	-1.349737	0.001747	0.113618
O6	O	-1.176967	-0.188663	0.113596
O7	O	-1.507269	-0.171035	0.113627
Zn8	Zn	-1.342116	-0.179849	0.149650
Zn9	Zn	-1.342133	-0.179850	-0.149409
O10	O	-1.334499	-0.361445	0.113606
C11	C	-1.134680	-0.187556	0.000101
C12	C	-1.008659	-0.184242	0.000089
C13	C	-1.348634	0.048244	0.000125
C14	C	-1.345317	0.186789	0.000120
C15	C	-1.549569	-0.172143	0.000137
C16	C	-1.675590	-0.175457	0.000140
C17	C	-0.777933	-0.178147	0.000128
C18	C	-0.906326	-0.181533	0.000107
C19	C	-1.335614	-0.407942	0.000114
C20	C	-1.338932	-0.546488	0.000110
N21	N	-1.342112	-0.179848	0.353750
C22	C	-1.441990	0.262028	0.000127
C23	C	-1.438563	0.405222	0.000122
N24	N	-1.342145	-0.179841	-0.353508
C25	C	-1.414654	-0.099549	0.421536
C26	C	-1.414672	-0.099544	0.578698
H27	H	-1.521323	0.469873	0.000134
H28	H	-1.527292	0.220431	0.000143
H29	H	-1.256168	0.388868	0.000113
C30	C	-1.259185	-0.271569	0.431249
C31	C	-1.192238	-0.345631	0.338254
C32	C	-1.115819	-0.430128	0.409592
H33	H	-1.300476	-0.323745	0.486993
H34	H	-1.211451	-0.226465	0.486966
H35	H	-1.239965	-0.390732	0.282560
H36	H	-1.150923	-0.293489	0.282508
H37	H	-1.068085	-0.385024	0.465309
H38	H	-1.157119	-0.482295	0.465333
H39	H	-1.070379	-0.480381	0.346506
C40	C	-1.231649	0.242410	-0.000108
C41	C	-1.223933	0.316353	-0.116873
C42	C	-1.119242	0.367620	-0.117121
H43	H	-1.171342	0.176768	-0.000182
H44	H	-1.226184	0.292693	0.079001
H45	H	-1.229387	0.266072	-0.195962
H46	H	-1.284215	0.382015	-0.116824
H47	H	-1.113777	0.417903	-0.038012
H48	H	-1.058943	0.301970	-0.117191
H49	H	-1.113997	0.417805	-0.196338
C50	C	-1.497320	-0.007707	0.343827
C51	C	-1.477690	0.115013	0.378423
C52	C	-1.553812	0.199640	0.306839
H53	H	-1.573299	-0.021403	0.367093
H54	H	-1.486278	-0.019839	0.248523
H55	H	-1.488741	0.127140	0.473706
H56	H	-1.401726	0.128749	0.355153
H57	H	-1.542770	0.187509	0.211535
H58	H	-1.629787	0.185932	0.330111
H59	H	-1.540497	0.282915	0.330293
C60	C	-1.497670	-0.008010	0.656340
C61	C	-1.609466	-0.028710	0.621690
C62	C	-1.685955	0.055580	0.693202
H63	H	-1.484648	0.075375	0.633051
H64	H	-1.486753	-0.020195	0.751655
H65	H	-1.620378	-0.016515	0.526397
H66	H	-1.622524	-0.112079	0.644983
H67	H	-1.675039	0.043396	0.788516
H68	H	-1.672923	0.138960	0.669906
H69	H	-1.761817	0.041540	0.669711
H70	H	-1.280040	-0.248597	0.588207
