data_functionalizedCrystal
_audit_creation_method	'MofGen! by Chris Wilmer'
_symmetry_space_group_name_H-M	'P1'
_symmetry_Int_Tables_number	1
_symmetry_cell_setting	triclinic
loop_
_symmetry_equiv_pos_as_xyz
  x,y,z
_cell_length_a	15.944551
_cell_length_b	10.654550
_cell_length_c	15.021413
_cell_angle_alpha	89.992622
_cell_angle_beta	90.000521
_cell_angle_gamma	96.008179
loop_
_atom_site_label
_atom_site_type_symbol
_atom_site_fract_x
_atom_site_fract_y
_atom_site_fract_z
O1	O	1.115462	-0.161973	0.073937
O2	O	0.871028	-0.181942	0.073959
O3	O	0.998865	0.010854	0.073944
O4	O	0.987625	-0.354769	0.073952
O5	O	0.998853	0.010874	-0.074120
O6	O	0.871016	-0.181922	-0.074105
O7	O	1.115450	-0.161953	-0.074127
Zn8	Zn	0.993231	-0.171935	-0.097625
Zn9	Zn	0.993247	-0.171961	0.097456
O10	O	0.987613	-0.354750	-0.074113
C11	C	0.839723	-0.181103	-0.000071
C12	C	0.746463	-0.178618	-0.000062
N13	N	0.993227	-0.171916	-0.230762
C14	C	0.998034	0.057652	-0.000087
C15	C	0.995565	0.197063	-0.000084
C16	C	0.530880	-0.053173	-0.000082
C17	C	0.470203	-0.111435	0.072923
C18	C	0.575711	-0.174122	-0.000073
C19	C	0.470214	-0.111444	-0.073057
C20	C	0.410773	-0.169770	-0.000087
C21	C	0.516262	-0.232417	0.072992
C22	C	0.516279	-0.232409	-0.073053
C23	C	0.455620	-0.290759	-0.000031
C24	C	0.670728	-0.176625	-0.000064
C25	C	0.315757	-0.167276	-0.000090
C26	C	1.146755	-0.162792	-0.000096
C27	C	1.240015	-0.165278	-0.000099
C28	C	0.988444	-0.401547	-0.000080
C29	C	0.990913	-0.540958	-0.000077
C30	C	1.070833	0.277523	-0.000093
C31	C	1.068508	0.408513	-0.000087
C32	C	0.915639	0.378572	-0.000065
C33	C	0.917965	0.247584	-0.000065
C34	C	1.148432	0.227002	-0.000112
C35	C	1.223707	0.307463	-0.000122
C36	C	1.221382	0.438453	-0.000116
C37	C	1.143782	0.488983	-0.000099
C38	C	1.051889	-0.082059	-0.529760
C39	C	1.069530	-0.195193	-0.470393
C40	C	0.993247	-0.171954	-0.587799
C41	C	0.975635	-0.058804	-0.470425
C42	C	0.993240	-0.171929	-0.412375
C43	C	1.010928	-0.285145	-0.529738
C44	C	0.916999	-0.148682	-0.529775
C45	C	0.934609	-0.261898	-0.470435
C46	C	0.993254	-0.171967	-0.688857
C47	C	0.993233	-0.171930	-0.311320
N48	N	0.993257	-0.171969	0.230594
H49	H	0.563632	0.047204	0.000006
O50	O	0.840336	0.427862	-0.000095
C51	C	0.854424	0.560730	-0.000076
H52	H	0.919792	0.591487	-0.028114
H53	H	0.850147	0.597182	0.070957
C54	C	0.707002	0.577300	-0.023700
C55	C	0.787286	0.615077	-0.058144
H56	H	0.665586	0.610826	-0.059515
H57	H	0.697509	0.487785	-0.023709
H58	H	0.703450	0.607680	0.035494
H59	H	0.790840	0.584684	-0.117332
H60	H	0.796777	0.704589	-0.058146
O61	O	0.844772	0.169596	-0.000095
C62	C	0.775782	0.242272	-0.000062
H63	H	0.796523	0.340038	-0.028101
H64	H	0.752045	0.251592	0.070976
C65	C	0.678997	0.056928	-0.023673
C66	C	0.704468	0.177002	-0.058119
H67	H	0.635005	0.016665	-0.059481
H68	H	0.725476	0.007963	-0.023692
H69	H	0.659221	0.064711	0.035525
H70	H	0.724253	0.169217	-0.117311
H71	H	0.657991	0.225964	-0.058111
H72	H	1.025891	-0.380847	-0.555684
O73	O	0.445862	-0.050209	-0.146596
C74	C	0.404502	0.054473	-0.120392
H75	H	0.425135	0.084247	-0.050176
H76	H	0.333385	0.027703	-0.121473
C77	C	0.402175	0.128195	-0.271396
C78	C	0.427523	0.164770	-0.185159
H79	H	0.416371	0.196231	-0.311349
H80	H	0.430037	0.057667	-0.289052
H81	H	0.342912	0.105886	-0.272284
H82	H	0.486785	0.187063	-0.184269
H83	H	0.399670	0.235305	-0.167504
O84	O	1.299155	0.258592	-0.000093
C85	C	1.365090	0.357702	-0.000118
H86	H	1.341027	0.446680	0.027918
H87	H	1.388339	0.376252	-0.071153
C88	C	1.467770	0.211427	0.023506
C89	C	1.438216	0.320708	0.057948
H90	H	1.512879	0.188607	0.059320
H91	H	1.423349	0.144654	0.023519
H92	H	1.487138	0.226900	-0.035689
H93	H	1.418839	0.305230	0.117138
H94	H	1.482636	0.387479	0.057946
H95	H	0.885013	-0.337991	-0.444551
O96	O	0.840132	-0.124940	-0.560883
C97	C	0.821803	-0.005520	-0.530697
H98	H	0.883091	0.054833	-0.514034
H99	H	0.780610	-0.017509	-0.468619
C100	C	0.699363	-0.014530	-0.624559
C101	C	0.774638	0.059600	-0.604099
H102	H	0.670266	0.025639	-0.669834
H103	H	0.711709	-0.094988	-0.644893
H104	H	0.665045	-0.024515	-0.572820
H105	H	0.808958	0.069571	-0.655834
H106	H	0.762297	0.140062	-0.583775
O107	O	1.111201	0.008387	-0.560802
C108	C	1.191489	-0.016608	-0.530524
H109	H	1.190337	-0.121162	-0.513859
H110	H	1.208820	0.041944	-0.468426
C111	C	1.258751	0.146640	-0.624311
C112	C	1.257338	0.018224	-0.603851
H113	H	1.299371	0.168132	-0.669540
H114	H	1.204660	0.163485	-0.644708
H115	H	1.273191	0.195419	-0.572557
H116	H	1.242888	-0.030551	-0.655601
H117	H	1.311429	0.001373	-0.583464
O118	O	1.146388	-0.218712	-0.439116
C119	C	1.145084	-0.219473	-0.345265
H120	H	1.077331	-0.240797	-0.321049
H121	H	1.172286	-0.123201	-0.319269
C122	C	1.281651	-0.295353	-0.340319
C123	C	1.198436	-0.321555	-0.310576
H124	H	1.314564	-0.358318	-0.318919
H125	H	1.282531	-0.294836	-0.403548
H126	H	1.304308	-0.215124	-0.318653
H127	H	1.175777	-0.401775	-0.332251
H128	H	1.197553	-0.322087	-0.247349
O129	O	0.446007	-0.050334	0.146578
C130	C	0.517656	-0.008872	0.197854
H131	H	0.575972	-0.000143	0.153473
H132	H	0.525658	-0.079915	0.253169
C133	C	0.434710	0.109871	0.293603
C134	C	0.506334	0.120603	0.239091
H135	H	0.427726	0.189735	0.319044
H136	H	0.386438	0.081934	0.259059
H137	H	0.441387	0.050664	0.339692
H138	H	0.499651	0.179797	0.192997
H139	H	0.554605	0.148553	0.273628
O140	O	0.540606	-0.293321	0.146681
C141	C	0.628913	-0.294906	0.145805
H142	H	0.658641	-0.214285	0.102539
H143	H	0.645207	-0.388670	0.117583
C144	C	0.626691	-0.377906	0.294559
C145	C	0.663205	-0.278878	0.241425
H146	H	0.647845	-0.368025	0.353541
H147	H	0.567197	-0.376843	0.295148
H148	H	0.640273	-0.456033	0.271030
H149	H	0.649614	-0.200755	0.264948
H150	H	0.722698	-0.279928	0.240842
O151	O	0.540630	-0.293193	-0.146774
C152	C	0.517402	-0.229103	-0.223598
H153	H	0.510043	-0.126721	-0.206110
H154	H	0.455036	-0.276600	-0.250235
C155	C	0.595252	-0.358984	-0.316639
C156	C	0.586221	-0.233234	-0.295161
H157	H	0.637700	-0.361536	-0.360785
H158	H	0.610899	-0.402166	-0.264882
H159	H	0.543276	-0.398550	-0.338832
H160	H	0.638193	-0.193675	-0.272959
H161	H	0.570584	-0.190045	-0.346916
O162	O	0.957962	0.055441	-0.439447
C163	C	1.019966	0.149908	-0.469656
H164	H	1.051165	0.115660	-0.532137
H165	H	1.069594	0.171262	-0.415597
C166	C	0.940191	0.312579	-0.414542
C167	C	0.978505	0.270520	-0.491286
H168	H	0.914618	0.386981	-0.427880
H169	H	0.898419	0.248936	-0.394186
H170	H	0.981554	0.330364	-0.369499
H171	H	0.937140	0.252720	-0.536322
H172	H	1.020269	0.334163	-0.511650
H173	H	0.423043	-0.391240	0.000012
H174	H	1.150334	0.120344	-0.000120
H175	H	1.282674	0.503962	-0.000115
H176	H	1.141895	0.595646	-0.000084
