data_functionalizedCrystal
_audit_creation_method	'MofGen! by Chris Wilmer'
_symmetry_space_group_name_H-M	'P1'
_symmetry_Int_Tables_number	1
_symmetry_cell_setting	triclinic
loop_
_symmetry_equiv_pos_as_xyz
  x,y,z
_cell_length_a	10.723024
_cell_length_b	11.026607
_cell_length_c	9.198806
_cell_angle_alpha	89.998911
_cell_angle_beta	89.996352
_cell_angle_gamma	96.526943
loop_
_atom_site_label
_atom_site_type_symbol
_atom_site_fract_x
_atom_site_fract_y
_atom_site_fract_z
O1	O	1.693992	0.170518	-0.120878
O2	O	1.334363	0.186840	-0.120883
O3	O	1.484372	0.001778	-0.120876
O4	O	1.543983	0.355580	-0.120886
O5	O	1.484357	0.001777	0.120909
O6	O	1.334348	0.186840	0.120902
O7	O	1.693977	0.170518	0.120907
Cu8	Cu	1.514161	0.178679	0.142981
Cu9	Cu	1.514179	0.178679	-0.142958
O10	O	1.543968	0.355580	0.120899
C11	C	1.287599	0.185652	0.000009
C12	C	1.148278	0.182098	0.000007
C13	C	1.095646	0.285649	0.000003
C14	C	0.951650	0.281979	0.000001
C15	C	1.473367	-0.043525	0.000015
C16	C	1.440584	-0.178512	0.000009
C17	C	1.531104	-0.251564	0.000008
C18	C	1.497223	-0.391080	0.000003
C19	C	1.740741	0.171706	0.000011
C20	C	1.880062	0.175259	0.000004
C21	C	1.554973	0.400883	0.000006
C22	C	1.587756	0.535869	0.000002
N23	N	1.514157	0.178677	0.344095
N24	N	1.514191	0.178671	-0.344072
C25	C	1.577068	0.100633	0.416295
C26	C	1.577086	0.100628	0.583707
H27	H	0.906351	0.370627	-0.000008
C28	C	1.383279	0.341038	0.329179
C29	C	1.441455	0.268876	0.427947
H30	H	1.338388	0.396717	0.380946
H31	H	1.445205	0.385130	0.269807
H32	H	1.326772	0.290202	0.269815
H33	H	1.497970	0.319711	0.487304
H34	H	1.379521	0.224780	0.487344
H35	H	1.633684	-0.210818	0.000019
H36	H	1.394636	-0.431820	-0.000008
C37	C	0.847456	-0.043804	-0.000001
C38	C	0.941192	0.055574	0.000001
H39	H	0.885205	-0.117690	-0.000013
H40	H	0.796803	-0.040570	0.084311
H41	H	0.796802	-0.040556	-0.084321
H42	H	0.991840	0.052331	0.084327
H43	H	0.991867	0.052338	-0.084320
H44	H	1.630952	0.033815	0.645796
H45	H	1.460333	0.245496	0.593849
C46	C	1.254601	0.417589	-0.124288
C47	C	1.178715	0.409005	0.000002
H48	H	1.305876	0.493750	-0.124288
H49	H	1.306274	0.353105	-0.124273
H50	H	1.203113	0.411753	-0.208596
H51	H	1.230204	0.414832	0.084311
H52	H	1.127037	0.473507	0.000001
C53	C	1.750633	-0.337022	-0.124283
C54	C	1.726249	-0.409147	0.000005
H55	H	1.836130	-0.303074	-0.124274
H56	H	1.734091	-0.385950	-0.208584
H57	H	1.698228	-0.273114	-0.124268
H58	H	1.778648	-0.473061	-0.000016
H59	H	1.742804	-0.360216	0.084327
C60	C	1.277738	-0.305619	-0.124291
C61	C	1.302100	-0.233505	0.000003
H62	H	1.192243	-0.339572	-0.124288
H63	H	1.294290	-0.256682	-0.208588
H64	H	1.330148	-0.369524	-0.124278
H65	H	1.249696	-0.169595	-0.000015
H66	H	1.285535	-0.282445	0.084321
C67	C	1.602601	-0.109277	0.369045
C68	C	1.649767	0.010457	0.332402
H69	H	1.647483	-0.164939	0.317235
H70	H	1.612174	-0.121134	0.470528
H71	H	1.516160	-0.122964	0.344198
H72	H	1.736206	0.024147	0.357259
H73	H	1.640206	0.022319	0.230896
H74	H	1.086734	0.090727	-0.000028
