data_functionalizedCrystal
_audit_creation_method	'MofGen! by Chris Wilmer'
_symmetry_space_group_name_H-M	'P1'
_symmetry_Int_Tables_number	1
_symmetry_cell_setting	triclinic
loop_
_symmetry_equiv_pos_as_xyz
  x,y,z
_cell_length_a	15.944499
_cell_length_b	10.540539
_cell_length_c	9.016244
_cell_angle_alpha	90.000067
_cell_angle_beta	90.009929
_cell_angle_gamma	84.001550
loop_
_atom_site_label
_atom_site_type_symbol
_atom_site_fract_x
_atom_site_fract_y
_atom_site_fract_z
O1	O	-1.115529	-0.163394	-0.123422
O2	O	-0.871094	-0.183646	-0.123405
O3	O	-0.998888	0.011264	-0.123412
O4	O	-0.987735	-0.358304	-0.123415
O5	O	-0.998870	0.011259	0.123269
O6	O	-0.871076	-0.183651	0.123276
O7	O	-1.115510	-0.163398	0.123259
Cu8	Cu	-0.993291	-0.173525	0.145791
Cu9	Cu	-0.993313	-0.173520	-0.145937
O10	O	-0.987716	-0.358309	0.123266
C11	C	-0.998043	0.058553	-0.000074
C12	C	-0.995540	0.199466	-0.000082
C13	C	-0.839785	-0.182820	-0.000062
C14	C	-0.746522	-0.180334	-0.000056
C15	C	-1.146819	-0.164225	-0.000087
C16	C	-1.240083	-0.166711	-0.000103
C17	C	-0.455661	-0.293572	-0.000079
C18	C	-0.516349	-0.234705	-0.121708
C19	C	-0.410832	-0.171302	-0.000090
C20	C	-0.516316	-0.234677	0.121500
C21	C	-0.575767	-0.175746	-0.000071
C22	C	-0.470291	-0.112402	-0.121819
C23	C	-0.470252	-0.112391	0.121498
C24	C	-0.530921	-0.053436	-0.000161
C25	C	-0.315816	-0.168746	-0.000103
C26	C	-0.670781	-0.178293	-0.000069
C27	C	-0.988562	-0.405598	-0.000075
C28	C	-0.991065	-0.546511	-0.000077
N29	N	-0.993282	-0.173528	0.350977
C30	C	-0.899651	0.381561	-0.000629
C31	C	-0.902187	0.234978	-0.000074
C32	C	-1.040455	0.261746	0.140781
C33	C	-1.037269	0.408246	0.140900
C34	C	-1.039189	0.408796	-0.139622
C35	C	-1.040049	0.261826	-0.141484
N36	N	-0.993330	-0.173507	-0.351124
C37	C	-0.924710	-0.277449	0.586014
C38	C	-0.924862	-0.277832	0.414123
C39	C	-1.081102	-0.202441	0.413309
C40	C	-1.080728	-0.203176	0.585254
C41	C	-0.974904	-0.040345	0.585523
C42	C	-0.972889	-0.041238	0.413569
H43	H	-0.422936	-0.395042	-0.000197
H44	H	-0.536763	-0.286423	-0.224530
H45	H	-0.866582	0.192725	0.101076
Cl46	Cl	-1.140920	0.483751	0.150781
Cl47	Cl	-0.842723	0.424925	-0.156590
H48	H	-1.133426	-0.130454	0.626833
H49	H	-1.106617	0.456958	-0.140574
Cl50	Cl	-0.847621	0.168440	-0.155972
H51	H	-1.007185	0.220512	-0.245691
Cl52	Cl	-0.873143	-0.007354	0.350677
Cl53	Cl	-1.044947	0.083776	0.347238
Cl54	Cl	-0.824101	-0.251323	0.349056
H55	H	-0.450012	-0.060734	-0.224762
Cl56	Cl	-1.146300	0.228707	0.148870
H57	H	-0.563493	0.048126	-0.000224
Cl58	Cl	-0.438701	-0.032615	0.280263
H59	H	-1.024935	0.037005	0.626173
H60	H	-1.133412	-0.128751	0.372402
Cl61	Cl	-0.943115	-0.430417	0.350581
H62	H	-0.859253	-0.260506	0.627412
Cl63	Cl	-1.106542	-0.350671	0.346803
H64	H	-0.536692	-0.286414	0.224324
Cl65	Cl	-0.842775	0.427949	0.154007
Cl66	Cl	-0.992546	0.456845	-0.304462
H67	H	-1.004059	0.435982	0.246204
H68	H	-0.912218	-0.012537	0.628976
Cl69	Cl	-0.992261	0.195310	0.302637
Cl70	Cl	-1.145132	0.225886	-0.154637
H71	H	-0.936400	-0.375710	0.629205
H72	H	-1.096843	-0.300289	0.625341
