data_functionalizedCrystal
_audit_creation_method	'MofGen! by Chris Wilmer'
_symmetry_space_group_name_H-M	'P1'
_symmetry_Int_Tables_number	1
_symmetry_cell_setting	triclinic
loop_
_symmetry_equiv_pos_as_xyz
  x,y,z
_cell_length_a	19.188933
_cell_length_b	19.188924
_cell_length_c	8.965430
_cell_angle_alpha	89.998356
_cell_angle_beta	89.997623
_cell_angle_gamma	83.143767
loop_
_atom_site_label
_atom_site_type_symbol
_atom_site_fract_x
_atom_site_fract_y
_atom_site_fract_z
O1	O	0.926142	0.087169	-0.123996
O2	O	0.722830	0.098902	-0.124011
O3	O	0.830356	-0.008620	-0.123986
O4	O	0.818616	0.194691	-0.124022
O5	O	0.830347	-0.008613	0.124093
O6	O	0.722821	0.098909	0.124068
O7	O	0.926133	0.087176	0.124082
Cu8	Cu	0.824476	0.093043	0.146727
Cu9	Cu	0.824487	0.093035	-0.146655
O10	O	0.818607	0.194699	0.124057
C11	C	0.696815	0.098525	0.000027
C12	C	0.619310	0.097384	0.000022
C13	C	0.829972	-0.034628	0.000055
C14	C	0.828833	-0.112133	0.000059
C15	C	0.066060	0.089235	-0.135189
C16	C	0.138884	0.090303	-0.135195
C17	C	0.175296	0.090844	0.000033
C18	C	0.138881	0.090299	0.135276
C19	C	0.066059	0.089224	0.135278
N20	N	0.284312	0.132266	0.100681
N21	N	0.353489	0.133289	0.100670
C22	C	0.394705	0.094082	0.000034
N23	N	0.364129	0.053823	-0.100612
N24	N	0.294944	0.052803	-0.100605
C25	C	0.254260	0.092010	0.000045
C26	C	0.510077	0.095780	-0.135207
C27	C	0.582903	0.096844	-0.135207
C28	C	0.582897	0.096847	0.135267
C29	C	0.510073	0.095777	0.135264
C30	C	0.473667	0.095246	0.000023
C31	C	0.828306	-0.148535	-0.135169
C32	C	0.827226	-0.221358	-0.135181
C33	C	0.826687	-0.257777	0.000044
C34	C	0.827210	-0.221365	0.135290
C35	C	0.828283	-0.148543	0.135297
N36	N	0.864731	-0.377437	0.100691
N37	N	0.863714	-0.446616	0.100675
C38	C	0.823453	-0.477186	0.000029
N39	N	0.784258	-0.435967	-0.100622
N40	N	0.785279	-0.366782	-0.100610
C41	C	0.825523	-0.336741	0.000051
C42	C	0.821755	-0.592552	-0.135221
C43	C	0.820670	-0.665375	-0.135226
C44	C	0.820661	-0.665382	0.135248
C45	C	0.821738	-0.592559	0.135250
C46	C	0.822288	-0.556149	0.000011
C47	C	0.952148	0.087553	0.000041
C48	C	1.029653	0.088694	0.000037
C49	C	0.818991	0.220706	0.000013
C50	C	0.820130	0.298211	-0.000001
N51	N	0.824474	0.093049	0.353076
N52	N	0.824495	0.093024	-0.353004
C53	C	0.774732	0.142758	0.450370
C54	C	0.837783	0.156114	0.549785
C55	C	0.761449	0.079699	0.549788
C56	C	0.887557	0.106436	0.450302
C57	C	0.811181	0.029993	0.450296
C58	C	0.874278	0.043322	0.549667
H59	H	0.036423	0.088800	-0.245313
H60	H	0.612543	0.097285	0.245372
H61	H	0.849040	0.209428	0.593485
H62	H	0.036416	0.088786	0.245398
Cl63	Cl	0.822441	-0.546775	-0.305231
H64	H	0.480429	0.095339	0.245379
H65	H	0.828752	-0.118895	-0.245291
Cl66	Cl	0.939305	-0.021600	0.616571
Cl67	Cl	0.628674	0.097517	-0.305221
H68	H	0.820216	-0.695033	0.245350
Cl69	Cl	0.709846	0.207716	0.383045
H70	H	0.480434	0.095346	-0.245328
H71	H	0.826793	-0.251003	-0.245303
H72	H	0.826769	-0.251022	0.245390
Cl73	Cl	0.828944	-0.102777	0.305313
H74	H	0.799904	-0.023303	0.406561
H75	H	0.708141	0.068418	0.593491
H76	H	0.822173	-0.562920	0.245367
Cl77	Cl	0.184663	0.090985	-0.305205
H78	H	0.168532	0.090739	0.245379
Cl79	Cl	0.820003	-0.711139	-0.305244
Cl80	Cl	0.969879	0.123950	0.383127
