data_functionalizedCrystal
_audit_creation_method	'MofGen! by Chris Wilmer'
_symmetry_space_group_name_H-M	'P1'
_symmetry_Int_Tables_number	1
_symmetry_cell_setting	triclinic
loop_
_symmetry_equiv_pos_as_xyz
  x,y,z
_cell_length_a	18.050591
_cell_length_b	19.120786
_cell_length_c	18.050582
_cell_angle_alpha	87.534997
_cell_angle_beta	89.979078
_cell_angle_gamma	92.460873
loop_
_atom_site_label
_atom_site_type_symbol
_atom_site_fract_x
_atom_site_fract_y
_atom_site_fract_z
Zn1	Zn	1.122689	-0.279748	-0.407398
Zn2	Zn	1.456023	0.053586	-0.074065
Zn3	Zn	1.789356	0.386919	0.259268
Zn4	Zn	1.117309	-0.397198	-0.277904
Zn5	Zn	1.450642	-0.063864	0.055429
Zn6	Zn	1.783975	0.269469	0.388762
Zn7	Zn	0.998508	-0.279751	-0.283209
Zn8	Zn	1.331842	0.053583	0.050124
Zn9	Zn	1.665175	0.386916	0.383457
Zn10	Zn	0.993167	-0.397160	-0.402042
Zn11	Zn	1.326500	-0.063827	-0.068708
Zn12	Zn	1.659833	0.269506	0.264625
O13	O	1.057918	-0.338464	-0.342638
O14	O	1.391252	-0.005131	-0.009305
O15	O	1.724585	0.328203	0.324028
O16	O	1.225899	-0.295342	-0.390242
O17	O	1.559233	0.037991	-0.056909
O18	O	1.892566	0.371325	0.276424
O19	O	1.101533	-0.381635	-0.174683
O20	O	1.434866	-0.048301	0.158651
O21	O	1.768200	0.285032	0.491984
O22	O	1.019469	-0.181461	-0.304145
O23	O	1.352802	0.151873	0.029188
O24	O	1.686135	0.485206	0.362522
O25	O	1.221946	-0.381632	-0.295104
O26	O	1.555280	-0.048299	0.038230
O27	O	1.888613	0.285035	0.371563
O28	O	1.110704	-0.181458	-0.395386
O29	O	1.444037	0.151875	-0.062053
O30	O	1.777370	0.485208	0.271280
O31	O	1.014251	-0.295347	-0.178580
O32	O	1.347584	0.037986	0.154753
O33	O	1.680918	0.371320	0.488087
O34	O	0.893876	-0.295311	-0.298951
O35	O	1.227209	0.038022	0.034382
O36	O	1.560543	0.371356	0.367716
O37	O	1.010365	-0.381569	-0.506677
O38	O	1.343698	-0.048235	-0.173344
O39	O	1.677031	0.285098	0.159989
O40	O	0.889951	-0.381571	-0.386256
O41	O	1.223285	-0.048238	-0.052923
O42	O	1.556618	0.285095	0.280410
O43	O	1.105524	-0.295306	-0.510613
O44	O	1.438858	0.038027	-0.177280
O45	O	1.772191	0.371361	0.156054
O46	O	1.096354	-0.495482	-0.289909
O47	O	1.429687	-0.162149	0.043424
O48	O	1.763020	0.171184	0.376757
O49	O	1.005147	-0.495455	-0.381112
O50	O	1.338480	-0.162122	-0.047779
O51	O	1.671814	0.171212	0.285554
C52	C	0.864967	-0.338438	-0.342598
C53	C	1.198301	-0.005105	-0.009265
C54	C	1.531634	0.328229	0.324068
C55	C	0.782421	-0.338444	-0.342598
C56	C	1.115755	-0.005110	-0.009265
C57	C	1.449088	0.328223	0.324068
C58	C	0.585086	-0.291481	-0.295238
C59	C	0.918419	0.041853	0.038095
C60	C	1.251752	0.375186	0.371428
C61	C	0.532780	-0.355544	-0.274069
C62	C	0.866113	-0.022211	0.059264
C63	C	1.199446	0.311123	0.392598
C64	C	0.631290	-0.338465	-0.342631
C65	C	0.964623	-0.005132	-0.009298
C66	C	1.297957	0.328202	0.324036
C67	C	0.536513	-0.274424	-0.363797
C68	C	0.869846	0.058909	-0.030464
C69	C	1.203180	0.392243	0.302870
C70	C	0.485304	-0.338480	-0.342661
C71	C	0.818637	-0.005147	-0.009328
C72	C	1.151971	0.328187	0.324005
C73	C	0.580070	-0.402562	-0.321425
C74	C	0.913403	-0.069228	0.011909
C75	C	1.246736	0.264105	0.345242
C76	C	0.583809	-0.321399	-0.411186
C77	C	0.917143	0.011935	-0.077853
C78	C	1.250476	0.345268	0.255480
C79	C	0.531524	-0.385506	-0.390041
C80	C	0.864857	-0.052173	-0.056708
C81	C	1.198190	0.281161	0.276626
C82	C	0.715389	-0.338455	-0.342612
C83	C	1.048722	-0.005122	-0.009278
C84	C	1.382055	0.328211	0.324055
C85	C	0.401207	-0.338497	-0.342680
C86	C	0.734540	-0.005163	-0.009347
C87	C	1.067874	0.328170	0.323986
C88	C	1.049607	-0.520954	-0.334370
C89	C	1.382940	-0.187621	-0.001037
C90	C	1.716274	0.145713	0.332296
C91	C	1.046119	-0.599024	-0.330858
C92	C	1.379453	-0.265691	0.002475
C93	C	1.712786	0.067643	0.335809
C94	C	1.091947	-0.635640	-0.376751
C95	C	1.425280	-0.302307	-0.043417
C96	C	1.758613	0.031027	0.289916
C97	C	1.088667	-0.708995	-0.373452
C98	C	1.422000	-0.375662	-0.040119
C99	C	1.755333	-0.042328	0.293215
C100	C	1.039563	-0.745733	-0.324256
C101	C	1.372896	-0.412399	0.009077
C102	C	1.706229	-0.079066	0.342411
C103	C	0.993730	-0.709112	-0.278361
C104	C	1.327064	-0.375778	0.054972
C105	C	1.660397	-0.042445	0.388306
C106	C	0.997007	-0.635758	-0.281664
C107	C	1.330340	-0.302425	0.051669
C108	C	1.663674	0.030909	0.385002
C109	C	1.027291	-0.967217	-0.311907
C110	C	1.360624	-0.633883	0.021426
C111	C	1.693957	-0.300550	0.354759
C112	C	1.024019	-1.040576	-0.308606
C113	C	1.357352	-0.707242	0.024727
C114	C	1.690686	-0.373909	0.358060
C115	C	1.118955	-1.040454	-0.403698
C116	C	1.452288	-0.707120	-0.070365
C117	C	1.785622	-0.373787	0.262968
C118	C	1.122231	-0.967099	-0.406994
C119	C	1.455564	-0.633765	-0.073661
C120	C	1.788897	-0.300432	0.259673
C121	C	1.076395	-0.930484	-0.361102
C122	C	1.409729	-0.597151	-0.027769
C123	C	1.743062	-0.263817	0.305565
C124	C	1.036210	-0.820713	-0.320881
C125	C	1.369544	-0.487380	0.012452
C126	C	1.702877	-0.154047	0.345786
C127	C	1.079744	-0.855505	-0.364481
C128	C	1.413078	-0.522171	-0.031148
C129	C	1.746411	-0.188838	0.302186
C130	C	1.251623	-0.338491	-0.342679
C131	C	1.584956	-0.005158	-0.009345
C132	C	1.918289	0.328176	0.323988
C133	C	1.334168	-0.338502	-0.342696
C134	C	1.667501	-0.005169	-0.009363
C135	C	2.000835	0.328164	0.323971
C136	C	1.057949	-0.338433	-0.536345
C137	C	1.391282	-0.005100	-0.203012
C138	C	1.724615	0.328234	0.130321
C139	C	1.057962	-0.338420	-0.618892
C140	C	1.391295	-0.005086	-0.285559
C141	C	1.724628	0.328247	0.047775
C142	C	1.066282	-0.155262	-0.350955
C143	C	1.399615	0.178072	-0.017622
C144	C	1.732949	0.511405	0.315712
C145	C	1.069846	-0.077191	-0.354499
C146	C	1.403180	0.256142	-0.021166
C147	C	1.736513	0.589475	0.312168
C148	C	1.006255	-0.385265	-0.816205
C149	C	1.339588	-0.051932	-0.482872
C150	C	1.672921	0.281401	-0.149539
C151	C	1.073236	-0.402439	-0.864828
C152	C	1.406570	-0.069106	-0.531495
C153	C	1.739903	0.264228	-0.198162
C154	C	1.058001	-0.338366	-0.770025
C155	C	1.391334	-0.005033	-0.436691
C156	C	1.724667	0.328301	-0.103358
C157	C	0.991057	-0.321173	-0.868484
C158	C	1.324391	0.012160	-0.535151
C159	C	1.657724	0.345494	-0.201818
C160	C	1.058032	-0.338316	-0.916012
C161	C	1.391366	-0.004982	-0.582679
C162	C	1.724699	0.328351	-0.249346
C163	C	1.125016	-0.355573	-0.817559
C164	C	1.458350	-0.022240	-0.484226
C165	C	1.791683	0.311093	-0.150892
C166	C	1.042793	-0.274278	-0.821212
C167	C	1.376126	0.059056	-0.487879
C168	C	1.709460	0.392389	-0.154545
C169	C	1.109822	-0.291427	-0.869814
C170	C	1.443156	0.041906	-0.536480
C171	C	1.776489	0.375240	-0.203147
C172	C	1.057981	-0.338397	-0.685925
C173	C	1.391315	-0.005064	-0.352592
C174	C	1.724648	0.328270	-0.019258
C175	C	1.058059	-0.338285	-1.000110
C176	C	1.391393	-0.004951	-0.666777
C177	C	1.724726	0.328382	-0.333444
C178	C	1.057933	-0.338444	-0.149687
C179	C	1.391266	-0.005111	0.183646
C180	C	1.724600	0.328222	0.516980
C181	C	1.058073	-0.338260	-0.067150
C182	C	1.391406	-0.004927	0.266183
C183	C	1.724739	0.328407	0.599517
H184	H	0.517245	-0.220266	-0.381661
H185	H	0.850579	0.113067	-0.048327
H186	H	1.183912	0.446400	0.285006
H187	H	0.984029	-1.070485	-0.268544
H188	H	1.317362	-0.737152	0.064789
H189	H	1.650696	-0.403819	0.398122
H190	H	0.934431	-0.306652	-0.890828
H191	H	1.267764	0.026681	-0.557495
H192	H	1.601098	0.360015	-0.224162
H193	H	0.606217	-0.306933	-0.469133
H194	H	0.939550	0.026400	-0.135800
H195	H	1.272883	0.359733	0.197533
H196	H	1.029890	-0.220116	-0.801941
H197	H	1.363224	0.113217	-0.468608
H198	H	1.696557	0.446550	-0.135274
H199	H	0.953745	-0.739029	-0.238308
H200	H	1.287079	-0.405696	0.095026
H201	H	1.620412	-0.072363	0.428359
H202	H	0.608531	-0.251791	-0.255112
H203	H	0.941865	0.081543	0.078221
H204	H	1.275198	0.414876	0.411554
H205	H	0.962532	-0.424978	-0.792735
H206	H	1.295865	-0.091645	-0.459402
H207	H	1.629199	0.241689	-0.126068
H208	H	0.599207	-0.456743	-0.303471
H209	H	0.932541	-0.123409	0.029862
H210	H	1.265874	0.209924	0.363195
H211	H	1.162215	-0.937188	-0.447053
H212	H	1.495548	-0.603855	-0.113720
H213	H	1.828882	-0.270522	0.219613
H214	H	0.959689	-0.605946	-0.244294
H215	H	1.293022	-0.272613	0.089039
H216	H	1.626355	0.060721	0.422372
H217	H	1.131936	-0.605733	-0.416808
H218	H	1.465269	-0.272400	-0.083475
H219	H	1.798602	0.060934	0.249859
H220	H	0.989971	-0.937411	-0.274539
H221	H	1.323305	-0.604077	0.058794
H222	H	1.656638	-0.270744	0.392128
H223	H	0.510391	-0.369990	-0.216106
H224	H	0.843724	-0.036657	0.117228
H225	H	1.177058	0.296677	0.450561
H226	H	1.086118	-0.456616	-0.884082
H227	H	1.419452	-0.123282	-0.550749
H228	H	1.752785	0.210051	-0.217416
H229	H	1.181657	-0.370156	-0.795304
H230	H	1.514990	-0.036822	-0.461970
H231	H	1.848323	0.296511	-0.128637
H232	H	0.508210	-0.425291	-0.430130
H233	H	0.841543	-0.091958	-0.096797
H234	H	1.174877	0.241375	0.236536
H235	H	1.119722	-0.825591	-0.404539
H236	H	1.453056	-0.492257	-0.071206
H237	H	1.786389	-0.158924	0.262127
H238	H	1.153644	-0.251744	-0.893146
H239	H	1.486978	0.081589	-0.559813
H240	H	1.820311	0.414922	-0.226480
H241	H	1.156270	-1.070273	-0.441062
H242	H	1.489604	-0.736940	-0.107728
H243	H	1.822937	-0.403607	0.225605
H244	H	1.125990	-0.738805	-0.410817
H245	H	1.459323	-0.405471	-0.077484
H246	H	1.792657	-0.072138	0.255850
H247	H	0.996232	-0.850634	-0.280823
H248	H	1.329565	-0.517300	0.052510
H249	H	1.662898	-0.183967	0.385843
