data_functionalizedCrystal
_audit_creation_method	'MofGen! by Chris Wilmer'
_symmetry_space_group_name_H-M	'P1'
_symmetry_Int_Tables_number	1
_symmetry_cell_setting	triclinic
loop_
_symmetry_equiv_pos_as_xyz
  x,y,z
_cell_length_a	14.853569
_cell_length_b	14.519709
_cell_length_c	13.330367
_cell_angle_alpha	89.994415
_cell_angle_beta	89.994419
_cell_angle_gamma	83.657855
loop_
_atom_site_label
_atom_site_type_symbol
_atom_site_fract_x
_atom_site_fract_y
_atom_site_fract_z
O1	O	1.196415	0.120412	-0.083380
O2	O	0.933961	0.134753	-0.083392
O3	O	1.072146	-0.006659	-0.083377
O4	O	1.058229	0.261824	-0.083395
O5	O	1.072126	-0.006662	0.083471
O6	O	0.933941	0.134750	0.083455
O7	O	1.196395	0.120408	0.083467
Cu8	Cu	1.065166	0.127579	0.098696
Cu9	Cu	1.065190	0.127583	-0.098620
O10	O	1.058209	0.261820	0.083452
C11	C	0.900362	0.134102	0.000030
C12	C	0.800278	0.132153	0.000026
C13	C	0.763868	0.047238	0.000028
C14	C	0.742644	0.215239	0.000027
C15	C	0.648609	0.213412	0.000029
C16	C	0.612199	0.128496	0.000031
C17	C	0.669825	0.045407	0.000032
C18	C	0.590977	0.296498	0.000038
C19	C	0.496936	0.294674	0.000040
C20	C	0.460525	0.209757	0.000035
C21	C	0.518156	0.126666	0.000035
C22	C	0.481747	0.041750	0.000038
C23	C	0.539377	-0.041343	0.000031
C24	C	0.633414	-0.039509	0.000027
C25	C	0.366487	0.207924	0.000039
C26	C	0.387703	0.039920	0.000042
C27	C	1.071488	-0.041020	0.000047
C28	C	1.069544	-0.143400	0.000048
C29	C	1.062389	-0.518293	0.000021
C30	C	1.064376	-0.413986	0.000029
C31	C	1.065966	-0.330850	0.000035
C32	C	1.067954	-0.226536	0.000041
C33	C	1.229994	0.121060	0.000043
C34	C	1.330078	0.123008	0.000041
C35	C	1.058868	0.296182	0.000026
C36	C	1.060811	0.398562	0.000019
N37	N	1.065156	0.127576	0.237477
N38	N	1.065207	0.127579	-0.237402
C39	C	1.003998	0.190175	0.710093
C40	C	1.126405	0.064983	0.710075
C41	C	1.126395	0.064980	0.605057
C42	C	1.065186	0.127577	0.552552
C43	C	1.003988	0.190176	0.605065
C44	C	1.187598	0.002388	0.552535
C45	C	1.187591	0.002383	0.447510
C46	C	1.126378	0.064976	0.395004
C47	C	1.065176	0.127578	0.447524
C48	C	1.003968	0.190174	0.395019
C49	C	0.942761	0.252772	0.447537
C50	C	0.942775	0.252769	0.552558
C51	C	1.126364	0.064979	0.289982
C52	C	1.003957	0.190175	0.289991
H53	H	0.509720	-0.110482	0.000026
H54	H	0.810794	-0.020414	0.000018
H55	H	0.892943	0.303735	0.595325
H56	H	0.954162	0.241139	0.752856
H57	H	1.176244	0.014023	0.752828
N58	N	0.628163	0.383234	0.000022
N59	N	0.610558	0.439283	-0.070305
H60	H	0.636823	0.500544	-0.070318
N61	N	1.250131	-0.061559	0.393904
N62	N	1.248793	-0.146808	0.405654
H63	H	1.292972	-0.191965	0.367801
H64	H	0.358067	-0.029230	0.000039
N65	N	1.188876	0.001013	0.236377
N66	N	1.244911	0.030311	0.177753
H67	H	1.289062	-0.014885	0.139914
N68	N	0.779819	0.301980	0.000041
N69	N	0.762205	0.358014	0.070372
H70	H	0.788462	0.419280	0.070382
H71	H	0.954111	0.241146	0.247247
H72	H	0.450021	0.362334	0.000044
H73	H	0.319569	0.275577	0.000053
H74	H	0.892929	0.303743	0.404775
N75	N	0.692293	-0.124371	0.000016
N76	N	0.776253	-0.122722	0.000015
H77	H	0.817841	-0.182654	0.000009
N78	N	1.250147	-0.061505	0.606181
N79	N	1.250162	-0.061476	0.699950
H80	H	1.294350	-0.106592	0.737843
