data_functionalizedCrystal
_audit_creation_method	'MofGen! by Chris Wilmer'
_symmetry_space_group_name_H-M	'P1'
_symmetry_Int_Tables_number	1
_symmetry_cell_setting	triclinic
loop_
_symmetry_equiv_pos_as_xyz
  x,y,z
_cell_length_a	25.639242
_cell_length_b	25.639240
_cell_length_c	12.759393
_cell_angle_alpha	89.956840
_cell_angle_beta	89.968488
_cell_angle_gamma	90.028283
loop_
_atom_site_label
_atom_site_type_symbol
_atom_site_fract_x
_atom_site_fract_y
_atom_site_fract_z
Zn1	Zn	0.799295	-0.208188	-0.594224
Zn2	Zn	1.132628	0.125146	-0.260891
Zn3	Zn	1.465962	0.458479	0.072443
Zn4	Zn	0.799213	-0.295633	-0.418505
Zn5	Zn	1.132546	0.037700	-0.085172
Zn6	Zn	1.465880	0.371034	0.248161
Zn7	Zn	0.711857	-0.208206	-0.418527
Zn8	Zn	1.045190	0.125127	-0.085193
Zn9	Zn	1.378524	0.458460	0.248140
Zn10	Zn	0.711825	-0.295587	-0.594110
Zn11	Zn	1.045159	0.037746	-0.260777
Zn12	Zn	1.378492	0.371079	0.072557
O13	O	0.755548	-0.251904	-0.506341
O14	O	1.088881	0.081430	-0.173008
O15	O	1.422214	0.414763	0.160325
O16	O	0.872449	-0.219799	-0.570953
O17	O	1.205783	0.113534	-0.237620
O18	O	1.539116	0.446868	0.095714
O19	O	0.787604	-0.284063	-0.271487
O20	O	1.120937	0.049271	0.061846
O21	O	1.454271	0.382604	0.395180
O22	O	0.723503	-0.135039	-0.441890
O23	O	1.056837	0.198295	-0.108557
O24	O	1.390170	0.531628	0.224777
O25	O	0.872389	-0.284044	-0.441853
O26	O	1.205722	0.049289	-0.108520
O27	O	1.539056	0.382622	0.224813
O28	O	0.787743	-0.135025	-0.570974
O29	O	1.121077	0.198308	-0.237641
O30	O	1.454410	0.531642	0.095693
O31	O	0.723424	-0.219831	-0.271503
O32	O	1.056757	0.113503	0.061831
O33	O	1.390091	0.446836	0.395164
O34	O	0.638688	-0.219786	-0.441780
O35	O	0.972021	0.113547	-0.108446
O36	O	1.305354	0.446880	0.224887
O37	O	0.723449	-0.283967	-0.741146
O38	O	1.056783	0.049367	-0.407813
O39	O	1.390116	0.382700	-0.074480
O40	O	0.638664	-0.283985	-0.570780
O41	O	0.971998	0.049349	-0.237446
O42	O	1.305331	0.382682	0.095887
O43	O	0.787713	-0.219755	-0.741230
O44	O	1.121046	0.113579	-0.407897
O45	O	1.454380	0.446912	-0.074563
O46	O	0.787574	-0.368792	-0.441743
O47	O	1.120907	-0.035459	-0.108410
O48	O	1.454240	0.297875	0.224924
O49	O	0.723370	-0.368759	-0.570759
O50	O	1.056703	-0.035425	-0.237426
O51	O	1.390037	0.297908	0.095908
C52	C	0.619705	-0.251883	-0.506270
C53	C	0.953038	0.081450	-0.172937
C54	C	1.286372	0.414784	0.160396
C55	C	0.561591	-0.251887	-0.506265
C56	C	0.894924	0.081447	-0.172931
C57	C	1.228258	0.414780	0.160402
C58	C	0.201225	-0.285388	-0.573448
C59	C	0.534558	0.047946	-0.240115
C60	C	0.867891	0.381279	0.093218
C61	C	0.146620	-0.285391	-0.573465
C62	C	0.479954	0.047943	-0.240131
C63	C	0.813287	0.381276	0.093202
O64	O	0.118381	-0.313849	-0.630526
O65	O	0.451714	0.019485	-0.297193
O66	O	0.785048	0.352818	0.036140
N67	N	0.119308	-0.251918	-0.506410
N68	N	0.452642	0.081415	-0.173077
N69	N	0.785975	0.414749	0.160257
C70	C	0.146604	-0.218436	-0.439342
C71	C	0.479937	0.114897	-0.106008
C72	C	0.813270	0.448231	0.227325
O73	O	0.118359	-0.189965	-0.382309
O74	O	0.451692	0.143368	-0.048975
O75	O	0.785026	0.476702	0.284358
C76	C	0.201207	-0.218431	-0.439331
C77	C	0.534540	0.114903	-0.105998
C78	C	0.867874	0.448236	0.227335
C79	C	0.228516	-0.251909	-0.506383
C80	C	0.561849	0.081424	-0.173050
C81	C	0.895183	0.414757	0.160284
C82	C	0.228534	-0.318863	-0.640495
C83	C	0.561867	0.014470	-0.307162
C84	C	0.895200	0.347804	0.026171
C85	C	0.283134	-0.318860	-0.640477
C86	C	0.616468	0.014473	-0.307144
C87	C	0.949801	0.347806	0.026190
C88	C	0.310426	-0.285382	-0.573412
C89	C	0.643759	0.047951	-0.240078
C90	C	0.977092	0.381284	0.093255
C91	C	0.283117	-0.251907	-0.506365
C92	C	0.616450	0.081427	-0.173031
C93	C	0.949783	0.414760	0.160302
C94	C	0.228501	-0.184947	-0.372269
C95	C	0.561835	0.148387	-0.038936
C96	C	0.895168	0.481720	0.294398
C97	C	0.283108	-0.184944	-0.372265
C98	C	0.616442	0.148390	-0.038932
C99	C	0.949775	0.481723	0.294402
C100	C	0.310417	-0.218422	-0.439317
C101	C	0.643751	0.114911	-0.105983
C102	C	0.977084	0.448244	0.227350
C103	C	0.365009	-0.218426	-0.439281
C104	C	0.698342	0.114907	-0.105948
C105	C	1.031675	0.448241	0.227385
N106	N	0.392321	-0.251899	-0.506336
N107	N	0.725654	0.081435	-0.173003
N108	N	1.058987	0.414768	0.160331
C109	C	0.365029	-0.285377	-0.573401
C110	C	0.698362	0.047957	-0.240068
C111	C	1.031696	0.381290	0.093265
C112	C	0.031933	-0.218449	-0.439370
C113	C	0.365266	0.114884	-0.106037
C114	C	0.698600	0.448217	0.227296
C115	C	-0.022669	-0.218457	-0.439375
C116	C	0.310664	0.114876	-0.106041
C117	C	0.643997	0.448210	0.227292
C118	C	-0.022649	-0.285411	-0.573499
C119	C	0.310685	0.047922	-0.240166
C120	C	0.644018	0.381255	0.093167
C121	C	0.031955	-0.285406	-0.573489
C122	C	0.365288	0.047928	-0.240155
C123	C	0.698621	0.381261	0.093178
C124	C	0.059245	-0.251922	-0.506425
C125	C	0.392578	0.081411	-0.173092
C126	C	0.725912	0.414744	0.160242
C127	C	0.479694	-0.285369	-0.573357
C128	C	0.813028	0.047964	-0.240024
C129	C	1.146361	0.381298	0.093309
C130	C	0.534300	-0.285365	-0.573330
C131	C	0.867633	0.047968	-0.239997
C132	C	1.200966	0.381302	0.093337
C133	C	0.534274	-0.218409	-0.439210
C134	C	0.867608	0.114924	-0.105876
C135	C	1.200941	0.448257	0.227457
C136	C	0.479674	-0.218415	-0.439233
C137	C	0.813007	0.114918	-0.105899
C138	C	1.146340	0.448252	0.227434
C139	C	0.452385	-0.251897	-0.506315
C140	C	0.785718	0.081437	-0.172982
C141	C	1.119052	0.414770	0.160352
O142	O	0.393283	-0.189981	-0.382252
O143	O	0.726616	0.143352	-0.048918
O144	O	1.059949	0.476686	0.284415
O145	O	0.393281	-0.313838	-0.630435
O146	O	0.726614	0.019495	-0.297101
O147	O	1.059947	0.352828	0.036232
C148	C	0.755474	-0.387746	-0.506259
C149	C	1.088807	-0.054413	-0.172926
C150	C	1.422140	0.278920	0.160408
C151	C	0.755490	-0.445860	-0.506259
C152	C	1.088823	-0.112527	-0.172926
C153	C	1.422157	0.220806	0.160408
C154	C	0.789014	-0.806178	-0.573677
C155	C	1.122347	-0.472844	-0.240343
C156	C	1.455681	-0.139511	0.092990
C157	C	0.789030	-0.860782	-0.573698
C158	C	1.122363	-0.527449	-0.240365
C159	C	1.455696	-0.194115	0.092969
O160	O	0.817445	-0.888980	-0.630934
O161	O	1.150778	-0.555647	-0.297601
O162	O	1.484112	-0.222313	0.035732
N163	N	0.755620	-0.888143	-0.506443
N164	N	1.088953	-0.554809	-0.173110
N165	N	1.422287	-0.221476	0.160224
C166	C	0.722189	-0.860896	-0.439170
C167	C	1.055523	-0.527563	-0.105836
C168	C	1.388856	-0.194230	0.227497
O169	O	0.693773	-0.889183	-0.381967
O170	O	1.027106	-0.555849	-0.048633
O171	O	1.360440	-0.222516	0.284700
C172	C	0.722172	-0.806293	-0.439154
C173	C	1.055505	-0.472960	-0.105821
C174	C	1.388838	-0.139626	0.227512
C175	C	0.755587	-0.778935	-0.506406
C176	C	1.088920	-0.445602	-0.173073
C177	C	1.422254	-0.112268	0.160260
C178	C	0.822426	-0.778820	-0.640924
C179	C	1.155760	-0.445486	-0.307591
C180	C	1.489093	-0.112153	0.025743
C181	C	0.822411	-0.724219	-0.640901
C182	C	1.155745	-0.390886	-0.307568
C183	C	1.489078	-0.057552	0.025766
C184	C	0.788984	-0.696977	-0.573631
C185	C	1.122318	-0.363643	-0.240297
C186	C	1.455651	-0.030310	0.093036
C187	C	0.755572	-0.724334	-0.506383
C188	C	1.088905	-0.391001	-0.173050
C189	C	1.422239	-0.057668	0.160283
C190	C	0.688739	-0.779047	-0.371887
C191	C	1.022072	-0.445714	-0.038554
C192	C	1.355405	-0.112381	0.294779
C193	C	0.688724	-0.724440	-0.371878
C194	C	1.022057	-0.391107	-0.038545
C195	C	1.355390	-0.057774	0.294788
C196	C	0.722139	-0.697083	-0.439130
C197	C	1.055472	-0.363749	-0.105797
C198	C	1.388806	-0.030416	0.227536
C199	C	0.722130	-0.642491	-0.439090
C200	C	1.055464	-0.309158	-0.105757
C201	C	1.388797	0.024175	0.227577
N202	N	0.755540	-0.615131	-0.506345
N203	N	1.088873	-0.281797	-0.173012
N204	N	1.422206	0.051536	0.160322
C205	C	0.788967	-0.642373	-0.573615
C206	C	1.122300	-0.309040	-0.240282
C207	C	1.455633	0.024293	0.093051
C208	C	0.722228	-0.975567	-0.439208
C209	C	1.055562	-0.642233	-0.105875
C210	C	1.388895	-0.308900	0.227458
C211	C	0.722248	-1.030169	-0.439217
C212	C	1.055582	-0.696836	-0.105884
C213	C	1.388915	-0.363502	0.227449
C214	C	0.789088	-1.030051	-0.573747
C215	C	1.122421	-0.696718	-0.240414
C216	C	1.455755	-0.363384	0.092919
C217	C	0.789070	-0.975448	-0.573732
C218	C	1.122404	-0.642114	-0.240399
C219	C	1.455737	-0.308781	0.092934
C220	C	0.755638	-0.948206	-0.506463
C221	C	1.088971	-0.614873	-0.173130
C222	C	1.422304	-0.281539	0.160203
C223	C	0.788933	-0.527708	-0.573561
C224	C	1.122267	-0.194375	-0.240228
C225	C	1.455600	0.138958	0.093105
C226	C	0.788917	-0.473103	-0.573529
C227	C	1.122250	-0.139770	-0.240196
C228	C	1.455584	0.193564	0.093137
C229	C	0.722076	-0.473226	-0.439004
C230	C	1.055409	-0.139892	-0.105670
C231	C	1.388742	0.193441	0.227663
C232	C	0.722094	-0.527826	-0.439031
C233	C	1.055427	-0.194493	-0.105698
C234	C	1.388760	0.138840	0.227635
C235	C	0.755524	-0.555066	-0.506319
C236	C	1.088858	-0.221733	-0.172985
C237	C	1.422191	0.111600	0.160348
O238	O	0.693728	-0.614259	-0.381886
O239	O	1.027061	-0.280925	-0.048553
O240	O	1.360394	0.052408	0.284781
O241	O	0.817373	-0.614080	-0.630819
O242	O	1.150707	-0.280747	-0.297485
O243	O	1.484040	0.052586	0.035848
C244	C	0.891921	-0.251925	-0.506414
C245	C	1.225254	0.081409	-0.173080
C246	C	1.558587	0.414742	0.160253
C247	C	0.950035	-0.251934	-0.506444
C248	C	1.283368	0.081400	-0.173111
C249	C	1.616701	0.414733	0.160222
C250	C	0.755587	-0.251853	-0.780375
C251	C	1.088920	0.081480	-0.447042
C252	C	1.422253	0.414813	-0.113708
C253	C	0.755603	-0.251832	-0.897152
C254	C	1.088937	0.081501	-0.563818
C255	C	1.422270	0.414835	-0.230485
C256	C	0.755636	-0.115531	-0.506447
C257	C	1.088969	0.217803	-0.173114
C258	C	1.422303	0.551136	0.160220
C259	C	0.755674	-0.057416	-0.506492
C260	C	1.089007	0.275917	-0.173159
C261	C	1.422340	0.609250	0.160175
C262	C	0.789068	-0.218392	-0.952059
C263	C	1.122401	0.114942	-0.618726
C264	C	1.455735	0.448275	-0.285392
C265	C	0.789077	-0.218369	-1.061783
C266	C	1.122410	0.114964	-0.728450
C267	C	1.455743	0.448298	-0.395116
C268	C	0.722155	-0.285232	-1.061683
C269	C	1.055488	0.048101	-0.728350
C270	C	1.388822	0.381435	-0.395016
C271	C	0.722144	-0.285251	-0.951961
C272	C	1.055477	0.048082	-0.618628
C273	C	1.388811	0.381415	-0.285294
C274	C	0.755539	-0.251916	-0.233374
C275	C	1.088872	0.081417	0.099959
C276	C	1.422205	0.414751	0.433293
C277	C	0.755623	-0.251790	-0.116598
C278	C	1.088957	0.081543	0.216735
C279	C	1.422290	0.414877	0.550069
H280	H	0.457482	-0.312632	-0.627984
H281	H	0.790815	0.020702	-0.294651
H282	H	1.124149	0.354035	0.038682
Cl283	Cl	0.831110	-1.064309	-0.658319
Cl284	Cl	1.164443	-0.730976	-0.324985
Cl285	Cl	1.497777	-0.397642	0.008348
Cl286	Cl	0.066280	-0.327493	-0.657788
Cl287	Cl	0.399614	0.005840	-0.324454
Cl288	Cl	0.732947	0.339173	0.008879
H289	H	0.206319	-0.346125	-0.695114
H290	H	0.539652	-0.012792	-0.361780
H291	H	0.872986	0.320541	-0.028447
H292	H	0.695044	-1.052439	-0.384443
H293	H	1.028377	-0.719106	-0.051109
H294	H	1.361710	-0.385773	0.282224
Cl295	Cl	-0.056968	-0.327493	-0.657821
Cl296	Cl	0.276365	0.005840	-0.324488
Cl297	Cl	0.609698	0.339173	0.008845
H298	H	0.816311	-0.191178	-0.907436
H299	H	1.149645	0.142156	-0.574103
H300	H	1.482978	0.475489	-0.240770
Cl301	Cl	0.831078	-0.941061	-0.658283
Cl302	Cl	1.164412	-0.607727	-0.324949
Cl303	Cl	1.497745	-0.274394	0.008384
Cl304	Cl	0.317413	-0.142847	-0.287951
Cl305	Cl	0.650746	0.190486	0.045382
Cl306	Cl	0.984080	0.523820	0.378715
H307	H	-0.044900	-0.191201	-0.384764
H308	H	0.288434	0.142133	-0.051430
H309	H	0.621767	0.475466	0.281903
Cl310	Cl	0.680068	-0.327292	-0.882929
Cl311	Cl	1.013401	0.006042	-0.549596
Cl312	Cl	1.346735	0.339375	-0.216263
Cl313	Cl	0.830962	-0.561944	-0.658149
Cl314	Cl	1.164296	-0.228611	-0.324816
Cl315	Cl	1.497629	0.104722	0.008518
Cl316	Cl	0.680055	-0.438968	-0.354440
Cl317	Cl	1.013389	-0.105634	-0.021107
Cl318	Cl	1.346722	0.227699	0.312227
H319	H	0.695005	-0.953389	-0.384421
H320	H	1.028339	-0.620056	-0.051088
H321	H	1.361672	-0.286723	0.282246
Cl322	Cl	0.568594	-0.176324	-0.354905
Cl323	Cl	0.901927	0.157009	-0.021572
Cl324	Cl	1.235260	0.490343	0.311762
H325	H	0.694915	-0.312442	-1.106322
H326	H	1.028248	0.020891	-0.772989
H327	H	1.361582	0.354225	-0.439655
H328	H	0.556532	-0.312629	-0.627932
H329	H	0.889865	0.020704	-0.294599
H330	H	1.223199	0.354037	0.038734
Cl331	Cl	0.646726	-0.813427	-0.287340
Cl332	Cl	0.980059	-0.480094	0.045993
Cl333	Cl	1.313392	-0.146760	0.379326
Cl334	Cl	0.831153	-0.176332	-1.130805
Cl335	Cl	1.164486	0.157001	-0.797472
Cl336	Cl	1.497820	0.490335	-0.464138
H337	H	0.305365	-0.346121	-0.695080
H338	H	0.638698	-0.012788	-0.361746
H339	H	0.972031	0.320546	-0.028413
H340	H	0.206276	-0.157686	-0.317666
H341	H	0.539609	0.175647	0.015668
H342	H	0.872942	0.508981	0.349001
Cl343	Cl	0.066236	-0.176356	-0.355044
Cl344	Cl	0.399569	0.156978	-0.021711
Cl345	Cl	0.732902	0.490311	0.311622
Cl346	Cl	0.830929	-0.438713	-0.658080
Cl347	Cl	1.164262	-0.105380	-0.324746
Cl348	Cl	1.497595	0.227953	0.008587
Cl349	Cl	0.864417	-0.689835	-0.725460
Cl350	Cl	1.197751	-0.356501	-0.392127
Cl351	Cl	1.531084	-0.023168	-0.058793
Cl352	Cl	0.864453	-0.813058	-0.725508
Cl353	Cl	1.197787	-0.479724	-0.392174
Cl354	Cl	1.531120	-0.146391	-0.058841
Cl355	Cl	0.445341	-0.176335	-0.354921
Cl356	Cl	0.778675	0.156998	-0.021588
Cl357	Cl	1.112008	0.490331	0.311745
Cl358	Cl	0.646692	-0.690197	-0.287306
Cl359	Cl	0.980025	-0.356864	0.046028
Cl360	Cl	1.313358	-0.023531	0.379361
H361	H	0.694888	-0.550102	-0.384261
H362	H	1.028222	-0.216769	-0.050928
H363	H	1.361555	0.116564	0.282406
