data_functionalizedCrystal
_audit_creation_method	'MofGen! by Chris Wilmer'
_symmetry_space_group_name_H-M	'P1'
_symmetry_Int_Tables_number	1
_symmetry_cell_setting	triclinic
loop_
_symmetry_equiv_pos_as_xyz
  x,y,z
_cell_length_a	21.395362
_cell_length_b	12.594516
_cell_length_c	21.395356
_cell_angle_alpha	89.981492
_cell_angle_beta	89.964230
_cell_angle_gamma	90.031933
loop_
_atom_site_label
_atom_site_type_symbol
_atom_site_fract_x
_atom_site_fract_y
_atom_site_fract_z
Zn1	Zn	0.957873	-0.423340	-0.354617
Zn2	Zn	1.457873	0.076660	0.145383
Zn3	Zn	0.957817	-0.601326	-0.249852
Zn4	Zn	1.457817	-0.101326	0.250148
Zn5	Zn	0.853103	-0.423411	-0.249818
Zn6	Zn	1.353103	0.076589	0.250182
Zn7	Zn	0.853084	-0.601326	-0.354557
Zn8	Zn	1.353084	-0.101326	0.145443
O9	O	0.905469	-0.512351	-0.302211
O10	O	1.405469	-0.012351	0.197789
O11	O	1.045543	-0.446920	-0.340759
O12	O	1.545543	0.053080	0.159241
O13	O	0.943911	-0.577755	-0.162170
O14	O	1.443911	-0.077755	0.337830
O15	O	0.867032	-0.274456	-0.263730
O16	O	1.367032	0.225544	0.236270
O17	O	1.045502	-0.577686	-0.263789
O18	O	1.545502	-0.077686	0.236211
O19	O	0.944006	-0.274403	-0.340725
O20	O	1.444006	0.225597	0.159275
O21	O	0.866978	-0.447042	-0.162144
O22	O	1.366978	0.052958	0.337856
O23	O	0.765422	-0.447042	-0.263672
O24	O	1.265422	0.052958	0.236328
O25	O	0.867000	-0.577686	-0.442243
O26	O	1.367000	-0.077686	0.057757
O27	O	0.765408	-0.577755	-0.340624
O28	O	1.265408	-0.077755	0.159376
O29	O	0.943988	-0.446920	-0.442287
O30	O	1.443988	0.053080	0.057713
O31	O	0.943893	-0.750272	-0.263731
O32	O	1.443893	-0.250272	0.236269
O33	O	0.866945	-0.750272	-0.340657
O34	O	1.366945	-0.250272	0.159343
C35	C	0.742681	-0.512407	-0.302138
C36	C	1.242681	-0.012407	0.197862
C37	C	0.673040	-0.512457	-0.302122
C38	C	1.173040	-0.012457	0.197878
C39	C	0.640336	-0.580609	-0.342130
C40	C	1.140336	-0.080609	0.157870
C41	C	0.574901	-0.580583	-0.342158
C42	C	1.074901	-0.080583	0.157842
C43	C	0.542172	-0.512416	-0.302167
C44	C	1.042172	-0.012416	0.197833
C45	C	0.574884	-0.444250	-0.262155
C46	C	1.074884	0.055750	0.237845
C47	C	0.640318	-0.444270	-0.262133
C48	C	1.140318	0.055730	0.237867
C49	C	0.438454	-0.503853	-0.245761
C50	C	0.938454	-0.003853	0.254239
C51	C	0.373021	-0.503840	-0.245782
C52	C	0.873021	-0.003840	0.254218
C53	C	0.340351	-0.512346	-0.302236
C54	C	0.840351	-0.012346	0.197764
C55	C	0.373122	-0.520888	-0.358670
C56	C	0.873122	-0.020888	0.141330
C57	C	0.438556	-0.520908	-0.358648
C58	C	0.938556	-0.020908	0.141352
C59	C	0.471219	-0.512385	-0.302187
C60	C	0.971219	-0.012385	0.197813
C61	C	0.236695	-0.580474	-0.342278
C62	C	0.736695	-0.080474	0.157722
C63	C	0.171258	-0.580441	-0.342307
C64	C	0.671258	-0.080441	0.157693
C65	C	0.171242	-0.444113	-0.262298
C66	C	0.671242	0.055887	0.237702
C67	C	0.236677	-0.444141	-0.262275
C68	C	0.736677	0.055859	0.237725
C69	C	0.269400	-0.512327	-0.302264
C70	C	0.769400	-0.012327	0.197736
C71	C	0.905428	-0.788892	-0.302205
C72	C	1.405428	-0.288892	0.197795
C73	C	0.905468	-0.907197	-0.302223
C74	C	1.405468	-0.407197	0.197777
C75	C	0.863612	-0.976489	-0.344034
C76	C	1.363612	-0.476489	0.155966
C77	C	0.848351	-1.047348	-0.286856
C78	C	1.348351	-0.547348	0.213144
C79	C	0.920786	-1.047137	-0.359410
C80	C	1.420786	-0.547137	0.140590
C81	C	0.890176	-0.976498	-0.245015
C82	C	1.390176	-0.476498	0.254985
C83	C	0.962638	-0.976280	-0.317608
C84	C	1.462638	-0.476280	0.182392
C85	C	0.947398	-1.047108	-0.260391
C86	C	1.447398	-0.547108	0.239609
C87	C	1.068892	-0.512295	-0.302284
C88	C	1.568892	-0.012295	0.197716
C89	C	1.138534	-0.512271	-0.302315
C90	C	1.638534	-0.012271	0.197685
C91	C	0.905498	-0.512295	-0.465634
C92	C	1.405498	-0.012295	0.034366
C93	C	0.905510	-0.512271	-0.535275
C94	C	1.405510	-0.012271	-0.035275
C95	C	0.905527	-0.234730	-0.302231
C96	C	1.405527	0.265270	0.197769
C97	C	0.905552	-0.116424	-0.302239
C98	C	1.405552	0.383576	0.197761
C99	C	0.945639	-0.580110	-1.037085
C100	C	1.445639	-0.080110	-0.537085
C101	C	0.945628	-0.580144	-0.971650
C102	C	1.445628	-0.080144	-0.471650
C103	C	0.905570	-0.512102	-0.938914
C104	C	1.405570	-0.012102	-0.438914
C105	C	0.865508	-0.444041	-0.971619
C106	C	1.365508	0.055959	-0.471619
C107	C	0.865516	-0.444017	-1.037053
C108	C	1.365516	0.055983	-0.537053
C109	C	0.900630	-0.416247	-0.835250
C110	C	1.400630	0.083753	-0.335250
C111	C	0.900626	-0.416270	-0.769817
C112	C	1.400626	0.083730	-0.269817
C113	C	0.905541	-0.512178	-0.737093
C114	C	1.405541	-0.012178	-0.237093
C115	C	0.910474	-0.608066	-0.769810
C116	C	1.410474	-0.108066	-0.269810
C117	C	0.910481	-0.608042	-0.835244
C118	C	1.410481	-0.108042	-0.335244
C119	C	0.905556	-0.512121	-0.867962
C120	C	1.405556	-0.012121	-0.367962
C121	C	0.945585	-0.580277	-0.633444
C122	C	1.445585	-0.080277	-0.133444
C123	C	0.945570	-0.580312	-0.568007
C124	C	1.445570	-0.080312	-0.068007
C125	C	0.865453	-0.444200	-0.567977
C126	C	1.365453	0.055800	-0.067977
C127	C	0.865465	-0.444173	-0.633412
C128	C	1.365465	0.055827	-0.133412
C129	C	0.905535	-0.512210	-0.666142
C130	C	1.405535	-0.012210	-0.166142
C131	C	0.905476	-0.512330	-0.139423
C132	C	1.405476	-0.012330	0.360577
C133	C	0.905586	-0.512054	-0.069782
C134	C	1.405586	-0.012054	0.430218
H135	H	0.263338	-0.635990	-0.374843
H136	H	0.763338	-0.135990	0.125157
H137	H	0.877198	-0.945598	-0.196646
H138	H	1.377198	-0.445598	0.303354
H139	H	0.465048	-0.496922	-0.199786
H140	H	0.965048	0.003078	0.300214
H141	H	0.982830	-1.077921	-0.224999
H142	H	1.482830	-0.577921	0.275001
H143	H	0.666945	-0.388769	-0.229553
H144	H	1.166945	0.111231	0.270447
H145	H	0.978183	-0.635742	-0.541386
H146	H	1.478183	-0.135742	-0.041386
Cl147	Cl	0.331829	-0.493101	-0.174837
Cl148	Cl	0.831829	0.006899	0.325163
H149	H	0.914477	-0.686164	-0.743168
H150	H	1.414477	-0.186164	-0.243168
Cl151	Cl	1.037206	-0.928048	-0.337720
Cl152	Cl	1.537206	-0.428048	0.162280
Cl153	Cl	0.815077	-0.358688	-0.526829
Cl154	Cl	1.315077	0.141312	-0.026829
H155	H	0.933708	-1.078165	-0.407766
H156	H	1.433708	-0.578165	0.092234
Cl157	Cl	0.996005	-0.665654	-1.078228
Cl158	Cl	1.496005	-0.165654	-0.578228
Cl159	Cl	0.277793	-0.358461	-0.211973
Cl160	Cl	0.777793	0.141539	0.288027
Cl161	Cl	0.995956	-0.665808	-0.674592
Cl162	Cl	1.495956	-0.165808	-0.174592
H163	H	0.144632	-0.635937	-0.374890
H164	H	0.644632	-0.135937	0.125110
H165	H	0.832899	-0.388594	-1.063674
H166	H	1.332899	0.111406	-0.563674
H167	H	0.828153	-0.945479	-0.379340
H168	H	1.328153	-0.445479	0.120660
Cl169	Cl	0.130103	-0.358409	-0.212026
Cl170	Cl	0.630103	0.141591	0.287974
H171	H	0.548232	-0.388746	-0.229595
H172	H	1.048232	0.111254	0.270405
Cl173	Cl	0.995985	-0.665708	-0.930537
Cl174	Cl	1.495985	-0.165708	-0.430537
Cl175	Cl	0.916677	-0.728582	-0.876372
Cl176	Cl	1.416677	-0.228582	-0.376372
Cl177	Cl	0.815100	-0.358626	-0.674519
Cl178	Cl	1.315100	0.141374	-0.174519
H179	H	0.800042	-1.078587	-0.273857
H180	H	1.300042	-0.578587	0.226143
H181	H	0.896614	-0.338191	-0.743184
H182	H	1.396614	0.161809	-0.243184
H183	H	0.896668	-0.338135	-0.861889
H184	H	1.396668	0.161865	-0.361889
Cl185	Cl	0.815150	-0.358500	-0.930466
Cl186	Cl	1.315150	0.141500	-0.430466
H187	H	0.548268	-0.636081	-0.374740
H188	H	1.048268	-0.136081	0.125260
Cl189	Cl	0.681469	-0.666324	-0.392405
Cl190	Cl	1.181469	-0.166324	0.107595
H191	H	0.465236	-0.527860	-0.404598
H192	H	0.965236	-0.027860	0.095402
H193	H	0.346524	-0.527813	-0.404640
H194	H	0.846524	-0.027813	0.095360
