data_functionalizedCrystal
_audit_creation_method	'MofGen! by Chris Wilmer'
_symmetry_space_group_name_H-M	'P1'
_symmetry_Int_Tables_number	1
_symmetry_cell_setting	triclinic
loop_
_symmetry_equiv_pos_as_xyz
  x,y,z
_cell_length_a	12.645331
_cell_length_b	12.645330
_cell_length_c	12.645323
_cell_angle_alpha	89.972994
_cell_angle_beta	89.984262
_cell_angle_gamma	90.011881
loop_
_atom_site_label
_atom_site_type_symbol
_atom_site_fract_x
_atom_site_fract_y
_atom_site_fract_z
Zn1	Zn	1.620768	-0.422053	-0.599234
Zn2	Zn	1.620666	-0.599341	-0.421968
Zn3	Zn	1.443483	-0.422089	-0.422000
Zn4	Zn	1.443480	-0.599272	-0.599205
O5	O	1.532099	-0.510689	-0.510602
O6	O	1.769102	-0.445584	-0.575718
O7	O	1.597120	-0.575872	-0.273625
O8	O	1.467044	-0.273737	-0.445537
O9	O	1.769026	-0.575836	-0.445481
O10	O	1.597295	-0.273710	-0.575750
O11	O	1.466945	-0.445646	-0.273648
O12	O	1.295135	-0.445580	-0.445508
O13	O	1.467040	-0.575720	-0.747556
O14	O	1.295133	-0.575755	-0.575699
O15	O	1.597293	-0.445517	-0.747578
O16	O	1.597118	-0.747679	-0.445453
O17	O	1.466940	-0.747629	-0.575668
C18	C	1.256670	-0.510665	-0.510604
C19	C	1.138840	-0.510680	-0.510631
C20	C	0.971310	-0.593022	-0.592107
C21	C	1.093870	-0.592757	-0.592448
C22	C	1.094352	-0.399025	-0.541156
C23	C	0.971754	-0.399528	-0.541730
C24	C	0.971596	-0.539093	-0.398370
C25	C	1.094203	-0.541535	-0.398976
C26	C	1.532046	-0.786118	-0.510577
C27	C	1.532120	-0.903948	-0.510601
C28	C	1.613884	-1.071500	-0.428517
C29	C	1.614150	-0.948940	-0.428718
C30	C	1.562421	-0.948331	-0.622343
C31	C	1.563069	-1.070929	-0.621907
C32	C	1.420025	-1.071274	-0.482046
C33	C	1.420562	-0.948670	-0.479540
C34	C	1.808604	-0.510714	-0.510600
C35	C	1.926435	-0.510724	-0.510599
C36	C	1.532177	-0.510607	-0.787107
C37	C	1.532211	-0.510572	-0.904937
C38	C	1.532181	-0.234183	-0.510650
C39	C	1.532217	-0.116353	-0.510671
C40	C	1.450016	-0.592096	-1.072488
C41	C	1.450231	-0.592500	-0.949928
C42	C	1.643913	-0.540892	-0.949442
C43	C	1.643462	-0.541403	-1.072041
C44	C	1.503759	-0.398272	-1.072143
C45	C	1.501267	-0.398944	-0.949537
C46	C	1.532083	-0.510694	-0.235172
C47	C	1.532255	-0.510430	-0.117342
H48	H	0.940682	-0.619123	-0.370626
H49	H	1.419064	-0.376079	-0.920448
C50	C	1.676086	-0.652159	-1.110695
H51	H	1.676104	-0.653446	-1.185813
H52	H	1.627337	-0.703115	-1.084748
H53	H	1.744959	-0.668239	-1.085379
C54	C	1.725540	-1.112999	-0.453808
H55	H	1.722605	-1.157538	-0.514219
H56	H	1.751620	-1.152034	-0.395155
H57	H	1.771280	-1.055018	-0.467677
C58	C	1.134516	-0.704610	-0.566627
H59	H	1.209645	-0.704597	-0.566802
H60	H	1.109363	-0.752934	-0.618325
H61	H	1.109624	-0.725302	-0.498812
C62	C	1.484523	-0.908953	-0.707254
H63	H	1.432708	-0.864986	-0.675236
H64	H	1.450880	-0.967815	-0.739582
H65	H	1.521926	-0.869743	-0.759323
C66	C	1.729058	-0.464559	-1.112133
H67	H	1.763958	-0.433174	-1.053490
H68	H	1.697043	-0.410922	-1.153869
H69	H	1.778998	-0.502192	-1.153758
H70	H	0.943177	-0.375465	-0.623774
H71	H	0.942067	-0.336011	-0.485086
H72	H	1.397716	-0.919673	-0.397308
H73	H	1.356432	-0.918055	-0.534990
H74	H	1.123479	-0.336041	-0.483644
H75	H	1.468644	-0.674725	-1.103301
H76	H	1.643501	-0.917544	-0.646995
H77	H	1.469043	-0.675648	-0.920608
H78	H	1.123217	-0.573982	-0.675605
H79	H	1.706830	-0.483292	-0.920302
H80	H	1.506192	-1.100596	-0.685226
C81	C	1.726401	-0.909205	-0.454300
H82	H	1.772015	-0.967992	-0.464621
H83	H	1.751816	-0.867518	-0.397231
H84	H	1.724627	-0.867605	-0.516851
H85	H	1.125074	-0.374524	-0.622311
H86	H	0.941826	-0.676095	-0.573187
C87	C	1.588536	-0.908396	-0.316794
H88	H	1.588659	-0.833267	-0.316769
H89	H	1.640349	-0.933555	-0.268577
H90	H	1.520781	-0.933346	-0.295992
H91	H	1.123293	-0.623697	-0.375953
H92	H	1.595163	-1.101052	-0.345419
H93	H	1.392472	-1.102283	-0.401984
C94	C	1.337856	-1.110306	-0.562981
H95	H	1.371694	-1.153882	-0.613959
H96	H	1.306586	-1.051260	-0.597325
H97	H	1.284616	-1.149835	-0.527622
H98	H	1.668479	-0.622023	-0.918748
C99	C	1.673853	-1.109455	-0.654649
H100	H	1.718040	-1.050180	-0.668086
H101	H	1.668474	-1.151251	-0.716816
H102	H	1.703403	-1.150685	-0.599227
C103	C	1.395642	-0.360931	-1.113904
H104	H	1.366865	-0.413403	-1.159299
H105	H	1.404326	-0.296800	-1.152083
H106	H	1.349022	-0.349580	-1.056091
H107	H	1.367400	-0.573526	-0.919837
H108	H	1.124814	-0.485941	-0.334988
C109	C	1.337782	-0.566711	-1.112306
H110	H	1.340069	-0.506085	-1.156649
H111	H	1.292846	-0.553186	-1.053642
H112	H	1.311196	-0.625200	-1.151218
H113	H	0.942574	-0.479147	-0.337639
C114	C	1.576329	-0.312408	-0.908253
H115	H	1.555792	-0.245871	-0.936473
H116	H	1.646649	-0.328002	-0.929585
H117	H	1.572859	-0.309959	-0.833246
C118	C	0.929730	-0.567984	-0.703795
H119	H	0.885143	-0.507592	-0.700969
H120	H	0.890727	-0.626713	-0.729717
H121	H	0.987674	-0.554179	-0.749602
C122	C	1.584660	-0.316071	-1.111344
H123	H	1.635559	-0.349881	-1.155045
H124	H	1.619114	-0.284771	-1.052403
H125	H	1.549214	-0.262860	-1.150798
