data_functionalizedCrystal
_audit_creation_method	'MofGen! by Chris Wilmer'
_symmetry_space_group_name_H-M	'P1'
_symmetry_Int_Tables_number	1
_symmetry_cell_setting	triclinic
loop_
_symmetry_equiv_pos_as_xyz
  x,y,z
_cell_length_a	16.959455
_cell_length_b	16.959453
_cell_length_c	16.959447
_cell_angle_alpha	90.031064
_cell_angle_beta	90.014322
_cell_angle_gamma	90.016935
loop_
_atom_site_label
_atom_site_type_symbol
_atom_site_fract_x
_atom_site_fract_y
_atom_site_fract_z
Zn1	Zn	1.208384	-0.314730	0.446905
Zn2	Zn	1.208307	-0.446923	0.314724
Zn3	Zn	1.076213	-0.314755	0.314742
Zn4	Zn	1.076178	-0.446864	0.446863
O5	O	1.142270	-0.380818	0.380808
O6	O	1.318985	-0.332280	0.429381
O7	O	1.190767	-0.429426	0.204116
O8	O	1.093793	-0.204141	0.332299
O9	O	1.318928	-0.429402	0.332268
O10	O	1.190898	-0.204123	0.429398
O11	O	1.093718	-0.332323	0.204129
O12	O	0.965597	-0.332265	0.332258
O13	O	1.093733	-0.429301	0.557479
O14	O	0.965571	-0.429325	0.429327
O15	O	1.190864	-0.332223	0.557510
O16	O	1.190733	-0.557526	0.332228
O17	O	1.093658	-0.557482	0.429310
C18	C	0.936904	-0.380792	0.380790
C19	C	0.849048	-0.380800	0.380801
C20	C	1.142204	-0.586184	0.380780
C21	C	1.142249	-0.674041	0.380794
C22	C	0.477561	-0.330238	0.330370
C23	C	0.477583	-0.431463	0.431292
C24	C	0.560129	-0.431452	0.431287
C25	C	0.601395	-0.380834	0.380822
C26	C	0.560114	-0.330226	0.330362
C27	C	0.601415	-0.482064	0.481740
C28	C	0.683966	-0.482055	0.481737
C29	C	0.725233	-0.431432	0.431275
C30	C	0.683948	-0.380822	0.380814
C31	C	0.725214	-0.330204	0.330350
C32	C	0.683930	-0.279589	0.279892
C33	C	0.601382	-0.279603	0.279901
C34	C	0.807782	-0.431418	0.431266
C35	C	0.807767	-0.330193	0.330341
C36	C	1.192898	-1.045448	0.431463
C37	C	1.091863	-1.045584	0.330271
C38	C	1.091834	-0.963039	0.330253
C39	C	1.142337	-0.921694	0.380842
C40	C	1.192869	-0.962895	0.431449
C41	C	1.041297	-0.921831	0.279652
C42	C	1.041265	-0.839280	0.279633
C43	C	1.091773	-0.797934	0.330218
C44	C	1.142307	-0.839140	0.380827
C45	C	1.192810	-0.797796	0.431415
C46	C	1.243349	-0.839000	0.482021
C47	C	1.243376	-0.921549	0.482034
C48	C	1.091746	-0.715386	0.330205
C49	C	1.192781	-0.715242	0.431401
C50	C	1.348439	-0.380845	0.380827
C51	C	1.436295	-0.380856	0.380835
C52	C	1.142303	-0.380753	0.586977
C53	C	1.142317	-0.380725	0.674833
C54	C	1.142358	-0.174650	0.380855
C55	C	1.142395	-0.086793	0.380875
C56	C	1.142283	-0.380826	0.175442
C57	C	1.142422	-0.380631	0.087586
C58	C	1.091840	-0.431185	1.046296
C59	C	1.192984	-0.330097	1.046323
C60	C	1.192963	-0.330114	0.963777
C61	C	1.142380	-0.380668	0.922487
C62	C	1.091819	-0.431205	0.963742
C63	C	1.243529	-0.279584	0.922515
C64	C	1.243511	-0.279599	0.839964
C65	C	1.192923	-0.330149	0.798672
C66	C	1.142359	-0.380688	0.839933
C67	C	1.091777	-0.431242	0.798643
C68	C	1.041208	-0.481777	0.839902
C69	C	1.041232	-0.481756	0.922450
C70	C	1.192900	-0.330171	0.716124
C71	C	1.091756	-0.431262	0.716089
H72	H	0.841360	-0.288968	0.289251
C73	C	0.985569	-0.537385	0.794472
N74	N	0.943662	-0.579266	0.760251
H75	H	1.234048	-1.079001	0.472663
H76	H	1.000179	-0.955500	0.238468
C77	C	1.248523	-0.274586	0.670742
N78	N	1.290419	-0.232716	0.636562
C79	C	1.036375	-1.091066	0.274565
N80	N	0.994603	-1.125327	0.232581
H81	H	1.284715	-0.238430	0.956140
H82	H	1.000064	-0.522901	0.956051
H83	H	1.234170	-0.288943	1.079946
C84	C	0.729333	-0.223908	0.224385
N85	N	0.763534	-0.181968	0.182581
C86	C	1.248342	-0.669769	0.487051
N87	N	1.290191	-0.635520	0.528966
C88	C	0.985665	-0.793963	0.223973
N89	N	0.943784	-0.759829	0.182052
H90	H	0.567761	-0.238397	0.238820
C91	C	0.432149	-0.274564	0.274870
N92	N	0.397944	-0.232630	0.233066
C93	C	1.036211	-0.486766	1.091681
N94	N	0.994310	-0.528628	1.125866
H95	H	1.284522	-0.955105	0.523234
H96	H	0.443979	-0.472679	0.472373
H97	H	1.050594	-0.681841	0.289007
C98	C	1.036108	-0.486875	0.670676
N99	N	0.994194	-0.528763	0.636472
C100	C	1.299128	-0.224002	0.794586
N101	N	1.341017	-0.182121	0.760407
H102	H	0.567810	-0.523280	0.522820
H103	H	0.717572	-0.523268	0.522823
C104	C	1.298900	-0.793510	0.537667
N105	N	1.340741	-0.759244	0.579577
C106	C	0.853190	-0.487091	0.486766
N107	N	0.887390	-0.529024	0.528574
