data_functionalizedCrystal
_audit_creation_method	'MofGen! by Chris Wilmer'
_symmetry_space_group_name_H-M	'P1'
_symmetry_Int_Tables_number	1
_symmetry_cell_setting	triclinic
loop_
_symmetry_equiv_pos_as_xyz
  x,y,z
_cell_length_a	14.044220
_cell_length_b	8.559649
_cell_length_c	7.088929
_cell_angle_alpha	84.674985
_cell_angle_beta	83.206932
_cell_angle_gamma	98.516229
loop_
_atom_site_label
_atom_site_type_symbol
_atom_site_fract_x
_atom_site_fract_y
_atom_site_fract_z
O1	O	-0.021003	-2.100735	-0.158955
O2	O	0.312331	-1.767402	0.174378
O3	O	0.645664	-1.434068	0.507711
O4	O	0.027448	-1.642435	-0.158968
O5	O	0.360781	-1.309102	0.174365
O6	O	0.694115	-0.975769	0.507698
O7	O	-0.134262	-1.864708	-0.158943
O8	O	0.199071	-1.531375	0.174390
O9	O	0.532404	-1.198041	0.507723
O10	O	0.140708	-1.878463	-0.158981
O11	O	0.474041	-1.545129	0.174353
O12	O	0.807374	-1.211796	0.507686
O13	O	-0.155917	-1.894406	0.159035
O14	O	0.177416	-1.561073	0.492369
O15	O	0.510750	-1.227740	0.825702
O16	O	0.005793	-1.672134	0.159010
O17	O	0.339127	-1.338800	0.492343
O18	O	0.672460	-1.005467	0.825677
O19	O	-0.042657	-2.130433	0.159023
O20	O	0.290676	-1.797100	0.492356
O21	O	0.624010	-1.463767	0.825690
Cu22	Cu	-0.020409	-1.903995	0.188051
Cu23	Cu	0.312924	-1.570662	0.521384
Cu24	Cu	0.646258	-1.237329	0.854717
Cu25	Cu	0.005200	-1.868874	-0.187996
Cu26	Cu	0.338533	-1.535540	0.145337
Cu27	Cu	0.671867	-1.202207	0.478671
O28	O	0.119053	-1.908161	0.158998
O29	O	0.452387	-1.574827	0.492331
O30	O	0.785720	-1.241494	0.825665
C31	C	0.020292	-1.598278	0.000019
C32	C	0.353626	-1.264945	0.333353
C33	C	0.686959	-0.931611	0.666686
C34	C	0.031222	-1.422455	0.000015
C35	C	0.364555	-1.089122	0.333348
C36	C	0.697889	-0.755789	0.666682
C37	C	-0.179966	-1.873535	0.000047
C38	C	0.153368	-1.540201	0.333380
C39	C	0.486701	-1.206868	0.666713
C40	C	-0.283884	-1.855571	0.000048
C41	C	0.049449	-1.522238	0.333382
C42	C	0.382783	-1.188905	0.666715
C43	C	-0.035501	-2.174590	0.000031
C44	C	0.297832	-1.841257	0.333364
C45	C	0.631165	-1.507924	0.666698
C46	C	-0.046430	-2.350412	0.000023
C47	C	0.286903	-2.017079	0.333356
C48	C	0.620237	-1.683745	0.666690
C49	C	-0.474153	-1.822727	0.000020
C50	C	-0.140819	-1.489394	0.333353
C51	C	0.192514	-1.156060	0.666687
C52	C	-0.541060	-1.950133	0.000018
C53	C	-0.207727	-1.616800	0.333351
C54	C	0.125606	-1.283466	0.666684
C55	C	-0.646933	-1.931858	0.000002
C56	C	-0.313599	-1.598525	0.333335
C57	C	0.019734	-1.265192	0.666669
C58	C	-0.368270	-1.841000	0.000036
C59	C	-0.034937	-1.507666	0.333369
C60	C	0.298396	-1.174333	0.666703
C61	C	0.164757	-1.899334	0.000004
C62	C	0.498090	-1.566000	0.333337
C63	C	0.831424	-1.232667	0.666670
C64	C	0.268676	-1.917296	-0.000011
C65	C	0.602009	-1.583963	0.333323
C66	C	0.935343	-1.250629	0.666656
N67	N	-0.038422	-1.928709	0.452541
N68	N	0.294911	-1.595376	0.785875
N69	N	0.628244	-1.262043	1.119208
N70	N	0.023205	-1.844171	-0.452487
N71	N	0.356538	-1.510838	-0.119153
N72	N	0.689872	-1.177504	0.214180
H73	H	-0.496383	-1.699936	0.000012
H74	H	-0.163050	-1.366603	0.333345
H75	H	0.170284	-1.033269	0.666679
H76	H	-0.121272	-1.423242	0.000024
H77	H	0.212061	-1.089908	0.333357
H78	H	0.545395	-0.756575	0.666690
H79	H	0.106070	-1.349615	-0.000005
H80	H	0.439403	-1.016282	0.333328
H81	H	0.772737	-0.682949	0.666661
H82	H	0.087069	-1.756556	0.465857
H83	H	0.420403	-1.423223	0.799190
H84	H	0.753736	-1.089889	1.132524
N85	N	-0.123017	-2.044795	0.560696
N86	N	0.210317	-1.711462	0.894029
N87	N	0.543650	-1.378129	1.227363
H88	H	-0.121740	-2.043060	0.702646
H89	H	0.211594	-1.709727	1.035979
H90	H	0.544927	-1.376394	1.369313
H91	H	-0.185854	-2.013654	0.525824
H92	H	0.147479	-1.680321	0.859157
H93	H	0.480813	-1.346988	1.192491
H94	H	-0.518820	-2.072921	-0.000107
H95	H	-0.185487	-1.739588	0.333226
H96	H	0.147847	-1.406255	0.666560
