data_functionalizedCrystal
_audit_creation_method	'MofGen! by Chris Wilmer'
_symmetry_space_group_name_H-M	'P1'
_symmetry_Int_Tables_number	1
_symmetry_cell_setting	triclinic
loop_
_symmetry_equiv_pos_as_xyz
  x,y,z
_cell_length_a	19.805407
_cell_length_b	18.050589
_cell_length_c	19.805399
_cell_angle_alpha	90.022294
_cell_angle_beta	90.019573
_cell_angle_gamma	90.028221
loop_
_atom_site_label
_atom_site_type_symbol
_atom_site_fract_x
_atom_site_fract_y
_atom_site_fract_z
Zn1	Zn	1.034727	-0.295677	0.382745
Zn2	Zn	1.534727	0.204323	0.882745
Zn3	Zn	1.034638	-0.419869	0.269567
Zn4	Zn	1.534638	0.080131	0.769567
Zn5	Zn	0.921542	-0.295697	0.269569
Zn6	Zn	1.421542	0.204303	0.769569
Zn7	Zn	0.921502	-0.419829	0.382713
Zn8	Zn	1.421502	0.080171	0.882713
O9	O	0.978102	-0.357768	0.326148
O10	O	1.478102	0.142232	0.826148
O11	O	1.129432	-0.312159	0.367743
O12	O	1.629432	0.187841	0.867743
O13	O	1.019616	-0.403422	0.174850
O14	O	1.519616	0.096578	0.674850
O15	O	0.936610	-0.191770	0.284596
O16	O	1.436610	0.308230	0.784596
O17	O	1.129367	-0.403402	0.284592
O18	O	1.629367	0.096598	0.784592
O19	O	1.019767	-0.191755	0.367746
O20	O	1.519767	0.308245	0.867746
O21	O	0.936524	-0.312194	0.174852
O22	O	1.436524	0.187806	0.674852
O23	O	0.826820	-0.312156	0.284566
O24	O	1.326820	0.187844	0.784566
O25	O	0.936542	-0.403335	0.477434
O26	O	1.436542	0.096665	0.977434
O27	O	0.826791	-0.403355	0.367693
O28	O	1.326791	0.096645	0.867693
O29	O	1.019728	-0.312121	0.477457
O30	O	1.519728	0.187879	0.977457
O31	O	1.019577	-0.523788	0.284562
O32	O	1.519577	-0.023788	0.784562
O33	O	0.936456	-0.523759	0.367690
O34	O	1.436456	-0.023759	0.867690
C35	C	0.802246	-0.357754	0.326127
C36	C	1.302246	0.142246	0.826127
C37	C	0.727014	-0.357766	0.326133
C38	C	1.227014	0.142234	0.826133
C39	C	0.978021	-0.550720	0.326137
C40	C	1.478021	-0.050720	0.826137
C41	C	0.978048	-0.633266	0.326155
C42	C	1.478048	-0.133266	0.826155
C43	C	0.691673	-0.405325	0.369347
C44	C	1.191673	0.094675	0.869347
C45	C	0.620984	-0.405326	0.369357
C46	C	1.120984	0.094674	0.869357
C47	C	0.585639	-0.357771	0.326148
C48	C	1.085639	0.142229	0.826148
C49	C	0.620985	-0.310207	0.282933
C50	C	1.120985	0.189793	0.782933
C51	C	0.691673	-0.310203	0.282927
C52	C	1.191673	0.189797	0.782927
C53	C	0.335912	-0.310224	0.282955
C54	C	0.835912	0.189776	0.782955
C55	C	0.265220	-0.310233	0.282962
C56	C	0.765220	0.189767	0.782962
C57	C	0.265224	-0.405347	0.369385
C58	C	0.765224	0.094653	0.869385
C59	C	0.335911	-0.405342	0.369379
C60	C	0.835911	0.094658	0.869379
C61	C	0.371251	-0.357776	0.326166
C62	C	0.871251	0.142224	0.826166
C63	C	0.447900	-0.357774	0.326157
C64	C	0.947900	0.142226	0.826157
C65	C	0.508992	-0.357776	0.326153
C66	C	1.008992	0.142224	0.826153
C67	C	0.932891	-0.832728	0.371344
C68	C	1.432891	-0.332728	0.871344
C69	C	0.916392	-0.882167	0.309581
C70	C	1.416392	-0.382167	0.809581
C71	C	0.978114	-0.784396	0.326164
C72	C	1.478114	-0.284396	0.826164
C73	C	0.994646	-0.882039	0.387934
C74	C	1.494646	-0.382039	0.887934
C75	C	0.978177	-0.930381	0.326178
C76	C	1.478177	-0.430381	0.826178
C77	C	0.961583	-0.832748	0.264368
C78	C	1.461583	-0.332748	0.764368
C79	C	1.039865	-0.832616	0.342762
C80	C	1.539865	-0.332616	0.842762
C81	C	1.023390	-0.882033	0.280957
C82	C	1.523390	-0.382033	0.780957
C83	C	0.978076	-0.700298	0.326157
C84	C	1.478076	-0.200298	0.826157
C85	C	0.978215	-1.014478	0.326178
C86	C	1.478215	-0.514478	0.826178
C87	C	1.154645	-0.357783	0.326171
C88	C	1.654645	0.142217	0.826171
C89	C	1.229877	-0.357789	0.326180
C90	C	1.729877	0.142211	0.826180
C91	C	0.978140	-0.357721	0.502691
C92	C	1.478140	0.142279	1.002691
C93	C	0.978156	-0.357701	0.577923
C94	C	1.478156	0.142299	1.077923
C95	C	0.978203	-0.164062	0.326175
C96	C	1.478203	0.335938	0.826175
C97	C	0.978246	-0.081517	0.326186
C98	C	1.478246	0.418483	0.826186
C99	C	0.978103	-0.357761	0.150292
C100	C	1.478103	0.142239	0.650292
C101	C	0.978218	-0.357572	0.075061
C102	C	1.478218	0.142428	0.575061
C103	C	1.021472	-0.310204	0.613280
C104	C	1.521472	0.189796	1.113280
C105	C	1.021479	-0.310182	0.683969
C106	C	1.521479	0.189818	1.183969
C107	C	0.978173	-0.357662	0.719299
C108	C	1.478173	0.142338	1.219299
C109	C	0.934852	-0.405162	0.683937
C110	C	1.434852	0.094838	1.183937
C111	C	0.934843	-0.405180	0.613250
C112	C	1.434843	0.094820	1.113250
C113	C	0.934891	-0.405093	0.969010
C114	C	1.434891	0.094907	1.469010
C115	C	0.934905	-0.405074	1.039702
C116	C	1.434905	0.094926	1.539702
C117	C	1.021527	-0.310096	1.039729
C118	C	1.521527	0.189904	1.539729
C119	C	1.021518	-0.310113	0.969042
C120	C	1.521518	0.189887	1.469042
C121	C	0.978195	-0.357609	0.933686
C122	C	1.478195	0.142391	1.433686
C123	C	0.978187	-0.357631	0.857038
C124	C	1.478187	0.142369	1.357038
C125	C	0.978184	-0.357645	0.795946
C126	C	1.478184	0.142355	1.295946
H127	H	0.720446	-0.444052	0.404530
H128	H	1.220446	0.055948	0.904530
O129	O	0.892779	-0.451290	0.934776
O130	O	1.392779	0.048710	1.434776
C131	C	0.854544	-0.493174	0.981120
C132	C	1.354544	0.006826	1.481120
H133	H	0.882283	-0.495751	1.031507
H134	H	1.382283	0.004249	1.531507
H135	H	0.803163	-0.465955	0.988645
H136	H	1.303163	0.034045	1.488645
C137	C	0.810644	-0.569049	0.891626
C138	C	1.310644	-0.069049	1.391626
C139	C	0.844717	-0.572219	0.953511
C140	C	1.344717	-0.072219	1.453511
H141	H	0.804579	-0.617806	0.874596
H142	H	1.304579	-0.117806	1.374596
H143	H	0.836402	-0.540829	0.860403
H144	H	1.336402	-0.040829	1.360403
H145	H	0.767831	-0.546362	0.897906
H146	H	1.267831	-0.046362	1.397906
H147	H	0.887533	-0.594896	0.947230
H148	H	1.387533	-0.094896	1.447230
H149	H	0.818967	-0.600444	0.984733
H150	H	1.318967	-0.100444	1.484733
H151	H	0.894591	-0.811078	0.409498
H152	H	1.394591	-0.311078	0.909498
O153	O	0.586758	-0.451604	0.411348
O154	O	1.086758	0.048396	0.911348
C155	C	0.633112	-0.493569	0.449489
C156	C	1.133112	0.006431	0.949489
H157	H	0.683489	-0.496087	0.421758
H158	H	1.183489	0.003913	0.921758
H159	H	0.640660	-0.466460	0.500942
H160	H	1.140660	0.033540	1.000942
C161	C	0.543628	-0.569537	0.493166
C162	C	1.043628	-0.069537	0.993166
C163	C	0.605500	-0.572635	0.459103
C164	C	1.105500	-0.072635	0.959103
H165	H	0.526595	-0.618308	0.499099
H166	H	1.026595	-0.118308	0.999099
H167	H	0.512398	-0.541263	0.467472
H168	H	1.012398	-0.041263	0.967472
H169	H	0.549926	-0.546943	0.536040
H170	H	1.049926	-0.046943	1.036040
H171	H	0.599200	-0.595220	0.416227
H172	H	1.099200	-0.095220	0.916227
H173	H	0.636729	-0.600915	0.484790
H174	H	1.136729	-0.100915	0.984790
H175	H	0.947565	-0.811186	0.212121
H176	H	1.447565	-0.311186	0.712121
H177	H	1.061661	-0.903545	0.242711
H178	H	1.561661	-0.403545	0.742711
O179	O	0.854086	-0.908100	0.292944
O180	O	1.354086	-0.408100	0.792944
C181	C	0.806522	-0.882969	0.340686
C182	C	1.306522	-0.382969	0.840686
H183	H	0.833403	-0.869055	0.389995
H184	H	1.333403	-0.369055	0.889995
H185	H	0.780238	-0.831335	0.320527
H186	H	1.280238	-0.331335	0.820527
C187	C	0.720743	-0.961153	0.292897
C188	C	1.220743	-0.461153	0.792897
C189	C	0.753758	-0.944070	0.353462
C190	C	1.253758	-0.444070	0.853462
H191	H	0.688194	-0.998841	0.300776
H192	H	1.188194	-0.498841	0.800776
H193	H	0.752787	-0.978083	0.260731
H194	H	1.252787	-0.478083	0.760731
H195	H	0.698846	-0.918120	0.276104
H196	H	1.198846	-0.418120	0.776104
H197	H	0.775662	-0.987100	0.370249
H198	H	1.275662	-0.487100	0.870249
H199	H	0.721717	-0.927149	0.385631
H200	H	1.221717	-0.427149	0.885631
H201	H	1.092045	-0.810837	0.356819
H202	H	1.592045	-0.310837	0.856819
O203	O	0.892801	-0.451094	1.074099
O204	O	1.392801	0.048906	1.574099
C205	C	0.849109	-0.408794	1.114977
C206	C	1.349109	0.091206	1.614977
H207	H	0.873015	-0.352513	1.125575
H208	H	1.373015	0.147487	1.625575
H209	H	0.798946	-0.400635	1.087733
H210	H	1.298946	0.099365	1.587733
C211	C	0.807487	-0.518758	1.169101
C212	C	1.307487	-0.018758	1.669101
C213	C	0.836852	-0.449636	1.182122
C214	C	1.336852	0.050364	1.682122
H215	H	0.799923	-0.543952	1.210518
H216	H	1.299923	-0.043952	1.710518
H217	H	0.836921	-0.547257	1.141559
H218	H	1.336921	-0.047257	1.641559
H219	H	0.765688	-0.511950	1.146395
H220	H	1.265688	-0.011950	1.646395
H221	H	0.878653	-0.456446	1.204819
H222	H	1.378653	0.043554	1.704819
H223	H	0.807424	-0.421139	1.209669
H224	H	1.307424	0.078861	1.709669
O225	O	0.370140	-0.451560	0.411416
O226	O	0.870140	0.048440	0.911416
C227	C	0.323787	-0.493551	0.449550
C228	C	0.823787	0.006449	0.949550
H229	H	0.273411	-0.463141	0.451944
H230	H	0.773411	0.036859	0.951944
H231	H	0.316238	-0.549920	0.424679
H232	H	0.816238	-0.049920	0.924679
C233	C	0.413275	-0.541703	0.518627
C234	C	0.913275	-0.041703	1.018627
C235	C	0.351404	-0.504350	0.521573
C236	C	0.851404	-0.004350	1.021573
H237	H	0.430311	-0.548368	0.563054
H238	H	0.930311	-0.048368	1.063054
H239	H	0.444504	-0.513416	0.492935
H240	H	0.944504	-0.013416	0.992935
H241	H	0.406976	-0.588674	0.497898
H242	H	0.906976	-0.088674	0.997898
H243	H	0.357705	-0.457377	0.542294
H244	H	0.857705	0.042623	1.042294
H245	H	0.320176	-0.532630	0.547271
H246	H	0.820176	-0.032630	1.047271
O247	O	1.011222	-0.907783	0.450297
O248	O	1.511222	-0.407783	0.950297
C249	C	0.963365	-0.882676	0.497755
C250	C	1.463365	-0.382676	0.997755
H251	H	0.937572	-0.830714	0.477671
H252	H	1.437572	-0.330714	0.977671
H253	H	0.923960	-0.927701	0.506575
H254	H	1.423960	-0.427701	1.006575
C255	C	1.030841	-0.928443	0.589479
C256	C	1.530841	-0.428443	1.089479
C257	C	0.999165	-0.864618	0.564814
C258	C	1.499165	-0.364618	1.064814
H259	H	1.052922	-0.917307	0.630846
H260	H	1.552922	-0.417307	1.130846
H261	H	1.063082	-0.945361	0.557506
H262	H	1.563082	-0.445361	1.057506
H263	H	0.997997	-0.965958	0.596824
H264	H	1.497997	-0.465958	1.096824
H265	H	1.032009	-0.827108	0.557462
H266	H	1.532009	-0.327108	1.057462
H267	H	0.966930	-0.847694	0.596788
H268	H	1.466930	-0.347694	1.096788
H269	H	1.056740	-0.271542	0.584520
H270	H	1.556740	0.228458	1.084520
O271	O	0.230861	-0.451441	0.411441
O272	O	0.730861	0.048559	0.911441
C273	C	0.189998	-0.409226	0.455218
C274	C	0.689998	0.090774	0.955218
H275	H	0.211326	-0.350740	0.459488
H276	H	0.711326	0.149260	0.959488
H277	H	0.136417	-0.406639	0.434301
H278	H	0.636417	0.093361	0.934301
C279	C	0.162733	-0.517445	0.520279
C280	C	0.662733	-0.017445	1.020279
C281	C	0.188933	-0.445613	0.525528
C282	C	0.688933	0.054387	1.025528
H283	H	0.162073	-0.539891	0.563649
H284	H	0.662073	-0.039891	1.063649
H285	H	0.190261	-0.545887	0.490785
H286	H	0.690261	-0.045887	0.990785
H287	H	0.118084	-0.515279	0.502846
H288	H	0.618084	-0.015279	1.002846
H289	H	0.233583	-0.447780	0.542953
H290	H	0.733583	0.052220	1.042953
H291	H	0.161412	-0.417172	0.555027
H292	H	0.661412	0.082828	1.055027
H293	H	1.056753	-0.271506	0.712754
H294	H	1.556753	0.228494	1.212754
H295	H	1.056784	-0.271452	0.940280
H296	H	1.556784	0.228548	1.440280
O297	O	0.230780	-0.264111	0.241004
O298	O	0.730780	0.235889	0.741004
C299	C	0.160812	-0.274311	0.250284
C300	C	0.660812	0.225689	0.750284
H301	H	0.151152	-0.331655	0.272369
H302	H	0.651152	0.168345	0.772369
H303	H	0.140775	-0.230313	0.286392
H304	H	0.640775	0.269687	0.786392
C305	C	0.136361	-0.196994	0.154686
C306	C	0.636361	0.303006	0.654686
C307	C	0.124496	-0.267428	0.181806
C308	C	0.624496	0.232572	0.681806
H309	H	0.113959	-0.192745	0.112446
H310	H	0.613959	0.307255	0.612446
H311	H	0.183499	-0.190119	0.148435
H312	H	0.683499	0.309881	0.648435
H313	H	0.119664	-0.160337	0.184783
H314	H	0.619664	0.339663	0.684783
H315	H	0.141200	-0.304083	0.151713
H316	H	0.641200	0.195917	0.651713
H317	H	0.077359	-0.274309	0.188050
H318	H	0.577359	0.225691	0.688050
H319	H	1.056801	-0.271419	1.068525
H320	H	1.556801	0.228581	1.568525
H321	H	0.899589	-0.443819	0.712708
H322	H	1.399589	0.056181	1.212708
O323	O	0.892752	-0.451398	0.579006
O324	O	1.392752	0.048602	1.079006
C325	C	0.854523	-0.493295	0.625345
C326	C	1.354523	0.006705	1.125345
H327	H	0.882249	-0.495848	0.675741
H328	H	1.382249	0.004152	1.175741
H329	H	0.803128	-0.466102	0.632851
H330	H	1.303128	0.033898	1.132851
C331	C	0.810684	-0.569209	0.535850
C332	C	1.310684	-0.069209	1.035850
C333	C	0.844740	-0.572350	0.597746
C334	C	1.344740	-0.072350	1.097746
H335	H	0.804646	-0.617973	0.518825
H336	H	1.304646	-0.117973	1.018825
H337	H	0.836437	-0.540981	0.504630
H338	H	1.336437	-0.040981	1.004630
H339	H	0.767858	-0.546545	0.542114
H340	H	1.267858	-0.046545	1.042114
H341	H	0.887568	-0.595005	0.591480
H342	H	1.387568	-0.095005	1.091480
H343	H	0.818993	-0.600583	0.628964
H344	H	1.318993	-0.100583	1.128964
H345	H	0.364678	-0.271497	0.247763
H346	H	0.864678	0.228503	0.747763
H347	H	0.592202	-0.271484	0.247754
H348	H	1.092202	0.228516	0.747754
O349	O	0.725901	-0.263984	0.240881
O350	O	1.225901	0.236016	0.740881
C351	C	0.679549	-0.222001	0.202755
C352	C	1.179549	0.277999	0.702755
H353	H	0.629147	-0.252419	0.200370
H354	H	1.129147	0.247581	0.700370
H355	H	0.672065	-0.165633	0.227627
H356	H	1.172065	0.334367	0.727627
C357	C	0.769014	-0.173836	0.133661
C358	C	1.269014	0.326164	0.633661
C359	C	0.707111	-0.211199	0.130727
C360	C	1.207111	0.288801	0.630727
H361	H	0.786017	-0.167169	0.089231
H362	H	1.286017	0.332831	0.589231
H363	H	0.800244	-0.202119	0.159349
H364	H	1.300244	0.297881	0.659349
H365	H	0.762769	-0.126867	0.154391
H366	H	1.262769	0.373133	0.654391
H367	H	0.713359	-0.258170	0.110005
H368	H	1.213359	0.241830	0.610005
H369	H	0.675884	-0.182924	0.105034
H370	H	1.175884	0.317076	0.605034
