data_functionalizedCrystal
_audit_creation_method	'MofGen! by Chris Wilmer'
_symmetry_space_group_name_H-M	'P1'
_symmetry_Int_Tables_number	1
_symmetry_cell_setting	triclinic
loop_
_symmetry_equiv_pos_as_xyz
  x,y,z
_cell_length_a	12.759399
_cell_length_b	12.759401
_cell_length_c	12.759393
_cell_angle_alpha	90.019559
_cell_angle_beta	89.968685
_cell_angle_gamma	89.986167
loop_
_atom_site_label
_atom_site_type_symbol
_atom_site_fract_x
_atom_site_fract_y
_atom_site_fract_z
Zn1	Zn	-0.418256	-1.606248	-0.594013
Zn2	Zn	-0.593975	-1.606140	-0.418334
Zn3	Zn	-0.418305	-1.430550	-0.418349
Zn4	Zn	-0.593888	-1.430536	-0.593972
O5	O	-0.506106	-1.518368	-0.506167
O6	O	-0.441582	-1.753255	-0.570719
O7	O	-0.570729	-1.582808	-0.271315
O8	O	-0.271278	-1.453908	-0.441675
O9	O	-0.570682	-1.753175	-0.441649
O10	O	-0.271242	-1.582993	-0.570734
O11	O	-0.441665	-1.453803	-0.271326
O12	O	-0.441581	-1.283527	-0.441635
O13	O	-0.570533	-1.453884	-0.740999
O14	O	-0.570581	-1.283517	-0.570665
O15	O	-0.441497	-1.582979	-0.741029
O16	O	-0.740985	-1.582794	-0.441609
O17	O	-0.740921	-1.453779	-0.570650
C18	C	-0.506077	-1.245401	-0.506148
C19	C	-0.506090	-1.128624	-0.506164
C20	C	-0.573366	-1.073784	-0.573238
C21	C	-0.573375	-0.964060	-0.573247
C22	C	-0.438830	-0.964026	-0.439101
C23	C	-0.438816	-1.073748	-0.439097
C24	C	-0.651048	-1.073803	-0.650683
C25	C	-0.651058	-0.964079	-0.650693
C26	C	-0.779073	-1.518301	-0.506146
C27	C	-0.895850	-1.518369	-0.506172
C28	C	-1.060551	-1.451322	-0.438965
C29	C	-0.950827	-1.451250	-0.438938
C30	C	-0.950603	-1.585555	-0.573445
C31	C	-1.060325	-1.585621	-0.573475
C32	C	-1.060679	-1.373785	-0.361305
C33	C	-0.950955	-1.373713	-0.361279
C34	C	-0.232073	-1.518464	-0.506211
C35	C	-0.115296	-1.518505	-0.506229
C36	C	-0.506000	-1.518442	-0.780200
C37	C	-0.505955	-1.518473	-0.896977
C38	C	-0.506127	-0.792402	-0.506182
C39	C	-0.506113	-0.909178	-0.506177
C40	C	-0.438760	-1.585702	-0.951857
C41	C	-0.438722	-1.585727	-1.061581
C42	C	-0.573083	-1.451291	-1.061536
C43	C	-0.573115	-1.451262	-0.951814
C44	C	-0.361190	-1.663321	-0.951883
C45	C	-0.361152	-1.663346	-1.061607
C46	C	-0.506136	-1.518356	-0.233200
C47	C	-0.505885	-1.518528	-0.116423
H48	H	-0.732406	-0.934282	-0.628760
H49	H	-1.104895	-1.640323	-0.628254
O50	O	-0.897040	-1.650718	-0.638661
C51	C	-0.788457	-1.636233	-0.624235
H52	H	-0.773564	-1.601861	-0.543120
H53	H	-0.757320	-1.580229	-0.686495
C54	C	-0.750315	-1.784710	-0.733573
C55	C	-0.732023	-1.742502	-0.633943
H56	H	-0.715502	-1.850260	-0.739566
H57	H	-0.823469	-1.794467	-0.743296
H58	H	-0.724367	-1.738030	-0.785445
H59	H	-0.757982	-1.789175	-0.582074
H60	H	-0.658871	-1.732755	-0.624212
H61	H	-1.090505	-1.292420	-0.383033
H62	H	-0.916966	-1.296378	-0.390344
O63	O	-0.373347	-1.127070	-0.374100
C64	C	-0.305578	-1.190587	-0.434040
H65	H	-0.299199	-1.157550	-0.516798
H66	H	-0.338058	-1.273740	-0.437598
C67	C	-0.204127	-1.232845	-0.281268
C68	C	-0.196285	-1.192264	-0.382911
H69	H	-0.136711	-1.233884	-0.249728
H70	H	-0.249786	-1.190056	-0.240884
H71	H	-0.231197	-1.302136	-0.284247
H72	H	-0.169228	-1.122970	-0.379929
H73	H	-0.150619	-1.235042	-0.423293
O74	O	-0.915421	-1.399567	-0.264196
C75	C	-0.854146	-1.316803	-0.224155
H76	H	-0.876847	-1.240562	-0.264802
H77	H	-0.767699	-1.333885	-0.239008
C78	C	-0.845442	-1.399950	-0.055524
C79	C	-0.873330	-1.306308	-0.105441
H80	H	-0.857271	-1.393478	0.017706
H81	H	-0.886721	-1.455712	-0.082500
H82	H	-0.773404	-1.414175	-0.067912
H83	H	-0.945370	-1.292091	-0.093063
H84	H	-0.832064	-1.250543	-0.078459
H85	H	-0.384057	-0.919332	-0.384498
H86	H	-0.382947	-1.744717	-1.091387
O87	O	-0.638434	-1.386091	-0.898393
C88	C	-0.706347	-1.445848	-0.834930
H89	H	-0.669322	-1.525481	-0.818499
H90	H	-0.784195	-1.457365	-0.877199
C91	C	-0.770864	-1.290188	-0.750883
C92	C	-0.725384	-1.387991	-0.730695
H93	H	-0.782612	-1.254498	-0.686588
H94	H	-0.725112	-1.249927	-0.793642
H95	H	-0.835732	-1.299799	-0.786111
H96	H	-0.660512	-1.378378	-0.695480
H97	H	-0.771125	-1.428249	-0.687927
H98	H	-1.094751	-1.402995	-0.284048
H99	H	-0.629350	-1.103612	-0.732090
H100	H	-0.622012	-0.930082	-0.728044
H101	H	-0.279825	-1.641554	-0.922126
O102	O	-0.743294	-1.114338	-0.615921
C103	C	-0.825528	-1.080107	-0.681270
H104	H	-0.792591	-1.057598	-0.761222
H105	H	-0.865356	-1.009120	-0.644356
C106	C	-0.946498	-1.196655	-0.596318
C107	C	-0.906046	-1.169019	-0.694520
H108	H	-0.996169	-1.251497	-0.604488
H109	H	-0.891098	-1.219715	-0.552288
H110	H	-0.979682	-1.137492	-0.565567
H111	H	-0.872853	-1.228177	-0.725263
H112	H	-0.961444	-1.145970	-0.738555
H113	H	-0.627761	-1.396568	-1.106198
H114	H	-0.390361	-1.740593	-0.917849
O115	O	-0.268922	-1.628479	-1.102105
C116	C	-0.250488	-1.525033	-1.067891
H117	H	-0.296054	-1.510005	-0.992490
H118	H	-0.277331	-1.467608	-1.130831
C119	C	-0.076573	-1.528366	-1.139956
C120	C	-0.132532	-1.509910	-1.047343
H121	H	-0.003812	-1.519034	-1.127285
H122	H	-0.088993	-1.598058	-1.163010
H123	H	-0.098954	-1.480509	-1.192397
H124	H	-0.110160	-1.557775	-0.994908
H125	H	-0.120105	-1.440226	-1.024278
