data_functionalizedCrystal
_audit_creation_method	'MofGen! by Chris Wilmer'
_symmetry_space_group_name_H-M	'P1'
_symmetry_Int_Tables_number	1
_symmetry_cell_setting	triclinic
loop_
_symmetry_equiv_pos_as_xyz
  x,y,z
_cell_length_a	10.723024
_cell_length_b	10.654550
_cell_length_c	9.798715
_cell_angle_alpha	89.998020
_cell_angle_beta	89.996609
_cell_angle_gamma	84.476386
loop_
_atom_site_label
_atom_site_type_symbol
_atom_site_fract_x
_atom_site_fract_y
_atom_site_fract_z
O1	O	1.657213	0.176147	-0.113478
O2	O	1.294064	0.193008	-0.113483
O3	O	1.483988	0.001837	-0.113475
O4	O	1.467289	0.367318	-0.113486
O5	O	1.483974	0.001836	0.113507
O6	O	1.294049	0.193007	0.113499
O7	O	1.657199	0.176146	0.113504
Zn8	Zn	1.475622	0.184577	0.149540
Zn9	Zn	1.475641	0.184577	-0.149519
O10	O	1.467275	0.367317	0.113496
C11	C	1.247557	0.191780	0.000008
C12	C	1.109002	0.188109	0.000006
C13	C	1.034035	0.295078	0.000002
C14	C	0.890831	0.291287	0.000001
C15	C	1.482755	-0.044961	0.000014
C16	C	1.479086	-0.184404	0.000009
C17	C	1.590911	-0.263907	0.000015
C18	C	1.587456	-0.394927	0.000005
C19	C	1.360343	-0.366929	-0.000010
C20	C	1.363799	-0.235912	-0.000010
C21	C	1.706198	-0.212399	0.000034
C22	C	1.818032	-0.291903	0.000041
C23	C	1.814578	-0.422923	0.000031
C24	C	1.699289	-0.474440	0.000015
C25	C	1.703706	0.177373	0.000010
C26	C	1.842261	0.181045	0.000003
C27	C	1.468508	0.414115	0.000004
C28	C	1.472176	0.553558	-0.000000
N29	N	1.475618	0.184575	0.353640
N30	N	1.475654	0.184569	-0.353619
C31	C	1.555362	0.103954	0.421420
C32	C	1.555382	0.103950	0.578582
H33	H	0.906672	0.089466	-0.000002
O34	O	1.059252	0.075423	-0.000175
C35	C	1.099407	0.006711	-0.117748
H36	H	1.190040	0.041589	-0.156940
H37	H	1.116428	-0.097731	-0.091308
H38	H	1.024225	0.020712	-0.200065
H39	H	1.709024	-0.105717	0.000046
O40	O	1.929909	-0.241658	0.000111
C41	C	1.908984	-0.108969	0.000084
H42	H	1.811862	-0.079047	0.043055
H43	H	1.982814	-0.068121	0.065988
H44	H	1.915356	-0.072444	-0.108808
H45	H	1.407356	0.253591	0.411961
H46	H	1.696486	-0.581126	-0.000008
O47	O	1.084139	0.407580	-0.000055
C48	C	1.215967	0.386320	-0.000012
H49	H	1.245562	0.288548	-0.042985
H50	H	1.256685	0.460560	-0.065906
H51	H	1.252253	0.392663	0.108886
O52	O	1.923322	-0.499974	0.000092
C53	C	2.025811	-0.426411	0.000071
H54	H	1.994977	-0.328916	0.043045
H55	H	2.104225	-0.474058	0.065976
H56	H	2.061108	-0.416774	-0.108820
H57	H	0.826412	0.382860	-0.000008
H58	H	1.407383	0.253600	0.588102
O59	O	1.248284	-0.416821	0.000165
C60	C	1.180050	-0.376317	0.117736
H61	H	1.214842	-0.285170	0.156928
H62	H	1.076288	-0.359030	0.091293
H63	H	1.193841	-0.451997	0.200054
H64	H	1.272742	-0.171178	-0.000012
H65	H	1.623616	0.034929	0.363100
H66	H	1.623659	0.034931	0.636870
