data_functionalizedCrystal
_audit_creation_method	'MofGen! by Chris Wilmer'
_symmetry_space_group_name_H-M	'P1'
_symmetry_Int_Tables_number	1
_symmetry_cell_setting	triclinic
loop_
_symmetry_equiv_pos_as_xyz
  x,y,z
_cell_length_a	17.699097
_cell_length_b	17.699104
_cell_length_c	15.186229
_cell_angle_alpha	89.995322
_cell_angle_beta	89.993050
_cell_angle_gamma	83.289974
loop_
_atom_site_label
_atom_site_type_symbol
_atom_site_fract_x
_atom_site_fract_y
_atom_site_fract_z
O1	O	1.004075	0.095757	-0.073304
O2	O	1.337409	0.429090	0.260030
O3	O	1.670742	0.762424	0.593363
O4	O	0.783699	0.108199	-0.073289
O5	O	1.117033	0.441532	0.260044
O6	O	1.450366	0.774866	0.593377
O7	O	0.900105	-0.008210	-0.073289
O8	O	1.233439	0.325124	0.260044
O9	O	1.566772	0.658457	0.593378
O10	O	0.887669	0.212166	-0.073304
O11	O	1.221003	0.545499	0.260029
O12	O	1.554336	0.878832	0.593363
O13	O	0.900098	-0.008211	0.073168
O14	O	1.233431	0.325122	0.406502
O15	O	1.566764	0.658455	0.739835
O16	O	0.783692	0.108197	0.073168
O17	O	1.117025	0.441531	0.406501
O18	O	1.450358	0.774864	0.739834
O19	O	1.004068	0.095755	0.073154
O20	O	1.337401	0.429089	0.406487
O21	O	1.670734	0.762422	0.739820
Zn22	Zn	0.893878	0.101976	0.096414
Zn23	Zn	1.227212	0.435309	0.429747
Zn24	Zn	1.560545	0.768643	0.763081
Zn25	Zn	0.893889	0.101978	-0.096550
Zn26	Zn	1.227222	0.435312	0.236784
Zn27	Zn	1.560555	0.768645	0.570117
O28	O	0.887662	0.212164	0.073153
O29	O	1.220995	0.545498	0.406487
O30	O	1.554328	0.878831	0.739820
C31	C	0.755499	0.107751	-0.000059
C32	C	1.088832	0.441084	0.333274
C33	C	1.422165	0.774417	0.666608
C34	C	0.671481	0.106408	-0.000053
C35	C	1.004814	0.439741	0.333280
C36	C	1.338148	0.773075	0.666613
C37	C	0.155766	0.098180	-0.079922
C38	C	0.489100	0.431513	0.253411
C39	C	0.822433	0.764846	0.586744
C40	C	0.234711	0.099436	-0.079918
C41	C	0.568044	0.432769	0.253415
C42	C	0.901377	0.766103	0.586749
C43	C	0.274172	0.100064	-0.000081
C44	C	0.607506	0.433398	0.333253
C45	C	0.940839	0.766731	0.666586
C46	C	0.234687	0.099429	0.079758
C47	C	0.568020	0.432762	0.413091
C48	C	0.901354	0.766095	0.746424
C49	C	0.155745	0.098167	0.079753
C50	C	0.489078	0.431500	0.413086
C51	C	0.822412	0.764834	0.746419
C52	C	0.553051	0.104516	0.079781
C53	C	0.886385	0.437849	0.413114
C54	C	1.219718	0.771183	0.746447
C55	C	0.631999	0.105780	0.079780
C56	C	0.965332	0.439114	0.413113
C57	C	1.298665	0.772447	0.746446
C58	C	0.632017	0.105785	-0.079890
C59	C	0.965350	0.439118	0.253443
C60	C	1.298684	0.772452	0.586777
C61	C	0.553075	0.104523	-0.079895
C62	C	0.886408	0.437857	0.253438
C63	C	1.219742	0.771190	0.586772
C64	C	0.513597	0.103884	-0.000057
C65	C	0.846930	0.437217	0.333276
C66	C	1.180264	0.770550	0.666609
C67	C	0.427997	0.102520	-0.000063
C68	C	0.761330	0.435853	0.333270
C69	C	1.094664	0.769187	0.666604
C70	C	0.359770	0.101433	-0.000074
C71	C	0.693104	0.434767	0.333259
C72	C	1.026437	0.768100	0.666593
C73	C	0.899653	-0.036407	-0.000060
C74	C	1.232987	0.296926	0.333273
C75	C	1.566320	0.630259	0.666606
C76	C	0.898308	-0.120425	-0.000060
C77	C	1.231642	0.212909	0.333274
C78	C	1.564975	0.546242	0.666607
C79	C	0.959052	-0.645293	-0.000089
C80	C	1.292385	-0.311959	0.333245
C81	C	1.625718	0.021374	0.666578
C82	C	0.960311	-0.566349	-0.000081
C83	C	1.293644	-0.233016	0.333252
C84	C	1.626978	0.100318	0.666586
C85	C	0.891976	-0.517735	-0.000075
C86	C	1.225310	-0.184401	0.333259
C87	C	1.558643	0.148932	0.666592
C88	C	0.822378	-0.548068	-0.000067
C89	C	1.155711	-0.214734	0.333266
C90	C	1.489044	0.118599	0.666600
C91	C	0.821119	-0.627010	-0.000068
C92	C	1.154453	-0.293677	0.333265
C93	C	1.487786	0.039656	0.666598
C94	C	0.827451	-0.229702	-0.000060
C95	C	1.160784	0.103632	0.333273
C96	C	1.494117	0.436965	0.666607
C97	C	0.828715	-0.150754	-0.000061
C98	C	1.162048	0.182579	0.333272
C99	C	1.495381	0.515912	0.666606
C100	C	0.966642	-0.169040	-0.000072
C101	C	1.299976	0.164293	0.333261
C102	C	1.633309	0.497626	0.666594
C103	C	0.965384	-0.247983	-0.000074
C104	C	1.298717	0.085351	0.333260
C105	C	1.632051	0.418684	0.666593
C106	C	0.895786	-0.278309	-0.000062
C107	C	1.229120	0.055024	0.333272
C108	C	1.562453	0.388358	0.666605
C109	C	0.894422	-0.363909	-0.000068
C110	C	1.227755	-0.030576	0.333265
C111	C	1.561088	0.302758	0.666598
C112	C	0.893340	-0.432136	-0.000074
C113	C	1.226673	-0.098803	0.333259
C114	C	1.560006	0.234531	0.666593
C115	C	1.032268	0.096204	-0.000079
C116	C	1.365602	0.429537	0.333255
C117	C	1.698935	0.762870	0.666588
C118	C	1.116286	0.097546	-0.000090
C119	C	1.449619	0.430880	0.333243
C120	C	1.782953	0.764213	0.666577
C121	C	0.888114	0.240362	-0.000077
C122	C	1.221447	0.573695	0.333256
C123	C	1.554781	0.907028	0.666589
C124	C	0.889459	0.324379	-0.000084
C125	C	1.222792	0.657712	0.333250
C126	C	1.556125	0.991046	0.666583
N127	N	0.893877	0.101974	0.228107
N128	N	1.227210	0.435307	0.561440
N129	N	1.560544	0.768641	0.894773
N130	N	0.893896	0.101974	-0.228242
N131	N	1.227229	0.435308	0.105091
N132	N	1.560563	0.768641	0.438424
C133	C	0.945439	0.050446	0.453830
C134	C	1.278772	0.383779	0.787163
C135	C	1.612106	0.717112	1.120496
C136	C	0.945441	0.050444	0.546019
C137	C	1.278775	0.383777	0.879353
C138	C	1.612108	0.717111	1.212686
C139	C	0.842329	0.153505	0.546028
C140	C	1.175662	0.486838	0.879361
C141	C	1.508995	0.820172	1.212695
C142	C	0.842323	0.153503	0.453840
C143	C	1.175657	0.486836	0.787173
C144	C	1.508990	0.820169	1.120507
C145	C	0.893883	0.101974	0.407743
C146	C	1.227216	0.435307	0.741077
C147	C	1.560549	0.768641	1.074410
C148	C	0.893890	0.101974	0.592121
C149	C	1.227224	0.435308	0.925454
C150	C	1.560557	0.768641	1.258788
C151	C	0.893893	0.101973	0.692077
C152	C	1.227226	0.435306	1.025410
C153	C	1.560559	0.768640	1.358744
C154	C	0.893880	0.101974	0.307781
C155	C	1.227213	0.435308	0.641114
C156	C	1.560546	0.768641	0.974447
H157	H	0.664170	0.106303	-0.144898
H158	H	0.997503	0.439636	0.188436
H159	H	1.330837	0.772969	0.521769
C160	C	1.036861	-0.532987	-0.000082
C161	C	1.370195	-0.199654	0.333252
C162	C	1.703528	0.133679	0.666585
H163	H	1.027826	-0.479010	-0.000067
H164	H	1.361159	-0.145676	0.333266
H165	H	1.694493	0.187657	0.666600
H166	H	1.064997	-0.549673	-0.051156
H167	H	1.398330	-0.216339	0.282177
H168	H	1.731663	0.116994	0.615511
H169	H	1.064985	-0.549689	0.050996
H170	H	1.398318	-0.216356	0.384330
H171	H	1.731652	0.116977	0.717663
C172	C	1.002150	-0.006232	0.403122
C173	C	1.335483	0.327102	0.736455
C174	C	1.668817	0.660435	1.069789
H175	H	0.994771	0.001151	0.341617
H176	H	1.328104	0.334484	0.674950
H177	H	1.661438	0.667818	1.008283
H178	H	0.994027	-0.056736	0.418236
H179	H	1.327360	0.276597	0.751569
H180	H	1.660693	0.609931	1.084903
H181	H	1.052647	0.001935	0.418222
H182	H	1.385980	0.335268	0.751556
H183	H	1.719313	0.668602	1.084889
H184	H	0.766739	-0.508480	-0.000057
H185	H	1.100072	-0.175146	0.333277
H186	H	1.433405	0.158187	0.666610
H187	H	0.773065	-0.111173	-0.000054
H188	H	1.106398	0.222160	0.333279
H189	H	1.439731	0.555493	0.666613
H190	H	0.987422	0.008484	0.583540
H191	H	1.320756	0.341817	0.916874
H192	H	1.654089	0.675151	1.250207
C193	C	0.785625	0.210189	0.596737
C194	C	1.118958	0.543522	0.930071
C195	C	1.452292	0.876856	1.263404
H196	H	0.793017	0.202817	0.658242
H197	H	1.126350	0.536150	0.991575
H198	H	1.459683	0.869484	1.324909
H199	H	0.735127	0.202035	0.581644
H200	H	1.068461	0.535368	0.914977
H201	H	1.401794	0.868702	1.248311
H202	H	0.793761	0.260693	0.581617
H203	H	1.127094	0.594026	0.914951
H204	H	1.460427	0.927359	1.248284
H205	H	0.800336	0.195463	0.416314
H206	H	1.133669	0.528797	0.749647
H207	H	1.467003	0.862130	1.082981
H208	H	0.123600	0.097659	0.144760
H209	H	0.456933	0.430993	0.478094
H210	H	0.790267	0.764326	0.811427
H211	H	0.123642	0.097673	-0.144935
H212	H	0.456975	0.431007	0.188398
H213	H	0.790308	0.764340	0.521731
H214	H	0.266853	0.099947	-0.144925
H215	H	0.600186	0.433280	0.188408
H216	H	0.933519	0.766614	0.521741
H217	H	0.520949	0.104015	-0.144907
H218	H	0.854282	0.437349	0.188426
H219	H	1.187615	0.770682	0.521760
C220	C	1.040550	-0.301458	-0.000086
C221	C	1.373883	0.031876	0.333247
C222	C	1.707216	0.365209	0.666580
H223	H	1.029832	-0.352816	-0.000095
H224	H	1.363166	-0.019483	0.333238
H225	H	1.696499	0.313850	0.666571
H226	H	1.069094	-0.292283	0.050983
H227	H	1.402427	0.041051	0.384316
H228	H	1.735760	0.374384	0.717650
H229	H	1.069091	-0.292270	-0.051169
H230	H	1.402425	0.041063	0.282164
H231	H	1.735758	0.374396	0.615497
C232	C	0.675408	0.106456	0.167605
C233	C	1.008741	0.439789	0.500938
C234	C	1.342074	0.773123	0.834272
H235	H	0.640592	0.105884	0.215153
H236	H	0.973925	0.439217	0.548487
H237	H	1.307258	0.772551	0.881820
H238	H	0.700357	0.151064	0.170934
H239	H	1.033690	0.484397	0.504267
H240	H	1.367023	0.817730	0.837600
H241	H	0.712049	0.062821	0.170912
H242	H	1.045383	0.396155	0.504245
H243	H	1.378716	0.729488	0.837578
C244	C	0.744567	-0.660371	-0.000071
C245	C	1.077901	-0.327038	0.333262
C246	C	1.411234	0.006295	0.666596
H247	H	0.704049	-0.620113	-0.000077
H248	H	1.037383	-0.286780	0.333257
H249	H	1.370716	0.046553	0.666590
H250	H	0.741204	-0.690792	0.051000
H251	H	1.074538	-0.357459	0.384333
H252	H	1.407871	-0.024125	0.717667
H253	H	0.741215	-0.690781	-0.051152
H254	H	1.074548	-0.357448	0.282181
H255	H	1.407882	-0.024114	0.615514
H256	H	1.014698	-0.684870	-0.000101
H257	H	1.348032	-0.351537	0.333232
H258	H	1.681365	-0.018203	0.666566
H259	H	0.266824	0.099936	0.144763
H260	H	0.600157	0.433269	0.478096
H261	H	0.933490	0.766602	0.811430
C262	C	0.509634	0.103823	0.167598
C263	C	0.842967	0.437157	0.500932
C264	C	1.176301	0.770490	0.834265
H265	H	0.544443	0.104388	0.215144
H266	H	0.877776	0.437721	0.548478
H267	H	1.211110	0.771055	0.881811
H268	H	0.484687	0.059213	0.170925
H269	H	0.818020	0.392547	0.504258
H270	H	1.151353	0.725880	0.837592
H271	H	0.472990	0.147456	0.170911
H272	H	0.806323	0.480789	0.504244
H273	H	1.139656	0.814123	0.837578
H274	H	1.023312	-0.144340	-0.000094
H275	H	1.356646	0.188994	0.333239
H276	H	1.689979	0.522327	0.666573
H277	H	0.770780	-0.254383	-0.000061
H278	H	1.104113	0.078950	0.333273
H279	H	1.437447	0.412284	0.666606
