data_functionalizedCrystal
_audit_creation_method	'MofGen! by Chris Wilmer'
_symmetry_space_group_name_H-M	'P1'
_symmetry_Int_Tables_number	1
_symmetry_cell_setting	triclinic
loop_
_symmetry_equiv_pos_as_xyz
  x,y,z
_cell_length_a	27.732064
_cell_length_b	27.732048
_cell_length_c	9.198806
_cell_angle_alpha	89.991879
_cell_angle_beta	90.003704
_cell_angle_gamma	82.646040
loop_
_atom_site_label
_atom_site_type_symbol
_atom_site_fract_x
_atom_site_fract_y
_atom_site_fract_z
O1	O	0.640922	0.057554	-0.120649
O2	O	1.140922	0.557554	0.379351
O3	O	0.500129	0.066291	-0.120711
O4	O	1.000129	0.566291	0.379289
O5	O	0.574898	-0.008474	-0.120650
O6	O	1.074898	0.491526	0.379350
O7	O	0.566153	0.132319	-0.120709
O8	O	1.066153	0.632319	0.379291
O9	O	0.574892	-0.008474	0.121135
O10	O	1.074892	0.491526	0.621135
O11	O	0.500123	0.066291	0.121074
O12	O	1.000123	0.566291	0.621074
O13	O	0.640916	0.057554	0.121136
O14	O	1.140916	0.557554	0.621136
Cu15	Cu	0.570519	0.061923	0.143182
Cu16	Cu	1.070519	0.561923	0.643182
Cu17	Cu	0.570526	0.061923	-0.142756
Cu18	Cu	1.070526	0.561923	0.357244
O19	O	0.566147	0.132319	0.121076
O20	O	1.066147	0.632319	0.621076
C21	C	0.482120	0.066106	0.000174
C22	C	0.982120	0.566106	0.500174
C23	C	0.428465	0.065551	0.000152
C24	C	0.928465	0.565551	0.500152
C25	C	0.051392	0.017583	0.000255
C26	C	0.551392	0.517583	0.500255
C27	C	0.253053	0.019630	0.000216
C28	C	0.753053	0.519630	0.500216
O29	O	0.284305	-0.017591	0.000286
O30	O	0.784305	0.482409	0.500286
N31	N	0.272180	0.063964	0.000191
N32	N	0.772180	0.563964	0.500191
C33	C	0.240889	0.107790	0.000185
C34	C	0.740889	0.607790	0.500185
O35	O	0.261785	0.145546	0.000178
O36	O	0.761785	0.645546	0.500178
C37	C	0.039230	0.105743	0.000234
C38	C	0.539230	0.605743	0.500234
C39	C	0.020105	0.061406	0.000245
C40	C	0.520105	0.561406	0.500245
C41	C	0.032267	-0.026750	0.000267
C42	C	0.532267	0.473250	0.500267
C43	C	-0.018145	-0.027261	0.000269
C44	C	0.481855	0.472739	0.500269
C45	C	-0.049432	0.016561	0.000258
C46	C	0.450568	0.516561	0.500258
C47	C	-0.030307	0.060895	0.000246
C48	C	0.469693	0.560895	0.500246
C49	C	0.007940	0.149568	0.000239
C50	C	0.507940	0.649568	0.500239
C51	C	-0.042478	0.149053	0.000255
C52	C	0.457522	0.649053	0.500255
C53	C	-0.061602	0.104716	0.000265
C54	C	0.438398	0.604716	0.500265
C55	C	-0.112006	0.104206	0.000238
C56	C	0.387994	0.604206	0.500238
N57	N	-0.131134	0.059872	0.000263
N58	N	0.368866	0.559872	0.500263
C59	C	-0.099846	0.016049	0.000273
C60	C	0.400154	0.516049	0.500273
C61	C	0.346763	0.108861	0.000157
C62	C	0.846763	0.608861	0.500157
C63	C	0.397178	0.109373	0.000142
C64	C	0.897178	0.609373	0.500142
C65	C	0.409338	0.021213	0.000175
C66	C	0.909338	0.521213	0.500175
C67	C	0.358923	0.020701	0.000180
C68	C	0.858923	0.520701	0.500180
C69	C	0.327636	0.064527	0.000182
C70	C	0.827636	0.564527	0.500182
C71	C	-0.205716	0.014979	0.000276
C72	C	0.294284	0.514979	0.500276
C73	C	-0.256133	0.014472	0.000271
C74	C	0.243867	0.514472	0.500271
C75	C	-0.268289	0.102632	0.000245
C76	C	0.231711	0.602632	0.500245
C77	C	-0.217876	0.103140	0.000242
C78	C	0.282124	0.603140	0.500242
C79	C	-0.186590	0.059309	0.000262
C80	C	0.313410	0.559309	0.500262
O81	O	-0.143287	0.141407	0.000184
O82	O	0.356713	0.641407	0.500184
O83	O	-0.120752	-0.021701	0.000313
O84	O	0.379248	0.478299	0.500313
C85	C	0.101805	0.018094	0.000253
C86	C	0.601805	0.518094	0.500253
C87	C	0.120930	0.062428	0.000241
C88	C	0.620930	0.562428	0.500241
C89	C	0.089642	0.106250	0.000231
C90	C	0.589642	0.606250	0.500231
C91	C	0.171344	0.062940	0.000226
C92	C	0.671344	0.562940	0.500226
C93	C	0.202631	0.019117	0.000237
C94	C	0.702631	0.519117	0.500237
C95	C	0.183504	-0.025217	0.000262
C96	C	0.683504	0.474783	0.500262
C97	C	0.133092	-0.025728	0.000263
C98	C	0.633092	0.474272	0.500263
C99	C	0.108770	0.150585	0.000206
C100	C	0.608770	0.650585	0.500206
C101	C	0.159183	0.151092	0.000202
C102	C	0.659183	0.651092	0.500202
C103	C	0.190470	0.107270	0.000213
C104	C	0.690470	0.607270	0.500213
C105	C	0.574712	-0.026481	0.000246
C106	C	1.074712	0.473519	0.500246
C107	C	0.574159	-0.080136	0.000258
C108	C	1.074159	0.419864	0.500258
C109	C	0.614862	-0.418948	0.000201
C110	C	1.114862	0.081052	0.500201
C111	C	0.612811	-0.620608	0.000180
C112	C	1.112811	-0.120608	0.500180
O113	O	0.650032	-0.651862	0.000133
O114	O	1.150032	-0.151862	0.500133
N115	N	0.568476	-0.639735	0.000162
N116	N	1.068476	-0.139735	0.500162
C117	C	0.524651	-0.608442	0.000140
C118	C	1.024651	-0.108442	0.500140
O119	O	0.486895	-0.629338	0.000109
O120	O	0.986895	-0.129338	0.500109
C121	C	0.526703	-0.406784	0.000151
C122	C	1.026703	0.093216	0.500151
C123	C	0.571040	-0.387660	0.000183
C124	C	1.071040	0.112340	0.500183
C125	C	0.659196	-0.399824	0.000233
C126	C	1.159196	0.100176	0.500233
C127	C	0.659709	-0.349412	0.000246
C128	C	1.159709	0.150588	0.500246
C129	C	0.615887	-0.318124	0.000228
C130	C	1.115887	0.181876	0.500228
C131	C	0.571553	-0.337248	0.000197
C132	C	1.071553	0.162752	0.500197
C133	C	0.482878	-0.375493	0.000118
C134	C	0.982878	0.124507	0.500118
C135	C	0.483395	-0.325075	0.000117
C136	C	0.983395	0.174925	0.500117
C137	C	0.527733	-0.305952	0.000150
C138	C	1.027733	0.194048	0.500150
C139	C	0.528243	-0.255548	0.000192
C140	C	1.028243	0.244452	0.500192
N141	N	0.572578	-0.236422	0.000210
N142	N	1.072578	0.263578	0.500210
C143	C	0.616400	-0.267710	0.000228
C144	C	1.116400	0.232290	0.500228
C145	C	0.523577	-0.714317	0.000137
C146	C	1.023577	-0.214317	0.500137
C147	C	0.523064	-0.764731	0.000137
C148	C	1.023064	-0.264731	0.500137
C149	C	0.611225	-0.776893	0.000175
C150	C	1.111225	-0.276893	0.500175
C151	C	0.611737	-0.726478	0.000185
C152	C	1.111737	-0.226478	0.500185
C153	C	0.567912	-0.695190	0.000155
C154	C	1.067912	-0.195190	0.500155
C155	C	0.617472	-0.161841	0.000257
C156	C	1.117472	0.338159	0.500257
C157	C	0.617981	-0.111424	0.000276
C158	C	1.117981	0.388576	0.500276
C159	C	0.529821	-0.099266	0.000231
C160	C	1.029821	0.400734	0.500231
C161	C	0.529312	-0.149679	0.000219
C162	C	1.029312	0.350321	0.500219
C163	C	0.573142	-0.180965	0.000227
C164	C	1.073142	0.319035	0.500227
O165	O	0.491043	-0.224267	0.000223
O166	O	0.991043	0.275733	0.500223
O167	O	0.654151	-0.246805	0.000227
O168	O	1.154151	0.253195	0.500227
C169	C	0.614350	-0.469360	0.000188
C170	C	1.114350	0.030640	0.500188
C171	C	0.570016	-0.488484	0.000157
C172	C	1.070016	0.011516	0.500157
C173	C	0.526194	-0.457196	0.000139
C174	C	1.026194	0.042804	0.500139
C175	C	0.569503	-0.538899	0.000157
C176	C	1.069503	-0.038899	0.500157
C177	C	0.613325	-0.570187	0.000175
C178	C	1.113325	-0.070187	0.500175
C179	C	0.657660	-0.551060	0.000193
C180	C	1.157660	-0.051060	0.500193
C181	C	0.658172	-0.500648	0.000206
C182	C	1.158172	-0.000648	0.500206
C183	C	0.481859	-0.476323	0.000121
C184	C	0.981859	0.023677	0.500121
C185	C	0.481351	-0.526735	0.000109
C186	C	0.981351	-0.026735	0.500109
C187	C	0.525172	-0.558023	0.000127
C188	C	1.025172	-0.058023	0.500127
C189	C	0.658925	0.057739	0.000248
C190	C	1.158925	0.557739	0.500248
C191	C	0.712580	0.058295	0.000261
C192	C	1.212580	0.558295	0.500261
C193	C	0.566333	0.150326	0.000176
C194	C	1.066333	0.650326	0.500176
C195	C	0.566886	0.203981	0.000155
C196	C	1.066886	0.703981	0.500155
N197	N	0.570518	0.061922	0.344296
N198	N	1.070518	0.561922	0.844296
N199	N	0.570531	0.061919	-0.343870
N200	N	1.070531	0.561919	0.156130
C201	C	0.601913	0.030394	0.416519
C202	C	1.101913	0.530394	0.916519
C203	C	0.601921	0.030392	0.583931
C204	C	1.101921	0.530392	1.083931
H205	H	-0.033711	-0.063365	0.000283
H206	H	0.466289	0.436635	0.500283
Cl207	Cl	0.448680	-0.033878	0.000188
Cl208	Cl	0.948680	0.466122	0.500188
Cl209	Cl	0.667478	-0.702443	0.000225
Cl210	Cl	1.167478	-0.202443	0.500225
Cl211	Cl	0.421214	0.165113	0.000099
Cl212	Cl	0.921214	0.665113	0.500099
Cl213	Cl	0.666315	-0.816236	0.000190
Cl214	Cl	1.166315	-0.316236	0.500190
H215	H	0.628785	0.003401	0.354415
H216	H	1.128785	0.503401	0.854415
Cl217	Cl	0.529031	0.103599	0.560255
Cl218	Cl	1.029031	0.603599	1.060255
Cl219	Cl	0.071592	-0.081849	0.000281
Cl220	Cl	0.571592	0.418151	0.500281
Cl221	Cl	0.334886	-0.035039	0.000201
Cl222	Cl	0.834886	0.464961	0.500201
Cl223	Cl	0.529023	0.103594	0.440174
Cl224	Cl	1.029023	0.603594	0.940174
H225	H	0.321293	0.144551	0.000156
H226	H	0.821293	0.644551	0.500156
Cl227	Cl	0.031969	0.205310	0.000227
Cl228	Cl	0.531969	0.705310	0.500227
Cl229	Cl	0.467323	-0.788765	0.000123
Cl230	Cl	0.967323	-0.288765	0.500123
H231	H	-0.067950	0.184742	0.000263
H232	H	0.432050	0.684742	0.500263
Cl233	Cl	0.473573	-0.173720	0.000205
Cl234	Cl	0.973573	0.326280	0.500205
Cl235	Cl	-0.280172	-0.041270	0.000275
Cl236	Cl	0.219828	0.458730	0.500275
H237	H	0.174748	0.187200	0.000184
H238	H	0.674748	0.687200	0.500184
Cl239	Cl	0.713914	-0.476616	0.000235
Cl240	Cl	1.213914	0.023384	0.500235
Cl241	Cl	0.712749	-0.590404	0.000222
Cl242	Cl	1.212749	-0.090404	0.500222
H243	H	0.446774	-0.391054	0.000082
H244	H	0.946774	0.108946	0.500082
H245	H	-0.202304	0.139243	0.000232
H246	H	0.297696	0.639243	0.500232
H247	H	0.628801	0.003402	0.646039
H248	H	1.128801	0.503402	1.146039
Cl249	Cl	-0.166393	-0.040122	0.000297
Cl250	Cl	0.333607	0.459878	0.500297
Cl251	Cl	0.109057	-0.081469	0.000271
Cl252	Cl	0.609057	0.418531	0.500271
H253	H	0.208987	-0.060899	0.000262
H254	H	0.708987	0.439101	0.500262
Cl255	Cl	0.069444	0.205682	0.000185
Cl256	Cl	0.569444	0.705682	0.500185
Cl257	Cl	0.673724	-0.087387	0.000315
Cl258	Cl	1.173724	0.412613	0.500315
H259	H	0.653163	-0.187309	0.000258
H260	H	1.153163	0.312691	0.500258
Cl261	Cl	0.715451	-0.325380	0.000246
Cl262	Cl	1.215451	0.174620	0.500246
H263	H	0.445243	-0.542300	0.000095
H264	H	0.945243	-0.042300	0.500095
H265	H	-0.293772	0.138311	0.000230
H266	H	0.206228	0.638311	0.500230
Cl267	Cl	0.714295	-0.439150	0.000258
Cl268	Cl	1.214295	0.060850	0.500258
Cl269	Cl	0.468477	-0.674990	0.000101
Cl270	Cl	0.968477	-0.174990	0.500101
H271	H	0.447706	-0.299603	0.000090
H272	H	0.947706	0.200397	0.500090
H273	H	0.494142	-0.073782	0.000221
H274	H	0.994142	0.426218	0.500221
Cl275	Cl	0.426763	-0.436996	0.000095
Cl276	Cl	0.926763	0.063004	0.500095
