data_functionalizedCrystal
_audit_creation_method	'MofGen! by Chris Wilmer'
_symmetry_space_group_name_H-M	'P1'
_symmetry_Int_Tables_number	1
_symmetry_cell_setting	triclinic
loop_
_symmetry_equiv_pos_as_xyz
  x,y,z
_cell_length_a	19.188930
_cell_length_b	18.266242
_cell_length_c	17.699083
_cell_angle_alpha	90.007243
_cell_angle_beta	83.213897
_cell_angle_gamma	90.022918
loop_
_atom_site_label
_atom_site_type_symbol
_atom_site_fract_x
_atom_site_fract_y
_atom_site_fract_z
O1	O	0.926255	0.061118	0.094493
O2	O	0.722958	0.061068	0.107213
O3	O	0.830350	0.061088	-0.009344
O4	O	0.818863	0.061098	0.211049
O5	O	0.830332	-0.060674	-0.009350
O6	O	0.722940	-0.060694	0.107207
O7	O	0.926237	-0.060644	0.094487
Zn8	Zn	0.824586	-0.080002	0.100846
Zn9	Zn	0.824610	0.080425	0.100854
O10	O	0.818845	-0.060664	0.211044
C11	C	0.696938	0.000180	0.106798
C12	C	0.619432	0.000161	0.105561
C13	C	0.574584	0.000176	0.173953
C14	C	0.501759	0.000184	0.172791
C15	C	0.473785	0.000192	0.103234
C16	C	0.518642	0.000173	0.034833
C17	C	0.591465	0.000158	0.035997
N18	N	0.365751	0.041660	0.050068
N19	N	0.296571	0.041676	0.048967
C20	C	0.254372	0.000236	0.099724
N21	N	0.283965	-0.041211	0.151634
N22	N	0.353151	-0.041224	0.152737
C23	C	0.394821	0.000208	0.101965
C24	C	0.130559	0.000259	0.166861
C25	C	0.057733	0.000262	0.165696
C26	C	0.074617	0.000259	0.027736
C27	C	0.147442	0.000248	0.028903
C28	C	0.175408	0.000251	0.098467
N29	N	0.824574	-0.189489	0.100840
C30	C	0.872143	-0.227789	0.049254
C31	C	0.872148	-0.304433	0.049250
C32	C	0.824590	-0.342775	0.100846
C33	C	0.777012	-0.304466	0.152436
C34	C	0.777004	-0.227823	0.152433
N35	N	0.815589	-0.463106	0.167847
N36	N	0.815601	-0.535914	0.167847
C37	C	0.824609	-0.573698	0.100857
N38	N	0.833620	-0.535923	0.033864
N39	N	0.833612	-0.463108	0.033864
C40	C	0.824593	-0.425882	0.100855
C41	C	0.872186	-0.695105	0.049263
C42	C	0.872185	-0.771751	0.049258
C43	C	0.777053	-0.771783	0.152450
C44	C	0.777050	-0.695138	0.152448
C45	C	0.824620	-0.656803	0.100855
C46	C	0.952258	0.000245	0.094902
C47	C	1.029763	0.000269	0.096138
C48	C	0.829930	0.000207	-0.037543
C49	C	0.828695	0.000206	-0.121560
N50	N	0.824626	0.189912	0.100853
C51	C	0.891732	0.000220	-0.170264
C52	C	0.890567	0.000227	-0.249206
C53	C	0.826365	0.000213	-0.279442
C54	C	0.763323	0.000201	-0.230732
C55	C	0.764489	0.000200	-0.151791
C56	C	0.758623	0.000206	-0.549089
C57	C	0.757463	0.000204	-0.628035
C58	C	0.884702	0.000232	-0.646503
C59	C	0.885867	0.000231	-0.567563
C60	C	0.822826	0.000223	-0.518859
C61	C	0.824089	0.000218	-0.433262
C62	C	0.825101	0.000213	-0.365038
C63	C	0.819266	0.000219	0.239243
C64	C	0.820500	0.000224	0.323259
H65	H	0.183958	0.000240	-0.026790
O66	O	0.945988	0.000347	-0.693738
C67	C	1.054380	0.063474	-0.733697
C68	C	0.985010	0.063430	-0.680151
H69	H	1.085942	0.114479	-0.722741
H70	H	1.086021	0.012557	-0.722729
H71	H	1.042506	0.063441	-0.795305
H72	H	0.996820	0.063489	-0.618523
H73	H	0.953389	0.114342	-0.691184
H74	H	0.711049	0.000194	-0.255356
H75	H	0.910876	-0.196579	0.007242
H76	H	0.051841	0.000311	-0.028899
O77	O	0.458212	0.000333	0.239249
C78	C	0.421562	0.063421	0.356815
C79	C	0.470904	0.063348	0.281574
H80	H	0.431816	0.114355	0.391063
H81	H	0.364696	0.063481	0.344075
H82	H	0.431677	0.012443	0.391035
H83	H	0.460852	0.114317	0.247318
H84	H	0.527754	0.063250	0.294368
H85	H	0.910885	-0.335623	0.007241
H86	H	0.597349	0.000180	0.230598
H87	H	0.910919	-0.802936	0.007246
H88	H	0.944013	0.000227	-0.145652
O89	O	0.951737	0.000275	-0.296624
C90	C	1.006339	0.000259	-0.426422
C91	C	0.937010	0.000216	-0.372808
H92	H	0.994456	0.000196	-0.488027
H93	H	1.037957	0.051235	-0.415501
H94	H	1.037935	-0.050680	-0.415421
H95	H	0.905357	0.051120	-0.383777
H96	H	0.905445	-0.050793	-0.383740
O97	O	0.157766	0.000379	0.234411
C98	C	0.230260	0.063417	0.315776
C99	C	0.199484	0.063383	0.239258
H100	H	0.264007	0.114342	0.319713
H101	H	0.185723	0.063467	0.364493
H102	H	0.263876	0.012430	0.319749
H103	H	0.165876	0.114361	0.235211
H104	H	0.244054	0.063294	0.190578
O105	O	0.730787	-0.341790	0.202453
C106	C	0.635394	-0.428341	0.218819
C107	C	0.687720	-0.386132	0.162094
H108	H	0.600551	-0.464190	0.186211
H109	H	0.665437	-0.464249	0.256542
H110	H	0.601423	-0.387785	0.255706
H111	H	0.721704	-0.426635	0.125157
H112	H	0.657635	-0.350213	0.124424
H113	H	0.938147	0.000239	-0.542949
O114	O	0.730782	-0.657894	0.202464
C115	C	0.635431	-0.571368	0.218837
C116	C	0.687783	-0.613514	0.162109
H117	H	0.600663	-0.535466	0.186233
H118	H	0.601390	-0.611900	0.255708
H119	H	0.665525	-0.535499	0.256576
H120	H	0.657746	-0.649385	0.124321
H121	H	0.721824	-0.572943	0.125292
O122	O	0.730771	-0.190728	0.202623
C123	C	0.636385	-0.198847	0.304942
C124	C	0.688717	-0.240949	0.248154
H125	H	0.602361	-0.239432	0.341758
H126	H	0.666424	-0.162965	0.342725
H127	H	0.601596	-0.162965	0.272342
H128	H	0.723520	-0.276871	0.280692
H129	H	0.658635	-0.276785	0.210372
H130	H	0.705179	0.000192	-0.652650
H131	H	0.707291	0.000198	-0.509443
H132	H	0.910918	-0.663892	0.007250
H133	H	0.713157	0.000188	-0.112137
O134	O	0.730758	-0.808985	0.202497
C135	C	0.609285	-0.832454	0.247203
C136	C	0.661641	-0.790287	0.190473
H137	H	0.553393	-0.817341	0.237512
H138	H	0.617398	-0.893822	0.238346
H139	H	0.618312	-0.817379	0.307793
H140	H	0.652646	-0.805301	0.129860
H141	H	0.653516	-0.728929	0.199396
H142	H	0.627981	0.000146	-0.019698
O143	O	0.491437	0.000313	-0.032715
C144	C	0.419018	0.063390	-0.114071
C145	C	0.449792	0.063335	-0.037550
H146	H	0.385330	0.114330	-0.117998
H147	H	0.463557	0.063424	-0.162786
H148	H	0.385345	0.012418	-0.118055
H149	H	0.483458	0.114298	-0.033492
H150	H	0.405220	0.063262	0.011128
H151	H	0.021218	0.000270	0.221391
