data_functionalizedCrystal
_audit_creation_method	'MofGen! by Chris Wilmer'
_symmetry_space_group_name_H-M	'P1'
_symmetry_Int_Tables_number	1
_symmetry_cell_setting	triclinic
loop_
_symmetry_equiv_pos_as_xyz
  x,y,z
_cell_length_a	10.654550
_cell_length_b	10.654550
_cell_length_c	9.730223
_cell_angle_alpha	89.996763
_cell_angle_beta	89.999957
_cell_angle_gamma	84.484917
loop_
_atom_site_label
_atom_site_type_symbol
_atom_site_fract_x
_atom_site_fract_y
_atom_site_fract_z
O1	O	1.667839	0.176399	-0.114183
O2	O	1.302361	0.193205	-0.114208
O3	O	1.493503	0.002062	-0.114190
O4	O	1.476697	0.367541	-0.114202
O5	O	1.493490	0.002057	0.114390
O6	O	1.302348	0.193199	0.114372
O7	O	1.667827	0.176393	0.114396
Zn8	Zn	1.485085	0.184796	0.150676
Zn9	Zn	1.485102	0.184802	-0.150488
O10	O	1.476684	0.367536	0.114378
C11	C	1.255556	0.191968	0.000078
C12	C	1.116113	0.188276	0.000069
C13	C	1.036627	0.300818	0.000069
C14	C	0.905607	0.297341	0.000093
C15	C	0.933570	0.068772	0.000111
C16	C	1.064588	0.072250	0.000097
C17	C	1.492263	-0.044738	0.000098
C18	C	1.488571	-0.184181	0.000093
C19	C	1.601112	-0.263667	0.000105
C20	C	1.597636	-0.394688	0.000095
C21	C	1.369066	-0.366725	0.000067
C22	C	1.372544	-0.235706	0.000067
C23	C	1.717139	-0.212142	0.000130
C24	C	1.829690	-0.291629	0.000144
C25	C	1.826213	-0.422650	0.000134
C26	C	1.710186	-0.474184	0.000111
C27	C	1.714631	0.177630	0.000107
C28	C	1.854074	0.181322	0.000107
C29	C	1.477924	0.414336	0.000087
C30	C	1.481616	0.553779	0.000083
N31	N	1.485083	0.184790	0.356212
N32	N	1.485114	0.184798	-0.356024
C33	C	1.569750	0.100188	0.428146
C34	C	1.569763	0.100189	0.572029
C35	C	1.400438	0.269404	0.572032
C36	C	1.400420	0.269396	0.428151
H37	H	1.129309	-0.019401	0.000100
C38	C	2.052491	-0.437124	0.000172
C39	C	1.949924	-0.510024	0.000147
H40	H	2.128866	-0.491066	0.000193
H41	H	2.049105	-0.385439	-0.079533
H42	H	2.049071	-0.385441	0.079890
H43	H	1.953339	-0.561699	-0.079577
H44	H	1.953313	-0.561731	0.079860
C45	C	1.262250	-0.555154	0.000070
C46	C	1.241536	-0.423369	0.000059
H47	H	1.183515	-0.590120	0.000077
H48	H	1.308631	-0.582359	-0.079633
H49	H	1.308637	-0.582357	0.079790
H50	H	1.195157	-0.396165	-0.079666
H51	H	1.195135	-0.396153	0.079770
H52	H	1.078574	0.395294	0.000057
C53	C	1.229721	0.295056	0.266365
C54	C	1.307350	0.362400	0.349069
H55	H	1.172262	0.352471	0.217550
H56	H	1.280135	0.244674	0.202940
H57	H	1.184102	0.242367	0.322524
H58	H	1.352976	0.415083	0.292908
H59	H	1.256930	0.412805	0.412502
H60	H	0.840894	0.388984	0.000097
H61	H	1.719983	-0.105460	0.000143
C62	C	0.802448	-0.067738	-0.117379
C63	C	0.876929	-0.058761	0.000123
H64	H	0.767490	-0.146477	-0.117376
H65	H	0.736363	-0.001218	-0.117366
H66	H	0.852988	-0.061628	-0.197083
H67	H	0.826387	-0.064862	0.079827
H68	H	0.943024	-0.125299	0.000123
H69	H	1.707364	-0.580871	0.000088
C70	C	1.737110	-0.067083	0.442601
C71	C	1.662799	0.007179	0.349070
H72	H	1.794547	-0.124511	0.393782
H73	H	1.782743	-0.014381	0.498701
H74	H	1.684434	-0.112737	0.498738
H75	H	1.715475	0.052840	0.292940
H76	H	1.617163	-0.045530	0.292946
C77	C	1.146263	-0.221216	0.000049
C78	C	1.248838	-0.148326	0.000056
H79	H	1.069893	-0.167267	0.000045
H80	H	1.149666	-0.272895	-0.079654
H81	H	1.149657	-0.272903	0.079768
H82	H	1.245449	-0.096644	-0.079669
H83	H	1.245433	-0.096624	0.079768
H84	H	1.924155	-0.249661	0.000128
C85	C	1.595567	-0.070485	0.733836
C86	C	1.662833	0.007192	0.651098
H87	H	1.653029	-0.127905	0.782641
H88	H	1.545167	-0.020099	0.797271
H89	H	1.542901	-0.116147	0.677702
H90	H	1.715493	0.052861	0.707233
H91	H	1.713256	-0.043200	0.587656
C92	C	1.229788	0.295073	0.733876
C93	C	1.307390	0.362406	0.651119
H94	H	1.172351	0.352493	0.782705
H95	H	1.184154	0.242384	0.677762
H96	H	1.280232	0.244691	0.797302
H97	H	1.256946	0.412781	0.587685
H98	H	1.353027	0.415117	0.707238
