data_functionalizedCrystal
_audit_creation_method	'MofGen! by Chris Wilmer'
_symmetry_space_group_name_H-M	'P1'
_symmetry_Int_Tables_number	1
_symmetry_cell_setting	triclinic
loop_
_symmetry_equiv_pos_as_xyz
  x,y,z
_cell_length_a	14.519731
_cell_length_b	10.540510
_cell_length_c	13.596369
_cell_angle_alpha	89.996501
_cell_angle_beta	89.994584
_cell_angle_gamma	84.101082
loop_
_atom_site_label
_atom_site_type_symbol
_atom_site_fract_x
_atom_site_fract_y
_atom_site_fract_z
O1	O	1.224741	0.166531	-0.081788
O2	O	0.956370	0.186098	-0.081789
O3	O	1.096693	-0.008456	-0.081788
O4	O	1.084418	0.361086	-0.081789
O5	O	1.096678	-0.008467	0.081795
O6	O	0.956356	0.186088	0.081794
O7	O	1.224727	0.166521	0.081795
Zn8	Zn	1.090539	0.176303	0.107767
Zn9	Zn	1.090558	0.176316	-0.107761
O10	O	1.084404	0.361075	0.081794
C11	C	0.921999	0.185176	0.000002
C12	C	0.819604	0.182429	0.000002
C13	C	0.736448	0.180197	-0.000002
C14	C	0.632125	0.177407	-0.000002
C15	C	0.548974	0.175193	-0.000002
C16	C	0.444644	0.172404	-0.000005
C17	C	1.095771	-0.055756	0.000001
C18	C	1.093034	-0.196678	-0.000005
C19	C	1.190516	-0.415118	0.000370
C20	C	1.193435	-0.268552	-0.000003
C21	C	1.041647	-0.240912	-0.093417
C22	C	1.039439	-0.387650	-0.093490
C23	C	1.037332	-0.387449	0.092535
C24	C	1.042094	-0.241156	0.093764
C25	C	1.259098	0.167443	0.000001
C26	C	1.361493	0.170190	-0.000004
C27	C	1.085326	0.408375	0.000002
C28	C	1.088063	0.549297	0.000002
N29	N	1.090533	0.176293	0.254859
N30	N	1.090571	0.176316	-0.254853
C31	C	1.090557	0.176318	0.656150
C32	C	1.090547	0.176315	0.544498
C33	C	1.090545	0.176306	0.455508
C34	C	1.090535	0.176301	0.343849
H35	H	1.233642	-0.239619	0.066957
H36	H	1.069232	-0.429958	0.163341
H37	H	1.077345	-0.210411	-0.162933
H38	H	1.229625	-0.457473	0.067361
H39	H	1.079486	-0.212927	0.162870
H40	H	0.964346	-0.409886	-0.097722
H41	H	1.229411	-0.459013	-0.066241
H42	H	0.967734	-0.192776	-0.096890
H43	H	1.074569	-0.428216	-0.163316
Cl44	Cl	0.928920	-0.164265	0.102474
H45	H	0.961951	-0.408838	0.093164
H46	H	1.233887	-0.240551	-0.067080
