data_functionalizedCrystal
_audit_creation_method	'MofGen! by Chris Wilmer'
_symmetry_space_group_name_H-M	'P1'
_symmetry_Int_Tables_number	1
_symmetry_cell_setting	triclinic
loop_
_symmetry_equiv_pos_as_xyz
  x,y,z
_cell_length_a	13.339070
_cell_length_b	16.109301
_cell_length_c	14.586319
_cell_angle_alpha	90.000787
_cell_angle_beta	89.998714
_cell_angle_gamma	80.454612
loop_
_atom_site_label
_atom_site_type_symbol
_atom_site_fract_x
_atom_site_fract_y
_atom_site_fract_z
O1	O	0.130021	-1.133153	-0.076178
O2	O	0.380021	-0.883153	0.173822
O3	O	0.630021	-0.633153	0.423822
O4	O	0.880021	-0.383153	0.673822
O5	O	0.146201	-0.894827	-0.076192
O6	O	0.396201	-0.644827	0.173808
O7	O	0.646201	-0.394827	0.423808
O8	O	0.896201	-0.144827	0.673808
O9	O	-0.009144	-0.986638	-0.076184
O10	O	0.240856	-0.736638	0.173816
O11	O	0.490856	-0.486638	0.423816
O12	O	0.740856	-0.236638	0.673816
O13	O	0.285365	-1.041342	-0.076186
O14	O	0.535365	-0.791342	0.173814
O15	O	0.785365	-0.541342	0.423814
O16	O	1.035365	-0.291342	0.673814
O17	O	-0.009146	-0.986629	0.076297
O18	O	0.240854	-0.736629	0.326297
O19	O	0.490854	-0.486629	0.576297
O20	O	0.740854	-0.236629	0.826297
O21	O	0.146199	-0.894818	0.076289
O22	O	0.396199	-0.644818	0.326289
O23	O	0.646199	-0.394818	0.576289
O24	O	0.896199	-0.144818	0.826289
O25	O	0.130018	-1.133144	0.076303
O26	O	0.380018	-0.883144	0.326303
O27	O	0.630018	-0.633144	0.576303
O28	O	0.880018	-0.383144	0.826303
Cu29	Cu	0.138108	-1.013980	0.090219
Cu30	Cu	0.388108	-0.763980	0.340219
Cu31	Cu	0.638108	-0.513980	0.590219
Cu32	Cu	0.888108	-0.263980	0.840219
Cu33	Cu	0.138111	-1.013991	-0.090107
Cu34	Cu	0.388111	-0.763991	0.159893
Cu35	Cu	0.638111	-0.513991	0.409893
Cu36	Cu	0.888111	-0.263991	0.659893
O37	O	0.285363	-1.041333	0.076295
O38	O	0.535363	-0.791333	0.326295
O39	O	0.785363	-0.541333	0.576295
O40	O	1.035363	-0.291333	0.826295
C41	C	0.145545	-0.863697	0.000047
C42	C	0.395545	-0.613697	0.250047
C43	C	0.645545	-0.363697	0.500047
C44	C	0.895545	-0.113697	0.750047
C45	C	0.143580	-0.770947	0.000041
C46	C	0.393580	-0.520947	0.250041
C47	C	0.643580	-0.270947	0.500041
C48	C	0.893580	-0.020947	0.750041
C49	C	-0.046831	-0.977393	0.000055
C50	C	0.203169	-0.727393	0.250055
C51	C	0.453169	-0.477393	0.500055
C52	C	0.703169	-0.227393	0.750055
C53	C	-0.159124	-0.949849	0.000050
C54	C	0.090876	-0.699849	0.250050
C55	C	0.340876	-0.449849	0.500050
C56	C	0.590876	-0.199849	0.750050
C57	C	0.130675	-1.164275	0.000063
C58	C	0.380675	-0.914275	0.250063
C59	C	0.630675	-0.664275	0.500063
C60	C	0.880675	-0.414275	0.750063
C61	C	0.132640	-1.257024	0.000062
C62	C	0.382640	-1.007024	0.250062
C63	C	0.632640	-0.757024	0.500062
C64	C	0.882640	-0.507024	0.750062
C65	C	-0.523987	-1.164017	0.000063
C66	C	-0.273987	-0.914017	0.250063
C67	C	-0.023987	-0.664017	0.500063
C68	C	0.226013	-0.414017	0.750063
C69	C	-0.418483	-1.189898	0.000073
C70	C	-0.168483	-0.939898	0.250073
C71	C	0.081517	-0.689898	0.500073
C72	C	0.331517	-0.439898	0.750073
C73	C	-0.353638	-1.129888	0.000067
C74	C	-0.103638	-0.879888	0.250067
C75	C	0.146362	-0.629888	0.500067
C76	C	0.396362	-0.379888	0.750067
C77	C	-0.394307	-1.043992	0.000051
C78	C	-0.144307	-0.793992	0.250051
C79	C	0.105693	-0.543992	0.500051
C80	C	0.355693	-0.293992	0.750051
C81	C	-0.499822	-1.018108	0.000048
C82	C	-0.249822	-0.768108	0.250048
C83	C	0.000178	-0.518108	0.500048
C84	C	0.250178	-0.268108	0.750048
C85	C	-0.329473	-0.983979	0.000052
C86	C	-0.079473	-0.733979	0.250052
C87	C	0.170527	-0.483979	0.500052
C88	C	0.420527	-0.233979	0.750052
C89	C	-0.370142	-0.898083	0.000037
C90	C	-0.120142	-0.648083	0.250037
C91	C	0.129858	-0.398083	0.500037
C92	C	0.379858	-0.148083	0.750037
C93	C	-0.475647	-0.872203	0.000033
C94	C	-0.225647	-0.622203	0.250033
C95	C	0.024353	-0.372203	0.500033
C96	C	0.274353	-0.122203	0.750033
C97	C	-0.540492	-0.932213	0.000039
C98	C	-0.290492	-0.682213	0.250039
C99	C	-0.040492	-0.432213	0.500039
C100	C	0.209508	-0.182213	0.750039
C101	C	-0.223958	-1.009863	0.000055
C102	C	0.026042	-0.759863	0.250055
C103	C	0.276042	-0.509863	0.500055
C104	C	0.526042	-0.259863	0.750055
C105	C	-0.199793	-0.863954	0.000041
C106	C	0.050207	-0.613954	0.250041
C107	C	0.300207	-0.363954	0.500041
C108	C	0.550207	-0.113954	0.750041
C109	C	-0.305297	-0.838073	0.000030
C110	C	-0.055297	-0.588073	0.250030
C111	C	0.194703	-0.338073	0.500030
C112	C	0.444703	-0.088073	0.750030
C113	C	0.323050	-1.050578	0.000054
C114	C	0.573050	-0.800578	0.250054
C115	C	0.823050	-0.550578	0.500054
C116	C	1.073050	-0.300578	0.750054
C117	C	0.435343	-1.078122	0.000054
C118	C	0.685343	-0.828122	0.250054
C119	C	0.935343	-0.578122	0.500054
C120	C	1.185343	-0.328122	0.750054
N121	N	0.138106	-1.013978	0.217051
N122	N	0.388106	-0.763978	0.467051
N123	N	0.638106	-0.513978	0.717051
N124	N	0.888106	-0.263978	0.967051
C125	C	0.231189	-0.568905	0.000051
C126	C	0.481189	-0.318905	0.250051
C127	C	0.731189	-0.068905	0.500051
C128	C	0.981189	0.181095	0.750051
C129	C	0.229335	-0.481756	0.000057
C130	C	0.479335	-0.231756	0.250057
C131	C	0.729335	0.018244	0.500057
C132	C	0.979335	0.268244	0.750057
C133	C	0.045023	-0.459072	0.000055
C134	C	0.295023	-0.209072	0.250055
C135	C	0.545023	0.040928	0.500055
C136	C	0.795023	0.290928	0.750055
C137	C	0.046879	-0.546219	0.000055
C138	C	0.296879	-0.296219	0.250055
C139	C	0.546879	-0.046219	0.500055
C140	C	0.796879	0.203781	0.750055
C141	C	0.139965	-0.601133	0.000049
C142	C	0.389965	-0.351133	0.250049
C143	C	0.639965	-0.101133	0.500049
C144	C	0.889965	0.148867	0.750049
C145	C	0.136255	-0.426838	0.000054
C146	C	0.386255	-0.176838	0.250054
C147	C	0.636255	0.073162	0.500054
C148	C	0.886255	0.323162	0.750054
C149	C	0.134244	-0.332347	0.000061
C150	C	0.384244	-0.082347	0.250061
C151	C	0.634244	0.167653	0.500061
C152	C	0.884244	0.417653	0.750061
C153	C	0.141976	-0.695630	0.000044
C154	C	0.391976	-0.445630	0.250044
C155	C	0.641976	-0.195630	0.500044
C156	C	0.891976	0.054370	0.750044
N157	N	0.138106	-1.013998	-0.216939
N158	N	0.388106	-0.763998	0.033061
N159	N	0.638106	-0.513998	0.283061
N160	N	0.888106	-0.263998	0.533061
C161	C	0.069342	-1.054656	0.452061
C162	C	0.319342	-0.804656	0.702061
C163	C	0.569342	-0.554656	0.952061
C164	C	0.819342	-0.304656	1.202061
C165	C	0.069340	-1.054658	0.548042
C166	C	0.319340	-0.804658	0.798042
C167	C	0.569340	-0.554658	1.048042
C168	C	0.819340	-0.304658	1.298042
C169	C	0.206873	-0.973315	0.548044
C170	C	0.456873	-0.723315	0.798044
C171	C	0.706873	-0.473315	1.048044
C172	C	0.956873	-0.223315	1.298044
C173	C	0.206870	-0.973308	0.452065
C174	C	0.456870	-0.723308	0.702065
C175	C	0.706870	-0.473308	0.952065
C176	C	0.956870	-0.223308	1.202065
C177	C	0.138105	-1.013984	0.404075
C178	C	0.388105	-0.763984	0.654075
C179	C	0.638105	-0.513984	0.904075
C180	C	0.888105	-0.263984	1.154075
C181	C	0.138106	-1.013992	0.596036
C182	C	0.388106	-0.763992	0.846036
C183	C	0.638106	-0.513992	1.096036
C184	C	0.888106	-0.263992	1.346036
C185	C	0.138104	-1.013994	0.700103
C186	C	0.388104	-0.763994	0.950103
C187	C	0.638104	-0.513994	1.200103
C188	C	0.888104	-0.263994	1.450103
C189	C	0.138106	-1.013981	0.300002
C190	C	0.388106	-0.763981	0.550002
C191	C	0.638106	-0.513981	0.800002
C192	C	0.888106	-0.263981	1.050002
H193	H	-0.190856	-1.079800	0.000068
H194	H	0.059144	-0.829800	0.250068
H195	H	0.309144	-0.579800	0.500068
H196	H	0.559144	-0.329800	0.750068
H197	H	-0.027412	-0.572459	0.000056
H198	H	0.222588	-0.322459	0.250056
H199	H	0.472588	-0.072459	0.500056
H200	H	0.722588	0.177541	0.750056
F201	F	-0.130785	-0.800082	0.000040
F202	F	0.119215	-0.550082	0.250040
F203	F	0.369215	-0.300082	0.500040
F204	F	0.619215	-0.050082	0.750040
F205	F	0.280056	-0.930013	0.400991
F206	F	0.530056	-0.680013	0.650991
F207	F	0.780056	-0.430013	0.900991
F208	F	1.030056	-0.180013	1.150991
H209	H	0.303619	-0.455520	0.000061
H210	H	0.553619	-0.205520	0.250061
H211	H	0.803619	0.044480	0.500061
H212	H	1.053619	0.294480	0.750061
H213	H	-0.267732	-1.150966	0.000075
H214	H	-0.017732	-0.900966	0.250075
H215	H	0.232268	-0.650966	0.500075
H216	H	0.482268	-0.400966	0.750075
F217	F	-0.375207	-1.281311	0.000075
F218	F	-0.125207	-1.031311	0.250075
F219	F	0.124793	-0.781311	0.500075
F220	F	0.374793	-0.531311	0.750075
H221	H	-0.030764	-0.414350	0.000066
H222	H	0.219236	-0.164350	0.250066
H223	H	0.469236	0.085650	0.500066
H224	H	0.719236	0.335650	0.750066
F225	F	-0.348594	-0.746657	0.000012
F226	F	-0.098594	-0.496657	0.250012
F227	F	0.151406	-0.246657	0.500012
F228	F	0.401406	0.003343	0.750012
F229	F	-0.003849	-1.097944	0.599108
F230	F	0.246151	-0.847944	0.849108
F231	F	0.496151	-0.597944	1.099108
F232	F	0.746151	-0.347944	1.349108
F233	F	-0.593004	-1.227873	0.000084
F234	F	-0.343004	-0.977873	0.250084
F235	F	-0.093004	-0.727873	0.500084
F236	F	0.156996	-0.477873	0.750084
F237	F	-0.652784	-0.904672	-0.000058
F238	F	-0.402784	-0.654672	0.249942
F239	F	-0.152784	-0.404672	0.499942
F240	F	0.097216	-0.154672	0.749942
F241	F	0.330259	-0.627346	0.000048
F242	F	0.580259	-0.377346	0.250048
F243	F	0.830259	-0.127346	0.500048
F244	F	1.080259	0.122654	0.750048
H245	H	0.013349	-1.087775	0.412990
H246	H	0.263349	-0.837775	0.662990
H247	H	0.513349	-0.587775	0.912990
H248	H	0.763349	-0.337775	1.162990
F249	F	0.280055	-0.930029	0.599124
F250	F	0.530055	-0.680029	0.849124
F251	F	0.780055	-0.430029	1.099124
F252	F	1.030055	-0.180029	1.349124
H253	H	-0.508756	-0.802261	0.000027
H254	H	-0.258756	-0.552261	0.250027
H255	H	-0.008756	-0.302261	0.500027
H256	H	0.241244	-0.052261	0.750027
