data_functionalizedCrystal
_audit_creation_method	'MofGen! by Chris Wilmer'
_symmetry_space_group_name_H-M	'P1'
_symmetry_Int_Tables_number	1
_symmetry_cell_setting	triclinic
loop_
_symmetry_equiv_pos_as_xyz
  x,y,z
_cell_length_a	12.837932
_cell_length_b	10.654551
_cell_length_c	11.295443
_cell_angle_alpha	85.435413
_cell_angle_beta	94.169660
_cell_angle_gamma	90.342434
loop_
_atom_site_label
_atom_site_type_symbol
_atom_site_fract_x
_atom_site_fract_y
_atom_site_fract_z
O1	O	1.384092	-0.335066	0.099020
O2	O	1.082171	-0.318922	0.099022
O3	O	1.240072	-0.145012	0.099018
O4	O	1.226191	-0.508976	0.099024
O5	O	1.227483	-0.128396	-0.099034
O6	O	1.069582	-0.302306	-0.099031
O7	O	1.371503	-0.318450	-0.099033
Cu8	Cu	1.219393	-0.308861	-0.117115
Cu9	Cu	1.234281	-0.328511	0.117105
O10	O	1.213602	-0.492360	-0.099029
C11	C	1.037216	-0.305161	-0.000004
C12	C	0.922022	-0.288898	-0.000003
C13	C	0.771201	-0.152967	-0.000007
C14	C	0.879438	-0.168239	-0.000006
C15	C	0.856362	-0.394291	-0.000004
C16	C	0.748126	-0.379019	-0.000004
C17	C	0.705550	-0.258352	-0.000004
C18	C	0.597313	-0.243081	0.000004
C19	C	0.574239	-0.469132	-0.000002
C20	C	0.682475	-0.484405	-0.000002
C21	C	1.232759	-0.089795	-0.000006
C22	C	1.229708	0.049981	-0.000001
C23	C	1.416458	-0.332211	-0.000004
C24	C	1.531653	-0.348475	0.000003
C25	C	1.220916	-0.547577	-0.000002
C26	C	1.223966	-0.687353	0.000000
N27	N	1.208929	-0.295040	-0.281853
C28	C	1.235139	0.106583	0.107959
C29	C	1.232264	0.237917	0.107960
C30	C	1.218532	0.256035	-0.107968
C31	C	1.221400	0.124703	-0.107967
C32	C	1.175915	0.404157	0.237666
C33	C	1.181364	0.460764	0.345632
C34	C	1.249044	0.412502	0.440950
C35	C	1.311301	0.307635	0.428307
C36	C	1.305861	0.251035	0.320340
C37	C	1.238157	0.299294	0.225026
C38	C	1.277758	-0.041539	-0.237666
C39	C	1.272326	-0.098141	-0.345635
C40	C	1.204651	-0.049880	-0.440963
C41	C	1.142409	0.054992	-0.428332
C42	C	1.147842	0.111594	-0.320363
C43	C	1.215514	0.063324	-0.225035
C44	C	1.133613	-0.195570	-0.468884
C45	C	1.141512	-0.206009	-0.344219
C46	C	1.268455	-0.373635	-0.344161
C47	C	1.260556	-0.363195	-0.468825
C48	C	1.193132	-0.274161	-0.531183
C49	C	1.185228	-0.263728	-0.655850
C50	C	1.312175	-0.431347	-0.655789
C51	C	1.320074	-0.441786	-0.531124
N52	N	1.244753	-0.342323	0.281843
H53	H	0.520773	-0.554945	0.000000
O54	O	0.950248	-0.054572	-0.000017
H55	H	1.005251	-0.062894	0.080699
H56	H	1.241902	0.045747	0.195873
H57	H	1.374972	-0.514272	-0.480336
H58	H	1.130667	0.546147	0.355918
H59	H	1.253479	0.458601	0.528857
H60	H	1.078705	-0.123084	-0.519657
O61	O	1.350750	-0.093589	-0.134837
H62	H	1.432251	-0.089528	-0.161671
O63	O	0.902290	-0.524430	-0.000015
H64	H	0.988583	-0.517339	-0.000015
O65	O	1.341168	-0.469664	-0.276896
H66	H	1.336653	-0.463720	-0.179743
O67	O	0.551387	-0.112939	0.000001
H68	H	0.497490	-0.093812	-0.080719
O69	O	1.372993	0.137933	0.306690
H70	H	1.420973	0.113877	0.391111
O71	O	1.102924	0.456220	0.134848
H72	H	1.060572	0.538663	0.161774
O73	O	1.080709	0.224714	-0.306756
H74	H	1.131477	0.305782	-0.285505
H75	H	1.360633	-0.495350	-0.706526
H76	H	1.130324	-0.191236	-0.706620
H77	H	0.736536	-0.054717	0.000005
O78	O	0.728397	-0.614548	0.000002
H79	H	0.814691	-0.607467	0.000009
O80	O	1.384307	0.255581	0.531115
H81	H	1.377624	0.312548	0.608318
O82	O	1.209602	0.336628	-0.224416
H83	H	1.208538	0.437463	-0.206281
O84	O	1.077335	-0.121249	-0.276997
H85	H	0.993087	-0.136604	-0.300914
O86	O	1.069407	0.107055	-0.531142
H87	H	1.076077	0.050070	-0.608336
H88	H	1.323015	-0.183532	-0.355915
O89	O	1.198788	-0.110925	-0.557420
H90	H	1.253437	-0.191958	-0.550196
