data_functionalizedCrystal
_audit_creation_method	'MofGen! by Chris Wilmer'
_symmetry_space_group_name_H-M	'P1'
_symmetry_Int_Tables_number	1
_symmetry_cell_setting	triclinic
loop_
_symmetry_equiv_pos_as_xyz
  x,y,z
_cell_length_a	11.169417
_cell_length_b	18.215405
_cell_length_c	11.169409
_cell_angle_alpha	90.038667
_cell_angle_beta	90.019824
_cell_angle_gamma	90.024699
loop_
_atom_site_label
_atom_site_type_symbol
_atom_site_fract_x
_atom_site_fract_y
_atom_site_fract_z
Zn1	Zn	1.834850	-0.292907	0.678490
Zn2	Zn	1.834692	-0.415999	0.477785
Zn3	Zn	1.634136	-0.292952	0.477824
Zn4	Zn	1.634096	-0.415939	0.678430
O5	O	1.734443	-0.354449	0.578132
O6	O	2.002779	-0.309242	0.651875
O7	O	1.808038	-0.399720	0.309840
O8	O	1.660844	-0.189962	0.504485
O9	O	2.002663	-0.399677	0.504417
O10	O	1.808307	-0.189929	0.651913
O11	O	1.660691	-0.309318	0.309869
O12	O	1.466181	-0.309260	0.504426
O13	O	1.660776	-0.399574	0.846387
O14	O	1.466152	-0.399618	0.651810
O15	O	1.808269	-0.309184	0.846432
O16	O	1.808000	-0.518975	0.504359
O17	O	1.660623	-0.518931	0.651772
C18	C	1.422619	-0.354438	0.578117
C19	C	1.289219	-0.354451	0.578139
C20	C	1.734323	-0.545656	0.578081
C21	C	1.734381	-0.627454	0.578099
C22	C	1.811345	-0.892510	0.501503
C23	C	1.811295	-0.815652	0.501475
C24	C	1.657691	-0.815647	0.654843
C25	C	1.657735	-0.892504	0.654863
C26	C	1.734569	-0.930934	0.578195
C27	C	1.734475	-0.777218	0.578147
C28	C	1.734421	-0.693884	0.578118
C29	C	1.734622	-1.014273	0.578222
C30	C	2.047486	-0.354461	0.578148
C31	C	2.180886	-0.354466	0.578155
C32	C	1.734536	-0.354368	0.891175
C33	C	1.734575	-0.354333	1.024575
C34	C	1.734598	-0.162496	0.578210
C35	C	1.734663	-0.080697	0.578243
C36	C	1.734421	-0.354478	0.266307
C37	C	1.734614	-0.354305	0.132908
H38	H	1.873907	-0.923798	0.439074
H39	H	1.595136	-0.784350	0.717266
H40	H	1.873811	-0.784369	0.439024
C41	C	1.573270	-0.934772	0.739234
N42	N	1.509652	-0.966609	0.802777
