data_functionalizedCrystal
_audit_creation_method	'MofGen! by Chris Wilmer'
_symmetry_space_group_name_H-M	'P1'
_symmetry_Int_Tables_number	1
_symmetry_cell_setting	triclinic
loop_
_symmetry_equiv_pos_as_xyz
  x,y,z
_cell_length_a	14.519709
_cell_length_b	14.519731
_cell_length_c	13.596369
_cell_angle_alpha	90.011346
_cell_angle_beta	89.999709
_cell_angle_gamma	83.684500
loop_
_atom_site_label
_atom_site_type_symbol
_atom_site_fract_x
_atom_site_fract_y
_atom_site_fract_z
O1	O	-1.223878	-0.120892	-0.081675
O2	O	-0.973878	0.129108	0.168325
O3	O	-0.723878	0.379108	0.418325
O4	O	-0.473878	0.629108	0.668325
O5	O	-0.955402	-0.135128	-0.081707
O6	O	-0.705402	0.114872	0.168293
O7	O	-0.455402	0.364872	0.418293
O8	O	-0.205402	0.614872	0.668293
O9	O	-1.096748	0.006227	-0.081670
O10	O	-0.846748	0.256227	0.168330
O11	O	-0.596748	0.506227	0.418330
O12	O	-0.346748	0.756227	0.668330
O13	O	-1.082532	-0.262247	-0.081712
O14	O	-0.832532	-0.012247	0.168288
O15	O	-0.582532	0.237753	0.418288
O16	O	-0.332532	0.487753	0.668288
O17	O	-1.096734	0.006235	0.081912
O18	O	-0.846734	0.256235	0.331912
O19	O	-0.596734	0.506235	0.581912
O20	O	-0.346734	0.756235	0.831912
O21	O	-0.955388	-0.135120	0.081876
O22	O	-0.705388	0.114880	0.331876
O23	O	-0.455388	0.364880	0.581876
O24	O	-0.205388	0.614880	0.831876
O25	O	-1.223864	-0.120884	0.081908
O26	O	-0.973864	0.129116	0.331908
O27	O	-0.723864	0.379116	0.581908
O28	O	-0.473864	0.629116	0.831908
Zn29	Zn	-1.089623	-0.128001	0.107864
Zn30	Zn	-0.839623	0.121999	0.357864
Zn31	Zn	-0.589623	0.371999	0.607864
Zn32	Zn	-0.339623	0.621999	0.857864
Zn33	Zn	-1.089642	-0.128011	-0.107663
Zn34	Zn	-0.839642	0.121989	0.142337
Zn35	Zn	-0.589642	0.371989	0.392337
Zn36	Zn	-0.339642	0.621989	0.642337
O37	O	-1.082518	-0.262239	0.081871
O38	O	-0.832518	-0.012239	0.331871
O39	O	-0.582518	0.237761	0.581871
O40	O	-0.332518	0.487761	0.831871
C41	C	-0.921035	-0.134461	0.000081
C42	C	-0.671035	0.115539	0.250081
C43	C	-0.421035	0.365539	0.500081
C44	C	-0.171035	0.615539	0.750081
C45	C	-0.818654	-0.132473	0.000070
C46	C	-0.568654	0.117527	0.250070
C47	C	-0.318654	0.367527	0.500070
C48	C	-0.068654	0.617527	0.750070
C49	C	-1.096075	0.040591	0.000124
C50	C	-0.846075	0.290591	0.250124
C51	C	-0.596075	0.540591	0.500124
C52	C	-0.346075	0.790591	0.750124
C53	C	-1.094079	0.142971	0.000133
C54	C	-0.844079	0.392971	0.250133
C55	C	-0.594079	0.642971	0.500133
C56	C	-0.344079	0.892971	0.750133
C57	C	-1.258230	-0.121551	0.000118
C58	C	-1.008230	0.128449	0.250118
C59	C	-0.758230	0.378449	0.500118
C60	C	-0.508230	0.628449	0.750118
C61	C	-1.360612	-0.123539	0.000122
C62	C	-1.110612	0.126461	0.250122
C63	C	-0.860612	0.376461	0.500122
C64	C	-0.610612	0.626461	0.750122
C65	C	-0.443757	-0.125153	0.000116
C66	C	-0.193757	0.124847	0.250116
C67	C	0.056243	0.374847	0.500116
C68	C	0.306243	0.624847	0.750116
C69	C	-0.548065	-0.127186	0.000102
C70	C	-0.298065	0.122814	0.250102
C71	C	-0.048065	0.372814	0.500102
C72	C	0.201935	0.622814	0.750102
C73	C	-0.631202	-0.128813	0.000092
C74	C	-0.381202	0.121187	0.250092
C75	C	-0.131202	0.371187	0.500092
C76	C	0.118798	0.621187	0.750092
C77	C	-0.735517	-0.130846	0.000080
C78	C	-0.485517	0.119154	0.250080
C79	C	-0.235517	0.369154	0.500080
C80	C	0.014483	0.619154	0.750080
C81	C	-1.092457	0.226115	0.000137
C82	C	-0.842457	0.476115	0.250137
C83	C	-0.592457	0.726115	0.500137
C84	C	-0.342457	0.976115	0.750137
C85	C	-1.090430	0.330424	0.000138
C86	C	-0.840430	0.580424	0.250138
C87	C	-0.590430	0.830424	0.500138
C88	C	-0.340430	1.080424	0.750138
C89	C	-1.088822	0.413563	0.000138
C90	C	-0.838822	0.663563	0.250138
C91	C	-0.588822	0.913563	0.500138
C92	C	-0.338822	1.163563	0.750138
C93	C	-1.086795	0.517878	0.000141
C94	C	-0.836795	0.767878	0.250141
C95	C	-0.586795	1.017878	0.500141
C96	C	-0.336795	1.267878	0.750141
N97	N	-1.089617	-0.127994	0.254956
N98	N	-0.839617	0.122006	0.504956
N99	N	-0.589617	0.372006	0.754956
N100	N	-0.339617	0.622006	1.004956
C101	C	-1.083191	0.703397	0.000095
C102	C	-0.833191	0.953397	0.250095
C103	C	-0.583191	1.203397	0.500095
C104	C	-0.333191	1.453397	0.750095
C105	C	-1.085187	0.601017	0.000141
C106	C	-0.835187	0.851017	0.250141
C107	C	-0.585187	1.101017	0.500141
C108	C	-0.335187	1.351017	0.750141
N109	N	-1.089655	-0.128011	-0.254755
N110	N	-0.839655	0.121989	-0.004755
N111	N	-0.589655	0.371989	0.245245
N112	N	-0.339655	0.621989	0.495245
C113	C	-1.089641	-0.128012	0.656247
C114	C	-0.839641	0.121988	0.906247
C115	C	-0.589641	0.371988	1.156247
C116	C	-0.339641	0.621988	1.406247
C117	C	-1.089632	-0.128010	0.544595
C118	C	-0.839632	0.121990	0.794595
C119	C	-0.589632	0.371990	1.044595
C120	C	-0.339632	0.621990	1.294595
C121	C	-1.089630	-0.128004	0.455605
C122	C	-0.839630	0.121996	0.705605
C123	C	-0.589630	0.371996	0.955605
C124	C	-0.339630	0.621996	1.205605
C125	C	-1.089619	-0.128000	0.343946
C126	C	-0.839619	0.122000	0.593946
C127	C	-0.589619	0.372000	0.843946
C128	C	-0.339619	0.622000	1.093946
