data_functionalizedCrystal
_audit_creation_method	'MofGen! by Chris Wilmer'
_symmetry_space_group_name_H-M	'P1'
_symmetry_Int_Tables_number	1
_symmetry_cell_setting	triclinic
loop_
_symmetry_equiv_pos_as_xyz
  x,y,z
_cell_length_a	27.440279
_cell_length_b	27.440280
_cell_length_c	19.377574
_cell_angle_alpha	104.485757
_cell_angle_beta	68.963727
_cell_angle_gamma	60.007051
loop_
_atom_site_label
_atom_site_type_symbol
_atom_site_fract_x
_atom_site_fract_y
_atom_site_fract_z
Zr1	Zr	0.533235	0.453173	-0.093393
O2	O	0.634886	0.355284	-0.207168
O3	O	0.431592	0.483153	-0.058537
O4	O	0.533236	0.456916	-0.207206
O5	O	0.533240	0.402248	0.058799
O6	O	0.533228	0.537118	-0.207210
O7	O	0.533242	0.381521	-0.058499
O8	O	0.351406	0.584051	0.058731
O9	O	0.715062	0.355315	-0.207142
O10	O	0.473391	0.555827	-0.043648
O11	O	0.473395	0.511442	0.043894
O12	O	0.593067	0.480551	-0.131144
O13	O	0.593071	0.436167	-0.043603
Zr14	Zr	0.533219	0.614143	0.093677
Zr15	Zr	0.533223	0.581085	-0.093400
Zr16	Zr	0.533231	0.486231	0.093684
Zr17	Zr	0.661107	0.453223	-0.093352
Zr18	Zr	0.405348	0.614093	0.093636
O19	O	0.634863	0.584162	0.058822
O20	O	0.634868	0.537158	-0.207177
O21	O	0.634880	0.402288	0.058831
O22	O	0.431568	0.712032	0.207452
O23	O	0.431574	0.665027	-0.058547
O24	O	0.431586	0.530158	0.207462
O25	O	0.533215	0.665067	-0.058514
O26	O	0.533219	0.610400	0.207490
O27	O	0.533227	0.530198	0.207494
O28	O	0.533212	0.685795	0.058784
O29	O	0.715052	0.456988	-0.207148
O30	O	0.351402	0.610328	0.207432
O31	O	0.351392	0.712001	0.207427
O32	O	0.351396	0.685724	0.058726
O33	O	0.715059	0.381592	-0.058441
O34	O	0.715049	0.483265	-0.058446
O35	O	0.473387	0.586764	0.131429
O36	O	0.473383	0.631149	0.043887
O37	O	0.593060	0.555874	-0.043609
O38	O	0.593063	0.511489	0.043932
C39	C	0.373280	0.533595	0.000091
C40	C	0.318995	0.533574	0.000074
C41	C	0.084239	0.510483	0.045843
C42	C	0.135269	0.510469	0.045832
O43	O	0.161647	0.490780	0.084711
N44	N	0.160792	0.533627	0.000125
C45	C	0.135277	0.556807	-0.045566
O46	O	0.161672	0.576503	-0.084444
C47	C	0.084244	0.556824	-0.045549
C48	C	0.058729	0.533659	0.000154
C49	C	0.058723	0.487320	0.091543
C50	C	0.007697	0.487333	0.091553
C51	C	-0.017813	0.510508	0.045863
C52	C	0.007703	0.533672	0.000164
C53	C	0.058727	0.580008	-0.091234
C54	C	0.007690	0.580024	-0.091213
C55	C	-0.017825	0.556859	-0.045510
C56	C	-0.068832	0.556860	-0.045516
N57	N	-0.094355	0.533702	0.000191
C58	C	-0.068846	0.510526	0.045881
C59	C	0.242448	0.556768	-0.045597
C60	C	0.293484	0.556746	-0.045620
C61	C	0.293471	0.510410	0.045779
C62	C	0.242438	0.510428	0.045797
C63	C	0.216925	0.533610	0.000110
C64	C	-0.176003	0.510554	0.045897
C65	C	-0.227031	0.510566	0.045900
C66	C	-0.227017	0.556906	-0.045495
C67	C	-0.175990	0.556890	-0.045502
C68	C	-0.150486	0.533715	0.000201
O69	O	-0.095245	0.576541	-0.084373
O70	O	-0.095253	0.490841	0.084761
C71	C	0.533243	0.373660	0.000151
C72	C	0.533248	0.319358	0.000154
C73	C	0.533213	-0.028761	-0.064480
C74	C	0.533208	-0.079779	-0.064480
O75	O	0.533184	-0.115862	-0.119419
N76	N	0.533208	-0.093878	0.000139
C77	C	0.533206	-0.056951	0.064769
O78	O	0.533205	-0.073628	0.119733
C79	C	0.533206	-0.005931	0.064772
C80	C	0.533213	0.008160	0.000143
C81	C	0.533220	-0.014668	-0.129102
C82	C	0.533226	0.036345	-0.129103
C83	C	0.533226	0.073266	-0.064480
C84	C	0.533219	0.059174	0.000143
C85	C	0.533199	0.030998	0.129404
C86	C	0.533198	0.082021	0.129402
C87	C	0.533205	0.096112	0.064773
C88	C	0.533225	0.147109	0.064766
N89	N	0.533225	0.161208	0.000146
C90	C	0.533226	0.124286	-0.064477
C91	C	0.533205	-0.164097	0.064758
C92	C	0.533210	-0.215119	0.064751
C93	C	0.533211	-0.237942	-0.064497
C94	C	0.533211	-0.186922	-0.064493
C95	C	0.533205	-0.149998	0.000138
C96	C	0.533239	0.231419	-0.064473
C97	C	0.533248	0.282437	-0.064469
C98	C	0.533244	0.305258	0.064781
C99	C	0.533238	0.254243	0.064775
C100	C	0.533234	0.217325	0.000145
O101	O	0.533247	0.183221	0.119679
O102	O	0.533218	0.140976	-0.119425
C103	C	0.693175	0.533721	0.000193
C104	C	0.747459	0.533742	0.000211
C105	C	0.533232	0.492307	-0.233862
C106	C	0.533234	0.478273	-0.313281
C107	C	0.533212	0.693656	0.000134
C108	C	0.533206	0.747958	0.000131
C109	C	0.533214	0.653017	-0.574511
C110	C	0.533216	0.639814	-0.649138
C111	C	0.533225	0.551453	-0.649115
C112	C	0.533226	0.564646	-0.574489
C113	C	0.533219	0.615430	-0.537192
C114	C	0.533231	0.527059	-0.537170
C115	C	0.533228	0.540254	-0.462548
C116	C	0.533220	0.591036	-0.425244
C117	C	0.533216	0.628625	-0.462570
C118	C	0.533233	0.476278	-0.574464
C119	C	0.533238	0.438691	-0.537146
C120	C	0.533240	0.451883	-0.462526
C121	C	0.533232	0.502665	-0.425222
C122	C	0.533244	0.414294	-0.425200
C123	C	0.533241	0.427489	-0.350578
C124	C	0.533229	0.515860	-0.350600
C125	C	0.533222	0.575009	0.234147
C126	C	0.533220	0.589043	0.313566
C127	C	0.373264	0.693593	0.000083
C128	C	0.318974	0.747874	0.000062
C129	C	0.373275	0.574946	0.234096
C130	C	0.318988	0.588959	0.313497
C131	C	0.373259	0.734944	0.234087
C132	C	0.318967	0.803259	0.313486
C133	C	0.693195	0.332372	-0.233803
C134	C	0.747487	0.264057	-0.313201
C135	C	0.693190	0.373723	0.000202
C136	C	0.747480	0.319442	0.000222
C137	C	0.693180	0.492370	-0.233811
C138	C	0.747466	0.478357	-0.313213
C139	C	0.293483	0.734046	-0.045647
C140	C	0.242479	0.785040	-0.045684
C141	C	0.216964	0.849863	-0.000005
C142	C	0.242460	0.863690	0.045706
C143	C	0.293466	0.812695	0.045737
C144	C	0.293491	0.634858	0.396485
C145	C	0.242490	0.648024	0.471099
C146	C	0.216984	0.615293	0.462722
C147	C	0.242487	0.569388	0.379725
C148	C	0.293490	0.556220	0.305114
C149	C	0.293469	0.858514	0.305077
C150	C	0.242464	0.922706	0.379673
C151	C	0.216953	0.931643	0.462678
C152	C	0.242456	0.876381	0.471085
C153	C	0.293465	0.812190	0.396490
C154	C	0.772991	0.208802	-0.304792
C155	C	0.824013	0.144610	-0.379388
C156	C	0.849526	0.135673	-0.462393
C157	C	0.824019	0.190934	-0.470801
C158	C	0.773002	0.255126	-0.396205
C159	C	0.772976	0.333269	0.045924
C160	C	0.823995	0.282271	0.045940
C161	C	0.849512	0.217448	0.000259
C162	C	0.824014	0.203621	-0.045449
C163	C	0.773000	0.254618	-0.045469
C164	C	0.772956	0.511099	-0.304808
C165	C	0.823957	0.497945	-0.379407
C166	C	0.849471	0.452046	-0.462410
C167	C	0.823976	0.419303	-0.470813
C168	C	0.772973	0.432461	-0.396215
H169	H	0.079486	0.468448	0.128753
Br170	Br	0.328083	0.846404	0.192437
H171	H	0.533246	0.335326	0.117394
H172	H	0.314252	0.661515	0.403322
Br173	Br	0.858650	0.178795	-0.583457
H174	H	0.314244	0.518847	0.237544
H175	H	0.752237	0.300113	-0.403063
Br176	Br	0.858616	0.357007	-0.583467
H177	H	0.533218	0.669974	-0.432207
Br178	Br	0.207887	0.766260	-0.107723
H179	H	-0.013076	0.468472	0.128772
H180	H	0.533231	0.557209	-0.320237
H181	H	0.314219	0.767203	0.403349
Br182	Br	0.533203	-0.113992	0.152475
Br183	Br	0.207862	0.997692	0.368242
H184	H	0.314257	0.681266	-0.082855
H185	H	0.221677	0.916475	0.082896
Br186	Br	0.533189	0.011886	0.217119
H187	H	0.221667	0.491565	0.083012
Br188	Br	-0.261653	0.479122	0.107926
Br189	Br	0.738391	0.388012	-0.407637
H190	H	0.533217	-0.044725	-0.181726
Br191	Br	0.533242	0.235113	0.152478
H192	H	-0.155242	0.491681	0.083111
H193	H	0.533191	0.112085	0.182036
H194	H	0.752221	0.216066	-0.237212
Br195	Br	0.533219	0.721931	-0.523900
Br196	Br	0.738359	0.421238	0.107925
H197	H	0.752242	0.243351	-0.082683
H198	H	0.752190	0.548473	-0.237230
Br199	Br	0.858616	0.069624	-0.367958
Br200	Br	0.328102	0.478956	0.107786
Br201	Br	0.147727	1.018765	0.563907
H202	H	0.844798	0.150835	-0.082642
Br203	Br	0.207828	0.888521	0.583742
H204	H	0.221712	0.542742	0.372918
Br205	Br	0.918764	0.048551	-0.563623
H206	H	0.844747	0.293542	0.083164
Br207	Br	0.207890	0.710325	0.583726
Br208	Br	0.533229	0.458378	-0.675733
H209	H	0.891051	0.175929	0.000282
Br210	Br	0.858548	0.542386	-0.367983
Br211	Br	0.918692	0.434196	-0.563643
H212	H	0.314262	0.575600	-0.082846
H213	H	0.533241	0.397344	-0.567519
H214	H	0.533216	-0.175453	-0.117119
H215	H	0.533211	0.670427	-0.679518
Br216	Br	0.093344	0.611447	-0.153266
Br217	Br	0.207835	0.588225	-0.107617
Br218	Br	-0.026937	0.611495	-0.153211
Br219	Br	-0.141353	0.588320	-0.107538
H220	H	0.533256	0.293905	-0.117101
Br221	Br	-0.261644	0.588354	-0.107503
Br222	Br	0.533233	0.181325	-0.152187
Br223	Br	0.533238	0.345385	-0.475814
Br224	Br	0.533230	0.055466	-0.216812
H225	H	0.533210	-0.268013	-0.117115
H226	H	0.175454	0.626021	0.523483
Br227	Br	0.533208	0.608949	-0.323965
Br228	Br	0.328052	0.831475	0.107783
H229	H	0.533215	-0.226594	0.117370
H230	H	0.533228	0.510106	-0.679488
Br231	Br	0.533242	0.376480	-0.299924
H232	H	0.175430	0.891380	-0.000037
