data_functionalizedCrystal
_audit_creation_method	'MofGen! by Chris Wilmer'
_symmetry_space_group_name_H-M	'P1'
_symmetry_Int_Tables_number	1
_symmetry_cell_setting	triclinic
loop_
_symmetry_equiv_pos_as_xyz
  x,y,z
_cell_length_a	11.792254
_cell_length_b	11.792241
_cell_length_c	10.868271
_cell_angle_alpha	90.001559
_cell_angle_beta	90.005560
_cell_angle_gamma	84.196007
loop_
_atom_site_label
_atom_site_type_symbol
_atom_site_fract_x
_atom_site_fract_y
_atom_site_fract_z
O1	O	-1.506901	-0.155631	-0.102357
O2	O	-1.256901	0.094369	0.147643
O3	O	-1.006901	0.344369	0.397643
O4	O	-0.756901	0.594369	0.647643
O5	O	-1.176561	-0.171649	-0.102352
O6	O	-0.926561	0.078351	0.147648
O7	O	-0.676561	0.328351	0.397648
O8	O	-0.426561	0.578351	0.647648
O9	O	-1.349747	0.001530	-0.102346
O10	O	-1.099747	0.251530	0.147654
O11	O	-0.849747	0.501530	0.397654
O12	O	-0.599747	0.751530	0.647654
O13	O	-1.333715	-0.328810	-0.102363
O14	O	-1.083715	-0.078810	0.147637
O15	O	-0.833715	0.171190	0.397637
O16	O	-0.583715	0.421190	0.647637
O17	O	-1.349732	0.001525	0.102298
O18	O	-1.099732	0.251525	0.352298
O19	O	-0.849732	0.501525	0.602298
O20	O	-0.599732	0.751525	0.852298
O21	O	-1.176546	-0.171654	0.102292
O22	O	-0.926546	0.078346	0.352292
O23	O	-0.676546	0.328346	0.602292
O24	O	-0.426546	0.578346	0.852292
O25	O	-1.506885	-0.155636	0.102287
O26	O	-1.256885	0.094364	0.352287
O27	O	-1.006885	0.344364	0.602287
O28	O	-0.756885	0.594364	0.852287
Zn29	Zn	-1.341713	-0.163646	0.134781
Zn30	Zn	-1.091713	0.086354	0.384781
Zn31	Zn	-0.841713	0.336354	0.634781
Zn32	Zn	-0.591713	0.586354	0.884781
Zn33	Zn	-1.341733	-0.163639	-0.134847
Zn34	Zn	-1.091733	0.086361	0.115153
Zn35	Zn	-0.841733	0.336361	0.365153
Zn36	Zn	-0.591733	0.586361	0.615153
O37	O	-1.333699	-0.328815	0.102281
O38	O	-1.083699	-0.078815	0.352281
O39	O	-0.833699	0.171185	0.602281
O40	O	-0.583699	0.421185	0.852281
C41	C	-1.134263	-0.170642	-0.000029
C42	C	-0.884263	0.079358	0.249971
C43	C	-0.634263	0.329358	0.499971
C44	C	-0.384263	0.579358	0.749971
C45	C	-1.008250	-0.167622	-0.000027
C46	C	-0.758250	0.082378	0.249973
C47	C	-0.508250	0.332378	0.499973
C48	C	-0.258250	0.582378	0.749973
N49	N	-1.341707	-0.163651	0.318796
N50	N	-1.091707	0.086349	0.568796
N51	N	-0.841707	0.336349	0.818796
N52	N	-0.591707	0.586349	1.068796
C53	C	-1.348732	0.043819	-0.000024
C54	C	-1.098732	0.293819	0.249976
C55	C	-0.848732	0.543819	0.499976
C56	C	-0.598732	0.793819	0.749976
C57	C	-1.345718	0.169832	-0.000026
C58	C	-1.095718	0.419832	0.249974
C59	C	-0.845718	0.669832	0.499974
C60	C	-0.595718	0.919832	0.749974
C61	C	-0.905913	-0.165168	-0.000030
C62	C	-0.655913	0.084832	0.249970
C63	C	-0.405913	0.334832	0.499970
C64	C	-0.155913	0.584832	0.749970
C65	C	-0.777527	-0.162100	-0.000027
C66	C	-0.527527	0.087900	0.249973
C67	C	-0.277527	0.337900	0.499973
C68	C	-0.027527	0.587900	0.749973
C69	C	-0.549183	-0.156643	-0.000033
C70	C	-0.299183	0.093357	0.249967
C71	C	-0.049183	0.343357	0.499967
C72	C	0.200817	0.593357	0.749967
C73	C	-0.675196	-0.159663	-0.000025
C74	C	-0.425196	0.090337	0.249975
C75	C	-0.175196	0.340337	0.499975
C76	C	0.074804	0.590337	0.749975
C77	C	-1.334714	-0.371104	-0.000043
C78	C	-1.084714	-0.121104	0.249957
C79	C	-0.834714	0.128896	0.499957
C80	C	-0.584714	0.378896	0.749957
C81	C	-1.337728	-0.497118	-0.000050
C82	C	-1.087728	-0.247118	0.249950
C83	C	-0.837728	0.002882	0.499950
C84	C	-0.587728	0.252882	0.749950
C85	C	-1.340175	0.400545	-0.000046
C86	C	-1.090175	0.650545	0.249954
C87	C	-0.840175	0.900545	0.499954
C88	C	-0.590175	1.150545	0.749954
C89	C	-1.343255	0.272160	-0.000035
C90	C	-1.093255	0.522160	0.249965
C91	C	-0.843255	0.772160	0.499965
C92	C	-0.593255	1.022160	0.749965
N93	N	-1.341748	-0.163626	-0.318861
N94	N	-1.091748	0.086374	-0.068861
N95	N	-0.841748	0.336374	0.181139
N96	N	-0.591748	0.586374	0.431139
C97	C	-1.341716	-0.163651	0.430133
C98	C	-1.091716	0.086349	0.680133
C99	C	-0.841716	0.336349	0.930133
C100	C	-0.591716	0.586349	1.180133
C101	C	-1.341730	-0.163640	0.569811
C102	C	-1.091730	0.086360	0.819811
C103	C	-0.841730	0.336360	1.069811
C104	C	-0.591730	0.586360	1.319811
