data_functionalizedCrystal
_audit_creation_method	'MofGen! by Chris Wilmer'
_symmetry_space_group_name_H-M	'P1'
_symmetry_Int_Tables_number	1
_symmetry_cell_setting	triclinic
loop_
_symmetry_equiv_pos_as_xyz
  x,y,z
_cell_length_a	19.805407
_cell_length_b	15.297327
_cell_length_c	19.805399
_cell_angle_alpha	99.649417
_cell_angle_beta	89.975799
_cell_angle_gamma	99.707138
loop_
_atom_site_label
_atom_site_type_symbol
_atom_site_fract_x
_atom_site_fract_y
_atom_site_fract_z
Zn1	Zn	0.988096	-0.359207	-0.429418
Zn2	Zn	1.321429	-0.025873	-0.096085
Zn3	Zn	1.654762	0.307460	0.237248
Zn4	Zn	0.968421	-0.510075	-0.335809
Zn5	Zn	1.301755	-0.176742	-0.002475
Zn6	Zn	1.635088	0.156591	0.330858
Zn7	Zn	0.874907	-0.359229	-0.316237
Zn8	Zn	1.208241	-0.025896	0.017097
Zn9	Zn	1.541574	0.307437	0.350430
Zn10	Zn	0.855291	-0.510025	-0.448940
Zn11	Zn	1.188624	-0.176692	-0.115606
Zn12	Zn	1.521958	0.156641	0.217727
O13	O	0.921679	-0.434634	-0.382601
O14	O	1.255012	-0.101301	-0.049267
O15	O	1.588345	0.232032	0.284066
O16	O	1.080201	-0.379231	-0.417022
O17	O	1.413534	-0.045898	-0.083688
O18	O	1.746867	0.287436	0.249645
O19	O	0.955992	-0.490096	-0.238500
O20	O	1.289325	-0.156762	0.094834
O21	O	1.622659	0.176571	0.428167
O22	O	0.906365	-0.232979	-0.314890
O23	O	1.239698	0.100355	0.018444
O24	O	1.573032	0.433688	0.351777
O25	O	1.065746	-0.490074	-0.348247
O26	O	1.399080	-0.156740	-0.014914
O27	O	1.732413	0.176593	0.318419
O28	O	0.989524	-0.232962	-0.398044
O29	O	1.322857	0.100372	-0.064710
O30	O	1.656191	0.433705	0.268623
O31	O	0.887288	-0.379270	-0.224120
O32	O	1.220621	-0.045937	0.109213
O33	O	1.553954	0.287397	0.442546
O34	O	0.777590	-0.379222	-0.333819
O35	O	1.110923	-0.045888	-0.000486
O36	O	1.444257	0.287445	0.332848
O37	O	0.872932	-0.489988	-0.541063
O38	O	1.206266	-0.156655	-0.207729
O39	O	1.539599	0.176678	0.125604
O40	O	0.763178	-0.490011	-0.431315
O41	O	1.096511	-0.156677	-0.097982
O42	O	1.429845	0.176656	0.235351
O43	O	0.970503	-0.379182	-0.526720
O44	O	1.303836	-0.045849	-0.193387
O45	O	1.637170	0.287484	0.139946
O46	O	0.936971	-0.636316	-0.367176
O47	O	1.270304	-0.302983	-0.033843
O48	O	1.603638	0.030350	0.299490
O49	O	0.853855	-0.636280	-0.450293
O50	O	1.187188	-0.302946	-0.116960
O51	O	1.520522	0.030387	0.216373
C52	C	0.745825	-0.434614	-0.382562
C53	C	1.079159	-0.101281	-0.049229
C54	C	1.412492	0.232053	0.284105
C55	C	0.670592	-0.434627	-0.382564
C56	C	1.003925	-0.101294	-0.049231
C57	C	1.337258	0.232040	0.284102
C58	C	0.201299	-0.492431	-0.433357
C59	C	0.534632	-0.159097	-0.100023
C60	C	0.867966	0.174236	0.233310
C61	C	0.271988	-0.492429	-0.433342
C62	C	0.605321	-0.159096	-0.100009
C63	C	0.938654	0.174238	0.233325
C64	C	0.314826	-0.434656	-0.382630
C65	C	0.648160	-0.101323	-0.049297
C66	C	0.981493	0.232011	0.284037
C67	C	0.286972	-0.376887	-0.331925
C68	C	0.620305	-0.043554	0.001408
C69	C	0.953639	0.289780	0.334741
C70	C	0.216284	-0.376894	-0.331938
C71	C	0.549617	-0.043560	0.001396
C72	C	0.882951	0.289773	0.334729
C73	C	0.572049	-0.376860	-0.331874
C74	C	0.905382	-0.043526	0.001459
C75	C	1.238716	0.289807	0.334793
C76	C	0.642742	-0.376855	-0.331867
C77	C	0.976075	-0.043522	0.001466
C78	C	1.309408	0.289811	0.334800
C79	C	0.627753	-0.492395	-0.433279
C80	C	0.961086	-0.159061	-0.099945
C81	C	1.294419	0.174272	0.233388
C82	C	0.557065	-0.492401	-0.433291
C83	C	0.890398	-0.159068	-0.099958
C84	C	1.223731	0.174265	0.233376
C85	C	0.529216	-0.434636	-0.382584
C86	C	0.862549	-0.101303	-0.049251
C87	C	1.195883	0.232030	0.284082
C88	C	0.452567	-0.434640	-0.382600
C89	C	0.785901	-0.101307	-0.049267
C90	C	1.119234	0.232027	0.284067
C91	C	0.391474	-0.434647	-0.382617
C92	C	0.724808	-0.101314	-0.049283
C93	C	1.058141	0.232019	0.284050
C94	C	0.891168	-0.669033	-0.412992
C95	C	1.224501	-0.335699	-0.079658
C96	C	1.557834	-0.002366	0.253675
C97	C	0.878177	-0.769309	-0.426016
C98	C	1.211510	-0.435976	-0.092682
C99	C	1.544844	-0.102643	0.240651
C100	C	1.014805	-1.051924	-0.289747
C101	C	1.348138	-0.718591	0.043586
C102	C	1.681472	-0.385257	0.376920
C103	C	1.027010	-0.957709	-0.277507
C104	C	1.360343	-0.624376	0.055826
C105	C	1.693677	-0.291042	0.389160
C106	C	0.989803	-0.910604	-0.314633
C107	C	1.323137	-0.577271	0.018700
C108	C	1.656470	-0.243938	0.352034
C109	C	0.940388	-0.957724	-0.364001
C110	C	1.273722	-0.624391	-0.030668
C111	C	1.607055	-0.291057	0.302665
C112	C	0.928178	-1.051948	-0.376239
C113	C	1.261512	-0.718615	-0.042906
C114	C	1.594845	-0.385282	0.290428
C115	C	0.903176	-0.910629	-0.401125
C116	C	1.236510	-0.577296	-0.067792
C117	C	1.569843	-0.243962	0.265541
C118	C	0.853762	-0.957749	-0.450494
C119	C	1.187095	-0.624415	-0.117160
C120	C	1.520428	-0.291082	0.216173
C121	C	0.841554	-1.051963	-0.462729
C122	C	1.174888	-0.718630	-0.129396
C123	C	1.508221	-0.385297	0.203937
C124	C	0.878761	-1.099068	-0.425603
C125	C	1.212095	-0.765735	-0.092270
C126	C	1.545428	-0.432401	0.241064
C127	C	0.915387	-0.816405	-0.388888
C128	C	1.248720	-0.483071	-0.055554
C129	C	1.582053	-0.149738	0.277779
C130	C	0.828760	-0.816429	-0.475380
C131	C	1.162093	-0.483096	-0.142046
C132	C	1.495427	-0.149762	0.191287
C133	C	0.816555	-0.910644	-0.487620
C134	C	1.149888	-0.577311	-0.154286
C135	C	1.483221	-0.243977	0.179047
C136	C	1.098219	-0.434655	-0.382640
C137	C	1.431552	-0.101322	-0.049307
C138	C	1.764885	0.232011	0.284027
C139	C	1.173450	-0.434664	-0.382657
C140	C	1.506783	-0.101331	-0.049324
C141	C	1.840116	0.232002	0.284010
C142	C	0.921724	-0.434577	-0.559136
C143	C	1.255057	-0.101244	-0.225803
C144	C	1.588391	0.232089	0.107530
C145	C	0.921743	-0.434553	-0.634365
C146	C	1.255077	-0.101220	-0.301032
C147	C	1.588410	0.232114	0.032302
C148	C	0.952327	-0.199320	-0.352106
C149	C	1.285661	0.134013	-0.018773
C150	C	1.618994	0.467346	0.314561
C151	C	0.965388	-0.099044	-0.339111
C152	C	1.298721	0.234290	-0.005778
C153	C	1.632055	0.567623	0.327556
C154	C	0.972550	-0.376854	-0.662242
C155	C	1.305883	-0.043520	-0.328909
C156	C	1.639217	0.289813	0.004425
C157	C	0.972560	-0.376827	-0.732927
C158	C	1.305894	-0.043494	-0.399594
C159	C	1.639227	0.289839	-0.066260
C160	C	0.921766	-0.434506	-0.775735
C161	C	1.255100	-0.101173	-0.442401
C162	C	1.588433	0.232161	-0.109068
C163	C	0.870955	-0.492208	-0.747853
C164	C	1.204288	-0.158875	-0.414520
C165	C	1.537621	0.174459	-0.081187
C166	C	0.870942	-0.492229	-0.677169
C167	C	1.204276	-0.158896	-0.343835
C168	C	1.537609	0.174438	-0.010502
C169	C	0.871004	-0.492124	-1.032916
C170	C	1.204337	-0.158791	-0.699582
C171	C	1.537671	0.174543	-0.366249
C172	C	0.871022	-0.492101	-1.103605
C173	C	1.204355	-0.158767	-0.770271
C174	C	1.537688	0.174566	-0.436938
C175	C	0.972622	-0.376722	-1.088674
C176	C	1.305955	-0.043389	-0.755341
C177	C	1.639289	0.289944	-0.422007
C178	C	0.972609	-0.376743	-1.017990
C179	C	1.305943	-0.043410	-0.684656
C180	C	1.639276	0.289923	-0.351323
C181	C	0.921796	-0.434442	-0.990114
C182	C	1.255129	-0.101108	-0.656780
C183	C	1.588463	0.232225	-0.323447
C184	C	0.921785	-0.434468	-0.913469
C185	C	1.255118	-0.101135	-0.580135
C186	C	1.588451	0.232199	-0.246802
C187	C	0.921780	-0.434485	-0.852379
C188	C	1.255113	-0.101151	-0.519046
C189	C	1.588447	0.232182	-0.185712
C190	C	0.921681	-0.434626	-0.206744
C191	C	1.255014	-0.101292	0.126590
C192	C	1.588348	0.232041	0.459923
C193	C	0.921826	-0.434396	-0.131482
C194	C	1.255159	-0.101062	0.201851
C195	C	1.588493	0.232271	0.535184
H196	H	0.549383	-0.329827	-0.290584
H197	H	0.882717	0.003506	0.042750
H198	H	1.216050	0.336840	0.376083
Br199	Br	0.801984	-0.570533	-0.639335
Br200	Br	1.135318	-0.237200	-0.306001
Br201	Br	1.468651	0.096134	0.027332
Br202	Br	0.178487	-0.298501	-0.263124
Br203	Br	0.511820	0.034832	0.070210
Br204	Br	0.845153	0.368166	0.403543
Br205	Br	0.802083	-0.570385	-1.161702
Br206	Br	1.135416	-0.237052	-0.828369
Br207	Br	1.468750	0.096281	-0.495035
Br208	Br	0.802042	-0.570427	-0.995093
Br209	Br	1.135375	-0.237094	-0.661760
Br210	Br	1.468709	0.096239	-0.328426
H211	H	0.798461	-0.778077	-0.505610
H212	H	1.131795	-0.444744	-0.172276
H213	H	1.465128	-0.111411	0.161057
H214	H	1.013973	-0.329779	-0.983139
H215	H	1.347306	0.003555	-0.649805
H216	H	1.680640	0.336888	-0.316472
H217	H	0.868828	-1.175786	-0.435568
H218	H	1.202161	-0.842452	-0.102235
H219	H	1.535495	-0.509119	0.231099
Br220	Br	1.041493	-0.298578	-0.604153
Br221	Br	1.374826	0.034755	-0.270820
Br222	Br	1.708160	0.368089	0.062514
H223	H	0.677620	-0.329806	-0.290569
H224	H	1.010953	0.003528	0.042764
H225	H	1.344287	0.336861	0.376097
H226	H	0.955620	-0.778048	-0.348691
H227	H	1.288954	-0.444715	-0.015358
H228	H	1.622287	-0.111382	0.317975
H229	H	0.650435	-0.539432	-0.474565
H230	H	0.983768	-0.206099	-0.141232
H231	H	1.317101	0.127234	0.192102
H232	H	1.067242	-0.919347	-0.237311
H233	H	1.400576	-0.586014	0.096022
H234	H	1.733909	-0.252681	0.429356
H235	H	0.166425	-0.539471	-0.474655
H236	H	0.499758	-0.206138	-0.141322
H237	H	0.833092	0.127195	0.192011
Br238	Br	0.309780	-0.570834	-0.502149
Br239	Br	0.643114	-0.237501	-0.168816
Br240	Br	0.976447	0.095832	0.164518
Br241	Br	0.345109	-0.298485	-0.263098
Br242	Br	0.678442	0.034849	0.070236
Br243	Br	1.011775	0.368182	0.403569
H244	H	0.829595	-0.539168	-0.782713
H245	H	1.162929	-0.205834	-0.449379
H246	H	1.496262	0.127499	-0.116046
H247	H	1.045089	-1.090285	-0.259520
H248	H	1.378423	-0.756952	0.073813
H249	H	1.711756	-0.423618	0.407147
Br250	Br	1.006572	-0.782739	-0.298226
Br251	Br	1.339906	-0.449406	0.035108
Br252	Br	1.673239	-0.116073	0.368441
Br253	Br	0.498930	-0.570806	-0.502120
Br254	Br	0.832264	-0.237472	-0.168786
Br255	Br	1.165597	0.095861	0.164547
Br256	Br	1.041541	-0.298559	-0.770763
Br257	Br	1.374874	0.034774	-0.437429
Br258	Br	1.708208	0.368107	-0.104096
H259	H	0.801310	-1.090326	-0.502920
H260	H	1.134643	-0.756992	-0.169587
H261	H	1.467976	-0.423659	0.163746
Br262	Br	0.749495	-0.974603	-0.554619
Br263	Br	1.082829	-0.641269	-0.221286
Br264	Br	1.416162	-0.307936	0.112048
H265	H	1.013995	-0.329738	-1.111378
H266	H	1.347328	0.003595	-0.778045
H267	H	1.680661	0.336928	-0.444712
