data_functionalizedCrystal
_audit_creation_method	'MofGen! by Chris Wilmer'
_symmetry_space_group_name_H-M	'P1'
_symmetry_Int_Tables_number	1
_symmetry_cell_setting	triclinic
loop_
_symmetry_equiv_pos_as_xyz
  x,y,z
_cell_length_a	16.625546
_cell_length_b	19.077241
_cell_length_c	19.076919
_cell_angle_alpha	90.113904
_cell_angle_beta	92.269917
_cell_angle_gamma	87.685699
loop_
_atom_site_label
_atom_site_type_symbol
_atom_site_fract_x
_atom_site_fract_y
_atom_site_fract_z
Zn1	Zn	-0.292710	-1.058300	-0.440558
Zn2	Zn	-0.421926	-1.062944	-0.323048
Zn3	Zn	-0.292285	-0.945515	-0.318335
Zn4	Zn	-0.432681	-0.940763	-0.435783
O5	O	-0.359900	-1.001880	-0.379431
O6	O	-0.305528	-1.157249	-0.428940
O7	O	-0.400050	-1.051299	-0.224092
O8	O	-0.179508	-0.960521	-0.334574
O9	O	-0.400462	-1.160661	-0.342606
O10	O	-0.179820	-1.043384	-0.424371
O11	O	-0.304804	-0.965025	-0.220630
O12	O	-0.315232	-0.846551	-0.329945
O13	O	-0.418792	-0.952423	-0.534747
O14	O	-0.418380	-0.843060	-0.416233
O15	O	-0.315956	-1.038776	-0.538255
O16	O	-0.536186	-1.046691	-0.337977
O17	O	-0.544087	-0.956926	-0.420803
C18	C	-0.367928	-0.819309	-0.372060
C19	C	-0.371382	-0.741203	-0.368923
C20	C	-0.323662	-0.702731	-0.412467
C21	C	-0.326904	-0.629343	-0.409514
C22	C	-0.377869	-0.594428	-0.363019
C23	C	-0.425591	-0.632906	-0.319470
C24	C	-0.422344	-0.706293	-0.322420
C25	C	-0.392865	-0.375136	-0.349364
C26	C	-0.396110	-0.301743	-0.346419
C27	C	-0.297421	-0.298185	-0.436462
C28	C	-0.294183	-0.371573	-0.439411
C29	C	-0.341901	-0.410045	-0.395860
N30	N	-0.381186	-0.519414	-0.360001
N31	N	-0.338580	-0.485058	-0.398875
C32	C	-0.569393	-1.001815	-0.379399
C33	C	-0.659013	-1.001851	-0.379411
C34	C	-0.987187	-1.001970	-0.379489
C35	C	-0.895879	-1.001935	-0.379469
C36	C	-0.823103	-1.001910	-0.379450
C37	C	-0.731789	-1.001875	-0.379431
C38	C	-0.149590	-1.001965	-0.379479
C39	C	-0.059968	-1.002000	-0.379500
C40	C	-0.368621	-0.994551	-0.562710
C41	C	-0.372337	-0.991428	-0.640812
C42	C	-0.351838	-0.185165	-0.386826
C43	C	-0.348390	-0.263271	-0.389963
C44	C	-0.320545	-1.034918	-0.679333
C45	C	-0.324034	-1.031975	-0.752718
C46	C	-0.379320	-0.985544	-0.787582
C47	C	-0.431115	-0.942050	-0.749056
C48	C	-0.427621	-0.944990	-0.675672
C49	C	-0.395506	-0.971927	-1.006861
C50	C	-0.398997	-0.968991	-1.080250
C51	C	-0.291914	-1.058915	-1.083906
C52	C	-0.288429	-1.061854	-1.010521
C53	C	-0.340221	-1.018357	-0.972002
N54	N	-0.382889	-0.982536	-0.862593
N55	N	-0.336647	-1.021362	-0.896991
C56	C	-0.351154	-1.009222	-0.196867
C57	C	-0.347204	-1.012481	-0.118770
H58	H	-0.258571	-0.266853	-0.471918
N59	N	-0.264059	-1.082344	-0.643734
N60	N	-0.190253	-1.077381	-0.651764
H61	H	-0.150355	-1.110876	-0.626625
H62	H	-0.437616	-0.273318	-0.308557
H63	H	-0.431721	-0.406450	-0.313902
N64	N	-0.242115	-0.407246	-0.486891
N65	N	-0.239220	-0.472770	-0.489515
H66	H	-0.202447	-0.497966	-0.523048
N67	N	-0.448403	-0.927488	-0.967525
N68	N	-0.446291	-0.862322	-0.973110
H69	H	-0.483652	-0.830933	-0.945328
H70	H	-0.282163	-0.731152	-0.450330
N71	N	-0.477640	-0.597234	-0.271975
N72	N	-0.480534	-0.531710	-0.269346
H73	H	-0.517296	-0.506516	-0.235803
H74	H	-0.461202	-0.737617	-0.286961
H75	H	-0.469789	-0.909569	-0.644310
H76	H	-0.281860	-1.067390	-0.784078
H77	H	-0.243411	-1.099665	-0.982140
N78	N	-0.239020	-1.103340	-1.123264
N79	N	-0.242145	-1.100712	-1.188785
H80	H	-0.204785	-1.132087	-1.216582
N81	N	-0.455454	-0.921535	-1.115852
N82	N	-0.501675	-0.882686	-1.081452
H83	H	-0.541536	-0.849163	-1.106595
N84	N	-0.487578	-0.894620	-0.784677
N85	N	-0.490691	-0.892001	-0.850198
H86	H	-0.530570	-0.858503	-0.875356
H87	H	-0.288047	-0.598021	-0.444974
