data_functionalizedCrystal
_audit_creation_method	'MofGen! by Chris Wilmer'
_symmetry_space_group_name_H-M	'P1'
_symmetry_Int_Tables_number	1
_symmetry_cell_setting	triclinic
loop_
_symmetry_equiv_pos_as_xyz
  x,y,z
_cell_length_a	18.215404
_cell_length_b	18.215407
_cell_length_c	18.215387
_cell_angle_alpha	89.938492
_cell_angle_beta	89.911442
_cell_angle_gamma	90.023744
loop_
_atom_site_label
_atom_site_type_symbol
_atom_site_fract_x
_atom_site_fract_y
_atom_site_fract_z
Zn1	Zn	0.292550	-1.125375	0.416134
Zn2	Zn	0.625883	-0.792041	0.749467
Zn3	Zn	0.959217	-0.458708	1.082801
Zn4	Zn	0.415752	-1.125197	0.293068
Zn5	Zn	0.749086	-0.791864	0.626402
Zn6	Zn	1.082419	-0.458531	0.959735
Zn7	Zn	0.292704	-1.002219	0.293079
Zn8	Zn	0.626037	-0.668886	0.626413
Zn9	Zn	0.959371	-0.335553	0.959746
Zn10	Zn	0.415579	-1.002275	0.416092
Zn11	Zn	0.748912	-0.668942	0.749425
Zn12	Zn	1.082246	-0.335609	1.082759
O13	O	0.354146	-1.063767	0.354593
O14	O	0.687480	-0.730433	0.687927
O15	O	1.020813	-0.397100	1.021260
O16	O	0.308901	-1.228335	0.399822
O17	O	0.642234	-0.895002	0.733155
O18	O	0.975568	-0.561669	1.066489
O19	O	0.399567	-1.108787	0.190085
O20	O	0.732900	-0.775453	0.523419
O21	O	1.066233	-0.442120	0.856752
O22	O	0.189699	-1.018607	0.309425
O23	O	0.523033	-0.685274	0.642758
O24	O	0.856366	-0.351940	0.976092
O25	O	0.399417	-1.228205	0.309406
O26	O	0.732751	-0.894872	0.642740
O27	O	1.066084	-0.561539	0.976073
O28	O	0.189586	-1.109089	0.399833
O29	O	0.522919	-0.775755	0.733166
O30	O	0.856253	-0.442422	1.066499
O31	O	0.309164	-1.018435	0.190093
O32	O	0.642497	-0.685102	0.523427
O33	O	0.975830	-0.351768	0.856760
O34	O	0.308996	-0.899243	0.309384
O35	O	0.642329	-0.565909	0.642718
O36	O	0.975662	-0.232576	0.976051
O37	O	0.399122	-1.018702	0.519082
O38	O	0.732455	-0.685369	0.852415
O39	O	1.065789	-0.352036	1.185749
O40	O	0.399271	-0.899284	0.399761
O41	O	0.732605	-0.565950	0.733094
O42	O	1.065938	-0.232617	1.066428
O43	O	0.308733	-1.109143	0.519113
O44	O	0.642066	-0.775810	0.852446
O45	O	0.975400	-0.442476	1.185780
O46	O	0.518714	-1.108841	0.309365
O47	O	0.852047	-0.775508	0.642699
O48	O	1.185380	-0.442174	0.976032
O49	O	0.518586	-1.018531	0.399750
O50	O	0.851920	-0.685197	0.733084
O51	O	1.185253	-0.351864	1.066417
C52	C	0.354132	-0.872560	0.354570
C53	C	0.687465	-0.539227	0.687903
C54	C	1.020799	-0.205894	1.021236
C55	C	0.354144	-0.790762	0.354577
C56	C	0.687477	-0.457428	0.687910
C57	C	1.020810	-0.124095	1.021244
C58	C	0.545353	-1.063693	0.354568
C59	C	0.878686	-0.730359	0.687901
C60	C	1.212019	-0.397026	1.021235
C61	C	0.627152	-1.063728	0.354582
C62	C	0.960485	-0.730395	0.687915
C63	C	1.293818	-0.397061	1.021249
C64	C	0.401223	-0.602608	0.401575
C65	C	0.734556	-0.269275	0.734908
C66	C	1.067889	0.064058	1.068241
C67	C	0.401224	-0.525750	0.401583
C68	C	0.734557	-0.192416	0.734916
C69	C	1.067891	0.140917	1.068250
C70	C	0.307074	-0.525677	0.307615
C71	C	0.640408	-0.192344	0.640948
C72	C	0.973741	0.140989	0.974282
C73	C	0.307070	-0.602535	0.307611
C74	C	0.640403	-0.269201	0.640944
C75	C	0.973736	0.064132	0.974278
C76	C	0.354148	-0.640998	0.354590
C77	C	0.687481	-0.307665	0.687923
C78	C	1.020814	0.025669	1.021256
C79	C	0.354154	-0.487282	0.354602
C80	C	0.687488	-0.153949	0.687935
C81	C	1.020821	0.179385	1.021269
C82	C	0.354156	-0.403948	0.354610
C83	C	0.687489	-0.070615	0.687944
C84	C	1.020822	0.262718	1.021277
C85	C	0.354146	-0.724337	0.354583
C86	C	0.687479	-0.391004	0.687916
C87	C	1.020812	-0.057670	1.021249
C88	C	0.815387	-1.110867	0.307615
C89	C	1.148720	-0.777533	0.640948
C90	C	1.482054	-0.444200	0.974282
C91	C	0.892246	-1.110901	0.307637
C92	C	1.225579	-0.777568	0.640970
C93	C	1.558912	-0.444234	0.974304
C94	C	0.892153	-1.016779	0.401678
C95	C	1.225487	-0.683446	0.735011
C96	C	1.558820	-0.350113	1.068344
C97	C	0.815296	-1.016749	0.401659
C98	C	1.148629	-0.683416	0.734992
C99	C	1.481963	-0.350083	1.068326
C100	C	0.776915	-1.063792	0.354623
C101	C	1.110248	-0.730459	0.687957
C102	C	1.443582	-0.397125	1.021290
C103	C	0.930631	-1.063856	0.354664
C104	C	1.263964	-0.730523	0.687997
C105	C	1.597298	-0.397190	1.021331
C106	C	1.013965	-1.063893	0.354688
C107	C	1.347298	-0.730560	0.688021
C108	C	1.680631	-0.397227	1.021355
C109	C	0.693576	-1.063756	0.354600
C110	C	1.026909	-0.730423	0.687933
C111	C	1.360243	-0.397090	1.021267
C112	C	1.162193	-1.063866	0.354648
C113	C	1.495527	-0.730533	0.687982
C114	C	1.828860	-0.397199	1.021315
C115	C	1.080394	-1.063920	0.354706
C116	C	1.413728	-0.730587	0.688039
C117	C	1.747061	-0.397253	1.021372
C118	C	0.354348	-1.063628	0.163387
C119	C	0.687681	-0.730294	0.496720
C120	C	1.021014	-0.396961	0.830053
C121	C	0.354249	-1.063693	0.081588
C122	C	0.687582	-0.730360	0.414921
C123	C	1.020916	-0.397026	0.748255
C124	C	0.354159	-0.255720	0.354614
C125	C	0.687492	0.077614	0.687948
C126	C	1.020826	0.410947	1.021281
C127	C	0.354158	-0.337519	0.354615
C128	C	0.687492	-0.004185	0.687948
C129	C	1.020825	0.329148	1.021281
C130	C	0.307248	-1.016510	-0.183430
C131	C	0.640581	-0.683177	0.149903
C132	C	0.973915	-0.349843	0.483237
C133	C	0.307328	-1.016452	-0.106572
C134	C	0.640661	-0.683118	0.226762
C135	C	0.973995	-0.349785	0.560095
C136	C	0.400788	-1.111211	-0.106641
C137	C	0.734122	-0.777878	0.226692
C138	C	1.067455	-0.444544	0.560025
C139	C	0.400712	-1.111265	-0.183498
C140	C	0.734045	-0.777932	0.149835
C141	C	1.067378	-0.444599	0.483168
C142	C	0.353937	-1.063916	-0.221891
C143	C	0.687270	-0.730582	0.111442
C144	C	1.020604	-0.397249	0.444776
C145	C	0.354094	-1.063803	-0.068175
C146	C	0.687427	-0.730470	0.265158
C147	C	1.020761	-0.397137	0.598492
C148	C	0.354181	-1.063740	0.015158
C149	C	0.687515	-0.730407	0.348492
C150	C	1.020848	-0.397074	0.681825
C151	C	0.353851	-1.063977	-0.305230
C152	C	0.687184	-0.730644	0.028104
C153	C	1.020517	-0.397311	0.361437
C154	C	0.353891	-1.063949	0.546547
C155	C	0.687224	-0.730615	0.879880
C156	C	1.020558	-0.397282	1.213214
C157	C	0.353782	-1.064026	0.628346
C158	C	0.687116	-0.730693	0.961679
C159	C	1.020449	-0.397360	1.295013
H160	H	0.439556	-0.494496	0.439844
H161	H	0.772889	-0.161163	0.773177
H162	H	1.106223	0.172171	1.106510
N163	N	0.931349	-0.968712	0.449712
N164	N	1.264682	-0.635378	0.783046
N165	N	1.598016	-0.302045	1.116379
N166	N	0.896987	-0.926681	0.491679
N167	N	1.230320	-0.593348	0.825012
N168	N	1.563654	-0.260015	1.158345
H169	H	0.924667	-0.892729	0.525603
H170	H	1.258000	-0.559396	0.858936
H171	H	1.591333	-0.226063	1.192269
H172	H	0.784139	-1.149173	0.269317
H173	H	1.117472	-0.815839	0.602650
H174	H	1.450806	-0.482506	0.935984
N175	N	0.449295	-0.641910	0.449566
N176	N	0.782628	-0.308576	0.782899
N177	N	1.115961	0.024757	1.116233
N178	N	0.449285	-0.710532	0.449559
N179	N	0.782618	-0.377198	0.782892
N180	N	1.115952	-0.043865	1.116226
H181	H	0.483235	-0.738288	0.483456
H182	H	0.816569	-0.404955	0.816789
H183	H	1.149902	-0.071621	1.150123
N184	N	0.448545	-1.159580	-0.067406
N185	N	0.781879	-0.826247	0.265927
N186	N	1.115212	-0.492914	0.599261
N187	N	0.422352	-1.206266	-0.024370
N188	N	0.755685	-0.872933	0.308963
N189	N	1.089018	-0.539600	0.642297
H190	H	0.456078	-1.240430	0.003342
H191	H	0.789411	-0.907097	0.336675
H192	H	1.122744	-0.573763	0.670009
H193	H	0.438734	-1.149870	-0.214814
H194	H	0.772068	-0.816537	0.118519
H195	H	1.105401	-0.483204	0.451853
N196	N	0.775981	-0.968663	0.449673
N197	N	1.109315	-0.635329	0.783006
N198	N	1.442648	-0.301996	1.116339
N199	N	0.707359	-0.968647	0.449649
N200	N	1.040693	-0.635314	0.782983
N201	N	1.374026	-0.301980	1.116316
H202	H	0.679591	-0.934691	0.483560
H203	H	1.012925	-0.601357	0.816893
H204	H	1.346258	-0.268024	1.150226
N205	N	0.931556	-1.158985	0.259627
N206	N	1.264889	-0.825651	0.592960
N207	N	1.598223	-0.492318	0.926293
N208	N	0.974358	-1.205901	0.285576
N209	N	1.307691	-0.872568	0.618909
N210	N	1.641024	-0.539235	0.952242
H211	H	1.002122	-1.239863	0.251668
H212	H	1.335455	-0.906530	0.585001
H213	H	1.668789	-0.573196	0.918334
H214	H	0.269310	-0.977849	-0.075260
H215	H	0.602643	-0.644515	0.258073
H216	H	0.935976	-0.311182	0.591406
N217	N	0.258971	-0.641754	0.259625
N218	N	0.592304	-0.308421	0.592958
N219	N	0.925637	0.024912	0.926292
N220	N	0.191064	-0.633202	0.264628
N221	N	0.524398	-0.299869	0.597961
N222	N	0.857731	0.033465	0.931295
H223	H	0.157093	-0.660902	0.230742
H224	H	0.490426	-0.327568	0.564076
H225	H	0.823760	0.005765	0.897409
H226	H	0.269161	-0.977955	-0.214687
H227	H	0.602495	-0.644622	0.118646
H228	H	0.935828	-0.311288	0.451980
H229	H	0.268746	-0.494351	0.269365
H230	H	0.602079	-0.161017	0.602699
H231	H	0.935413	0.172316	0.936032
