data_functionalizedCrystal
_audit_creation_method	'MofGen! by Chris Wilmer'
_symmetry_space_group_name_H-M	'P1'
_symmetry_Int_Tables_number	1
_symmetry_cell_setting	triclinic
loop_
_symmetry_equiv_pos_as_xyz
  x,y,z
_cell_length_a	12.827893
_cell_length_b	13.031981
_cell_length_c	12.827885
_cell_angle_alpha	97.216746
_cell_angle_beta	90.019272
_cell_angle_gamma	97.191988
loop_
_atom_site_label
_atom_site_type_symbol
_atom_site_fract_x
_atom_site_fract_y
_atom_site_fract_z
Zn1	Zn	1.544847	-0.416061	0.537949
Zn2	Zn	1.522548	-0.590874	0.340982
Zn3	Zn	1.370082	-0.416113	0.363216
Zn4	Zn	1.347890	-0.590797	0.515692
O5	O	1.446342	-0.503461	0.439460
O6	O	1.688124	-0.439262	0.511830
O7	O	1.502278	-0.567745	0.197689
O8	O	1.411885	-0.269841	0.405013
O9	O	1.671740	-0.567695	0.367120
O10	O	1.540284	-0.269803	0.533389
O11	O	1.390262	-0.439349	0.214023
O12	O	1.220904	-0.439274	0.383432
O13	O	1.374062	-0.567564	0.664888
O14	O	1.204599	-0.567614	0.495456
O15	O	1.518766	-0.439187	0.681239
O16	O	1.480759	-0.737129	0.345539
O17	O	1.352439	-0.737072	0.473897
C18	C	1.174834	-0.503442	0.439442
C19	C	1.058679	-0.503459	0.439456
C20	C	1.014987	-0.440018	0.511148
C21	C	0.894935	-0.440035	0.511165
C22	C	1.411799	-0.775026	0.404913
C23	C	1.397117	-0.891202	0.390169
C24	C	1.454060	-0.942895	0.447176
C25	C	1.438887	-1.062970	0.431938
C26	C	1.718909	-0.503481	0.439478
C27	C	1.835061	-0.503490	0.439485
C28	C	1.446426	-0.503361	0.712043
C29	C	1.446461	-0.503318	0.828201
C30	C	1.481048	-0.230836	0.474164
C31	C	1.495837	-0.114660	0.488953
C32	C	1.446328	-0.503486	0.167947
C33	C	1.446532	-0.503234	0.051826
C34	C	1.518074	-0.439781	0.888079
C35	C	1.518112	-0.439735	1.008135
H36	H	1.007208	-0.557782	0.378089
Br37	Br	1.344307	-0.593924	0.890889
H38	H	1.385222	-0.557638	1.000370
Br39	Br	1.620314	-0.349073	1.093901
H40	H	1.378894	-1.107604	0.371853
H41	H	1.555821	-1.070027	0.549047
Br42	Br	1.100767	-0.349461	0.613431
H43	H	1.579352	-0.385414	0.850462
Br44	Br	0.832264	-0.349511	0.613480
H45	H	0.872659	-0.557812	0.378109
Br46	Br	1.554026	-0.868506	0.547343
H47	H	1.337129	-0.935840	0.330088
