data_functionalizedCrystal
_audit_creation_method	'MofGen! by Chris Wilmer'
_symmetry_space_group_name_H-M	'P1'
_symmetry_Int_Tables_number	1
_symmetry_cell_setting	triclinic
loop_
_symmetry_equiv_pos_as_xyz
  x,y,z
_cell_length_a	12.759400
_cell_length_b	12.827893
_cell_length_c	12.827885
_cell_angle_alpha	90.021189
_cell_angle_beta	89.969506
_cell_angle_gamma	89.987106
loop_
_atom_site_label
_atom_site_type_symbol
_atom_site_fract_x
_atom_site_fract_y
_atom_site_fract_z
Zn1	Zn	-0.418266	-1.597675	-0.590897
Zn2	Zn	-0.593981	-1.597571	-0.416155
Zn3	Zn	-0.418311	-1.422916	-0.416165
Zn4	Zn	-0.593898	-1.422904	-0.590849
O5	O	-0.506114	-1.510266	-0.503517
O6	O	-0.441590	-1.743897	-0.567733
O7	O	-0.570732	-1.574365	-0.269920
O8	O	-0.271284	-1.446147	-0.439367
O9	O	-0.570688	-1.743821	-0.439351
O10	O	-0.271251	-1.574541	-0.567742
O11	O	-0.441668	-1.446046	-0.269927
O12	O	-0.441587	-1.276678	-0.439321
O13	O	-0.570546	-1.446125	-0.737092
O14	O	-0.570590	-1.276669	-0.567661
O15	O	-0.441509	-1.574529	-0.737127
O16	O	-0.740991	-1.574352	-0.439305
O17	O	-0.740930	-1.446025	-0.567652
C18	C	-0.506085	-1.238756	-0.503488
C19	C	-0.506098	-1.122603	-0.503500
C20	C	-0.442328	-1.070856	-0.567125
C21	C	-0.442340	-0.950806	-0.567139
C22	C	-0.779081	-1.510204	-0.503495
C23	C	-0.895858	-1.510273	-0.503520
C24	C	-0.950717	-1.577168	-0.436764
C25	C	-1.060441	-1.577232	-0.436796
C26	C	-1.060437	-1.443499	-0.570344
C27	C	-0.950715	-1.443440	-0.570316
C28	C	-0.895860	-1.644001	-0.369968
C29	C	-0.950719	-1.710899	-0.303205
C30	C	-1.060443	-1.710964	-0.303237
C31	C	-1.115308	-1.644129	-0.370032
C32	C	-0.232081	-1.510357	-0.503561
C33	C	-0.115304	-1.510396	-0.503580
C34	C	-0.506013	-1.510337	-0.776087
C35	C	-0.505970	-1.510368	-0.892240
C36	C	-0.506135	-0.782836	-0.503538
C37	C	-0.506122	-0.898990	-0.503525
C38	C	-0.442106	-1.573913	-0.944042
C39	C	-0.442060	-1.573946	-1.064093
C40	C	-0.506139	-1.510256	-0.232007
C41	C	-0.505886	-1.510428	-0.115854
H42	H	-0.387748	-0.906304	-0.621614
C43	C	-0.579791	-1.436901	-0.952377
H44	H	-0.619859	-1.397024	-0.904310
H45	H	-0.625515	-1.476908	-0.994956
H46	H	-0.539533	-1.391427	-0.994954
C47	C	-0.368558	-1.131057	-0.640703
H48	H	-0.328547	-1.083023	-0.680618
H49	H	-0.408836	-1.173655	-0.686121
H50	H	-0.322763	-1.173619	-0.600756
H51	H	-0.387388	-1.628352	-1.108641
H52	H	-0.560726	-0.943484	-0.449057
C53	C	-0.579869	-1.062403	-0.429922
H54	H	-0.619871	-1.110436	-0.389998
H55	H	-0.625657	-1.019835	-0.469861
H56	H	-0.539583	-1.019810	-0.384497
H57	H	-0.387461	-1.628288	-0.899515
C58	C	-0.890366	-1.369863	-0.643751
H59	H	-0.938750	-1.330060	-0.683528
H60	H	-0.847500	-1.409800	-0.689304
H61	H	-0.847627	-1.324324	-0.603724
C62	C	-0.775168	-1.643937	-0.369933
H63	H	-0.750352	-1.693324	-0.320598
H64	H	-0.750413	-1.576495	-0.351802
H65	H	-0.750280	-1.661971	-0.437382
H66	H	-1.204653	-1.644195	-0.370061
C67	C	-0.890373	-1.784407	-0.229734
H68	H	-0.817169	-1.774782	-0.239266
H69	H	-0.908281	-1.854626	-0.245088
H70	H	-0.908430	-1.769147	-0.159510
H71	H	-1.105106	-1.765443	-0.248884
H72	H	-1.105117	-1.389084	-0.624724
H73	H	-0.560568	-1.456025	-1.071312
