data_functionalizedCrystal
_audit_creation_method	'MofGen! by Chris Wilmer'
_symmetry_space_group_name_H-M	'P1'
_symmetry_Int_Tables_number	1
_symmetry_cell_setting	triclinic
loop_
_symmetry_equiv_pos_as_xyz
  x,y,z
_cell_length_a	18.050591
_cell_length_b	19.121063
_cell_length_c	18.050583
_cell_angle_alpha	92.401387
_cell_angle_beta	89.977979
_cell_angle_gamma	92.465257
loop_
_atom_site_label
_atom_site_type_symbol
_atom_site_fract_x
_atom_site_fract_y
_atom_site_fract_z
Zn1	Zn	1.122689	-0.279636	-0.432625
Zn2	Zn	1.372689	-0.029636	-0.182625
Zn3	Zn	1.622689	0.220364	0.067375
Zn4	Zn	1.872689	0.470364	0.317375
Zn5	Zn	1.117299	-0.397107	-0.313726
Zn6	Zn	1.367299	-0.147107	-0.063726
Zn7	Zn	1.617299	0.102893	0.186274
Zn8	Zn	1.867299	0.352893	0.436274
Zn9	Zn	0.998504	-0.279667	-0.308438
Zn10	Zn	1.248504	-0.029667	-0.058438
Zn11	Zn	1.498504	0.220333	0.191562
Zn12	Zn	1.748504	0.470333	0.441562
Zn13	Zn	0.993161	-0.397042	-0.437858
Zn14	Zn	1.243161	-0.147042	-0.187858
Zn15	Zn	1.493161	0.102958	0.062142
Zn16	Zn	1.743161	0.352958	0.312142
O17	O	1.057914	-0.338363	-0.373162
O18	O	1.307914	-0.088363	-0.123162
O19	O	1.557914	0.161637	0.126838
O20	O	1.807914	0.411637	0.376838
O21	O	1.225898	-0.295233	-0.416876
O22	O	1.475898	-0.045233	-0.166876
O23	O	1.725898	0.204767	0.083124
O24	O	1.975898	0.454767	0.333124
O25	O	1.101522	-0.381568	-0.209102
O26	O	1.351522	-0.131568	0.040898
O27	O	1.601522	0.118432	0.290898
O28	O	1.851522	0.368432	0.540898
O29	O	1.019470	-0.181379	-0.320508
O30	O	1.269470	0.068621	-0.070508
O31	O	1.519470	0.318621	0.179492
O32	O	1.769470	0.568621	0.429492
O33	O	1.221938	-0.381538	-0.329521
O34	O	1.471938	-0.131538	-0.079521
O35	O	1.721938	0.118462	0.170479
O36	O	1.971938	0.368462	0.420479
O37	O	1.110707	-0.181356	-0.411749
O38	O	1.360707	0.068644	-0.161749
O39	O	1.610707	0.318644	0.088251
O40	O	1.860707	0.568644	0.338251
O41	O	1.014243	-0.295286	-0.205216
O42	O	1.264243	-0.045286	0.044784
O43	O	1.514243	0.204714	0.294784
O44	O	1.764243	0.454714	0.544784
O45	O	0.893872	-0.295223	-0.325583
O46	O	1.143872	-0.045223	-0.075583
O47	O	1.393872	0.204777	0.174417
O48	O	1.643872	0.454777	0.424417
O49	O	1.010363	-0.381427	-0.541087
O50	O	1.260363	-0.131427	-0.291087
O51	O	1.510363	0.118573	-0.041087
O52	O	1.760363	0.368573	0.208913
O53	O	0.889946	-0.381457	-0.420668
O54	O	1.139946	-0.131457	-0.170668
O55	O	1.389946	0.118543	0.079332
O56	O	1.639946	0.368543	0.329332
O57	O	1.105526	-0.295170	-0.537242
O58	O	1.355526	-0.045170	-0.287242
O59	O	1.605526	0.204830	-0.037242
O60	O	1.855526	0.454830	0.212758
O61	O	1.096340	-0.495382	-0.334595
O62	O	1.346340	-0.245382	-0.084595
O63	O	1.596340	0.004618	0.165405
O64	O	1.846340	0.254618	0.415405
O65	O	1.005137	-0.495334	-0.425795
O66	O	1.255137	-0.245334	-0.175795
O67	O	1.505137	0.004666	0.074205
O68	O	1.755137	0.254666	0.324205
C69	C	0.864963	-0.338337	-0.373120
C70	C	1.114963	-0.088337	-0.123120
C71	C	1.364963	0.161663	0.126880
C72	C	1.614963	0.411663	0.376880
C73	C	0.782417	-0.338342	-0.373120
C74	C	1.032417	-0.088342	-0.123120
C75	C	1.282417	0.161658	0.126880
C76	C	1.532417	0.411658	0.376880
C77	C	0.585082	-0.291394	-0.321525
C78	C	0.835082	-0.041394	-0.071525
C79	C	1.085082	0.208606	0.178475
C80	C	1.335082	0.458606	0.428475
C81	C	0.532772	-0.355457	-0.306134
C82	C	0.782772	-0.105457	-0.056134
C83	C	1.032772	0.144543	0.193866
C84	C	1.282772	0.394543	0.443866
C85	C	0.631285	-0.338364	-0.373154
C86	C	0.881285	-0.088364	-0.123154
C87	C	1.131285	0.161636	0.126846
C88	C	1.381285	0.411636	0.376846
C89	C	0.536512	-0.274323	-0.388544
C90	C	0.786512	-0.024323	-0.138544
C91	C	1.036512	0.225677	0.111456
C92	C	1.286512	0.475677	0.361456
C93	C	0.485299	-0.338379	-0.373186
C94	C	0.735299	-0.088379	-0.123186
C95	C	0.985299	0.161621	0.126814
C96	C	1.235299	0.411621	0.376814
C97	C	0.580062	-0.402461	-0.357730
C98	C	0.830062	-0.152461	-0.107730
C99	C	1.080062	0.097539	0.142270
C100	C	1.330062	0.347539	0.392270
C101	C	0.583807	-0.321283	-0.440170
C102	C	0.833807	-0.071283	-0.190170
C103	C	1.083807	0.178717	0.059830
C104	C	1.333807	0.428717	0.309830
C105	C	0.531518	-0.385391	-0.424807
C106	C	0.781518	-0.135391	-0.174807
C107	C	1.031518	0.114609	0.075193
C108	C	1.281518	0.364609	0.325193
C109	C	0.715384	-0.338354	-0.373134
C110	C	0.965384	-0.088354	-0.123134
C111	C	1.215384	0.161646	0.126866
C112	C	1.465384	0.411646	0.376866
C113	C	0.401202	-0.338395	-0.373207
C114	C	0.651202	-0.088395	-0.123207
C115	C	0.901202	0.161605	0.126793
C116	C	1.151202	0.411605	0.376793
C117	C	1.049594	-0.520842	-0.381353
C118	C	1.299594	-0.270842	-0.131353
C119	C	1.549594	-0.020842	0.118647
C120	C	1.799594	0.229158	0.368647
C121	C	1.046103	-0.598907	-0.384882
C122	C	1.296103	-0.348907	-0.134882
C123	C	1.546103	-0.098907	0.115118
C124	C	1.796103	0.151093	0.365118
C125	C	1.091985	-0.635584	-0.339097
C126	C	1.341985	-0.385584	-0.089097
C127	C	1.591985	-0.135584	0.160903
C128	C	1.841985	0.114416	0.410903
C129	C	1.088706	-0.708935	-0.342420
C130	C	1.338706	-0.458935	-0.092420
C131	C	1.588706	-0.208935	0.157580
C132	C	1.838706	0.041065	0.407580
C133	C	1.039541	-0.745607	-0.391526
C134	C	1.289541	-0.495607	-0.141526
C135	C	1.539541	-0.245607	0.108474
C136	C	1.789541	0.004393	0.358474
C137	C	0.993657	-0.708925	-0.437316
C138	C	1.243657	-0.458925	-0.187316
C139	C	1.493657	-0.208925	0.062684
C140	C	1.743657	0.041075	0.312684
C141	C	0.996940	-0.635576	-0.433996
C142	C	1.246940	-0.385576	-0.183996
C143	C	1.496940	-0.135576	0.066004
C144	C	1.746940	0.114424	0.316004
C145	C	1.027253	-0.967075	-0.403928
C146	C	1.277253	-0.717075	-0.153928
C147	C	1.527253	-0.467075	0.096072
C148	C	1.777253	-0.217075	0.346072
C149	C	1.023972	-1.040429	-0.407243
C150	C	1.273972	-0.790429	-0.157243
C151	C	1.523972	-0.540429	0.092757
C152	C	1.773972	-0.290429	0.342757
C153	C	1.119022	-1.040434	-0.312347
C154	C	1.369022	-0.790434	-0.062347
C155	C	1.619022	-0.540434	0.187653
C156	C	1.869022	-0.290434	0.437653
C157	C	1.122297	-0.967083	-0.309028
C158	C	1.372297	-0.717083	-0.059028
C159	C	1.622297	-0.467083	0.190972
C160	C	1.872297	-0.217083	0.440972
C161	C	1.076417	-0.930407	-0.354822
C162	C	1.326417	-0.680407	-0.104822
C163	C	1.576417	-0.430407	0.145178
C164	C	1.826417	-0.180407	0.395178
C165	C	1.036186	-0.820583	-0.394923
C166	C	1.286186	-0.570583	-0.144923
C167	C	1.536186	-0.320583	0.105077
C168	C	1.786186	-0.070583	0.355077
C169	C	1.079775	-0.855432	-0.351428
C170	C	1.329775	-0.605432	-0.101428
C171	C	1.579775	-0.355432	0.148572
C172	C	1.829775	-0.105432	0.398572
C173	C	1.251618	-0.338390	-0.373205
C174	C	1.501618	-0.088390	-0.123205
C175	C	1.751618	0.161610	0.126795
C176	C	2.001618	0.411610	0.376795
C177	C	1.334163	-0.338401	-0.373223
C178	C	1.584163	-0.088401	-0.123223
C179	C	1.834163	0.161599	0.126777
C180	C	2.084163	0.411599	0.376777
C181	C	1.057950	-0.338288	-0.566864
C182	C	1.307950	-0.088288	-0.316864
C183	C	1.557950	0.161712	-0.066864
C184	C	1.807950	0.411712	0.183136
C185	C	1.057965	-0.338256	-0.649409
C186	C	1.307965	-0.088256	-0.399409
C187	C	1.557965	0.161744	-0.149409
C188	C	1.807965	0.411744	0.100591
C189	C	1.066286	-0.155171	-0.364955
C190	C	1.316286	0.094829	-0.114955
C191	C	1.566286	0.344829	0.135045
C192	C	1.816286	0.594829	0.385045
C193	C	1.069853	-0.077106	-0.361458
C194	C	1.319853	0.172894	-0.111458
C195	C	1.569853	0.422894	0.138542
C196	C	1.819853	0.672894	0.388542
C197	C	1.109766	-0.291327	-0.846768
C198	C	1.359766	-0.041327	-0.596768
C199	C	1.609766	0.208673	-0.346768
C200	C	1.859766	0.458673	-0.096768
C201	C	1.042808	-0.274132	-0.895381
C202	C	1.292808	-0.024132	-0.645381
C203	C	1.542808	0.225868	-0.395381
C204	C	1.792808	0.475868	-0.145381
C205	C	1.057995	-0.338244	-0.800538
C206	C	1.307995	-0.088244	-0.550538
C207	C	1.557995	0.161756	-0.300538
C208	C	1.807995	0.411756	-0.050538
C209	C	1.124983	-0.355393	-0.899005
C210	C	1.374983	-0.105393	-0.649005
C211	C	1.624983	0.144607	-0.399005
C212	C	1.874983	0.394607	-0.149005
C213	C	1.058031	-0.338231	-0.946523
C214	C	1.308031	-0.088231	-0.696523
C215	C	1.558031	0.161769	-0.446523
C216	C	1.808031	0.411769	-0.196523
C217	C	0.991003	-0.321017	-0.848063
C218	C	1.241003	-0.071017	-0.598063
C219	C	1.491003	0.178983	-0.348063
C220	C	1.741003	0.428983	-0.098063
C221	C	1.073222	-0.402308	-0.851684
C222	C	1.323222	-0.152308	-0.601684
C223	C	1.573222	0.097692	-0.351684
C224	C	1.823222	0.347692	-0.101684
C225	C	1.006217	-0.385138	-0.900276
C226	C	1.256217	-0.135138	-0.650276
C227	C	1.506217	0.114862	-0.400276
C228	C	1.756217	0.364862	-0.150276
C229	C	1.057976	-0.338250	-0.716440
C230	C	1.307976	-0.088250	-0.466440
C231	C	1.557976	0.161750	-0.216440
C232	C	1.807976	0.411750	0.033560
C233	C	1.058042	-0.338225	-1.030619
C234	C	1.308042	-0.088225	-0.780619
C235	C	1.558042	0.161775	-0.530619
C236	C	1.808042	0.411775	-0.280619
C237	C	1.057922	-0.338387	-0.180211
C238	C	1.307922	-0.088387	0.069789
C239	C	1.557922	0.161613	0.319789
C240	C	1.807922	0.411613	0.569789
C241	C	1.058060	-0.338221	-0.097658
C242	C	1.308060	-0.088221	0.152342
C243	C	1.558060	0.161779	0.402342
C244	C	1.808060	0.411779	0.652342
H245	H	0.517247	-0.220165	-0.401523
H246	H	0.767247	0.029835	-0.151523
H247	H	1.017247	0.279835	0.098477
H248	H	1.267247	0.529835	0.348477
N249	N	0.616152	-0.238835	-0.263641
N250	N	0.866152	0.011165	-0.013641
N251	N	1.116152	0.261165	0.236359
N252	N	1.366152	0.511165	0.486359
H253	H	0.574084	-0.215311	-0.237066
H254	H	0.824084	0.034689	0.012934
H255	H	1.074084	0.284689	0.262934
H256	H	1.324084	0.534689	0.512934
H257	H	0.646578	-0.263674	-0.226742
H258	H	0.896578	-0.013674	0.023258
H259	H	1.146578	0.236326	0.273258
H260	H	1.396578	0.486326	0.523258
N261	N	0.977761	-0.927526	-0.453311
N262	N	1.227761	-0.677526	-0.203311
N263	N	1.477761	-0.427526	0.046689
N264	N	1.727761	-0.177526	0.296689
H265	H	0.944727	-0.897141	-0.421719
H266	H	1.194727	-0.647141	-0.171719
H267	H	1.444727	-0.397141	0.078281
H268	H	1.694727	-0.147141	0.328281
H269	H	1.009332	-0.897086	-0.486374
H270	H	1.259332	-0.647086	-0.236374
H271	H	1.509332	-0.397086	0.013626
H272	H	1.759332	-0.147086	0.263626
N273	N	0.503110	-0.374615	-0.231086
N274	N	0.753110	-0.124615	0.018914
N275	N	1.003110	0.125385	0.268914
N276	N	1.253110	0.375385	0.518914
H277	H	0.522307	-0.338880	-0.192166
H278	H	0.772307	-0.088880	0.057834
H279	H	1.022307	0.161120	0.307834
H280	H	1.272307	0.411120	0.557834
H281	H	0.447138	-0.375330	-0.231990
H282	H	0.697138	-0.125330	0.018010
H283	H	0.947138	0.124670	0.268010
H284	H	1.197138	0.374670	0.518010
N285	N	0.940631	-0.748475	-0.490284
N286	N	1.190631	-0.498475	-0.240284
N287	N	1.440631	-0.248475	0.009716
N288	N	1.690631	0.001525	0.259716
H289	H	0.945509	-0.800507	-0.485439
H290	H	1.195509	-0.550507	-0.235439
H291	H	1.445509	-0.300507	0.014561
H292	H	1.695509	-0.050507	0.264561
H293	H	0.888171	-0.735698	-0.478091
H294	H	1.138171	-0.485698	-0.228091
H295	H	1.388171	-0.235698	0.021909
H296	H	1.638171	0.014302	0.271909
N297	N	0.605398	-0.474231	-0.340418
N298	N	0.855398	-0.224231	-0.090418
N299	N	1.105398	0.025769	0.159582
N300	N	1.355398	0.275769	0.409582
H301	H	0.661370	-0.473777	-0.340490
H302	H	0.911370	-0.223777	-0.090490
H303	H	1.161370	0.026223	0.159510
H304	H	1.411370	0.276223	0.409510
H305	H	0.586318	-0.487201	-0.289990
H306	H	0.836318	-0.237201	-0.039990
H307	H	1.086318	0.012799	0.210010
H308	H	1.336318	0.262799	0.460010
H309	H	1.086112	-0.456475	-0.832379
H310	H	1.336112	-0.206475	-0.582379
H311	H	1.586112	0.043525	-0.332379
H312	H	1.836112	0.293525	-0.082379
N313	N	0.970942	-1.079981	-0.460213
N314	N	1.220942	-0.829981	-0.210213
N315	N	1.470942	-0.579981	0.039787
N316	N	1.720942	-0.329981	0.289787
H317	H	0.999742	-1.110370	-0.496029
H318	H	1.249742	-0.860370	-0.246029
H319	H	1.499742	-0.610370	0.003971
H320	H	1.749742	-0.360370	0.253971
H321	H	0.935192	-1.110418	-0.431319
H322	H	1.185192	-0.860418	-0.181319
H323	H	1.435192	-0.610418	0.068681
H324	H	1.685192	-0.360418	0.318681
H325	H	0.959580	-0.605714	-0.471280
H326	H	1.209580	-0.355714	-0.221280
H327	H	1.459580	-0.105714	0.028720
H328	H	1.709580	0.144286	0.278720
N329	N	0.500630	-0.438068	-0.482664
N330	N	0.750630	-0.188068	-0.232664
N331	N	1.000630	0.061932	0.017336
N332	N	1.250630	0.311932	0.267336
H333	H	0.516491	-0.486406	-0.470955
H334	H	0.766491	-0.236406	-0.220955
H335	H	1.016491	0.013594	0.029045
H336	H	1.266491	0.263594	0.279045
H337	H	0.444711	-0.437439	-0.482628
H338	H	0.694711	-0.187439	-0.232628
H339	H	0.944711	0.062561	0.017372
H340	H	1.194711	0.312561	0.267372
H341	H	1.029939	-0.219950	-0.914670
H342	H	1.279939	0.030050	-0.664670
H343	H	1.529939	0.280050	-0.414670
H344	H	1.779939	0.530050	-0.164670
N345	N	0.948182	-0.437686	-0.931128
N346	N	1.198182	-0.187686	-0.681128
N347	N	1.448182	0.062314	-0.431128
N348	N	1.698182	0.312314	-0.181128
H349	H	0.911225	-0.412902	-0.961533
H350	H	1.161225	-0.162902	-0.711533
H351	H	1.411225	0.087098	-0.461533
H352	H	1.661225	0.337098	-0.211533
H353	H	0.972855	-0.474193	-0.963531
H354	H	1.222855	-0.224193	-0.713531
H355	H	1.472855	0.025807	-0.463531
H356	H	1.722855	0.275807	-0.213531
H357	H	0.934354	-0.306443	-0.825801
H358	H	1.184354	-0.056443	-0.575801
H359	H	1.434354	0.193557	-0.325801
H360	H	1.684354	0.443557	-0.075801
N361	N	0.613491	-0.302114	-0.515201
N362	N	0.863491	-0.052114	-0.265201
N363	N	1.113491	0.197886	-0.015201
N364	N	1.363491	0.447886	0.234799
H365	H	0.597763	-0.253698	-0.526770
H366	H	0.847763	-0.003698	-0.276770
H367	H	1.097763	0.246302	-0.026770
H368	H	1.347763	0.496302	0.223230
H369	H	0.669407	-0.302745	-0.514716
H370	H	0.919407	-0.052745	-0.264716
H371	H	1.169407	0.197255	-0.014716
H372	H	1.419407	0.447255	0.235284
H373	H	1.162331	-0.937226	-0.269043
H374	H	1.412331	-0.687226	-0.019043
H375	H	1.662331	-0.437226	0.230957
H376	H	1.912331	-0.187226	0.480957
N377	N	1.145010	-0.596033	-0.286130
N378	N	1.395010	-0.346033	-0.036130
N379	N	1.645010	-0.096033	0.213870
N380	N	1.895010	0.153967	0.463870
H381	H	1.173580	-0.630401	-0.257631
H382	H	1.423580	-0.380401	-0.007631
H383	H	1.673580	-0.130401	0.242369
H384	H	1.923580	0.119599	0.492369
H385	H	1.180723	-0.565551	-0.315017
H386	H	1.430723	-0.315551	-0.065017
H387	H	1.680723	-0.065551	0.184983
H388	H	1.930723	0.184449	0.434983
N389	N	1.138192	-0.748494	-0.293038
N390	N	1.388192	-0.498494	-0.043038
N391	N	1.638192	-0.248494	0.206962
N392	N	1.888192	0.001506	0.456962
H393	H	1.169832	-0.714132	-0.261422
H394	H	1.419832	-0.464132	-0.011422
H395	H	1.669832	-0.214132	0.238578
H396	H	1.919832	0.035868	0.488578
H397	H	1.106617	-0.778977	-0.260021
H398	H	1.356617	-0.528977	-0.010021
H399	H	1.606617	-0.278977	0.239979
H400	H	1.856617	-0.028977	0.489979
H401	H	1.156376	-1.070303	-0.275066
H402	H	1.406376	-0.820303	-0.025066
H403	H	1.656376	-0.570303	0.224934
H404	H	1.906376	-0.320303	0.474934
N405	N	1.132799	-0.815877	-0.298467
N406	N	1.382799	-0.565877	-0.048467
N407	N	1.632799	-0.315877	0.201533
N408	N	1.882799	-0.065877	0.451533
H409	H	1.120724	-0.828689	-0.245972
H410	H	1.370724	-0.578689	0.004028
H411	H	1.620724	-0.328689	0.254028
H412	H	1.870724	-0.078689	0.504028
H413	H	1.185266	-0.828607	-0.310690
H414	H	1.435266	-0.578607	-0.060690
H415	H	1.685266	-0.328607	0.189310
H416	H	1.935266	-0.078607	0.439310
N417	N	0.983154	-0.860142	-0.447877
N418	N	1.233154	-0.610142	-0.197877
N419	N	1.483154	-0.360142	0.052123
N420	N	1.733154	-0.110142	0.302123
H421	H	0.930668	-0.847427	-0.435710
H422	H	1.180668	-0.597427	-0.185710
H423	H	1.430668	-0.347427	0.064290
H424	H	1.680668	-0.097427	0.314290
H425	H	0.995286	-0.847315	-0.500353
H426	H	1.245286	-0.597315	-0.250353
H427	H	1.495286	-0.347315	-0.000353
H428	H	1.745286	-0.097315	0.249647
N429	N	1.199999	-0.374620	-0.928614
N430	N	1.449999	-0.124620	-0.678614
N431	N	1.699999	0.125380	-0.428614
N432	N	1.949999	0.375380	-0.178614
H433	H	1.239049	-0.339150	-0.909089
H434	H	1.489049	-0.089150	-0.659089
H435	H	1.739049	0.160850	-0.409089
H436	H	1.989049	0.410850	-0.159089
H437	H	1.211822	-0.422682	-0.912004
H438	H	1.461822	-0.172682	-0.662004
H439	H	1.711822	0.077318	-0.412004
H440	H	1.961822	0.327318	-0.162004
H441	H	1.153479	-0.251625	-0.823337
H442	H	1.403479	-0.001625	-0.573337
H443	H	1.653479	0.248375	-0.323337
H444	H	1.903479	0.498375	-0.073337
