data_functionalizedCrystal
_audit_creation_method	'MofGen! by Chris Wilmer'
_symmetry_space_group_name_H-M	'P1'
_symmetry_Int_Tables_number	1
_symmetry_cell_setting	triclinic
loop_
_symmetry_equiv_pos_as_xyz
  x,y,z
_cell_length_a	19.188933
_cell_length_b	19.188930
_cell_length_c	18.266242
_cell_angle_alpha	89.988525
_cell_angle_beta	89.992377
_cell_angle_gamma	83.145175
loop_
_atom_site_label
_atom_site_type_symbol
_atom_site_fract_x
_atom_site_fract_y
_atom_site_fract_z
O1	O	0.926148	0.087175	-0.060865
O2	O	0.722837	0.098908	-0.060873
O3	O	0.830360	-0.008614	-0.060854
O4	O	0.818626	0.194697	-0.060883
O5	O	0.830342	-0.008620	0.060908
O6	O	0.722819	0.098902	0.060889
O7	O	0.926130	0.087170	0.060897
Zn8	Zn	0.824472	0.093035	0.080226
Zn9	Zn	0.824496	0.093042	-0.080201
O10	O	0.818608	0.194692	0.060879
C11	C	0.696817	0.098525	0.000008
C12	C	0.619313	0.097384	0.000005
C13	C	0.066067	0.089242	-0.066358
C14	C	0.138892	0.090310	-0.066361
C15	C	0.175299	0.090844	0.000011
C16	C	0.138878	0.090292	0.066391
C17	C	0.066056	0.089217	0.066392
N18	N	0.284311	0.132260	0.049409
N19	N	0.353489	0.133283	0.049403
C20	C	0.394707	0.094082	0.000012
N21	N	0.364134	0.053828	-0.049385
N22	N	0.294949	0.052808	-0.049382
C23	C	0.254262	0.092009	0.000017
C24	C	0.510084	0.095787	-0.066367
C25	C	0.582911	0.096851	-0.066368
C26	C	0.582894	0.096840	0.066386
C27	C	0.510071	0.095769	0.066385
C28	C	0.473669	0.095246	0.000006
C29	C	0.829971	-0.034628	0.000029
C30	C	0.828830	-0.112132	0.000035
C31	C	0.891921	-0.157056	0.000041
C32	C	0.890849	-0.229880	0.000029
C33	C	0.826683	-0.257777	0.000026
C34	C	0.763584	-0.212843	0.000016
C35	C	0.764658	-0.140021	0.000021
N36	N	0.777630	-0.365784	0.041462
N37	N	0.776614	-0.434962	0.041460
C38	C	0.823445	-0.477185	0.000011
N39	N	0.871340	-0.447618	-0.041425
N40	N	0.872358	-0.378433	-0.041419
C41	C	0.825512	-0.336739	0.000021
C42	C	0.885378	-0.601073	0.000004
C43	C	0.884304	-0.673898	-0.000013
C44	C	0.757037	-0.656860	-0.000019
C45	C	0.758113	-0.584037	-0.000010
C46	C	0.822286	-0.556148	0.000005
C47	C	0.952150	0.087553	0.000015
C48	C	1.029655	0.088694	0.000013
C49	C	0.818997	0.220705	-0.000006
C50	C	0.820137	0.298210	-0.000017
N51	N	0.824461	0.093030	0.189713
N52	N	0.824512	0.093042	-0.189688
C53	C	0.872087	0.045442	0.228030
C54	C	0.872092	0.045439	0.304675
C55	C	0.824476	0.093035	0.342999
C56	C	0.776841	0.140626	0.304673
C57	C	0.776833	0.140624	0.228030
N58	N	0.815400	0.154843	0.463323
N59	N	0.815412	0.154843	0.536131
C60	C	0.824496	0.093045	0.573922
N61	N	0.833581	0.031245	0.536154
N62	N	0.833573	0.031245	0.463339
C63	C	0.824479	0.093043	0.426106
C64	C	0.872130	0.045450	0.695346
C65	C	0.872129	0.045446	0.771992
C66	C	0.776882	0.140640	0.771990
C67	C	0.776879	0.140638	0.695345
C68	C	0.824506	0.093044	0.657028
H69	H	0.480445	0.095359	-0.120417
H70	H	0.944175	-0.134354	0.000050
C71	C	0.725093	0.192375	0.186556
C72	C	0.683402	0.234069	0.236519
C73	C	0.635739	0.281758	0.198339
H74	H	0.696041	0.167412	0.156665
H75	H	0.750099	0.221417	0.156662
H76	H	0.658398	0.205031	0.266401
H77	H	0.712435	0.259048	0.266412
H78	H	0.660745	0.310800	0.168446
H79	H	0.606692	0.256788	0.168450
H80	H	0.607451	0.310057	0.232233
H81	H	0.612537	0.097273	0.120428
C82	C	0.725255	0.192426	0.653779
C83	C	0.736380	0.261009	0.672390
C84	C	0.688840	0.308736	0.634109
H85	H	0.678653	0.185054	0.666322
H86	H	0.732071	0.185657	0.602637
H87	H	0.729558	0.267775	0.723521
H88	H	0.782972	0.268403	0.659846
H89	H	0.695656	0.301967	0.582967
H90	H	0.642241	0.301357	0.646655
H91	H	0.696386	0.355274	0.646726
C92	C	0.470652	0.095222	0.138524
C93	C	0.518117	0.095937	0.196651
C94	C	0.481829	0.095440	0.263119
H95	H	0.447688	0.054108	0.141393
H96	H	0.436808	0.135526	0.141317
H97	H	0.551949	0.055637	0.193859
H98	H	0.541082	0.137048	0.193806
H99	H	0.447985	0.135744	0.265912
H100	H	0.458867	0.054325	0.265980
H101	H	0.514028	0.095931	0.302566
C102	C	0.693988	-0.243263	0.000051
C103	C	0.706551	-0.316654	0.000069
C104	C	0.642454	-0.344699	0.000107
H105	H	0.667973	-0.227899	-0.042400
H106	H	0.668006	-0.227877	0.042527
H107	H	0.732523	-0.332034	-0.042403
H108	H	0.732556	-0.332038	0.042518
H109	H	0.616472	-0.329313	0.042584
H110	H	0.616444	-0.329330	-0.042345
H111	H	0.650969	-0.394497	0.000127
C112	C	0.687440	-0.687274	0.000011
C113	C	0.700002	-0.760665	0.000023
C114	C	0.635905	-0.788710	0.000055
H115	H	0.661427	-0.671906	-0.042440
H116	H	0.661457	-0.671891	0.042488
H117	H	0.725975	-0.776042	-0.042450
H118	H	0.726005	-0.776053	0.042470
H119	H	0.609921	-0.773326	0.042532
H120	H	0.609896	-0.773336	-0.042396
H121	H	0.644419	-0.838508	0.000070
H122	H	0.942227	-0.266463	0.000031
H123	H	0.713280	-0.103444	0.000016
H124	H	0.937631	-0.578365	0.000012
C125	C	0.923959	-0.006090	0.653729
C126	C	0.966588	0.031034	0.609760
C127	C	1.014369	-0.016410	0.571435
H128	H	0.899066	-0.035139	0.623762
H129	H	0.952359	-0.034401	0.687530
H130	H	0.938192	0.059333	0.575963
H131	H	0.991497	0.060081	0.639709
H132	H	1.042769	-0.044721	0.605236
H133	H	0.989470	-0.045457	0.541472
H134	H	1.043302	0.008772	0.541602
H135	H	0.935682	-0.710475	-0.000012
H136	H	0.706738	-0.547459	-0.000010
C137	C	0.622390	0.097588	-0.138456
C138	C	0.596655	0.157398	-0.178492
C139	C	0.633014	0.158106	-0.244900
H140	H	0.615928	0.056759	-0.165815
H141	H	0.670977	0.098338	-0.128984
H142	H	0.548081	0.156642	-0.187966
H143	H	0.603118	0.198236	-0.151155
H144	H	0.681600	0.158855	-0.235428
H145	H	0.626549	0.117274	-0.272252
H146	H	0.615562	0.198689	-0.272070
C147	C	0.026679	0.088627	-0.138501
C148	C	0.074164	0.089315	-0.196628
C149	C	0.037905	0.088737	-0.263096
H150	H	-0.007182	0.128901	-0.141372
H151	H	0.003742	0.047484	-0.141294
H152	H	0.097089	0.130455	-0.193837
H153	H	0.108026	0.049045	-0.193781
H154	H	0.014968	0.047593	-0.265889
H155	H	0.004045	0.129011	-0.265960
H156	H	0.070119	0.089197	-0.302543
H157	H	0.036409	0.088774	0.120441
H158	H	0.168544	0.090760	-0.120410
H159	H	0.738070	0.179379	0.335881
C160	C	0.923821	-0.006314	0.186561
C161	C	0.965519	-0.048003	0.236529
C162	C	1.013177	-0.095696	0.198354
H163	H	0.952870	0.018647	0.156644
H164	H	0.898811	-0.035358	0.156695
H165	H	0.990528	-0.018962	0.266383
H166	H	0.936491	-0.072979	0.266448
H167	H	0.988166	-0.124740	0.168487
H168	H	1.042220	-0.070729	0.168438
H169	H	1.041470	-0.123992	0.232251
C170	C	0.923921	-0.006254	0.813465
C171	C	0.965640	-0.047918	0.763500
C172	C	1.013367	-0.095544	0.801678
H173	H	0.898987	-0.035328	0.843379
H174	H	0.952943	0.018780	0.843335
H175	H	0.936623	-0.072949	0.733642
H176	H	0.990591	-0.018863	0.733584
H177	H	1.042388	-0.070511	0.831548
H178	H	0.988426	-0.124613	0.831591
H179	H	1.041683	-0.123815	0.767782
H180	H	0.738109	0.179391	0.803193
H181	H	0.168525	0.090726	0.120432
H182	H	0.910876	0.006686	0.335878
