data_functionalizedCrystal
_audit_creation_method	'MofGen! by Chris Wilmer'
_symmetry_space_group_name_H-M	'P1'
_symmetry_Int_Tables_number	1
_symmetry_cell_setting	triclinic
loop_
_symmetry_equiv_pos_as_xyz
  x,y,z
_cell_length_a	10.723023
_cell_length_b	9.065215
_cell_length_c	8.140239
_cell_angle_alpha	89.997429
_cell_angle_beta	89.997738
_cell_angle_gamma	84.741123
loop_
_atom_site_label
_atom_site_type_symbol
_atom_site_fract_x
_atom_site_fract_y
_atom_site_fract_z
O1	O	1.658025	0.206934	-0.136593
O2	O	2.158025	0.706934	0.363407
O3	O	1.294953	0.226744	-0.136600
O4	O	1.794953	0.726744	0.363400
O5	O	1.483995	0.002154	-0.136589
O6	O	1.983995	0.502154	0.363411
O7	O	1.468982	0.431524	-0.136604
O8	O	1.968982	0.931524	0.363396
O9	O	1.483985	0.002151	0.136638
O10	O	1.983985	0.502151	0.636638
O11	O	1.294942	0.226741	0.136627
O12	O	1.794942	0.726741	0.636627
O13	O	1.658014	0.206932	0.136634
O14	O	2.158014	0.706932	0.636634
Zn15	Zn	1.476476	0.216836	0.180011
Zn16	Zn	1.976476	0.716836	0.680011
Zn17	Zn	1.476490	0.216840	-0.179977
Zn18	Zn	1.976490	0.716840	0.320023
O19	O	1.468972	0.431522	0.136624
O20	O	1.968972	0.931522	0.636624
C21	C	1.248442	0.225301	0.000013
C22	C	1.748442	0.725301	0.500013
C23	C	1.109870	0.220989	0.000011
C24	C	1.609870	0.720989	0.500011
C25	C	1.048085	0.219065	0.141549
C26	C	1.548085	0.719065	0.641549
C27	C	0.904864	0.214608	0.141550
C28	C	1.404864	0.714608	0.641550
C29	C	1.482548	-0.052826	0.000023
C30	C	1.982548	0.447174	0.500023
C31	C	1.478236	-0.216645	0.000017
C32	C	1.978236	0.283355	0.500017
C33	C	1.704525	0.208374	0.000018
C34	C	2.204525	0.708374	0.500018
C35	C	1.843097	0.212687	0.000009
C36	C	2.343097	0.712687	0.500009
C37	C	1.470419	0.486502	0.000008
C38	C	1.970419	0.986502	0.500008
C39	C	1.474731	0.650320	0.000002
C40	C	1.974731	1.150320	0.500002
N41	N	1.476476	0.216833	0.425694
N42	N	1.976476	0.716833	0.925694
N43	N	1.476501	0.216831	-0.425660
N44	N	1.976501	0.716831	0.074340
H45	H	0.896222	0.214350	-0.121173
H46	H	1.396222	0.714350	0.378827
H47	H	1.101220	0.220709	0.262725
H48	H	1.601220	0.720709	0.762725
H49	H	1.056736	0.219332	-0.121165
H50	H	1.556736	0.719332	0.378835
H51	H	0.851729	0.212961	0.262726
H52	H	1.351729	0.712961	0.762726
