data_functionalizedCrystal
_audit_creation_method	'MofGen! by Chris Wilmer'
_symmetry_space_group_name_H-M	'P1'
_symmetry_Int_Tables_number	1
_symmetry_cell_setting	triclinic
loop_
_symmetry_equiv_pos_as_xyz
  x,y,z
_cell_length_a	29.917948
_cell_length_b	29.917021
_cell_length_c	29.913391
_cell_angle_alpha	60.005297
_cell_angle_beta	60.010472
_cell_angle_gamma	59.993667
loop_
_atom_site_label
_atom_site_type_symbol
_atom_site_fract_x
_atom_site_fract_y
_atom_site_fract_z
O1	O	0.061938	-0.653075	0.546110
O2	O	0.023328	-0.508466	0.440017
O3	O	0.114898	-0.599963	0.439941
O4	O	-0.029633	-0.561578	0.546186
O5	O	0.145278	-0.569587	0.470242
O6	O	0.053708	-0.478090	0.470318
O7	O	0.092318	-0.622699	0.576411
Zn8	Zn	0.077836	-0.545572	0.528175
Zn9	Zn	0.037809	-0.585593	0.488253
O10	O	0.000747	-0.531202	0.576487
N11	N	0.105154	-0.518262	0.555424
N12	N	0.010496	-0.612908	0.461004
C13	C	0.164136	-0.309209	0.614352
C14	C	0.164251	-0.459335	0.764424
C15	C	0.164150	-0.459313	0.614341
C16	C	0.314282	-0.459305	0.614278
C17	C	0.180666	-0.358742	0.630849
C18	C	0.180732	-0.442815	0.714891
C19	C	0.264747	-0.442797	0.630809
C20	C	0.180676	-0.442802	0.630843
C21	C	0.143097	-0.246161	0.593354
C22	C	0.143120	-0.480326	0.593337
C23	C	0.201706	-0.421790	0.651848
C24	C	0.405963	-0.443499	0.565998
C25	C	0.463273	-0.462598	0.546874
C26	C	0.463297	-0.555329	0.582235
C27	C	0.405988	-0.536228	0.601360
C28	C	0.156905	-0.217495	0.537012
C29	C	0.137776	-0.160180	0.517926
C30	C	0.091035	-0.160201	0.611524
C31	C	0.110164	-0.217516	0.630611
C32	C	0.086772	-0.466488	0.607209
C33	C	0.067659	-0.485590	0.588108
C34	C	0.161236	-0.532368	0.541277
C35	C	0.180352	-0.513266	0.560371
C36	C	0.086942	-0.466529	0.856152
C37	C	0.067877	-0.485647	0.913465
C38	C	0.161489	-0.532436	0.913415
C39	C	0.180552	-0.513318	0.856101
C40	C	0.143277	-0.480363	0.827471
C41	C	0.377323	-0.480313	0.593239
C42	C	-0.111377	-0.650681	0.422736
C43	C	-0.027364	-0.650787	0.422929
C44	C	-0.048335	-0.671770	0.401835
C45	C	-0.064214	-0.763416	0.450041
C46	C	-0.045160	-0.820731	0.469172
C47	C	0.047573	-0.820841	0.433980
C48	C	0.028517	-0.763527	0.414847
C49	C	-0.140115	-0.664483	0.479060
C50	C	-0.197425	-0.645309	0.498058
C51	C	-0.197256	-0.598535	0.404405
C52	C	-0.139946	-0.617709	0.385407
C53	C	-0.041168	-0.594444	0.409067
C54	C	-0.022104	-0.575374	0.428250
C55	C	0.024568	-0.668986	0.475143
C56	C	0.005504	-0.688059	0.455967
C57	C	-0.041000	-0.594453	0.310105
C58	C	-0.021803	-0.575386	0.252792
C59	C	0.024951	-0.669004	0.252854
C60	C	0.005755	-0.688070	0.310168
C61	C	-0.027222	-0.650793	0.338792
C62	C	-0.027377	-0.734817	0.422881
N63	N	0.491125	-0.518235	0.555255
O64	O	0.678406	-0.527360	0.420422
O65	O	0.678588	-0.633782	0.564887
O66	O	0.678516	-0.633539	0.473265
O67	O	0.678478	-0.527602	0.512044
O68	O	0.587469	-0.603251	0.503685
O69	O	0.587541	-0.603493	0.595307
O70	O	0.587359	-0.497071	0.450842
Zn71	Zn	0.572994	-0.545473	0.527905
Zn72	Zn	0.692953	-0.585380	0.487825
O73	O	0.587431	-0.497313	0.542465
N74	N	0.774821	-0.612618	0.460470
N75	N	0.105125	-0.132348	0.555445
O76	O	-0.029633	0.055031	0.546198
O77	O	0.114837	0.055047	0.439777
O78	O	0.023189	0.055024	0.440050
O79	O	0.062016	0.055054	0.545925
O80	O	0.053572	-0.036031	0.470398
O81	O	0.145220	-0.036008	0.470125
O82	O	0.000750	-0.036024	0.576546
Zn83	Zn	0.077809	-0.050473	0.528154
Zn84	Zn	0.037778	0.069496	0.488169
O85	O	0.092399	-0.036001	0.576273
N86	N	0.010456	0.151371	0.460879
N87	N	0.105414	-0.518315	0.941279
O88	O	0.096182	-0.653057	1.128644
O89	O	-0.010215	-0.508539	1.128670
O90	O	-0.009968	-0.600172	1.128636
O91	O	0.095935	-0.561424	1.128678
O92	O	0.020367	-0.569808	1.037586
O93	O	0.020121	-0.478175	1.037620
O94	O	0.126517	-0.622693	1.037594
Zn95	Zn	0.078135	-0.545613	1.023151
Zn96	Zn	0.038167	-0.585619	1.143113
O97	O	0.126270	-0.531061	1.037628
N98	N	0.010887	-0.612923	1.224985
C99	C	0.034899	-0.475056	0.440551
C100	C	0.148298	-0.588365	0.440456
C101	C	0.080746	-0.656109	0.575876
C102	C	-0.032653	-0.542801	0.575971
C103	C	0.633086	-0.633292	0.598298
C104	C	0.632998	-0.632993	0.484834
C105	C	0.632857	-0.497559	0.417433
C106	C	0.632949	-0.497860	0.530895
C107	C	0.148191	0.009634	0.440259
C108	C	0.034733	0.009493	0.440634
C109	C	-0.032641	0.009502	0.576027
C110	C	0.080854	0.009529	0.575690
C111	C	-0.009699	-0.475150	1.083148
C112	C	-0.009388	-0.588620	1.083088
C113	C	0.126001	-0.656082	1.083116
C114	C	0.125697	-0.542605	1.083155
H115	H	0.056584	-0.439691	0.832846
N116	N	0.203285	-0.599201	0.396264
H117	H	0.220748	-0.572309	0.385644
H118	H	0.198181	-0.594840	0.363209
H119	H	0.632941	-0.464583	0.539193
N120	N	0.091669	-0.711132	0.620016
H121	H	0.100891	-0.740733	0.606639
H122	H	0.058007	-0.711264	0.653863
N123	N	0.633158	-0.677555	0.653252
H124	H	0.599425	-0.688172	0.670700
H125	H	0.633188	-0.663486	0.677686
N126	N	0.170248	-0.711061	1.083112
H127	H	0.204045	-0.711146	1.083121
H128	H	0.179373	-0.718150	1.049351
H129	H	-0.043102	-0.433644	1.083156
N130	N	0.023973	-0.420032	0.396414
H131	H	0.028315	-0.425056	0.363321
H132	H	0.050844	-0.402564	0.385832
N133	N	0.633015	-0.677080	0.473851
H134	H	0.666792	-0.710179	0.478158
H135	H	0.632954	-0.662830	0.435323
H136	H	-0.074166	-0.534620	0.609333
N137	N	-0.076614	-0.554245	0.373432
H138	H	-0.082466	-0.515658	0.367565
H139	H	-0.113132	-0.560083	0.391972
H140	H	0.189596	0.009891	0.406765
H141	H	0.632798	-0.464146	0.375944
N142	N	0.023755	0.009401	0.396599
H143	H	-0.014771	0.009366	0.410819
H144	H	0.050652	-0.024382	0.386058
N145	N	-0.087596	0.009493	0.620287
H146	H	-0.112081	0.009483	0.606264
H147	H	-0.104981	0.043250	0.630859
H148	H	0.089168	0.009538	0.608950
H149	H	-0.042644	-0.596897	1.083039
N150	N	0.169769	-0.531632	1.083169
H151	H	0.155568	-0.493093	1.083179
H152	H	0.202863	-0.535999	1.049414
H153	H	0.022003	-0.474373	0.936811
H154	H	0.191844	-0.559260	0.936723
H155	H	-0.067855	-0.564093	0.333408
H156	H	0.056452	-0.439666	0.634048
N157	N	0.241316	-0.528236	0.825163
H158	H	0.258467	-0.569349	0.835123
H159	H	0.258411	-0.514194	0.835140
N160	N	0.006884	-0.470671	0.603066
H161	H	-0.013804	-0.446910	0.626853
H162	H	-0.003057	-0.505147	0.623713
H163	H	0.226235	-0.524529	0.549071
N164	N	0.201397	-0.567905	0.505728
H165	H	0.239992	-0.573547	0.499617
H166	H	0.195305	-0.549413	0.469330
N167	N	0.375097	-0.575935	0.630744
H168	H	0.385098	-0.603851	0.664602
H169	H	0.385070	-0.595169	0.605646
N170	N	0.494216	-0.615637	0.590991
H171	H	0.467376	-0.636062	0.611152
H172	H	0.518012	-0.629898	0.613286
H173	H	0.382624	-0.397967	0.559385
N174	N	0.494164	-0.422889	0.517494
H175	H	0.484166	-0.394975	0.483633
H176	H	0.534810	-0.443515	0.506647
N177	N	0.192427	-0.248385	0.496824
H178	H	0.171751	-0.238411	0.473056
H179	H	0.202446	-0.289034	0.517502
N180	N	0.152663	-0.129251	0.457156
H181	H	0.138647	-0.139224	0.440029
H182	H	0.193773	-0.139226	0.440049
N183	N	0.055525	-0.129307	0.651712
H184	H	0.021076	-0.139291	0.675512
H185	H	0.045542	-0.088658	0.631034
N186	N	0.095275	-0.248435	0.691379
H187	H	0.054166	-0.238469	0.708529
H188	H	0.109326	-0.238449	0.708460
N189	N	-0.036667	-0.514615	0.221855
H190	H	-0.060470	-0.493897	0.248688
H191	H	-0.057265	-0.504632	0.198012
H192	H	0.051792	-0.699362	0.229554
H193	H	0.016979	-0.733950	0.333522
H194	H	0.051334	-0.699339	0.502037
H195	H	-0.033345	-0.529494	0.416965
H196	H	0.016742	-0.733938	0.467255
H197	H	0.058518	-0.740243	0.392731
H198	H	0.093086	-0.844219	0.427442
H199	H	-0.109727	-0.740044	0.456586
N200	N	-0.084888	-0.851581	0.498457
H201	H	-0.123189	-0.824695	0.500642
H202	H	-0.083367	-0.875357	0.536643
H203	H	-0.116855	-0.691337	0.509456
H204	H	-0.220518	-0.571693	0.374008
N205	N	-0.228430	-0.660190	0.558810
H206	H	-0.218492	-0.646202	0.575994
H207	H	-0.218489	-0.701301	0.575915
N208	N	-0.108945	-0.602820	0.324654
H209	H	-0.135740	-0.579022	0.303890
H210	H	-0.085168	-0.637304	0.314713
