data_functionalizedCrystal
_audit_creation_method	'MofGen! by Chris Wilmer'
_symmetry_space_group_name_H-M	'P1'
_symmetry_Int_Tables_number	1
_symmetry_cell_setting	triclinic
loop_
_symmetry_equiv_pos_as_xyz
  x,y,z
_cell_length_a	33.592126
_cell_length_b	33.591377
_cell_length_c	33.588093
_cell_angle_alpha	60.004089
_cell_angle_beta	60.008299
_cell_angle_gamma	59.994549
loop_
_atom_site_label
_atom_site_type_symbol
_atom_site_fract_x
_atom_site_fract_y
_atom_site_fract_z
O1	O	0.055297	-0.581666	0.486338
O2	O	0.020882	-0.452873	0.391864
O3	O	0.102445	-0.534352	0.391775
O4	O	-0.026266	-0.500187	0.486427
O5	O	0.129510	-0.507292	0.418747
O6	O	0.047947	-0.425814	0.418835
O7	O	0.082362	-0.554606	0.513309
Cu8	Cu	0.067626	-0.487739	0.468535
Cu9	Cu	0.035618	-0.519740	0.436638
O10	O	0.000799	-0.473128	0.513398
N11	N	0.090139	-0.465235	0.490972
N12	N	0.013110	-0.542249	0.414202
C13	C	0.124394	-0.431229	0.734914
C14	C	0.334265	-0.431145	0.524799
C15	C	0.124204	-0.431200	0.524965
C16	C	0.124184	-0.221175	0.524955
C17	C	0.158017	-0.322536	0.558710
C18	C	0.158027	-0.397406	0.558711
C19	C	0.176763	-0.378688	0.577408
C20	C	0.258412	-0.364594	0.534386
C21	C	0.309454	-0.381596	0.517340
C22	C	0.309485	-0.464188	0.548836
C23	C	0.258444	-0.447186	0.565883
C24	C	0.170304	-0.297002	0.508532
C25	C	0.153260	-0.245956	0.491537
C26	C	0.111648	-0.245983	0.574901
C27	C	0.128691	-0.297029	0.591896
C28	C	0.107841	-0.385091	0.571080
C29	C	0.090813	-0.402108	0.554078
C30	C	0.174153	-0.443755	0.512351
C31	C	0.191183	-0.426739	0.529347
C32	C	0.107923	-0.385106	0.659111
C33	C	0.090955	-0.402138	0.710156
C34	C	0.174335	-0.443795	0.710087
C35	C	0.191302	-0.426764	0.659041
C36	C	0.158095	-0.397418	0.633555
C37	C	0.232909	-0.397388	0.558656
C38	C	0.105069	-0.449619	0.791057
C39	C	0.390406	-0.449193	0.505789
C40	C	0.104813	-0.449599	0.506607
C41	C	0.105125	-0.165028	0.506915
C42	C	-0.020560	-0.576246	0.169890
C43	C	-0.020889	-0.786183	0.379970
C44	C	-0.020859	-0.576235	0.380063
C45	C	-0.230772	-0.576015	0.379658
C46	C	-0.129417	-0.609898	0.346025
C47	C	-0.054587	-0.609979	0.346172
C48	C	-0.073269	-0.628671	0.327396
C49	C	-0.087401	-0.710299	0.370335
C50	C	-0.070424	-0.761345	0.387369
C51	C	0.012165	-0.761428	0.356003
C52	C	-0.004813	-0.710383	0.338967
C53	C	-0.155001	-0.622196	0.396191
C54	C	-0.206043	-0.605128	0.413125
C55	C	-0.205914	-0.563467	0.329724
C56	C	-0.154872	-0.580535	0.312790
C57	C	-0.066886	-0.559797	0.333828
C58	C	-0.049903	-0.542809	0.350903
C59	C	-0.008321	-0.626180	0.392654
C60	C	-0.025304	-0.643170	0.375585
C61	C	-0.066758	-0.559805	0.245702
C62	C	-0.049671	-0.542819	0.194658
C63	C	-0.008026	-0.626194	0.194706
C64	C	-0.025111	-0.643179	0.245752
C65	C	-0.054479	-0.609983	0.271248
C66	C	-0.054597	-0.684821	0.346135
C67	C	-0.002109	-0.556901	0.113746
C68	C	-0.002869	-0.842328	0.398966
C69	C	-0.002496	-0.556887	0.398501
C70	C	-0.286914	-0.556929	0.397631
N71	N	0.436349	-0.465146	0.490703
O72	O	0.592194	-0.469605	0.374236
O73	O	0.592389	-0.564393	0.502890
O74	O	0.592305	-0.564176	0.421300
O75	O	0.592277	-0.469822	0.455826
O76	O	0.511216	-0.537214	0.448415
O77	O	0.511300	-0.537431	0.530004
O78	O	0.511104	-0.442643	0.401350
Cu79	Cu	0.503798	-0.487575	0.468153
Cu80	Cu	0.599695	-0.519461	0.436087
O81	O	0.511188	-0.442860	0.482940
N82	N	0.667145	-0.541890	0.413532
N83	N	0.090108	-0.119085	0.490958
O84	O	-0.026275	0.036848	0.486394
O85	O	0.102381	0.036888	0.391584
O86	O	0.020751	0.036852	0.391854
O87	O	0.055356	0.036884	0.486124
O88	O	0.047821	-0.044242	0.418876
O89	O	0.129452	-0.044207	0.418606
O90	O	0.000796	-0.044246	0.513417
Cu91	Cu	0.067596	-0.051631	0.468479
Cu92	Cu	0.035582	0.044273	0.436522
O93	O	0.082426	-0.044211	0.513146
N94	N	0.013063	0.111726	0.414043
N95	N	0.090453	-0.465282	0.837001
O96	O	0.085913	-0.581648	0.992925
O97	O	-0.008857	-0.452947	0.992970
O98	O	-0.008635	-0.534562	0.992946
O99	O	0.085691	-0.500033	0.992949
O100	O	0.018365	-0.507512	0.911855
O101	O	0.018143	-0.425898	0.911878
O102	O	0.112912	-0.554598	0.911834
Cu103	Cu	0.067993	-0.487778	0.904452
Cu104	Cu	0.036063	-0.519767	1.000352
O105	O	0.112691	-0.472984	0.911857
N106	N	0.013602	-0.542269	1.067803
C107	C	0.031188	-0.423114	0.392334
C108	C	0.132194	-0.524016	0.392223
C109	C	0.072056	-0.584366	0.512840
C110	C	-0.028950	-0.483464	0.512950
C111	C	0.551868	-0.563965	0.532655
C112	C	0.551766	-0.563697	0.431617
C113	C	0.551623	-0.443070	0.371586
C114	C	0.551728	-0.443339	0.472623
C115	C	0.132090	-0.003555	0.392006
C116	C	0.031035	-0.003698	0.392374
C117	C	-0.028947	-0.003703	0.512961
C118	C	0.072143	-0.003661	0.512626
C119	C	-0.008408	-0.423209	0.952430
C120	C	-0.008128	-0.524272	0.952385
C121	C	0.112464	-0.584336	0.952374
C122	C	0.112190	-0.483267	0.952401
H123	H	0.080878	-0.361206	0.638363
H124	H	0.551779	-0.593338	0.424228
O125	O	-0.073062	-0.003623	0.548427
C126	C	-0.109839	0.038363	0.531767
H127	H	-0.093239	0.067721	0.501392
H128	H	-0.138928	0.052464	0.563201
H129	H	-0.127091	0.028857	0.517236
H130	H	0.079411	-0.621363	0.542512
O131	O	0.022128	-0.003743	0.357105
C132	C	-0.025801	-0.003756	0.374888
H133	H	-0.038606	-0.019096	0.416419
H134	H	-0.026507	-0.027322	0.360068
H135	H	-0.051044	0.035141	0.362555
H136	H	0.551560	-0.413310	0.334638
H137	H	0.142219	-0.621297	0.952354
O138	O	0.147605	-0.474490	0.952328
C139	C	0.188700	-0.479888	0.910314
H140	H	0.188313	-0.504344	0.896308
H141	H	0.223315	-0.497090	0.919747
H142	H	0.187704	-0.442597	0.880913
O143	O	-0.043845	-0.379073	0.952380
C144	C	-0.027195	-0.342311	0.910382
H145	H	0.014364	-0.355721	0.896371
H146	H	-0.041451	-0.308292	0.919838
H147	H	-0.041035	-0.333193	0.880976
O148	O	0.022366	-0.379000	0.356918
C149	C	-0.017126	-0.370301	0.345722
H150	H	-0.020999	-0.406522	0.356482
H151	H	-0.010238	-0.350522	0.304917
H152	H	-0.052076	-0.346826	0.366713
H153	H	0.050098	-0.392105	0.730957
H154	H	0.551722	-0.413701	0.480010
H155	H	0.201378	-0.467681	0.730833
H156	H	0.551918	-0.593721	0.569607
H157	H	0.168963	-0.003318	0.362168
O158	O	0.176328	-0.532771	0.356823
C159	C	0.206631	-0.580683	0.374435
H160	H	0.193409	-0.593598	0.415966
H161	H	0.245700	-0.581294	0.359493
H162	H	0.205288	-0.605899	0.362088
H163	H	0.079554	-0.003651	0.542242
H164	H	-0.037749	-0.531650	0.952352
H165	H	0.080840	-0.361208	0.594989
O166	O	0.240054	-0.438812	0.634271
C167	C	0.261270	-0.489938	0.646715
H168	H	0.237097	-0.507813	0.683786
H169	H	0.298827	-0.501862	0.648431
H170	H	0.265043	-0.501480	0.617993
O171	O	0.042047	-0.390123	0.566157
C172	C	0.016432	-0.360578	0.595713
H173	H	0.040801	-0.367087	0.614243
H174	H	-0.017608	-0.370166	0.624614
H175	H	0.005390	-0.320592	0.572184
H176	H	0.201155	-0.467643	0.488446
O177	O	-0.073029	-0.474732	0.548424
C178	C	-0.081753	-0.435264	0.559672
H179	H	-0.045549	-0.431339	0.548876
H180	H	-0.101472	-0.442225	0.600492
H181	H	-0.105292	-0.400313	0.538747
O182	O	0.239943	-0.438665	0.517245
C183	C	0.261087	-0.421170	0.466116
H184	H	0.236867	-0.416184	0.448280
H185	H	0.298642	-0.448503	0.454151
H186	H	0.264849	-0.384679	0.454575
O187	O	0.233691	-0.479051	0.589379
C188	C	0.246150	-0.502958	0.558145
H189	H	0.260148	-0.479710	0.518629
H190	H	0.212579	-0.508704	0.564196
H191	H	0.275795	-0.539792	0.566354
O192	O	0.334317	-0.512546	0.555764
C193	C	0.363820	-0.519472	0.510195
H194	H	0.348404	-0.487156	0.480780
H195	H	0.364406	-0.554385	0.511625
H196	H	0.402505	-0.522475	0.501330
H197	H	0.330218	-0.354891	0.497577
H198	H	0.237625	-0.324046	0.528499
O199	O	0.020149	-0.658357	0.421208
C200	C	0.032494	-0.632604	0.433643
H201	H	0.029492	-0.594471	0.405515
H202	H	0.071470	-0.652791	0.434261
H203	H	0.006503	-0.629726	0.471206
H204	H	0.194180	-0.317769	0.481510
H205	H	0.163263	-0.225165	0.450676
H206	H	0.087777	-0.225214	0.601924
H207	H	-0.059677	-0.501957	0.173865
O208	O	0.116730	-0.321761	0.640658
C209	C	0.087179	-0.288301	0.666303
H210	H	0.093668	-0.251906	0.641960
H211	H	0.096778	-0.303055	0.700352
H212	H	0.047199	-0.282887	0.677335
O213	O	-0.095254	-0.527490	0.270394
C214	C	-0.102437	-0.479558	0.236901
H215	H	-0.071630	-0.479686	0.200544
H216	H	-0.102710	-0.455334	0.251666
H217	H	-0.138777	-0.464894	0.231411
H218	H	0.015877	-0.653227	0.173952
H219	H	-0.090726	-0.532768	0.309877
O220	O	-0.013241	-0.691929	0.270545
C221	C	-0.030665	-0.713103	0.258010
H222	H	-0.062108	-0.684016	0.243916
H223	H	-0.043963	-0.743170	0.291566
H224	H	-0.000017	-0.729246	0.228412
O225	O	-0.061863	-0.494047	0.338840
C226	C	-0.091353	-0.468393	0.309221
H227	H	-0.084827	-0.492744	0.290662
H228	H	-0.081726	-0.434363	0.280343
H229	H	-0.131350	-0.457328	0.332704
H230	H	0.021903	-0.689639	0.319262
O231	O	-0.013294	-0.691932	0.387599
C232	C	0.016184	-0.717586	0.417230
H233	H	0.034743	-0.693270	0.410762
H234	H	0.045060	-0.751670	0.407695
H235	H	-0.007414	-0.728564	0.457191
H236	H	0.052703	-0.782242	0.350169
H237	H	-0.127938	-0.689491	0.376175
O238	O	-0.102367	-0.786021	0.410943
C239	C	-0.149951	-0.752513	0.413637
H240	H	-0.151902	-0.716120	0.410238
H241	H	-0.176941	-0.767206	0.450128
H242	H	-0.159487	-0.747116	0.382726
H243	H	-0.134277	-0.646110	0.423254
H244	H	-0.226640	-0.539563	0.302661
O245	O	-0.230879	-0.617158	0.461863
C246	C	-0.218442	-0.668281	0.483076
H247	H	-0.204372	-0.684743	0.454006
H248	H	-0.252042	-0.678015	0.513118
H249	H	-0.188858	-0.683427	0.499257
O250	O	-0.130091	-0.568565	0.264040
C251	C	-0.163504	-0.538978	0.238338
H252	H	-0.199911	-0.545448	0.262628
H253	H	-0.148714	-0.548560	0.204272
H254	H	-0.168903	-0.499004	0.227329
