data_functionalizedCrystal
_audit_creation_method	'MofGen! by Chris Wilmer'
_symmetry_space_group_name_H-M	'P1'
_symmetry_Int_Tables_number	1
_symmetry_cell_setting	triclinic
loop_
_symmetry_equiv_pos_as_xyz
  x,y,z
_cell_length_a	15.698487
_cell_length_b	20.875641
_cell_length_c	20.875621
_cell_angle_alpha	87.033363
_cell_angle_beta	58.314823
_cell_angle_gamma	57.591697
loop_
_atom_site_label
_atom_site_type_symbol
_atom_site_fract_x
_atom_site_fract_y
_atom_site_fract_z
Zr1	Zr	0.944138	-0.120429	0.613515
O2	O	1.131653	-0.221031	0.507400
O3	O	0.763422	-0.089591	0.646045
O4	O	0.954645	-0.228231	0.640955
O5	O	0.929772	0.026973	0.516504
O6	O	0.955199	-0.233908	0.746306
O7	O	0.940430	-0.082391	0.512489
O8	O	0.613136	0.014093	0.755411
O9	O	1.271834	-0.221028	0.507400
O10	O	0.835648	-0.080674	0.738541
O11	O	0.827281	0.005180	0.662915
O12	O	1.052421	-0.158050	0.656922
O13	O	1.044053	-0.072196	0.581296
Zr14	Zr	0.928022	0.044939	0.787941
Zr15	Zr	0.945021	-0.129484	0.781537
Zr16	Zr	0.927139	0.053994	0.619918
Zr17	Zr	1.167711	-0.120425	0.613515
Zr18	Zr	0.704449	0.044935	0.787941
O19	O	1.108738	0.014102	0.755411
O20	O	1.132909	-0.233905	0.746306
O21	O	1.107482	0.026976	0.516504
O22	O	0.740507	0.145541	0.894056
O23	O	0.764678	-0.102466	0.884951
O24	O	0.739251	0.158415	0.655150
O25	O	0.942389	-0.102463	0.884951
O26	O	0.917515	0.152741	0.760500
O27	O	0.916961	0.158418	0.655150
O28	O	0.931730	0.006901	0.888966
O29	O	1.272536	-0.228225	0.640955
O30	O	0.599624	0.152736	0.760501
O31	O	0.600326	0.145538	0.894056
O32	O	0.613838	0.006896	0.888966
O33	O	1.258322	-0.082385	0.512489
O34	O	1.259024	-0.089583	0.646045
O35	O	0.819739	0.082560	0.744533
O36	O	0.828107	-0.003294	0.820159
O37	O	1.044880	-0.080670	0.738541
O38	O	1.036512	0.005184	0.662915
C39	C	0.656425	-0.037750	0.700728
C40	C	0.561512	-0.037752	0.700728
C41	C	0.934975	-0.026419	0.490557
C42	C	0.934600	-0.022575	0.419227
C43	C	0.914816	0.180431	0.708737
C44	C	0.907600	0.254478	0.711456
C45	C	0.387728	-0.037737	0.700726
C46	C	0.484434	-0.037743	0.700726
C47	C	1.215735	-0.037740	0.700728
C48	C	1.310648	-0.037738	0.700728
C49	C	0.957344	-0.255921	0.692718
C50	C	0.964561	-0.329968	0.690000
C51	C	1.017359	0.248878	0.670130
C52	C	1.010571	0.318456	0.672681
C53	C	0.894022	0.393633	0.716562
C54	C	0.784254	0.399232	0.757889
C55	C	0.791044	0.329655	0.755333
C56	C	0.861582	0.606053	0.728771
C57	C	0.854801	0.675632	0.731325
C58	C	1.081119	0.594851	0.646116
C59	C	1.087898	0.525277	0.643568
C60	C	0.978130	0.530881	0.684891
N61	N	0.887080	0.464754	0.719173
N62	N	0.985073	0.459761	0.682275
C63	C	0.940300	-0.081020	0.383504
C64	C	0.939941	-0.077405	0.316484
C65	C	0.933891	-0.015346	0.285186
C66	C	0.928188	0.043104	0.320915
C67	C	0.928538	0.039491	0.387937
C68	C	0.932206	0.001923	0.084980
C69	C	0.931861	0.005530	0.017952
C70	C	0.943611	-0.114978	0.013526
C71	C	0.943968	-0.118589	0.080547
C72	C	0.938258	-0.060135	0.116273
N73	N	0.933528	-0.011651	0.216680
N74	N	0.938612	-0.063829	0.184781
C75	C	0.937185	-0.049071	0.910898
C76	C	0.937560	-0.052915	0.982228
C77	C	0.657530	-0.049076	0.910899
C78	C	0.562992	-0.052921	0.982229
C79	C	0.635161	0.180426	0.708737
C80	C	0.533032	0.254472	0.711456
C81	C	0.636266	0.169100	0.918908
C82	C	0.534512	0.239302	0.992956
C83	C	1.235894	-0.244590	0.482548
C84	C	1.337648	-0.314792	0.408499
C85	C	1.214630	-0.026414	0.490557
C86	C	1.309168	-0.022568	0.419227
C87	C	1.236999	-0.255916	0.692718
C88	C	1.339128	-0.329962	0.690000
C89	C	0.522534	-0.095126	0.973122
C90	C	0.433720	-0.098756	1.040137
C91	C	0.385359	-0.060175	1.116258
C92	C	0.425827	-0.017968	1.125364
C93	C	0.514646	-0.014344	1.058349
C94	C	0.481134	0.329643	0.755337
C95	C	0.385185	0.399223	0.757888
C96	C	0.341129	0.393630	0.716563
C97	C	0.393037	0.318451	0.672677
C98	C	0.488990	0.248873	0.670121
C99	C	0.491095	0.227454	1.067213
C100	C	0.395499	0.293409	1.136796
C101	C	0.343316	0.371211	1.132120
C102	C	0.386742	0.383057	1.057855
C103	C	0.482342	0.317103	0.988274
C104	C	1.381076	-0.302944	0.334242
C105	C	1.476699	-0.368899	0.264660
C106	C	1.528887	-0.446700	0.269336
C107	C	1.485456	-0.458547	0.343601
C108	C	1.389840	-0.392593	0.413182
C109	C	1.349637	0.019629	0.428334
C110	C	1.438477	0.023239	0.361318
C111	C	1.486841	-0.015344	0.285196
C112	C	1.446369	-0.057547	0.276091
C113	C	1.357537	-0.061161	0.343106
C114	C	1.383153	-0.324343	0.731334
C115	C	1.479102	-0.393910	0.728796
C116	C	1.531030	-0.469096	0.684918
C117	C	1.486996	-0.474713	0.643582
C118	C	1.391043	-0.405146	0.646126
H119	H	1.112266	0.187669	0.634401
H120	H	0.944580	-0.124995	0.287399
H121	H	0.948258	-0.162568	-0.015567
O122	O	1.621913	-0.510791	0.201765
C123	C	1.729629	-0.557429	0.200169
H124	H	1.725749	-0.518637	0.239572
H125	H	1.816328	-0.582234	0.136612
H126	H	1.733915	-0.609128	0.223033
H127	H	1.340887	-0.263129	0.767064
O128	O	1.117313	0.312871	0.632524
C129	C	1.221637	0.231599	0.593235
H130	H	1.193403	0.192760	0.624063
H131	H	1.298974	0.221792	0.595093
H132	H	1.256893	0.214528	0.528780
O133	O	0.334978	0.472205	0.800469
C134	C	0.429123	0.482746	0.770616
H135	H	0.524275	0.421733	0.738256
H136	H	0.412376	0.516633	0.821913
H137	H	0.426846	0.518394	0.727540
O138	O	0.247869	0.461301	0.719165
C139	C	0.211538	0.528845	0.766745
H140	H	0.237908	0.510523	0.809549
H141	H	0.106132	0.576185	0.801965
H142	H	0.261194	0.554447	0.727199
O143	O	1.477940	0.064185	0.370031
C144	C	1.566695	0.059124	0.294566
H145	H	1.611106	0.003971	0.248021
H146	H	1.642172	0.054225	0.295148
H147	H	1.518578	0.115085	0.279507
H148	H	1.559173	-0.012395	0.230635
H149	H	0.533569	0.164109	1.071036
O150	O	1.201013	0.452186	0.601010
C151	C	1.183468	0.391978	0.607604
H152	H	1.087247	0.416104	0.664025
H153	H	1.258469	0.338081	0.610345
H154	H	1.190502	0.373062	0.553775
H155	H	0.516993	0.334213	0.788989
H156	H	1.310264	0.051054	0.490310
H157	H	0.561909	-0.126554	0.911145
H158	H	1.529291	-0.535938	0.607857
O159	O	0.350221	0.313136	0.632497
C160	C	0.368047	0.353924	0.576272
H161	H	0.374666	0.400389	0.595244
H162	H	0.285765	0.385108	0.572468
H163	H	0.458119	0.309260	0.515638
H164	H	0.759888	0.736846	0.767058
O165	O	1.518878	-0.357279	0.192572
C166	C	1.566229	-0.313894	0.185563
H167	H	1.522516	-0.278755	0.247309
H168	H	1.542431	-0.270628	0.151844
H169	H	1.672027	-0.357215	0.151870
H170	H	1.170485	0.590298	0.612472
H171	H	1.355209	-0.409732	0.612463
O172	O	0.539562	0.175790	0.627513
C173	C	0.633676	0.115567	0.634130
H174	H	0.670149	0.141845	0.650228
H175	H	0.713609	0.064993	0.575038
H176	H	0.593375	0.091167	0.682473
O177	O	1.347758	-0.404250	0.485249
C178	C	1.414351	-0.487065	0.474445
H179	H	1.454410	-0.520932	0.413267
H180	H	1.348662	-0.499369	0.522142
H181	H	1.493825	-0.507858	0.479191
O182	O	0.554098	0.026607	1.067060
C183	C	0.642830	0.021564	0.991596
H184	H	0.687246	-0.033587	0.945045
H185	H	0.718308	0.016671	0.992172
H186	H	0.594691	0.077529	0.976550
H187	H	1.514943	-0.389321	0.762455
O188	O	0.754841	0.611637	0.768989
C189	C	0.650514	0.692909	0.808256
H190	H	0.678952	0.729581	0.817747
H191	H	0.573499	0.699385	0.868228
H192	H	0.614727	0.715480	0.770549
H193	H	0.689357	0.460448	0.793614
O194	O	0.353428	0.281749	1.208866
C195	C	0.420002	0.198935	1.198063
H196	H	0.460039	0.165071	1.136891
H197	H	0.354306	0.186640	1.245768
H198	H	0.499492	0.178128	1.202797
H199	H	0.265473	0.424908	1.188783
O200	O	1.318314	-0.102151	0.334114
C201	C	1.380077	-0.135440	0.252554
H202	H	1.413389	-0.100096	0.218051
H203	H	1.312916	-0.132638	0.243282
H204	H	1.463868	-0.200504	0.230379
O205	O	1.493436	-0.094946	0.202089
C206	C	1.580535	-0.082713	0.144901
H207	H	1.560411	-0.026583	0.173151
H208	H	1.572554	-0.075033	0.093396
H209	H	1.679067	-0.136628	0.121914
H210	H	1.609161	-0.525735	0.682853
H211	H	0.701666	0.334220	0.788983
H212	H	0.945233	-0.131558	0.408980
O213	O	0.949791	-0.178906	0.110869
C214	C	0.954778	-0.229729	0.064954
H215	H	0.913504	-0.195463	0.032625
H216	H	0.898723	-0.251403	0.105462
H217	H	1.056135	-0.283417	0.019649
H218	H	0.926935	0.056069	-0.007529
O219	O	0.335864	0.458690	1.053461
C220	C	0.242194	0.514352	1.130803
H221	H	0.206100	0.484825	1.174221
H222	H	0.161913	0.568043	1.132053
H223	H	0.282821	0.535199	1.148676
H224	H	0.517679	0.326761	0.927814
O225	O	0.378795	0.019636	1.199275
C226	C	0.319101	0.102341	1.210930
H227	H	0.358411	0.112566	1.150857
H228	H	0.336250	0.126558	1.247165
H229	H	0.214376	0.134776	1.244192
O230	O	0.394507	-0.139755	1.031141
C231	C	0.456253	-0.173033	0.949583
H232	H	0.489544	-0.137678	0.915084
H233	H	0.389085	-0.170234	0.940319
H234	H	0.540055	-0.238095	0.927395
O235	O	1.330412	-0.227333	0.329792
C236	C	1.348245	-0.186506	0.367667
H237	H	1.362165	-0.215537	0.412368
H238	H	1.262665	-0.121154	0.399882
H239	H	1.434321	-0.189812	0.321378
O240	O	1.536057	-0.534160	0.348045
C241	C	1.518236	-0.574928	0.310098
H242	H	1.435620	-0.529569	0.308718
H243	H	1.498598	-0.615365	0.344152
H244	H	1.606078	-0.612817	0.246741
H245	H	0.927560	0.049517	0.114061
H246	H	0.923254	0.093637	0.295431
H247	H	0.923894	0.087084	0.417023
H248	H	0.313037	-0.063131	1.170819
