data_functionalizedCrystal
_audit_creation_method	'MofGen! by Chris Wilmer'
_symmetry_space_group_name_H-M	'P1'
_symmetry_Int_Tables_number	1
_symmetry_cell_setting	triclinic
loop_
_symmetry_equiv_pos_as_xyz
  x,y,z
_cell_length_a	6.817900
_cell_length_b	7.190334
_cell_length_c	27.923497
_cell_angle_alpha	86.942817
_cell_angle_beta	98.964248
_cell_angle_gamma	60.611776
loop_
_atom_site_label
_atom_site_type_symbol
_atom_site_fract_x
_atom_site_fract_y
_atom_site_fract_z
V1	V	-4.201519	0.666389	-0.066352
O2	O	-4.208017	0.652258	0.003985
O3	O	-4.130382	0.663222	-0.132331
O4	O	-4.239126	0.956390	-0.064982
O5	O	-4.098521	0.357061	-0.063830
V6	V	-4.676948	0.629222	-0.057980
O7	O	-4.480531	0.747918	-0.084716
O8	O	-4.848134	0.547693	-0.039616
O9	O	-4.524878	0.632390	0.007998
O10	O	-4.787847	0.643353	-0.128317
O11	O	-4.897343	0.938551	-0.060502
O12	O	-4.416135	0.339221	-0.059350
C13	C	-3.967069	0.653068	-0.148426
C14	C	-3.990766	0.652412	-0.202362
C15	C	-4.105794	1.027031	-0.062513
C16	C	-4.219776	1.268573	-0.061816
C17	C	-4.042102	0.452651	-0.530117
C18	C	-4.131198	0.450068	-0.732827
O19	O	-4.061414	0.283511	-0.753342
N20	N	-4.238038	0.645207	-0.764874
C21	C	-4.322622	0.841007	-0.746241
O22	O	-4.415561	1.006927	-0.778151
C23	C	-4.233539	0.843589	-0.543532
C24	C	-4.126674	0.648435	-0.511487
C25	C	-3.935247	0.257513	-0.498073
C26	C	-3.912964	0.258160	-0.447398
C27	C	-3.997536	0.453945	-0.428768
C28	C	-4.104391	0.649082	-0.460812
C29	C	-4.318138	1.039387	-0.524900
C30	C	-4.295862	1.040015	-0.474219
C31	C	-4.188997	0.844862	-0.442174
C32	C	-4.166681	0.845514	-0.391507
N33	N	-4.059841	0.650374	-0.359461
C34	C	-3.975269	0.454590	-0.378091
C35	C	-4.369381	0.839637	-0.852666
C36	C	-4.391648	0.838992	-0.903343
C37	C	-4.200226	0.448052	-0.889926
C38	C	-4.177945	0.448699	-0.839248
C39	C	-4.262541	0.644498	-0.820619
C40	C	-3.928479	0.455963	-0.271671
C41	C	-3.906194	0.456627	-0.220992
C42	C	-4.097628	0.847566	-0.234414
C43	C	-4.119901	0.846903	-0.285088
C44	C	-4.035324	0.651085	-0.303715
O45	O	-4.236431	1.011985	-0.370959
O46	O	-3.882384	0.288697	-0.346174
C47	C	-4.064385	0.452004	-0.580792
C48	C	-4.171240	0.647141	-0.612836
C49	C	-4.255812	0.842925	-0.594206
C50	C	-4.193507	0.646496	-0.663513
C51	C	-4.108935	0.450711	-0.682143
C52	C	-4.002096	0.255572	-0.650097
C53	C	-3.979813	0.256219	-0.599422
C54	C	-4.362652	1.038065	-0.626253
C55	C	-4.384925	1.037402	-0.676927
C56	C	-4.300352	0.841617	-0.695557
C57	C	-4.351531	0.642538	0.024091
C58	C	-4.307076	0.643208	0.078027
H59	H	-3.819163	0.297702	-0.194902
C60	C	-4.090097	0.038170	-0.701618
C61	C	-3.909151	0.040356	-0.670579
H62	H	-4.032730	-0.094694	-0.714262
H63	H	-4.156893	0.154292	-0.727951
H64	H	-4.203368	0.053396	-0.683689
H65	H	-3.795887	0.025146	-0.688510
H66	H	-3.842319	-0.075799	-0.644243
C67	C	-4.571936	1.423905	-0.685087
C68	C	-4.502407	1.251937	-0.712148
H69	H	-4.644487	1.556343	-0.706831
H70	H	-4.441264	1.409190	-0.663478
H71	H	-4.677244	1.422824	-0.666606
H72	H	-4.397085	1.253009	-0.730627
H73	H	-4.633096	1.266656	-0.733766
C74	C	-3.668520	0.218322	-0.318560
C75	C	-3.835506	0.240724	-0.292143
H76	H	-3.611130	0.085449	-0.331200
H77	H	-3.545829	0.219865	-0.297501
H78	H	-3.735370	0.334445	-0.344900
H79	H	-3.768651	0.124608	-0.265800
H80	H	-3.958218	0.239161	-0.313203
C81	C	-4.622639	1.275726	-0.579369
C82	C	-4.455632	1.253296	-0.605782
H83	H	-4.680050	1.408619	-0.566737
H84	H	-4.555816	1.159638	-0.553028
H85	H	-4.745334	1.274169	-0.600432
H86	H	-4.332928	1.254837	-0.584718
H87	H	-4.522454	1.369415	-0.632127
H88	H	-3.825959	0.099247	-0.421311
H89	H	-3.866377	0.098074	-0.513235
H90	H	-4.166471	1.006969	-0.219236
C91	C	-4.017656	0.040211	-0.536966
C92	C	-3.862363	0.041703	-0.564201
H93	H	-3.945139	-0.092226	-0.515223
H94	H	-4.148309	0.054934	-0.558585
H95	H	-4.064808	0.156899	-0.518614
H96	H	-3.815225	-0.074977	-0.582556
H97	H	-3.731669	0.026957	-0.542580
C98	C	-3.867883	0.212498	-0.772164
C99	C	-4.060496	0.234179	-0.804028
H100	H	-3.795372	0.080048	-0.750425
H101	H	-3.915068	0.329162	-0.753811
H102	H	-3.762562	0.213544	-0.790646
H103	H	-4.165825	0.233149	-0.785546
H104	H	-4.013314	0.117484	-0.822382
C105	C	-4.288263	0.230670	-0.941446
C106	C	-4.107302	0.232832	-0.910406
H107	H	-4.230915	0.097802	-0.954088
H108	H	-4.355038	0.346784	-0.967779
H109	H	-4.401545	0.245924	-0.923517
H110	H	-3.994027	0.217594	-0.928336
H111	H	-4.040492	0.116685	-0.884069
C112	C	-4.578632	1.225478	-0.911502
C113	C	-4.509100	1.053510	-0.938563
H114	H	-4.651164	1.357916	-0.933246
H115	H	-4.447964	1.210755	-0.889890
H116	H	-4.683957	1.224408	-0.893025
H117	H	-4.403761	1.054571	-0.957038
H118	H	-4.639785	1.068239	-0.960185
H119	H	-4.438270	0.999089	-0.837504
C120	C	-4.487334	1.426384	-0.492576
C121	C	-4.388845	1.255250	-0.453743
H122	H	-4.544719	1.559254	-0.479934
H123	H	-4.610034	1.424832	-0.513629
H124	H	-4.374023	1.411140	-0.510495
H125	H	-4.502161	1.270485	-0.435826
H126	H	-4.266131	1.256805	-0.432682
H127	H	-4.206885	1.005811	-0.311180
H128	H	-4.405157	1.198303	-0.550983
