data_functionalizedCrystal
_audit_creation_method	'MofGen! by Chris Wilmer'
_symmetry_space_group_name_H-M	'P1'
_symmetry_Int_Tables_number	1
_symmetry_cell_setting	triclinic
loop_
_symmetry_equiv_pos_as_xyz
  x,y,z
_cell_length_a	15.944551
_cell_length_b	15.021413
_cell_length_c	15.944551
_cell_angle_alpha	90.003065
_cell_angle_beta	96.501262
_cell_angle_gamma	90.002826
loop_
_atom_site_label
_atom_site_type_symbol
_atom_site_fract_x
_atom_site_fract_y
_atom_site_fract_z
O1	O	1.114529	0.073941	-0.108321
O2	O	0.869979	0.073964	-0.121677
O3	O	0.998932	0.073944	0.007276
O4	O	0.985576	0.073961	-0.237274
O5	O	0.998912	-0.074121	0.007257
O6	O	0.869959	-0.074101	-0.121695
O7	O	1.114508	-0.074123	-0.108339
Zn8	Zn	0.992230	-0.097620	-0.115020
Zn9	Zn	0.992257	0.097461	-0.114996
O10	O	0.985555	-0.074103	-0.237292
C11	C	0.838675	-0.000066	-0.121132
C12	C	0.745429	-0.000057	-0.119470
N13	N	0.992218	-0.230758	-0.115036
C14	C	0.530572	-0.000081	-0.035565
C15	C	0.469562	0.072926	-0.074518
C16	C	0.574703	-0.000068	-0.116462
C17	C	0.469564	-0.073054	-0.074556
C18	C	0.409790	-0.000083	-0.113551
C19	C	0.514921	0.072998	-0.155438
C20	C	0.514930	-0.073047	-0.155464
C21	C	0.453937	-0.000023	-0.194476
C22	C	0.669705	-0.000059	-0.118137
C23	C	0.314789	-0.000085	-0.111883
C24	C	0.932581	-0.470432	-0.174636
C25	C	1.008481	-0.529772	-0.190943
C26	C	0.992239	-0.412365	-0.115015
C27	C	0.916360	-0.529766	-0.098727
C28	C	0.992253	-0.587789	-0.114997
C29	C	1.068178	-0.470398	-0.131360
C30	C	0.976006	-0.470387	-0.039111
C31	C	1.051962	-0.529701	-0.055386
C32	C	0.992230	-0.311307	-0.115028
C33	C	0.992271	-0.688844	-0.114984
C34	C	1.145813	-0.000092	-0.108885
C35	C	1.239059	-0.000094	-0.110547
C36	C	0.998367	-0.000089	0.038561
C37	C	0.996705	-0.000089	0.131807
N38	N	0.992276	0.230598	-0.114973
C39	C	0.986120	-0.000069	-0.268577
C40	C	0.987782	-0.000063	-0.361823
C41	C	0.912801	-0.000069	0.346663
C42	C	0.951753	-0.073077	0.407672
C43	C	0.993698	-0.000082	0.302533
C44	C	0.951792	0.072903	0.407673
C45	C	0.990787	-0.000071	0.467445
C46	C	1.032672	-0.073150	0.362313
C47	C	1.032700	0.072895	0.362308
C48	C	1.071711	-0.000131	0.423298
C49	C	0.995372	-0.000089	0.207530
C50	C	0.989119	-0.000070	0.562446
H51	H	0.563905	0.000005	0.031573
H52	H	0.852184	-0.555847	-0.084959
H53	H	1.132368	-0.444430	-0.145206
N54	N	1.075542	-0.150679	0.337246
N55	N	1.104836	-0.205892	0.391479
H56	H	1.135110	-0.260648	0.373776
H57	H	0.845652	-0.000136	0.313356
N58	N	0.908812	-0.150496	0.432884
N59	N	0.833316	-0.163497	0.405118
H60	H	0.802983	-0.218171	0.422922
H61	H	1.066896	0.134615	0.342185
H62	H	0.534918	0.134787	-0.189621
N63	N	0.444358	0.150351	-0.031582
N64	N	0.472128	0.163358	0.043912
H65	H	0.454334	0.218039	0.074241
H66	H	1.138919	-0.000178	0.456457
N67	N	0.540197	-0.150461	-0.198367
N68	N	0.576552	-0.142376	-0.263410
H69	H	0.594401	-0.197055	-0.293706
N70	N	0.908853	0.150322	0.432883
N71	N	0.833358	0.163315	0.405112
H72	H	0.803025	0.217989	0.422914
N73	N	1.115333	-0.562136	0.007877
N74	N	1.191145	-0.542918	0.004447
H75	H	1.235903	-0.565825	0.049123
H76	H	0.449470	-0.134773	-0.040332
N77	N	0.412346	0.000039	-0.278788
N78	N	0.424064	0.062780	-0.327622
H79	H	0.394690	0.062828	-0.387167
H80	H	0.882181	-0.444409	-0.225096
N81	N	1.025717	-0.562486	-0.271463
N82	N	0.977343	-0.543498	-0.336232
H83	H	0.989511	-0.566598	-0.393101
N84	N	0.958731	-0.437647	0.041381
N85	N	0.890581	-0.456634	0.068892
H86	H	0.878371	-0.433510	0.125740
