data_functionalizedCrystal
_audit_creation_method	'MofGen! by Chris Wilmer'
_symmetry_space_group_name_H-M	'P1'
_symmetry_Int_Tables_number	1
_symmetry_cell_setting	triclinic
loop_
_symmetry_equiv_pos_as_xyz
  x,y,z
_cell_length_a	12.759401
_cell_length_b	10.685194
_cell_length_c	12.759401
_cell_angle_alpha	94.382676
_cell_angle_beta	90.000578
_cell_angle_gamma	94.376282
loop_
_atom_site_label
_atom_site_type_symbol
_atom_site_fract_x
_atom_site_fract_y
_atom_site_fract_z
Zn1	Zn	1.574050	-0.502632	0.561885
Zn2	Zn	1.560559	-0.713614	0.372732
Zn3	Zn	1.398408	-0.502612	0.386226
Zn4	Zn	1.384902	-0.713595	0.548375
O5	O	1.479480	-0.608113	0.467304
O6	O	1.719280	-0.530636	0.536801
O7	O	1.539056	-0.685624	0.227501
O8	O	1.433006	-0.326022	0.420829
O9	O	1.709369	-0.685643	0.397831
O10	O	1.562049	-0.326036	0.549885
O11	O	1.419925	-0.530602	0.237415
O12	O	1.249597	-0.530583	0.407728
O13	O	1.409986	-0.685610	0.697188
O14	O	1.239673	-0.685591	0.526858
O15	O	1.548952	-0.530617	0.707114
O16	O	1.525959	-0.890205	0.384730
O17	O	1.396905	-0.890191	0.513774
C18	C	1.206514	-0.608084	0.467292
C19	C	1.089736	-0.608101	0.467309
C20	C	1.040019	-0.527541	0.539765
C21	C	0.930293	-0.527566	0.539770
C22	C	0.920012	-0.688721	0.394860
C23	C	1.029736	-0.688689	0.394851
C24	C	1.045953	-0.434503	0.623431
C25	C	0.936228	-0.434528	0.623436
C26	C	1.458531	-0.935987	0.446345
C27	C	1.449665	-1.076252	0.437413
C28	C	1.753511	-0.608144	0.467318
C29	C	1.870287	-0.608157	0.467323
C30	C	1.479467	-0.608113	0.741338
C31	C	1.479462	-0.608114	0.858114
C32	C	1.500539	-0.278960	0.488369
C33	C	1.509513	-0.138694	0.497345
C34	C	1.407119	-0.688830	1.017534
C35	C	1.407112	-0.688815	0.907810
C36	C	1.551817	-0.527412	0.918148
C37	C	1.551819	-0.527422	1.027869
C38	C	1.323578	-0.782019	1.011564
C39	C	1.323570	-0.782004	0.901841
C40	C	1.479478	-0.608141	1.194335
C41	C	1.479471	-0.608138	1.077559
H42	H	1.070213	-0.754277	0.335841
H43	H	0.904779	-0.460865	0.703090
Cl44	Cl	1.360063	-1.159390	0.347641
H45	H	1.610727	-0.461705	1.076739
H46	H	1.610719	-0.461695	0.877677
Cl47	Cl	1.200538	-0.741606	1.060135
Cl48	Cl	1.599099	-1.055561	0.587125
H49	H	1.346787	-0.874865	1.039649
Cl50	Cl	1.207690	-0.727940	0.852758
H51	H	1.339168	-0.879723	0.865802
H52	H	0.871147	-0.754333	0.335867
H53	H	1.081956	-0.336717	0.608022
H54	H	1.077755	-0.469652	0.698425
H55	H	0.908113	-0.341633	0.600369
