data_functionalizedCrystal
_audit_creation_method	'MofGen! by Chris Wilmer'
_symmetry_space_group_name_H-M	'P1'
_symmetry_Int_Tables_number	1
_symmetry_cell_setting	triclinic
loop_
_symmetry_equiv_pos_as_xyz
  x,y,z
_cell_length_a	13.635800
_cell_length_b	9.582860
_cell_length_c	17.982626
_cell_angle_alpha	77.459061
_cell_angle_beta	77.554083
_cell_angle_gamma	68.793233
loop_
_atom_site_label
_atom_site_type_symbol
_atom_site_fract_x
_atom_site_fract_y
_atom_site_fract_z
V1	V	1.892675	-0.208494	0.237410
V2	V	2.392675	0.291506	0.737410
O3	O	1.868094	0.008538	0.233034
O4	O	2.368094	0.508538	0.733034
O5	O	1.889104	-0.411984	0.235648
O6	O	2.389104	0.088016	0.735648
O7	O	1.806776	-0.205936	0.341015
O8	O	2.306776	0.294064	0.841015
O9	O	1.950993	-0.198936	0.126937
O10	O	2.450993	0.301064	0.626937
V11	V	2.139810	-0.182457	0.224213
V12	V	2.639810	0.317543	0.724213
O13	O	2.011515	-0.265606	0.266358
O14	O	2.511515	0.234394	0.766358
O15	O	2.246068	-0.125345	0.195265
O16	O	2.746068	0.374655	0.695265
O17	O	2.031777	0.021033	0.225975
O18	O	2.531777	0.521033	0.725975
O19	O	2.223089	-0.399489	0.228589
O20	O	2.723089	0.100511	0.728589
O21	O	2.140191	-0.192015	0.334686
O22	O	2.640191	0.307985	0.834686
O23	O	2.114106	-0.185015	0.120608
O24	O	2.614106	0.314985	0.620608
V25	V	2.392675	-0.208494	0.237410
V26	V	2.892675	0.291506	0.737410
O27	O	2.368094	0.008538	0.233034
O28	O	2.868094	0.508538	0.733034
O29	O	2.389104	-0.411984	0.235648
O30	O	2.889104	0.088016	0.735648
O31	O	2.306776	-0.205936	0.341015
O32	O	2.806776	0.294064	0.841015
O33	O	2.450993	-0.198936	0.126937
O34	O	2.950993	0.301064	0.626937
V35	V	2.639810	-0.182457	0.224213
V36	V	3.139810	0.317543	0.724213
O37	O	2.511515	-0.265606	0.266358
O38	O	3.011515	0.234394	0.766358
O39	O	2.746068	-0.125345	0.195265
O40	O	3.246068	0.374655	0.695265
O41	O	2.531777	0.021033	0.225975
O42	O	3.031777	0.521033	0.725975
O43	O	2.723089	-0.399489	0.228589
O44	O	3.223089	0.100511	0.728589
O45	O	2.640191	-0.192015	0.334686
O46	O	3.140191	0.307985	0.834686
O47	O	2.614106	-0.185015	0.120608
O48	O	3.114106	0.314985	0.620608
C49	C	1.818620	-0.461570	0.231867
C50	C	2.318620	0.038430	0.731867
C51	C	1.855933	-0.627930	0.231117
C52	C	2.355933	-0.127930	0.731117
C53	C	1.713602	-0.198734	0.366273
C54	C	2.213602	0.301266	0.866273
C55	C	1.684148	-0.197990	0.450970
C56	C	2.184148	0.302010	0.950970
C57	C	1.697249	-0.334765	0.501539
C58	C	2.197249	0.165235	1.001539
C59	C	1.669593	-0.334089	0.581124
C60	C	2.169593	0.165911	1.081124
C61	C	1.628829	-0.196635	0.610137
C62	C	2.128829	0.303365	1.110137
C63	C	1.615732	-0.059849	0.559562
C64	C	2.115732	0.440151	1.059562
C65	C	1.643395	-0.060527	0.479979
C66	C	2.143395	0.439473	0.979979
C67	C	1.933935	0.070611	0.229754
C68	C	2.433935	0.570611	0.729754
C69	C	1.886238	0.236970	0.230509
C70	C	2.386238	0.736970	0.730509
C71	C	2.038954	-0.192222	0.095346
C72	C	2.538954	0.307778	0.595346
C73	C	2.058026	-0.192959	0.010648
C74	C	2.558026	0.307041	0.510648
C75	C	1.979118	-0.200808	-0.025271
C76	C	2.479118	0.299192	0.474729
C77	C	1.997049	-0.201516	-0.104853
C78	C	2.497049	0.298484	0.395147
C79	C	2.093891	-0.194385	-0.148513
C80	C	2.593891	0.305615	0.351487
C81	C	2.172803	-0.186531	-0.112589
C82	C	2.672803	0.313469	0.387411
C83	C	2.154869	-0.185812	-0.033009
C84	C	2.654869	0.314188	0.466991
C85	C	2.245130	-0.189427	-0.433524
C86	C	2.745130	0.310573	0.066476
C87	C	2.263060	-0.190151	-0.513108
C88	C	2.763060	0.309849	-0.013108
C89	C	2.087310	-0.205131	-0.505368
C90	C	2.587310	0.294869	-0.005368
C91	C	2.069376	-0.204412	-0.425788
C92	C	2.569376	0.295588	0.074212
C93	C	2.148287	-0.196550	-0.389871
C94	C	2.648287	0.303450	0.110129
C95	C	2.128843	-0.195779	-0.303580
C96	C	2.628843	0.304221	0.196420
C97	C	2.113338	-0.195167	-0.234802
C98	C	2.613338	0.304833	0.265198
C99	C	2.213602	-0.198734	0.366273
C100	C	2.713602	0.301266	0.866273
C101	C	2.184148	-0.197990	0.450970
C102	C	2.684148	0.302010	0.950970
C103	C	2.318620	-0.461570	0.231867
C104	C	2.818620	0.038430	0.731867
C105	C	2.355933	-0.627930	0.231117
C106	C	2.855933	-0.127930	0.731117
C107	C	2.433935	0.070611	0.229754
C108	C	2.933935	0.570611	0.729754
C109	C	2.386238	0.236970	0.230509
C110	C	2.886238	0.736970	0.730509
C111	C	2.538954	-0.192222	0.095346
C112	C	3.038954	0.307778	0.595346
C113	C	2.558026	-0.192959	0.010648
C114	C	3.058026	0.307041	0.510648
C115	C	2.479099	-0.200786	-0.025259
C116	C	2.979099	0.299214	0.474741
C117	C	2.497001	-0.201460	-0.104843
C118	C	2.997001	0.298540	0.395157
C119	C	2.593833	-0.194319	-0.148517
C120	C	3.093833	0.305681	0.351483
C121	C	2.672764	-0.186487	-0.112604
C122	C	3.172764	0.313513	0.387396
C123	C	2.654859	-0.185801	-0.033023
C124	C	3.154859	0.314199	0.466977
H125	H	1.730435	-0.446702	0.477928
H126	H	2.230435	0.053298	0.977928
H127	H	2.400247	-0.206600	0.010290
H128	H	2.900247	0.293400	0.510290
F129	F	2.329128	-0.181103	-0.395305
F130	F	2.829128	0.318897	0.104695
H131	H	2.719138	-0.179437	-0.003793
H132	H	3.219138	0.320563	0.496207
H133	H	1.606304	-0.196104	0.674940
H134	H	2.106304	0.303896	1.174940
F135	F	1.683536	-0.479681	0.634936
F136	F	2.183536	0.020319	1.134936
H137	H	1.582539	0.052062	0.583197
H138	H	2.082539	0.552062	1.083197
F139	F	1.966308	-0.212010	-0.379325
F140	F	2.466308	0.287990	0.120675
F141	F	2.366136	-0.182560	-0.559574
F142	F	2.866136	0.317440	-0.059574
H143	H	2.251651	-0.180714	-0.148144
H144	H	2.751651	0.319286	0.351856
F145	F	2.238850	-0.177445	0.005217
F146	F	2.738850	0.322555	0.505217
H147	H	2.432720	-0.207837	-0.134071
H148	H	2.932720	0.292163	0.365929
H149	H	1.900262	-0.206621	0.010272
H150	H	2.400262	0.293379	0.510272
H151	H	1.632717	0.050856	0.438810
H152	H	2.132717	0.550856	0.938810
H153	H	2.751603	-0.180668	-0.148176
H154	H	3.251603	0.319332	0.351824
F155	F	1.913068	-0.209890	-0.143076
F156	F	2.413068	0.290110	0.356924
F157	F	2.612875	-0.195053	-0.233214
F158	F	3.112875	0.304947	0.266786
F159	F	2.003324	-0.213492	-0.543600
F160	F	2.503324	0.286508	-0.043600
