data_functionalizedCrystal
_audit_creation_method	'MofGen! by Chris Wilmer'
_symmetry_space_group_name_H-M	'P1'
_symmetry_Int_Tables_number	1
_symmetry_cell_setting	triclinic
loop_
_symmetry_equiv_pos_as_xyz
  x,y,z
_cell_length_a	12.837932
_cell_length_b	11.792254
_cell_length_c	11.892095
_cell_angle_alpha	93.915908
_cell_angle_beta	85.688545
_cell_angle_gamma	89.514150
loop_
_atom_site_label
_atom_site_type_symbol
_atom_site_fract_x
_atom_site_fract_y
_atom_site_fract_z
O1	O	1.383718	0.288698	-0.094007
O2	O	1.081829	0.274112	-0.094009
O3	O	1.240092	0.116979	-0.094000
O4	O	1.225455	0.445832	-0.094016
O5	O	1.226896	0.130058	0.094007
O6	O	1.068634	0.287191	0.093998
O7	O	1.370522	0.301778	0.094000
Zn8	Zn	1.217483	0.296561	0.123849
Zn9	Zn	1.234869	0.279329	-0.123858
O10	O	1.212259	0.458911	0.093991
C11	C	1.036583	0.275725	-0.000006
C12	C	0.921423	0.261030	-0.000006
C13	C	0.770884	0.138212	0.000002
C14	C	0.879088	0.152011	0.000001
C15	C	0.855544	0.356257	-0.000008
C16	C	0.747340	0.342457	-0.000007
C17	C	0.705014	0.233431	-0.000004
C18	C	0.596808	0.219632	-0.000011
C19	C	0.573265	0.423877	-0.000012
C20	C	0.681470	0.437677	-0.000013
C21	C	1.232572	0.081134	0.000003
C22	C	1.229812	-0.045159	0.000002
C23	C	1.227570	-0.147723	-0.000002
C24	C	1.224767	-0.276395	-0.000012
C25	C	1.415768	0.300165	-0.000006
C26	C	1.530929	0.314859	-0.000013
C27	C	1.219779	0.494756	-0.000015
C28	C	1.222540	0.621048	-0.000021
N29	N	1.205625	0.308322	0.292902
N30	N	1.246735	0.267560	-0.292912
C31	C	1.329247	0.185658	0.529557
C32	C	1.320966	0.193888	0.647898
C33	C	1.180777	0.333004	0.647929
C34	C	1.189058	0.324774	0.529587
C35	C	1.263297	0.251100	0.470406
C36	C	1.271582	0.242877	0.352062
C37	C	1.131389	0.381987	0.352094
C38	C	1.123108	0.390217	0.470436
H39	H	0.736423	0.049438	-0.000006
O40	O	0.943047	0.059466	-0.000199
C41	C	1.003063	-0.117687	-0.097562
C42	C	0.930599	-0.012922	-0.097490
H43	H	0.993008	-0.176253	-0.176201
H44	H	1.087696	-0.089171	-0.097637
H45	H	0.982077	-0.165236	-0.018843
H46	H	0.951491	0.034673	-0.176195
H47	H	0.845985	-0.041512	-0.097356
O48	O	1.067418	0.445736	0.294688
C49	C	1.010255	0.634089	0.258560
C50	C	1.082765	0.562026	0.323620
H51	H	1.022621	0.728122	0.281945
H52	H	1.028922	0.615660	0.163797
H53	H	0.925475	0.611819	0.281834
H54	H	1.167569	0.584254	0.300441
H55	H	1.064008	0.580465	0.418367
H56	H	0.519622	0.501412	-0.000017
H57	H	0.890024	0.445022	-0.000001
O58	O	0.722765	0.543495	-0.000065
C59	C	0.879019	0.655280	0.000004
C60	C	0.832396	0.535374	0.000039
H61	H	0.967660	0.648756	0.000113
H62	H	0.857541	0.697476	-0.078699
H63	H	0.846352	0.708391	0.078662
H64	H	0.865037	0.482172	-0.078566
H65	H	0.853866	0.493268	0.078794
H66	H	1.332033	0.182892	0.303877
O67	O	1.108520	0.404420	0.705384
C68	C	0.926007	0.453881	0.741601
C69	C	1.007730	0.372913	0.676479
H70	H	0.844502	0.428452	0.718237
H71	H	0.931330	0.448495	0.836354
H72	H	0.941705	0.544700	0.718362
H73	H	0.992086	0.282059	0.699623
H74	H	1.002388	0.378397	0.581742
O75	O	1.401388	0.114008	0.472236
C76	C	1.539616	-0.023043	0.484691
C77	C	1.457946	0.058035	0.549745
H78	H	1.585380	-0.068302	0.547328
H79	H	1.498446	-0.088573	0.429330
H80	H	1.595537	0.027791	0.429242
H81	H	1.402002	0.007296	0.605255
H82	H	1.499186	0.123566	0.605035
H83	H	1.062662	0.450198	0.518635
O84	O	0.555858	0.113653	0.000043
C85	C	0.590641	-0.087478	-0.000010
C86	C	0.637148	0.032482	-0.000048
H87	H	0.656343	-0.153138	-0.000107
H88	H	0.535084	-0.093643	0.078689
H89	H	0.546057	-0.104462	-0.078672
H90	H	0.681783	0.049545	0.078561
H91	H	0.692649	0.038588	-0.078798
H92	H	1.374668	0.140597	0.696056
