data_functionalizedCrystal
_audit_creation_method	'MofGen! by Chris Wilmer'
_symmetry_space_group_name_H-M	'P1'
_symmetry_Int_Tables_number	1
_symmetry_cell_setting	triclinic
loop_
_symmetry_equiv_pos_as_xyz
  x,y,z
_cell_length_a	33.592126
_cell_length_b	33.591377
_cell_length_c	33.588093
_cell_angle_alpha	60.004089
_cell_angle_beta	60.008299
_cell_angle_gamma	59.994549
loop_
_atom_site_label
_atom_site_type_symbol
_atom_site_fract_x
_atom_site_fract_y
_atom_site_fract_z
O1	O	0.055297	-0.581666	0.486338
O2	O	0.020882	-0.452873	0.391864
O3	O	0.102445	-0.534352	0.391775
O4	O	-0.026266	-0.500187	0.486427
O5	O	0.129510	-0.507292	0.418747
O6	O	0.047947	-0.425814	0.418835
O7	O	0.082362	-0.554606	0.513309
Cu8	Cu	0.067626	-0.487739	0.468535
Cu9	Cu	0.035618	-0.519740	0.436638
O10	O	0.000799	-0.473128	0.513398
N11	N	0.090139	-0.465235	0.490972
N12	N	0.013110	-0.542249	0.414202
C13	C	0.124394	-0.431229	0.734914
C14	C	0.334265	-0.431145	0.524799
C15	C	0.124204	-0.431200	0.524965
C16	C	0.124184	-0.221175	0.524955
C17	C	0.158017	-0.322536	0.558710
C18	C	0.158027	-0.397406	0.558711
C19	C	0.176763	-0.378688	0.577408
C20	C	0.258412	-0.364594	0.534386
C21	C	0.309454	-0.381596	0.517340
C22	C	0.309485	-0.464188	0.548836
C23	C	0.258444	-0.447186	0.565883
C24	C	0.170304	-0.297002	0.508532
C25	C	0.153260	-0.245956	0.491537
C26	C	0.111648	-0.245983	0.574901
C27	C	0.128691	-0.297029	0.591896
C28	C	0.107841	-0.385091	0.571080
C29	C	0.090813	-0.402108	0.554078
C30	C	0.174153	-0.443755	0.512351
C31	C	0.191183	-0.426739	0.529347
C32	C	0.107923	-0.385106	0.659111
C33	C	0.090955	-0.402138	0.710156
C34	C	0.174335	-0.443795	0.710087
C35	C	0.191302	-0.426764	0.659041
C36	C	0.158095	-0.397418	0.633555
C37	C	0.232909	-0.397388	0.558656
C38	C	0.105069	-0.449619	0.791057
C39	C	0.390406	-0.449193	0.505789
C40	C	0.104813	-0.449599	0.506607
C41	C	0.105125	-0.165028	0.506915
C42	C	-0.020560	-0.576246	0.169890
C43	C	-0.020889	-0.786183	0.379970
C44	C	-0.020859	-0.576235	0.380063
C45	C	-0.230772	-0.576015	0.379658
C46	C	-0.129417	-0.609898	0.346025
C47	C	-0.054587	-0.609979	0.346172
C48	C	-0.073269	-0.628671	0.327396
C49	C	-0.087401	-0.710299	0.370335
C50	C	-0.070424	-0.761345	0.387369
C51	C	0.012165	-0.761428	0.356003
C52	C	-0.004813	-0.710383	0.338967
C53	C	-0.155001	-0.622196	0.396191
C54	C	-0.206043	-0.605128	0.413125
C55	C	-0.205914	-0.563467	0.329724
C56	C	-0.154872	-0.580535	0.312790
C57	C	-0.066886	-0.559797	0.333828
C58	C	-0.049903	-0.542809	0.350903
C59	C	-0.008321	-0.626180	0.392654
C60	C	-0.025304	-0.643170	0.375585
C61	C	-0.066758	-0.559805	0.245702
C62	C	-0.049671	-0.542819	0.194658
C63	C	-0.008026	-0.626194	0.194706
C64	C	-0.025111	-0.643179	0.245752
C65	C	-0.054479	-0.609983	0.271248
C66	C	-0.054597	-0.684821	0.346135
C67	C	-0.002109	-0.556901	0.113746
C68	C	-0.002869	-0.842328	0.398966
C69	C	-0.002496	-0.556887	0.398501
C70	C	-0.286914	-0.556929	0.397631
N71	N	0.436349	-0.465146	0.490703
O72	O	0.592194	-0.469605	0.374236
O73	O	0.592389	-0.564393	0.502890
O74	O	0.592305	-0.564176	0.421300
O75	O	0.592277	-0.469822	0.455826
O76	O	0.511216	-0.537214	0.448415
O77	O	0.511300	-0.537431	0.530004
O78	O	0.511104	-0.442643	0.401350
Cu79	Cu	0.503798	-0.487575	0.468153
Cu80	Cu	0.599695	-0.519461	0.436087
O81	O	0.511188	-0.442860	0.482940
N82	N	0.667145	-0.541890	0.413532
N83	N	0.090108	-0.119085	0.490958
O84	O	-0.026275	0.036848	0.486394
O85	O	0.102381	0.036888	0.391584
O86	O	0.020751	0.036852	0.391854
O87	O	0.055356	0.036884	0.486124
O88	O	0.047821	-0.044242	0.418876
O89	O	0.129452	-0.044207	0.418606
O90	O	0.000796	-0.044246	0.513417
Cu91	Cu	0.067596	-0.051631	0.468479
Cu92	Cu	0.035582	0.044273	0.436522
O93	O	0.082426	-0.044211	0.513146
N94	N	0.013063	0.111726	0.414043
N95	N	0.090453	-0.465282	0.837001
O96	O	0.085913	-0.581648	0.992925
O97	O	-0.008857	-0.452947	0.992970
O98	O	-0.008635	-0.534562	0.992946
O99	O	0.085691	-0.500033	0.992949
O100	O	0.018365	-0.507512	0.911855
O101	O	0.018143	-0.425898	0.911878
O102	O	0.112912	-0.554598	0.911834
Cu103	Cu	0.067993	-0.487778	0.904452
Cu104	Cu	0.036063	-0.519767	1.000352
O105	O	0.112691	-0.472984	0.911857
N106	N	0.013602	-0.542269	1.067803
C107	C	0.031188	-0.423114	0.392334
C108	C	0.132194	-0.524016	0.392223
C109	C	0.072056	-0.584366	0.512840
C110	C	-0.028950	-0.483464	0.512950
C111	C	0.551868	-0.563965	0.532655
C112	C	0.551766	-0.563697	0.431617
C113	C	0.551623	-0.443070	0.371586
C114	C	0.551728	-0.443339	0.472623
C115	C	0.132090	-0.003555	0.392006
C116	C	0.031035	-0.003698	0.392374
C117	C	-0.028947	-0.003703	0.512961
C118	C	0.072143	-0.003661	0.512626
C119	C	-0.008408	-0.423209	0.952430
C120	C	-0.008128	-0.524272	0.952385
C121	C	0.112464	-0.584336	0.952374
C122	C	0.112190	-0.483267	0.952401
H123	H	0.050098	-0.392105	0.730957
H124	H	0.079411	-0.621363	0.542512
O125	O	0.176296	-0.532618	0.356746
C126	C	0.197919	-0.499137	0.343619
H127	H	0.168373	-0.465405	0.353445
H128	H	0.218353	-0.488137	0.302696
H129	H	0.224515	-0.516795	0.364100
O130	O	0.552019	-0.599480	0.576714
C131	C	0.594030	-0.610762	0.585428
H132	H	0.623345	-0.599941	0.549221
H133	H	0.608173	-0.651592	0.605114
H134	H	0.584542	-0.589878	0.608995
O135	O	0.148006	-0.628393	0.952271
C136	C	0.189082	-0.621957	0.910275
H137	H	0.177317	-0.586250	0.880931
H138	H	0.206537	-0.653583	0.896166
H139	H	0.216605	-0.620834	0.919770
O140	O	-0.073070	-0.474695	0.548364
C141	C	-0.103382	-0.426792	0.530743
H142	H	-0.079910	-0.403631	0.499423
H143	H	-0.126733	-0.410469	0.561344
H144	H	-0.128014	-0.427538	0.517216
H145	H	-0.037749	-0.531650	0.952352
H146	H	0.551722	-0.413701	0.480010
H147	H	0.168963	-0.003318	0.362168
O148	O	-0.130251	-0.650787	0.428453
C149	C	-0.100727	-0.696184	0.421133
H150	H	-0.116078	-0.703184	0.402566
H151	H	-0.100206	-0.726304	0.457819
H152	H	-0.062025	-0.695772	0.397096
O153	O	0.022366	-0.379000	0.356918
C154	C	-0.017126	-0.370301	0.345722
H155	H	-0.020999	-0.406522	0.356482
H156	H	-0.010238	-0.350522	0.304917
H157	H	-0.052076	-0.346826	0.366713
O158	O	0.080933	-0.003569	0.547948
C159	C	0.047504	0.038418	0.561089
H160	H	0.033179	0.067771	0.529867
H161	H	0.066517	0.052525	0.568968
H162	H	0.015784	0.028911	0.595056
H163	H	0.551779	-0.593338	0.424228
O164	O	0.334369	-0.512544	0.555793
C165	C	0.384889	-0.520519	0.535554
H166	H	0.391833	-0.485385	0.506295
H167	H	0.404281	-0.550341	0.518588
H168	H	0.399403	-0.532281	0.565414
H169	H	-0.038161	-0.386246	0.952443
H170	H	0.551560	-0.413310	0.334638
O171	O	0.060506	-0.786338	0.349104
C172	C	0.068457	-0.836855	0.369318
H173	H	0.033305	-0.843787	0.398530
H174	H	0.098243	-0.856280	0.386339
H175	H	0.080254	-0.851349	0.339432
O176	O	0.233744	-0.479106	0.589429
C177	C	0.267230	-0.526705	0.592158
H178	H	0.303597	-0.524753	0.561992
H179	H	0.252475	-0.547660	0.587551
H180	H	0.272694	-0.546193	0.629137
H181	H	0.141823	-0.475877	0.952395
O182	O	0.022128	-0.003743	0.357105
C183	C	-0.025801	-0.003756	0.374888
H184	H	-0.038606	-0.019096	0.416419
H185	H	-0.026507	-0.027322	0.360068
H186	H	-0.051044	0.035141	0.362555
H187	H	-0.065895	-0.003715	0.542725
H188	H	0.080878	-0.361206	0.638363
H189	H	0.201378	-0.467681	0.730833
O190	O	-0.102367	-0.786021	0.410943
C191	C	-0.149951	-0.752513	0.413637
H192	H	-0.151902	-0.716120	0.410238
H193	H	-0.176941	-0.767206	0.450128
H194	H	-0.159487	-0.747116	0.382726
H195	H	0.330218	-0.354891	0.497577
H196	H	0.232159	-0.436796	0.638236
H197	H	0.080840	-0.361208	0.594989
H198	H	0.201155	-0.467643	0.488446
O199	O	0.042059	-0.390209	0.566175
C200	C	0.020905	-0.407677	0.617304
H201	H	0.049996	-0.439153	0.633728
H202	H	-0.009178	-0.420943	0.627095
H203	H	0.004793	-0.377061	0.632433
O204	O	0.239950	-0.438749	0.517294
C205	C	0.265564	-0.468270	0.487713
H206	H	0.241232	-0.486850	0.494253
H207	H	0.299661	-0.497132	0.497232
H208	H	0.276513	-0.444700	0.447735
H209	H	0.237625	-0.324046	0.528499
H210	H	0.194180	-0.317769	0.481510
O211	O	0.020436	-0.658489	0.169997
C212	C	-0.005358	-0.687951	0.182412
H213	H	-0.035110	-0.688412	0.219442
H214	H	0.020810	-0.726678	0.184199
H215	H	-0.022629	-0.672586	0.153633
O216	O	0.165171	-0.221202	0.442780
C217	C	0.147683	-0.233665	0.421603
H218	H	0.142706	-0.270735	0.445802
H219	H	0.175012	-0.235394	0.384046
H220	H	0.111189	-0.204945	0.417836
O221	O	0.083153	-0.221278	0.607201
C222	C	0.075983	-0.254762	0.655136
H223	H	0.081691	-0.291150	0.655047
H224	H	0.037283	-0.240029	0.679396
H225	H	0.103174	-0.260181	0.669727
H226	H	0.118680	-0.317820	0.632757
H227	H	-0.059677	-0.501957	0.173865
H228	H	-0.015108	-0.684041	0.266548
O229	O	-0.095254	-0.527490	0.270394
C230	C	-0.102437	-0.479558	0.236901
H231	H	-0.071630	-0.479686	0.200544
H232	H	-0.102710	-0.455334	0.251666
H233	H	-0.138777	-0.464894	0.231411
H234	H	-0.059919	-0.501948	0.340854
O235	O	-0.095403	-0.527534	0.305334
C236	C	-0.138220	-0.497980	0.331057
H237	H	-0.145376	-0.517678	0.371904
H238	H	-0.170344	-0.490229	0.321858
H239	H	-0.133565	-0.462136	0.320210
H240	H	-0.015291	-0.684031	0.385637
O241	O	0.020176	-0.658470	0.421165
C242	C	0.063005	-0.688010	0.395436
H243	H	0.056204	-0.688502	0.365684
H244	H	0.073724	-0.726719	0.421650
H245	H	0.093718	-0.672697	0.378167
O246	O	0.027118	-0.685707	0.315488
C247	C	0.074699	-0.719217	0.312808
H248	H	0.072713	-0.755589	0.342958
H249	H	0.095635	-0.704493	0.317478
H250	H	0.094224	-0.724667	0.275822
H251	H	-0.226875	-0.615140	0.453976
H252	H	-0.134040	-0.570516	0.271939
O253	O	-0.135738	-0.685410	0.377204
C254	C	-0.142599	-0.655899	0.331604
H255	H	-0.107477	-0.648299	0.303212
H256	H	-0.173230	-0.619981	0.334504
H257	H	-0.152639	-0.675554	0.320223
H258	H	-0.226640	-0.539563	0.302661
