data_functionalizedCrystal
_audit_creation_method	'MofGen! by Chris Wilmer'
_symmetry_space_group_name_H-M	'P1'
_symmetry_Int_Tables_number	1
_symmetry_cell_setting	triclinic
loop_
_symmetry_equiv_pos_as_xyz
  x,y,z
_cell_length_a	14.519709
_cell_length_b	12.996460
_cell_length_c	10.723023
_cell_angle_alpha	90.004801
_cell_angle_beta	95.926154
_cell_angle_gamma	90.000558
loop_
_atom_site_label
_atom_site_type_symbol
_atom_site_fract_x
_atom_site_fract_y
_atom_site_fract_z
O1	O	-1.224704	0.085417	0.163577
O2	O	-0.956325	0.085451	0.182840
O3	O	-1.096706	0.085430	-0.008426
O4	O	-1.084324	0.085438	0.354842
O5	O	-1.096691	-0.085704	-0.008437
O6	O	-0.956311	-0.085683	0.182829
O7	O	-1.224689	-0.085717	0.163566
Cu8	Cu	-1.090498	-0.101326	0.173197
Cu9	Cu	-1.090516	0.101060	0.173209
O10	O	-1.084309	-0.085696	0.354832
C11	C	-0.921954	-0.000112	0.181937
C12	C	-0.819559	-0.000099	0.179247
N13	N	-1.090493	-0.243673	0.173187
C14	C	-1.090515	-0.663487	0.173210
C15	C	-1.090506	-0.546682	0.173208
C16	C	-1.090504	-0.453584	0.173200
C17	C	-1.090495	-0.336771	0.173195
C18	C	-0.444612	-0.000142	0.169343
C19	C	-0.548934	-0.000129	0.172093
C20	C	-0.632082	-0.000119	0.174294
C21	C	-0.736411	-0.000109	0.177045
C22	C	-0.259061	-0.000149	0.164469
C23	C	-0.361456	-0.000148	0.167159
C24	C	-1.095797	-0.000136	-0.054922
C25	C	-1.093102	-0.000131	-0.193452
N26	N	-1.090529	0.243407	0.173209
C27	C	-1.089122	0.088525	-0.398370
C28	C	-1.091908	0.088523	-0.255193
C29	C	-1.085217	-0.000128	0.401328
C30	C	-1.087913	-0.000125	0.539857
H31	H	-1.088100	0.164424	-0.451484
C32	C	-1.093317	0.191057	-0.183440
H33	H	-1.095013	0.177604	-0.096624
H34	H	-1.039224	0.229423	-0.195312
H35	H	-1.146602	0.229397	-0.214105
C36	C	-1.091694	-0.102672	-0.265191
H37	H	-1.092798	-0.158292	-0.207880
H38	H	-1.144389	-0.106505	-0.325373
H39	H	-1.037011	-0.106486	-0.306571
H40	H	-1.088944	-0.076024	-0.407031
