data_functionalizedCrystal
_audit_creation_method	'MofGen! by Chris Wilmer'
_symmetry_space_group_name_H-M	'P1'
_symmetry_Int_Tables_number	1
_symmetry_cell_setting	triclinic
loop_
_symmetry_equiv_pos_as_xyz
  x,y,z
_cell_length_a	17.699083
_cell_length_b	10.654550
_cell_length_c	9.730223
_cell_angle_alpha	89.995747
_cell_angle_beta	90.002740
_cell_angle_gamma	83.883973
loop_
_atom_site_label
_atom_site_type_symbol
_atom_site_fract_x
_atom_site_fract_y
_atom_site_fract_z
O1	O	1.005084	0.158805	-0.114097
O2	O	1.505084	0.658805	0.385903
O3	O	0.784837	0.179467	-0.114142
O4	O	1.284837	0.679467	0.385858
O5	O	0.900024	-0.013692	-0.114110
O6	O	1.400024	0.486308	0.385890
O7	O	0.889897	0.351964	-0.114129
O8	O	1.389897	0.851964	0.385871
O9	O	0.900017	-0.013697	0.114470
O10	O	1.400017	0.486303	0.614470
O11	O	0.784830	0.179462	0.114438
O12	O	1.284830	0.679462	0.614438
O13	O	1.005077	0.158800	0.114483
O14	O	1.505077	0.658800	0.614483
Zn15	Zn	0.894952	0.169130	0.150753
Zn16	Zn	1.394952	0.669130	0.650753
Zn17	Zn	0.894962	0.169137	-0.150411
Zn18	Zn	1.394962	0.669137	0.349589
O19	O	0.889889	0.351959	0.114451
O20	O	1.389889	0.851959	0.614451
C21	C	0.899277	-0.060479	0.000180
C22	C	1.399277	0.439521	0.500180
C23	C	0.897052	-0.199884	0.000177
C24	C	1.397052	0.300116	0.500177
C25	C	0.756632	0.178724	0.000143
C26	C	1.256632	0.678724	0.500143
C27	C	0.672599	0.176503	0.000126
C28	C	1.172599	0.676503	0.500126
C29	C	0.964873	-0.280556	0.000190
C30	C	1.464873	0.219444	0.500190
C31	C	0.962778	-0.411541	0.000173
C32	C	1.462778	0.088459	0.500173
C33	C	0.825036	-0.381166	0.000135
C34	C	1.325036	0.118834	0.500135
C35	C	0.827132	-0.250185	0.000142
C36	C	1.327132	0.249815	0.500142
C37	C	0.624699	0.289883	0.000120
C38	C	1.124699	0.789883	0.500120
C39	C	0.545743	0.287788	0.000138
C40	C	1.045743	0.787788	0.500138
C41	C	0.514688	0.172313	0.000152
C42	C	1.014688	0.672313	0.500152
C43	C	0.562594	0.058924	0.000161
C44	C	1.062594	0.558924	0.500161
C45	C	0.641549	0.061020	0.000153
C46	C	1.141549	0.561020	0.500153
C47	C	0.244177	0.050470	0.000196
C48	C	0.744177	0.550470	0.500196
C49	C	0.165216	0.048383	0.000200
C50	C	0.665216	0.548383	0.500200
C51	C	0.148371	0.277239	0.000180
C52	C	0.648371	0.777239	0.500180
C53	C	0.227326	0.279334	0.000172
C54	C	0.727326	0.779334	0.500172
C55	C	0.275225	0.165946	0.000189
C56	C	0.775225	0.665946	0.500189
C57	C	0.360839	0.168219	0.000172
C58	C	0.860839	0.668219	0.500172
C59	C	0.429076	0.170039	0.000159
C60	C	0.929076	0.670039	0.500159
C61	C	1.033282	0.159543	0.000196
C62	C	1.533282	0.659543	0.500196
C63	C	1.117314	0.161764	0.000204
C64	C	1.617314	0.661764	0.500204
C65	C	0.890637	0.398746	0.000159
C66	C	1.390637	0.898746	0.500159
C67	C	0.892861	0.538151	0.000153
C68	C	1.392861	1.038151	0.500153
N69	N	0.894951	0.169125	0.356289
N70	N	1.394951	0.669125	0.856289
N71	N	0.894969	0.169132	-0.355948
N72	N	1.394969	0.669132	0.144052
C73	C	0.945973	0.083630	0.428229
C74	C	1.445973	0.583630	0.928229
C75	C	0.945981	0.083630	0.572112
C76	C	1.445981	0.583630	1.072112
C77	C	0.843941	0.254631	0.572102
C78	C	1.343941	0.754631	1.072102
C79	C	0.843930	0.254624	0.428222
C80	C	1.343930	0.754624	0.928222
H81	H	1.021807	-0.239606	0.000216
H82	H	1.521807	0.260394	0.500216
Br83	Br	0.269468	0.436056	0.000141
Br84	Br	0.769468	0.936056	0.500141
Br85	Br	0.774675	0.370651	0.330577
Br86	Br	1.274675	0.870651	0.830577
Br87	Br	0.730148	-0.449441	0.000084
Br88	Br	1.230148	0.050559	0.500084
H89	H	0.680549	-0.031306	0.000157
H90	H	1.180549	0.468694	0.500157
H91	H	0.649978	0.383916	0.000108
H92	H	1.149978	0.883916	0.500108
H93	H	0.506745	0.380114	0.000132
H94	H	1.006745	0.880114	0.500132
H95	H	0.771900	-0.184497	0.000127
H96	H	1.271900	0.315503	0.500127
Br97	Br	0.774703	0.370664	0.669730
Br98	Br	1.274703	0.870664	1.169730
H99	H	0.109361	0.369564	0.000174
H100	H	0.609361	0.869564	0.500174
Br101	Br	1.054824	-0.521022	0.000183
Br102	Br	1.554824	-0.021022	0.500183
Br103	Br	0.123071	-0.108345	0.000214
Br104	Br	0.623071	0.391655	0.500214
H105	H	0.283168	-0.041858	0.000211
H106	H	0.783168	0.458142	0.500211
H107	H	0.537303	-0.035098	0.000192
H108	H	1.037303	0.464902	0.500192
H109	H	0.987516	0.014009	0.369665
H110	H	1.487516	0.514009	0.869665
Br111	Br	1.015225	-0.032409	0.669743
Br112	Br	1.515225	0.467591	1.169743
