data_functionalizedCrystal
_audit_creation_method	'MofGen! by Chris Wilmer'
_symmetry_space_group_name_H-M	'P1'
_symmetry_Int_Tables_number	1
_symmetry_cell_setting	triclinic
loop_
_symmetry_equiv_pos_as_xyz
  x,y,z
_cell_length_a	17.038272
_cell_length_b	17.019294
_cell_length_c	16.176319
_cell_angle_alpha	86.114226
_cell_angle_beta	89.998402
_cell_angle_gamma	87.244363
loop_
_atom_site_label
_atom_site_type_symbol
_atom_site_fract_x
_atom_site_fract_y
_atom_site_fract_z
O1	O	1.037224	0.171289	-0.080835
O2	O	1.537224	0.671289	0.419165
O3	O	0.809596	0.168569	-0.080666
O4	O	1.309596	0.668569	0.419334
O5	O	0.929759	0.055522	-0.072601
O6	O	1.429759	0.555522	0.427399
O7	O	0.917060	0.284336	-0.088899
O8	O	1.417060	0.784336	0.411101
O9	O	0.929743	0.055514	0.064893
O10	O	1.429743	0.555514	0.564893
O11	O	0.809579	0.168561	0.056828
O12	O	1.309579	0.668561	0.556828
O13	O	1.037207	0.171280	0.056659
O14	O	1.537207	0.671280	0.556659
Cu15	Cu	0.923392	0.169920	0.069298
Cu16	Cu	1.423392	0.669920	0.569298
Cu17	Cu	0.923411	0.169930	-0.093304
Cu18	Cu	1.423411	0.669930	0.406696
O19	O	0.917044	0.284327	0.048595
O20	O	1.417044	0.784327	0.548595
C21	C	0.780461	0.166091	-0.011746
C22	C	1.280461	0.666091	0.488254
C23	C	0.693675	0.158711	-0.011229
C24	C	1.193675	0.658711	0.488771
C25	C	0.643503	0.226471	-0.016055
C26	C	1.143503	0.726471	0.483945
C27	C	0.561958	0.219532	-0.015550
C28	C	1.061958	0.719532	0.484450
C29	C	0.530587	0.144832	-0.010224
C30	C	1.030587	0.644832	0.489776
C31	C	0.580765	0.077066	-0.005395
C32	C	1.080765	0.577066	0.494605
C33	C	0.662308	0.084006	-0.005895
C34	C	1.162308	0.584006	0.494105
C35	C	0.284850	0.120314	-0.008456
C36	C	0.784850	0.620314	0.491544
C37	C	0.203300	0.113379	-0.007959
C38	C	0.703300	0.613379	0.492041
C39	C	0.184499	0.255845	-0.018111
C40	C	0.684499	0.755845	0.481889
C41	C	0.266044	0.262779	-0.018616
C42	C	0.766044	0.762779	0.481384
C43	C	0.316215	0.195013	-0.013783
C44	C	0.816215	0.695013	0.486217
C45	C	0.447235	0.137737	-0.009710
C46	C	0.947235	0.637737	0.490290
C47	C	0.399565	0.202109	-0.014291
C48	C	0.899565	0.702109	0.485709
C49	C	0.929269	0.026096	-0.001761
C50	C	1.429269	0.526096	0.498239
C51	C	0.927824	-0.061571	0.004478
C52	C	1.427824	0.438429	0.504478
C53	C	0.927156	-0.102748	-0.067539
C54	C	1.427156	0.397252	0.432461
C55	C	0.925794	-0.185121	-0.061675
C56	C	1.425794	0.314879	0.438325
C57	C	0.925105	-0.226315	0.016207
C58	C	1.425105	0.273685	0.516207
C59	C	0.925770	-0.185132	0.088229
C60	C	1.425770	0.314868	0.588229
C61	C	0.927127	-0.102761	0.082364
C62	C	1.427127	0.397239	0.582364
C63	C	0.921001	-0.475024	0.037665
C64	C	1.421001	0.024976	0.537665
C65	C	0.919647	-0.557402	0.043525
C66	C	1.419647	-0.057402	0.543525
C67	C	0.919669	-0.557385	-0.106379
C68	C	1.419669	-0.057385	0.393621
C69	C	0.921030	-0.475012	-0.112237
C70	C	1.421030	0.024988	0.387763
C71	C	0.921692	-0.433836	-0.040216
C72	C	1.421692	0.066164	0.459784
C73	C	0.923714	-0.310514	0.022203
C74	C	1.423714	0.189486	0.522203
C75	C	0.923077	-0.349639	-0.046212
C76	C	1.423077	0.150361	0.453788
C77	C	1.066342	0.173759	-0.012263
C78	C	1.566342	0.673759	0.487737
C79	C	1.153129	0.181139	-0.012784
C80	C	1.653129	0.681139	0.487216
C81	C	0.917534	0.313753	-0.022248
C82	C	1.417534	0.813753	0.477752
C83	C	0.918979	0.401421	-0.028492
C84	C	1.418979	0.901421	0.471508
N85	N	0.923384	0.169912	0.183664
N86	N	1.423384	0.669912	0.683664
N87	N	0.923426	0.169932	-0.207670
N88	N	1.423426	0.669932	0.292330
C89	C	0.976608	0.119878	0.230497
C90	C	1.476608	0.619878	0.730497
C91	C	0.976612	0.119877	0.317044
C92	C	1.476612	0.619877	0.817044
C93	C	0.923395	0.169916	0.356756
C94	C	1.423395	0.669916	0.856756
C95	C	0.870165	0.219952	0.309916
C96	C	1.370165	0.719952	0.809916
C97	C	0.870157	0.219948	0.223371
C98	C	1.370157	0.719948	0.723371
C99	C	0.870191	0.219969	0.658943
C100	C	1.370191	0.719969	1.158943
C101	C	0.870204	0.219971	0.745495
C102	C	1.370204	0.719971	1.245495
C103	C	0.976646	0.119898	0.752616
C104	C	1.476646	0.619898	1.252616
C105	C	0.976639	0.119894	0.666071
C106	C	1.476639	0.619894	1.166071
C107	C	0.923406	0.169927	0.619239
C108	C	1.423406	0.669927	1.119239
C109	C	0.923402	0.169926	0.525395
C110	C	1.423402	0.669926	1.025395
C111	C	0.923403	0.169921	0.450598
C112	C	1.423403	0.669921	0.950598
H113	H	0.669038	0.287300	-0.020393
H114	H	1.169038	0.787300	0.479607
N115	N	0.918957	-0.601796	-0.184055
N116	N	1.418957	-0.101796	0.315945
H117	H	0.870760	-0.584315	-0.218077
H118	H	1.370760	-0.084315	0.281923
H119	H	0.967672	-0.590580	-0.217541
H120	H	1.467672	-0.090580	0.282459
N121	N	0.507811	0.292593	-0.020740
N122	N	1.007811	0.792593	0.479260
H123	H	0.473574	0.292856	0.030220
H124	H	0.973574	0.792856	0.530220
H125	H	0.540079	0.340950	-0.024219
H126	H	1.040079	0.840950	0.475781
N127	N	0.299867	0.343354	-0.024370
N128	N	0.799867	0.843354	0.475630
H129	H	0.281567	0.373291	0.024465
H130	H	0.781567	0.873291	0.524465
H131	H	0.359132	0.337411	-0.023986
H132	H	0.859132	0.837411	0.476014
H133	H	0.826849	0.260709	0.620819
H134	H	1.326849	0.760709	1.120819
N135	N	0.413396	0.057169	-0.003982
N136	N	0.913396	0.557169	0.496018
H137	H	0.457550	0.015291	-0.001006
H138	H	0.957550	0.515291	0.498994
H139	H	0.379974	0.051183	0.047416
H140	H	0.879974	0.551183	0.547416
N141	N	0.925112	-0.229497	-0.139376
N142	N	1.425112	0.270503	0.360624
H143	H	0.876118	-0.260537	-0.140570
H144	H	1.376118	0.239463	0.359430
H145	H	0.925801	-0.190819	-0.189529
H146	H	1.425801	0.309181	0.310471
N147	N	0.925036	-0.229561	0.172231
N148	N	1.425036	0.270439	0.672231
H149	H	0.876038	-0.260601	0.177782
H150	H	1.376038	0.239399	0.677782
H151	H	0.972951	-0.266831	0.178173
H152	H	1.472951	0.233169	0.678173
H153	H	0.826830	0.260691	0.342255
H154	H	1.326830	0.760691	0.842255
N155	N	0.812747	0.273909	0.172854
N156	N	1.312747	0.773909	0.672854
H157	H	0.779035	0.305609	0.211142
H158	H	1.279035	0.805609	0.711142
H159	H	0.842628	0.310806	0.134306
H160	H	1.342628	0.810806	0.634306
N161	N	0.918906	-0.601836	0.127529
N162	N	1.418906	-0.101836	0.627529
H163	H	0.919530	-0.563253	0.172266
H164	H	1.419530	-0.063253	0.672266
H165	H	0.869903	-0.632874	0.132993
H166	H	1.369903	-0.132874	0.632993
H167	H	0.927660	-0.069235	0.141008
H168	H	1.427660	0.430765	0.641008
N169	N	1.034045	0.065941	0.367556
N170	N	1.534045	0.565941	0.867556
H171	H	1.067769	0.034256	0.329266
H172	H	1.567769	0.534256	0.829266
H173	H	1.068557	0.098513	0.401120
H174	H	1.568557	0.598513	0.901120
H175	H	0.177762	0.052545	-0.003622
H176	H	0.677762	0.552545	0.496378
N177	N	0.921776	-0.430582	-0.196238
N178	N	1.421776	0.069418	0.303762
H179	H	0.921145	-0.469167	-0.240972
H180	H	1.421145	0.030833	0.259028
H181	H	0.873899	-0.393261	-0.202166
H182	H	1.373899	0.106739	0.297834
H183	H	0.921556	-0.441510	0.096311
H184	H	1.421556	0.058490	0.596311
H185	H	1.019976	0.079151	0.633741
H186	H	1.519976	0.579151	1.133741
H187	H	0.143641	0.311016	-0.022044
H188	H	0.643641	0.811016	0.477956
H189	H	0.927722	-0.069214	-0.130958
H190	H	1.427722	0.430786	0.369042
N191	N	1.034005	0.065893	0.187682
N192	N	1.534005	0.565893	0.687682
H193	H	1.004164	0.028944	0.154419
H194	H	1.504164	0.528944	0.654419
H195	H	1.068576	0.098420	0.149494
H196	H	1.568576	0.598420	0.649494
N197	N	1.034063	0.065930	0.803128
N198	N	1.534063	0.565930	1.303128
H199	H	1.025994	0.073521	0.863980
H200	H	1.525994	0.573521	1.363980
H201	H	1.025100	0.009360	0.792035
H202	H	1.525100	0.509360	1.292035
N203	N	0.338957	0.047227	-0.003238
N204	N	0.838957	0.547227	0.496762
H205	H	0.306707	-0.001146	0.000210
H206	H	0.806707	0.498854	0.500210
H207	H	0.373203	0.046999	-0.054190
H208	H	0.873203	0.546999	0.445810
H209	H	0.923632	-0.316094	-0.109623
H210	H	1.423632	0.183906	0.390377
H211	H	0.555216	0.016243	-0.001047
H212	H	1.055216	0.516243	0.498953
H213	H	0.425111	0.262930	-0.018623
H214	H	0.925111	0.762930	0.481377
N215	N	0.716426	0.010923	-0.000684
N216	N	1.216426	0.510923	0.499316
H217	H	0.684181	-0.037454	0.002765
H218	H	1.184181	0.462546	0.502765
H219	H	0.750670	0.010698	-0.051639
H220	H	1.250670	0.510698	0.448361
H221	H	0.923156	-0.344064	0.085615
H222	H	1.423156	0.155936	0.585615
H223	H	0.826865	0.260719	0.777826
H224	H	1.326865	0.760719	1.277826
