data_functionalizedCrystal
_audit_creation_method	'MofGen! by Chris Wilmer'
_symmetry_space_group_name_H-M	'P1'
_symmetry_Int_Tables_number	1
_symmetry_cell_setting	triclinic
loop_
_symmetry_equiv_pos_as_xyz
  x,y,z
_cell_length_a	14.044209
_cell_length_b	14.044220
_cell_length_c	12.503572
_cell_angle_alpha	93.843168
_cell_angle_beta	86.165405
_cell_angle_gamma	93.188415
loop_
_atom_site_label
_atom_site_type_symbol
_atom_site_fract_x
_atom_site_fract_y
_atom_site_fract_z
O1	O	-1.282200	-0.225107	0.089194
O2	O	-1.032200	0.024893	0.339194
O3	O	-0.782200	0.274893	0.589194
O4	O	-0.532200	0.524893	0.839194
O5	O	-1.005530	-0.216802	0.089225
O6	O	-0.755530	0.033198	0.339225
O7	O	-0.505530	0.283198	0.589225
O8	O	-0.255530	0.533198	0.839225
O9	O	-1.139711	-0.082619	0.089199
O10	O	-0.889711	0.167381	0.339199
O11	O	-0.639711	0.417381	0.589199
O12	O	-0.389711	0.667381	0.839199
O13	O	-1.148018	-0.359289	0.089220
O14	O	-0.898018	-0.109289	0.339220
O15	O	-0.648018	0.140711	0.589220
O16	O	-0.398018	0.390711	0.839220
O17	O	-1.129622	-0.092729	-0.089441
O18	O	-0.879622	0.157271	0.160559
O19	O	-0.629622	0.407271	0.410559
O20	O	-0.379622	0.657271	0.660559
O21	O	-0.995440	-0.226911	-0.089415
O22	O	-0.745440	0.023089	0.160585
O23	O	-0.495440	0.273089	0.410585
O24	O	-0.245440	0.523089	0.660585
O25	O	-1.272110	-0.235216	-0.089446
O26	O	-1.022110	0.014784	0.160554
O27	O	-0.772110	0.264784	0.410554
O28	O	-0.522110	0.514784	0.660554
Cu29	Cu	-1.132854	-0.231987	-0.105742
Cu30	Cu	-0.882854	0.018013	0.144258
Cu31	Cu	-0.632854	0.268013	0.394258
Cu32	Cu	-0.382854	0.518013	0.644258
Cu33	Cu	-1.144786	-0.220031	0.105521
Cu34	Cu	-0.894786	0.029969	0.355521
Cu35	Cu	-0.644786	0.279969	0.605521
Cu36	Cu	-0.394786	0.529969	0.855521
O37	O	-1.137928	-0.369399	-0.089420
O38	O	-0.887928	-0.119399	0.160580
O39	O	-0.637928	0.130601	0.410580
O40	O	-0.387928	0.380601	0.660580
C41	C	-0.964863	-0.218221	-0.000092
C42	C	-0.714863	0.031779	0.249908
C43	C	-0.464863	0.281779	0.499908
C44	C	-0.214863	0.531779	0.749908
C45	C	-0.858721	-0.207376	-0.000080
C46	C	-0.608721	0.042624	0.249920
C47	C	-0.358721	0.292624	0.499920
C48	C	-0.108721	0.542624	0.749920
N49	N	-1.124468	-0.240396	-0.254333
N50	N	-0.874468	0.009604	-0.004333
N51	N	-0.624468	0.259604	0.245667
N52	N	-0.374468	0.509604	0.495667
C53	C	-1.131031	-0.052052	-0.000121
C54	C	-0.881031	0.197948	0.249879
C55	C	-0.631031	0.447948	0.499879
C56	C	-0.381031	0.697948	0.749879
C57	C	-1.120186	0.054091	-0.000121
C58	C	-0.870186	0.304091	0.249879
C59	C	-0.620186	0.554091	0.499879
C60	C	-0.370186	0.804091	0.749879
C61	C	-0.664382	-0.187553	-0.000101
C62	C	-0.414382	0.062447	0.249899
C63	C	-0.164382	0.312447	0.499899
C64	C	0.085618	0.562447	0.749899
C65	C	-0.613252	-0.264468	-0.000099
C66	C	-0.363252	-0.014468	0.249901
C67	C	-0.113252	0.235532	0.499901
C68	C	0.136748	0.485532	0.749901
C69	C	-0.505116	-0.253437	-0.000110
C70	C	-0.255116	-0.003437	0.249890
C71	C	-0.005116	0.246563	0.499890
C72	C	0.244884	0.496563	0.749890
C73	C	-0.772529	-0.198581	-0.000089
C74	C	-0.522529	0.051419	0.249911
C75	C	-0.272529	0.301419	0.499911
C76	C	-0.022529	0.551419	0.749911
C77	C	-0.312777	-0.233799	-0.000124
C78	C	-0.062777	0.016201	0.249876
C79	C	0.187223	0.266201	0.499876
C80	C	0.437223	0.516201	0.749876
C81	C	-0.418919	-0.244648	-0.000119
C82	C	-0.168919	0.005352	0.249881
C83	C	0.081081	0.255352	0.499881
C84	C	0.331081	0.505352	0.749881
C85	C	-1.146609	-0.399966	-0.000098
C86	C	-0.896609	-0.149966	0.249902
C87	C	-0.646609	0.100034	0.499902
C88	C	-0.396609	0.350034	0.749902
C89	C	-1.157454	-0.506108	-0.000091
C90	C	-0.907454	-0.256108	0.249909
C91	C	-0.657454	-0.006108	0.499909
C92	C	-0.407454	0.243892	0.749909
C93	C	-1.100361	0.248429	-0.000103
C94	C	-0.850361	0.498429	0.249897
C95	C	-0.600361	0.748429	0.499897
C96	C	-0.350361	0.998429	0.749897
C97	C	-1.177275	0.299559	-0.000108
C98	C	-0.927275	0.549559	0.249892
C99	C	-0.677275	0.799559	0.499892
C100	C	-0.427275	1.049559	0.749892
C101	C	-1.166244	0.407696	-0.000099
C102	C	-0.916244	0.657696	0.249901
C103	C	-0.666244	0.907696	0.499901
C104	C	-0.416244	1.157696	0.749901
C105	C	-1.111391	0.140283	-0.000113
C106	C	-0.861391	0.390283	0.249887
C107	C	-0.611391	0.640283	0.499887
C108	C	-0.361391	0.890283	0.749887
C109	C	-1.112133	-0.252774	-0.473445
C110	C	-0.862133	-0.002774	-0.223445
C111	C	-0.612133	0.247226	0.026555
C112	C	-0.362133	0.497226	0.276555
C113	C	-1.165511	-0.199240	-0.526783
C114	C	-0.915511	0.050760	-0.276783
C115	C	-0.665511	0.300760	-0.026783
C116	C	-0.415511	0.550760	0.223217
C117	C	-1.158647	-0.206127	-0.648705
C118	C	-0.908647	0.043873	-0.398705
C119	C	-0.658647	0.293873	-0.148705
C120	C	-0.408647	0.543873	0.101295
C121	C	-1.118995	-0.245888	-0.351512
C122	C	-0.868995	0.004112	-0.101512
C123	C	-0.618995	0.254112	0.148488
C124	C	-0.368995	0.504112	0.398488
N125	N	-1.153179	-0.211615	0.254111
N126	N	-0.903179	0.038385	0.504111
N127	N	-0.653179	0.288385	0.754111
N128	N	-0.403179	0.538385	1.004111
H129	H	-0.626945	-0.113426	-0.000111
H130	H	-0.376945	0.136574	0.249889
H131	H	-0.126945	0.386574	0.499889
H132	H	0.123055	0.636574	0.749889
H133	H	-1.251412	0.262124	-0.000045
H134	H	-1.001412	0.512124	0.249955
H135	H	-0.751412	0.762124	0.499955
H136	H	-0.501412	1.012124	0.749955
H137	H	-1.061285	-0.303776	-0.519343
H138	H	-0.811285	-0.053776	-0.269343
H139	H	-0.561285	0.196224	-0.019343
H140	H	-0.311285	0.446224	0.230657
N141	N	-1.002167	0.298011	-0.000091
N142	N	-0.752167	0.548011	0.249909
N143	N	-0.502167	0.798011	0.499909
N144	N	-0.252167	1.048011	0.749909
H145	H	-1.008108	0.369351	-0.000089
H146	H	-0.758108	0.619351	0.249911
H147	H	-0.508108	0.869351	0.499911
H148	H	-0.258108	1.119351	0.749911
H149	H	-0.962620	0.275139	-0.066317
H150	H	-0.712620	0.525139	0.183683
H151	H	-0.462620	0.775139	0.433683
H152	H	-0.212620	1.025139	0.683683
H153	H	-0.650692	-0.338600	-0.000089
H154	H	-0.400692	-0.088600	0.249911
H155	H	-0.150692	0.161400	0.499911
H156	H	0.099308	0.411400	0.749911
H157	H	-1.216363	-0.148236	-0.480879
H158	H	-0.966363	0.101764	-0.230879
H159	H	-0.716363	0.351764	0.019121
H160	H	-0.466363	0.601764	0.269121
