data_functionalizedCrystal
_audit_creation_method	'MofGen! by Chris Wilmer'
_symmetry_space_group_name_H-M	'P1'
_symmetry_Int_Tables_number	1
_symmetry_cell_setting	triclinic
loop_
_symmetry_equiv_pos_as_xyz
  x,y,z
_cell_length_a	19.188930
_cell_length_b	15.944551
_cell_length_c	15.021413
_cell_angle_alpha	89.996935
_cell_angle_beta	90.021167
_cell_angle_gamma	83.321759
loop_
_atom_site_label
_atom_site_type_symbol
_atom_site_fract_x
_atom_site_fract_y
_atom_site_fract_z
O1	O	-0.926420	-0.104855	-0.074320
O2	O	-0.426420	0.395145	0.425680
O3	O	-0.723145	-0.118971	-0.074259
O4	O	-0.223145	0.381029	0.425741
O5	O	-0.830333	0.010383	-0.074283
O6	O	-0.330333	0.510383	0.425717
O7	O	-0.819231	-0.234209	-0.074296
O8	O	-0.319231	0.265791	0.425704
O9	O	-0.830316	0.010364	0.073781
O10	O	-0.330316	0.510364	0.573781
O11	O	-0.723128	-0.118990	0.073805
O12	O	-0.223128	0.381010	0.573805
O13	O	-0.926403	-0.104873	0.073744
O14	O	-0.426403	0.395127	0.573744
Zn15	Zn	-0.824763	-0.111934	0.097283
Zn16	Zn	-0.324763	0.388066	0.597283
Zn17	Zn	-0.824785	-0.111910	-0.097798
Zn18	Zn	-0.324785	0.388090	0.402202
O19	O	-0.819214	-0.234227	0.073768
O20	O	-0.319214	0.265773	0.573768
C21	C	-0.697124	-0.118524	-0.000219
C22	C	-0.197124	0.381476	0.499781
C23	C	-0.619616	-0.117151	-0.000196
C24	C	-0.119616	0.382849	0.499804
C25	C	-0.952423	-0.105321	-0.000298
C26	C	-0.452423	0.394679	0.499702
C27	C	-1.029932	-0.106693	-0.000327
C28	C	-0.529932	0.393307	0.499673
C29	C	-0.574889	-0.193052	-0.000214
C30	C	-0.074889	0.306948	0.499786
C31	C	-0.502061	-0.191763	-0.000224
C32	C	-0.002061	0.308237	0.499776
C33	C	-0.473965	-0.114568	-0.000233
C34	C	0.026035	0.385432	0.499767
C35	C	-0.518703	-0.038658	-0.000210
C36	C	-0.018703	0.461342	0.499790
C37	C	-0.591528	-0.039949	-0.000192
C38	C	-0.091528	0.460051	0.499808
N39	N	-0.365838	-0.055557	-0.050659
N40	N	0.134162	0.444443	0.449341
N41	N	-0.296657	-0.054335	-0.050678
N42	N	0.203343	0.445665	0.449322
C43	C	-0.254547	-0.110673	-0.000288
C44	C	0.245453	0.389327	0.499712
N45	N	-0.284230	-0.168291	0.050112
N46	N	0.215770	0.331709	0.550112
N47	N	-0.353418	-0.169515	0.050128
N48	N	0.146582	0.330485	0.550128
C49	C	-0.394999	-0.113160	-0.000253
C50	C	0.105001	0.386840	0.499747
C51	C	-0.130851	-0.185181	-0.000315
C52	C	0.369149	0.314819	0.499685
C53	C	-0.058023	-0.183888	-0.000319
C54	C	0.441977	0.316112	0.499681
C55	C	-0.074666	-0.030781	-0.000315
C56	C	0.425334	0.469219	0.499685
C57	C	-0.147492	-0.032076	-0.000302
C58	C	0.352508	0.467924	0.499698
C59	C	-0.175580	-0.109278	-0.000306
C60	C	0.324420	0.390722	0.499694
C61	C	-0.829864	0.041666	-0.000251
C62	C	-0.329864	0.541666	0.499749
C63	C	-0.828482	0.134906	-0.000250
C64	C	-0.328482	0.634906	0.499750
C65	C	-0.819684	-0.265510	-0.000266
C66	C	-0.319684	0.234490	0.499734
C67	C	-0.821066	-0.358751	-0.000273
C68	C	-0.321066	0.141249	0.499727
N69	N	-0.824752	-0.111951	0.230420
N70	N	-0.324752	0.388049	0.730420
C71	C	-0.758739	0.349502	-0.000242
C72	C	-0.258739	0.849502	0.499758
C73	C	-0.791117	0.410631	0.072753
C74	C	-0.291117	0.910631	0.572753
C75	C	-0.825983	0.305623	-0.000256
C76	C	-0.325983	0.805623	0.499744
C77	C	-0.791150	0.410633	-0.073226
C78	C	-0.291150	0.910633	0.426774
C79	C	-0.823563	0.470527	-0.000266
C80	C	-0.323563	0.970527	0.499734
C81	C	-0.858379	0.365524	0.072799
C82	C	-0.358379	0.865524	0.572799
C83	C	-0.858402	0.365519	-0.073246
C84	C	-0.358402	0.865519	0.426754
C85	C	-0.890829	0.426631	-0.000234
C86	C	-0.390829	0.926631	0.499766
C87	C	-0.827374	0.210626	-0.000250
C88	C	-0.327374	0.710626	0.499750
C89	C	-0.822176	0.565522	-0.000266
C90	C	-0.322176	1.065522	0.499734
N91	N	-0.824801	-0.111887	-0.230936
N92	N	-0.324801	0.388113	0.269064
C93	C	-0.775181	-0.171736	0.470115
C94	C	-0.275181	0.328264	0.970115
C95	C	-0.838271	-0.187807	0.529429
C96	C	-0.338271	0.312193	1.029429
C97	C	-0.824770	-0.111929	0.412027
C98	C	-0.324770	0.388071	0.912027
C99	C	-0.761697	-0.095877	0.529455
C100	C	-0.261697	0.404123	1.029455
C101	C	-0.824782	-0.111911	0.587451
C102	C	-0.324782	0.388089	1.087451
C103	C	-0.887892	-0.128038	0.470035
C104	C	-0.387892	0.371962	0.970035
C105	C	-0.811277	-0.036076	0.470056
C106	C	-0.311277	0.463924	0.970056
C107	C	-0.874413	-0.052114	0.529343
C108	C	-0.374413	0.447886	1.029343
C109	C	-0.824763	-0.111942	0.310970
C110	C	-0.324763	0.388058	0.810970
C111	C	-0.824797	-0.111898	0.688507
C112	C	-0.324797	0.388102	1.188507
H113	H	-0.597753	-0.255916	-0.000219
H114	H	-0.097753	0.244084	0.499781
H115	H	-0.465637	-0.253572	-0.000236
H116	H	0.034363	0.246428	0.499764
F117	F	-0.488800	0.043498	-0.000216
F118	F	0.011200	0.543498	0.499784
H119	H	-0.051791	0.032072	-0.000378
H120	H	0.448209	0.532072	0.499622
H121	H	-0.708353	-0.082309	0.555557
H122	H	-0.208353	0.417691	1.055557
H123	H	-0.762707	0.430611	-0.134942
H124	H	-0.262707	0.930611	0.365058
H125	H	-0.941248	-0.141684	0.444045
H126	H	-0.441248	0.358316	0.944045
H127	H	-0.021605	-0.245698	-0.000328
H128	H	0.478395	0.254302	0.499672
H129	H	-0.627946	0.021860	-0.000178
H130	H	-0.127946	0.521860	0.499822
F131	F	-0.685785	0.305695	-0.000129
F132	F	-0.185785	0.805695	0.499871
H133	H	-0.733287	-0.222353	0.444109
H134	H	-0.233287	0.277647	0.944109
F135	F	-0.929291	0.014006	0.563127
F136	F	-0.429291	0.514006	1.063127
F137	F	-0.195097	0.048709	-0.000287
F138	F	0.304903	0.548709	0.499713
H139	H	-0.153721	-0.248043	-0.000305
H140	H	0.346279	0.251957	0.499695
H141	H	-0.762669	0.430626	0.134481
H142	H	-0.262669	0.930626	0.634481
F143	F	-0.895516	0.339528	0.153548
F144	F	-0.395516	0.839528	0.653548
H145	H	-0.946693	0.459999	-0.000209
H146	H	-0.446693	0.959999	0.499791
H147	H	-0.886826	0.345503	-0.134978
H148	H	-0.386826	0.845503	0.365022
F149	F	-0.853203	-0.271641	0.563518
F150	F	-0.353203	0.228359	1.063518
H151	H	-0.799834	0.028043	0.443955
H152	H	-0.299834	0.528043	0.943955
