data_functionalizedCrystal
_audit_creation_method	'MofGen! by Chris Wilmer'
_symmetry_space_group_name_H-M	'P1'
_symmetry_Int_Tables_number	1
_symmetry_cell_setting	triclinic
loop_
_symmetry_equiv_pos_as_xyz
  x,y,z
_cell_length_a	14.971491
_cell_length_b	10.654550
_cell_length_c	14.048226
_cell_angle_alpha	89.999325
_cell_angle_beta	90.006698
_cell_angle_gamma	95.949418
loop_
_atom_site_label
_atom_site_type_symbol
_atom_site_fract_x
_atom_site_fract_y
_atom_site_fract_z
O1	O	1.187833	-0.163685	0.079195
O2	O	0.927540	-0.183277	0.079187
O3	O	1.063671	0.009322	0.079192
O4	O	1.051702	-0.356284	0.079190
O5	O	1.063658	0.009324	-0.079129
O6	O	0.927527	-0.183275	-0.079134
O7	O	1.187820	-0.163683	-0.079126
Zn8	Zn	1.057672	-0.173479	-0.104267
Zn9	Zn	1.057689	-0.173481	0.104328
O10	O	1.051689	-0.356282	-0.079131
C11	C	0.894204	-0.182399	0.000026
C12	C	0.794893	-0.179769	0.000023
C13	C	0.367133	-0.168425	0.086346
C14	C	0.460447	-0.170892	0.086343
C15	C	0.507092	-0.172133	0.000038
C16	C	0.460420	-0.170894	-0.086268
C17	C	0.367109	-0.168418	-0.086263
C18	C	0.654910	-0.176056	-0.086272
C19	C	0.748227	-0.178534	-0.086277
C20	C	0.748248	-0.178530	0.086334
C21	C	0.654937	-0.176055	0.086339
C22	C	0.608271	-0.174818	0.000032
C23	C	1.062786	0.056112	0.000034
C24	C	1.060157	0.195527	0.000040
C25	C	1.221156	-0.164561	0.000037
C26	C	1.320467	-0.167191	0.000046
C27	C	1.052574	-0.403072	0.000030
C28	C	1.055204	-0.542487	0.000029
C29	C	1.056448	0.392027	0.086334
C30	C	1.058928	0.261033	0.086340
C31	C	1.058914	0.261023	-0.086271
C32	C	1.056441	0.392015	-0.086276
N33	N	1.057666	-0.173477	-0.246628
C34	C	1.112384	-0.249774	-0.296440
C35	C	1.112395	-0.249769	-0.396098
C36	C	1.057684	-0.173472	-0.445941
C37	C	1.002964	-0.097166	-0.396122
C38	C	1.002958	-0.097165	-0.296466
C39	C	1.002979	-0.097174	-0.603836
C40	C	1.002984	-0.097176	-0.703499
C41	C	1.112416	-0.249778	-0.703468
C42	C	1.112410	-0.249777	-0.603812
C43	C	1.057689	-0.173473	-0.553999
N44	N	1.057701	-0.173473	0.246689
H45	H	0.498439	-0.171890	0.156616
Cl46	Cl	1.181167	-0.345698	-0.233790
H47	H	0.498407	-0.171896	-0.156539
Cl48	Cl	0.596297	-0.174506	0.194837
H49	H	0.958421	-0.035037	-0.436712
Cl50	Cl	1.181170	-0.345724	-0.541153
H51	H	0.958420	-0.035037	-0.563281
Cl52	Cl	0.308444	-0.166854	-0.194759
H53	H	0.958401	-0.035036	-0.255910
H54	H	1.059943	0.207720	0.156617
H55	H	1.055430	0.445336	-0.156560
H56	H	1.059921	0.207678	-0.156537
H57	H	1.055440	0.445351	0.156609
H58	H	0.786247	-0.179539	0.156608
H59	H	1.156953	-0.311895	-0.436651
Cl60	Cl	0.806867	-0.180084	-0.194775
H61	H	0.616916	-0.175065	-0.156552
Cl62	Cl	1.181212	-0.345698	-0.766089
H63	H	0.329160	-0.167424	0.156625
Cl64	Cl	0.934208	-0.001250	-0.766158
