data_functionalizedCrystal
_audit_creation_method	'MofGen! by Chris Wilmer'
_symmetry_space_group_name_H-M	'P1'
_symmetry_Int_Tables_number	1
_symmetry_cell_setting	triclinic
loop_
_symmetry_equiv_pos_as_xyz
  x,y,z
_cell_length_a	12.759395
_cell_length_b	21.295417
_cell_length_c	12.759387
_cell_angle_alpha	90.037489
_cell_angle_beta	90.019431
_cell_angle_gamma	90.029548
loop_
_atom_site_label
_atom_site_type_symbol
_atom_site_fract_x
_atom_site_fract_y
_atom_site_fract_z
Zn1	Zn	1.606159	-0.250579	0.593926
Zn2	Zn	1.606004	-0.355862	0.418226
Zn3	Zn	1.430457	-0.250610	0.418266
Zn4	Zn	1.430404	-0.355814	0.593868
O5	O	1.518256	-0.303216	0.506072
O6	O	1.753160	-0.264552	0.570626
O7	O	1.582675	-0.341933	0.271210
O8	O	1.453852	-0.162516	0.441609
O9	O	1.753045	-0.341902	0.441540
O10	O	1.582939	-0.162493	0.570665
O11	O	1.453701	-0.264605	0.271240
O12	O	1.283429	-0.264558	0.441553
O13	O	1.453761	-0.341821	0.740897
O14	O	1.283390	-0.341851	0.570567
O15	O	1.582887	-0.264505	0.740940
O16	O	1.582623	-0.443945	0.441484
O17	O	1.453610	-0.443909	0.570528
C18	C	1.245288	-0.303203	0.506059
C19	C	1.128512	-0.303213	0.506078
C20	C	1.128611	-0.222798	0.640713
C21	C	1.073800	-0.182598	0.708038
C22	C	0.964079	-0.182609	0.708051
C23	C	0.909166	-0.222823	0.640729
C24	C	0.963977	-0.263023	0.573404
C25	C	1.073701	-0.263009	0.573400
C26	C	0.963877	-0.343434	0.438765
C27	C	1.073599	-0.343427	0.438756
C28	C	0.908964	-0.383649	0.371443
C29	C	0.963775	-0.423853	0.304121
C30	C	1.073503	-0.423840	0.304112
C31	C	1.128410	-0.383627	0.371430
C32	C	1.518122	-0.466768	0.506018
C33	C	1.518161	-0.536736	0.506031
C34	C	1.585338	-0.569533	0.573279
C35	C	1.585375	-0.635276	0.573304
C36	C	1.518246	-0.668218	0.506064
C37	C	1.451056	-0.635413	0.438811
C38	C	1.451013	-0.569671	0.438795
N39	N	1.510305	-0.771487	0.414117
N40	N	1.510352	-0.833938	0.414136
C41	C	1.518369	-0.866293	0.506111
N42	N	1.526358	-0.833837	0.598069
N43	N	1.526317	-0.771380	0.598049
C44	C	1.518284	-0.739503	0.506075
C45	C	1.585590	-0.970376	0.573393
C46	C	1.585620	-1.036120	0.573421
C47	C	1.451306	-1.036255	0.438918
C48	C	1.451270	-0.970513	0.438900
C49	C	1.518418	-0.937577	0.506136
C50	C	1.792289	-0.303229	0.506085
C51	C	1.909066	-0.303234	0.506091
C52	C	1.518335	-0.303154	0.780105
C53	C	1.518369	-0.303128	0.896882
C54	C	1.518419	-0.139026	0.506148
C55	C	1.518489	-0.069057	0.506181
C56	C	1.518237	-0.303232	0.233104
C57	C	1.518407	-0.303081	0.116328
C58	C	1.652838	-0.222624	0.896946
C59	C	1.720087	-0.182363	0.951839
C60	C	1.720113	-0.182340	1.061560
C61	C	1.652880	-0.222581	1.116392
C62	C	1.585631	-0.262843	1.061499
C63	C	1.585615	-0.262863	0.951775
C64	C	1.451158	-0.343342	1.061435
C65	C	1.451136	-0.343369	0.951713
C66	C	1.383925	-0.383583	1.116267
C67	C	1.316680	-0.423849	1.061374
C68	C	1.316658	-0.423870	0.951645
C69	C	1.383887	-0.383630	0.896821
H70	H	0.819824	-0.222824	0.640737
O71	O	1.384067	-0.383652	0.790238
C72	C	1.484730	-0.399852	0.753595
H73	H	1.545264	-0.389096	0.816849
H74	H	1.503434	-0.371471	0.680215
H75	H	1.486891	-0.452086	0.734091
H76	H	1.396308	-0.542967	0.384033
H77	H	1.652898	-0.222554	1.205733
O78	O	1.235194	-0.222794	0.640900
C79	C	1.271879	-0.239053	0.741530
H80	H	1.208678	-0.228350	0.802084
H81	H	1.345310	-0.210670	0.760296
H82	H	1.291311	-0.291285	0.743584
O83	O	1.650832	-0.938475	0.638816
C84	C	1.710142	-0.981524	0.698171
H85	H	1.667138	-1.028409	0.701777
H86	H	1.721282	-0.962483	0.780956
H87	H	1.789966	-0.988491	0.659780
H88	H	1.774866	-0.149552	1.106254
O89	O	1.650482	-0.667177	0.638739
C90	C	1.590655	-0.705218	0.706532
H91	H	1.507896	-0.685442	0.712958
H92	H	1.628618	-0.705915	0.787416
H93	H	1.587071	-0.755056	0.674045
H94	H	1.383947	-0.383559	1.205608
O95	O	1.650730	-1.068008	0.638862
C96	C	1.590913	-1.106044	0.706671
H97	H	1.508151	-1.086274	0.713092
H98	H	1.628879	-1.106728	0.787553
H99	H	1.587339	-1.155887	0.674202
O100	O	1.385796	-0.667479	0.373639
C101	C	1.317917	-0.705504	0.433407
H102	H	1.354939	-0.715295	0.513059
H103	H	1.303890	-0.751761	0.390611
H104	H	1.240036	-0.680206	0.444880
H105	H	0.919056	-0.456589	0.249309
O106	O	0.802381	-0.383716	0.371624
C107	C	0.765761	-0.399950	0.472274
H108	H	0.828997	-0.427419	0.515611
H109	H	0.692337	-0.430138	0.464661
H110	H	0.746335	-0.355421	0.517938
H111	H	1.261939	-0.456606	1.106026
O112	O	1.386037	-1.068315	0.373749
C113	C	1.318154	-1.106334	0.433524
H114	H	1.355178	-1.116126	0.513175
H115	H	1.304115	-1.152591	0.390731
H116	H	1.240279	-1.081029	0.445000
H117	H	1.118523	-0.149855	0.762849
H118	H	1.396573	-0.943807	0.384136
H119	H	1.640011	-0.542719	0.628029
H120	H	0.919452	-0.149871	0.762868
O121	O	1.652905	-0.222750	0.790363
C122	C	1.679775	-0.283097	0.753678
H123	H	1.725562	-0.309113	0.816899
H124	H	1.730138	-0.278613	0.680278
H125	H	1.605354	-0.310362	0.734190
O126	O	1.126581	-0.462952	0.238678
C127	C	1.054581	-0.498432	0.179247
H128	H	0.976384	-0.500650	0.222280
H129	H	1.086244	-0.548018	0.167877
H130	H	1.042893	-0.475319	0.099530
O131	O	1.234993	-0.383618	0.371615
C132	C	1.271684	-0.399873	0.472245
H133	H	1.208483	-0.389175	0.532801
H134	H	1.345110	-0.371483	0.491007
H135	H	1.291130	-0.452103	0.474298
O136	O	1.785284	-0.143187	0.898620
C137	C	1.762424	-0.080439	0.925478
H138	H	1.678503	-0.077243	0.955631
H139	H	1.771498	-0.049357	0.853336
H140	H	1.818785	-0.063978	0.989182
H141	H	1.261884	-0.456649	0.906958
