data_functionalizedCrystal
_audit_creation_method	'MofGen! by Chris Wilmer'
_symmetry_space_group_name_H-M	'P1'
_symmetry_Int_Tables_number	1
_symmetry_cell_setting	triclinic
loop_
_symmetry_equiv_pos_as_xyz
  x,y,z
_cell_length_a	10.489711
_cell_length_b	10.489741
_cell_length_c	8.965430
_cell_angle_alpha	90.000707
_cell_angle_beta	89.994616
_cell_angle_gamma	84.533091
loop_
_atom_site_label
_atom_site_type_symbol
_atom_site_fract_x
_atom_site_fract_y
_atom_site_fract_z
O1	O	1.694075	0.179778	-0.124092
O2	O	1.322875	0.196710	-0.124084
O3	O	1.516922	0.002645	-0.124079
O4	O	1.500029	0.373843	-0.124097
O5	O	1.516905	0.002658	0.124000
O6	O	1.322859	0.196723	0.123995
O7	O	1.694059	0.179791	0.123986
Cu8	Cu	1.508457	0.188258	0.146642
Cu9	Cu	1.508477	0.188243	-0.146740
O10	O	1.500012	0.373856	0.123982
C11	C	1.275334	0.195446	-0.000043
C12	C	1.133703	0.191644	-0.000039
C13	C	0.951317	0.308348	-0.000062
C14	C	1.043470	0.250046	-0.122373
C15	C	1.043427	0.250028	0.122214
C16	C	0.973519	0.126504	-0.122483
C17	C	0.973466	0.126502	0.122213
C18	C	1.065593	0.068111	-0.000127
C19	C	1.515638	-0.044880	-0.000041
C20	C	1.511820	-0.186509	-0.000043
C21	C	1.388354	-0.254636	-0.000051
C22	C	1.446670	-0.346758	0.122263
C23	C	1.446716	-0.346746	-0.122323
C24	C	1.570187	-0.276766	0.122372
C25	C	1.570216	-0.276744	-0.122324
C26	C	1.628622	-0.368839	0.000020
C27	C	1.741600	0.181055	-0.000058
C28	C	1.883231	0.184857	-0.000071
C29	C	1.501296	0.421381	-0.000060
C30	C	1.505114	0.563010	-0.000067
N31	N	1.508453	0.188268	0.352992
N32	N	1.508491	0.188223	-0.353089
C33	C	1.418685	0.277987	0.450295
C34	C	1.534183	0.303785	0.549705
C35	C	1.393004	0.162481	0.549709
C36	C	1.624010	0.214124	0.450212
C37	C	1.482754	0.072769	0.450208
C38	C	1.598335	0.098519	0.549573
H39	H	0.942717	0.074295	-0.226008
H40	H	0.901626	0.409850	-0.000188
H41	H	1.394422	-0.377759	0.225673
H42	H	1.295354	0.140690	0.593418
H43	H	1.555946	0.401440	0.593408
O44	O	0.936474	0.064408	0.245734
C45	C	0.929821	0.059259	0.514312
C46	C	0.971762	0.129708	0.374535
H47	H	0.958358	0.112010	0.618483
H48	H	0.821490	0.056140	0.512625
H49	H	0.978646	-0.042595	0.515298
H50	H	0.923028	0.231593	0.373458
H51	H	1.080104	0.132724	0.376276
H52	H	1.622420	-0.245710	-0.225740
H53	H	1.721681	0.236033	0.406691
O54	O	1.689108	0.007959	0.601012
C55	C	1.855883	-0.157254	0.537863
C56	C	1.753148	-0.054729	0.479403
H57	H	1.907670	-0.207984	0.439572
H58	H	1.927746	-0.109732	0.609393
H59	H	1.808219	-0.230012	0.607920
H60	H	1.800701	0.018060	0.409282
H61	H	1.681295	-0.102341	0.407954
O62	O	1.267232	-0.195438	0.000354
C63	C	1.065328	-0.163830	0.129727
C64	C	1.202468	-0.230930	0.129464
H65	H	1.012918	-0.192521	0.234085
H66	H	1.069294	-0.055601	0.128759
H67	H	1.012215	-0.193762	0.026456
H68	H	1.255661	-0.201102	0.232717
H69	H	1.198410	-0.339146	0.130354
H70	H	1.074472	0.302297	-0.225778
O71	O	1.632652	-0.240082	0.245770
C72	C	1.829476	-0.258154	0.386062
C73	C	1.758904	-0.299783	0.246238
H74	H	1.931555	-0.306424	0.386502
H75	H	1.831949	-0.149739	0.385114
H76	H	1.777128	-0.287549	0.490151
H77	H	1.811196	-0.270476	0.142075
H78	H	1.756420	-0.408195	0.247317
H79	H	1.115050	-0.033484	-0.000184
O80	O	1.080178	0.312557	0.245537
C81	C	1.063317	0.509919	0.384810
C82	C	1.021577	0.439237	0.245114
H83	H	1.015978	0.612360	0.384498
H84	H	1.033115	0.458363	0.489101
H85	H	1.171847	0.511377	0.384197
H86	H	0.913054	0.437759	0.245582
H87	H	1.051874	0.490817	0.140886
O88	O	1.749904	-0.427644	-0.000106
C89	C	1.952658	-0.457155	-0.127924
C90	C	1.815346	-0.390473	-0.127959
H91	H	2.005599	-0.427149	-0.231299
H92	H	2.005109	-0.428361	-0.023649
H93	H	1.948886	-0.565408	-0.128842
H94	H	1.819000	-0.282210	-0.127094
H95	H	1.762949	-0.419372	-0.232226
H96	H	1.394466	-0.377709	-0.225740
H97	H	1.342841	0.353929	0.406705
H98	H	1.460956	-0.024855	0.406470
