data_functionalizedCrystal
_audit_creation_method	'MofGen! by Chris Wilmer'
_symmetry_space_group_name_H-M	'P1'
_symmetry_Int_Tables_number	1
_symmetry_cell_setting	triclinic
loop_
_symmetry_equiv_pos_as_xyz
  x,y,z
_cell_length_a	12.827893
_cell_length_b	14.908520
_cell_length_c	14.909241
_cell_angle_alpha	89.840258
_cell_angle_beta	93.314376
_cell_angle_gamma	93.320575
loop_
_atom_site_label
_atom_site_type_symbol
_atom_site_fract_x
_atom_site_fract_y
_atom_site_fract_z
Zn1	Zn	1.611008	-0.328610	0.529012
Zn2	Zn	1.590780	-0.487664	0.387324
Zn3	Zn	1.425620	-0.337323	0.378673
Zn4	Zn	1.426742	-0.478929	0.537639
O5	O	1.513538	-0.408132	0.458162
O6	O	1.754561	-0.349718	0.510227
O7	O	1.559936	-0.475023	0.260352
O8	O	1.458208	-0.210340	0.391385
O9	O	1.739700	-0.466574	0.406129
O10	O	1.594412	-0.203939	0.501838
O11	O	1.438593	-0.364568	0.253996
O12	O	1.279533	-0.356098	0.399750
O13	O	1.460121	-0.451687	0.662319
O14	O	1.280357	-0.460136	0.516541
O15	O	1.595500	-0.341248	0.655981
O16	O	1.561024	-0.612333	0.414494
O17	O	1.440507	-0.605915	0.524930
C18	C	1.242028	-0.408115	0.458144
C19	C	1.125875	-0.408129	0.458159
C20	C	1.074514	-0.459700	0.515871
C21	C	0.954464	-0.459715	0.515888
C22	C	1.498722	-0.641748	0.471606
C23	C	1.492482	-0.741689	0.477388
C24	C	1.606394	-0.936104	0.373349
C25	C	1.600534	-1.030007	0.378778
C26	C	1.474907	-1.023400	0.493681
C27	C	1.480768	-0.929497	0.488251
C28	C	1.546512	-0.885852	0.428082
C29	C	1.552366	-0.791948	0.422649
C30	C	1.426745	-0.785342	0.537555
C31	C	1.420885	-0.879245	0.542985
C32	C	1.786108	-0.408149	0.458181
C33	C	1.902261	-0.408156	0.458189
C34	C	1.530192	-0.394522	0.692687
C35	C	1.537289	-0.388722	0.792627
C36	C	1.528441	-0.173601	0.444684
C37	C	1.534792	-0.073659	0.438941
C38	C	1.497012	-0.421624	0.224545
C39	C	1.490133	-0.427170	0.124591
C40	C	1.409657	-0.492844	0.987029
C41	C	1.416321	-0.487397	1.080932
C42	C	1.557288	-0.372387	1.074339
C43	C	1.550623	-0.377834	0.980436
C44	C	1.476804	-0.438063	0.936784
C45	C	1.470135	-0.443505	0.842879
C46	C	1.611106	-0.328500	0.836288
C47	C	1.617771	-0.323053	0.930191
H48	H	1.605895	-0.756413	0.373654
O49	O	0.954879	-0.355582	0.399112
C50	C	0.920639	-0.380266	0.310571
H51	H	0.885687	-0.452342	0.310028
H52	H	0.989795	-0.375076	0.265760
H53	H	0.858750	-0.333341	0.284326
O54	O	1.670095	-0.893666	0.314803
C55	C	1.609910	-0.842769	0.253564
H56	H	1.525443	-0.871461	0.249589
H57	H	1.642924	-0.845709	0.184333
H58	H	1.612697	-0.769983	0.277250
H59	H	1.410017	-0.492537	0.807339
O60	O	1.676239	-0.275142	0.787522
C61	C	1.660722	-0.184200	0.805355
H62	H	1.579354	-0.178177	0.830898
H63	H	1.668160	-0.143343	0.741060
H64	H	1.722102	-0.157541	0.858527
O65	O	1.128203	-0.512235	0.574842
C66	C	1.198697	-0.457700	0.630014
H67	H	1.217001	-0.391329	0.594474
H68	H	1.274030	-0.493580	0.644038
H69	H	1.162066	-0.444095	0.696141
H70	H	1.367361	-0.914794	0.591975
H71	H	0.910293	-0.503870	0.565295
O72	O	1.368729	-0.736483	0.590822
C73	C	1.435678	-0.678706	0.645786
H74	H	1.516618	-0.706607	0.653043
H75	H	1.402786	-0.673632	0.714889
H76	H	1.441767	-0.609159	0.613873
O77	O	1.629137	-0.313986	1.116712
C78	C	1.730409	-0.334959	1.094879
H79	H	1.729287	-0.408288	1.073186
H80	H	1.786917	-0.323638	1.156191
H81	H	1.756915	-0.289910	1.037607
O82	O	1.072478	-0.355383	0.399190
C83	C	1.143539	-0.307448	0.345509
H84	H	1.224190	-0.302187	0.382091
H85	H	1.115730	-0.237165	0.331984
H86	H	1.148159	-0.344227	0.279045
H87	H	1.649299	-1.070919	0.334210
O88	O	1.689332	-0.264451	0.972634
C89	C	1.637377	-0.203243	1.023631
H90	H	1.553414	-0.199331	0.995007
H91	H	1.679637	-0.133981	1.020727
H92	H	1.637066	-0.226919	1.096394
H93	H	1.421389	-1.058952	0.542673
H94	H	1.349532	-0.541868	0.951486
O95	O	1.350982	-0.540646	1.129603
C96	C	1.284422	-0.594988	1.070935
H97	H	1.278391	-0.562040	1.001882
H98	H	1.203402	-0.603006	1.098609
H99	H	1.317648	-0.663857	1.064875
