data_functionalizedCrystal
_audit_creation_method	'MofGen! by Chris Wilmer'
_symmetry_space_group_name_H-M	'P1'
_symmetry_Int_Tables_number	1
_symmetry_cell_setting	triclinic
loop_
_symmetry_equiv_pos_as_xyz
  x,y,z
_cell_length_a	11.169417
_cell_length_b	19.805405
_cell_length_c	11.169409
_cell_angle_alpha	90.039857
_cell_angle_beta	90.019824
_cell_angle_gamma	90.027289
loop_
_atom_site_label
_atom_site_type_symbol
_atom_site_fract_x
_atom_site_fract_y
_atom_site_fract_z
Zn1	Zn	1.834828	-0.269393	0.678480
Zn2	Zn	2.168162	0.063941	1.011813
Zn3	Zn	2.501495	0.397274	1.345147
Zn4	Zn	1.834661	-0.382602	0.477771
Zn5	Zn	2.167995	-0.049268	0.811104
Zn6	Zn	2.501328	0.284065	1.144437
Zn7	Zn	1.634114	-0.269434	0.477814
Zn8	Zn	1.967448	0.063900	0.811148
Zn9	Zn	2.300781	0.397233	1.144481
Zn10	Zn	1.634065	-0.382547	0.678415
Zn11	Zn	1.967399	-0.049213	1.011749
Zn12	Zn	2.300732	0.284120	1.345082
O13	O	1.734417	-0.325994	0.578120
O14	O	2.067751	0.007340	0.911453
O15	O	2.401084	0.340673	1.244787
O16	O	2.002756	-0.284416	0.651864
O17	O	2.336089	0.048918	0.985197
O18	O	2.669423	0.382251	1.318531
O19	O	1.808009	-0.367630	0.309827
O20	O	2.141342	-0.034297	0.643160
O21	O	2.474676	0.299037	0.976493
O22	O	1.660830	-0.174712	0.504478
O23	O	1.994163	0.158622	0.837812
O24	O	2.327496	0.491955	1.171145
O25	O	2.002633	-0.367590	0.504404
O26	O	2.335967	-0.034257	0.837737
O27	O	2.669300	0.299077	1.171070
O28	O	1.808293	-0.174681	0.651907
O29	O	2.141627	0.158652	0.985240
O30	O	2.474960	0.491985	1.318573
O31	O	1.660668	-0.284486	0.309859
O32	O	1.994001	0.048847	0.643192
O33	O	2.327334	0.382181	0.976525
O34	O	1.466158	-0.284433	0.504416
O35	O	1.799491	0.048901	0.837749
O36	O	2.132825	0.382234	1.171083
O37	O	1.660746	-0.367496	0.846374
O38	O	1.994080	-0.034163	1.179707
O39	O	2.327413	0.299170	1.513041
O40	O	1.466122	-0.367536	0.651797
O41	O	1.799456	-0.034203	0.985130
O42	O	2.132789	0.299130	1.318463
O43	O	1.808246	-0.284362	0.846421
O44	O	2.141579	0.048971	1.179755
O45	O	2.474913	0.382304	1.513088
O46	O	1.807962	-0.477311	0.504341
O47	O	2.141295	-0.143978	0.837675
O48	O	2.474628	0.189356	1.171008
O49	O	1.660585	-0.477271	0.651754
O50	O	1.993918	-0.143937	0.985087
O51	O	2.327251	0.189396	1.318421
C52	C	1.422593	-0.325983	0.578105
C53	C	1.755926	0.007350	0.911438
C54	C	2.089259	0.340683	1.244771
C55	C	1.289193	-0.325995	0.578127
C56	C	1.622526	0.007338	0.911460
C57	C	1.955859	0.340671	1.244793
C58	C	1.734282	-0.501850	0.578062
C59	C	2.067616	-0.168516	0.911395
C60	C	2.400949	0.164817	1.244729
C61	C	1.734334	-0.577082	0.578077
C62	C	2.067668	-0.243748	0.911411
C63	C	2.401001	0.089585	1.244744
C64	C	1.811148	-0.612424	0.501400
C65	C	2.144481	-0.279091	0.834733
C66	C	2.477815	0.054242	1.168066
C67	C	1.811199	-0.683113	0.501426
C68	C	2.144532	-0.349780	0.834760
C69	C	2.477866	-0.016446	1.168093
C70	C	1.734429	-0.718457	0.578125
C71	C	2.067763	-0.385124	0.911459
C72	C	2.401096	-0.051791	1.244792
C73	C	1.657612	-0.683110	0.654811
C74	C	1.990946	-0.349776	0.988145
C75	C	2.324279	-0.016443	1.321478
C76	C	1.657568	-0.612422	0.654790
C77	C	1.990901	-0.279089	0.988123
C78	C	2.324235	0.054244	1.321457
C79	C	1.657789	-0.968183	0.654900
C80	C	1.991123	-0.634849	0.988233
C81	C	2.324456	-0.301516	1.321567
C82	C	1.657837	-1.038875	0.654913
C83	C	1.991170	-0.705542	0.988246
C84	C	2.324503	-0.372208	1.321580
C85	C	1.811420	-1.038873	0.501537
C86	C	2.144753	-0.705540	0.834870
C87	C	2.478087	-0.372207	1.168203
C88	C	1.811376	-0.968186	0.501515
C89	C	2.144709	-0.634853	0.834849
C90	C	2.478043	-0.301519	1.168182
C91	C	1.734564	-0.932845	0.578205
C92	C	2.067897	-0.599511	0.911538
C93	C	2.401231	-0.266178	1.244872
C94	C	1.734511	-0.856196	0.578177
C95	C	2.067845	-0.522863	0.911510
C96	C	2.401178	-0.189530	1.244844
C97	C	1.734475	-0.795104	0.578148
C98	C	2.067808	-0.461771	0.911481
C99	C	2.401142	-0.128438	1.244815
C100	C	2.047460	-0.326004	0.578136
C101	C	2.380793	0.007329	0.911470
C102	C	2.714126	0.340662	1.244803
C103	C	2.180860	-0.326009	0.578143
C104	C	2.514193	0.007324	0.911477
C105	C	2.847526	0.340658	1.244810
C106	C	1.734509	-0.325919	0.891163
C107	C	2.067843	0.007415	1.224496
C108	C	2.401176	0.340748	1.557829
C109	C	1.734549	-0.325886	1.024563
C110	C	2.067882	0.007447	1.357896
C111	C	2.401215	0.340780	1.691229
C112	C	1.734586	-0.149451	0.578205
C113	C	2.067919	0.183882	0.911538
C114	C	2.401252	0.517216	1.244871
C115	C	1.734657	-0.074219	0.578241
C116	C	2.067991	0.259114	0.911574
C117	C	2.401324	0.592448	1.244907
C118	C	1.734395	-0.326020	0.266295
C119	C	2.067728	0.007314	0.599629
C120	C	2.401061	0.340647	0.932962
C121	C	1.734588	-0.325861	0.132896
C122	C	2.067921	0.007472	0.466229
C123	C	2.401255	0.340806	0.799563
H124	H	1.873657	-0.583652	0.438938
H125	H	2.206991	-0.250318	0.772271
H126	H	2.540324	0.083015	1.105604
H127	H	1.595323	-1.067650	0.717380
H128	H	1.928656	-0.734317	1.050713
H129	H	2.261990	-0.400984	1.384046
H130	H	1.873748	-0.711886	0.438987
H131	H	2.207081	-0.378552	0.772320
H132	H	2.540414	-0.045219	1.105654
Br133	Br	1.553545	-0.920228	0.758980
Br134	Br	1.886878	-0.586895	1.092313
Br135	Br	2.220211	-0.253561	1.425647
Br136	Br	1.553325	-0.564456	0.758864
Br137	Br	1.886658	-0.231123	1.092197
Br138	Br	2.219991	0.102210	1.425531
Br139	Br	1.915565	-0.920222	0.397418
Br140	Br	2.248898	-0.586889	0.730752
Br141	Br	2.582232	-0.253555	1.064085
Br142	Br	1.915671	-1.086840	0.397459
Br143	Br	2.249005	-0.753507	0.730792
Br144	Br	2.582338	-0.420174	1.064126
Br145	Br	1.553433	-0.731076	0.758915
Br146	Br	1.886767	-0.397743	1.092248
Br147	Br	2.220100	-0.064409	1.425581
