data_functionalizedCrystal
_audit_creation_method	'MofGen! by Chris Wilmer'
_symmetry_space_group_name_H-M	'P1'
_symmetry_Int_Tables_number	1
_symmetry_cell_setting	triclinic
loop_
_symmetry_equiv_pos_as_xyz
  x,y,z
_cell_length_a	22.610064
_cell_length_b	14.519709
_cell_length_c	14.519709
_cell_angle_alpha	96.319855
_cell_angle_beta	90.011683
_cell_angle_gamma	90.012908
loop_
_atom_site_label
_atom_site_type_symbol
_atom_site_fract_x
_atom_site_fract_y
_atom_site_fract_z
O1	O	0.049109	-1.223851	0.120901
O2	O	0.049127	-0.955374	0.135138
O3	O	0.049112	-1.096731	-0.006219
O4	O	0.049124	-1.082494	0.262258
O5	O	-0.049257	-1.096752	-0.006243
O6	O	-0.049242	-0.955395	0.135113
O7	O	-0.049260	-1.223872	0.120877
Zn8	Zn	-0.064869	-1.089637	0.127991
Zn9	Zn	0.064736	-1.089609	0.128023
O10	O	-0.049245	-1.082515	0.262234
C11	C	-0.000055	-0.921025	0.134462
C12	C	-0.000048	-0.818643	0.132474
N13	N	-0.153322	-1.089663	0.127969
N14	N	0.153189	-1.089590	0.128038
C15	C	0.561823	-1.152361	0.065537
C16	C	0.623743	-1.152368	0.065533
O17	O	0.655756	-1.205723	0.012430
N18	N	0.654726	-1.089656	0.127992
C19	C	0.623785	-1.026940	0.190467
O20	O	0.655824	-0.973600	0.243594
C21	C	0.561866	-1.026938	0.190475
C22	C	0.530887	-1.089648	0.128005
C23	C	0.530844	-1.215066	0.003073
C24	C	0.468929	-1.215058	0.003076
C25	C	0.437992	-1.152344	0.065544
C26	C	0.468971	-1.089639	0.128008
C27	C	0.530927	-0.964227	0.252953
C28	C	0.469004	-0.964231	0.252956
C29	C	0.438025	-1.026940	0.190486
C30	C	0.376119	-1.026917	0.190480
N31	N	0.345137	-1.089629	0.128020
C32	C	0.376073	-1.152343	0.065552
C33	C	0.753819	-1.026949	0.190446
C34	C	0.815736	-1.026946	0.190434
C35	C	0.815690	-1.152376	0.065501
C36	C	0.753772	-1.152374	0.065509
C37	C	0.722836	-1.089661	0.127986
C38	C	0.246046	-1.152320	0.065564
C39	C	0.184125	-1.152304	0.065570
C40	C	0.184176	-1.026878	0.190506
C41	C	0.246092	-1.026890	0.190497
C42	C	0.277025	-1.089619	0.128022
O43	O	0.344067	-0.973592	0.243558
O44	O	0.344027	-1.205682	0.012442
C45	C	-0.000073	-1.096078	-0.040591
C46	C	-0.000073	-1.094090	-0.142972
C47	C	-0.000077	-1.258221	0.121552
C48	C	-0.000080	-1.360602	0.123541
C49	C	-0.000076	-0.443748	0.125154
C50	C	-0.000068	-0.548056	0.127187
C51	C	-0.000062	-0.631192	0.128814
C52	C	-0.000055	-0.735507	0.130847
C53	C	-0.000057	-1.086770	-0.517868
C54	C	-0.000061	-1.088803	-0.413560
C55	C	-0.000065	-1.090430	-0.330423
C56	C	-0.000069	-1.092463	-0.226109
C57	C	-0.000059	-1.083168	0.296605
C58	C	-0.000055	-1.085156	0.398987
H59	H	0.158904	-1.203369	0.014696
H60	H	0.728634	-0.975873	0.241320
H61	H	0.271225	-1.203401	0.014692
H62	H	0.158978	-0.975814	0.241364
H63	H	0.271316	-0.975818	0.241357
C64	C	0.564532	-1.282961	-0.064814
C65	C	0.625392	-1.269502	-0.051527
C66	C	0.656438	-1.331966	-0.114120
H67	H	0.554383	-1.272856	-0.126387
H68	H	0.554465	-1.344577	-0.054699
H69	H	0.635455	-1.207901	-0.061650
H70	H	0.635559	-1.279615	0.010033
H71	H	0.646371	-1.393582	-0.104005
H72	H	0.646284	-1.321855	-0.175689
H73	H	0.697734	-1.322848	-0.105108
H74	H	0.556141	-0.913163	0.303822
H75	H	0.443709	-1.266124	-0.047790
C76	C	0.849300	-1.220239	-0.002534
C77	C	0.884786	-1.171013	-0.059173
C78	C	0.915735	-1.233454	-0.121922
H79	H	0.822003	-1.257528	-0.039817
H80	H	0.873530	-1.258691	0.030610
H81	H	0.860558	-1.132578	-0.092314
H82	H	0.912094	-1.133728	-0.021916
H83	H	0.939965	-1.271905	-0.088778
H84	H	0.888433	-1.270739	-0.159198
H85	H	0.939820	-1.200064	-0.160353
C86	C	0.849260	-0.958812	0.258356
C87	C	0.808907	-0.903909	0.313073
C88	C	0.839764	-0.841144	0.375667
H89	H	0.873419	-0.920354	0.225125
H90	H	0.873401	-0.991944	0.296945
H91	H	0.784776	-0.870779	0.274489
H92	H	0.784746	-0.942341	0.346324
H93	H	0.863905	-0.874275	0.414256
H94	H	0.863922	-0.802692	0.342428
H95	H	0.812389	-0.803890	0.412805
C96	C	0.435525	-0.896031	0.320827
C97	C	0.475913	-0.841103	0.375510
C98	C	0.445096	-0.778257	0.438029
H99	H	0.411366	-0.929071	0.359453
H100	H	0.411387	-0.857604	0.287510
H101	H	0.500041	-0.879524	0.408824
H102	H	0.500073	-0.808043	0.336909
H103	H	0.420958	-0.739831	0.404713
H104	H	0.420938	-0.811305	0.476649
H105	H	0.472494	-0.740976	0.475134
H106	H	0.728552	-1.203438	0.014641
