data_functionalizedCrystal
_audit_creation_method	'MofGen! by Chris Wilmer'
_symmetry_space_group_name_H-M	'P1'
_symmetry_Int_Tables_number	1
_symmetry_cell_setting	triclinic
loop_
_symmetry_equiv_pos_as_xyz
  x,y,z
_cell_length_a	12.759401
_cell_length_b	15.297327
_cell_length_c	12.759393
_cell_angle_alpha	99.642347
_cell_angle_beta	89.979527
_cell_angle_gamma	99.708126
loop_
_atom_site_label
_atom_site_type_symbol
_atom_site_fract_x
_atom_site_fract_y
_atom_site_fract_z
Zn1	Zn	1.533811	-0.359076	-0.666328
Zn2	Zn	1.503259	-0.509963	-0.521033
Zn3	Zn	1.358101	-0.359126	-0.490673
Zn4	Zn	1.327670	-0.509899	-0.696657
O5	O	1.430711	-0.434516	-0.593673
O6	O	1.676778	-0.379098	-0.647067
O7	O	1.483953	-0.490002	-0.369994
O8	O	1.406931	-0.232873	-0.488576
O9	O	1.654332	-0.489954	-0.540320
O10	O	1.536024	-0.232837	-0.617629
O11	O	1.377306	-0.379182	-0.347689
O12	O	1.207045	-0.379120	-0.517985
O13	O	1.355066	-0.489844	-0.839646
O14	O	1.184687	-0.489892	-0.669320
O15	O	1.506517	-0.379035	-0.817363
O16	O	1.454446	-0.636200	-0.569728
O17	O	1.325441	-0.636153	-0.698759
C18	C	1.157745	-0.434505	-0.593650
C19	C	1.040965	-0.434522	-0.593669
C20	C	0.974472	-0.492289	-0.672382
C21	C	0.864747	-0.492292	-0.672403
C22	C	0.888020	-0.376759	-0.514991
C23	C	0.997743	-0.376752	-0.514974
C24	C	0.708319	-0.524662	-0.802782
C25	C	0.641818	-0.582443	-0.881488
C26	C	0.659652	-0.670486	-0.915165
C27	C	0.743980	-0.700765	-0.870125
C28	C	0.810474	-0.642989	-0.791412
C29	C	0.792644	-0.554934	-0.757752
C30	C	1.154172	-0.344391	-0.384596
C31	C	1.220666	-0.286619	-0.305878
C32	C	1.202835	-0.198575	-0.272190
C33	C	1.118503	-0.168299	-0.317212
C34	C	1.052008	-0.226071	-0.395930
C35	C	1.069847	-0.314114	-0.429620
C36	C	1.383355	-0.668911	-0.640852
C37	C	1.363192	-0.769186	-0.661070
C38	C	1.575251	-1.051818	-0.449527
C39	C	1.594195	-0.957604	-0.430526
C40	C	1.536446	-0.910495	-0.488160
C41	C	1.459750	-0.957608	-0.564800
C42	C	1.440798	-1.051831	-0.583797
C43	C	1.401993	-0.910508	-0.622430
C44	C	1.325297	-0.957622	-0.699069
C45	C	1.306350	-1.051835	-0.718064
C46	C	1.364098	-1.098944	-0.660429
C47	C	1.420945	-0.816286	-0.603433
C48	C	1.286492	-0.816299	-0.737702
C49	C	1.267548	-0.910512	-0.756704
C50	C	1.704741	-0.434528	-0.593697
C51	C	1.821517	-0.434533	-0.593707
C52	C	1.430805	-0.434427	-0.867689
C53	C	1.430845	-0.434389	-0.984458
C54	C	1.478280	-0.199206	-0.546333
C55	C	1.498551	-0.098931	-0.526159
C56	C	1.509741	-0.376648	-1.137441
C57	C	1.509714	-0.376683	-1.027724
C58	C	1.352005	-0.492071	-1.050916
C59	C	1.352037	-0.492040	-1.160632
C60	C	1.640090	-0.344499	-0.871316
C61	C	1.718920	-0.286809	-0.804860
C62	C	1.752857	-0.198772	-0.822766
C63	C	1.707954	-0.168406	-0.907123
C64	C	1.629117	-0.226090	-0.973572
C65	C	1.595197	-0.314140	-0.955670
C66	C	1.221661	-0.524215	-1.317041
C67	C	1.142820	-0.581895	-1.383491
C68	C	1.108871	-0.669934	-1.365587
C69	C	1.153757	-0.700297	-1.281227
C70	C	1.232598	-0.642616	-1.214776
C71	C	1.266549	-0.554578	-1.232688
C72	C	1.430690	-0.434539	-0.320710
C73	C	1.430905	-0.434323	-0.203891
H74	H	1.289333	-0.311278	-0.269219
H75	H	1.287793	-0.539060	-1.015681
C76	C	1.093446	-0.548492	-1.476292
N77	N	1.056261	-0.523335	-1.546191
C78	C	1.557306	-0.806857	-0.467274
N79	N	1.573031	-0.728793	-0.451549
C80	C	0.840463	-0.313221	-0.428426
N81	N	0.804645	-0.265364	-0.363222
H82	H	1.592546	-0.201363	-1.042243
H83	H	0.983347	-0.201411	-0.432596
C84	C	1.221972	-1.103657	-0.802360
N85	N	1.158418	-1.142688	-0.865852
C86	C	1.222965	-0.764483	-0.801107
N87	N	1.175121	-0.725449	-0.848859
C88	C	1.745272	-0.071549	-0.926794
N89	N	1.773380	0.001407	-0.941611
H90	H	1.205101	-0.948885	-0.819104
H91	H	0.605500	-0.717531	-0.979250
C92	C	1.602769	-0.441347	-0.851615
N93	N	1.574655	-0.514293	-0.836770
C94	C	0.549066	-0.549131	-0.931036
N95	N	0.479204	-0.524043	-0.968356
H96	H	1.103972	-0.096612	-0.289766
H97	H	1.168704	-0.416081	-0.412030
H98	H	1.256980	-0.151540	-0.208083
C99	C	0.688702	-0.427807	-0.765751
N100	N	0.673920	-0.354855	-0.737858
C101	C	1.596504	-0.313165	-1.185023
N102	N	1.661860	-0.265351	-1.220859
C103	C	1.281980	-0.676021	-1.121982
N104	N	1.319176	-0.701183	-1.052092
H105	H	1.483391	-0.777934	-0.541032
H106	H	1.249304	-0.452527	-1.331630
C107	C	1.678540	-0.905787	-0.346207
N108	N	1.742068	-0.866757	-0.282688
C109	C	1.638754	-1.103644	-0.386127
N110	N	1.686586	-1.142681	-0.338368
H111	H	1.817043	-0.151801	-0.768649
C112	C	1.343260	-1.202585	-0.681323
N113	N	1.327565	-1.280649	-0.697056
C114	C	1.768313	-0.320216	-0.712072
N115	N	1.805514	-0.345373	-0.642181
H116	H	1.009660	-0.539326	-0.736462
C117	C	0.903234	-0.676289	-0.741872
N118	N	0.973106	-0.701372	-0.704566
C119	C	0.763581	-0.797623	-0.907166
N120	N	0.778346	-0.870579	-0.935069
C121	C	1.116413	-0.797145	-1.261531
N122	N	1.088282	-0.870093	-1.246698
C123	C	1.022138	-0.733381	-1.438687
N124	N	0.956816	-0.781171	-1.493745
