data_functionalizedCrystal
_audit_creation_method	'MofGen! by Chris Wilmer'
_symmetry_space_group_name_H-M	'P1'
_symmetry_Int_Tables_number	1
_symmetry_cell_setting	triclinic
loop_
_symmetry_equiv_pos_as_xyz
  x,y,z
_cell_length_a	12.645331
_cell_length_b	12.645330
_cell_length_c	12.645323
_cell_angle_alpha	89.975130
_cell_angle_beta	89.977324
_cell_angle_gamma	90.016671
loop_
_atom_site_label
_atom_site_type_symbol
_atom_site_fract_x
_atom_site_fract_y
_atom_site_fract_z
Zn1	Zn	1.620731	-0.422060	-0.599446
Zn2	Zn	1.620613	-0.599348	-0.422186
Zn3	Zn	1.443446	-0.422096	-0.422191
Zn4	Zn	1.443428	-0.599279	-0.599402
O5	O	1.532054	-0.510695	-0.510806
O6	O	1.769063	-0.445591	-0.575949
O7	O	1.597069	-0.575879	-0.273840
O8	O	1.467020	-0.273744	-0.445724
O9	O	1.768976	-0.575844	-0.445717
O10	O	1.597271	-0.273717	-0.575953
O11	O	1.466906	-0.445653	-0.273843
O12	O	1.295096	-0.445585	-0.445681
O13	O	1.466989	-0.575726	-0.747755
O14	O	1.295083	-0.575761	-0.575877
O15	O	1.597253	-0.445524	-0.747788
O16	O	1.597052	-0.747686	-0.445674
O17	O	1.466874	-0.747635	-0.575873
C18	C	1.256625	-0.510670	-0.510776
C19	C	1.138795	-0.510685	-0.510788
C20	C	0.971204	-0.428415	-0.429333
C21	C	1.093763	-0.428628	-0.428974
C22	C	1.094274	-0.622359	-0.480273
C23	C	0.971676	-0.621910	-0.479717
C24	C	0.971645	-0.482344	-0.623072
C25	C	1.094251	-0.479849	-0.622448
C26	C	1.531977	-0.786125	-0.510791
C27	C	1.532041	-0.903955	-0.510821
C28	C	1.450484	-1.071531	-0.592982
C29	C	1.450067	-0.948972	-0.592717
C30	C	1.501796	-0.948549	-0.399099
C31	C	1.501298	-1.071147	-0.399597
C32	C	1.644342	-1.071047	-0.539475
C33	C	1.643654	-0.948440	-0.541918
C34	C	1.808560	-0.510722	-0.510838
C35	C	1.926390	-0.510733	-0.510851
C36	C	1.532132	-0.510614	-0.787312
C37	C	1.532166	-0.510579	-0.905142
C38	C	1.532161	-0.234190	-0.510844
C39	C	1.532206	-0.116360	-0.510861
C40	C	1.449964	-0.592103	-1.072685
C41	C	1.450179	-0.592506	-0.950125
C42	C	1.643865	-0.540899	-0.949662
C43	C	1.643414	-0.541410	-1.072260
C44	C	1.503724	-0.398278	-1.072340
C45	C	1.501232	-0.398951	-0.949733
C46	C	1.532038	-0.510701	-0.235377
C47	C	1.532210	-0.510437	-0.117547
H48	H	0.942031	-0.685319	-0.536502
H49	H	1.367350	-0.573532	-0.920023
C50	C	1.133694	-0.707438	-0.557954
N51	N	1.163391	-0.771518	-0.616463
H52	H	0.943030	-0.645984	-0.397678
C53	C	1.338874	-1.113260	-0.567691
N54	N	1.254808	-1.144688	-0.548635
C55	C	1.677042	-0.650507	-0.908211
N56	N	1.702024	-0.733068	-0.876993
H57	H	1.366889	-0.573311	-1.102159
C58	C	1.135677	-0.655439	-0.370626
N59	N	1.166858	-0.680348	-0.288036
C60	C	1.133555	-0.368821	-0.653529
N61	N	1.163162	-0.285192	-0.676935
H62	H	0.940749	-0.402333	-0.650823
H63	H	1.468585	-0.674731	-1.103504
C64	C	1.337741	-0.909470	-0.567184
N65	N	1.253125	-0.879719	-0.547978
C66	C	1.674495	-0.909014	-0.652974
N67	N	1.697729	-0.879299	-0.736614
H68	H	0.940356	-0.446970	-0.346662
C69	C	1.135658	-0.554946	-0.708891
N70	N	1.166843	-0.611519	-0.773997
H71	H	0.942666	-0.542301	-0.683810
C72	C	1.475564	-0.704841	-0.910519
N73	N	1.494665	-0.789461	-0.880688
H74	H	1.667560	-0.623400	-1.100871
C75	C	0.931395	-0.316202	-0.454889
N76	N	0.901403	-0.231681	-0.474138
C77	C	1.728875	-0.463091	-0.910296
N78	N	1.792904	-0.404484	-0.880643
H79	H	1.706772	-0.484511	-1.101938
H80	H	1.468990	-0.918818	-0.675558
C81	C	1.395596	-0.360947	-1.114078
N82	N	1.314149	-0.332841	-1.145514
C83	C	1.390555	-1.109909	-0.366856
N84	N	1.307140	-1.139098	-0.342199
C85	C	1.390204	-0.368034	-0.910378
N86	N	1.306585	-0.344741	-0.880714
C87	C	1.475805	-1.111274	-0.705265
N88	N	1.494877	-1.141218	-0.789840
C89	C	1.576233	-0.312399	-0.908346
N90	N	1.632726	-0.247208	-0.877167
H91	H	1.558238	-1.100805	-0.336324
C92	C	1.579651	-0.909152	-0.314175
N93	N	1.638291	-0.879474	-0.250211
C94	C	1.392204	-0.907204	-0.365761
N95	N	1.309655	-0.876067	-0.340659
H96	H	1.563628	-0.337434	-1.101353
H97	H	1.671932	-1.101891	-0.619558
C98	C	1.730244	-0.907038	-0.466996
N99	N	1.795461	-0.875857	-0.410554
H100	H	1.123864	-0.345817	-0.448100
C101	C	1.133321	-0.453982	-0.316629
N102	N	1.163115	-0.473084	-0.232006
C103	C	1.726597	-1.110216	-0.458678
N104	N	1.788543	-1.139725	-0.397819
