data_functionalizedCrystal
_audit_creation_method	'MofGen! by Chris Wilmer'
_symmetry_space_group_name_H-M	'P1'
_symmetry_Int_Tables_number	1
_symmetry_cell_setting	triclinic
loop_
_symmetry_equiv_pos_as_xyz
  x,y,z
_cell_length_a	17.699083
_cell_length_b	17.699083
_cell_length_c	16.176319
_cell_angle_alpha	89.995661
_cell_angle_beta	90.000050
_cell_angle_gamma	83.283015
loop_
_atom_site_label
_atom_site_type_symbol
_atom_site_fract_x
_atom_site_fract_y
_atom_site_fract_z
O1	O	-1.004078	-0.095710	0.068632
O2	O	-0.504078	0.404290	0.568632
O3	O	-0.783699	-0.108162	0.068660
O4	O	-0.283699	0.391838	0.568660
O5	O	-0.900115	0.008253	0.068638
O6	O	-0.400115	0.508253	0.568638
O7	O	-0.887662	-0.212125	0.068654
O8	O	-0.387662	0.287875	0.568654
O9	O	-0.900101	0.008254	-0.068855
O10	O	-0.400101	0.508254	0.431145
O11	O	-0.783686	-0.108162	-0.068834
O12	O	-0.283686	0.391838	0.431166
O13	O	-1.004064	-0.095709	-0.068861
O14	O	-0.504064	0.404291	0.431139
Cu15	Cu	-0.893874	-0.101935	-0.081401
Cu16	Cu	-0.393874	0.398065	0.418599
Cu17	Cu	-0.893890	-0.101936	0.081200
Cu18	Cu	-0.393890	0.398064	0.581200
O19	O	-0.887649	-0.212125	-0.068839
O20	O	-0.387649	0.287875	0.431161
C21	C	-0.755495	-0.107716	-0.000084
C22	C	-0.255495	0.392284	0.499916
C23	C	-0.671477	-0.106377	-0.000073
C24	C	-0.171477	0.393623	0.499927
C25	C	-0.899662	0.036451	-0.000109
C26	C	-0.399662	0.536451	0.499891
C27	C	-0.898323	0.120469	-0.000109
C28	C	-0.398323	0.620469	0.499891
C29	C	-1.032268	-0.096156	-0.000116
C30	C	-0.532268	0.403844	0.499884
C31	C	-1.116286	-0.097494	-0.000121
C32	C	-0.616286	0.402506	0.499879
N33	N	-0.893868	-0.101935	-0.195767
N34	N	-0.393868	0.398065	0.304233
C35	C	-0.622856	-0.174710	-0.000069
C36	C	-0.122856	0.325290	0.499931
C37	C	-0.543913	-0.173448	-0.000079
C38	C	-0.043913	0.326552	0.499921
C39	C	-0.513592	-0.103852	-0.000089
C40	C	-0.013592	0.396148	0.499911
C41	C	-0.562219	-0.035513	-0.000096
C42	C	-0.062219	0.464487	0.499904
C43	C	-0.641161	-0.036776	-0.000091
C44	C	-0.141161	0.463224	0.499909
C45	C	-0.243856	-0.030418	-0.000117
C46	C	0.256144	0.469582	0.499883
C47	C	-0.164908	-0.029160	-0.000120
C48	C	0.335092	0.470840	0.499880
C49	C	-0.146608	-0.167090	-0.000105
C50	C	0.353392	0.332910	0.499895
C51	C	-0.225550	-0.168353	-0.000100
C52	C	0.274450	0.331647	0.499900
C53	C	-0.274170	-0.100015	-0.000112
C54	C	0.225830	0.399985	0.499888
C55	C	-0.359769	-0.101384	-0.000102
C56	C	0.140231	0.398616	0.499898
C57	C	-0.427995	-0.102481	-0.000093
C58	C	0.072005	0.397519	0.499907
C59	C	-0.888102	-0.240322	-0.000091
C60	C	-0.388102	0.259678	0.499909
C61	C	-0.889440	-0.324340	-0.000085
C62	C	-0.389440	0.175660	0.499915
C63	C	-0.966656	0.169090	-0.000119
C64	C	-0.466656	0.669090	0.499881
C65	C	-0.965394	0.248033	-0.000111
C66	C	-0.465394	0.748033	0.499889
C67	C	-0.895798	0.278354	-0.000100
C68	C	-0.395798	0.778354	0.499900
C69	C	-0.827459	0.229727	-0.000088
C70	C	-0.327459	0.729727	0.499912
C71	C	-0.828722	0.150785	-0.000089
C72	C	-0.328722	0.650785	0.499911
C73	C	-0.822364	0.548090	-0.000080
C74	C	-0.322364	1.048090	0.499920
C75	C	-0.821106	0.627038	-0.000081
C76	C	-0.321106	1.127038	0.499919
C77	C	-0.959036	0.645338	-0.000102
C78	C	-0.459036	1.145338	0.499898
C79	C	-0.960299	0.566396	-0.000104
C80	C	-0.460299	1.066396	0.499896
C81	C	-0.891961	0.517776	-0.000087
C82	C	-0.391961	1.017776	0.499913
C83	C	-0.893330	0.432177	-0.000094
C84	C	-0.393330	0.932177	0.499906
C85	C	-0.894427	0.363951	-0.000099
C86	C	-0.394427	0.863951	0.499901
C87	C	-0.939683	-0.147783	-0.239030
C88	C	-0.439683	0.352217	0.260970
C89	C	-0.939691	-0.147781	-0.325577
C90	C	-0.439691	0.352219	0.174423
C91	C	-0.893879	-0.101933	-0.368859
C92	C	-0.393879	0.398067	0.131141
C93	C	-0.848063	-0.056079	-0.325590
C94	C	-0.348063	0.443921	0.174410
C95	C	-0.848059	-0.056078	-0.239045
C96	C	-0.348059	0.443922	0.260955
C97	C	-0.848077	-0.056080	-0.674618
C98	C	-0.348077	0.443920	-0.174618
C99	C	-0.848082	-0.056085	-0.761170
C100	C	-0.348082	0.443915	-0.261170
C101	C	-0.939708	-0.147782	-0.761151
C102	C	-0.439708	0.352218	-0.261151
C103	C	-0.939705	-0.147781	-0.674605
C104	C	-0.439705	0.352219	-0.174605
C105	C	-0.893891	-0.101925	-0.631344
C106	C	-0.393891	0.398075	-0.131344
C107	C	-0.893884	-0.101927	-0.537499
C108	C	-0.393884	0.398073	-0.037499
C109	C	-0.893882	-0.101933	-0.462702
C110	C	-0.393882	0.398067	0.037298
N111	N	-0.893902	-0.101931	0.195565
N112	N	-0.393902	0.398069	0.695565
H113	H	-0.647537	-0.231384	-0.000060
H114	H	-0.147537	0.268616	0.499940
N115	N	-0.798649	-0.006631	-0.627977
N116	N	-0.298649	0.493369	-0.127977
H117	H	-0.761541	-0.039632	-0.592070
H118	H	-0.261541	0.460368	-0.092070
H119	H	-0.831710	0.030458	-0.592118
H120	H	-0.331710	0.530458	-0.092118
N121	N	-1.039096	0.300475	-0.000126
N122	N	-0.539096	0.800475	0.499874
H123	H	-1.083376	0.269288	-0.000141
H124	H	-0.583376	0.769288	0.499859
H125	H	-1.041565	0.333629	-0.051097
H126	H	-0.541565	0.833629	0.448903
N127	N	-0.693609	0.036924	-0.000091
N128	N	-0.193609	0.536924	0.499909
H129	H	-0.726770	0.039472	-0.051060
H130	H	-0.226770	0.539472	0.448940
H131	H	-0.662372	0.081164	-0.000065
H132	H	-0.162372	0.581164	0.499935
H133	H	-0.810775	-0.018748	-0.796408
H134	H	-0.310775	0.481252	-0.296408
N135	N	-0.798649	-0.006623	-0.192378
N136	N	-0.298649	0.493377	0.307622
H137	H	-0.769627	0.022421	-0.232928
H138	H	-0.269627	0.522421	0.267072
H139	H	-0.761586	-0.039667	-0.156466
H140	H	-0.261586	0.460333	0.343534
H141	H	-0.810766	-0.018745	-0.360838
H142	H	-0.310766	0.481255	0.139162
H143	H	-0.504328	-0.229092	-0.000075
H144	H	-0.004328	0.270908	0.499925
H145	H	-0.976983	-0.185123	-0.203795
H146	H	-0.476983	0.314877	0.296205
N147	N	-1.035364	0.533696	-0.000109
N148	N	-0.535364	1.033696	0.499891
H149	H	-1.025795	0.476308	-0.000109
H150	H	-0.525795	0.976308	0.499891
H151	H	-1.065257	0.551494	-0.051082
H152	H	-0.565257	1.051494	0.448918
H153	H	-0.107012	-0.222734	-0.000100
H154	H	0.392988	0.277266	0.499900
H155	H	-0.976999	-0.185114	-0.360798
H156	H	-0.476999	0.314886	0.139202
N157	N	-0.132203	0.045908	-0.000131
N158	N	0.367797	0.545908	0.499869
H159	H	-0.174981	0.089009	-0.000140
H160	H	0.325019	0.589009	0.499860
H161	H	-0.099847	0.049428	-0.051102
H162	H	0.400153	0.549428	0.448898
H163	H	-1.014680	0.684934	-0.000111
H164	H	-0.514680	1.184934	0.499889
H165	H	-0.764429	0.651721	-0.000074
H166	H	-0.264429	1.151721	0.499926
H167	H	-0.766718	0.508512	-0.000067
H168	H	-0.266718	1.008512	0.499933
H169	H	-0.773078	0.111198	-0.000081
H170	H	-0.273078	0.611198	0.499919
N171	N	-0.989117	-0.197227	-0.627919
N172	N	-0.489117	0.302773	-0.127919
H173	H	-0.974089	-0.252316	-0.642973
H174	H	-0.474089	0.247684	-0.142973
H175	H	-1.044193	-0.182161	-0.642998
H176	H	-0.544193	0.317839	-0.142998
N177	N	-0.258253	-0.243417	-0.000079
N178	N	0.241747	0.256583	0.499921
H179	H	-0.215472	-0.286516	-0.000077
H180	H	0.284528	0.213484	0.499923
H181	H	-0.290613	-0.246947	-0.051045
H182	H	0.209387	0.253053	0.448955
H183	H	-0.770792	0.254420	-0.000073
H184	H	-0.270792	0.754420	0.499927
H185	H	-0.977014	-0.185119	-0.796385
H186	H	-0.477014	0.314881	-0.296385
N187	N	-0.296282	0.043292	-0.000130
N188	N	0.203718	0.543292	0.499870
H189	H	-0.286541	0.073662	0.050835
H190	H	0.213459	0.573662	0.550835
H191	H	-0.350873	0.031881	-0.000162
H192	H	0.149127	0.531881	0.499838
N193	N	-0.529521	0.039553	-0.000120
N194	N	-0.029521	0.539553	0.499880
H195	H	-0.472134	0.029986	-0.000122
H196	H	0.027866	0.529986	0.499878
H197	H	-0.547314	0.069454	0.050845
H198	H	-0.047314	0.569454	0.550845
H199	H	-1.023330	0.144409	-0.000133
H200	H	-0.523330	0.644409	0.499867
