data_functionalizedCrystal
_audit_creation_method	'MofGen! by Chris Wilmer'
_symmetry_space_group_name_H-M	'P1'
_symmetry_Int_Tables_number	1
_symmetry_cell_setting	triclinic
loop_
_symmetry_equiv_pos_as_xyz
  x,y,z
_cell_length_a	13.262402
_cell_length_b	10.868271
_cell_length_c	13.339070
_cell_angle_alpha	89.998695
_cell_angle_beta	99.431904
_cell_angle_gamma	74.086022
loop_
_atom_site_label
_atom_site_type_symbol
_atom_site_fract_x
_atom_site_fract_y
_atom_site_fract_z
O1	O	1.432385	-0.377078	0.136475
O2	O	1.131124	-0.276249	0.151297
O3	O	1.247180	-0.315096	-0.003524
O4	O	1.316329	-0.338232	0.291297
O5	O	1.247166	-0.519736	-0.003519
O6	O	1.131111	-0.480890	0.151302
O7	O	1.432371	-0.581719	0.136480
Zn8	Zn	1.281739	-0.563795	0.143892
Zn9	Zn	1.281757	-0.294173	0.143885
O10	O	1.316316	-0.542872	0.291302
C11	C	1.091772	-0.365401	0.150467
C12	C	0.974531	-0.326161	0.147973
C13	C	0.919457	-0.196173	0.146798
C14	C	0.809304	-0.159308	0.144465
C15	C	0.754214	-0.252427	0.143299
C16	C	0.809287	-0.382417	0.144467
C17	C	0.919452	-0.419286	0.146809
C18	C	0.754209	-0.475540	0.143310
C19	C	0.809282	-0.605530	0.144478
C20	C	0.919435	-0.642393	0.146819
C21	C	0.974526	-0.549274	0.147984
C22	C	0.644044	-0.438671	0.140969
C23	C	0.644039	-0.661784	0.140980
C24	C	0.754192	-0.698649	0.143313
N25	N	1.281735	-0.747808	0.143896
C26	C	1.281743	-0.859148	0.143896
C27	C	1.281754	-0.998829	0.143887
C28	C	1.471724	-0.492564	0.137310
C29	C	1.588965	-0.531796	0.139804
C30	C	1.235492	-0.413505	-0.041261
C31	C	1.200675	-0.401846	-0.153710
N32	N	1.281767	-0.110162	0.143873
C33	C	1.471398	-0.492456	-0.517353
C34	C	1.504114	-0.503417	-0.411702
C35	C	1.428257	-0.478025	-0.347199
C36	C	1.319678	-0.441670	-0.388358
C37	C	1.286959	-0.430718	-0.494020
C38	C	1.243818	-0.416287	-0.323865
C39	C	1.135239	-0.379932	-0.365024
C40	C	1.102525	-0.368980	-0.470676
C41	C	1.178382	-0.394373	-0.535179
C42	C	1.276537	-0.427240	-0.218203
C43	C	1.092098	-0.365501	-0.194869
C44	C	1.059382	-0.354540	-0.300521
C45	C	1.328004	-0.444461	0.329038
C46	C	1.362821	-0.456111	0.441488
H47	H	0.964274	-0.748240	0.147780
H48	H	0.664523	-0.222403	0.141399
H49	H	0.964322	-0.120371	0.147754
H50	H	1.592518	-0.533019	-0.378198
H51	H	0.764472	-0.053471	0.143514
H52	H	1.030329	-0.344831	-0.142351
H53	H	1.064220	-0.579283	0.149877
H54	H	0.799048	-0.804489	0.144265
H55	H	1.151750	-0.385445	-0.621210
H56	H	0.599185	-0.737609	0.140034
H57	H	1.454901	-0.486952	-0.261173
H58	H	0.599215	-0.332832	0.140018
H59	H	1.364942	-0.456840	-0.184702
H60	H	1.533149	-0.513136	-0.569880
H61	H	1.014113	-0.339388	-0.504184
H62	H	0.970975	-0.324940	-0.334048
