data_functionalizedCrystal
_audit_creation_method	'MofGen! by Chris Wilmer'
_symmetry_space_group_name_H-M	'P1'
_symmetry_Int_Tables_number	1
_symmetry_cell_setting	triclinic
loop_
_symmetry_equiv_pos_as_xyz
  x,y,z
_cell_length_a	9.065215
_cell_length_b	14.519731
_cell_length_c	8.140239
_cell_angle_alpha	89.995496
_cell_angle_beta	89.997810
_cell_angle_gamma	84.351775
loop_
_atom_site_label
_atom_site_type_symbol
_atom_site_fract_x
_atom_site_fract_y
_atom_site_fract_z
O1	O	1.957883	0.135211	-0.136599
O2	O	2.457883	0.635211	0.363401
O3	O	1.528391	0.146306	-0.136607
O4	O	2.028391	0.646306	0.363393
O5	O	1.754508	0.006605	-0.136588
O6	O	2.254508	0.506605	0.363412
O7	O	1.731766	0.274912	-0.136618
O8	O	2.231766	0.774912	0.363382
O9	O	1.754495	0.006603	0.136640
O10	O	2.254495	0.506603	0.636640
O11	O	1.528379	0.146304	0.136621
O12	O	2.028379	0.646304	0.636621
O13	O	1.957870	0.135210	0.136628
O14	O	2.457870	0.635210	0.636628
Zn15	Zn	1.743123	0.140757	0.180005
Zn16	Zn	2.243123	0.640757	0.680005
Zn17	Zn	1.743139	0.140759	-0.179983
Zn18	Zn	2.243139	0.640759	0.320017
O19	O	1.731754	0.274911	0.136609
O20	O	2.231754	0.774911	0.636609
C21	C	1.473418	0.145239	0.000006
C22	C	1.973418	0.645239	0.500006
C23	C	1.309634	0.142053	0.000004
C24	C	1.809634	0.642053	0.500004
C25	C	1.753436	-0.027764	0.000026
C26	C	2.253436	0.472236	0.500026
C27	C	1.750243	-0.130167	0.000027
C28	C	2.250243	0.369833	0.500027
C29	C	1.747648	-0.213330	0.000023
C30	C	2.247648	0.286670	0.500023
C31	C	1.744406	-0.317663	0.000011
C32	C	2.244406	0.182337	0.500011
C33	C	1.741833	-0.400821	0.000000
C34	C	2.241833	0.099179	0.500000
C35	C	1.738592	-0.505160	-0.000009
C36	C	2.238592	-0.005160	0.499991
C37	C	2.012844	0.136276	0.000012
C38	C	2.512844	0.636276	0.500012
C39	C	2.176627	0.139462	0.000004
C40	C	2.676627	0.639462	0.500004
C41	C	1.732825	0.309279	-0.000008
C42	C	2.232825	0.809279	0.499992
C43	C	1.736018	0.411682	-0.000020
C44	C	2.236018	0.911682	0.499980
N45	N	1.743122	0.140755	0.425688
N46	N	2.243122	0.640755	0.925688
N47	N	1.743151	0.140754	-0.425666
N48	N	2.243151	0.640754	0.074334
