data_functionalizedCrystal
_audit_creation_method	'MofGen! by Chris Wilmer'
_symmetry_space_group_name_H-M	'P1'
_symmetry_Int_Tables_number	1
_symmetry_cell_setting	triclinic
loop_
_symmetry_equiv_pos_as_xyz
  x,y,z
_cell_length_a	14.044220
_cell_length_b	14.044209
_cell_length_c	12.503552
_cell_angle_alpha	93.839236
_cell_angle_beta	93.839943
_cell_angle_gamma	86.811585
loop_
_atom_site_label
_atom_site_type_symbol
_atom_site_fract_x
_atom_site_fract_y
_atom_site_fract_z
O1	O	0.225112	-1.282206	-0.089195
O2	O	0.558445	-0.948873	0.244139
O3	O	0.891778	-0.615540	0.577472
O4	O	0.216806	-1.005537	-0.089225
O5	O	0.550140	-0.672203	0.244108
O6	O	0.883473	-0.338870	0.577442
O7	O	0.082624	-1.139718	-0.089200
O8	O	0.415957	-0.806385	0.244134
O9	O	0.749290	-0.473051	0.577467
O10	O	0.359294	-1.148025	-0.089220
O11	O	0.692627	-0.814692	0.244113
O12	O	1.025961	-0.481358	0.577447
O13	O	0.092724	-1.129615	0.089441
O14	O	0.426057	-0.796282	0.422774
O15	O	0.759390	-0.462948	0.756108
O16	O	0.226906	-0.995433	0.089416
O17	O	0.560240	-0.662100	0.422749
O18	O	0.893573	-0.328767	0.756082
O19	O	0.235211	-1.272103	0.089446
O20	O	0.568545	-0.938770	0.422779
O21	O	0.901878	-0.605437	0.756113
Cu22	Cu	0.231981	-1.132846	0.105742
Cu23	Cu	0.565314	-0.799512	0.439076
Cu24	Cu	0.898648	-0.466179	0.772409
Cu25	Cu	0.220037	-1.144794	-0.105521
Cu26	Cu	0.553370	-0.811461	0.227812
Cu27	Cu	0.886703	-0.478127	0.561146
O28	O	0.369394	-1.137922	0.089421
O29	O	0.702727	-0.804588	0.422754
O30	O	1.036061	-0.471255	0.756087
C31	C	0.052052	-1.131031	0.000121
C32	C	0.385385	-0.797697	0.333454
C33	C	0.718719	-0.464364	0.666787
C34	C	-0.054091	-1.120186	0.000121
C35	C	0.279243	-0.786853	0.333454
C36	C	0.612576	-0.453520	0.666788
C37	C	0.218221	-0.964863	0.000092
C38	C	0.551554	-0.631530	0.333425
C39	C	0.884887	-0.298197	0.666758
C40	C	0.207376	-0.858721	0.000080
C41	C	0.540710	-0.525388	0.333414
C42	C	0.874043	-0.192055	0.666747
N43	N	0.240382	-1.124449	0.254333
N44	N	0.573715	-0.791116	0.587667
N45	N	0.907049	-0.457782	0.921000
C46	C	-0.248429	-1.100361	0.000103
C47	C	0.084904	-0.767028	0.333437
C48	C	0.418237	-0.433694	0.666770
C49	C	-0.299559	-1.177275	0.000108
C50	C	0.033774	-0.843942	0.333442
C51	C	0.367107	-0.510608	0.666775
C52	C	-0.407696	-1.166244	0.000099
C53	C	-0.074363	-0.832911	0.333432
C54	C	0.258971	-0.499577	0.666765
C55	C	-0.140283	-1.111391	0.000113
C56	C	0.193051	-0.778057	0.333446
C57	C	0.526384	-0.444724	0.666780
C58	C	0.399966	-1.146609	0.000098
C59	C	0.733299	-0.813276	0.333431
C60	C	1.066632	-0.479942	0.666765
C61	C	0.506108	-1.157454	0.000091
C62	C	0.839441	-0.824121	0.333424
C63	C	1.172775	-0.490787	0.666757
C64	C	0.187553	-0.664382	0.000101
C65	C	0.520886	-0.331049	0.333434
C66	C	0.854220	0.002284	0.666767
C67	C	0.264468	-0.613252	0.000099
C68	C	0.597801	-0.279919	0.333432
C69	C	0.931134	0.053414	0.666765
C70	C	0.253437	-0.505116	0.000110
C71	C	0.586771	-0.171782	0.333443
C72	C	0.920104	0.161551	0.666777
C73	C	0.198581	-0.772529	0.000089
C74	C	0.531915	-0.439196	0.333423
C75	C	0.865248	-0.105862	0.666756
C76	C	0.233799	-0.312777	0.000124
C77	C	0.567132	0.020557	0.333457
C78	C	0.900465	0.353890	0.666791
C79	C	0.244648	-0.418919	0.000119
C80	C	0.577982	-0.085586	0.333452
C81	C	0.911315	0.247747	0.666786
N82	N	0.211629	-1.153198	-0.254112
N83	N	0.544962	-0.819864	0.079221
N84	N	0.878296	-0.486531	0.412554
C85	C	0.199267	-1.165544	0.526774
C86	C	0.532601	-0.832211	0.860108
C87	C	0.865934	-0.498878	1.193441
C88	C	0.252741	-1.112105	0.473440
C89	C	0.586074	-0.778772	0.806773
C90	C	0.919407	-0.445439	1.140107
C91	C	0.245863	-1.118975	0.351518
C92	C	0.579196	-0.785642	0.684851
C93	C	0.912529	-0.452308	1.018184
C94	C	0.206144	-1.158676	0.648708
C95	C	0.539478	-0.825342	0.982041
C96	C	0.872811	-0.492009	1.315374
H97	H	-0.285866	-1.026234	0.000093
H98	H	0.047467	-0.692901	0.333426
H99	H	0.380800	-0.359567	0.666759
H100	H	0.338600	-0.650692	0.000089
H101	H	0.671933	-0.317359	0.333422
H102	H	1.005267	0.015974	0.666755
H103	H	0.113426	-0.626945	0.000111
H104	H	0.446760	-0.293611	0.333445
H105	H	0.780093	0.039722	0.666778
N106	N	0.131769	-1.232961	0.465979
N107	N	0.465103	-0.899628	0.799312
N108	N	0.798436	-0.566295	1.132646
H109	H	0.136357	-1.228366	0.386238
H110	H	0.469690	-0.895032	0.719572
H111	H	0.803024	-0.561699	1.052905
H112	H	0.149596	-1.300548	0.485552
H113	H	0.482929	-0.967215	0.818885
H114	H	0.816262	-0.633881	1.152218
N115	N	0.320227	-1.044667	0.534236
N116	N	0.653561	-0.711334	0.867569
N117	N	0.986894	-0.378001	1.200903
H118	H	0.315641	-1.049255	0.613978
H119	H	0.648975	-0.715922	0.947311
H120	H	0.982308	-0.382589	1.280645
H121	H	0.387796	-1.062555	0.514642
H122	H	0.721129	-0.729222	0.847976
H123	H	1.054463	-0.395889	1.181309
N124	N	-0.249966	-1.275470	0.000139
N125	N	0.083367	-0.942137	0.333472
N126	N	0.416700	-0.608803	0.666805
H127	H	-0.265291	-1.307578	0.066368
H128	H	0.068042	-0.974245	0.399702
H129	H	0.401375	-0.640911	0.733035
H130	H	-0.272775	-1.315013	-0.066120
H131	H	0.060558	-0.981680	0.267213
H132	H	0.393892	-0.648346	0.600547
