data_functionalizedCrystal
_audit_creation_method	'MofGen! by Chris Wilmer'
_symmetry_space_group_name_H-M	'P1'
_symmetry_Int_Tables_number	1
_symmetry_cell_setting	triclinic
loop_
_symmetry_equiv_pos_as_xyz
  x,y,z
_cell_length_a	27.440280
_cell_length_b	27.440280
_cell_length_c	14.560432
_cell_angle_alpha	59.991571
_cell_angle_beta	89.994123
_cell_angle_gamma	59.994730
loop_
_atom_site_label
_atom_site_type_symbol
_atom_site_fract_x
_atom_site_fract_y
_atom_site_fract_z
Zr1	Zr	0.469477	0.533435	-0.120719
O2	O	0.391656	0.635123	-0.267393
O3	O	0.493336	0.431754	-0.075734
O4	O	0.493333	0.533434	-0.267369
O5	O	0.391658	0.533441	0.075383
O6	O	0.573535	0.533426	-0.267375
O7	O	0.391659	0.533442	-0.075758
O8	O	0.573541	0.351539	0.075425
O9	O	0.391653	0.715329	-0.267417
O10	O	0.563363	0.473569	-0.056578
O11	O	0.503508	0.473574	0.056220
O12	O	0.503505	0.593289	-0.169405
O13	O	0.443650	0.593294	-0.056606
Zr14	Zr	0.597389	0.533421	0.120325
Zr15	Zr	0.597390	0.533423	-0.120728
Zr16	Zr	0.469476	0.533433	0.120333
Zr17	Zr	0.469472	0.661355	-0.120757
Zr18	Zr	0.597394	0.405501	0.120363
O19	O	0.573530	0.635102	0.075340
O20	O	0.573532	0.635105	-0.267405
O21	O	0.391654	0.635120	0.075352
O22	O	0.675210	0.431733	0.266999
O23	O	0.675212	0.431736	-0.075747
O24	O	0.493335	0.431751	0.267011
O25	O	0.675208	0.533415	-0.075777
O26	O	0.573533	0.533422	0.266975
O27	O	0.493331	0.533429	0.266980
O28	O	0.675207	0.533413	0.075364
O29	O	0.493327	0.715319	-0.267424
O30	O	0.573540	0.351537	0.267030
O31	O	0.675213	0.351527	0.267023
O32	O	0.675214	0.351529	0.075418
O33	O	0.391652	0.715327	-0.075813
O34	O	0.493326	0.715317	-0.075819
O35	O	0.563361	0.473567	0.169011
O36	O	0.623216	0.473562	0.056212
O37	O	0.563358	0.593282	-0.056614
O38	O	0.503504	0.593287	0.056184
C39	C	0.533439	0.373420	-0.000149
C40	C	0.533441	0.319115	-0.000133
C41	C	0.489247	0.026622	-0.083505
C42	C	0.489247	-0.024395	-0.083516
O43	O	0.451681	-0.013198	-0.154365
N44	N	0.533431	-0.094104	-0.000241
C45	C	0.577622	-0.112796	0.083045
O46	O	0.615205	-0.176774	0.153875
C47	C	0.577625	-0.061780	0.083051
C48	C	0.533434	0.007930	-0.000223
C49	C	0.445060	0.096328	-0.166773
C50	C	0.445060	0.147341	-0.166759
C51	C	0.489247	0.128649	-0.083478
C52	C	0.533434	0.058943	-0.000210
C53	C	0.621818	-0.080473	0.166331
C54	C	0.621817	-0.029449	0.166329
C55	C	0.577626	0.040261	0.083055
C56	C	0.577620	0.091264	0.083084
N57	N	0.533436	0.160973	-0.000191
C58	C	0.489249	0.179665	-0.083472
C59	C	0.577615	-0.219931	0.083024
C60	C	0.577610	-0.270948	0.083024
C61	C	0.489235	-0.182543	-0.083539
C62	C	0.489237	-0.131526	-0.083533
C63	C	0.533430	-0.150222	-0.000251
C64	C	0.489252	0.286794	-0.083437
C65	C	0.489254	0.337808	-0.083414
C66	C	0.577631	0.249398	0.083145
C67	C	0.577627	0.198389	0.083125
C68	C	0.533435	0.217092	-0.000175
O69	O	0.615168	0.080119	0.153894
O70	O	0.451677	0.243643	-0.154299
C71	C	0.373434	0.533444	-0.000186
C72	C	0.319131	0.533449	-0.000182
C73	C	-0.017566	0.533413	-0.083464
C74	C	-0.068584	0.533408	-0.083464
O75	O	-0.094959	0.533383	-0.154254
N76	N	-0.094102	0.533409	-0.000201
C77	C	-0.068596	0.533407	0.083075
O78	O	-0.094986	0.533407	0.153898
C79	C	-0.017577	0.533407	0.083080
C80	C	0.007935	0.533414	-0.000196
C81	C	0.007946	0.533419	-0.166731
C82	C	0.058960	0.533425	-0.166732
C83	C	0.084461	0.533426	-0.083464
C84	C	0.058949	0.533420	-0.000196
C85	C	0.007930	0.533401	0.166359
C86	C	0.058954	0.533400	0.166357
C87	C	0.084466	0.533407	0.083082
C88	C	0.135464	0.533427	0.083071
N89	N	0.160982	0.533426	-0.000192
C90	C	0.135481	0.533426	-0.083460
C91	C	-0.175740	0.533406	0.083061
C92	C	-0.226761	0.533411	0.083053
C93	C	-0.226745	0.533411	-0.083485
C94	C	-0.175725	0.533411	-0.083481
C95	C	-0.150222	0.533406	-0.000202
C96	C	0.242613	0.533439	-0.083455
C97	C	0.293630	0.533448	-0.083450
C98	C	0.293611	0.533445	0.083091
C99	C	0.242597	0.533440	0.083084
C100	C	0.217100	0.533434	-0.000194
O101	O	0.161872	0.533449	0.153828
O102	O	0.161881	0.533417	-0.154262
C103	C	0.693433	0.533412	-0.000208
C104	C	0.747735	0.533407	-0.000212
C105	C	0.533435	0.533431	-0.301717
C106	C	0.533435	0.533432	-0.404050
C107	C	0.533427	0.693435	-0.000245
C108	C	0.533425	0.747741	-0.000262
C109	C	0.621802	0.533431	-0.404080
C110	C	0.665983	0.533434	-0.452173
C111	C	0.665981	0.533433	-0.548322
C112	C	0.621795	0.533429	-0.596380
C113	C	0.577614	0.533427	-0.548287
C114	C	0.577620	0.533429	-0.452137
C115	C	0.489250	0.533422	-0.548252
C116	C	0.489249	0.533427	-0.452107
C117	C	0.445064	0.533418	-0.596310
C118	C	0.400879	0.533420	-0.548222
C119	C	0.400882	0.533421	-0.452067
C120	C	0.445068	0.533425	-0.404015
C121	C	0.533432	0.533425	0.301323
C122	C	0.533431	0.533424	0.403655
C123	C	0.693439	0.373405	-0.000160
C124	C	0.747743	0.319094	-0.000147
C125	C	0.533438	0.373418	0.301371
C126	C	0.533439	0.319112	0.403720
C127	C	0.693437	0.373402	0.301360
C128	C	0.747741	0.319091	0.403705
C129	C	0.373429	0.693454	-0.301754
C130	C	0.319125	0.747765	-0.404099
C131	C	0.373428	0.693451	-0.000234
C132	C	0.319123	0.747761	-0.000247
C133	C	0.533429	0.693438	-0.301765
C134	C	0.533427	0.747744	-0.404114
C135	C	0.742002	0.293593	-0.059027
C136	C	0.793022	0.242570	-0.059038
C137	C	0.849782	0.217045	-0.000161
C138	C	0.855522	0.242551	0.058720
C139	C	0.804503	0.293577	0.058724
C140	C	0.564683	0.293605	0.510670
C141	C	0.564682	0.242586	0.606847
C142	C	0.533441	0.217071	0.596072
C143	C	0.502193	0.242582	0.489111
C144	C	0.502191	0.293604	0.392936
C145	C	0.804492	0.293583	0.392888
C146	C	0.855521	0.242559	0.489043
C147	C	0.849798	0.217040	0.596015
C148	C	0.793042	0.242553	0.606830
C149	C	0.742014	0.293579	0.510676
C150	C	0.262375	0.773279	-0.393282
C151	C	0.211345	0.824319	-0.489438
C152	C	0.217068	0.849841	-0.596409
C153	C	0.273824	0.824325	-0.607224
C154	C	0.324852	0.773289	-0.511070
C155	C	0.324864	0.773268	0.058623
C156	C	0.273844	0.824305	0.058607
C157	C	0.217084	0.849832	-0.000273
C158	C	0.211344	0.824323	-0.059150
C159	C	0.262363	0.773290	-0.059140
C160	C	0.564674	0.773243	-0.393303
C161	C	0.564684	0.824263	-0.489462
C162	C	0.533444	0.849786	-0.596431
C163	C	0.502195	0.824281	-0.607240
C164	C	0.502189	0.773259	-0.511082
H165	H	0.613601	-0.235165	0.150852
Br166	Br	0.607090	0.328219	0.525325
H167	H	0.891321	0.175496	-0.000172
H168	H	0.695790	0.314375	-0.106985
H169	H	0.371060	0.752516	-0.519891
Br170	Br	0.147809	0.919104	-0.726895
Br171	Br	0.607078	0.738617	-0.248143
H172	H	0.371076	0.752488	0.106577
Br173	Br	0.429262	-0.036924	-0.196551
Br174	Br	0.785286	0.207913	0.752015
Br175	Br	0.459798	0.207946	0.474507
Br176	Br	0.932559	0.207901	0.138622
H177	H	0.533453	0.891331	-0.674719
H178	H	-0.012811	0.533416	-0.234539
H179	H	0.788337	0.221809	-0.106986
Br180	Br	0.607093	0.207974	0.751994
Br181	Br	0.607093	0.858868	-0.474766
Br182	Br	0.459787	0.328211	0.247793
Br183	Br	0.459794	0.858933	-0.752421
H184	H	0.809162	0.314353	0.305795
H185	H	0.891353	0.175491	0.674301
H186	H	0.657803	-0.137226	0.234141
Br187	Br	0.621800	0.533412	-0.726854
Br188	Br	0.385084	0.241942	-0.279782
Br189	Br	0.147849	0.919092	-0.000275
H190	H	0.278529	0.845066	0.106556
H191	H	0.445066	0.533413	-0.674596
Br192	Br	0.445073	0.533432	-0.273532
H193	H	0.314380	0.533448	0.150884
H194	H	0.657805	-0.044680	0.234148
Br195	Br	0.812305	0.328176	0.138647
Br196	Br	0.932539	0.207944	0.474339
H197	H	0.533447	0.175526	0.674393
H198	H	0.165123	0.845115	-0.107088
H199	H	0.257681	0.752524	-0.107075
Br200	Br	0.459772	0.738665	-0.525775
H201	H	0.364907	0.533415	-0.412912
H202	H	0.695807	0.314341	0.519499
H203	H	0.453265	0.394570	-0.151224
H204	H	-0.247516	0.533409	-0.151285
Br205	Br	0.725946	0.533428	-0.613585
H206	H	0.257704	0.752502	-0.306189
H207	H	0.613606	0.141627	0.150944
H208	H	0.165137	0.845085	-0.480610
H209	H	0.453267	0.302032	-0.151270
Br210	Br	-0.141107	0.533420	-0.196502
H211	H	0.409077	0.111560	-0.234596
H212	H	0.453258	-0.167330	-0.151355
Br213	Br	0.637577	-0.365549	0.196060
H214	H	0.278477	0.845111	-0.694332
H215	H	0.613606	0.234189	0.150952
H216	H	0.221860	0.533434	-0.151266
Br217	Br	0.093581	0.533429	-0.279747
Br218	Br	-0.261387	0.533419	0.196058
Br219	Br	0.328249	0.533461	-0.196478
H220	H	-0.012834	0.533395	0.234170
Br221	Br	0.093564	0.533389	0.279390
Br222	Br	-0.141137	0.533406	0.196087
H223	H	0.621804	0.533440	-0.325798
Br224	Br	0.725952	0.533433	-0.386946
Br225	Br	0.207967	0.533444	0.196091
Br226	Br	0.340922	0.533405	-0.613436
