data_functionalizedCrystal
_audit_creation_method	'MofGen! by Chris Wilmer'
_symmetry_space_group_name_H-M	'P1'
_symmetry_Int_Tables_number	1
_symmetry_cell_setting	triclinic
loop_
_symmetry_equiv_pos_as_xyz
  x,y,z
_cell_length_a	11.792241
_cell_length_b	9.065215
_cell_length_c	10.868271
_cell_angle_alpha	89.996624
_cell_angle_beta	89.991394
_cell_angle_gamma	95.395943
loop_
_atom_site_label
_atom_site_type_symbol
_atom_site_fract_x
_atom_site_fract_y
_atom_site_fract_z
O1	O	1.508014	-0.202225	0.102200
O2	O	1.177788	-0.223066	0.102228
O3	O	1.349729	0.002061	0.102208
O4	O	1.336074	-0.427352	0.102220
O5	O	1.349743	0.002070	-0.102436
O6	O	1.177803	-0.223057	-0.102416
O7	O	1.508028	-0.202216	-0.102445
Zn8	Zn	1.342918	-0.212635	-0.134922
Zn9	Zn	1.342899	-0.212647	0.134706
O10	O	1.336088	-0.427343	-0.102425
C11	C	1.135497	-0.221753	-0.000090
C12	C	1.009462	-0.217834	-0.000080
N13	N	1.342939	-0.212626	-0.318936
C14	C	1.348424	0.057040	-0.000113
C15	C	1.344503	0.220846	-0.000108
C16	C	0.778710	-0.210629	-0.000115
C17	C	0.907117	-0.214632	-0.000096
C18	C	1.550319	-0.203530	-0.000123
C19	C	1.676355	-0.207448	-0.000126
C20	C	1.337392	-0.482322	-0.000101
C21	C	1.341314	-0.646129	-0.000097
N22	N	1.342887	-0.212644	0.318720
C23	C	1.342895	-0.212644	0.430058
C24	C	1.342916	-0.212638	0.569735
