data_functionalizedCrystal
_audit_creation_method	'MofGen! by Chris Wilmer'
_symmetry_space_group_name_H-M	'P1'
_symmetry_Int_Tables_number	1
_symmetry_cell_setting	triclinic
loop_
_symmetry_equiv_pos_as_xyz
  x,y,z
_cell_length_a	19.121141
_cell_length_b	12.759400
_cell_length_c	12.759393
_cell_angle_alpha	90.026458
_cell_angle_beta	87.537412
_cell_angle_gamma	92.444898
loop_
_atom_site_label
_atom_site_type_symbol
_atom_site_fract_x
_atom_site_fract_y
_atom_site_fract_z
Zn1	Zn	-1.073877	-0.486859	0.662615
Zn2	Zn	-1.073834	-0.662575	0.486949
Zn3	Zn	-0.956420	-0.479404	0.479452
Zn4	Zn	-0.956440	-0.654988	0.655091
O5	O	-1.015143	-0.570956	0.571027
O6	O	-1.172158	-0.516462	0.645599
O7	O	-1.058233	-0.638332	0.338931
O8	O	-0.972011	-0.333372	0.503761
O9	O	-1.172126	-0.645560	0.516537
O10	O	-1.058306	-0.338849	0.638330
O11	O	-0.971969	-0.503757	0.333424
O12	O	-0.858136	-0.496401	0.496465
O13	O	-0.972045	-0.632630	0.803112
O14	O	-0.858151	-0.625402	0.625506
O15	O	-1.058326	-0.509106	0.808640
O16	O	-1.058252	-0.808589	0.509241
O17	O	-0.972003	-0.803015	0.632775
C18	C	-0.832659	-0.559270	0.559356
C19	C	-0.754592	-0.554295	0.554388
C20	C	-1.015144	-0.843924	0.571029
C21	C	-1.015209	-0.960704	0.571070
C22	C	-1.015192	-0.570853	0.845063
C23	C	-1.015213	-0.570810	0.961841
C24	C	-0.717942	-0.619224	0.619133
C25	C	-0.644589	-0.614536	0.614470
C26	C	-0.607888	-0.544925	0.545056
C27	C	-0.644543	-0.479989	0.480308
C28	C	-0.717895	-0.484672	0.484977
C29	C	-0.386413	-0.527415	0.527608
C30	C	-0.313057	-0.522739	0.522942
C31	C	-0.313108	-0.657285	0.657106
C32	C	-0.386460	-0.661966	0.661764
C33	C	-0.423109	-0.597027	0.597020
C34	C	-0.532910	-0.540134	0.540286
C35	C	-0.498086	-0.601813	0.601797
C36	C	-0.198339	-0.582684	0.582731
C37	C	-0.276407	-0.587667	0.587687
C38	C	-1.015161	-0.296924	0.571048
C39	C	-1.015169	-0.180148	0.571058
C40	C	-0.970272	-0.122375	0.635374
C41	C	-0.970293	-0.012652	0.635383
C42	C	-1.060111	-0.018486	0.506751
C43	C	-1.060092	-0.128206	0.506748
C44	C	-0.918414	-0.119006	0.709635
C45	C	-0.918436	-0.009283	0.709644
C46	C	-1.015134	-0.570985	0.298059
C47	C	-1.015249	-0.570742	0.181290
C48	C	-1.060146	-0.506485	1.019584
C49	C	-1.060162	-0.506448	1.129309
C50	C	-0.970312	-0.635070	1.123539
C51	C	-0.970292	-0.635100	1.013816
C52	C	-1.112022	-0.432229	1.022916
C53	C	-1.112039	-0.432192	1.132641
H54	H	-0.747818	-0.675913	0.675655
O55	O	-1.176958	-0.462154	1.172370
C56	C	-1.277225	-0.415238	1.280473
C57	C	-1.203721	-0.381171	1.235537
H58	H	-1.298879	-0.349790	1.331571
H59	H	-1.313521	-0.432069	1.213340
H60	H	-1.273671	-0.489119	1.329836
H61	H	-1.207208	-0.307271	1.186188
H62	H	-1.167454	-0.364409	1.302719
O63	O	-0.422183	-0.729440	0.729261
C64	C	-0.505005	-0.749014	0.876409
C65	C	-0.464607	-0.672485	0.800022
H66	H	-0.539303	-0.702994	0.933652
H67	H	-0.539381	-0.806076	0.830338
H68	H	-0.466192	-0.794632	0.921834
H69	H	-0.503370	-0.626795	0.754577
H70	H	-0.430220	-0.615491	0.846152
O71	O	-0.926716	-0.697672	1.173916
C72	C	-0.892640	-0.874193	1.205327
C73	C	-0.942046	-0.803413	1.148199
H74	H	-0.905026	-0.959701	1.184574
H75	H	-0.835992	-0.852207	1.180110
H76	H	-0.900357	-0.863067	1.293663
H77	H	-0.934391	-0.814503	1.059854
H78	H	-0.998675	-0.825417	1.173503
O79	O	-0.277398	-0.720250	0.719961
C80	C	-0.164419	-0.772710	0.772193
C81	C	-0.204772	-0.701326	0.700962
H82	H	-0.105694	-0.757451	0.756843
H83	H	-0.178817	-0.755273	0.857878
H84	H	-0.178880	-0.858317	0.754540
H85	H	-0.190332	-0.615696	0.718522
H86	H	-0.190370	-0.718853	0.615300
O87	O	-1.103678	0.032140	0.444309
C88	C	-1.143547	0.198582	0.387356
C89	C	-1.094160	0.141387	0.458107
H90	H	-1.135880	0.286918	0.398504
H91	H	-1.131195	0.177847	0.301825
H92	H	-1.200173	0.173311	0.409418
H93	H	-1.037518	0.166628	0.436139
H94	H	-1.106573	0.162124	0.543620
O95	O	-0.935848	-0.155439	0.807866
C96	C	-0.967541	-0.111579	0.986883
C97	C	-0.947821	-0.070178	0.875686
H98	H	-0.977212	-0.042666	1.041751
H99	H	-1.017092	-0.164363	0.984810
H100	H	-0.922863	-0.158367	1.016423
H101	H	-0.992452	-0.023344	0.846079
H102	H	-0.898248	-0.017450	0.877824
O103	O	-0.497220	-0.472661	0.472751
C104	C	-0.414300	-0.453057	0.325729
C105	C	-0.454692	-0.529593	0.402115
H106	H	-0.379895	-0.499054	0.268615
H107	H	-0.453053	-0.407459	0.280166
H108	H	-0.380010	-0.395979	0.371916
H109	H	-0.488983	-0.586735	0.356010
H110	H	-0.415901	-0.575115	0.447680
O111	O	-0.856704	-0.155492	0.670937
C112	C	-0.740799	-0.111658	0.598073
C113	C	-0.810641	-0.070194	0.641903
H114	H	-0.703543	-0.042716	0.574567
H115	H	-0.716350	-0.160308	0.660699
H116	H	-0.750819	-0.162660	0.526432
H117	H	-0.800681	-0.019149	0.713529
H118	H	-0.835068	-0.021602	0.579212
O119	O	-0.609096	-0.677726	0.677392
C120	C	-0.616887	-0.811655	0.810973
C121	C	-0.657169	-0.740161	0.739758
H122	H	-0.655737	-0.862136	0.861430
H123	H	-0.582554	-0.864404	0.760499
H124	H	-0.582540	-0.761290	0.863766
H125	H	-0.691554	-0.790444	0.686953
H126	H	-0.691458	-0.687406	0.790294
H127	H	-1.163685	-0.464700	0.992183
H128	H	-0.933701	-0.687476	0.966806
H129	H	-0.864040	0.023983	0.684369
H130	H	-1.097457	-0.349933	0.992223
H131	H	-0.283177	-0.466040	0.466423
O132	O	-1.088828	-0.338396	1.171606
C133	C	-1.045097	-0.162228	1.132420
C134	C	-1.071386	-0.268383	1.088151
H135	H	-1.030973	-0.105601	1.064968
H136	H	-1.088023	-0.128396	1.185424
H137	H	-0.996780	-0.174129	1.179651
H138	H	-1.119689	-0.256571	1.040872
H139	H	-1.028417	-0.302181	1.035205
H140	H	-0.937937	0.023527	0.788192
H141	H	-0.416244	-0.474544	0.474881
H142	H	-0.614655	-0.423306	0.423794
O143	O	-0.753390	-0.421567	0.421971
C144	C	-0.745603	-0.287586	0.288442
C145	C	-0.705319	-0.359015	0.359720
H146	H	-0.706755	-0.236979	0.238109
H147	H	-0.779908	-0.337900	0.235543
H148	H	-0.779979	-0.234946	0.338969
H149	H	-0.670905	-0.411668	0.309275
H150	H	-0.671058	-0.308638	0.412625
H151	H	-1.096658	-0.175242	0.454385
H152	H	-0.527971	-0.658486	0.658318
