data_functionalizedCrystal
_audit_creation_method	'MofGen! by Chris Wilmer'
_symmetry_space_group_name_H-M	'P1'
_symmetry_Int_Tables_number	1
_symmetry_cell_setting	triclinic
loop_
_symmetry_equiv_pos_as_xyz
  x,y,z
_cell_length_a	22.863218
_cell_length_b	22.862586
_cell_length_c	22.858745
_cell_angle_alpha	60.006856
_cell_angle_beta	60.013818
_cell_angle_gamma	59.991795
loop_
_atom_site_label
_atom_site_type_symbol
_atom_site_fract_x
_atom_site_fract_y
_atom_site_fract_z
O1	O	0.081006	-0.854581	0.714630
O2	O	0.581006	-0.354581	1.214630
O3	O	0.030492	-0.665350	0.575795
O4	O	0.530492	-0.165350	1.075795
O5	O	0.150314	-0.785089	0.575706
O6	O	0.650314	-0.285089	1.075706
O7	O	-0.038816	-0.734841	0.714718
O8	O	0.461184	-0.234841	1.214718
O9	O	0.190066	-0.745348	0.615369
O10	O	0.690066	-0.245348	1.115369
O11	O	0.070244	-0.625609	0.615458
O12	O	0.570244	-0.125609	1.115458
O13	O	0.120758	-0.814840	0.754293
O14	O	0.620758	-0.314840	1.254293
Zn15	Zn	0.101812	-0.713914	0.691173
Zn16	Zn	0.601812	-0.213914	1.191173
Zn17	Zn	0.049438	-0.766275	0.638915
Zn18	Zn	0.549438	-0.266275	1.138915
O19	O	0.000936	-0.695100	0.754381
O20	O	0.500936	-0.195100	1.254381
N21	N	0.137558	-0.678184	0.726840
N22	N	0.637558	-0.178184	1.226840
N23	N	0.013698	-0.802011	0.603247
N24	N	0.513698	-0.302011	1.103247
C25	C	0.187224	-0.518558	0.776483
C26	C	0.687224	-0.018558	1.276483
C27	C	0.187235	-0.628552	0.776467
C28	C	0.687235	-0.128552	1.276467
C29	C	0.214753	-0.601061	0.803961
C30	C	0.714753	-0.101061	1.303961
C31	C	0.334724	-0.580392	0.740801
C32	C	0.834724	-0.080392	1.240801
C33	C	0.409718	-0.605392	0.715784
C34	C	0.909718	-0.105392	1.215784
C35	C	0.409746	-0.726732	0.762051
C36	C	0.909746	-0.226732	1.262051
C37	C	0.334754	-0.701730	0.787070
C38	C	0.834754	-0.201730	1.287070
C39	C	0.205297	-0.481049	0.702756
C40	C	0.705297	0.018951	1.202756
C41	C	0.180267	-0.406048	0.677779
C42	C	0.680267	0.093952	1.177779
C43	C	0.119099	-0.406071	0.800259
C44	C	0.619099	0.093929	1.300259
C45	C	0.144128	-0.481071	0.825236
C46	C	0.644128	0.018929	1.325236
C47	C	0.113501	-0.610437	0.794610
C48	C	0.613501	-0.110437	1.294610
C49	C	0.088492	-0.635428	0.769607
C50	C	0.588492	-0.135428	1.269607
C51	C	0.210943	-0.696652	0.708337
C52	C	0.710943	-0.196652	1.208337
C53	C	0.235956	-0.671660	0.733331
C54	C	0.735956	-0.171660	1.233331
C55	C	0.113585	-0.610461	0.923980
C56	C	0.613585	-0.110461	1.423980
C57	C	0.088635	-0.635476	0.998978
C58	C	0.588635	-0.135476	1.498978
C59	C	0.211128	-0.696714	0.998930
C60	C	0.711128	-0.196714	1.498930
C61	C	0.236077	-0.671700	0.923930
C62	C	0.736077	-0.171700	1.423930
C63	C	0.187303	-0.628571	0.886457
C64	C	0.687303	-0.128571	1.386457
C65	C	0.297246	-0.628559	0.776441
C66	C	0.797246	-0.128559	1.276441
C67	C	-0.117796	-0.823430	0.581283
C68	C	0.382204	-0.323430	1.081283
C69	C	-0.007671	-0.823587	0.471446
C70	C	0.492329	-0.323587	0.971446
C71	C	-0.007879	-0.933535	0.581483
C72	C	0.492121	-0.433535	1.081483
C73	C	-0.007861	-0.823583	0.581554
C74	C	0.492139	-0.323583	1.081554
C75	C	-0.035301	-0.851035	0.553942
C76	C	0.464699	-0.351035	1.053942
N77	N	0.446162	-0.678198	0.726752
N78	N	0.946162	-0.178198	1.226752
O79	O	0.691234	-0.690164	0.550341
O80	O	1.191234	-0.190164	1.050341
O81	O	0.691462	-0.829422	0.739388
O82	O	1.191462	-0.329422	1.239388
O83	O	0.691373	-0.829102	0.619485
O84	O	1.191373	-0.329102	1.119485
O85	O	0.691323	-0.690484	0.670244
O86	O	1.191323	-0.190484	1.170244
O87	O	0.572233	-0.789455	0.659278
O88	O	1.072233	-0.289455	1.159278
O89	O	0.572322	-0.789775	0.779181
O90	O	1.072322	-0.289775	1.279181
O91	O	0.572094	-0.650517	0.590134
O92	O	1.072094	-0.150517	1.090134
Zn93	Zn	0.553292	-0.713851	0.690976
Zn94	Zn	1.053292	-0.213851	1.190976
Zn95	Zn	0.710264	-0.766088	0.638547
Zn96	Zn	1.210264	-0.266088	1.138547
O97	O	0.572183	-0.650837	0.710037
O98	O	1.072183	-0.150837	1.210037
N99	N	0.817394	-0.801741	0.602763
N100	N	1.317394	-0.301741	1.102763
N101	N	0.137538	-0.369628	0.726874
N102	N	0.637538	0.130372	1.226874
O103	O	-0.038795	-0.124419	0.714761
O104	O	0.461205	0.375581	1.214761
O105	O	0.150256	-0.124417	0.575522
O106	O	0.650256	0.375583	1.075522
O107	O	0.030331	-0.124432	0.575860
O108	O	0.530331	0.375568	1.075860
O109	O	0.081131	-0.124404	0.714423
O110	O	0.581131	0.375596	1.214423
O111	O	0.070086	-0.243584	0.615573
O112	O	0.570086	0.256416	1.115573
O113	O	0.190011	-0.243569	0.615236
O114	O	0.690011	0.256431	1.115236
O115	O	0.000960	-0.243571	0.754474
O116	O	0.500960	0.256429	1.254474
Zn117	Zn	0.101797	-0.262488	0.691160
Zn118	Zn	0.601797	0.237512	1.191160
Zn119	Zn	0.049419	-0.105500	0.638836
Zn120	Zn	0.549419	0.394500	1.138836
O121	O	0.120885	-0.243556	0.754137
O122	O	0.620885	0.256444	1.254137
N123	N	0.013669	0.001640	0.603123
N124	N	0.513669	0.501640	1.103123
N125	N	0.137749	-0.678230	1.035381
N126	N	0.637749	-0.178230	1.535381
O127	O	0.125655	-0.854547	1.280566
O128	O	0.625655	-0.354547	1.780566
O129	O	-0.013567	-0.665426	1.280590
O130	O	0.486433	-0.165426	1.780590
O131	O	-0.013245	-0.785328	1.280537
O132	O	0.486755	-0.285328	1.780537
O133	O	0.125333	-0.734644	1.280618
O134	O	0.625333	-0.234644	1.780618
O135	O	0.026456	-0.745599	1.161392
O136	O	0.526456	-0.245599	1.661392
O137	O	0.026134	-0.625697	1.161444
O138	O	0.526134	-0.125697	1.661444
O139	O	0.165355	-0.814817	1.161420
O140	O	0.665355	-0.314817	1.661420
Zn141	Zn	0.102048	-0.713949	1.142516
Zn142	Zn	0.602048	-0.213949	1.642516
Zn143	Zn	0.049740	-0.766294	1.299495
Zn144	Zn	0.549740	-0.266294	1.799495
O145	O	0.165033	-0.694915	1.161473
O146	O	0.665033	-0.194915	1.661473
N147	N	0.014038	-0.802020	1.406629
N148	N	0.514038	-0.302020	1.906629
C149	C	0.045634	-0.621635	0.576499
C150	C	0.545634	-0.121635	1.076499
C151	C	0.194019	-0.769918	0.576389
C152	C	0.694019	-0.269918	1.076389
C153	C	0.105616	-0.858555	0.753588
C154	C	0.605616	-0.358555	1.253588
C155	C	-0.042769	-0.710272	0.753698
C156	C	0.457231	-0.210272	1.253698
C157	C	0.631920	-0.828776	0.783102
C158	C	1.131920	-0.328776	1.283102
C159	C	0.631811	-0.828380	0.634616
C160	C	1.131811	-0.328380	1.134616
C161	C	0.631633	-0.651162	0.546422
C162	C	1.131633	-0.151162	1.046422
C163	C	0.631745	-0.651559	0.694907
C164	C	1.131745	-0.151559	1.194907
C165	C	0.193900	-0.183846	0.576155
C166	C	0.693900	0.316154	1.076155
C167	C	0.045437	-0.184012	0.576622
C168	C	0.545437	0.315988	1.076622
C169	C	-0.042734	-0.183994	0.753792
C170	C	0.457266	0.316006	1.253792
C171	C	0.105780	-0.183977	0.753375
C172	C	0.605780	0.316023	1.253375
C173	C	-0.012889	-0.621735	1.221020
C174	C	0.487111	-0.121735	1.721020
C175	C	-0.012483	-0.770211	1.220931
C176	C	0.487517	-0.270211	1.720931
C177	C	0.164678	-0.858508	1.220991
C178	C	0.664678	-0.358508	1.720991
C179	C	0.164280	-0.710023	1.221052
C180	C	0.664280	-0.210023	1.721052
H181	H	0.028603	-0.620718	1.029520
H182	H	0.528603	-0.120718	1.529520
H183	H	-0.097027	-0.183996	0.797505
H184	H	0.402973	0.316004	1.297505
O185	O	0.031344	-0.549632	0.518739
O186	O	0.531344	-0.049632	1.018739
H187	H	0.070012	-0.524543	0.503523
H188	H	0.570012	-0.024543	1.003523
H189	H	-0.097093	-0.699562	0.797349
H190	H	0.402907	-0.199562	1.297349
O191	O	0.632000	-0.886688	0.855021
O192	O	1.132000	-0.386688	1.355021
H193	H	0.583461	-0.901886	0.880039
H194	H	1.083461	-0.401886	1.380039
O195	O	0.631834	-0.886068	0.620236
O196	O	1.131834	-0.386068	1.120236
H197	H	0.631774	-0.865566	0.564817
H198	H	1.131774	-0.365566	1.064817
H199	H	0.631558	-0.607440	0.492131
H200	H	1.131558	-0.107440	0.992131
O201	O	0.265683	-0.183504	0.518099
O202	O	0.765683	0.316496	1.018099
H203	H	0.258060	-0.134874	0.470665
H204	H	0.758060	0.365126	0.970665
O205	O	0.120180	-0.183979	0.811046
O206	O	0.620180	0.316021	1.311046
H207	H	0.175610	-0.183984	0.790548
H208	H	0.675610	0.316016	1.290548
H209	H	0.631735	-0.608016	0.705768
H210	H	1.131735	-0.108016	1.205768
H211	H	0.248339	-0.780632	0.532734
H212	H	0.748339	-0.280632	1.032734
O213	O	0.119900	-0.930555	0.811354
O214	O	0.619900	-0.430555	1.311354
H215	H	0.175314	-0.965581	0.790943
H216	H	0.675314	-0.465581	1.290943
O217	O	0.031038	-0.184015	0.518953
O218	O	0.531038	0.315985	1.018953
H219	H	-0.024389	-0.184021	0.539454
H220	H	0.475611	0.315979	1.039454
H221	H	-0.056598	-0.567419	1.221026
H222	H	0.443402	-0.067419	1.721026
H223	H	-0.056000	-0.781036	1.220859
H224	H	0.444000	-0.281036	1.720859
O225	O	0.222577	-0.930458	1.220998
O226	O	0.722577	-0.430458	1.720998
H227	H	0.202322	-0.965588	1.220983
H228	H	0.702322	-0.465588	1.720983
O229	O	0.221955	-0.695670	1.221073
O230	O	0.721955	-0.195670	1.721073
H231	H	0.201463	-0.640236	1.221082
H232	H	0.701463	-0.140236	1.721082
H233	H	0.073862	-0.575336	0.893474
H234	H	0.573862	-0.075336	1.393474
H235	H	0.296108	-0.686456	0.893383
H236	H	0.796108	-0.186456	1.393383
O237	O	0.263733	-0.743282	1.039344
O238	O	0.763733	-0.243282	1.539344
H239	H	0.319185	-0.751694	1.000649
H240	H	0.819185	-0.251694	1.500649
H241	H	0.073825	-0.575337	0.829731
H242	H	0.573825	-0.075337	1.329731
O243	O	0.450207	-0.805655	0.773515
O244	O	0.950207	-0.305655	1.273515
H245	H	0.435793	-0.823737	0.747029
H246	H	0.935793	-0.323737	1.247029
H247	H	0.250621	-0.731757	0.673222
H248	H	0.750621	-0.231757	1.173222
O249	O	0.008967	-0.615898	0.789159
O250	O	0.508967	-0.115898	1.289159
H251	H	-0.015571	-0.636088	0.848288
H252	H	0.484429	-0.136088	1.348288
O253	O	0.315483	-0.691196	0.713774
O254	O	0.815483	-0.191196	1.213774
H255	H	0.345162	-0.725376	0.679584
H256	H	0.845162	-0.225376	1.179584
H257	H	0.440232	-0.566167	0.686761
H258	H	0.940232	-0.066167	1.186761
O259	O	0.294330	-0.753685	0.825502
O260	O	0.794330	-0.253685	1.325502
H261	H	0.308761	-0.793801	0.874175
H262	H	0.808761	-0.293801	1.374175
O263	O	0.294270	-0.501473	0.729346
O264	O	0.794270	-0.001473	1.229346
H265	H	0.308634	-0.470959	0.671066
H266	H	0.808634	0.029041	1.171066
O267	O	0.251773	-0.521485	0.650179
O268	O	0.751773	-0.021485	1.150179
H269	H	0.260124	-0.482800	0.594714
H270	H	0.760124	0.017200	1.094714
H271	H	0.084019	-0.375548	0.839959
H272	H	0.584019	0.124452	1.339959
O273	O	0.199761	-0.365583	0.598256
O274	O	0.699761	0.134417	1.098256
H275	H	0.233939	-0.404250	0.568551
H276	H	0.733939	0.095750	1.068551
H277	H	0.129402	-0.511613	0.885274
H278	H	0.629402	-0.011613	1.385274
