data_functionalizedCrystal
_audit_creation_method	'MofGen! by Chris Wilmer'
_symmetry_space_group_name_H-M	'P1'
_symmetry_Int_Tables_number	1
_symmetry_cell_setting	triclinic
loop_
_symmetry_equiv_pos_as_xyz
  x,y,z
_cell_length_a	19.288840
_cell_length_b	8.597304
_cell_length_c	17.766277
_cell_angle_alpha	82.293845
_cell_angle_beta	89.983415
_cell_angle_gamma	84.235515
loop_
_atom_site_label
_atom_site_type_symbol
_atom_site_fract_x
_atom_site_fract_y
_atom_site_fract_z
O1	O	0.922965	0.195588	-0.075402
O2	O	0.720918	0.222039	-0.077090
O3	O	0.825916	-0.019683	-0.061427
O4	O	0.817967	0.437311	-0.091065
O5	O	0.825897	-0.019695	0.063763
O6	O	0.720899	0.222027	0.048099
O7	O	0.922946	0.195576	0.049788
Cu8	Cu	0.821921	0.208801	0.060374
Cu9	Cu	0.821943	0.208815	-0.087677
O10	O	0.817948	0.437299	0.034124
C11	C	0.695025	0.221189	-0.014438
C12	C	0.617900	0.218653	-0.014263
C13	C	0.581696	0.217442	-0.082427
C14	C	0.509230	0.215043	-0.082280
C15	C	0.472971	0.213823	-0.013964
C16	C	0.509182	0.215043	0.054208
C17	C	0.581647	0.217459	0.054058
C18	C	0.362852	0.118069	0.044514
C19	C	0.290389	0.115643	0.044662
C20	C	0.249466	0.206380	-0.013501
C21	C	0.281016	0.299522	-0.071823
C22	C	0.353480	0.301937	-0.071972
C23	C	0.394395	0.211205	-0.013795
C24	C	0.134687	0.202569	-0.081511
C25	C	0.062218	0.200179	-0.081362
C26	C	0.062173	0.200164	0.055129
C27	C	0.134639	0.202570	0.054977
C28	C	0.170892	0.203765	-0.013345
C29	C	0.825052	-0.078155	0.004959
C30	C	0.822497	-0.252364	0.016253
C31	C	0.948839	0.196427	-0.012867
C32	C	1.025964	0.198962	-0.013046
C33	C	0.818812	0.495770	-0.032263
C34	C	0.821366	0.669979	-0.043562
N35	N	0.821910	0.208789	0.164505
N36	N	0.821959	0.208814	-0.191807
C37	C	0.868419	0.101807	0.210825
C38	C	0.868423	0.101800	0.289627
C39	C	0.821925	0.208802	0.322105
C40	C	0.775407	0.315792	0.275775
C41	C	0.775400	0.315786	0.196976
C42	C	0.813796	0.351797	0.437669
C43	C	0.813808	0.351805	0.516468
C44	C	0.821944	0.208821	0.565150
C45	C	0.830081	0.065822	0.535025
C46	C	0.830074	0.065815	0.456225
C47	C	0.821927	0.208820	0.407549
C48	C	0.868459	0.101822	0.696917
C49	C	0.868458	0.101812	0.775720
C50	C	0.775446	0.315818	0.761866
C51	C	0.775444	0.315814	0.683065
C52	C	0.821954	0.208818	0.650595
H53	H	0.479747	0.214059	-0.137789
H54	H	0.611209	0.218415	-0.138060
F55	F	0.917927	-0.012071	0.338931
F56	F	0.237468	0.396103	-0.133727
F57	F	0.805187	0.503994	0.385864
H58	H	0.611123	0.218446	0.109567
H59	H	0.906289	0.014681	0.184390
F60	F	0.822655	-0.242726	-0.121800
H61	H	0.807187	0.468243	0.540989
F62	F	0.821199	-0.339663	0.094495
F63	F	0.725897	0.429656	0.147676
F64	F	0.023588	0.198879	0.127835
F65	F	0.173271	0.203853	-0.154224
H66	H	0.836698	-0.050619	0.431700
H67	H	0.164117	0.203546	0.110484
H68	H	0.836706	-0.050610	0.574661
H69	H	0.906329	0.014686	0.813436
F70	F	0.917957	-0.012060	0.662359
H71	H	0.737584	0.402936	0.788310
F72	F	0.256817	0.016544	0.106741
F73	F	0.023688	0.198903	-0.153916
H74	H	0.737575	0.402936	0.645348
F75	F	0.470592	0.213753	0.126914
F76	F	0.406399	0.021490	0.106425
F77	F	0.725918	0.429667	0.310341
H78	H	0.379165	0.377779	-0.119458
