data_functionalizedCrystal
_audit_creation_method	'MofGen! by Chris Wilmer'
_symmetry_space_group_name_H-M	'P1'
_symmetry_Int_Tables_number	1
_symmetry_cell_setting	triclinic
loop_
_symmetry_equiv_pos_as_xyz
  x,y,z
_cell_length_a	12.811445
_cell_length_b	15.072220
_cell_length_c	12.837942
_cell_angle_alpha	89.995878
_cell_angle_beta	89.412982
_cell_angle_gamma	95.437253
loop_
_atom_site_label
_atom_site_type_symbol
_atom_site_fract_x
_atom_site_fract_y
_atom_site_fract_z
O1	O	1.406654	0.186957	0.139686
O2	O	1.102587	0.162494	0.154872
O3	O	1.247878	0.174178	-0.003653
O4	O	1.261363	0.175273	0.298211
O5	O	1.247859	0.026611	-0.003633
O6	O	1.102569	0.014928	0.154892
O7	O	1.406635	0.039390	0.139706
Zn8	Zn	1.254599	0.003729	0.147302
Zn9	Zn	1.254624	0.198155	0.147276
O10	O	1.261344	0.027707	0.298231
C11	C	1.063389	0.085558	0.154031
C12	C	0.946615	0.076163	0.151481
N13	N	1.254590	-0.128960	0.147320
C14	C	0.727203	0.219404	0.146687
C15	C	0.617484	0.210580	0.144292
C16	C	0.617456	0.049695	0.144302
C17	C	0.727175	0.058518	0.146697
C18	C	0.782045	0.143375	0.147888
C19	C	0.891766	0.152198	0.150276
C20	C	0.891736	-0.008688	0.150294
C21	C	0.782017	-0.017511	0.147899
C22	C	1.254607	-0.309956	0.147296
C23	C	1.176847	-0.353878	0.232088
C24	C	1.176529	-0.456729	0.231854
C25	C	1.254623	-0.488159	0.147274
C26	C	1.220304	-0.453581	0.038833
C27	C	1.219725	-0.350771	0.039342
C28	C	1.366852	-0.338813	0.169969
C29	C	1.366370	-0.441717	0.172412
C30	C	1.254634	-0.588871	0.147255
C31	C	1.254593	-0.209244	0.147308
C32	C	1.445834	0.116328	0.140548
C33	C	1.562607	0.125729	0.143098
N34	N	1.254640	0.330845	0.147250
C35	C	1.243313	0.100028	-0.042283
C36	C	1.229727	0.098937	-0.157419
C37	C	1.393058	0.112095	-0.397671
C38	C	1.380297	0.111070	-0.505852
C39	C	1.191447	0.095868	-0.481964
C40	C	1.204207	0.096893	-0.373783
C41	C	1.305016	0.105006	-0.331641
C42	C	1.317776	0.106024	-0.223458
C43	C	1.128926	0.090828	-0.199572
C44	C	1.116165	0.089803	-0.307753
C45	C	1.265909	0.101858	0.336861
C46	C	1.279495	0.102955	0.451997
H47	H	0.936439	0.221293	0.151245
O48	O	0.944892	-0.082613	0.151597
C49	C	0.975582	-0.217631	0.242100
C50	C	0.915294	-0.133964	0.240747
H51	H	0.951691	-0.259162	0.314182
H52	H	0.956331	-0.258905	0.169190
H53	H	1.063423	-0.196727	0.243962
H54	H	0.827439	-0.154788	0.238921
H55	H	0.934633	-0.092710	0.313652
O56	O	1.018299	0.082044	-0.348818
C57	C	0.894271	0.148534	-0.457047
C58	C	1.005144	0.157429	-0.410632
H59	H	0.883592	0.209482	-0.507016
H60	H	0.883553	0.085959	-0.507164
H61	H	0.833555	0.143599	-0.391252
H62	H	1.065927	0.162401	-0.476361
H63	H	1.015772	0.219991	-0.360488
O64	O	1.043426	0.084103	-0.135387
C65	C	0.948263	0.152856	0.000655
C66	C	1.045120	0.160600	-0.071988
H67	H	0.949613	0.214686	0.051946
H68	H	0.873991	0.146937	-0.048004
H69	H	0.949519	0.091170	0.051852
H70	H	1.043966	0.222284	-0.123200
H71	H	1.119350	0.166470	-0.023268
O72	O	0.780346	0.301895	0.147887
C73	C	0.768801	0.460541	0.147558
C74	C	0.708488	0.367173	0.146218
H75	H	0.710731	0.513344	0.146187
H76	H	0.817783	0.468561	0.221187
H77	H	0.822555	0.468836	0.076209
H78	H	0.654679	0.358814	0.217517
H79	H	0.659575	0.359195	0.072542
H80	H	0.572836	0.272491	0.143316
H81	H	1.397253	-0.310431	0.247410
O82	O	0.564100	-0.032707	0.142973
C83	C	0.443039	-0.135780	0.050603
C84	C	0.503426	-0.042443	0.051958
H85	H	0.393953	-0.143674	-0.022965
H86	H	0.501029	-0.188653	0.051808
H87	H	0.389372	-0.144090	0.122014
H88	H	0.557095	-0.034046	-0.019441
H89	H	0.445378	0.010384	0.050806
O90	O	1.439683	-0.466527	0.103720
C91	C	1.600127	-0.535908	0.079928
C92	C	1.517166	-0.507883	0.157843
H93	H	1.662804	-0.569333	0.123659
H94	H	1.561104	-0.584625	0.020999
H95	H	1.637927	-0.474446	0.037444
H96	H	1.479337	-0.569291	0.200401
H97	H	1.556246	-0.459135	0.216705
O98	O	0.728551	-0.099870	0.146692
C99	C	0.559509	-0.184767	0.143072
C100	C	0.619925	-0.091441	0.144414
H101	H	0.471674	-0.177984	0.141253
H102	H	0.583349	-0.222526	0.071034
H103	H	0.578787	-0.222888	0.216017
H104	H	0.600678	-0.053246	0.071519
H105	H	0.596078	-0.053749	0.216500
H106	H	1.094247	-0.334694	0.217712
H107	H	1.198504	-0.480208	0.312434
H108	H	1.399859	0.112627	-0.189148
H109	H	1.198609	-0.327400	0.312941
H110	H	1.451990	0.116846	-0.559611
H111	H	1.093456	-0.488037	0.217268
O112	O	1.121622	-0.330205	0.015706
C113	C	0.944881	-0.385890	-0.027615
C114	C	1.055932	-0.409298	-0.000838
H115	H	0.891745	-0.449821	-0.041020
H116	H	0.912253	-0.347075	0.039558
H117	H	0.948455	-0.343430	-0.101287
H118	H	1.052448	-0.451786	0.072804
H119	H	1.088517	-0.448069	-0.068071
O120	O	1.283943	-0.315893	-0.038366
C121	C	1.320600	-0.310767	-0.222857
C122	C	1.247783	-0.350323	-0.134962
H123	H	1.291405	-0.338603	-0.300973
H124	H	1.320744	-0.235118	-0.223270
H125	H	1.403616	-0.329343	-0.209382
H126	H	1.164734	-0.331815	-0.148377
H127	H	1.247729	-0.425965	-0.134574
O128	O	1.285403	-0.477513	-0.038423
C129	C	1.301188	-0.558021	-0.199098
C130	C	1.227342	-0.530969	-0.111689
H131	H	1.254279	-0.601260	-0.258345
H132	H	1.339692	-0.495662	-0.239280
H133	H	1.364288	-0.597219	-0.164332
H134	H	1.164184	-0.491792	-0.146372
H135	H	1.188916	-0.593363	-0.071518
H136	H	1.139011	-0.485905	0.018517
H137	H	1.475140	0.118692	-0.363359
H138	H	1.392162	-0.464032	0.252199
H139	H	1.424842	-0.309782	0.108147
H140	H	1.109373	0.089272	-0.516296
