data_functionalizedCrystal
_audit_creation_method	'MofGen! by Chris Wilmer'
_symmetry_space_group_name_H-M	'P1'
_symmetry_Int_Tables_number	1
_symmetry_cell_setting	triclinic
loop_
_symmetry_equiv_pos_as_xyz
  x,y,z
_cell_length_a	6.817900
_cell_length_b	17.982959
_cell_length_c	16.255661
_cell_angle_alpha	95.649314
_cell_angle_beta	103.488922
_cell_angle_gamma	102.451857
loop_
_atom_site_label
_atom_site_type_symbol
_atom_site_fract_x
_atom_site_fract_y
_atom_site_fract_z
V1	V	-4.021547	-0.106029	-0.264227
O2	O	-4.014408	0.004462	-0.258833
O3	O	-3.968052	-0.209628	-0.262769
O4	O	-3.973175	-0.104676	-0.379305
O5	O	-4.009250	-0.101217	-0.141490
V6	V	-4.505831	-0.092780	-0.249504
O7	O	-4.281135	-0.135091	-0.296522
O8	O	-4.696441	-0.063718	-0.217208
O9	O	-4.336120	0.010819	-0.250961
O10	O	-4.630368	-0.203271	-0.254897
O11	O	-4.635526	-0.097592	-0.372240
O12	O	-4.330997	-0.094133	-0.134425
C13	C	-3.811813	-0.234875	-0.258691
C14	C	-3.849361	-0.319570	-0.258267
C15	C	-4.048920	-0.363251	-0.262302
C16	C	-4.084191	-0.442832	-0.261908
C17	C	-3.919899	-0.478730	-0.257473
C18	C	-3.720325	-0.435044	-0.253440
C19	C	-3.685060	-0.355465	-0.253840
C20	C	-3.862545	-0.755976	-0.251828
C21	C	-3.897826	-0.835560	-0.251426
C22	C	-4.261677	-0.843343	-0.259896
C23	C	-4.226411	-0.763764	-0.260296
C24	C	-4.026844	-0.720086	-0.256267
C25	C	-3.988602	-0.633795	-0.256696
C26	C	-3.958136	-0.565018	-0.257038
C27	C	-3.818346	-0.100997	-0.407343
C28	C	-3.860046	-0.100576	-0.501423
C29	C	-3.770848	-0.095550	-0.724225
C30	C	-3.924104	-0.160420	-0.793919
C31	C	-3.936469	-0.099787	-0.673669
C32	C	-3.857540	-0.034174	-0.771610
C33	C	-4.010275	-0.099021	-0.840050
C34	C	-4.089204	-0.164715	-0.742133
C35	C	-4.022581	-0.038412	-0.719809
C36	C	-4.175973	-0.103301	-0.789483
C37	C	-3.893947	-0.100229	-0.577821
C38	C	-4.052814	-0.098585	-0.935897
C39	C	-4.155701	0.036062	-0.255037
C40	C	-4.097391	0.120757	-0.255467
C41	C	-4.149168	-0.097815	-0.106382
C42	C	-4.086706	-0.098232	-0.012302
H43	H	-3.764031	-0.864786	-0.247820
C44	C	-3.469439	-0.230019	-0.250697
C45	C	-3.465699	-0.307447	-0.249404
H46	H	-3.334014	-0.200378	-0.247966
H47	H	-3.513007	-0.211504	-0.202900
H48	H	-3.563814	-0.225664	-0.302111
H49	H	-3.371335	-0.311803	-0.197987
H50	H	-3.422105	-0.325967	-0.297205
C51	C	-3.768020	0.040243	-0.878230
C52	C	-3.725867	0.040306	-0.789691
H53	H	-3.686709	0.086220	-0.889388
H54	H	-3.911495	0.037588	-0.900664
H55	H	-3.734407	-0.003116	-0.904682
H56	H	-3.759494	0.083662	-0.763240
H57	H	-3.582359	0.042969	-0.767247
H58	H	-4.182706	-0.334028	-0.265905
H59	H	-3.599249	-0.092357	-0.695734
H60	H	-3.586561	-0.464279	-0.249834
C61	C	-4.367712	-0.463518	-0.195858
C62	C	-4.303554	-0.490836	-0.266331
H63	H	-4.503140	-0.493155	-0.198586
H64	H	-4.370195	-0.410992	-0.196736
H65	H	-4.273325	-0.467894	-0.144457
H66	H	-4.397933	-0.486456	-0.317732
H67	H	-4.301086	-0.543376	-0.265460
H68	H	-3.700049	-0.720422	-0.248543
H69	H	-4.186730	-0.219944	-0.728851
C70	C	-4.529015	-0.176110	-0.813238
C71	C	-4.407771	-0.107746	-0.827776
H72	H	-4.672115	-0.178858	-0.836886
H73	H	-4.503801	-0.176825	-0.753372
H74	H	-4.493376	-0.219013	-0.839612
H75	H	-4.443400	-0.064843	-0.801397
H76	H	-4.432998	-0.107023	-0.887654
H77	H	-4.424178	-0.878916	-0.263177
C78	C	-3.955973	0.099499	-0.690549
C79	C	-4.078068	0.031224	-0.676219
H80	H	-3.990208	0.142492	-0.663631
H81	H	-3.981899	0.100551	-0.750372
H82	H	-3.813005	0.101760	-0.667349
H83	H	-4.221036	0.028960	-0.699425
H84	H	-4.052158	0.030172	-0.616384
H85	H	-3.882918	-0.212003	-0.826177
H86	H	-4.360196	-0.734539	-0.263903
