data_functionalizedCrystal
_audit_creation_method	'MofGen! by Chris Wilmer'
_symmetry_space_group_name_H-M	'P1'
_symmetry_Int_Tables_number	1
_symmetry_cell_setting	triclinic
loop_
_symmetry_equiv_pos_as_xyz
  x,y,z
_cell_length_a	16.120530
_cell_length_b	19.805405
_cell_length_c	19.805399
_cell_angle_alpha	90.029301
_cell_angle_beta	92.915522
_cell_angle_gamma	87.121765
loop_
_atom_site_label
_atom_site_type_symbol
_atom_site_fract_x
_atom_site_fract_y
_atom_site_fract_z
Zn1	Zn	-1.274516	0.322020	-0.435096
Zn2	Zn	-1.274411	0.435204	-0.321900
Zn3	Zn	-1.135102	0.316291	-0.316191
Zn4	Zn	-1.135057	0.429423	-0.429319
O5	O	-1.204772	0.375735	-0.375627
O6	O	-1.391168	0.341851	-0.424888
O7	O	-1.255907	0.419452	-0.226425
O8	O	-1.153659	0.222337	-0.331992
O9	O	-1.391091	0.425007	-0.341723
O10	O	-1.256085	0.226546	-0.419351
O11	O	-1.153557	0.332087	-0.222231
O12	O	-1.018431	0.326482	-0.326390
O13	O	-1.153582	0.415154	-0.524803
O14	O	-1.018398	0.409599	-0.409506
O15	O	-1.256042	0.336245	-0.529048
O16	O	-1.255863	0.529151	-0.336122
O17	O	-1.153480	0.524904	-0.415042
C18	C	-1.204678	0.551587	-0.375590
C19	C	-1.204714	0.626820	-0.375600
C20	C	-0.988164	0.366792	-0.366702
C21	C	-0.895499	0.362983	-0.362900
C22	C	-1.422225	0.384712	-0.384587
C23	C	-1.514890	0.388538	-0.388405
C24	C	-0.725838	0.356012	-0.355964
C25	C	-0.684546	0.395507	-0.395339
C26	C	-0.590141	0.391628	-0.391480
C27	C	-0.820252	0.359890	-0.359822
C28	C	-1.204819	0.375694	-0.552171
C29	C	-1.204838	0.375677	-0.627404
C30	C	-1.204889	0.199197	-0.375679
C31	C	-1.204938	0.123967	-0.375702
C32	C	-1.258077	0.664356	-0.334554
C33	C	-1.258112	0.735045	-0.334570
C34	C	-1.204780	0.768199	-0.375630
C35	C	-1.151415	0.730658	-0.416681
C36	C	-1.151385	0.659970	-0.416668
C37	C	-1.151538	1.015737	-0.416736
C38	C	-1.151571	1.086430	-0.416745
C39	C	-1.258266	1.090812	-0.334639
C40	C	-1.258235	1.020124	-0.334626
C41	C	-1.204874	0.982590	-0.375679
C42	C	-1.204837	0.905940	-0.375662
C43	C	-1.204812	0.844847	-0.375644
C44	C	-1.258190	0.334587	-0.664960
C45	C	-1.258199	0.334567	-0.735648
C46	C	-1.204859	0.375642	-0.768781
C47	C	-1.151501	0.416734	-0.731220
C48	C	-1.151489	0.416749	-0.660533
C49	C	-1.151548	0.416672	-1.016296
C50	C	-1.151566	0.416656	-1.086989
C51	C	-1.258258	0.334491	-1.091412
C52	C	-1.258246	0.334506	-1.020724
C53	C	-1.204885	0.375595	-0.983169
C54	C	-1.204876	0.375614	-0.906521
C55	C	-1.204873	0.375627	-0.845429
C56	C	-1.204773	0.375728	-0.199771
C57	C	-1.204915	0.375562	-0.124545
H58	H	-0.690290	0.319290	-0.319359
O59	O	-1.310036	0.771615	-0.294858
C60	C	-1.298682	0.841117	-0.303717
H61	H	-1.271189	0.849589	-0.354755
H62	H	-1.361196	0.870468	-0.301909
H63	H	-1.254481	0.859497	-0.261650
H64	H	-0.720096	0.432231	-0.431947
H65	H	-1.301660	0.993133	-0.301189
H66	H	-1.301629	0.301141	-0.637989
O67	O	-1.309938	0.294558	-0.988465
C68	C	-1.262480	0.248883	-0.945652
H69	H	-1.199289	0.270158	-0.932445
H70	H	-1.296432	0.241210	-0.897349
H71	H	-1.253344	0.198346	-0.972540
H72	H	-1.301502	0.637367	-0.301115
H73	H	-1.301718	1.121381	-0.301214
H74	H	-1.108111	0.450140	-0.985728
H75	H	-1.108143	1.113421	-0.450186
H76	H	-1.108088	0.985182	-0.450162
O77	O	-1.099635	0.762967	-0.456504
C78	C	-1.111116	0.833408	-0.447726
H79	H	-1.138463	0.844207	-0.396638
H80	H	-1.048675	0.857735	-0.449707
H81	H	-1.155490	0.855242	-0.489735
O82	O	-1.099472	0.623607	-0.456561
C83	C	-1.052422	0.668026	-0.492818
H84	H	-1.049570	0.718316	-0.464982
H85	H	-0.986724	0.644929	-0.497293
H86	H	-1.082925	0.676750	-0.545499
H87	H	-1.301646	0.301110	-0.766223
O88	O	-1.310009	0.294588	-1.127994
C89	C	-1.298598	0.303389	-1.197491
H90	H	-1.234245	0.322895	-1.204485
H91	H	-1.304293	0.252917	-1.224601
H92	H	-1.348028	0.341469	-1.219582
H93	H	-1.108127	0.450105	-1.113963
H94	H	-1.108068	0.450175	-0.758202
O95	O	-1.099647	0.456736	-0.624153
C96	C	-1.052560	0.492979	-0.668552
H97	H	-1.086712	0.496713	-0.720351
H98	H	-1.043641	0.545946	-0.647748
H99	H	-0.989255	0.465585	-0.673460
