data_functionalizedCrystal
_audit_creation_method	'MofGen! by Chris Wilmer'
_symmetry_space_group_name_H-M	'P1'
_symmetry_Int_Tables_number	1
_symmetry_cell_setting	triclinic
loop_
_symmetry_equiv_pos_as_xyz
  x,y,z
_cell_length_a	11.026607
_cell_length_b	9.482900
_cell_length_c	10.723024
_cell_angle_alpha	99.424795
_cell_angle_beta	83.473057
_cell_angle_gamma	101.363848
loop_
_atom_site_label
_atom_site_type_symbol
_atom_site_fract_x
_atom_site_fract_y
_atom_site_fract_z
O1	O	1.633307	0.120893	-0.508188
O2	O	1.279505	0.120895	-0.448576
O3	O	1.464566	0.120889	-0.298568
O4	O	1.448246	0.120899	-0.658196
O5	O	1.426978	-0.120903	-0.329195
O6	O	1.241916	-0.120896	-0.479203
O7	O	1.595718	-0.120898	-0.538815
Cu8	Cu	1.415385	-0.142975	-0.511805
Cu9	Cu	1.459838	0.142971	-0.475586
O10	O	1.410657	-0.120892	-0.688823
C11	C	1.215408	-0.000000	-0.452892
C12	C	1.080422	0.000001	-0.420109
C13	C	1.007370	0.000004	-0.510629
C14	C	0.867854	0.000005	-0.476748
N15	N	1.384128	-0.344094	-0.537281
C16	C	1.450610	-0.416295	-0.483092
C17	C	1.424613	-0.583712	-0.504300
C18	C	1.659816	0.000000	-0.534498
C19	C	1.794804	0.000009	-0.567280
C20	C	1.444584	-0.000005	-0.267125
C21	C	1.441032	-0.000000	-0.127803
N22	N	1.491105	0.344090	-0.450102
C23	C	1.430640	0.000005	-0.720265
C24	C	1.434194	0.000010	-0.859586
C25	C	1.544583	0.000001	-0.075171
C26	C	1.540913	0.000007	0.068825
H27	H	1.039682	0.000035	-0.317524
H28	H	1.307959	-0.406221	-0.599371
H29	H	1.526771	-0.354170	-0.420991
H30	H	1.348439	-0.645833	-0.566393
O31	O	1.653479	-0.000066	-0.148773
C32	C	1.632904	-0.000031	-0.276158
H33	H	1.531138	-0.045805	-0.291130
H34	H	1.693854	-0.070231	-0.341259
H35	H	1.657083	0.115968	-0.299092
O36	O	1.581696	-0.581802	-0.375676
C37	C	1.529080	-0.494017	-0.272938
H38	H	1.438100	-0.471238	-0.298944
H39	H	1.596146	-0.386968	-0.250582
H40	H	1.510448	-0.552856	-0.186212
O41	O	0.819281	-0.000253	-0.354374
C42	C	0.838991	-0.125459	-0.310383
H43	H	0.852416	-0.212986	-0.394642
H44	H	0.755113	-0.167493	-0.245359
H45	H	0.925381	-0.097147	-0.255575
O46	O	1.055867	-0.000250	-0.633061
C47	C	0.997224	-0.125454	-0.708766
H48	H	0.956586	-0.212982	-0.646678
H49	H	1.068031	-0.167488	-0.784440
H50	H	0.919637	-0.097136	-0.756398
O51	O	1.646572	0.000074	0.123067
C52	C	1.619382	0.000041	0.254761
H53	H	1.530943	0.045814	0.286889
H54	H	1.699617	0.070242	0.307126
H55	H	1.605603	-0.115958	0.276758
O56	O	1.328499	0.000267	0.086367
C57	C	1.343384	0.125471	0.027053
H58	H	1.418717	0.212997	0.072007
H59	H	1.252114	0.167508	0.039587
H60	H	1.371356	0.097153	-0.078396
O61	O	0.843305	-0.000239	-0.689716
C62	C	0.784673	-0.125438	-0.765434
H63	H	0.744028	-0.212973	-0.703354
H64	H	0.855489	-0.167465	-0.841101
H65	H	0.707092	-0.097119	-0.813075
O66	O	1.331917	-0.000188	-0.054548
C67	C	1.245926	-0.125433	-0.096205
H68	H	1.273196	-0.167191	-0.199404
H69	H	1.149201	-0.097267	-0.087855
H70	H	1.245845	-0.213116	-0.035041
