data_functionalizedCrystal
_audit_creation_method	'MofGen! by Chris Wilmer'
_symmetry_space_group_name_H-M	'P1'
_symmetry_Int_Tables_number	1
_symmetry_cell_setting	triclinic
loop_
_symmetry_equiv_pos_as_xyz
  x,y,z
_cell_length_a	10.654546
_cell_length_b	6.394989
_cell_length_c	9.730223
_cell_angle_alpha	89.998443
_cell_angle_beta	89.998853
_cell_angle_gamma	94.509403
loop_
_atom_site_label
_atom_site_type_symbol
_atom_site_fract_x
_atom_site_fract_y
_atom_site_fract_z
O1	O	1.670944	-0.293398	-0.114310
O2	O	1.305761	-0.321363	-0.114306
O3	O	1.493536	-0.003391	-0.114309
O4	O	1.483169	-0.611369	-0.114307
O5	O	1.493534	-0.003399	0.114271
O6	O	1.305759	-0.321371	0.114274
O7	O	1.670942	-0.293406	0.114269
Zn8	Zn	1.488350	-0.307389	0.150564
Zn9	Zn	1.488353	-0.307379	-0.150600
O10	O	1.483167	-0.611377	0.114273
C11	C	1.258940	-0.319315	-0.000015
C12	C	1.119432	-0.313176	-0.000014
C13	C	1.053907	-0.310267	-0.124619
C14	C	0.922825	-0.304482	-0.124630
C15	C	0.922804	-0.304508	0.124580
C16	C	1.053883	-0.310308	0.124590
C17	C	1.053919	-0.310243	-0.268499
C18	C	0.922837	-0.304458	-0.268510
C19	C	1.717763	-0.295454	-0.000024
C20	C	1.857271	-0.301592	-0.000034
C21	C	1.491485	0.074456	-0.000024
C22	C	1.485221	0.310782	-0.000026
N23	N	1.488357	-0.307396	0.356100
N24	N	1.488355	-0.307356	-0.356136
C25	C	1.571526	-0.166646	0.428025
C26	C	1.571523	-0.166620	0.571908
C27	C	1.405177	-0.448113	0.571929
C28	C	1.405176	-0.448127	0.428049
C29	C	1.667569	-0.004134	0.428014
C30	C	1.667565	-0.004109	0.571897
H31	H	1.107226	-0.312700	0.226056
H32	H	1.337442	-0.562718	0.369489
Br33	Br	0.878861	-0.058576	-0.360572
H34	H	1.104066	-0.161454	-0.313134
H35	H	1.764456	-0.039903	0.610946
H36	H	1.080301	-0.457759	-0.323741
Br37	Br	1.292289	-0.639091	0.669580
Br38	Br	1.628998	0.263505	0.362907
Br39	Br	0.839261	-0.552430	-0.342937
H40	H	0.869418	-0.302174	0.226028
H41	H	1.759292	-0.055016	0.383387
Br42	Br	1.614014	0.248794	0.646274
