data_functionalizedCrystal
_audit_creation_method	'MofGen! by Chris Wilmer'
_symmetry_space_group_name_H-M	'P1'
_symmetry_Int_Tables_number	1
_symmetry_cell_setting	triclinic
loop_
_symmetry_equiv_pos_as_xyz
  x,y,z
_cell_length_a	16.625546
_cell_length_b	10.685972
_cell_length_c	10.686551
_cell_angle_alpha	98.409768
_cell_angle_beta	85.590142
_cell_angle_gamma	85.613069
loop_
_atom_site_label
_atom_site_type_symbol
_atom_site_fract_x
_atom_site_fract_y
_atom_site_fract_z
Zn1	Zn	-0.180768	-1.995753	-0.866726
Zn2	Zn	0.319232	-1.495753	-0.366726
Zn3	Zn	-0.326841	-1.979298	-0.654441
Zn4	Zn	0.173159	-1.479298	-0.154441
Zn5	Zn	-0.203206	-1.767174	-0.638182
Zn6	Zn	0.296794	-1.267174	-0.138182
Zn7	Zn	-0.326759	-1.783422	-0.850347
Zn8	Zn	0.173241	-1.283422	-0.350347
O9	O	-0.259393	-1.881412	-0.752424
O10	O	0.240607	-1.381412	-0.252424
O11	O	-0.190790	-2.171206	-0.852225
O12	O	0.309210	-1.671206	-0.352225
O13	O	-0.319865	-1.937474	-0.474651
O14	O	0.180135	-1.437474	0.025349
O15	O	-0.087390	-1.797582	-0.668548
O16	O	0.412610	-1.297582	-0.168548
O17	O	-0.298108	-2.159117	-0.696260
O18	O	0.201892	-1.659117	-0.196260
O19	O	-0.070906	-1.965518	-0.836459
O20	O	0.429094	-1.465518	-0.336459
O21	O	-0.229031	-1.781627	-0.462705
O22	O	0.270969	-1.281627	0.037295
O23	O	-0.228951	-1.591694	-0.652666
O24	O	0.271049	-1.091694	-0.152666
O25	O	-0.297968	-1.825274	-1.030153
O26	O	0.202032	-1.325274	-0.530153
O27	O	-0.319725	-1.603631	-0.808543
O28	O	0.180275	-1.103631	-0.308543
O29	O	-0.190710	-1.981272	-1.042187
O30	O	0.309290	-1.481272	-0.542187
O31	O	-0.439669	-1.953228	-0.680379
O32	O	0.060331	-1.453228	-0.180379
O33	O	-0.439609	-1.809319	-0.824310
O34	O	0.060391	-1.309319	-0.324310
C35	C	-0.276764	-1.551603	-0.727064
C36	C	0.223236	-1.051603	-0.227064
C37	C	-0.284213	-1.410512	-0.716245
C38	C	0.215787	-0.910512	-0.216245
C39	C	-0.468893	-1.881288	-0.752361
C40	C	0.031107	-1.381288	-0.252361
C41	C	-0.558510	-1.881354	-0.752386
C42	C	-0.058510	-1.381354	-0.252386
C43	C	-0.886667	-1.881585	-0.752535
C44	C	-0.386667	-1.381585	-0.252535
C45	C	-0.795364	-1.881517	-0.752497
C46	C	-0.295364	-1.381517	-0.252497
C47	C	-0.722591	-1.881469	-0.752460
C48	C	-0.222591	-1.381469	-0.252460
C49	C	-0.631282	-1.881402	-0.752423
C50	C	-0.131282	-1.381402	-0.252423
C51	C	-0.049072	-1.881573	-0.752517
C52	C	0.450928	-1.381573	-0.252517
C53	C	0.040554	-1.881642	-0.752556
C54	C	0.540554	-1.381642	-0.252556
C55	C	-0.241827	-1.906921	-1.083516
C56	C	0.258173	-1.406921	-0.583516
C57	C	-0.234341	-1.917791	-1.224608
C58	C	0.265659	-1.417791	-0.724608
C59	C	-0.241950	-1.212508	-0.777877
C60	C	0.258050	-0.712508	-0.277877
C61	C	-0.234504	-1.353600	-0.788709
C62	C	0.265496	-0.853600	-0.288709
C63	C	-0.276829	-1.856075	-0.422625
C64	C	0.223171	-1.356075	0.077375
C65	C	-0.284075	-1.845451	-0.281553
C66	C	0.215925	-1.345451	0.218447
H67	H	-0.186243	-1.412814	-0.859024
H68	H	0.313757	-0.912814	-0.359024
Br69	Br	-0.153828	-2.034902	-1.323258
Br70	Br	0.346172	-1.534902	-0.823258
H71	H	-0.332473	-1.351291	-0.645918
H72	H	0.167527	-0.851291	-0.145918
H73	H	-0.332383	-1.775204	-1.222366
H74	H	0.167617	-1.275204	-0.722366
