data_functionalizedCrystal
_audit_creation_method	'MofGen! by Chris Wilmer'
_symmetry_space_group_name_H-M	'P1'
_symmetry_Int_Tables_number	1
_symmetry_cell_setting	triclinic
loop_
_symmetry_equiv_pos_as_xyz
  x,y,z
_cell_length_a	17.699091
_cell_length_b	17.699097
_cell_length_c	16.176319
_cell_angle_alpha	90.004855
_cell_angle_beta	89.993562
_cell_angle_gamma	96.712747
loop_
_atom_site_label
_atom_site_type_symbol
_atom_site_fract_x
_atom_site_fract_y
_atom_site_fract_z
O1	O	-0.095762	1.004068	0.068813
O2	O	0.404238	1.504068	0.568813
O3	O	-0.108204	0.783691	0.068799
O4	O	0.391796	1.283691	0.568799
O5	O	0.008205	0.900103	0.068804
O6	O	0.508205	1.400103	0.568804
O7	O	-0.212172	0.887657	0.068809
O8	O	0.287828	1.387657	0.568809
O9	O	0.008216	0.900101	-0.068690
O10	O	0.508216	1.400101	0.431310
O11	O	-0.108193	0.783689	-0.068694
O12	O	0.391807	1.283689	0.431306
O13	O	-0.095752	1.004066	-0.068680
O14	O	0.404248	1.504066	0.431320
Cu15	Cu	-0.101972	0.893877	-0.081241
Cu16	Cu	0.398028	1.393877	0.418759
Cu17	Cu	-0.101984	0.893880	0.081361
Cu18	Cu	0.398016	1.393880	0.581361
O19	O	-0.212161	0.887654	-0.068684
O20	O	0.287839	1.387654	0.431316
C21	C	-0.107751	0.755494	0.000051
C22	C	0.392249	1.255494	0.500051
C23	C	-0.106409	0.671476	0.000046
C24	C	0.393591	1.171476	0.500046
C25	C	0.036408	0.899655	0.000058
C26	C	0.536408	1.399655	0.500058
C27	C	0.120425	0.898314	0.000061
C28	C	0.620425	1.398314	0.500061
C29	C	-0.098185	0.155759	0.075027
C30	C	0.401815	0.655759	0.575027
C31	C	-0.099441	0.234703	0.075023
C32	C	0.400559	0.734703	0.575023
C33	C	-0.100065	0.274168	0.000072
C34	C	0.399935	0.774168	0.500072
C35	C	-0.099424	0.234685	-0.074880
C36	C	0.400576	0.734685	0.425120
C37	C	-0.098163	0.155743	-0.074875
C38	C	0.401837	0.655743	0.425125
C39	C	-0.104512	0.553049	-0.074902
C40	C	0.395488	1.053049	0.425098
C41	C	-0.105776	0.631997	-0.074901
C42	C	0.394224	1.131997	0.425099
C43	C	-0.105791	0.632009	0.074996
C44	C	0.394209	1.132009	0.574996
C45	C	-0.104529	0.553067	0.075001
C46	C	0.395471	1.053067	0.575001
C47	C	-0.103884	0.513592	0.000050
C48	C	0.396116	1.013592	0.500050
C49	C	-0.102521	0.427992	0.000055
C50	C	0.397479	0.927992	0.500055
C51	C	-0.101434	0.359765	0.000065
C52	C	0.398566	0.859765	0.500065
C53	C	0.159887	0.897687	0.075009
C54	C	0.659887	1.397687	0.575009
C55	C	0.238830	0.896422	0.075009
C56	C	0.738830	1.396422	0.575009
C57	C	0.278311	0.895790	0.000060
C58	C	0.778311	1.395790	0.500060
C59	C	0.238843	0.896415	-0.074894
C60	C	0.738843	1.396415	0.425106
C61	C	0.159901	0.897674	-0.074893
C62	C	0.659901	1.397674	0.425107
C63	C	0.557209	0.891335	-0.074899
C64	C	1.057209	1.391335	0.425101
C65	C	0.636157	0.890078	-0.074894
C66	C	1.136157	1.390078	0.425106
C67	C	0.636138	0.890084	0.075003
C68	C	1.136138	1.390084	0.575003
C69	C	0.557196	0.891343	0.075004
C70	C	1.057196	1.391343	0.575004
C71	C	0.517734	0.891964	0.000051
C72	C	1.017734	1.391964	0.500051
C73	C	0.432135	0.893333	0.000052
C74	C	0.932135	1.393333	0.500052
C75	C	0.363909	0.894426	0.000058
C76	C	0.863909	1.394426	0.500058
C77	C	0.759637	0.888103	0.000061
C78	C	1.259637	1.388103	0.500061
C79	C	0.675619	0.889446	0.000055
C80	C	1.175619	1.389446	0.500055
C81	C	-0.096204	1.032264	0.000070
C82	C	0.403796	1.532264	0.500070
C83	C	-0.097547	1.116281	0.000081
C84	C	0.402453	1.616281	0.500081
N85	N	-0.101988	0.893882	0.195726
N86	N	0.398012	1.393882	0.695726
N87	N	-0.101962	0.893881	-0.195606
N88	N	0.398038	1.393881	0.304394
C89	C	-0.050543	0.945525	0.238992
C90	C	0.449457	1.445525	0.738992
C91	C	-0.050541	0.945528	0.325539
C92	C	0.449459	1.445528	0.825539
C93	C	-0.101981	0.893884	0.368818
C94	C	0.398019	1.393884	0.868818
C95	C	-0.153431	0.842239	0.325546
C96	C	0.346569	1.342239	0.825546
C97	C	-0.153436	0.842240	0.239001
C98	C	0.346564	1.342240	0.739001
C99	C	-0.153414	0.842233	0.674574
C100	C	0.346586	1.342233	1.174574
C101	C	-0.153404	0.842234	0.761126
C102	C	0.346596	1.342234	1.261126
C103	C	-0.050519	0.945521	0.761113
C104	C	0.449481	1.445521	1.261113
C105	C	-0.050524	0.945522	0.674567
C106	C	0.449476	1.445522	1.174567
C107	C	-0.101976	0.893880	0.631303
C108	C	0.398024	1.393880	1.131303
C109	C	-0.101979	0.893879	0.537458
C110	C	0.398021	1.393879	1.037458
C111	C	-0.101976	0.893881	0.462661
C112	C	0.398024	1.393881	0.962661
H113	H	-0.097683	0.123631	0.136061
H114	H	0.402317	0.623631	0.636061
H115	H	0.668300	0.889562	-0.135930
H116	H	1.168300	1.389562	0.364070
H117	H	-0.195307	0.800183	0.639355
H118	H	0.304693	1.300183	1.139355
Cl119	Cl	0.507567	0.892141	0.169229
Cl120	Cl	1.007567	1.392141	0.669229
H121	H	0.668276	0.889574	0.136034
H122	H	1.168276	1.389574	0.636034
Cl123	Cl	0.507609	0.892104	-0.169126
Cl124	Cl	1.007609	1.392104	0.330874
Cl125	Cl	-0.218077	0.777307	0.815534
Cl126	Cl	0.281923	1.277307	1.315534
H127	H	-0.103976	0.520920	-0.135932
H128	H	0.396024	1.020920	0.364068
H129	H	-0.008626	0.987573	0.796348
H130	H	0.491374	1.487573	1.296348
H131	H	-0.008651	0.987576	0.203759
H132	H	0.491349	1.487576	0.703759
Cl133	Cl	-0.106558	0.681609	-0.169132
Cl134	Cl	0.393442	1.181609	0.330868
H135	H	-0.106312	0.664159	0.136025
H136	H	0.393688	1.164159	0.636025
Cl137	Cl	0.288475	0.895611	-0.169116
Cl138	Cl	0.788475	1.395611	0.330884
Cl139	Cl	0.110292	0.898461	-0.169117
Cl140	Cl	0.610292	1.398461	0.330883
Cl141	Cl	-0.218104	0.777317	0.379953
Cl142	Cl	0.281896	1.277317	0.879953
H143	H	0.127748	0.898206	0.136041
H144	H	0.627748	1.398206	0.636041
Cl145	Cl	-0.100240	0.284328	0.169245
Cl146	Cl	0.399760	0.784328	0.669245
H147	H	-0.008634	0.987573	0.639332
H148	H	0.491366	1.487573	1.139332
Cl149	Cl	-0.100207	0.284299	-0.169105
Cl150	Cl	0.399793	0.784299	0.330895
Cl151	Cl	0.014133	1.010452	0.379932
Cl152	Cl	0.514133	1.510452	0.879932
H153	H	-0.104025	0.520938	0.136034
H154	H	0.395975	1.020938	0.636034
H155	H	-0.195329	0.800188	0.203774
H156	H	0.304671	1.300188	0.703774
H157	H	-0.097651	0.123601	-0.135904
H158	H	0.402349	0.623601	0.364096
Cl159	Cl	0.288436	0.895636	0.169234
Cl160	Cl	0.788436	1.395636	0.669234
