data_functionalizedCrystal
_audit_creation_method	'MofGen! by Chris Wilmer'
_symmetry_space_group_name_H-M	'P1'
_symmetry_Int_Tables_number	1
_symmetry_cell_setting	triclinic
loop_
_symmetry_equiv_pos_as_xyz
  x,y,z
_cell_length_a	13.635800
_cell_length_b	12.095388
_cell_length_c	11.102291
_cell_angle_alpha	78.395908
_cell_angle_beta	108.605752
_cell_angle_gamma	148.803837
loop_
_atom_site_label
_atom_site_type_symbol
_atom_site_fract_x
_atom_site_fract_y
_atom_site_fract_z
V1	V	2.233782	0.295121	0.395360
O2	O	2.026748	-0.014154	0.388759
O3	O	2.397110	0.585150	0.391767
O4	O	2.219443	0.290594	0.568196
O5	O	2.205645	0.282441	0.211108
V6	V	2.450018	0.258127	0.373430
O7	O	2.420401	0.376272	0.443466
O8	O	2.488497	0.176977	0.325325
O9	O	2.175086	-0.031901	0.377024
O10	O	2.715750	0.567403	0.380032
O11	O	2.536853	0.270808	0.557682
O12	O	2.352754	0.262655	0.200594
V13	V	2.733782	0.295121	0.395360
O14	O	2.526748	-0.014154	0.388759
O15	O	2.897110	0.585150	0.391767
O16	O	2.719443	0.290594	0.568196
O17	O	2.705645	0.282441	0.211108
V18	V	2.950018	0.258127	0.373430
O19	O	2.920401	0.376272	0.443466
O20	O	2.988497	0.176977	0.325325
O21	O	2.675086	-0.031901	0.377024
O22	O	3.215750	0.567403	0.380032
O23	O	3.036853	0.270808	0.557682
O24	O	2.852754	0.262655	0.200594
C25	C	2.364922	0.655855	0.385307
C26	C	2.542448	0.897414	0.383491
C27	C	2.038969	-0.102593	0.383488
C28	C	1.850880	-0.344144	0.385334
C29	C	2.138278	0.280114	0.610352
C30	C	2.168437	0.278331	0.751641
C31	C	2.265594	0.273141	0.158432
C32	C	2.225047	0.274913	0.017142
C33	C	2.638278	0.280114	0.610352
C34	C	2.668437	0.278331	0.751641
C35	C	2.765594	0.273141	0.158432
C36	C	2.725047	0.274913	0.017142
C37	C	2.281025	0.288131	0.824459
C38	C	2.309325	0.286414	0.957210
C39	C	2.112444	0.265106	0.944314
C40	C	2.084134	0.266808	0.811564
C41	C	2.394700	0.300443	0.831906
C42	C	2.423001	0.298726	0.964658
C43	C	2.781025	0.288131	0.824459
C44	C	2.809325	0.286414	0.957210
C45	C	2.612444	0.265106	0.944314
C46	C	2.584134	0.266808	0.811564
C47	C	2.894700	0.300443	0.831906
C48	C	2.923001	0.298726	0.964658
H49	H	1.992458	0.258830	0.752280
H50	H	3.038339	0.459500	0.806959
F51	F	2.827448	0.100797	1.003306
H52	H	2.043809	0.255720	0.993119
H53	H	3.087871	0.452944	1.017035
H54	H	2.349887	0.147289	0.994220
H55	H	2.317118	0.155678	0.785251
H56	H	2.587871	0.452944	1.017035
H57	H	2.538339	0.459500	0.806959
F58	F	2.522734	0.252845	1.008100
F59	F	2.464293	0.256362	0.734068
H60	H	2.817118	0.155678	0.785251
