data_functionalizedCrystal
_audit_creation_method	'MofGen! by Chris Wilmer'
_symmetry_space_group_name_H-M	'P1'
_symmetry_Int_Tables_number	1
_symmetry_cell_setting	triclinic
loop_
_symmetry_equiv_pos_as_xyz
  x,y,z
_cell_length_a	17.019372
_cell_length_b	17.038274
_cell_length_c	14.421503
_cell_angle_alpha	89.983208
_cell_angle_beta	86.128815
_cell_angle_gamma	92.756493
loop_
_atom_site_label
_atom_site_type_symbol
_atom_site_fract_x
_atom_site_fract_y
_atom_site_fract_z
O1	O	1.053349	-0.099573	-0.006911
O2	O	0.824539	-0.112281	0.011348
O3	O	0.937584	0.007887	0.002302
O4	O	0.940304	-0.219741	0.002136
O5	O	0.937572	0.007900	-0.151921
O6	O	0.824527	-0.112268	-0.142874
O7	O	1.053337	-0.099560	-0.161133
Cu8	Cu	0.938931	-0.105913	-0.166085
Cu9	Cu	0.938945	-0.105928	0.016301
O10	O	0.940292	-0.219728	-0.152087
C11	C	0.795112	-0.111794	-0.063415
C12	C	0.707446	-0.110352	-0.056421
C13	C	0.935104	0.037020	-0.074617
C14	C	0.927724	0.123806	-0.074041
C15	C	0.211628	-0.102173	-0.012582
C16	C	0.293999	-0.103527	-0.019166
C17	C	0.335170	-0.104204	-0.106526
C18	C	0.293966	-0.103517	-0.187306
C19	C	0.211596	-0.102157	-0.180721
C20	C	0.583873	-0.108305	-0.130616
C21	C	0.666248	-0.109668	-0.137195
C22	C	0.666276	-0.109677	0.030946
C23	C	0.583904	-0.108321	0.037524
C24	C	0.542707	-0.107631	-0.043257
C25	C	0.419367	-0.105591	-0.113259
C26	C	0.458513	-0.106238	-0.036523
C27	C	0.995483	0.173981	-0.079457
C28	C	0.988543	0.255525	-0.078908
C29	C	0.913844	0.286893	-0.072949
C30	C	0.846080	0.236712	-0.067530
C31	C	0.853020	0.155170	-0.068073
C32	C	0.889326	0.532629	-0.071020
C33	C	0.882391	0.614179	-0.070480
C34	C	1.024855	0.632985	-0.081856
C35	C	1.031789	0.551440	-0.082404
C36	C	0.964024	0.501267	-0.076980
C37	C	0.906749	0.370244	-0.072390
C38	C	0.971120	0.417917	-0.077532
C39	C	1.082764	-0.100047	-0.086367
C40	C	1.170429	-0.101489	-0.093356
C41	C	0.942771	0.751139	-0.075206
C42	C	0.950150	0.664353	-0.075896
N43	N	0.938927	-0.105902	-0.294366
C44	C	0.990749	-0.049895	-0.609942
C45	C	1.011423	-0.120305	-0.549740
C46	C	0.938946	-0.105924	-0.666257
C47	C	0.918299	-0.035504	-0.542368
C48	C	0.938938	-0.105909	-0.483535
C49	C	0.959658	-0.176370	-0.607418
C50	C	0.866500	-0.091523	-0.600049
C51	C	0.887148	-0.161985	-0.539872
C52	C	0.938952	-0.105931	-0.771518
C53	C	0.938932	-0.105910	-0.378275
N54	N	0.938955	-0.105933	0.144581
H55	H	0.178112	-0.101628	0.058556
H56	H	0.805255	-0.079320	-0.622359
H57	H	1.031940	0.392373	-0.082363
Cl58	Cl	0.718071	-0.110538	0.132491
H59	H	0.699766	-0.110224	-0.208338
Cl60	Cl	0.532092	-0.107458	-0.232169
H61	H	0.900840	0.024043	-0.513848
H62	H	0.327540	-0.104080	0.046609
H63	H	1.043720	0.296374	-0.083320
H64	H	0.550389	-0.107770	0.108661
Cl65	Cl	0.752172	0.276147	-0.060028
Cl66	Cl	0.345724	-0.104365	-0.297131
H67	H	0.797843	0.114318	-0.063663
Cl68	Cl	0.986730	-0.268325	-0.651276
H69	H	1.092616	0.525907	-0.087256
H70	H	0.178053	-0.101608	-0.246496
Cl71	Cl	0.812844	0.409686	-0.064895
H72	H	0.821559	0.639715	-0.065643
Cl73	Cl	0.406755	-0.105376	0.073297
H74	H	1.034595	-0.002571	-0.640576
Cl75	Cl	1.110038	0.696065	-0.088671
H76	H	0.452897	-0.106143	-0.184387
Cl77	Cl	1.089395	0.134555	-0.086958
H78	H	0.834147	0.491787	-0.066604
Cl79	Cl	1.106002	-0.139098	-0.515300
H80	H	0.843338	-0.209412	-0.509411
