data_functionalizedCrystal
_audit_creation_method	'MofGen! by Chris Wilmer'
_symmetry_space_group_name_H-M	'P1'
_symmetry_Int_Tables_number	1
_symmetry_cell_setting	triclinic
loop_
_symmetry_equiv_pos_as_xyz
  x,y,z
_cell_length_a	10.654546
_cell_length_b	12.996460
_cell_length_c	10.654550
_cell_angle_alpha	90.004964
_cell_angle_beta	95.515787
_cell_angle_gamma	89.986837
loop_
_atom_site_label
_atom_site_type_symbol
_atom_site_fract_x
_atom_site_fract_y
_atom_site_fract_z
O1	O	-1.667845	0.085746	0.176381
O2	O	-1.167845	0.585746	0.676381
O3	O	-1.302366	0.085708	0.193191
O4	O	-0.802366	0.585708	0.693191
O5	O	-1.493509	0.085724	0.002047
O6	O	-0.993509	0.585724	0.502047
O7	O	-1.476703	0.085730	0.367525
O8	O	-0.976703	0.585730	0.867525
O9	O	-1.493489	-0.085410	0.002036
O10	O	-0.993489	0.414590	0.502036
O11	O	-1.302346	-0.085426	0.193181
O12	O	-0.802346	0.414574	0.693181
O13	O	-1.667825	-0.085388	0.176370
O14	O	-1.167825	0.414612	0.676370
Cu15	Cu	-1.485084	-0.101033	0.184774
Cu16	Cu	-0.985084	0.398967	0.684774
Cu17	Cu	-1.485108	0.101353	0.184787
Cu18	Cu	-0.985108	0.601353	0.684787
O19	O	-1.476683	-0.085404	0.367515
O20	O	-0.976683	0.414596	0.867515
C21	C	-1.255558	0.000136	0.191953
C22	C	-0.755558	0.500136	0.691953
C23	C	-1.116115	0.000122	0.188262
C24	C	-0.616115	0.500122	0.688262
C25	C	-1.036629	0.000134	0.300805
C26	C	-0.536629	0.500134	0.800805
C27	C	-0.905608	0.000144	0.297330
C28	C	-0.405608	0.500144	0.797330
C29	C	-0.933571	0.000134	0.068760
C30	C	-0.433571	0.500134	0.568760
C31	C	-1.064590	0.000116	0.072236
C32	C	-0.564590	0.500116	0.572236
C33	C	-1.020483	0.000145	0.432768
C34	C	-0.520483	0.500145	0.932768
C35	C	-0.889462	0.000155	0.429293
C36	C	-0.389462	0.500155	0.929293
N37	N	-1.485076	-0.243380	0.184765
N38	N	-0.985076	0.256620	0.684765
C39	C	-1.485106	-0.663194	0.184788
C40	C	-0.985106	-0.163194	0.684788
C41	C	-1.485094	-0.546389	0.184786
C42	C	-0.985094	-0.046389	0.684786
C43	C	-1.485092	-0.453291	0.184777
C44	C	-0.985092	0.046709	0.684777
C45	C	-1.485079	-0.336478	0.184773
C46	C	-0.985079	0.163522	0.684773
C47	C	-0.714633	0.000171	0.177612
C48	C	-0.214633	0.500171	0.677612
C49	C	-0.854075	0.000149	0.181311
C50	C	-0.354075	0.500149	0.681311
C51	C	-1.492265	0.000158	-0.044757
C52	C	-0.992265	0.500158	0.455243
C53	C	-1.488573	0.000161	-0.184200
C54	C	-0.988573	0.500161	0.315800
N55	N	-1.485125	0.243700	0.184787
N56	N	-0.985125	0.743700	0.684787
C57	C	-1.601115	0.000170	-0.263687
C58	C	-1.101115	0.500170	0.236313
C59	C	-1.597638	0.000177	-0.394708
C60	C	-1.097638	0.500177	0.105292
C61	C	-1.369068	0.000162	-0.366741
C62	C	-0.869068	0.500162	0.133259
C63	C	-1.372546	0.000163	-0.235723
C64	C	-0.872546	0.500163	0.264277
C65	C	-1.733078	0.000174	-0.279834
C66	C	-1.233078	0.500174	0.220166
C67	C	-1.729601	0.000181	-0.410855
C68	C	-1.229601	0.500181	0.089145
C69	C	-1.477927	0.000164	0.414318
C70	C	-0.977927	0.500164	0.914318
C71	C	-1.481619	0.000168	0.553761
C72	C	-0.981619	0.500168	1.053761
H73	H	-0.891603	0.000145	-0.025705
H74	H	-0.391603	0.500145	0.474295
H75	H	-1.775091	-0.073714	-0.244212
H76	H	-1.275091	0.426286	0.255788
H77	H	-1.049806	-0.071476	0.484374
H78	H	-0.549806	0.428524	0.984374
H79	H	-1.280904	0.000170	-0.171008
H80	H	-0.780904	0.500170	0.328992
H81	H	-1.056148	0.074033	0.474791
H82	H	-0.556148	0.574033	0.974791
H83	H	-0.843782	-0.073730	0.469170
H84	H	-0.343782	0.426270	0.969170
H85	H	-0.847738	0.071778	0.479020
H86	H	-0.347738	0.571778	0.979020
O87	O	-1.243927	0.000148	-0.422311
O88	O	-0.743927	0.500148	0.077689
H89	H	-1.260414	0.000141	-0.526771
H90	H	-0.760414	0.500141	-0.026771
H91	H	-1.784702	0.071794	-0.250472
H92	H	-1.284702	0.571794	0.249528
H93	H	-1.129304	0.000091	-0.019407
H94	H	-0.629304	0.500091	0.480593
H95	H	-1.769491	0.074076	-0.456494
H96	H	-1.269491	0.574076	0.043506
H97	H	-1.779315	-0.071432	-0.452620
H98	H	-1.279315	0.428568	0.047380
