data_functionalizedCrystal
_audit_creation_method	'MofGen! by Chris Wilmer'
_symmetry_space_group_name_H-M	'P1'
_symmetry_Int_Tables_number	1
_symmetry_cell_setting	triclinic
loop_
_symmetry_equiv_pos_as_xyz
  x,y,z
_cell_length_a	16.120530
_cell_length_b	12.594516
_cell_length_c	12.594517
_cell_angle_alpha	89.999530
_cell_angle_beta	92.898144
_cell_angle_gamma	87.111852
loop_
_atom_site_label
_atom_site_type_symbol
_atom_site_fract_x
_atom_site_fract_y
_atom_site_fract_z
Zn1	Zn	1.274435	-0.506639	0.684277
Zn2	Zn	1.274395	-0.684563	0.506302
Zn3	Zn	1.135062	-0.497563	0.497294
Zn4	Zn	1.135002	-0.675533	0.675219
O5	O	1.204724	-0.591075	0.590773
O6	O	1.391095	-0.537818	0.668229
O7	O	1.255920	-0.659739	0.356162
O8	O	1.153592	-0.349824	0.522119
O9	O	1.391065	-0.668538	0.537471
O10	O	1.255989	-0.356492	0.659494
O11	O	1.153553	-0.522351	0.349544
O12	O	1.018389	-0.513594	0.513336
O13	O	1.153490	-0.653148	0.825366
O14	O	1.018345	-0.644348	0.644057
O15	O	1.255931	-0.529062	0.832021
O16	O	1.255863	-0.832309	0.528689
O17	O	1.153451	-0.825674	0.652791
C18	C	0.988117	-0.577007	0.576737
C19	C	0.895452	-0.571015	0.570757
C20	C	0.725792	-0.560049	0.559849
C21	C	0.684496	-0.622179	0.621775
C22	C	0.590091	-0.616077	0.615706
C23	C	0.820205	-0.566149	0.565917
C24	C	1.204669	-0.867612	0.590759
C25	C	1.204722	-0.985921	0.590794
C26	C	1.149015	-1.051604	0.658243
C27	C	1.128727	-1.121108	0.559808
C28	C	1.225086	-1.127220	0.689250
C29	C	1.184394	-1.053865	0.492305
C30	C	1.280788	-1.059973	0.621815
C31	C	1.260529	-1.129447	0.523315
C32	C	1.422176	-0.605198	0.604865
C33	C	1.514841	-0.611216	0.610870
C34	C	1.204708	-0.591110	0.868393
C35	C	1.204702	-0.591125	0.986698
C36	C	1.204801	-0.313459	0.590812
C37	C	1.204834	-0.195155	0.590828
C38	C	1.148983	-0.658587	1.123095
C39	C	1.128618	-0.560171	1.050973
C40	C	1.225029	-0.689528	1.057246
C41	C	1.184291	-0.492613	1.125359
C42	C	1.280737	-0.622038	1.131640
C43	C	1.260401	-0.523556	1.059552
C44	C	1.204721	-0.591072	1.314232
C45	C	1.204695	-0.591083	1.195925
H46	H	1.101821	-1.017537	0.715189
H47	H	1.307518	-0.466419	1.031731
C48	C	1.043146	-1.268831	0.523870
C49	C	1.041957	-1.157588	0.524397
H50	H	0.989577	-1.291347	0.502007
H51	H	1.057951	-1.295035	0.593331
H52	H	1.082708	-1.295553	0.475897
H53	H	1.002399	-1.130866	0.572376
H54	H	1.027141	-1.131373	0.454925
C55	C	1.388687	-0.760549	1.145019
C56	C	1.367518	-0.657403	1.179298
H57	H	1.442259	-0.782391	1.174450
H58	H	1.389199	-0.761449	1.069645
H59	H	1.348963	-0.807763	1.167733
H60	H	1.407238	-0.610188	1.156577
H61	H	1.367011	-0.656496	1.254688
C62	C	0.711474	-0.804216	0.675014
C63	C	0.732473	-0.700180	0.699496
H64	H	0.741093	-0.852367	0.722996
H65	H	0.725681	-0.820557	0.604375
H66	H	0.653405	-0.810281	0.681084
H67	H	0.790541	-0.694112	0.693418
H68	H	0.718271	-0.683833	0.770152
H69	H	1.167141	-1.021812	0.409028
C70	C	1.005745	-0.702863	1.120025
C71	C	1.085334	-0.735520	1.160930
H72	H	0.966451	-0.750351	1.143391
H73	H	1.004963	-0.702941	1.044566
H74	H	0.991842	-0.633153	1.144395
H75	H	1.099240	-0.805228	1.136554
H76	H	1.086118	-0.735453	1.236405
H77	H	1.064314	-0.534000	1.015703
C78	C	0.592226	-0.491053	0.491079
C79	C	0.677814	-0.482067	0.482120
H80	H	0.562601	-0.442916	0.443087
H81	H	0.578027	-0.474688	0.561716
H82	H	0.578004	-0.561647	0.474492
H83	H	0.692037	-0.411475	0.498715
H84	H	0.692019	-0.498425	0.411468
C85	C	1.302724	-1.137898	0.343265
C86	C	1.324188	-1.175182	0.446246
H87	H	1.342020	-1.166141	0.295685
H88	H	1.302709	-1.062486	0.342414
H89	H	1.248891	-1.159798	0.321850
H90	H	1.378020	-1.153275	0.467664
H91	H	1.324213	-1.250610	0.447101
H92	H	1.345049	-1.032934	0.648072
H93	H	1.242264	-1.159396	0.772500
H94	H	1.167022	-0.409347	1.155189
C95	C	1.189822	-0.872416	1.048749
C96	C	1.248255	-0.801894	1.016804
H97	H	1.204162	-0.941787	1.023790
H98	H	1.136196	-0.849983	1.019979
H99	H	1.189493	-0.873315	1.124146
H100	H	1.248580	-0.800989	0.941406
H101	H	1.301895	-0.824333	1.045569
