data_functionalizedCrystal
_audit_creation_method	'MofGen! by Chris Wilmer'
_symmetry_space_group_name_H-M	'P1'
_symmetry_Int_Tables_number	1
_symmetry_cell_setting	triclinic
loop_
_symmetry_equiv_pos_as_xyz
  x,y,z
_cell_length_a	29.839134
_cell_length_b	29.839131
_cell_length_c	29.839125
_cell_angle_alpha	89.982291
_cell_angle_beta	89.978020
_cell_angle_gamma	90.036281
loop_
_atom_site_label
_atom_site_type_symbol
_atom_site_fract_x
_atom_site_fract_y
_atom_site_fract_z
Zn1	Zn	0.686720	-0.178978	-0.254125
Zn2	Zn	0.936720	0.071022	-0.004125
Zn3	Zn	1.186720	0.321022	0.245875
Zn4	Zn	1.436720	0.571022	0.495875
Zn5	Zn	0.686652	-0.254090	-0.178995
Zn6	Zn	0.936652	-0.004090	0.071005
Zn7	Zn	1.186652	0.245910	0.321005
Zn8	Zn	1.436652	0.495910	0.571005
Zn9	Zn	0.611602	-0.178968	-0.178995
Zn10	Zn	0.861602	0.071032	0.071005
Zn11	Zn	1.111602	0.321032	0.321005
Zn12	Zn	1.361602	0.571032	0.571005
Zn13	Zn	0.611550	-0.254075	-0.254083
Zn14	Zn	0.861550	-0.004075	-0.004083
Zn15	Zn	1.111550	0.245925	0.245917
Zn16	Zn	1.361550	0.495925	0.495917
O17	O	0.649131	-0.216528	-0.216549
O18	O	0.899131	0.033472	0.033451
O19	O	1.149131	0.283472	0.283451
O20	O	1.399131	0.533472	0.533451
O21	O	0.749578	-0.188952	-0.244176
O22	O	0.999578	0.061048	0.005824
O23	O	1.249578	0.311048	0.255824
O24	O	1.499578	0.561048	0.505824
O25	O	0.676690	-0.244127	-0.116128
O26	O	0.926690	0.005873	0.133872
O27	O	1.176690	0.255873	0.383872
O28	O	1.426690	0.505873	0.633872
O29	O	0.621617	-0.116102	-0.188978
O30	O	0.871617	0.133898	0.061022
O31	O	1.121617	0.383898	0.311022
O32	O	1.371617	0.633898	0.561022
O33	O	0.749528	-0.244137	-0.188979
O34	O	0.999528	0.005863	0.061021
O35	O	1.249528	0.255863	0.311021
O36	O	1.499528	0.505863	0.561021
O37	O	0.676805	-0.116109	-0.244176
O38	O	0.926805	0.133891	0.005824
O39	O	1.176805	0.383891	0.255824
O40	O	1.426805	0.633891	0.505824
O41	O	0.621551	-0.188935	-0.116127
O42	O	0.871551	0.061065	0.133873
O43	O	1.121551	0.311065	0.383873
O44	O	1.371551	0.561065	0.633873
O45	O	0.548728	-0.188921	-0.188938
O46	O	0.798728	0.061079	0.061062
O47	O	1.048728	0.311079	0.311062
O48	O	1.298728	0.561079	0.561062
O49	O	0.621528	-0.244111	-0.316956
O50	O	0.871528	0.005889	-0.066956
O51	O	1.121528	0.255889	0.183044
O52	O	1.371528	0.505889	0.433044
O53	O	0.548690	-0.244101	-0.244105
O54	O	0.798690	0.005899	0.005895
O55	O	1.048690	0.255899	0.255895
O56	O	1.298690	0.505899	0.505895
O57	O	0.676755	-0.188937	-0.316987
O58	O	0.926755	0.061063	-0.066987
O59	O	1.176755	0.311063	0.183013
O60	O	1.426755	0.561063	0.433013
O61	O	0.676639	-0.316955	-0.188938
O62	O	0.926639	-0.066955	0.061062
O63	O	1.176639	0.183045	0.311062
O64	O	1.426639	0.433045	0.561062
O65	O	0.621462	-0.316944	-0.244105
O66	O	0.871462	-0.066944	0.005895
O67	O	1.121462	0.183056	0.255895
O68	O	1.371462	0.433056	0.505895
C69	C	0.532408	-0.216509	-0.216517
C70	C	0.782408	0.033491	0.033483
C71	C	1.032408	0.283491	0.283483
C72	C	1.282408	0.533491	0.533483
C73	C	0.482474	-0.216511	-0.216514
C74	C	0.732474	0.033489	0.033486
C75	C	0.982474	0.283489	0.283486
C76	C	1.232474	0.533489	0.533486
C77	C	0.649050	-0.333250	-0.216527
C78	C	0.899050	-0.083250	0.033473
C79	C	1.149050	0.166750	0.283473
C80	C	1.399050	0.416750	0.533473
C81	C	0.649056	-0.383185	-0.216533
C82	C	0.899056	-0.133185	0.033467
C83	C	1.149056	0.116815	0.283467
C84	C	1.399056	0.366815	0.533467
C85	C	0.172820	-0.245303	-0.245240
C86	C	0.422820	0.004697	0.004760
C87	C	0.672820	0.254697	0.254760
C88	C	0.922820	0.504697	0.504760
C89	C	-0.014853	-0.245315	-0.245260
C90	C	0.235147	0.004685	0.004740
C91	C	0.485147	0.254685	0.254740
C92	C	0.735147	0.504685	0.504740
O93	O	-0.039127	-0.269774	-0.269665
O94	O	0.210873	-0.019774	-0.019665
O95	O	0.460873	0.230226	0.230335
O96	O	0.710873	0.480226	0.480335
N97	N	-0.038311	-0.216544	-0.216583
N98	N	0.211689	0.033456	0.033417
N99	N	0.461689	0.283456	0.283417
N100	N	0.711689	0.533456	0.533417
C101	C	-0.014848	-0.187766	-0.187902
C102	C	0.235152	0.062234	0.062098
C103	C	0.485152	0.312234	0.312098
C104	C	0.735152	0.562234	0.562098
O105	O	-0.039107	-0.163291	-0.163514
O106	O	0.210893	0.086709	0.086486
O107	O	0.460893	0.336709	0.336486
O108	O	0.710893	0.586709	0.586486
C109	C	0.172824	-0.187751	-0.187884
C110	C	0.422824	0.062249	0.062116
C111	C	0.672824	0.312249	0.312116
C112	C	0.922824	0.562249	0.562116
C113	C	0.196280	-0.216527	-0.216560
C114	C	0.446280	0.033473	0.033440
C115	C	0.696280	0.283473	0.283440
C116	C	0.946280	0.533473	0.533440
C117	C	0.196276	-0.274076	-0.273913
C118	C	0.446276	-0.024076	-0.023913
C119	C	0.696276	0.225924	0.226087
C120	C	0.946276	0.475924	0.476087
C121	C	0.243191	-0.274075	-0.273906
C122	C	0.493191	-0.024075	-0.023906
C123	C	0.743191	0.225925	0.226094
C124	C	0.993191	0.475925	0.476094
C125	C	0.266651	-0.245299	-0.245226
C126	C	0.516651	0.004701	0.004774
C127	C	0.766651	0.254701	0.254774
C128	C	1.016651	0.504701	0.504774
C129	C	0.243195	-0.216526	-0.216553
C130	C	0.493195	0.033474	0.033447
C131	C	0.743195	0.283474	0.283447
C132	C	0.993195	0.533474	0.533447
C133	C	0.196286	-0.158971	-0.159205
C134	C	0.446286	0.091029	0.090795
C135	C	0.696286	0.341029	0.340795
C136	C	0.946286	0.591029	0.590795
C137	C	0.243207	-0.158969	-0.159204
C138	C	0.493207	0.091031	0.090796
C139	C	0.743207	0.341031	0.340796
C140	C	0.993207	0.591031	0.590796
C141	C	0.266663	-0.187745	-0.187880
C142	C	0.516663	0.062255	0.062120
C143	C	0.766663	0.312255	0.312120
C144	C	1.016663	0.562255	0.562120
C145	C	0.313570	-0.187749	-0.187865
C146	C	0.563570	0.062251	0.062135
C147	C	0.813570	0.312251	0.312135
C148	C	1.063570	0.562251	0.562135
N149	N	0.337029	-0.216520	-0.216542
N150	N	0.587029	0.033480	0.033458
N151	N	0.837029	0.283480	0.283458
N152	N	1.087029	0.533480	0.533458
C153	C	0.313569	-0.245295	-0.245222
C154	C	0.563569	0.004705	0.004778
C155	C	0.813569	0.254705	0.254778
C156	C	1.063569	0.504705	0.504778
C157	C	-0.113379	-0.187776	-0.187912
C158	C	0.136621	0.062224	0.062088
C159	C	0.386621	0.312224	0.312088
C160	C	0.636621	0.562224	0.562088
C161	C	-0.160297	-0.187780	-0.187916
C162	C	0.089703	0.062220	0.062084
C163	C	0.339703	0.312220	0.312084
C164	C	0.589703	0.562220	0.562084
C165	C	-0.160298	-0.245329	-0.245275
C166	C	0.089702	0.004671	0.004725
C167	C	0.339702	0.254671	0.254725
C168	C	0.589702	0.504671	0.504725
C169	C	-0.113380	-0.245327	-0.245269
C170	C	0.136620	0.004673	0.004731
C171	C	0.386620	0.254673	0.254731
C172	C	0.636620	0.504673	0.504731
C173	C	-0.089921	-0.216547	-0.216589
C174	C	0.160079	0.033453	0.033411
C175	C	0.410079	0.283453	0.283411
C176	C	0.660079	0.533453	0.533411
C177	C	0.412095	-0.245290	-0.245205
C178	C	0.662095	0.004710	0.004795
C179	C	0.912095	0.254710	0.254795
C180	C	1.162095	0.504710	0.504795
C181	C	0.459014	-0.245287	-0.245194
C182	C	0.709014	0.004713	0.004806
C183	C	0.959014	0.254713	0.254806
C184	C	1.209014	0.504713	0.504806
C185	C	0.459012	-0.187736	-0.187837
C186	C	0.709012	0.062264	0.062163
C187	C	0.959012	0.312264	0.312163
C188	C	1.209012	0.562264	0.562163
C189	C	0.412096	-0.187740	-0.187846
C190	C	0.662096	0.062260	0.062154
C191	C	0.912096	0.312260	0.312154
C192	C	1.162096	0.562260	0.562154
C193	C	0.388639	-0.216519	-0.216534
C194	C	0.638639	0.033481	0.033466
C195	C	0.888639	0.283481	0.283466
C196	C	1.138639	0.533481	0.533466
O197	O	0.337873	-0.163299	-0.163477
O198	O	0.587873	0.086701	0.086523
O199	O	0.837873	0.336701	0.336523
O200	O	1.087873	0.586701	0.586523
O201	O	0.337836	-0.269759	-0.269613
O202	O	0.587836	-0.019759	-0.019613
O203	O	0.837836	0.230241	0.230387
O204	O	1.087836	0.480241	0.480387
C205	C	0.125905	-0.245304	-0.245247
C206	C	0.375905	0.004696	0.004753
C207	C	0.625905	0.254696	0.254753
C208	C	0.875905	0.504696	0.504753
C209	C	0.102449	-0.216531	-0.216574
C210	C	0.352449	0.033469	0.033426
C211	C	0.602449	0.283469	0.283426
C212	C	0.852449	0.533469	0.533426
C213	C	0.125909	-0.187755	-0.187893
C214	C	0.375909	0.062245	0.062107
C215	C	0.625909	0.312245	0.312107
C216	C	0.875909	0.562245	0.562107
C217	C	0.055531	-0.216535	-0.216577
C218	C	0.305531	0.033465	0.033423
C219	C	0.555531	0.283465	0.283423
C220	C	0.805531	0.533465	0.533423
C221	C	0.032071	-0.245310	-0.245258
C222	C	0.282071	0.004690	0.004742
C223	C	0.532071	0.254690	0.254742
C224	C	0.782071	0.504690	0.504742
C225	C	0.055529	-0.274082	-0.273934
C226	C	0.305529	-0.024082	-0.023934
C227	C	0.555529	0.225918	0.226066
C228	C	0.805529	0.475918	0.476066
C229	C	0.102445	-0.274080	-0.273927
C230	C	0.352445	-0.024080	-0.023927
C231	C	0.602445	0.225920	0.226073
C232	C	0.852445	0.475920	0.476073
C233	C	0.102451	-0.158984	-0.159217
C234	C	0.352451	0.091016	0.090783
C235	C	0.602451	0.341016	0.340783
C236	C	0.852451	0.591016	0.590783
C237	C	0.055535	-0.158989	-0.159226
C238	C	0.305535	0.091011	0.090774
C239	C	0.555535	0.341011	0.340774
C240	C	0.805535	0.591011	0.590774
C241	C	0.032075	-0.187764	-0.187906
C242	C	0.282075	0.062236	0.062094
C243	C	0.532075	0.312236	0.312094
C244	C	0.782075	0.562236	0.562094
C245	C	0.677914	-0.692821	-0.187866
C246	C	0.927914	-0.442821	0.062134
C247	C	1.177914	-0.192821	0.312134
C248	C	1.427914	0.057179	0.562134
C249	C	0.677969	-0.880494	-0.187883
C250	C	0.927969	-0.630494	0.062117
C251	C	1.177969	-0.380494	0.312117
C252	C	1.427969	-0.130494	0.562117
O253	O	0.702441	-0.904753	-0.163493
O254	O	0.952441	-0.654753	0.086507
O255	O	1.202441	-0.404753	0.336507
O256	O	1.452441	-0.154753	0.586507
N257	N	0.649224	-0.903970	-0.216583
N258	N	0.899224	-0.653970	0.033417
N259	N	1.149224	-0.403970	0.283417
N260	N	1.399224	-0.153970	0.533417
C261	C	0.620465	-0.880524	-0.245283
C262	C	0.870465	-0.630524	0.004717
C263	C	1.120465	-0.380524	0.254717
C264	C	1.370465	-0.130524	0.504717
O265	O	0.596020	-0.904798	-0.269698
O266	O	0.846020	-0.654798	-0.019698
O267	O	1.096020	-0.404798	0.230302
O268	O	1.346020	-0.154798	0.480302
C269	C	0.620412	-0.692852	-0.245268
C270	C	0.870412	-0.442852	0.004732
C271	C	1.120412	-0.192852	0.254732
C272	C	1.370412	0.057148	0.504732
C273	C	0.649156	-0.669379	-0.216563
C274	C	0.899156	-0.419379	0.033437
C275	C	1.149156	-0.169379	0.283437
C276	C	1.399156	0.080621	0.533437
C277	C	0.706656	-0.669348	-0.159164
C278	C	0.956656	-0.419348	0.090836
C279	C	1.206656	-0.169348	0.340836
C280	C	1.456656	0.080652	0.590836
C281	C	0.706640	-0.622433	-0.159158
C282	C	0.956640	-0.372433	0.090842
C283	C	1.206640	-0.122433	0.340842
C284	C	1.456640	0.127567	0.590842
C285	C	0.677882	-0.598990	-0.187854
C286	C	0.927882	-0.348990	0.062146
C287	C	1.177882	-0.098990	0.312146
C288	C	1.427882	0.151010	0.562146
C289	C	0.649140	-0.622463	-0.216557
C290	C	0.899140	-0.372463	0.033443
C291	C	1.149140	-0.122463	0.283443
C292	C	1.399140	0.127537	0.533443
C293	C	0.591656	-0.669407	-0.273969
C294	C	0.841656	-0.419407	-0.023969
C295	C	1.091656	-0.169407	0.226031
C296	C	1.341656	0.080593	0.476031
C297	C	0.591646	-0.622486	-0.273964
C298	C	0.841646	-0.372486	-0.023964
C299	C	1.091646	-0.122486	0.226036
C300	C	1.341646	0.127514	0.476036
C301	C	0.620390	-0.599013	-0.245259
C302	C	0.870390	-0.349013	0.004741
C303	C	1.120390	-0.099013	0.254741
C304	C	1.370390	0.150987	0.504741
C305	C	0.620367	-0.552106	-0.245248
C306	C	0.870367	-0.302106	0.004752
C307	C	1.120367	-0.052106	0.254752
C308	C	1.370367	0.197894	0.504752
N309	N	0.649112	-0.528630	-0.216548
N310	N	0.899112	-0.278630	0.033452
N311	N	1.149112	-0.028630	0.283452
N312	N	1.399112	0.221370	0.533452
C313	C	0.677869	-0.552072	-0.187851
C314	C	0.927869	-0.302072	0.062149
C315	C	1.177869	-0.052072	0.312149
C316	C	1.427869	0.197928	0.562149
C317	C	0.620494	-0.979055	-0.245289
C318	C	0.870494	-0.729055	0.004711
C319	C	1.120494	-0.479055	0.254711
C320	C	1.370494	-0.229055	0.504711
C321	C	0.620507	-1.025973	-0.245292
C322	C	0.870507	-0.775973	0.004708
C323	C	1.120507	-0.525973	0.254708
C324	C	1.370507	-0.275973	0.504708
C325	C	0.678012	-1.025939	-0.187893
C326	C	0.928012	-0.775939	0.062107
C327	C	1.178012	-0.525939	0.312107
C328	C	1.428012	-0.275939	0.562107
C329	C	0.677996	-0.979021	-0.187887
C330	C	0.927996	-0.729021	0.062113
C331	C	1.177996	-0.479021	0.312113
C332	C	1.427996	-0.229021	0.562113
C333	C	0.649239	-0.955579	-0.216589
C334	C	0.899239	-0.705579	0.033411
C335	C	1.149239	-0.455579	0.283411
C336	C	1.399239	-0.205579	0.533411
C337	C	0.677834	-0.453547	-0.187841
C338	C	0.927834	-0.203547	0.062159
C339	C	1.177834	0.046453	0.312159
C340	C	1.427834	0.296453	0.562159
C341	C	0.677814	-0.406627	-0.187836
C342	C	0.927814	-0.156627	0.062164
C343	C	1.177814	0.093373	0.312164
C344	C	1.427814	0.343373	0.562164
C345	C	0.620311	-0.406664	-0.245237
C346	C	0.870311	-0.156664	0.004763
C347	C	1.120311	0.093336	0.254763
C348	C	1.370311	0.343336	0.504763
C349	C	0.620329	-0.453580	-0.245240
C350	C	0.870329	-0.203580	0.004760
C351	C	1.120329	0.046420	0.254760
C352	C	1.370329	0.296420	0.504760
C353	C	0.649094	-0.477020	-0.216540
C354	C	0.899094	-0.227020	0.033460
C355	C	1.149094	0.022980	0.283460
C356	C	1.399094	0.272980	0.533460
O357	O	0.595912	-0.527818	-0.269629
O358	O	0.845912	-0.277818	-0.019629
O359	O	1.095912	-0.027818	0.230371
O360	O	1.345912	0.222182	0.480371
O361	O	0.702318	-0.527791	-0.163447
O362	O	0.952318	-0.277791	0.086553
O363	O	1.202318	-0.027791	0.336553
O364	O	1.452318	0.222209	0.586553
C365	C	0.677930	-0.739737	-0.187872
C366	C	0.927930	-0.489737	0.062128
C367	C	1.177930	-0.239737	0.312128
C368	C	1.427930	0.010263	0.562128
C369	C	0.649188	-0.763210	-0.216574
C370	C	0.899188	-0.513210	0.033426
C371	C	1.149188	-0.263210	0.283426
C372	C	1.399188	-0.013210	0.533426
C373	C	0.620430	-0.739767	-0.245271
C374	C	0.870430	-0.489767	0.004729
C375	C	1.120430	-0.239767	0.254729
C376	C	1.370430	0.010233	0.504729
C377	C	0.649200	-0.810128	-0.216578
C378	C	0.899200	-0.560128	0.033422
C379	C	1.149200	-0.310128	0.283422
C380	C	1.399200	-0.060128	0.533422
C381	C	0.677958	-0.833570	-0.187881
C382	C	0.927958	-0.583570	0.062119
C383	C	1.177958	-0.333570	0.312119
C384	C	1.427958	-0.083570	0.562119
C385	C	0.706703	-0.810094	-0.159181
C386	C	0.956703	-0.560094	0.090819
C387	C	1.206703	-0.310094	0.340819
C388	C	1.456703	-0.060094	0.590819
C389	C	0.706687	-0.763179	-0.159175
C390	C	0.956687	-0.513179	0.090825
C391	C	1.206687	-0.263179	0.340825
C392	C	1.456687	-0.013179	0.590825
C393	C	0.591685	-0.763243	-0.273971
C394	C	0.841685	-0.513243	-0.023971
C395	C	1.091685	-0.263243	0.226029
C396	C	1.341685	-0.013243	0.476029
C397	C	0.591703	-0.810158	-0.273974
C398	C	0.841703	-0.560158	-0.023974
C399	C	1.091703	-0.310158	0.226026
C400	C	1.341703	-0.060158	0.476026
C401	C	0.620461	-0.833601	-0.245277
C402	C	0.870461	-0.583601	0.004723
C403	C	1.120461	-0.333601	0.254723
C404	C	1.370461	-0.083601	0.504723
C405	C	0.766309	-0.216547	-0.216582
C406	C	1.016309	0.033453	0.033418
C407	C	1.266309	0.283453	0.283418
C408	C	1.516309	0.533453	0.533418
C409	C	0.816244	-0.216555	-0.216596
C410	C	1.066244	0.033445	0.033404
C411	C	1.316244	0.283445	0.283404
C412	C	1.566244	0.533445	0.533404
C413	C	0.649143	-0.216524	-0.333728
C414	C	0.899143	0.033476	-0.083728
C415	C	1.149143	0.283476	0.166272
C416	C	1.399143	0.533476	0.416272
C417	C	0.649148	-0.216522	-0.383662
C418	C	0.899148	0.033478	-0.133662
C419	C	1.149148	0.283478	0.116338
C420	C	1.399148	0.533478	0.366338
C421	C	0.649225	-0.099349	-0.216582
C422	C	0.899225	0.150651	0.033418
C423	C	1.149225	0.400651	0.283418
C424	C	1.399225	0.650651	0.533418
C425	C	0.649265	-0.049415	-0.216595
C426	C	0.899265	0.200585	0.033405
C427	C	1.149265	0.450585	0.283405
C428	C	1.399265	0.700585	0.533405
C429	C	0.677935	-0.187718	-0.693325
C430	C	0.927935	0.062282	-0.443325
C431	C	1.177935	0.312282	-0.193325
C432	C	1.427935	0.562282	0.056675
C433	C	0.677957	-0.187680	-0.880998
C434	C	0.927957	0.062320	-0.630998
C435	C	1.177957	0.312320	-0.380998
C436	C	1.427957	0.562320	-0.130998
O437	O	0.702399	-0.163232	-0.905279
O438	O	0.952399	0.086768	-0.655279
O439	O	1.202399	0.336768	-0.405279
O440	O	1.452399	0.586768	-0.155279
N441	N	0.649208	-0.216402	-0.904448
N442	N	0.899208	0.033598	-0.654448
N443	N	1.149208	0.283598	-0.404448
N444	N	1.399208	0.533598	-0.154448
C445	C	0.620449	-0.245133	-0.880976
C446	C	0.870449	0.004867	-0.630976
C447	C	1.120449	0.254867	-0.380976
C448	C	1.370449	0.504867	-0.130976
O449	O	0.595993	-0.269559	-0.905228
O450	O	0.845993	-0.019559	-0.655228
O451	O	1.095993	0.230441	-0.405228
O452	O	1.345993	0.480441	-0.155228
C453	C	0.620424	-0.245169	-0.693304
C454	C	0.870424	0.004831	-0.443304
C455	C	1.120424	0.254831	-0.193304
C456	C	1.370424	0.504831	0.056696
C457	C	0.649179	-0.216448	-0.669857
C458	C	0.899179	0.033552	-0.419857
C459	C	1.149179	0.283552	-0.169857
C460	C	1.399179	0.533552	0.080143
C461	C	0.706687	-0.158999	-0.669877
C462	C	0.956687	0.091001	-0.419877
C463	C	1.206687	0.341001	-0.169877
C464	C	1.456687	0.591001	0.080123
C465	C	0.706683	-0.159011	-0.622962
C466	C	0.956683	0.090989	-0.372962
C467	C	1.206683	0.340989	-0.122962
C468	C	1.456683	0.590989	0.127038
C469	C	0.677927	-0.187741	-0.599494
C470	C	0.927927	0.062259	-0.349494
C471	C	1.177927	0.312259	-0.099494
C472	C	1.427927	0.562259	0.150506
C473	C	0.649175	-0.216460	-0.622941
C474	C	0.899175	0.033540	-0.372941
C475	C	1.149175	0.283540	-0.122941
C476	C	1.399175	0.533540	0.127059
C477	C	0.591663	-0.273898	-0.669833
C478	C	0.841663	-0.023898	-0.419833
C479	C	1.091663	0.226102	-0.169833
C480	C	1.341663	0.476102	0.080167
C481	C	0.591659	-0.273903	-0.622912
C482	C	0.841659	-0.023903	-0.372912
C483	C	1.091659	0.226097	-0.122912
C484	C	1.341659	0.476097	0.127088
C485	C	0.620414	-0.245183	-0.599465
C486	C	0.870414	0.004817	-0.349465
C487	C	1.120414	0.254817	-0.099465
C488	C	1.370414	0.504817	0.150535
C489	C	0.620415	-0.245202	-0.552558
C490	C	0.870415	0.004798	-0.302558
C491	C	1.120415	0.254798	-0.052558
C492	C	1.370415	0.504798	0.197442
N493	N	0.649164	-0.216480	-0.529108
N494	N	0.899164	0.033520	-0.279108
N495	N	1.149164	0.283520	-0.029108
N496	N	1.399164	0.533520	0.220892
C497	C	0.677920	-0.187749	-0.552576
C498	C	0.927920	0.062251	-0.302576
C499	C	1.177920	0.312251	-0.052576
C500	C	1.427920	0.562251	0.197424
C501	C	0.620464	-0.245113	-0.979507
C502	C	0.870464	0.004887	-0.729507
C503	C	1.120464	0.254887	-0.479507
C504	C	1.370464	0.504887	-0.229507
C505	C	0.620471	-0.245105	-1.026425
C506	C	0.870471	0.004895	-0.776425
C507	C	1.120471	0.254895	-0.526425
C508	C	1.370471	0.504895	-0.276425
C509	C	0.677979	-0.187650	-1.026443
C510	C	0.927979	0.062350	-0.776443
C511	C	1.177979	0.312350	-0.526443
C512	C	1.427979	0.562350	-0.276443
C513	C	0.677974	-0.187661	-0.979524
C514	C	0.927974	0.062339	-0.729524
C515	C	1.177974	0.312339	-0.479524
C516	C	1.427974	0.562339	-0.229524
C517	C	0.649214	-0.216391	-0.956057
C518	C	0.899214	0.033609	-0.706057
C519	C	1.149214	0.283609	-0.456057
C520	C	1.399214	0.533609	-0.206057
C521	C	0.677910	-0.187776	-0.454050
C522	C	0.927910	0.062224	-0.204050
C523	C	1.177910	0.312224	0.045950
C524	C	1.427910	0.562224	0.295950
C525	C	0.677904	-0.187792	-0.407130
C526	C	0.927904	0.062208	-0.157130
C527	C	1.177904	0.312208	0.092870
C528	C	1.427904	0.562208	0.342870
C529	C	0.620395	-0.245244	-0.407116
C530	C	0.870395	0.004756	-0.157116
C531	C	1.120395	0.254756	0.092884
C532	C	1.370395	0.504756	0.342884
C533	C	0.620401	-0.245230	-0.454032
C534	C	0.870401	0.004770	-0.204032
C535	C	1.120401	0.254770	0.045968
C536	C	1.370401	0.504770	0.295968
C537	C	0.649161	-0.216493	-0.477497
C538	C	0.899161	0.033507	-0.227497
C539	C	1.149161	0.283507	0.022503
C540	C	1.399161	0.533507	0.272503
O541	O	0.595982	-0.269633	-0.528248
O542	O	0.845982	-0.019633	-0.278248
O543	O	1.095982	0.230367	-0.028248
O544	O	1.345982	0.480367	0.221752
O545	O	0.702366	-0.163320	-0.528316
O546	O	0.952366	0.086680	-0.278316
O547	O	1.202366	0.336680	-0.028316
O548	O	1.452366	0.586680	0.221684
C549	C	0.677939	-0.187706	-0.740240
C550	C	0.927939	0.062294	-0.490240
C551	C	1.177939	0.312294	-0.240240
C552	C	1.427939	0.562294	0.009760
C553	C	0.649187	-0.216425	-0.763688
C554	C	0.899187	0.033575	-0.513688
C555	C	1.149187	0.283575	-0.263688
C556	C	1.399187	0.533575	-0.013688
C557	C	0.620431	-0.245155	-0.740219
C558	C	0.870431	0.004845	-0.490219
C559	C	1.120431	0.254845	-0.240219
C560	C	1.370431	0.504845	0.009781
C561	C	0.649194	-0.216417	-0.810605
C562	C	0.899194	0.033583	-0.560605
C563	C	1.149194	0.283583	-0.310605
C564	C	1.399194	0.533583	-0.060605
C565	C	0.677950	-0.187686	-0.834074
C566	C	0.927950	0.062314	-0.584074
C567	C	1.177950	0.312314	-0.334074
C568	C	1.427950	0.562314	-0.084074
C569	C	0.706699	-0.158964	-0.810624
C570	C	0.956699	0.091036	-0.560624
C571	C	1.206699	0.341036	-0.310624
C572	C	1.456699	0.591036	-0.060624
C573	C	0.706695	-0.158976	-0.763708
C574	C	0.956695	0.091024	-0.513708
C575	C	1.206695	0.341024	-0.263708
C576	C	1.456695	0.591024	-0.013708
C577	C	0.591682	-0.273877	-0.763669
C578	C	0.841682	-0.023877	-0.513669
C579	C	1.091682	0.226123	-0.263669
C580	C	1.341682	0.476123	-0.013669
C581	C	0.591689	-0.273864	-0.810585
C582	C	0.841689	-0.023864	-0.560585
C583	C	1.091689	0.226136	-0.310585
C584	C	1.341689	0.476136	-0.060585
C585	C	0.620445	-0.245133	-0.834053
C586	C	0.870445	0.004867	-0.584053
C587	C	1.120445	0.254867	-0.334053
C588	C	1.370445	0.504867	-0.084053
C589	C	0.649145	-0.216499	-0.099827
C590	C	0.899145	0.033501	0.150173
C591	C	1.149145	0.283501	0.400173
C592	C	1.399145	0.533501	0.650173
C593	C	0.649227	-0.216374	-0.049893
C594	C	0.899227	0.033626	0.200107
C595	C	1.149227	0.283626	0.450107
C596	C	1.399227	0.533626	0.700107
H597	H	0.478110	-0.268721	-0.268545
H598	H	0.728110	-0.018721	-0.018545
H599	H	0.978110	0.231279	0.231455
H600	H	1.228110	0.481279	0.481455
Cl601	Cl	0.714133	-0.949517	-0.151800
Cl602	Cl	0.964133	-0.699517	0.098200
Cl603	Cl	1.214133	-0.449517	0.348200
Cl604	Cl	1.464133	-0.199517	0.598200
H605	H	0.701393	-0.164257	-1.045559
H606	H	0.951393	0.085743	-0.795559
H607	H	1.201393	0.335743	-0.545559
H608	H	1.451393	0.585743	-0.295559
H609	H	0.392998	-0.164309	-0.164496
H610	H	0.642998	0.085691	0.085504
H611	H	0.892998	0.335691	0.335504
H612	H	1.142998	0.585691	0.585504
Cl613	Cl	0.555527	-0.309999	-0.734173
Cl614	Cl	0.805527	-0.059999	-0.484173
Cl615	Cl	1.055527	0.190001	-0.234173
Cl616	Cl	1.305527	0.440001	0.015827
H617	H	0.730117	-0.829189	-0.135814
H618	H	0.980117	-0.579189	0.114186
H619	H	1.230117	-0.329189	0.364186
H620	H	1.480117	-0.079189	0.614186
H621	H	0.701388	-0.164274	-0.960437
H622	H	0.951388	0.085726	-0.710437
H623	H	1.201388	0.335726	-0.460437
H624	H	1.451388	0.585726	-0.210437
Cl625	Cl	0.555500	-0.310023	-0.593413
Cl626	Cl	0.805500	-0.060023	-0.343413
Cl627	Cl	1.055500	0.189977	-0.093413
Cl628	Cl	1.305500	0.439977	0.156587
H629	H	0.568248	-0.297285	-0.688916
H630	H	0.818248	-0.047285	-0.438916
H631	H	1.068248	0.202715	-0.188916
H632	H	1.318248	0.452715	0.061084
Cl633	Cl	0.584255	-0.281339	-0.483509
Cl634	Cl	0.834255	-0.031339	-0.233509
Cl635	Cl	1.084255	0.218661	0.016491
Cl636	Cl	1.334255	0.468661	0.266491
Cl637	Cl	0.026028	-0.310258	-0.309987
Cl638	Cl	0.276028	-0.060258	-0.059987
Cl639	Cl	0.526028	0.189742	0.190013
Cl640	Cl	0.776028	0.439742	0.440013
Cl641	Cl	0.584327	-0.281219	-1.055895
Cl642	Cl	0.834327	-0.031219	-0.805895
Cl643	Cl	1.084327	0.218781	-0.555895
Cl644	Cl	1.334327	0.468781	-0.305895
H645	H	0.730047	-0.603324	-0.135785
H646	H	0.980047	-0.353324	0.114215
H647	H	1.230047	-0.103324	0.364215
H648	H	1.480047	0.146676	0.614215
H649	H	0.036441	-0.135556	-0.135871
H650	H	0.286441	0.114444	0.114129
H651	H	0.536441	0.364444	0.364129
H652	H	0.786441	0.614444	0.614129
Cl653	Cl	-0.189778	-0.151608	-0.151860
Cl654	Cl	0.060222	0.098392	0.098140
Cl655	Cl	0.310222	0.348392	0.348140
Cl656	Cl	0.560222	0.598392	0.598140
Cl657	Cl	0.584245	-0.281359	-0.377604
Cl658	Cl	0.834245	-0.031359	-0.127604
Cl659	Cl	1.084245	0.218641	0.122396
Cl660	Cl	1.334245	0.468641	0.372396
Cl661	Cl	-0.083894	-0.151592	-0.151854
Cl662	Cl	0.166106	0.098408	0.098146
Cl663	Cl	0.416106	0.348408	0.348146
Cl664	Cl	0.666106	0.598408	0.598146
H665	H	0.730076	-0.688430	-0.135795
H666	H	0.980076	-0.438430	0.114205
H667	H	1.230076	-0.188430	0.364205
H668	H	1.480076	0.061570	0.614205
Cl669	Cl	0.713952	-0.377121	-0.151747
Cl670	Cl	0.963952	-0.127121	0.098253
Cl671	Cl	1.213952	0.122879	0.348253
Cl672	Cl	1.463952	0.372879	0.598253
H673	H	0.730110	-0.135588	-0.744622
H674	H	0.980110	0.114412	-0.494622
H675	H	1.230110	0.364412	-0.244622
H676	H	1.480110	0.614412	0.005378
Cl677	Cl	0.713995	-0.483007	-0.151760
Cl678	Cl	0.963995	-0.233007	0.098240
Cl679	Cl	1.213995	0.016993	0.348240
Cl680	Cl	1.463995	0.266993	0.598240
H681	H	0.597097	-1.045080	-0.268662
H682	H	0.847097	-0.795080	-0.018662
H683	H	1.097097	-0.545080	0.231338
H684	H	1.347097	-0.295080	0.481338
Cl685	Cl	0.742851	-0.122848	-0.840136
Cl686	Cl	0.992851	0.127152	-0.590136
Cl687	Cl	1.242851	0.377152	-0.340136
Cl688	Cl	1.492851	0.627152	-0.090136
Cl689	Cl	0.555529	-0.733780	-0.310050
Cl690	Cl	0.805529	-0.483780	-0.060050
Cl691	Cl	1.055529	-0.233780	0.189950
Cl692	Cl	1.305529	0.016220	0.439950
H693	H	0.177197	-0.135539	-0.135854
H694	H	0.427197	0.114461	0.114146
H695	H	0.677197	0.364461	0.364146
H696	H	0.927197	0.614461	0.614146
H697	H	0.262305	-0.135529	-0.135852
H698	H	0.512305	0.114471	0.114148
H699	H	0.762305	0.364471	0.364148
H700	H	1.012305	0.614471	0.614148
Cl701	Cl	0.382613	-0.281469	-0.281269
Cl702	Cl	0.632613	-0.031469	-0.031269
Cl703	Cl	0.882613	0.218531	0.218731
Cl704	Cl	1.132613	0.468531	0.468731
Cl705	Cl	0.584338	-0.949592	-0.281373
Cl706	Cl	0.834338	-0.699592	-0.031373
Cl707	Cl	1.084338	-0.449592	0.218627
Cl708	Cl	1.334338	-0.199592	0.468627
H709	H	0.568274	-0.297256	-0.829671
H710	H	0.818274	-0.047256	-0.579671
H711	H	1.068274	0.202744	-0.329671
H712	H	1.318274	0.452744	-0.079671
H713	H	-0.179407	-0.268759	-0.268628
H714	H	0.070593	-0.018759	-0.018628
H715	H	0.320593	0.231241	0.231372
H716	H	0.570593	0.481241	0.481372
Cl717	Cl	0.714163	-1.055418	-0.151817
Cl718	Cl	0.964163	-0.805418	0.098183
Cl719	Cl	1.214163	-0.555418	0.348183
Cl720	Cl	1.464163	-0.305418	0.598183
Cl721	Cl	0.488513	-0.151563	-0.151784
Cl722	Cl	0.738513	0.098437	0.098216
Cl723	Cl	0.988513	0.348437	0.348216
Cl724	Cl	1.238513	0.598437	0.598216
H725	H	0.177180	-0.297509	-0.297271
H726	H	0.427180	-0.047509	-0.047271
H727	H	0.677180	0.202491	0.202729
H728	H	0.927180	0.452491	0.452729
H729	H	0.262285	-0.297506	-0.297258
H730	H	0.512285	-0.047506	-0.047258
H731	H	0.762285	0.202494	0.202742
H732	H	1.012285	0.452494	0.452742
Cl733	Cl	-0.083897	-0.281503	-0.281320
Cl734	Cl	0.166103	-0.031503	-0.031320
Cl735	Cl	0.416103	0.218497	0.218680
Cl736	Cl	0.666103	0.468497	0.468680
H737	H	0.121538	-0.297512	-0.297278
H738	H	0.371538	-0.047512	-0.047278
H739	H	0.621538	0.202488	0.202722
H740	H	0.871538	0.452488	0.452722
H741	H	0.121547	-0.135551	-0.135861
H742	H	0.371547	0.114449	0.114139
H743	H	0.621547	0.364449	0.364139
H744	H	0.871547	0.614449	0.614139
H745	H	0.701321	-0.164403	-0.388042
H746	H	0.951321	0.085597	-0.138042
H747	H	1.201321	0.335597	0.111958
H748	H	1.451321	0.585597	0.361958
H749	H	0.568248	-0.688511	-0.297342
H750	H	0.818248	-0.438511	-0.047342
H751	H	1.068248	-0.188511	0.202658
H752	H	1.318248	0.061489	0.452658
H753	H	0.730104	-0.135601	-0.688980
H754	H	0.980104	0.114399	-0.438980
H755	H	1.230104	0.364399	-0.188980
H756	H	1.480104	0.614399	0.061020
H757	H	0.568229	-0.603402	-0.297337
H758	H	0.818229	-0.353402	-0.047337
H759	H	1.068229	-0.103402	0.202663
H760	H	1.318229	0.146598	0.452663
H761	H	0.596925	-0.472692	-0.268615
H762	H	0.846925	-0.222692	-0.018615
H763	H	1.096925	0.027308	0.231385
H764	H	1.346925	0.277308	0.481385
H765	H	0.596895	-0.387570	-0.268600
H766	H	0.846895	-0.137570	-0.018600
H767	H	1.096895	0.112430	0.231400
H768	H	1.346895	0.362430	0.481400
H769	H	0.730093	-0.744071	-0.135801
H770	H	0.980093	-0.494071	0.114199
H771	H	1.230093	-0.244071	0.364199
H772	H	1.480093	0.005929	0.614199
H773	H	0.568292	-0.829266	-0.297349
H774	H	0.818292	-0.579266	-0.047349
H775	H	1.068292	-0.329266	0.202651
H776	H	1.318292	-0.079266	0.452651
Cl777	Cl	0.714062	-0.151646	-0.483543
Cl778	Cl	0.964062	0.098354	-0.233543
Cl779	Cl	1.214062	0.348354	0.016457
Cl780	Cl	1.464062	0.598354	0.266457
H781	H	0.730097	-0.135623	-0.603875
H782	H	0.980097	0.114377	-0.353875
H783	H	1.230097	0.364377	-0.103875
H784	H	1.480097	0.614377	0.146125
H785	H	0.597044	-0.268511	-0.960404
H786	H	0.847044	-0.018511	-0.710404
H787	H	1.097044	0.231489	-0.460404
H788	H	1.347044	0.481489	-0.210404
