data_functionalizedCrystal
_audit_creation_method	'MofGen! by Chris Wilmer'
_symmetry_space_group_name_H-M	'P1'
_symmetry_Int_Tables_number	1
_symmetry_cell_setting	triclinic
loop_
_symmetry_equiv_pos_as_xyz
  x,y,z
_cell_length_a	19.121112
_cell_length_b	19.121063
_cell_length_c	19.805407
_cell_angle_alpha	87.573559
_cell_angle_beta	92.441902
_cell_angle_gamma	90.126867
loop_
_atom_site_label
_atom_site_type_symbol
_atom_site_fract_x
_atom_site_fract_y
_atom_site_fract_z
Zn1	Zn	1.059725	-0.325040	0.439551
Zn2	Zn	1.054661	-0.442245	0.330968
Zn3	Zn	0.942521	-0.320017	0.321360
Zn4	Zn	0.937450	-0.437230	0.439099
O5	O	0.998589	-0.381133	0.382744
O6	O	1.157157	-0.344788	0.429357
O7	O	1.039789	-0.426027	0.234977
O8	O	0.962309	-0.222579	0.333206
O9	O	1.153437	-0.430898	0.349582
O10	O	1.048418	-0.226269	0.420041
O11	O	0.957399	-0.336227	0.227918
O12	O	0.843744	-0.331365	0.332768
O13	O	0.953667	-0.422351	0.533876
O14	O	0.840019	-0.417481	0.419271
O15	O	1.043502	-0.339926	0.534207
O16	O	1.034872	-0.539684	0.349144
O17	O	0.948757	-0.536000	0.428587
C18	C	0.816444	-0.373334	0.374928
C19	C	0.738521	-0.370015	0.371601
C20	C	0.297901	-0.348955	0.350528
C21	C	0.371118	-0.352078	0.353657
C22	C	0.405800	-0.398549	0.400192
C23	C	0.367261	-0.441895	0.443605
C24	C	0.294046	-0.438768	0.440478
C25	C	0.626767	-0.410234	0.411887
C26	C	0.699987	-0.413359	0.415009
C27	C	0.703840	-0.323540	0.325062
C28	C	0.630622	-0.320421	0.321937
C29	C	0.592090	-0.363764	0.365351
C30	C	0.480639	-0.401744	0.403391
C31	C	0.517252	-0.360565	0.362155
C32	C	0.990734	-0.563280	0.389875
C33	C	0.987437	-0.641206	0.392950
C34	C	1.030759	-0.679712	0.353071
C35	C	1.027663	-0.752932	0.355968
C36	C	0.981241	-0.787645	0.398741
C37	C	0.937918	-0.749133	0.438625
C38	C	0.941018	-0.675915	0.435731
C39	C	0.969639	-1.008622	0.409549
C40	C	0.966541	-1.081846	0.412438
C41	C	1.056287	-1.085640	0.329781
C42	C	1.059380	-1.012420	0.326888
C43	C	1.016060	-0.973915	0.366775
C44	C	0.978074	-0.862487	0.401701
C45	C	1.019231	-0.899074	0.363818
C46	C	1.181445	-0.388963	0.390591
C47	C	1.259368	-0.392299	0.393935
C48	C	0.998583	-0.381139	0.559287
C49	C	0.998581	-0.381142	0.634519
C50	C	1.006494	-0.198275	0.375602
C51	C	1.009863	-0.120352	0.372558
C52	C	1.045356	-0.338218	1.096484
C53	C	1.045358	-0.338222	1.025796
C54	C	0.998586	-0.381137	0.990281
C55	C	0.951814	-0.424057	1.025459
C56	C	0.951816	-0.424057	1.096146
C57	C	0.951807	-0.424059	0.740385
C58	C	0.951807	-0.424054	0.669693
C59	C	1.045349	-0.338224	0.670035
C60	C	1.045351	-0.338224	0.740722
C61	C	0.998581	-0.381146	0.775894
C62	C	0.998580	-0.381143	0.852542
C63	C	0.998583	-0.381137	0.913634
C64	C	0.998588	-0.381140	1.206889
C65	C	0.998586	-0.381133	1.131656
H66	H	0.728223	-0.451201	0.452907
Br67	Br	0.470184	-0.297494	0.299007
H68	H	0.913735	-0.459002	0.996537
Br69	Br	1.082234	-0.851964	0.305774
Br70	Br	0.903524	-1.128955	0.470480
H71	H	0.595402	-0.445530	0.447236
Br72	Br	0.527713	-0.464822	0.466533
H73	H	1.083432	-0.303276	0.641390
H74	H	0.940276	-0.890758	0.436526
H75	H	0.934365	-0.977277	0.442025
Br76	Br	0.874922	-0.796242	0.496682
H77	H	1.083439	-0.303267	1.125394
Br78	Br	1.108835	-0.279986	0.788918
Br79	Br	0.250840	-0.285890	0.287365
H80	H	0.602390	-0.282584	0.284039
H81	H	1.083445	-0.303278	0.997161
Br82	Br	0.882227	-0.623655	0.489860
H83	H	0.402489	-0.316785	0.318307
H84	H	0.735220	-0.288252	0.289717
Br85	Br	1.093757	-0.632610	0.295012
Br86	Br	0.888326	-0.482299	0.621494
H87	H	0.395505	-0.479730	0.481497
Br88	Br	0.888339	-0.482316	0.788110
Br89	Br	1.122393	-0.965316	0.268845
H90	H	0.913732	-0.459003	1.124782
Br91	Br	1.115080	-1.137900	0.275656
H92	H	0.262672	-0.474062	0.475827
H93	H	1.062940	-0.784281	0.323493
