data_functionalizedCrystal
_audit_creation_method	'MofGen! by Chris Wilmer'
_symmetry_space_group_name_H-M	'P1'
_symmetry_Int_Tables_number	1
_symmetry_cell_setting	triclinic
loop_
_symmetry_equiv_pos_as_xyz
  x,y,z
_cell_length_a	17.640280
_cell_length_b	12.759401
_cell_length_c	12.759393
_cell_angle_alpha	90.019322
_cell_angle_beta	78.768122
_cell_angle_gamma	101.201278
loop_
_atom_site_label
_atom_site_type_symbol
_atom_site_fract_x
_atom_site_fract_y
_atom_site_fract_z
Zn1	Zn	-0.314670	-1.690829	-0.509526
Zn2	Zn	0.185330	-1.190829	-0.009526
Zn3	Zn	-0.446868	-1.726253	-0.298355
Zn4	Zn	0.053132	-1.226253	0.201645
Zn5	Zn	-0.314706	-1.515140	-0.333853
Zn6	Zn	0.185294	-1.015140	0.166147
Zn7	Zn	-0.446802	-1.550632	-0.474012
Zn8	Zn	0.053198	-1.050632	0.025988
O9	O	-0.380762	-1.620713	-0.403937
O10	O	0.119238	-1.120713	0.096063
O11	O	-0.332219	-1.842552	-0.481520
O12	O	0.167781	-1.342552	0.018480
O13	O	-0.429379	-1.698221	-0.156032
O14	O	0.070621	-1.198221	0.343968
O15	O	-0.204094	-1.508767	-0.386875
O16	O	0.295906	-1.008767	0.113125
O17	O	-0.429344	-1.868579	-0.326374
O18	O	0.070656	-1.368579	0.173626
O19	O	-0.204067	-1.637844	-0.515941
O20	O	0.295933	-1.137844	-0.015941
O21	O	-0.332281	-1.543117	-0.182112
O22	O	0.167719	-1.043117	0.317888
O23	O	-0.332217	-1.372824	-0.352439
O24	O	0.167783	-0.872824	0.147561
O25	O	-0.429232	-1.569257	-0.625756
O26	O	0.070768	-1.069257	-0.125756
O27	O	-0.429267	-1.398899	-0.455413
O28	O	0.070733	-0.898899	0.044587
O29	O	-0.332155	-1.672259	-0.651848
O30	O	0.167845	-1.172259	-0.151848
O31	O	-0.557467	-1.732636	-0.291938
O32	O	-0.057467	-1.232636	0.208062
O33	O	-0.557419	-1.603607	-0.420992
O34	O	-0.057419	-1.103607	0.079008
C35	C	-0.380739	-1.347740	-0.403924
C36	C	0.119261	-0.847740	0.096076
C37	C	-0.380748	-1.230966	-0.403939
C38	C	0.119252	-0.730966	0.096061
C39	C	-0.586122	-1.675845	-0.348782
C40	C	-0.086122	-1.175845	0.151218
C41	C	-0.673976	-1.699527	-0.325222
C42	C	-0.173976	-1.199527	0.174778
C43	C	-0.431362	-1.189730	-0.457424
C44	C	0.068638	-0.689730	0.042576
C45	C	-0.431369	-1.080008	-0.457432
C46	C	0.068631	-0.580008	0.042568
C47	C	-0.330146	-1.052766	-0.350461
C48	C	0.169854	-0.552766	0.149539
C49	C	-0.330136	-1.162486	-0.350460
C50	C	0.169864	-0.662486	0.149540
C51	C	-0.481974	-1.258211	-0.510903
C52	C	0.018026	-0.758211	-0.010903
C53	C	-0.532592	-1.216976	-0.564392
C54	C	-0.032592	-0.716976	-0.064392
C55	C	-0.532599	-1.107254	-0.564400
C56	C	-0.032599	-0.607254	-0.064400
C57	C	-0.481987	-1.038766	-0.510919
C58	C	0.018013	-0.538766	-0.010919
C59	C	-0.962929	-1.441237	-0.583303
C60	C	-0.462929	-0.941237	-0.083303
C61	C	-1.045481	-1.463492	-0.561131
C62	C	-0.545481	-0.963492	-0.061131
C63	C	-1.045466	-1.597932	-0.426883
C64	C	-0.545466	-1.097932	0.073117
C65	C	-0.962912	-1.575692	-0.449047
C66	C	-0.462912	-1.075692	0.050953
C67	C	-0.921650	-1.497343	-0.527257
C68	C	-0.421650	-0.997343	-0.027257
C69	C	-0.921633	-1.631798	-0.393001
C70	C	-0.421633	-1.131798	0.106999
C71	C	-0.839087	-1.609556	-0.415160
C72	C	-0.339087	-1.109556	0.084840
C73	C	-0.797819	-1.531208	-0.493364
C74	C	-0.297819	-1.031208	0.006636
C75	C	-0.839103	-1.475101	-0.549416
C76	C	-0.339103	-0.975101	-0.049416
C77	C	-0.962897	-1.710142	-0.314786
C78	C	-0.462897	-1.210142	0.185214
C79	C	-0.921618	-1.766248	-0.258740
C80	C	-0.421618	-1.266248	0.241260
C81	C	-0.839070	-1.744012	-0.280904
C82	C	-0.339070	-1.244012	0.219096
C83	C	-0.797802	-1.665663	-0.359109
C84	C	-0.297802	-1.165663	0.140891
C85	C	-0.797785	-1.800119	-0.224853
C86	C	-0.297785	-1.300119	0.275147
C87	C	-0.715239	-1.777877	-0.247012
C88	C	-0.215239	-1.277877	0.252988
C89	C	-0.715255	-1.643421	-0.381267
C90	C	-0.215255	-1.143421	0.118733
C91	C	-0.174599	-1.565395	-0.459329
C92	C	0.325401	-1.065395	0.040671
C93	C	-0.086745	-1.541822	-0.482934
C94	C	0.413255	-1.041822	0.017066
C95	C	-0.380682	-1.620766	-0.677991
C96	C	0.119318	-1.120766	-0.177991
C97	C	-0.380648	-1.620788	-0.794777
C98	C	0.119352	-1.120788	-0.294777
C99	C	-0.380778	-0.894751	-0.403948
C100	C	0.119222	-0.394751	0.096052
C101	C	-0.380765	-1.011524	-0.403948
C102	C	0.119235	-0.511524	0.096052
C103	C	-0.330095	-1.674429	-0.863228
C104	C	0.169905	-1.174429	-0.363228
C105	C	-0.330067	-1.674446	-0.972960
C106	C	0.169933	-1.174446	-0.472960
C107	C	-0.431150	-1.567180	-0.945778
C108	C	0.068850	-1.067180	-0.445778
C109	C	-0.431174	-1.567157	-0.836050
C110	C	0.068826	-1.067157	-0.336050
C111	C	-0.279569	-1.728059	-0.821956
C112	C	0.220431	-1.228059	-0.321956
C113	C	-0.229013	-1.781706	-0.890408
C114	C	0.270987	-1.281706	-0.390408
C115	C	-0.228984	-1.781723	-1.000140
C116	C	0.271016	-1.281723	-0.500140
C117	C	-0.279512	-1.728094	-1.041420
C118	C	0.220488	-1.228094	-0.541420
C119	C	-0.380784	-1.620707	-0.130963
C120	C	0.119216	-1.120707	0.369037
C121	C	-0.380595	-1.620828	-0.014238
C122	C	0.119405	-1.120828	0.485762
H123	H	-0.481975	-1.347554	-0.510901
H124	H	0.018025	-0.847554	-0.010901
Br125	Br	-0.261465	-0.959820	-0.277884
Br126	Br	0.238535	-0.459820	0.222116
H127	H	-0.681629	-1.823563	-0.201372
H128	H	-0.181629	-1.323563	0.298628
H129	H	-0.279588	-1.728054	-0.732608
H130	H	0.220412	-1.228054	-0.232608
Br131	Br	-0.499720	-1.494406	-1.001801
Br132	Br	0.000280	-0.994406	-0.501801
H133	H	-0.187870	-1.825361	-0.856792
H134	H	0.312130	-1.325361	-0.356792
H135	H	-0.279475	-1.728098	-1.130774
H136	H	0.220525	-1.228098	-0.630774
Br137	Br	-0.601284	-1.051292	-0.637004
Br138	Br	-0.101284	-0.551292	-0.137004
H139	H	-0.187813	-1.825395	-1.055873
H140	H	0.312187	-1.325395	-0.555873
H141	H	-0.472327	-1.523459	-0.780318
H142	H	0.027673	-1.023459	-0.280318
Br143	Br	-0.481989	-0.889854	-0.510945
Br144	Br	0.018011	-0.389854	-0.010945
Br145	Br	-1.074926	-1.740369	-0.284752
Br146	Br	-0.574926	-1.240369	0.215248
Br147	Br	-0.261444	-1.218455	-0.277875
Br148	Br	0.238556	-0.718455	0.222125
H149	H	-1.079087	-1.417810	-0.606789
H150	H	-0.579087	-0.917810	-0.106789
Br151	Br	-0.601268	-1.309917	-0.636980
Br152	Br	-0.101268	-0.809917	-0.136980
Br153	Br	-0.659249	-1.537101	-0.487425
Br154	Br	-0.159249	-1.037101	0.012575
H155	H	-0.805506	-1.411308	-0.613111
H156	H	-0.305506	-0.911308	-0.113111
Br157	Br	-0.906922	-1.334917	-0.689460
Br158	Br	-0.406922	-0.834917	-0.189460
H159	H	-0.730604	-1.513092	-0.511397
H160	H	-0.230604	-1.013092	-0.011397
Br161	Br	-0.977624	-1.872577	-0.152602
Br162	Br	-0.477624	-1.372577	0.347398
H163	H	-1.079073	-1.661721	-0.363201
H164	H	-0.579073	-1.161721	0.136799
H165	H	-0.831393	-1.863903	-0.161167
H166	H	-0.331393	-1.363903	0.338833
