data_functionalizedCrystal
_audit_creation_method	'MofGen! by Chris Wilmer'
_symmetry_space_group_name_H-M	'P1'
_symmetry_Int_Tables_number	1
_symmetry_cell_setting	triclinic
loop_
_symmetry_equiv_pos_as_xyz
  x,y,z
_cell_length_a	9.565339
_cell_length_b	10.540539
_cell_length_c	10.540539
_cell_angle_alpha	84.525492
_cell_angle_beta	90.002370
_cell_angle_gamma	89.998466
loop_
_atom_site_label
_atom_site_type_symbol
_atom_site_fract_x
_atom_site_fract_y
_atom_site_fract_z
O1	O	0.116187	-1.685886	-0.178891
O2	O	0.116203	-1.316473	-0.195747
O3	O	0.116193	-1.509608	-0.002613
O4	O	0.116197	-1.492752	-0.372026
O5	O	-0.116327	-1.509593	-0.002625
O6	O	-0.116317	-1.316458	-0.195759
O7	O	-0.116333	-1.685871	-0.178903
Zn8	Zn	-0.153243	-1.501162	-0.187333
Zn9	Zn	0.153113	-1.501182	-0.187317
O10	O	-0.116323	-1.492737	-0.372038
C11	C	-0.000054	-1.269163	-0.194489
C12	C	-0.000048	-1.128215	-0.190707
C13	C	-0.000064	-1.508336	0.044684
C14	C	-0.000057	-1.504554	0.185632
N15	N	-0.362322	-1.501158	-0.187343
C16	C	-0.453520	-1.411812	-0.276632
C17	C	-0.546704	-1.526751	-0.302304
C18	C	-0.546693	-1.386269	-0.161681
C19	C	-0.453454	-1.616155	-0.213074
C20	C	-0.453435	-1.475597	-0.072400
C21	C	-0.546577	-1.590618	-0.098024
N22	N	0.362192	-1.501197	-0.187297
C23	C	-0.000072	-1.733182	-0.180161
C24	C	-0.000070	-1.874130	-0.183943
C25	C	-0.000592	-0.944788	-0.045790
C26	C	-0.000054	-1.091406	-0.049624
C27	C	0.132728	-1.066551	-0.258596
C28	C	0.132825	-0.920006	-0.253781
C29	C	-0.131594	-0.919501	-0.256665
C30	C	-0.133335	-1.066482	-0.257964
C31	C	-0.000062	-1.494008	-0.419335
C32	C	-0.000061	-1.497790	-0.560283
C33	C	0.000472	-1.359637	0.369059
C34	C	-0.000052	-1.363471	0.222441
C35	C	-0.132840	-1.572441	0.247283
C36	C	-0.132952	-1.567626	0.393828
C37	C	0.131467	-1.570513	0.394359
C38	C	0.133222	-1.571813	0.247378
H39	H	-0.412661	-1.336325	-0.352210
H40	H	-0.141350	-1.090708	-0.360823
H41	H	-0.587180	-1.666275	-0.022493
F42	F	-0.399842	-1.447258	0.054589
H43	H	-0.412670	-1.713353	-0.234875
F44	F	-0.132766	-0.857774	-0.389860
H45	H	-0.587653	-1.289093	-0.139996
F46	F	-0.124459	-1.147101	0.020199
F47	F	-0.125055	-0.907411	0.027054
F48	F	0.263013	-1.510830	0.435594
H49	H	0.094097	-0.914587	0.009715
H50	H	0.231452	-1.522140	0.206524
H51	H	0.231542	-1.109146	-0.211426
H52	H	0.141236	-1.674673	0.223157
H53	H	0.095289	-1.133158	0.004180
H54	H	0.132355	-1.672417	0.441585
H55	H	0.232075	-0.891803	-0.203595
H56	H	0.095133	-1.310053	0.179843
H57	H	0.138852	-0.872038	-0.355245
H58	H	0.137669	-1.088904	-0.362203
H59	H	-0.094212	-1.304126	0.399262
F60	F	-0.139304	-1.707864	0.218067
H61	H	-0.138980	-1.669091	0.441796
F62	F	-0.263143	-0.878265	-0.196990
F63	F	-0.261724	-1.119887	-0.193037
H64	H	-0.587671	-1.548397	-0.399489
H65	H	0.095693	-1.303912	0.397664
H66	H	-0.095390	-1.309666	0.180680
H67	H	-0.232206	-1.517442	0.422022
F68	F	-0.261993	-1.510788	0.191600
