data_functionalizedCrystal
_audit_creation_method	'MofGen! by Chris Wilmer'
_symmetry_space_group_name_H-M	'P1'
_symmetry_Int_Tables_number	1
_symmetry_cell_setting	triclinic
loop_
_symmetry_equiv_pos_as_xyz
  x,y,z
_cell_length_a	19.288864
_cell_length_b	17.038272
_cell_length_c	18.366186
_cell_angle_alpha	89.993834
_cell_angle_beta	89.977106
_cell_angle_gamma	87.123901
loop_
_atom_site_label
_atom_site_type_symbol
_atom_site_fract_x
_atom_site_fract_y
_atom_site_fract_z
O1	O	0.927386	0.097514	-0.060785
O2	O	0.725939	0.110668	-0.060736
O3	O	0.825465	-0.009720	-0.060755
O4	O	0.827860	0.217903	-0.060767
O5	O	0.825447	-0.009726	0.060345
O6	O	0.725921	0.110662	0.060363
O7	O	0.927368	0.097508	0.060314
Zn8	Zn	0.826641	0.104084	0.079566
Zn9	Zn	0.826666	0.104092	-0.079988
O10	O	0.827841	0.217897	0.060333
C11	C	0.700027	0.110242	-0.000180
C12	C	0.622845	0.108972	-0.000161
C13	C	0.582519	0.179610	-0.000176
C14	C	0.509998	0.178417	-0.000184
C15	C	0.477806	0.106580	-0.000191
C16	C	0.518141	0.035932	-0.000172
C17	C	0.590661	0.037128	-0.000157
C18	C	0.366057	0.050111	-0.042639
C19	C	0.293539	0.048918	-0.042659
C20	C	0.254132	0.102889	-0.000235
C21	C	0.287253	0.158066	0.042199
C22	C	0.359772	0.159262	0.042214
C23	C	0.399172	0.105276	-0.000207
C24	C	0.135171	0.172238	-0.000258
C25	C	0.062649	0.171042	-0.000262
C26	C	0.070793	0.028556	-0.000257
C27	C	0.143314	0.029754	-0.000246
C28	C	0.175498	0.101598	-0.000250
C29	C	0.823278	-0.038845	-0.000205
C30	C	0.816781	-0.125616	-0.000203
C31	C	0.876437	-0.175923	-0.000217
C32	C	0.870327	-0.257454	-0.000222
C33	C	0.804561	-0.288677	-0.000209
C34	C	0.744901	-0.238363	-0.000197
C35	C	0.751011	-0.156834	-0.000197
C36	C	0.782976	-0.534365	-0.000213
C37	C	0.776870	-0.615900	-0.000211
C38	C	0.902297	-0.634985	-0.000238
C39	C	0.908402	-0.553454	-0.000234
C40	C	0.848741	-0.503148	-0.000226
C41	C	0.798315	-0.372014	-0.000212
C42	C	0.854988	-0.419812	-0.000228
C43	C	0.953279	0.097934	-0.000244
C44	C	1.030462	0.099205	-0.000268
C45	C	0.830029	0.247021	-0.000219
C46	C	0.836526	0.333793	-0.000225
N47	N	0.826630	0.104079	0.188457
N48	N	0.826682	0.104092	-0.188879
C49	C	0.870717	0.050797	0.226549
C50	C	0.870721	0.050793	0.302777
C51	C	0.826645	0.104085	0.340910
C52	C	0.782550	0.157371	0.302808
C53	C	0.782542	0.157368	0.226582
C54	C	0.821754	0.175309	0.461668
C55	C	0.821767	0.175313	0.537893
C56	C	0.826666	0.104095	0.576017
C57	C	0.831567	0.032869	0.537908
C58	C	0.831559	0.032866	0.461681
C59	C	0.826649	0.104094	0.423564
C60	C	0.870760	0.050805	0.696764
C61	C	0.870759	0.050800	0.772993
C62	C	0.782591	0.157385	0.773023
C63	C	0.782588	0.157383	0.696796
C64	C	0.826676	0.104093	0.658671
H65	H	0.161377	0.230738	-0.000251
O66	O	0.408549	-0.008110	-0.088401
H67	H	0.443668	-0.044424	-0.052611
H68	H	0.835556	-0.025124	0.568947
O69	O	0.735021	0.214857	0.343940
H70	H	0.747469	0.275765	0.329285
H71	H	0.817753	0.233307	0.430633
H72	H	0.029816	0.228567	-0.000270
O73	O	0.686667	-0.102572	-0.000172
H74	H	0.655426	-0.113641	-0.049519
O75	O	0.734995	0.214844	0.185489
H76	H	0.704348	0.251905	0.224808
O77	O	0.979339	-0.519787	-0.000264
H78	H	1.008237	-0.540024	0.049080
O79	O	0.244760	0.216284	0.087960
H80	H	0.259116	0.208446	0.146120
H81	H	0.044583	-0.029935	-0.000308
O82	O	0.673969	-0.272042	-0.000179
H83	H	0.645078	-0.251820	-0.049533
O84	O	0.918299	-0.006677	0.655635
H85	H	0.948948	-0.043739	0.694933
H86	H	0.918906	-0.298411	-0.000232
H87	H	0.908534	-0.394387	-0.000255
H88	H	0.906658	0.007407	0.804009
O89	O	0.918277	-0.006676	0.343874
H90	H	0.953964	0.026146	0.378581
H91	H	0.950869	-0.675953	-0.000246
O92	O	0.727384	-0.405695	-0.000182
H93	H	0.721608	-0.442384	-0.049535
H94	H	0.266578	0.003993	-0.077214
H95	H	0.835547	-0.025128	0.430655
O96	O	0.617235	0.257095	-0.000159
H97	H	0.577005	0.306014	-0.000160
O98	O	0.466490	0.254607	-0.000208
H99	H	0.501054	0.304764	-0.000214
O100	O	0.634157	-0.039067	-0.000141
H101	H	0.689992	-0.026166	-0.000125
H102	H	0.723313	-0.641318	-0.000188
O103	O	0.718631	-0.480110	-0.000186
H104	H	0.671876	-0.515521	-0.000164
O105	O	0.918257	-0.006687	0.185426
H106	H	0.948909	-0.043744	0.224726
O107	O	0.735052	0.214869	0.814140
H108	H	0.742466	0.205924	0.873545
O109	O	0.816490	0.252135	0.578987
H110	H	0.769352	0.254068	0.613750
H111	H	0.176148	-0.027768	-0.000238
O112	O	0.395500	0.218740	0.088009
H113	H	0.355921	0.256060	0.117522
O114	O	0.483427	-0.041551	-0.000180
H115	H	0.426224	-0.030516	-0.000201
O116	O	0.735043	0.214855	0.655700
H117	H	0.747494	0.275769	0.670308
O118	O	0.947370	-0.142248	-0.000239
H119	H	0.987826	-0.190930	-0.000259
