data_functionalizedCrystal
_audit_creation_method	'MofGen! by Chris Wilmer'
_symmetry_space_group_name_H-M	'P1'
_symmetry_Int_Tables_number	1
_symmetry_cell_setting	triclinic
loop_
_symmetry_equiv_pos_as_xyz
  x,y,z
_cell_length_a	12.759401
_cell_length_b	16.625545
_cell_length_c	12.759393
_cell_angle_alpha	89.967170
_cell_angle_beta	89.980404
_cell_angle_gamma	90.025835
loop_
_atom_site_label
_atom_site_type_symbol
_atom_site_fract_x
_atom_site_fract_y
_atom_site_fract_z
Zn1	Zn	1.606187	-0.320957	-0.593965
Zn2	Zn	1.939520	0.012377	-0.260632
Zn3	Zn	2.272854	0.345710	0.072701
Zn4	Zn	1.606045	-0.455811	-0.418278
Zn5	Zn	1.939378	-0.122478	-0.084945
Zn6	Zn	2.272712	0.210856	0.248388
Zn7	Zn	1.430486	-0.320997	-0.418305
Zn8	Zn	1.763819	0.012337	-0.084971
Zn9	Zn	2.097152	0.345670	0.248362
Zn10	Zn	1.430444	-0.455752	-0.593920
Zn11	Zn	1.763778	-0.122418	-0.260586
Zn12	Zn	2.097111	0.210915	0.072747
O13	O	1.518291	-0.388379	-0.506117
O14	O	1.851624	-0.055046	-0.172784
O15	O	2.184957	0.278288	0.160550
O16	O	1.753189	-0.338853	-0.570668
O17	O	2.086523	-0.005520	-0.237335
O18	O	2.419856	0.327813	0.095998
O19	O	1.582714	-0.437969	-0.271261
O20	O	1.916048	-0.104636	0.062073
O21	O	2.249381	0.228698	0.395406
O22	O	1.453870	-0.208159	-0.441637
O23	O	1.787203	0.125174	-0.108303
O24	O	2.120536	0.458508	0.225030
O25	O	1.753085	-0.437930	-0.441592
O26	O	2.086418	-0.104597	-0.108258
O27	O	2.419751	0.228736	0.225075
O28	O	1.582957	-0.208130	-0.570694
O29	O	1.916290	0.125204	-0.237360
O30	O	2.249623	0.458537	0.095973
O31	O	1.453732	-0.338922	-0.271280
O32	O	1.787065	-0.005588	0.062053
O33	O	2.120399	0.327745	0.395387
O34	O	1.283459	-0.338864	-0.441592
O35	O	1.616793	-0.005531	-0.108259
O36	O	1.950126	0.327803	0.225074
O37	O	1.453799	-0.437829	-0.740947
O38	O	1.787133	-0.104496	-0.407614
O39	O	2.120466	0.228837	-0.074280
O40	O	1.283429	-0.437868	-0.570616
O41	O	1.616762	-0.104535	-0.237283
O42	O	1.950096	0.228799	0.096051
O43	O	1.582917	-0.338796	-0.740980
O44	O	1.916250	-0.005463	-0.407647
O45	O	2.249583	0.327871	-0.074314
O46	O	1.582674	-0.568635	-0.441547
O47	O	1.916008	-0.235302	-0.108214
O48	O	2.249341	0.098031	0.225119
O49	O	1.453661	-0.568592	-0.570590
O50	O	1.786995	-0.235259	-0.237257
O51	O	2.120328	0.098075	0.096076
C52	C	1.245323	-0.388365	-0.506103
C53	C	1.578657	-0.055031	-0.172769
C54	C	1.911990	0.278302	0.160564
C55	C	1.128547	-0.388378	-0.506121
C56	C	1.461880	-0.055044	-0.172788
C57	C	1.795213	0.278289	0.160545
C58	C	0.963965	-0.440020	-0.573205
C59	C	1.297298	-0.106686	-0.239872
C60	C	1.630632	0.226647	0.093461
C61	C	1.073689	-0.440011	-0.573194
C62	C	1.407022	-0.106677	-0.239861
C63	C	1.740356	0.226656	0.093472
C64	C	1.073674	-0.336756	-0.439047
C65	C	1.407008	-0.003423	-0.105714
C66	C	1.740341	0.329911	0.227619
C67	C	0.963952	-0.336770	-0.439054
C68	C	1.297285	-0.003436	-0.105720
C69	C	1.630619	0.329897	0.227613
C70	C	1.518176	-0.597870	-0.506084
C71	C	1.851510	-0.264537	-0.172751
C72	C	2.184843	0.068797	0.160583
C73	C	1.518224	-0.687491	-0.506105
C74	C	1.851557	-0.354158	-0.172772
C75	C	2.184890	-0.020824	0.160562
C76	C	1.518264	-0.760273	-0.506126
C77	C	1.851598	-0.426940	-0.172793
C78	C	2.184931	-0.093607	0.160541
C79	C	1.518326	-0.851582	-0.506149
C80	C	1.851659	-0.518248	-0.172816
C81	C	2.184992	-0.184915	0.160518
C82	C	1.518380	-0.924358	-0.506162
C83	C	1.851714	-0.591025	-0.172829
C84	C	2.185047	-0.257692	0.160504
C85	C	1.518440	-1.015672	-0.506184
C86	C	1.851774	-0.682339	-0.172851
C87	C	2.185107	-0.349006	0.160483
C88	C	1.792324	-0.388394	-0.506132
C89	C	2.125657	-0.055061	-0.172799
C90	C	2.458990	0.278273	0.160534
C91	C	1.909100	-0.388400	-0.506139
C92	C	2.242434	-0.055067	-0.172805
C93	C	2.575767	0.278266	0.160528
C94	C	1.518369	-0.388302	-0.780151
C95	C	1.851703	-0.054968	-0.446817
C96	C	2.185036	0.278365	-0.113484
C97	C	1.518403	-0.388269	-0.896927
C98	C	1.851736	-0.054935	-0.563594
C99	C	2.185069	0.278398	-0.230261
C100	C	1.518434	-0.178070	-0.506173
C101	C	1.851767	0.155263	-0.172840
C102	C	2.185100	0.488597	0.160493
C103	C	1.518495	-0.088449	-0.506197
C104	C	1.851828	0.244884	-0.172864
C105	C	2.185161	0.578218	0.160469
C106	C	1.585639	-0.336694	-0.951808
C107	C	1.918972	-0.003360	-0.618475
C108	C	2.252306	0.329973	-0.285142
C109	C	1.585657	-0.336659	-1.061533
C110	C	1.918990	-0.003326	-0.728199
C111	C	2.252324	0.330008	-0.394866
C112	C	1.451199	-0.439781	-1.061485
C113	C	1.784532	-0.106448	-0.728151
C114	C	2.117866	0.226886	-0.394818
C115	C	1.451177	-0.439811	-0.951763
C116	C	1.784510	-0.106478	-0.618429
C117	C	2.117843	0.226856	-0.285096
C118	C	1.518273	-0.388398	-0.233150
C119	C	1.851606	-0.055065	0.100184
C120	C	2.184939	0.278269	0.433517
C121	C	1.518443	-0.388204	-0.116374
C122	C	1.851776	-0.054870	0.216960
C123	C	2.185109	0.278463	0.550293
H124	H	1.118348	-0.294719	-0.384430
H125	H	1.451681	0.038614	-0.051097
H126	H	1.785014	0.371947	0.282236
Br127	Br	0.889486	-0.266715	-0.348021
Br128	Br	1.222819	0.066618	-0.014687
Br129	Br	1.556152	0.399952	0.318646
Br130	Br	1.676872	-0.266742	-0.877392
Br131	Br	2.010205	0.066591	-0.544059
Br132	Br	2.343538	0.399924	-0.210725
Br133	Br	1.676918	-0.266667	-1.136011
Br134	Br	2.010251	0.066666	-0.802677
Br135	Br	2.343585	0.399999	-0.469344
Br136	Br	0.889526	-0.510091	-0.664247
Br137	Br	1.222860	-0.176758	-0.330913
Br138	Br	1.556193	0.156576	0.002420
H139	H	1.396468	-0.481747	-1.106145
H140	H	1.729802	-0.148413	-0.772812
H141	H	2.063135	0.184920	-0.439478
H142	H	1.118355	-0.482045	-0.627806
H143	H	1.451688	-0.148712	-0.294472
H144	H	1.785022	0.184621	0.038861
Br145	Br	1.359911	-0.509803	-0.877274
Br146	Br	1.693244	-0.176470	-0.543940
Br147	Br	2.026578	0.156863	-0.210607
