data_functionalizedCrystal
_audit_creation_method	'MofGen! by Chris Wilmer'
_symmetry_space_group_name_H-M	'P1'
_symmetry_Int_Tables_number	1
_symmetry_cell_setting	triclinic
loop_
_symmetry_equiv_pos_as_xyz
  x,y,z
_cell_length_a	14.853558
_cell_length_b	14.853567
_cell_length_c	9.730223
_cell_angle_alpha	90.002458
_cell_angle_beta	90.000319
_cell_angle_gamma	83.633032
loop_
_atom_site_label
_atom_site_type_symbol
_atom_site_fract_x
_atom_site_fract_y
_atom_site_fract_z
O1	O	1.196365	0.117660	-0.114261
O2	O	0.933904	0.131691	-0.114266
O3	O	1.072145	-0.006555	-0.114268
O4	O	1.058124	0.255905	-0.114260
O5	O	1.072144	-0.006551	0.114312
O6	O	0.933903	0.131694	0.114314
O7	O	1.196363	0.117664	0.114319
Zn8	Zn	1.065133	0.124680	0.150608
Zn9	Zn	1.065135	0.124675	-0.150556
O10	O	1.058122	0.255909	0.114320
C11	C	0.900314	0.131058	0.000023
C12	C	0.800230	0.129158	0.000020
C13	C	0.753211	0.128264	-0.124584
C14	C	0.753208	0.128257	0.124623
C15	C	0.659174	0.126467	0.124625
C16	C	0.612155	0.125574	0.000021
C17	C	0.659169	0.126471	-0.124585
C18	C	0.612154	0.125561	0.249229
C19	C	0.518114	0.123769	0.249236
C20	C	0.471093	0.122882	0.124631
C21	C	0.518113	0.123781	0.000019
C22	C	0.471093	0.122887	-0.124585
C23	C	0.518111	0.123792	-0.249198
C24	C	0.612147	0.125584	-0.249191
C25	C	0.377056	0.121090	0.124624
C26	C	0.377051	0.121094	-0.124586
C27	C	1.071509	-0.040141	0.000018
C28	C	1.069605	-0.140225	0.000006
C29	C	0.979439	-0.552756	0.000031
C30	C	1.143673	-0.574042	0.000034
C31	C	1.145463	-0.480009	0.000026
C32	C	1.064240	-0.422344	0.000022
C33	C	0.981227	-0.458713	0.000027
C34	C	1.228474	-0.443632	0.000035
C35	C	1.230268	-0.349593	0.000029
C36	C	1.149044	-0.291927	0.000015
C37	C	1.066027	-0.328301	0.000018
C38	C	0.984805	-0.270637	0.000015
C39	C	0.901787	-0.307009	0.000008
C40	C	0.900003	-0.401047	0.000013
C41	C	1.150828	-0.197890	0.000010
C42	C	0.986592	-0.176594	0.000011
C43	C	1.229953	0.118296	0.000027
C44	C	1.330037	0.120197	0.000020
C45	C	1.058758	0.289496	0.000031
C46	C	1.060662	0.389580	0.000034
N47	N	1.065138	0.124682	0.356145
N48	N	1.065137	0.124665	-0.356092
C49	C	1.126366	0.063488	0.428070
C50	C	1.126364	0.063477	0.571953
C51	C	1.003901	0.185862	0.571972
C52	C	1.003900	0.185868	0.428092
C53	C	1.187604	0.002302	0.356122
C54	C	1.248838	-0.058897	0.428048
C55	C	1.248836	-0.058908	0.571931
C56	C	1.187599	0.002280	0.643888
H57	H	0.791497	0.128978	0.226070
O58	O	0.944516	0.245438	0.358274
C59	C	0.891839	0.402103	0.314318
C60	C	0.959159	0.334744	0.393450
H61	H	0.903641	0.474322	0.342750
H62	H	0.902357	0.391671	0.199110
H63	H	0.819628	0.390176	0.342585
H64	H	1.031397	0.346631	0.365298
H65	H	0.948562	0.345193	0.508639
H66	H	0.650445	0.126280	0.350675
O67	O	1.308188	-0.118445	0.641863
C68	C	1.327242	-0.241512	0.804341
C69	C	1.259921	-0.174153	0.725210
H70	H	1.288245	-0.286557	0.871768
H71	H	1.370994	-0.285305	0.728260
H72	H	1.372336	-0.202489	0.871652
H73	H	1.214768	-0.213103	0.657898
H74	H	1.216232	-0.130361	0.801365
H75	H	0.479841	0.123031	0.350704
O76	O	1.307426	-0.499556	-0.000145
C77	C	1.447223	-0.546582	-0.118606
C78	C	1.357852	-0.483175	-0.118552
H79	H	1.488008	-0.533374	-0.214342
H80	H	1.488133	-0.533339	-0.023008
H81	H	1.431656	-0.620031	-0.118546
H82	H	1.373337	-0.409704	-0.118660
H83	H	1.316968	-0.496497	-0.214141
H84	H	1.187613	0.002307	0.238966
O85	O	0.907749	-0.120490	0.000189
C86	C	0.814420	-0.002000	0.118645
C87	C	0.903751	-0.065470	0.118599
H88	H	0.811149	0.042486	0.214384
H89	H	0.811142	0.042618	0.023050
H90	H	0.754800	-0.044172	0.118572
H91	H	0.963422	-0.023370	0.118721
H92	H	0.906949	-0.110092	0.214186
O93	O	1.308253	-0.118278	0.357942
C94	C	1.362422	-0.172614	0.136279
C95	C	1.295121	-0.105280	0.215497
H96	H	1.351815	-0.162142	0.021099
H97	H	1.434679	-0.160782	0.164436
H98	H	1.350552	-0.244820	0.164673
H99	H	1.306907	-0.033049	0.187146
H100	H	1.222887	-0.117191	0.187334
H101	H	0.338774	0.120372	-0.226056
O102	O	0.898856	-0.588190	-0.000157
C103	C	0.801497	-0.681958	-0.118628
C104	C	0.892797	-0.641905	-0.118570
H105	H	0.796560	-0.725380	-0.214369
H106	H	0.796537	-0.725510	-0.023035
H107	H	0.743770	-0.624574	-0.118562
H108	H	0.950577	-0.699232	-0.118684
H109	H	0.897678	-0.598330	-0.214155
H110	H	0.479816	0.123060	-0.350650
O111	O	0.331518	0.120251	0.245779
C112	C	0.341453	0.120362	0.492962
C113	C	0.393132	0.121335	0.355845
H114	H	0.391248	0.121219	0.581986
H115	H	0.289276	0.182581	0.499304
H116	H	0.305575	0.056495	0.499098
H117	H	0.429065	0.185160	0.349617
H118	H	0.445258	0.059073	0.349561
O119	O	0.798733	0.129184	-0.245750
C120	C	0.788804	0.128958	-0.492932
C121	C	0.737136	0.127933	-0.355811
H122	H	0.739028	0.127927	-0.581952
H123	H	0.824620	0.192858	-0.499245
H124	H	0.841033	0.066775	-0.499105
H125	H	0.684863	0.190072	-0.349546
H126	H	0.701382	0.063991	-0.349556
O127	O	1.231382	-0.162407	0.000078
C128	C	1.306924	-0.026972	-0.000011
C129	C	1.215629	-0.067034	-0.000054
H130	H	1.294219	0.050141	-0.000147
H131	H	1.347075	-0.050638	0.095679
H132	H	1.347071	-0.050773	-0.095642
H133	H	1.175409	-0.043252	0.095512
H134	H	1.175546	-0.043373	-0.095807
H135	H	1.297865	-0.319987	0.000032
H136	H	1.187597	0.002260	0.761048
O137	O	0.822973	-0.250862	-0.000054
C138	C	0.752958	-0.096549	0.000038
C139	C	0.842278	-0.160036	0.000075
H140	H	0.768535	-0.023104	0.000172
H141	H	0.712101	-0.109714	-0.095649
H142	H	0.712107	-0.109838	0.095672
H143	H	0.883201	-0.146784	-0.095494
H144	H	0.883066	-0.146858	0.095825
O145	O	0.819445	-0.436529	0.000081
C146	C	0.743911	-0.571969	0.000027
C147	C	0.835203	-0.531901	-0.000025
H148	H	0.756620	-0.649082	-0.000088
H149	H	0.703757	-0.548288	0.095710
H150	H	0.703765	-0.548187	-0.095611
H151	H	0.875423	-0.555665	0.095548
H152	H	0.875289	-0.555577	-0.095771
O153	O	1.222543	-0.630092	-0.000202
C154	C	1.315807	-0.748673	-0.118566
C155	C	1.226460	-0.685228	-0.118485
H156	H	1.318995	-0.793280	-0.214172
H157	H	1.375482	-0.706571	-0.118660
H158	H	1.319062	-0.793181	-0.022856
H159	H	1.223117	-0.640707	-0.214178
H160	H	1.166827	-0.727384	-0.118319
H161	H	0.650437	0.126320	-0.350644
H162	H	0.954046	0.235680	0.630570
