data_functionalizedCrystal
_audit_creation_method	'MofGen! by Chris Wilmer'
_symmetry_space_group_name_H-M	'P1'
_symmetry_Int_Tables_number	1
_symmetry_cell_setting	triclinic
loop_
_symmetry_equiv_pos_as_xyz
  x,y,z
_cell_length_a	21.295419
_cell_length_b	21.295417
_cell_length_c	16.120297
_cell_angle_alpha	92.868089
_cell_angle_beta	92.877517
_cell_angle_gamma	90.044503
loop_
_atom_site_label
_atom_site_type_symbol
_atom_site_fract_x
_atom_site_fract_y
_atom_site_fract_z
Zn1	Zn	0.944280	-0.268428	-0.471362
Zn2	Zn	0.949531	-0.368357	-0.331943
Zn3	Zn	0.844350	-0.263134	-0.331966
Zn4	Zn	0.838976	-0.373688	-0.471308
O5	O	0.894284	-0.318402	-0.401645
O6	O	1.033066	-0.281668	-0.452881
O7	O	0.940025	-0.349952	-0.215283
O8	O	0.857657	-0.175748	-0.350490
O9	O	1.036924	-0.355086	-0.350450
O10	O	0.931075	-0.179638	-0.452903
O11	O	0.862749	-0.272645	-0.215301
O12	O	0.755548	-0.277815	-0.350437
O13	O	0.848499	-0.364172	-0.587977
O14	O	0.751600	-0.359039	-0.452811
O15	O	0.925865	-0.286838	-0.588017
O16	O	0.934815	-0.457153	-0.350397
O17	O	0.853591	-0.461069	-0.452788
C18	C	0.730734	-0.318431	-0.401621
C19	C	0.660765	-0.318460	-0.401631
C20	C	0.625909	-0.280300	-0.455049
C21	C	0.560166	-0.280283	-0.455052
C22	C	0.529282	-0.318438	-0.401646
C23	C	0.564147	-0.356600	-0.348218
C24	C	0.629888	-0.356611	-0.348210
N25	N	0.426257	-0.373266	-0.395132
N26	N	0.363805	-0.373254	-0.395144
C27	C	0.331207	-0.318406	-0.401665
N28	N	0.363419	-0.263569	-0.408189
N29	N	0.425876	-0.263582	-0.408181
C30	C	0.457997	-0.318430	-0.401648
C31	C	0.225065	-0.280225	-0.455089
C32	C	0.159321	-0.280207	-0.455087
C33	C	0.163303	-0.356529	-0.348256
C34	C	0.229045	-0.356541	-0.348254
C35	C	0.259922	-0.318390	-0.401675
C36	C	0.894206	-0.481952	-0.401602
C37	C	0.894229	-0.551920	-0.401612
C38	C	0.932433	-0.586757	-0.454977
C39	C	0.932455	-0.652500	-0.454998
C40	C	0.894279	-0.683404	-0.401639
C41	C	0.856067	-0.648560	-0.348270
C42	C	0.856042	-0.582818	-0.348257
N43	N	0.892318	-0.783872	-0.328678
N44	N	0.892345	-0.846324	-0.328693
C45	C	0.894351	-0.881480	-0.401676
N46	N	0.896341	-0.851825	-0.474646
N47	N	0.896316	-0.789367	-0.474630
C48	C	0.894301	-0.754690	-0.401647
C49	C	0.932581	-0.987603	-0.455068
C50	C	0.932597	-1.053347	-0.455090
C51	C	0.856213	-1.049405	-0.348355
C52	C	0.856193	-0.983662	-0.348340
C53	C	0.894380	-0.952765	-0.401696
C54	C	1.058474	-0.318373	-0.401669
C55	C	1.128442	-0.318361	-0.401679
C56	C	0.885997	-0.326690	-0.619092
C57	C	0.882465	-0.330222	-0.711756
C58	C	0.894380	-0.154214	-0.401705
C59	C	0.894420	-0.084247	-0.401731
C60	C	0.875994	-0.336657	-0.881413
C61	C	0.912699	-0.299958	-0.922729
C62	C	0.909099	-0.303538	-1.017131
C63	C	0.879593	-0.333078	-0.787001
C64	C	0.902576	-0.310100	-0.185043
C65	C	0.906230	-0.306391	-0.092380
H66	H	0.250206	-0.249156	-0.498582
H67	H	0.963708	-1.081710	-0.498550
O68	O	0.655977	-0.243202	-0.506818
C69	C	0.695828	-0.200678	-0.459447
H70	H	0.708056	-0.220396	-0.396212
H71	H	0.740777	-0.193585	-0.493418
H72	H	0.670879	-0.153669	-0.450405
O73	O	0.953351	-0.259177	-0.880397
C74	C	0.938849	-0.197231	-0.901629
H75	H	0.887664	-0.194953	-0.925609
H76	H	0.946439	-0.163996	-0.844331
H77	H	0.970717	-0.182653	-0.952116
H78	H	0.130942	-0.249129	-0.498585
O79	O	0.819089	-1.079489	-0.296640
C80	C	0.776598	-1.119340	-0.344068
H81	H	0.796359	-1.131553	-0.407273
H82	H	0.769488	-1.164295	-0.310111
H83	H	0.729589	-1.094397	-0.353170
O84	O	0.663782	-0.393591	-0.296233
C85	C	0.703901	-0.355649	-0.242487
H86	H	0.684329	-0.305869	-0.237457
H87	H	0.707066	-0.375895	-0.178275
H88	H	0.752746	-0.354504	-0.268269
O89	O	0.526392	-0.243201	-0.507030
C90	C	0.567743	-0.209519	-0.554162
H91	H	0.614477	-0.235417	-0.556974
H92	H	0.546260	-0.205394	-0.619867
H93	H	0.575929	-0.160512	-0.523760
O94	O	0.534116	-0.393736	-0.296460
C95	C	0.494242	-0.436239	-0.343830
H96	H	0.511560	-0.442710	-0.409478
H97	H	0.494600	-0.483494	-0.313560
H98	H	0.444325	-0.416884	-0.346757
O99	O	0.835337	-0.377333	-0.923917
C100	C	0.840746	-0.371888	-1.010076
H101	H	0.888896	-0.351696	-1.021879
H102	H	0.835216	-0.420273	-1.043234
H103	H	0.802502	-0.339295	-1.034784
H104	H	0.138157	-0.387595	-0.304772
H105	H	0.963526	-0.561602	-0.498424
O106	O	0.262812	-0.393673	-0.296343
C107	C	0.221458	-0.427335	-0.249189
H108	H	0.173297	-0.430848	-0.283336
H109	H	0.240749	-0.476581	-0.240174
H110	H	0.216891	-0.401796	-0.185930
O111	O	0.819070	-0.949913	-0.296414
C112	C	0.785367	-0.991285	-0.249335
H113	H	0.811278	-1.038011	-0.246491
H114	H	0.781191	-0.969815	-0.183638
H115	H	0.736380	-0.999482	-0.279805
H116	H	0.963673	-0.962445	-0.498516
H117	H	0.963560	-0.680869	-0.498463
H118	H	0.824930	-0.554453	-0.304800
O119	O	0.818948	-0.678650	-0.296552
C120	C	0.776460	-0.718507	-0.343975
H121	H	0.796219	-0.730719	-0.407182
H122	H	0.769357	-0.763462	-0.310015
H123	H	0.729447	-0.693570	-0.353075
