data_functionalizedCrystal
_audit_creation_method	'MofGen! by Chris Wilmer'
_symmetry_space_group_name_H-M	'P1'
_symmetry_Int_Tables_number	1
_symmetry_cell_setting	triclinic
loop_
_symmetry_equiv_pos_as_xyz
  x,y,z
_cell_length_a	19.121102
_cell_length_b	19.120786
_cell_length_c	19.121175
_cell_angle_alpha	90.075695
_cell_angle_beta	85.212968
_cell_angle_gamma	89.915559
loop_
_atom_site_label
_atom_site_type_symbol
_atom_site_fract_x
_atom_site_fract_y
_atom_site_fract_z
Zn1	Zn	1.077294	-0.343949	-0.428332
Zn2	Zn	1.067213	-0.455747	-0.305679
Zn3	Zn	0.955083	-0.333535	-0.306134
Zn4	Zn	0.954615	-0.455701	-0.418293
O5	O	1.013551	-0.397233	-0.364609
O6	O	1.174225	-0.363157	-0.416072
O7	O	1.048316	-0.435196	-0.207470
O8	O	0.975710	-0.237002	-0.326735
O9	O	1.166819	-0.445294	-0.325960
O10	O	1.065498	-0.244654	-0.416513
O11	O	0.965934	-0.345407	-0.207804
O12	O	0.856753	-0.345363	-0.317001
O13	O	0.974911	-0.445216	-0.517894
O14	O	0.856408	-0.435117	-0.399404
O15	O	1.065044	-0.363113	-0.525269
O16	O	1.047861	-0.553655	-0.316226
O17	O	0.965136	-0.553621	-0.398963
C18	C	0.831101	-0.389105	-0.357163
C19	C	0.753047	-0.385646	-0.353993
C20	C	1.005374	-0.579027	-0.356472
C21	C	1.001940	-0.656804	-0.353017
C22	C	0.716211	-0.430815	-0.395334
C23	C	0.642872	-0.427556	-0.392359
C24	C	0.606371	-0.379130	-0.348040
C25	C	0.643212	-0.333955	-0.306699
C26	C	0.716550	-0.337212	-0.309677
C27	C	0.384947	-0.366952	-0.336908
C28	C	0.311604	-0.363700	-0.333931
C29	C	0.311269	-0.457301	-0.419592
C30	C	0.384608	-0.460556	-0.422564
C31	C	0.421443	-0.415379	-0.381225
C32	C	0.531407	-0.375798	-0.344997
C33	C	0.496406	-0.418708	-0.384272
C34	C	1.047043	-0.697267	-0.398172
C35	C	1.043814	-0.770346	-0.394926
C36	C	0.995486	-0.802961	-0.346523
C37	C	0.950378	-0.762492	-0.301366
C38	C	0.953604	-0.689415	-0.304615
C39	C	0.983406	-1.023412	-0.334375
C40	C	0.980185	-1.096495	-0.331128
C41	C	1.073620	-1.104344	-0.424690
C42	C	1.076845	-1.031264	-0.427932
C43	C	1.031735	-0.990802	-0.382778
C44	C	0.992186	-0.877659	-0.343203
C45	C	1.035032	-0.916105	-0.386101
C46	C	1.196714	-0.405393	-0.372085
C47	C	1.274767	-0.408870	-0.375271
C48	C	1.021050	-0.405321	-0.547775
C49	C	1.024245	-0.408768	-0.625829
C50	C	1.021781	-0.214730	-0.372794
C51	C	1.025287	-0.136958	-0.376283
C52	C	0.982857	-0.363640	-0.662672
C53	C	0.985857	-0.366884	-0.736012
C54	C	1.030248	-0.415253	-0.772507
C55	C	1.071638	-0.460386	-0.735658
C56	C	1.068635	-0.457144	-0.662320
C57	C	1.041460	-0.427381	-0.993934
C58	C	1.044462	-0.430618	-1.067278
C59	C	0.958679	-0.337117	-1.067626
C60	C	0.955682	-0.333877	-0.994286
C61	C	0.997069	-0.379012	-0.957444
C62	C	1.033317	-0.418569	-0.847472
C63	C	0.993997	-0.375699	-0.882480
C64	C	1.006124	-0.389128	-0.182161
C65	C	1.003074	-0.385490	-0.104121
H66	H	0.745925	-0.470252	-0.431420
H67	H	1.102343	-0.493887	-0.632323
H68	H	0.946712	-0.324248	-0.632963
H69	H	1.080614	-0.470007	-1.096990
H70	H	0.919532	-0.294491	-0.964576
H71	H	0.526129	-0.458133	-0.420359
H72	H	1.086400	-0.670717	-0.437584
H73	H	0.924983	-0.300371	-1.097631
H74	H	1.110346	-1.137296	-0.461452
H75	H	0.957850	-0.336319	-0.852762
H76	H	0.916876	-0.656470	-0.267846
H77	H	1.075152	-0.464141	-0.963945
H78	H	0.952838	-0.904222	-0.303790
H79	H	1.107780	-0.499772	-0.765378
H80	H	0.613487	-0.294523	-0.270617
H81	H	0.940826	-1.123047	-0.291711
H82	H	1.080547	-0.803288	-0.431691
H83	H	0.414322	-0.499991	-0.458651
H84	H	1.069461	-0.457952	-0.877195
H85	H	0.501679	-0.336371	-0.308911
H86	H	0.612883	-0.464338	-0.426022
H87	H	0.952151	-0.330138	-0.766006
H88	H	1.116198	-1.004711	-0.467346
H89	H	0.911025	-0.789053	-0.261957
H90	H	0.946676	-0.990473	-0.297608
H91	H	0.281270	-0.494080	-0.453249
H92	H	1.074379	-0.889548	-0.425514
H93	H	0.281887	-0.324258	-0.297846
H94	H	0.746542	-0.300427	-0.276017
H95	H	0.414929	-0.330171	-0.303241
