data_functionalizedCrystal
_audit_creation_method	'MofGen! by Chris Wilmer'
_symmetry_space_group_name_H-M	'P1'
_symmetry_Int_Tables_number	1
_symmetry_cell_setting	triclinic
loop_
_symmetry_equiv_pos_as_xyz
  x,y,z
_cell_length_a	14.908571
_cell_length_b	14.908520
_cell_length_c	14.908308
_cell_angle_alpha	83.639235
_cell_angle_beta	90.175053
_cell_angle_gamma	89.794039
loop_
_atom_site_label
_atom_site_type_symbol
_atom_site_fract_x
_atom_site_fract_y
_atom_site_fract_z
Zn1	Zn	1.316651	0.470613	-0.613065
Zn2	Zn	1.816651	0.970613	-0.113065
Zn3	Zn	1.316549	0.613252	-0.470429
Zn4	Zn	1.816549	1.113252	0.029571
Zn5	Zn	1.176020	0.453291	-0.453125
Zn6	Zn	1.676020	0.953291	0.046875
Zn7	Zn	1.157642	0.612180	-0.612023
Zn8	Zn	1.657642	1.112180	-0.112023
O9	O	1.241715	0.537334	-0.537161
O10	O	1.741715	1.037334	-0.037161
O11	O	1.441995	0.497231	-0.601822
O12	O	1.941995	0.997231	-0.101822
O13	O	1.305556	0.585232	-0.341941
O14	O	1.805556	1.085232	0.158059
O15	O	1.202409	0.329399	-0.467536
O16	O	1.702409	0.829399	0.032464
O17	O	1.441920	0.602028	-0.497029
O18	O	1.941920	1.102028	0.002971
O19	O	1.305730	0.342124	-0.585043
O20	O	1.805730	0.842124	-0.085043
O21	O	1.202310	0.467710	-0.329228
O22	O	1.702310	0.967710	0.170772
O23	O	1.048225	0.466671	-0.466525
O24	O	1.548225	0.966671	0.033475
O25	O	1.171086	0.600202	-0.738354
O26	O	1.671086	1.100202	-0.238354
O27	O	1.034722	0.583406	-0.583267
O28	O	1.534722	1.083406	-0.083267
O29	O	1.287909	0.496192	-0.739120
O30	O	1.787909	0.996192	-0.239120
O31	O	1.287736	0.739300	-0.496018
O32	O	1.787736	1.239300	0.003982
O33	O	1.170987	0.738513	-0.600046
O34	O	1.670987	1.238513	-0.100046
C35	C	1.008970	0.523043	-0.522906
C36	C	1.508970	1.023043	-0.022906
C37	C	0.909397	0.516953	-0.516830
C38	C	1.409397	1.016953	-0.016830
C39	C	0.708277	0.627234	-0.626831
C40	C	1.208277	1.127234	-0.126831
C41	C	0.614720	0.621514	-0.621125
C42	C	1.114720	1.121514	-0.121125
C43	C	0.628723	0.499789	-0.499719
C44	C	1.128723	0.999789	0.000281
C45	C	0.722281	0.505509	-0.505424
C46	C	1.222281	1.005509	-0.005424
C47	C	0.762054	0.569235	-0.568981
C48	C	1.262054	1.069235	-0.068981
C49	C	0.855613	0.574958	-0.574682
C50	C	1.355613	1.074958	-0.074682
C51	C	0.869615	0.453230	-0.453280
C52	C	1.369615	0.953230	0.046720
C53	C	0.776058	0.447510	-0.447575
C54	C	1.276058	0.947510	0.052425
C55	C	1.227379	0.771629	-0.549818
C56	C	1.727379	1.271629	-0.049818
C57	C	1.221326	0.871868	-0.555268
C58	C	1.721326	1.371868	-0.055268
C59	C	1.227459	0.550010	-0.772372
C60	C	1.727459	1.050010	-0.272372
C61	C	1.221383	0.555411	-0.872606
C62	C	1.721383	1.055411	-0.372606
C63	C	1.475370	0.551681	-0.551472
C64	C	1.975370	1.051681	-0.051472
C65	C	1.574939	0.557795	-0.557571
C66	C	2.074939	1.057795	-0.057571
C67	C	1.256131	0.302127	-0.524476
C68	C	1.756131	0.802127	-0.024476
C69	C	1.262274	0.201896	-0.519070
C70	C	1.762274	0.701896	-0.019070
C71	C	1.331634	1.060998	-0.457284
C72	C	1.831634	1.560998	0.042716
C73	C	1.325950	1.155181	-0.462402
C74	C	1.825950	1.655181	0.037598
C75	C	1.204279	1.154420	-0.570626
C76	C	1.704279	1.654420	-0.070626
C77	C	1.209963	1.060237	-0.565508
C78	C	1.709963	1.560237	-0.065508
C79	C	1.273642	1.013529	-0.508834
C80	C	1.773642	1.513529	-0.008834
C81	C	1.279321	0.919343	-0.503712
C82	C	1.779321	1.419343	-0.003712
C83	C	1.157655	0.918584	-0.611940
C84	C	1.657655	1.418584	-0.111940
C85	C	1.151970	1.012768	-0.617058
C86	C	1.651970	1.512768	-0.117058
C87	C	1.331614	0.457236	-1.061752
C88	C	1.831614	0.957236	-0.561752
C89	C	1.325908	0.462308	-1.155930
C90	C	1.825908	0.962308	-0.655930
C91	C	1.204264	0.570623	-1.155141
C92	C	1.704264	1.070623	-0.655141
C93	C	1.209969	0.565551	-1.060963
C94	C	1.709969	1.065551	-0.560963
C95	C	1.273647	0.508856	-1.014272
C96	C	1.773647	1.008856	-0.514272
C97	C	1.279356	0.503789	-0.920093
C98	C	1.779356	1.003789	-0.420093
C99	C	1.157708	0.612099	-0.919305
C100	C	1.657708	1.112099	-0.419305
C101	C	1.152002	0.617171	-1.013483
C102	C	1.652002	1.117171	-0.513483
C103	C	1.255972	0.524646	-0.302864
C104	C	1.755972	1.024646	0.197136
C105	C	1.262236	0.519001	-0.202628
C106	C	1.762236	1.019001	0.297372
H107	H	0.740661	0.679126	-0.678577
H108	H	1.240661	1.179126	-0.178577
H109	H	1.110431	0.879924	-0.653913
H110	H	1.610431	1.379924	-0.153913
H111	H	1.331169	0.881314	-0.457563
H112	H	1.831169	1.381314	0.042437
C113	C	1.134218	0.632970	-1.206510
C114	C	1.634218	1.132970	-0.706510
H115	H	1.139125	0.628595	-1.269399
H116	H	1.639125	1.128595	-0.769399
H117	H	1.075774	0.615246	-1.186675
H118	H	1.575774	1.115246	-0.686675
H119	H	1.144552	0.693540	-1.195159
H120	H	1.644552	1.193540	-0.695159
C121	C	1.401673	1.009616	-0.394945
C122	C	1.901673	1.509616	0.105055
H123	H	1.435400	1.051378	-0.364977
H124	H	1.935400	1.551378	0.135023
H125	H	1.372035	0.968700	-0.351536
H126	H	1.872035	1.468700	0.148464
H127	H	1.440807	0.977084	-0.429870
H128	H	1.940807	1.477084	0.070130
C129	C	0.555568	0.685296	-0.684777
C130	C	1.055568	1.185296	-0.184777
H131	H	0.592659	0.724063	-0.723446
H132	H	1.092659	1.224063	-0.223446
H133	H	0.518809	0.650730	-0.720029
H134	H	1.018809	1.150730	-0.220029
H135	H	0.518752	0.720454	-0.650127
H136	H	1.018752	1.220454	-0.150127
H137	H	1.373175	1.193828	-0.420427
H138	H	1.873175	1.693828	0.079573
H139	H	0.596323	0.447902	-0.447979
H140	H	1.096323	0.947902	0.052021
H141	H	1.100156	0.663328	-1.051511
H142	H	1.600156	1.163328	-0.551511
H143	H	1.152440	1.192467	-0.616773
H144	H	1.652440	1.692467	-0.116773
H145	H	1.383467	0.411077	-1.023736
H146	H	1.883467	0.911077	-0.523736
C147	C	1.081929	1.064147	-0.679396
C148	C	1.581929	1.564147	-0.179396
H149	H	1.048209	1.022384	-0.709368
H150	H	1.548209	1.522384	-0.209368
H151	H	1.042802	1.096686	-0.644478
H152	H	1.542802	1.596686	-0.144478
H153	H	1.111571	1.105058	-0.722814
H154	H	1.611571	1.605058	-0.222814
C155	C	1.349392	0.441422	-0.868733
C156	C	1.849392	0.941422	-0.368733
H157	H	1.383089	0.411398	-0.910502
H158	H	1.883089	0.911398	-0.410502
H159	H	1.388541	0.476325	-0.836242
H160	H	1.888541	0.976325	-0.336242
H161	H	1.319744	0.398049	-0.827779
H162	H	1.819744	0.898049	-0.327779
C163	C	1.389675	0.405535	-1.208161
C164	C	1.889675	0.905535	-0.708161
H165	H	1.377157	0.416670	-1.270937
H166	H	1.877157	0.916670	-0.770937
H167	H	1.449990	0.421595	-1.197120
H168	H	1.949990	0.921595	-0.697120
H169	H	1.381207	0.343305	-1.188656
H170	H	1.881207	0.843305	-0.688656
H171	H	1.110509	0.654134	-0.880636
H172	H	1.610509	1.154134	-0.380636
H173	H	0.887995	0.626848	-0.626432
H174	H	1.387995	1.126848	-0.126432
H175	H	0.743661	0.395624	-0.395831
H176	H	1.243661	0.895624	0.104169
H177	H	0.913411	0.406004	-0.406173
H178	H	1.413411	0.906004	0.093827
