data_functionalizedCrystal
_audit_creation_method	'MofGen! by Chris Wilmer'
_symmetry_space_group_name_H-M	'P1'
_symmetry_Int_Tables_number	1
_symmetry_cell_setting	triclinic
loop_
_symmetry_equiv_pos_as_xyz
  x,y,z
_cell_length_a	18.050589
_cell_length_b	16.959455
_cell_length_c	16.959447
_cell_angle_alpha	89.977004
_cell_angle_beta	89.973275
_cell_angle_gamma	90.025241
loop_
_atom_site_label
_atom_site_type_symbol
_atom_site_fract_x
_atom_site_fract_y
_atom_site_fract_z
Zn1	Zn	-0.295703	1.208360	-0.447057
Zn2	Zn	-0.419905	1.208257	-0.314886
Zn3	Zn	-0.295727	1.076182	-0.314880
Zn4	Zn	-0.419849	1.076134	-0.447011
O5	O	-0.357796	1.142233	-0.380959
O6	O	-0.312192	1.318957	-0.429546
O7	O	-0.403466	1.190714	-0.204275
O8	O	-0.191799	1.093779	-0.332430
O9	O	-0.403443	1.318882	-0.332441
O10	O	-0.191782	1.190889	-0.429539
O11	O	-0.312232	1.093679	-0.204270
O12	O	-0.312179	0.965565	-0.332386
O13	O	-0.403348	1.093697	-0.557628
O14	O	-0.403371	0.965529	-0.429462
O15	O	-0.312138	1.190842	-0.557661
O16	O	-0.523822	1.190668	-0.332397
O17	O	-0.523781	1.093597	-0.429468
C18	C	-0.357772	0.936867	-0.380919
C19	C	-0.357779	0.849010	-0.380920
C20	C	-0.405263	0.477485	-0.330370
C21	C	-0.310391	0.477584	-0.431643
C22	C	-0.310378	0.560130	-0.431624
C23	C	-0.357810	0.601357	-0.380978
C24	C	-0.405254	0.560038	-0.330351
C25	C	-0.262941	0.601455	-0.482255
C26	C	-0.262927	0.684006	-0.482239
C27	C	-0.310356	0.725235	-0.431588
C28	C	-0.357801	0.683911	-0.380959
C29	C	-0.405232	0.725138	-0.330313
C30	C	-0.452675	0.683815	-0.279679
C31	C	-0.452682	0.601267	-0.279701
C32	C	-0.310348	0.807783	-0.431566
C33	C	-0.405223	0.807691	-0.330294
C34	C	-0.550748	1.142138	-0.380945
C35	C	-0.633294	1.142169	-0.380966
C36	C	-0.832749	1.089434	-0.433735
C37	C	-0.882193	1.070168	-0.361606
C38	C	-0.784424	1.142247	-0.380977
C39	C	-0.882063	1.161552	-0.453114
C40	C	-0.930409	1.142320	-0.380993
C41	C	-0.832780	1.122943	-0.308809
C42	C	-0.832646	1.214360	-0.400366
C43	C	-0.882067	1.195121	-0.328187
C44	C	-0.700326	1.142202	-0.380968
C45	C	-1.014506	1.142365	-0.380993
C46	C	-0.164090	1.142350	-0.380989
C47	C	-0.081545	1.142400	-0.381002
C48	C	-0.357734	1.142275	-0.587127
C49	C	-0.357708	1.142294	-0.674983
C50	C	-0.357821	1.348401	-0.380999
C51	C	-0.357832	1.436258	-0.381016
C52	C	-0.310129	1.091841	-1.046463
C53	C	-0.405131	1.192885	-1.046455
C54	C	-0.405148	1.192871	-0.963910
C55	C	-0.357656	1.142341	-0.922637
C56	C	-0.310146	1.091825	-0.963910
C57	C	-0.452662	1.243381	-0.922630
C58	C	-0.452682	1.243369	-0.840079
C59	C	-0.405185	1.192842	-0.798805
C60	C	-0.357673	1.142324	-0.840083
C61	C	-0.310181	1.091794	-0.798810
C62	C	-0.262665	1.041279	-0.840087
C63	C	-0.262650	1.041298	-0.922635
C64	C	-0.405200	1.192824	-0.716256
C65	C	-0.310198	1.091777	-0.716256
C66	C	-0.357804	1.142236	-0.175592
C67	C	-0.357621	1.142372	-0.087736
H68	H	-0.491297	0.717393	-0.238447
H69	H	-0.810869	1.275296	-0.416785
H70	H	-0.271778	0.444013	-0.472881
H71	H	-0.443846	0.841253	-0.289048
H72	H	-0.491307	0.567615	-0.238477
Br73	Br	-0.918151	1.188716	-0.554780
H74	H	-0.903972	1.009218	-0.345222
H75	H	-0.271520	1.050632	-0.682658
H76	H	-0.224297	0.717644	-0.523467
H77	H	-0.443887	0.443836	-0.289143
Br78	Br	-0.796854	1.095663	-0.207109
H79	H	-0.903585	1.239815	-0.283526
Br80	Br	-0.469689	1.261365	-0.660241
Br81	Br	-0.198586	0.545502	-0.550998
Br82	Br	-0.198214	0.972705	-0.784064
H83	H	-0.271723	0.841424	-0.472793
Br84	Br	-0.796654	1.014891	-0.507996
Br85	Br	-0.198171	0.972747	-0.978657
H86	H	-0.271440	1.050716	-1.080074
Br87	Br	-0.469590	1.261449	-1.102469
H88	H	-0.491336	1.284511	-0.956241
H89	H	-0.491373	1.284500	-0.806479
