data_functionalizedCrystal
_audit_creation_method	'MofGen! by Chris Wilmer'
_symmetry_space_group_name_H-M	'P1'
_symmetry_Int_Tables_number	1
_symmetry_cell_setting	triclinic
loop_
_symmetry_equiv_pos_as_xyz
  x,y,z
_cell_length_a	10.654550
_cell_length_b	10.723024
_cell_length_c	9.730223
_cell_angle_alpha	89.999810
_cell_angle_beta	89.996251
_cell_angle_gamma	84.476386
loop_
_atom_site_label
_atom_site_type_symbol
_atom_site_fract_x
_atom_site_fract_y
_atom_site_fract_z
O1	O	1.667808	0.175269	-0.114399
O2	O	1.302327	0.191968	-0.114377
O3	O	1.493497	0.002044	-0.114383
O4	O	1.476637	0.365194	-0.114393
O5	O	1.493495	0.002049	0.114197
O6	O	1.302324	0.191973	0.114203
O7	O	1.667805	0.175274	0.114181
Zn8	Zn	1.485065	0.183624	0.150484
Zn9	Zn	1.485067	0.183618	-0.150680
O10	O	1.476635	0.365199	0.114187
C11	C	1.255528	0.190745	-0.000084
C12	C	1.116085	0.187076	-0.000075
C13	C	1.036583	0.298901	-0.000098
C14	C	0.905562	0.295446	-0.000122
C15	C	0.933560	0.068333	-0.000106
C16	C	1.064578	0.071789	-0.000072
C17	C	1.020417	0.430023	-0.000114
C18	C	0.889397	0.426568	-0.000137
C19	C	1.492269	-0.044454	-0.000095
C20	C	1.488598	-0.183008	-0.000100
C21	C	1.595568	-0.257975	-0.000108
C22	C	1.591776	-0.401179	-0.000113
C23	C	1.714604	0.176498	-0.000115
C24	C	1.854047	0.180166	-0.000133
C25	C	1.477863	0.411696	-0.000104
C26	C	1.481534	0.550251	-0.000108
N27	N	1.485072	0.183628	0.356020
N28	N	1.485070	0.183605	-0.356216
C29	C	1.569744	0.099558	0.427943
C30	C	1.569741	0.099543	0.571826
C31	C	1.400389	0.267678	0.571850
C32	C	1.400387	0.267687	0.427970
C33	C	1.667522	0.002490	0.427931
C34	C	1.667519	0.002475	0.571814
H35	H	0.891606	-0.025530	-0.000124
C36	C	1.361080	-0.239520	-0.000090
N37	N	1.265030	-0.282083	-0.000078
H38	H	1.689955	-0.216139	-0.000105
H39	H	1.056067	0.471772	-0.098802
C40	C	1.307338	0.360266	0.348860
N41	N	1.237288	0.430039	0.289274
H42	H	1.129305	-0.019270	-0.000034
C43	C	1.060037	0.499301	0.129124
N44	N	1.089879	0.551476	0.226466
C45	C	0.827678	0.480131	0.133163
N46	N	0.781189	0.520481	0.233558
H47	H	1.331440	0.336116	0.630447
H48	H	1.646094	-0.093427	0.388881
H49	H	0.847658	0.475971	-0.095806
H50	H	1.389955	-0.385338	-0.000092
C51	C	1.790703	0.043542	0.367627
N52	N	1.883484	0.074462	0.322206
C53	C	1.626301	-0.119968	0.632100
N54	N	1.595247	-0.212187	0.677510
C55	C	1.797864	0.031455	0.624567
N56	N	1.896024	0.053319	0.664300
H57	H	1.683350	-0.465598	-0.000114
