data_functionalizedCrystal
_audit_creation_method	'MofGen! by Chris Wilmer'
_symmetry_space_group_name_H-M	'P1'
_symmetry_Int_Tables_number	1
_symmetry_cell_setting	triclinic
loop_
_symmetry_equiv_pos_as_xyz
  x,y,z
_cell_length_a	15.625110
_cell_length_b	17.666332
_cell_length_c	15.538191
_cell_angle_alpha	89.998028
_cell_angle_beta	113.259765
_cell_angle_gamma	71.922247
loop_
_atom_site_label
_atom_site_type_symbol
_atom_site_fract_x
_atom_site_fract_y
_atom_site_fract_z
O1	O	1.155965	-0.254417	-0.122953
O2	O	0.888702	-0.181042	-0.137593
O3	O	1.074358	-0.232009	0.006788
O4	O	0.970308	-0.203450	-0.267333
O5	O	1.074344	-0.357902	0.006791
O6	O	0.888687	-0.306935	-0.137589
O7	O	1.155951	-0.380310	-0.122949
Cu8	Cu	1.022318	-0.355117	-0.130269
Cu9	Cu	1.022335	-0.206234	-0.130273
O10	O	0.970294	-0.329343	-0.267330
C11	C	0.855325	-0.234827	-0.136927
C12	C	0.755896	-0.207529	-0.134937
N13	N	1.022313	-0.459835	-0.130265
C14	C	0.615762	-0.100435	-0.132135
C15	C	0.709191	-0.126093	-0.134005
C16	C	0.709182	-0.263338	-0.134005
C17	C	0.615750	-0.237691	-0.132140
C18	C	0.569048	-0.156239	-0.131204
C19	C	0.569035	-0.293495	-0.131209
C20	C	0.475613	-0.267850	-0.129339
C21	C	0.428906	-0.186401	-0.128401
C22	C	0.475626	-0.130594	-0.129335
C23	C	0.615741	-0.374948	-0.132138
C24	C	0.569027	-0.430751	-0.131207
C25	C	0.475600	-0.405106	-0.129344
C26	C	0.428893	-0.323657	-0.128406
C27	C	0.428880	-0.460913	-0.128410
C28	C	0.335458	-0.435268	-0.126541
C29	C	0.335471	-0.298012	-0.126536
C30	C	1.104554	-1.084462	-0.066355
C31	C	1.104555	-1.005215	-0.066357
C32	C	1.022338	-0.943024	-0.130265
C33	C	0.940125	-0.960088	-0.194191
C34	C	0.940131	-1.039335	-0.194193
N35	N	0.938686	-0.795645	-0.142107
N36	N	0.938686	-0.720365	-0.142099
C37	C	1.022318	-0.704254	-0.130263
N38	N	1.105959	-0.766270	-0.118416
N39	N	1.105960	-0.841558	-0.118419
C40	C	1.022324	-0.857091	-0.130270
C41	C	1.104529	-0.601270	-0.066347
C42	C	1.104529	-0.522021	-0.066356
C43	C	0.940093	-0.476893	-0.194185
C44	C	0.940100	-0.556143	-0.194181
C45	C	1.022318	-0.618326	-0.130257
C46	C	1.189328	-0.326523	-0.123615
C47	C	1.288756	-0.353816	-0.125605
C48	C	1.085238	-0.297941	0.041871
C49	C	1.117665	-0.306836	0.146401
N50	N	1.022349	-0.101519	-0.130269
C51	C	0.959415	-0.263408	-0.302413
C52	C	0.926988	-0.254508	-0.406943
C53	C	0.795512	-0.218408	0.434619
C54	C	0.826004	-0.226782	0.532844
C55	C	0.997519	-0.273869	0.555060
C56	C	0.967041	-0.265496	0.456834
C57	C	0.866036	-0.237766	0.396621
C58	C	1.037565	-0.284854	0.418837
C59	C	1.007088	-0.276486	0.320620
C60	C	0.906088	-0.248759	0.260400
C61	C	0.835559	-0.229398	0.298404
C62	C	1.138569	-0.312589	0.479052
C63	C	1.209093	-0.331947	0.441054
C64	C	1.178617	-0.323573	0.342835
C65	C	1.077617	-0.295847	0.282616
C66	C	1.249146	-0.342935	0.304832
C67	C	1.218669	-0.334566	0.206615
C68	C	1.047140	-0.287479	0.184399
H69	H	0.297438	-0.231684	-0.125785
H70	H	1.171503	-1.135092	-0.014307
H71	H	0.873159	-0.570029	-0.246222
Cl72	Cl	0.733192	-0.407188	-0.134479
Cl73	Cl	1.207884	-0.500579	0.013994
H74	H	1.171498	-0.991325	-0.014309
H75	H	0.753311	-0.206812	0.249374
Cl76	Cl	0.737333	-0.202447	0.580608
Cl77	Cl	1.124492	-0.308734	0.630765
Cl78	Cl	0.767900	-0.365732	-0.135183
Cl79	Cl	0.627745	-0.533145	-0.132386
H80	H	1.276097	-0.350330	0.175677
Cl81	Cl	0.836779	-1.060779	-0.274548
Cl82	Cl	0.836769	-0.881907	-0.274536
H83	H	0.964892	-0.264892	0.135369
H84	H	0.873153	-0.426258	-0.246224
H85	H	1.291332	-0.354528	0.490093
Cl86	Cl	0.557037	0.001966	-0.130974
H87	H	0.881276	-0.241950	0.180426
Cl88	Cl	1.376118	-0.377808	0.380539
H89	H	0.352835	-0.165522	-0.126880
H90	H	1.163379	-0.319395	0.559026
Cl91	Cl	1.207892	-0.679446	0.014008
H92	H	0.437593	-0.064266	-0.128584
Cl93	Cl	0.668531	-0.183539	0.358914
H94	H	0.747220	-0.080644	-0.134769
H95	H	0.297414	-0.480707	-0.125800
Cl96	Cl	0.487607	-0.563308	-0.129577
