data_functionalizedCrystal
_audit_creation_method	'MofGen! by Chris Wilmer'
_symmetry_space_group_name_H-M	'P1'
_symmetry_Int_Tables_number	1
_symmetry_cell_setting	triclinic
loop_
_symmetry_equiv_pos_as_xyz
  x,y,z
_cell_length_a	12.645331
_cell_length_b	18.050590
_cell_length_c	12.645323
_cell_angle_alpha	90.030576
_cell_angle_beta	90.015738
_cell_angle_gamma	90.017788
loop_
_atom_site_label
_atom_site_type_symbol
_atom_site_fract_x
_atom_site_fract_y
_atom_site_fract_z
Zn1	Zn	1.620725	-0.295669	0.599208
Zn2	Zn	1.620604	-0.419868	0.421930
Zn3	Zn	1.443439	-0.295694	0.421974
Zn4	Zn	1.443418	-0.419820	0.599167
O5	O	1.532047	-0.357763	0.510570
O6	O	1.769056	-0.312153	0.575691
O7	O	1.597061	-0.403427	0.273589
O8	O	1.467016	-0.191766	0.445520
O9	O	1.768967	-0.403402	0.445446
O10	O	1.597267	-0.191748	0.575733
O11	O	1.466899	-0.312197	0.273621
O12	O	1.295089	-0.312151	0.445480
O13	O	1.466980	-0.403320	0.747520
O14	O	1.295074	-0.403345	0.575663
O15	O	1.597247	-0.312107	0.747550
O16	O	1.597040	-0.523786	0.445406
O17	O	1.466863	-0.523751	0.575621
C18	C	1.256617	-0.357746	0.510573
C19	C	1.138787	-0.357757	0.510599
C20	C	0.971249	-0.415442	0.592070
C21	C	1.093809	-0.415255	0.592411
C22	C	1.094310	-0.279537	0.541131
C23	C	0.971712	-0.279889	0.541705
C24	C	0.971541	-0.377661	0.398337
C25	C	1.094147	-0.379372	0.398942
C26	C	1.531965	-0.550715	0.510528
C27	C	1.532027	-0.633261	0.510545
C28	C	1.602965	-0.832703	0.439833
C29	C	1.628865	-0.882034	0.536583
C30	C	1.532087	-0.784391	0.510587
C31	C	1.506295	-0.882142	0.413881
C32	C	1.532148	-0.930376	0.510620
C33	C	1.558037	-0.832634	0.607388
C34	C	1.435422	-0.832738	0.484621
C35	C	1.461286	-0.882046	0.581438
C36	C	1.532055	-0.700293	0.510567
C37	C	1.532179	-1.014473	0.510651
C38	C	1.808552	-0.357780	0.510568
C39	C	1.926382	-0.357788	0.510567
C40	C	1.532125	-0.357705	0.787075
C41	C	1.532158	-0.357681	0.904905
C42	C	1.532157	-0.164057	0.510636
C43	C	1.532205	-0.081511	0.510663
C44	C	1.532030	-0.357766	0.235140
C45	C	1.532202	-0.357582	0.117311
C46	C	1.449955	-0.414793	1.072451
C47	C	1.450170	-0.415075	0.949891
C48	C	1.643857	-0.378921	0.949409
C49	C	1.643406	-0.379280	1.072007
C50	C	1.503718	-0.279009	1.072118
C51	C	1.501226	-0.279480	0.949512
H52	H	0.943138	-0.263032	0.623751
H53	H	1.579796	-0.810980	0.689255
C54	C	1.475554	-0.493771	0.910270
N55	N	1.494653	-0.553052	0.880428
H56	H	1.401373	-0.903575	0.641355
C57	C	1.395591	-0.252857	1.113873
N58	N	1.314143	-0.233168	1.145322
H59	H	1.484455	-0.903888	0.332084
H60	H	1.367341	-0.401783	0.919801
H61	H	0.942032	-0.235393	0.485065
C62	C	1.728868	-0.324412	0.910041
N63	N	1.792898	-0.283356	0.880386
C64	C	1.475118	-0.492996	1.114055
N65	N	1.494079	-0.551900	1.145387
C66	C	1.133463	-0.397512	0.704763
N67	N	1.163329	-0.384156	0.789394
C68	C	1.739336	-0.911294	0.566278
N69	N	1.822544	-0.933332	0.588636
H70	H	1.353672	-0.811067	0.462609
C71	C	0.929756	-0.453399	0.360843
N72	N	0.898285	-0.510449	0.332614
H73	H	1.125036	-0.262373	0.622288
H74	H	1.366880	-0.401628	1.101936
C75	C	1.677032	-0.455707	0.907943
N76	N	1.702013	-0.513545	0.876714
H77	H	1.419026	-0.263462	0.920425
H78	H	1.662924	-0.811037	0.380060
C79	C	1.676014	-0.456878	1.110647
N80	N	1.700571	-0.515327	1.139745
H81	H	1.123444	-0.235413	0.483623
C82	C	1.729015	-0.325443	1.112102
N83	N	1.793502	-0.284899	1.142296
H84	H	1.556755	-0.234601	0.918890
C85	C	1.133457	-0.457123	0.367817
N86	N	1.163087	-0.515680	0.344368
H87	H	1.124764	-0.340426	0.334957
C88	C	1.584649	-0.221426	1.111309
N89	N	1.645610	-0.178060	1.140830
C90	C	0.932333	-0.320933	0.316295
N91	N	0.902794	-0.278204	0.254508
H92	H	1.123880	-0.473260	0.573274
H93	H	0.941756	-0.473638	0.573144
H94	H	0.940458	-0.402459	0.674745
