data_functionalizedCrystal
_audit_creation_method	'MofGen! by Chris Wilmer'
_symmetry_space_group_name_H-M	'P1'
_symmetry_Int_Tables_number	1
_symmetry_cell_setting	triclinic
loop_
_symmetry_equiv_pos_as_xyz
  x,y,z
_cell_length_a	19.288840
_cell_length_b	9.065218
_cell_length_c	17.766277
_cell_angle_alpha	90.004446
_cell_angle_beta	90.016585
_cell_angle_gamma	84.070951
loop_
_atom_site_label
_atom_site_type_symbol
_atom_site_fract_x
_atom_site_fract_y
_atom_site_fract_z
O1	O	0.922792	0.183855	0.062717
O2	O	0.720722	0.208719	0.062691
O3	O	0.825933	-0.018502	0.062703
O4	O	0.817580	0.411077	0.062705
O5	O	0.825915	-0.018514	-0.062486
O6	O	0.720703	0.208708	-0.062498
O7	O	0.922773	0.183844	-0.062471
Cu8	Cu	0.821736	0.196275	-0.073915
Cu9	Cu	0.821758	0.196288	0.074135
O10	O	0.817561	0.411065	-0.062484
C11	C	0.694829	0.207920	0.000093
C12	C	0.617706	0.205537	0.000083
C13	C	0.581504	0.204398	0.068325
C14	C	0.509040	0.202143	0.068334
C15	C	0.472782	0.200996	0.000098
C16	C	0.508992	0.202143	-0.068154
C17	C	0.581454	0.204413	-0.068161
C18	C	0.362747	0.110986	-0.052171
C19	C	0.290287	0.108706	-0.052161
C20	C	0.249284	0.194000	0.000117
C21	C	0.280751	0.281554	0.052398
C22	C	0.353213	0.283824	0.052391
C23	C	0.394209	0.198535	0.000098
C24	C	0.134507	0.190417	0.068374
C25	C	0.062041	0.188171	0.068380
C26	C	0.061996	0.188156	-0.068110
C27	C	0.134460	0.190418	-0.068114
C28	C	0.170712	0.191541	0.000130
C29	C	0.825121	-0.073466	0.000110
C30	C	0.822721	-0.237225	0.000113
C31	C	0.948665	0.184643	0.000128
C32	C	1.025788	0.187027	0.000143
C33	C	0.818373	0.466030	0.000111
C34	C	0.820774	0.629788	0.000113
N35	N	0.821725	0.196264	-0.178046
C36	C	0.868329	0.095700	-0.217427
C37	C	0.868333	0.095693	-0.296229
C38	C	0.821740	0.196276	-0.335646
C39	C	0.775128	0.296848	-0.296255
C40	C	0.775121	0.296842	-0.217455
C41	C	0.813485	0.330693	-0.460484
C42	C	0.813497	0.330701	-0.539283
C43	C	0.821759	0.196294	-0.578692
C44	C	0.830023	0.061873	-0.539293
C45	C	0.830016	0.061867	-0.460493
C46	C	0.821743	0.196293	-0.421092
C47	C	0.868369	0.095713	-0.703520
C48	C	0.868368	0.095705	-0.782323
C49	C	0.775167	0.296873	-0.782348
C50	C	0.775164	0.296869	-0.703546
C51	C	0.821769	0.196291	-0.664137
N52	N	0.821774	0.196287	0.178265
H53	H	0.264673	0.037407	-0.094728
H54	H	0.806772	0.440154	-0.571356
O55	O	0.913639	-0.001798	-0.334574
C56	C	0.956994	0.076983	-0.380116
H57	H	0.930052	0.192574	-0.391926
H58	H	0.967605	0.015352	-0.435528
H59	H	1.008383	0.086728	-0.349722
O60	O	0.838014	-0.068832	-0.422337
C61	C	0.845326	-0.187470	-0.474010
H62	H	0.821154	-0.149358	-0.530192
H63	H	0.817731	-0.283449	-0.451257
H64	H	0.903006	-0.225537	-0.482365
O65	O	0.729839	0.394354	-0.334625
C66	C	0.686492	0.315587	-0.380218
H67	H	0.713434	0.199995	-0.392018
H68	H	0.675897	0.377228	-0.435632
H69	H	0.635095	0.305845	-0.349874
H70	H	0.032475	0.187232	-0.123669
O71	O	0.729832	0.394372	-0.665251
C72	C	0.686496	0.315611	-0.619675
H73	H	0.684590	0.199277	-0.643430
H74	H	0.631672	0.376119	-0.618796
H75	H	0.708184	0.307749	-0.559947
O76	O	0.473879	0.201092	-0.134506
C77	C	0.521377	0.202544	-0.194743
H78	H	0.570450	0.250864	-0.174742
H79	H	0.496456	0.273487	-0.242469
H80	H	0.535632	0.084458	-0.215727
H81	H	0.163937	0.191335	-0.123684
H82	H	0.737170	0.378736	-0.185390
H83	H	0.247367	0.351014	0.094966
O84	O	0.729809	0.394435	-0.820594
C85	C	0.660905	0.370860	-0.801352
H86	H	0.659825	0.252747	-0.779697
H87	H	0.626158	0.388027	-0.853186
H88	H	0.641015	0.452740	-0.755614
H89	H	0.610930	0.205342	-0.123734
H90	H	0.479558	0.201218	0.123907
H91	H	0.836750	-0.047574	-0.571379
H92	H	0.164024	0.191348	0.123942
H93	H	0.396127	0.041526	-0.094746
H94	H	0.906316	0.013805	-0.814388
O95	O	0.913619	-0.002151	-0.179263
C96	C	0.954765	-0.090891	-0.230927
H97	H	0.926285	-0.092389	-0.287111
H98	H	0.964621	-0.208769	-0.208165
H99	H	1.006660	-0.043275	-0.239280
O100	O	0.383666	0.369010	0.103197
C101	C	0.331946	0.443782	0.149358
H102	H	0.279701	0.452595	0.118808
H103	H	0.346504	0.559735	0.162551
H104	H	0.327810	0.379479	0.204040
H105	H	0.906316	0.013812	-0.671432
O106	O	0.805560	0.461174	-0.422120
C107	C	0.864595	0.472742	-0.376528
H108	H	0.891609	0.357212	-0.364724
H109	H	0.847710	0.528824	-0.321116
H110	H	0.902204	0.541545	-0.406874
O111	O	0.616764	0.205246	0.134594
C112	C	0.665770	0.078846	0.138667
H113	H	0.648866	-0.011127	0.099944
H114	H	0.668990	0.036003	0.199024
H115	H	0.719081	0.109450	0.120326
O116	O	0.026983	0.187002	0.134742
C117	C	0.074520	0.188514	0.194969
H118	H	0.128752	0.143436	0.174955
H119	H	0.057565	0.116247	0.242696
H120	H	0.075684	0.307078	0.215959
