data_functionalizedCrystal
_audit_creation_method	'MofGen! by Chris Wilmer'
_symmetry_space_group_name_H-M	'P1'
_symmetry_Int_Tables_number	1
_symmetry_cell_setting	triclinic
loop_
_symmetry_equiv_pos_as_xyz
  x,y,z
_cell_length_a	19.188930
_cell_length_b	10.868271
_cell_length_c	19.188928
_cell_angle_alpha	89.991193
_cell_angle_beta	96.855705
_cell_angle_gamma	90.018212
loop_
_atom_site_label
_atom_site_type_symbol
_atom_site_fract_x
_atom_site_fract_y
_atom_site_fract_z
O1	O	0.926144	0.102738	-0.087164
O2	O	1.259478	0.436071	0.246169
O3	O	1.592811	0.769404	0.579502
O4	O	0.722833	0.102656	-0.098899
O5	O	1.056166	0.435989	0.234435
O6	O	1.389500	0.769323	0.567768
O7	O	0.830357	0.102668	0.008624
O8	O	1.163690	0.436001	0.341958
O9	O	1.497023	0.769335	0.675291
O10	O	0.818621	0.102726	-0.194687
O11	O	1.151954	0.436059	0.138646
O12	O	1.485287	0.769392	0.471979
O13	O	0.830347	-0.101977	0.008621
O14	O	1.163680	0.231357	0.341954
O15	O	1.497014	0.564690	0.675287
O16	O	0.722823	-0.101989	-0.098902
O17	O	1.056157	0.231345	0.234431
O18	O	1.389490	0.564678	0.567765
O19	O	0.926135	-0.101907	-0.087168
O20	O	1.259468	0.231426	0.246166
O21	O	1.592801	0.564760	0.579499
Zn22	Zn	0.824477	-0.134440	-0.093036
Zn23	Zn	1.157811	0.198894	0.240298
Zn24	Zn	1.491144	0.532227	0.573631
Zn25	Zn	0.824490	0.135189	-0.093031
Zn26	Zn	1.157824	0.468522	0.240302
Zn27	Zn	1.491157	0.801855	0.573636
O28	O	0.818611	-0.101919	-0.194691
O29	O	1.151944	0.231414	0.138643
O30	O	1.485278	0.564748	0.471976
C31	C	0.696817	0.000323	-0.098520
C32	C	1.030150	0.333656	0.234813
C33	C	1.363484	0.666989	0.568146
C34	C	0.619313	0.000290	-0.097380
C35	C	0.952646	0.333623	0.235954
C36	C	1.285979	0.666957	0.569287
N37	N	0.824474	-0.318454	-0.093038
N38	N	1.157807	0.014880	0.240295
N39	N	1.491140	0.348213	0.573628
C40	C	0.824479	-0.429791	-0.093038
C41	C	1.157812	-0.096458	0.240295
C42	C	1.491146	0.236875	0.573628
C43	C	0.824488	-0.569469	-0.093032
C44	C	1.157822	-0.236136	0.240301
C45	C	1.491155	0.097198	0.573635
C46	C	0.574388	0.000327	-0.160471
C47	C	0.907721	0.333661	0.172863
C48	C	1.241055	0.666994	0.506196
C49	C	0.501564	0.000340	-0.159399
C50	C	0.834898	0.333674	0.173934
C51	C	1.168231	0.667007	0.507268
C52	C	0.473668	0.000341	-0.095233
C53	C	0.807002	0.333675	0.238101
C54	C	1.140335	0.667008	0.571434
C55	C	0.518603	0.000297	-0.032133
C56	C	0.851936	0.333630	0.301200
C57	C	1.185269	0.666964	0.634533
C58	C	0.591425	0.000272	-0.033207
C59	C	0.924758	0.333605	0.300126
C60	C	1.258091	0.666938	0.633460
N61	N	0.365692	0.070026	-0.046184
N62	N	0.699025	0.403360	0.287149
N63	N	1.032358	0.736693	0.620482
N64	N	0.296513	0.070053	-0.045169
N65	N	0.629847	0.403387	0.288164
N66	N	0.963180	0.736720	0.621498
C67	C	0.254260	0.000416	-0.091995
C68	C	0.587593	0.333749	0.241339
C69	C	0.920926	0.667082	0.574672
N70	N	0.283797	-0.069235	-0.139885
N71	N	0.617130	0.264099	0.193449
N72	N	0.950463	0.597432	0.526782
N73	N	0.352981	-0.069256	-0.140902
N74	N	0.686315	0.264077	0.192431
N75	N	1.019648	0.597411	0.525765
C76	C	0.394706	0.000368	-0.094062
C77	C	0.728039	0.333701	0.239272
C78	C	1.061372	0.667035	0.572605
C79	C	0.130371	0.000465	-0.153928
C80	C	0.463704	0.333799	0.179405
C81	C	0.797037	0.667132	0.512739
C82	C	0.057546	0.000471	-0.152854
C83	C	0.390879	0.333804	0.180480
C84	C	0.724213	0.667138	0.513813
C85	C	0.074586	0.000440	-0.025586
C86	C	0.407919	0.333773	0.307747
C87	C	0.741253	0.667107	0.641080
C88	C	0.147409	0.000422	-0.026662
C89	C	0.480742	0.333755	0.306671
C90	C	0.814076	0.667089	0.640004
C91	C	0.175297	0.000441	-0.090835
C92	C	0.508630	0.333774	0.242498
C93	C	0.841963	0.667107	0.575832
C94	C	0.952150	0.000429	-0.087546
C95	C	1.285484	0.333762	0.245787
C96	C	1.618817	0.667096	0.579121
C97	C	1.029655	0.000470	-0.088687
C98	C	1.362988	0.333803	0.244647
C99	C	1.696322	0.667136	0.577980
C100	C	0.829972	0.000340	0.034634
C101	C	1.163305	0.333673	0.367967
C102	C	1.496639	0.667007	0.701300
C103	C	0.828832	0.000324	0.112138
C104	C	1.162165	0.333657	0.445472
C105	C	1.495499	0.666990	0.778805
N106	N	0.824499	0.319203	-0.093023
N107	N	1.157833	0.652536	0.240311
N108	N	1.491166	0.985869	0.573644
C109	C	0.891923	0.000340	0.157062
C110	C	1.225257	0.333674	0.490396
C111	C	1.558590	0.667007	0.823729
C112	C	0.890852	0.000354	0.229886
C113	C	1.224185	0.333688	0.563219
C114	C	1.557519	0.667021	0.896553
C115	C	0.826686	0.000327	0.257783
C116	C	1.160020	0.333661	0.591116
C117	C	1.493353	0.666994	0.924449
C118	C	0.763587	0.000318	0.212849
C119	C	1.096920	0.333651	0.546182
C120	C	1.430253	0.666984	0.879516
C121	C	0.764660	0.000316	0.140027
C122	C	1.097993	0.333649	0.473360
C123	C	1.431326	0.666983	0.806693
N124	N	0.777637	-0.069345	0.365787
N125	N	1.110970	0.263989	0.699120
N126	N	1.444303	0.597322	1.032453
N127	N	0.776622	-0.069345	0.434965
N128	N	1.109955	0.263988	0.768299
N129	N	1.443288	0.597321	1.101632
C130	C	0.823450	0.000336	0.477192
C131	C	1.156783	0.333669	0.810525
C132	C	1.490117	0.667002	1.143858
N133	N	0.871342	0.070002	0.447627
N134	N	1.204675	0.403335	0.780961
N135	N	1.538009	0.736669	1.114294
N136	N	0.872359	0.069997	0.378442
N137	N	1.205692	0.403331	0.711776
N138	N	1.539026	0.736664	1.045109
C139	C	0.825516	0.000330	0.336745
C140	C	1.158849	0.333663	0.670079
C141	C	1.492183	0.666997	1.003412
C142	C	0.885384	0.000369	0.601080
C143	C	1.218718	0.333703	0.934413
C144	C	1.552051	0.667036	1.267747
C145	C	0.884311	0.000391	0.673905
C146	C	1.217644	0.333724	1.007238
C147	C	1.550977	0.667058	1.340572
C148	C	0.757043	0.000342	0.656866
C149	C	1.090377	0.333675	0.990199
C150	C	1.423710	0.667009	1.323533
C151	C	0.758119	0.000332	0.584043
C152	C	1.091452	0.333666	0.917376
C153	C	1.424786	0.666999	1.250710
C154	C	0.822291	0.000340	0.556155
C155	C	1.155625	0.333674	0.889488
C156	C	1.488958	0.667007	1.222821
C157	C	0.818998	0.000394	0.779300
C158	C	1.152331	0.333727	1.112634
C159	C	1.485664	0.667061	1.445967
C160	C	0.820144	0.000366	0.701797
C161	C	1.153477	0.333699	1.035130
C162	C	1.486811	0.667033	1.368463
H163	H	0.597089	0.000345	-0.212725
H164	H	0.930423	0.333678	0.120608
H165	H	1.263756	0.667011	0.453942
H166	H	0.495885	0.000315	0.020111
H167	H	0.829218	0.333648	0.353444
H168	H	1.162552	0.666981	0.686778
C169	C	0.953715	0.000407	0.723322
C170	C	1.287048	0.333740	1.056656
C171	C	1.620381	0.667074	1.389989
H172	H	0.992084	0.000399	0.696280
H173	H	1.325417	0.333733	1.029613
H174	H	1.658750	0.667066	1.362947
H175	H	0.955951	0.071773	0.752078
H176	H	1.289285	0.405106	1.085411
H177	H	1.622618	0.738440	1.418745
H178	H	0.955931	-0.070964	0.752090
H179	H	1.289265	0.262369	1.085423
H180	H	1.622598	0.595703	1.418757
H181	H	0.464980	0.000367	-0.210777
H182	H	0.798313	0.333701	0.122557
H183	H	1.131646	0.667034	0.455890
H184	H	0.628003	0.000242	0.018171
H185	H	0.961336	0.333575	0.351504
H186	H	1.294670	0.666909	0.684838
C187	C	0.695258	0.000295	0.090605
C188	C	1.028592	0.333628	0.423939
C189	C	1.361925	0.666961	0.757272
H190	H	0.705088	0.000303	0.043240
H191	H	1.038421	0.333637	0.376574
H192	H	1.371754	0.666970	0.709907
H193	H	0.668930	-0.071074	0.099046
H194	H	1.002263	0.262259	0.432379
H195	H	1.335596	0.595593	0.765713
H196	H	0.668945	0.071663	0.099032
H197	H	1.002279	0.404997	0.432365
H198	H	1.335612	0.738330	0.765699
C199	C	0.043912	0.000435	0.044997
C200	C	0.377246	0.333768	0.378331
C201	C	0.710579	0.667101	0.711664
H202	H	0.081101	0.000404	0.082419
H203	H	0.414435	0.333738	0.415753
H204	H	0.747768	0.667071	0.749086
H205	H	0.015877	0.071804	0.048065
H206	H	0.349210	0.405137	0.381398
H207	H	0.682544	0.738471	0.714732
H208	H	0.015841	-0.070933	0.048058
H209	H	0.349174	0.262400	0.381391
H210	H	0.682508	0.595734	0.714724
C211	C	0.161054	0.000471	-0.224511
C212	C	0.494388	0.333804	0.108822
C213	C	0.827721	0.667137	0.442155
H214	H	0.210859	0.000467	-0.216115
H215	H	0.544193	0.333800	0.117218
H216	H	0.877526	0.667134	0.450551
H217	H	0.145601	-0.070884	-0.250481
H218	H	0.478935	0.262449	0.082852
H219	H	0.812268	0.595783	0.416185
H220	H	0.145638	0.071853	-0.250479
H221	H	0.478972	0.405186	0.082855
H222	H	0.812305	0.738520	0.416188
H223	H	0.937637	0.000381	0.578372
H224	H	1.270971	0.333715	0.911706
H225	H	1.604304	0.667048	1.245039
C226	C	0.686462	0.000316	0.687544
C227	C	1.019795	0.333649	1.020877
C228	C	1.353129	0.666983	1.354210
H229	H	0.694858	0.000314	0.737349
H230	H	1.028191	0.333648	1.070682
H231	H	1.361525	0.666981	1.404015
H232	H	0.660496	0.071669	0.672101
H233	H	0.993830	0.405002	1.005434
H234	H	1.327163	0.738336	1.338768
H235	H	0.660490	-0.071068	0.672117
H236	H	0.993823	0.262265	1.005451
H237	H	1.327157	0.595599	1.338784
H238	H	0.706743	0.000312	0.547465
H239	H	1.040076	0.333645	0.880798
H240	H	1.373410	0.666979	1.214131
H241	H	0.020968	0.000494	-0.204232
H242	H	0.354302	0.333827	0.129101
H243	H	0.687635	0.667161	0.462435
C244	C	0.693004	0.000293	0.243529
C245	C	1.026338	0.333626	0.576862
C246	C	1.359671	0.666959	0.910195
H247	H	0.655581	0.000293	0.206340
H248	H	0.988915	0.333626	0.539674
H249	H	1.322248	0.666960	0.873007
H250	H	0.689933	-0.071070	0.271589
H251	H	1.023266	0.262263	0.604923
H252	H	1.356600	0.595596	0.938256
H253	H	0.689949	0.071667	0.271575
H254	H	1.023282	0.405000	0.604909
H255	H	1.356615	0.738334	0.938242
C256	C	0.196828	0.000400	0.042738
C257	C	0.530161	0.333733	0.376072
C258	C	0.863495	0.667067	0.709405
H259	H	0.169786	0.000413	0.081108
H260	H	0.503120	0.333746	0.414441
H261	H	0.836453	0.667079	0.747775
H262	H	0.225571	-0.070972	0.044966
H263	H	0.558905	0.262361	0.378299
H264	H	0.892238	0.595695	0.711633
H265	H	0.225608	0.071765	0.044963
H266	H	0.558942	0.405099	0.378297
H267	H	0.892275	0.738432	0.711630
H268	H	0.944177	0.000351	0.134361
H269	H	1.277511	0.333684	0.467694
H270	H	1.610844	0.667018	0.801027
C271	C	0.960255	0.000364	0.279311
C272	C	1.293588	0.333697	0.612645
C273	C	1.626922	0.667030	0.945978
H274	H	0.998626	0.000361	0.252272
H275	H	1.331960	0.333694	0.585605
H276	H	1.665293	0.667028	0.918939
H277	H	0.962490	0.071725	0.308070
H278	H	1.295823	0.405059	0.641404
H279	H	1.629156	0.738392	0.974737
H280	H	0.962470	-0.071012	0.308076
H281	H	1.295803	0.262322	0.641409
H282	H	1.629136	0.595655	0.974742
