data_functionalizedCrystal
_audit_creation_method	'MofGen! by Chris Wilmer'
_symmetry_space_group_name_H-M	'P1'
_symmetry_Int_Tables_number	1
_symmetry_cell_setting	triclinic
loop_
_symmetry_equiv_pos_as_xyz
  x,y,z
_cell_length_a	25.639242
_cell_length_b	25.639234
_cell_length_c	25.639240
_cell_angle_alpha	89.980112
_cell_angle_beta	90.027587
_cell_angle_gamma	89.970648
loop_
_atom_site_label
_atom_site_type_symbol
_atom_site_fract_x
_atom_site_fract_y
_atom_site_fract_z
Zn1	Zn	0.799286	-0.295760	-0.208245
Zn2	Zn	1.299286	0.204240	0.291755
Zn3	Zn	0.799209	-0.208332	-0.295673
Zn4	Zn	1.299209	0.291668	0.204327
Zn5	Zn	0.711852	-0.208325	-0.208247
Zn6	Zn	1.211852	0.291675	0.291753
Zn7	Zn	0.711818	-0.295722	-0.295644
Zn8	Zn	1.211818	0.204278	0.204356
O9	O	0.755541	-0.252035	-0.251952
O10	O	1.255541	0.247965	0.248048
O11	O	0.872441	-0.284182	-0.219854
O12	O	1.372441	0.215818	0.280146
O13	O	0.787603	-0.135166	-0.284089
O14	O	1.287603	0.364834	0.215911
O15	O	0.723497	-0.219936	-0.135081
O16	O	1.223497	0.280064	0.364919
O17	O	0.872384	-0.219949	-0.284087
O18	O	1.372384	0.280051	0.215913
O19	O	0.787734	-0.284175	-0.135080
O20	O	1.287734	0.215825	0.364920
O21	O	0.723421	-0.135160	-0.219857
O22	O	1.223421	0.364840	0.280143
O23	O	0.638682	-0.219899	-0.219829
O24	O	1.138682	0.280101	0.280171
O25	O	0.723439	-0.368893	-0.284038
O26	O	1.223439	0.131107	0.215962
O27	O	0.638657	-0.284110	-0.284040
O28	O	1.138657	0.215890	0.215960
O29	O	0.787702	-0.368921	-0.219826
O30	O	1.287702	0.131079	0.280174
O31	O	0.787570	-0.219912	-0.368835
O32	O	1.287570	0.280088	0.131165
O33	O	0.723364	-0.284117	-0.368813
O34	O	1.223364	0.215883	0.131187
C35	C	0.619699	-0.252000	-0.251932
C36	C	1.119699	0.248000	0.248068
C37	C	0.561585	-0.251997	-0.251935
C38	C	1.061585	0.248003	0.248065
C39	C	0.201217	-0.285438	-0.285443
C40	C	0.701217	0.214562	0.214557
C41	C	0.146613	-0.285446	-0.285446
C42	C	0.646613	0.214554	0.214554
O43	O	0.118373	-0.313849	-0.313909
O44	O	0.618373	0.186151	0.186091
N45	N	0.119302	-0.252069	-0.251967
N46	N	0.619302	0.247931	0.248033
C47	C	0.146598	-0.218685	-0.218478
C48	C	0.646598	0.281315	0.281522
O49	O	0.118354	-0.190297	-0.190002
O50	O	0.618354	0.309703	0.309998
C51	C	0.201201	-0.218680	-0.218473
C52	C	0.701201	0.281320	0.281527
C53	C	0.228510	-0.252056	-0.251958
C54	C	0.728510	0.247944	0.248042
C55	C	0.228526	-0.318811	-0.318925
C56	C	0.728526	0.181189	0.181075
C57	C	0.283126	-0.318802	-0.318922
C58	C	0.783126	0.181198	0.181078
C59	C	0.310418	-0.285420	-0.285437
C60	C	0.810418	0.214580	0.214563
C61	C	0.283110	-0.252047	-0.251955
C62	C	0.783110	0.247953	0.248045
C63	C	0.228497	-0.185300	-0.184982
C64	C	0.728497	0.314700	0.315018
C65	C	0.283104	-0.185297	-0.184980
C66	C	0.783104	0.314703	0.315020
C67	C	0.310412	-0.218673	-0.218465
C68	C	0.810412	0.281327	0.281535
C69	C	0.365003	-0.218655	-0.218468
C70	C	0.865003	0.281345	0.281532
N71	N	0.392314	-0.252032	-0.251947
N72	N	0.892314	0.247968	0.248053
C73	C	0.365022	-0.285415	-0.285432
C74	C	0.865022	0.214585	0.214568
C75	C	0.031928	-0.218700	-0.218492
C76	C	0.531928	0.281300	0.281508
C77	C	-0.022675	-0.218702	-0.218499
C78	C	0.477325	0.281298	0.281501
C79	C	-0.022656	-0.285463	-0.285466
C80	C	0.477344	0.214537	0.214534
C81	C	0.031947	-0.285458	-0.285461
C82	C	0.531947	0.214542	0.214539
C83	C	0.059239	-0.252077	-0.251971
C84	C	0.559239	0.247923	0.248029
C85	C	0.479687	-0.285393	-0.285424
C86	C	0.979687	0.214607	0.214576
C87	C	0.534292	-0.285379	-0.285420
C88	C	1.034292	0.214621	0.214580
C89	C	0.534269	-0.218620	-0.218451
C90	C	1.034269	0.281380	0.281549
C91	C	0.479668	-0.218631	-0.218457
C92	C	0.979668	0.281369	0.281543
C93	C	0.452379	-0.252022	-0.251945
C94	C	0.952379	0.247978	0.248055
O95	O	0.393278	-0.190268	-0.190018
O96	O	0.893278	0.309732	0.309982
O97	O	0.393273	-0.313803	-0.313899
O98	O	0.893273	0.186197	0.186101
C99	C	0.755575	-0.388408	-0.251928
C100	C	1.255575	0.111592	0.248072
C101	C	0.755590	-0.446522	-0.251918
C102	C	1.255590	0.053478	0.248082
C103	C	0.722185	-0.806888	-0.218410
C104	C	1.222185	-0.306888	0.281590
C105	C	0.722188	-0.861492	-0.218401
C106	C	1.222188	-0.361492	0.281599
O107	O	0.693760	-0.889731	-0.189969
O108	O	1.193760	-0.389731	0.310031
N109	N	0.755607	-0.888805	-0.251836
N110	N	1.255607	-0.388805	0.248164
C111	C	0.789022	-0.861510	-0.285287
C112	C	1.289022	-0.361510	0.214713
O113	O	0.817447	-0.889756	-0.313726
O114	O	1.317447	-0.389756	0.186274
C115	C	0.789016	-0.806907	-0.285299
C116	C	1.289016	-0.306907	0.214701
C117	C	0.755598	-0.779597	-0.251857
C118	C	1.255598	-0.279597	0.248143
C119	C	0.688770	-0.779578	-0.184972
C120	C	1.188770	-0.279578	0.315028
C121	C	0.688768	-0.724977	-0.184981
C122	C	1.188768	-0.224977	0.315019
C123	C	0.722181	-0.697687	-0.218428
C124	C	1.222181	-0.197687	0.281572
C125	C	0.755596	-0.724997	-0.251866
C126	C	1.255596	-0.224997	0.248134
C127	C	0.822427	-0.779613	-0.318752
C128	C	1.322427	-0.279613	0.181248
C129	C	0.822418	-0.725006	-0.318761
C130	C	1.322418	-0.225006	0.181239
C131	C	0.789001	-0.697697	-0.285319
C132	C	1.289001	-0.197697	0.214681
C133	C	0.789007	-0.643105	-0.285322
C134	C	1.289007	-0.143105	0.214678
N135	N	0.755588	-0.615793	-0.251887
N136	N	1.255588	-0.115793	0.248113
C137	C	0.722175	-0.643083	-0.218440
C138	C	1.222175	-0.143083	0.281560
C139	C	0.789031	-0.976181	-0.285260
C140	C	1.289031	-0.476181	0.214740
C141	C	0.789039	-1.030783	-0.285246
C142	C	1.289039	-0.530783	0.214754
C143	C	0.722205	-1.030761	-0.218361
C144	C	1.222205	-0.530761	0.281639
C145	C	0.722199	-0.976158	-0.218373
C146	C	1.222199	-0.476158	0.281627
C147	C	0.755612	-0.948868	-0.251825
C148	C	1.255612	-0.448868	0.248175
C149	C	0.722174	-0.528418	-0.218461
C150	C	1.222174	-0.028418	0.281539
C151	C	0.722177	-0.473813	-0.218471
C152	C	1.222177	0.026187	0.281529
C153	C	0.789009	-0.473839	-0.285358
C154	C	1.289009	0.026161	0.214642
C155	C	0.789008	-0.528440	-0.285346
C156	C	1.289008	-0.028440	0.214654
C157	C	0.755587	-0.555728	-0.251896
C158	C	1.255587	-0.055728	0.248104
O159	O	0.817419	-0.614832	-0.313741
O160	O	1.317419	-0.114832	0.186259
O161	O	0.693750	-0.614831	-0.190011
O162	O	1.193750	-0.114831	0.309989
C163	C	0.891914	-0.252071	-0.251973
C164	C	1.391914	0.247929	0.248027
C165	C	0.950028	-0.252086	-0.251982
C166	C	1.450028	0.247914	0.248018
C167	C	0.755469	-0.252023	-0.387795
C168	C	1.255469	0.247977	0.112205
C169	C	0.755486	-0.252035	-0.445909
C170	C	1.255486	0.247965	0.054091
C171	C	0.755537	-0.116192	-0.251938
C172	C	1.255537	0.383808	0.248062
C173	C	0.755624	-0.058079	-0.251801
C174	C	1.255624	0.441921	0.248199
C175	C	0.788987	-0.285518	-0.697050
C176	C	1.288987	0.214482	-0.197050
C177	C	0.788971	-0.285514	-0.642446
C178	C	1.288971	0.214486	-0.142446
O179	O	0.817395	-0.313965	-0.614165
O180	O	1.317395	0.186035	-0.114165
N181	N	0.755543	-0.252042	-0.615183
N182	N	1.255543	0.247958	-0.115183
C183	C	0.722132	-0.218567	-0.642527
C184	C	1.222132	0.281433	-0.142527
O185	O	0.693698	-0.190096	-0.614323
O186	O	1.193698	0.309904	-0.114323
C187	C	0.722151	-0.218569	-0.697130
C188	C	1.222151	0.281431	-0.197130
C189	C	0.755578	-0.252048	-0.724390
C190	C	1.255578	0.247952	-0.224390
C191	C	0.822411	-0.318994	-0.724311
C192	C	1.322411	0.181006	-0.224311
C193	C	0.822426	-0.318998	-0.778911
C194	C	1.322426	0.181002	-0.278911
C195	C	0.789017	-0.285527	-0.806251
C196	C	1.289017	0.214473	-0.306251
C197	C	0.755592	-0.252052	-0.778991
C198	C	1.255592	0.247948	-0.278991
C199	C	0.688743	-0.185092	-0.724473
C200	C	1.188743	0.314908	-0.224473
C201	C	0.688765	-0.185097	-0.779080
C202	C	1.188765	0.314903	-0.279080
C203	C	0.722192	-0.218575	-0.806340
C204	C	1.222192	0.281425	-0.306340
C205	C	0.722198	-0.218586	-0.860931
C206	C	1.222198	0.281414	-0.360931
N207	N	0.755626	-0.252058	-0.888195
N208	N	1.255626	0.247942	-0.388195
C209	C	0.789035	-0.285529	-0.860855
C210	C	1.289035	0.214471	-0.360855
C211	C	0.722096	-0.218566	-0.527856
C212	C	1.222096	0.281434	-0.027856
C213	C	0.722074	-0.218566	-0.473254
C214	C	1.222074	0.281434	0.026746
C215	C	0.788914	-0.285513	-0.473177
C216	C	1.288914	0.214487	0.026823
C217	C	0.788933	-0.285514	-0.527780
C218	C	1.288933	0.214486	-0.027780
C219	C	0.755524	-0.252038	-0.555119
C220	C	1.255524	0.247962	-0.055119
C221	C	0.789064	-0.285536	-0.975520
C222	C	1.289064	0.214464	-0.475520
C223	C	0.789074	-0.285539	-1.030125
C224	C	1.289074	0.214461	-0.530125
C225	C	0.722237	-0.218591	-1.030197
C226	C	1.222237	0.281409	-0.530197
C227	C	0.722224	-0.218590	-0.975597
C228	C	1.222224	0.281410	-0.475597
C229	C	0.755642	-0.252064	-0.948259
C230	C	1.255642	0.247936	-0.448259
O231	O	0.693790	-0.190148	-0.889247
O232	O	1.193790	0.309852	-0.389247
O233	O	0.817470	-0.313991	-0.889065
O234	O	1.317470	0.186009	-0.389065
C235	C	0.755628	-0.252059	-0.115579
C236	C	1.255628	0.247941	0.384421
C237	C	0.755665	-0.252069	-0.057465
C238	C	1.255665	0.247931	0.442535
H239	H	0.457433	-0.191453	-0.191192
H240	H	0.957433	0.308547	0.308808
C241	C	0.061946	-0.181970	-0.181657
C242	C	0.561946	0.318030	0.318343
C243	C	0.099448	-0.140877	-0.204253
C244	C	0.599448	0.359123	0.295747
C245	C	0.129464	-0.104149	-0.167418
C246	C	0.629464	0.395851	0.332582
C247	C	0.121978	-0.108514	-0.107987
C248	C	0.621978	0.391486	0.392013
C249	C	0.084474	-0.149609	-0.085388
C250	C	0.584474	0.350391	0.414612
C251	C	0.054458	-0.186337	-0.122223
C252	C	0.554458	0.313663	0.377777
H253	H	0.104992	-0.137644	-0.248249
H254	H	0.604992	0.362356	0.251751
H255	H	0.157227	-0.073728	-0.184147
H256	H	0.657227	0.426272	0.315853
H257	H	0.144197	-0.081325	-0.080720
H258	H	0.644197	0.418675	0.419280
H259	H	0.078930	-0.152841	-0.041391
H260	H	0.578930	0.347159	0.458609
H261	H	0.026695	-0.216758	-0.105493
H262	H	0.526695	0.283242	0.394507
H263	H	0.816118	-0.312766	-0.450907
H264	H	1.316118	0.187234	0.049093
C265	C	0.313124	-0.148576	-0.148139
C266	C	0.813124	0.351424	0.351861
C267	C	0.305641	-0.152951	-0.088709
C268	C	0.805641	0.347049	0.411291
C269	C	0.335661	-0.116230	-0.051870
C270	C	0.835661	0.383770	0.448130
C271	C	0.373164	-0.075135	-0.074462
C272	C	0.873164	0.424865	0.425538
C273	C	0.380648	-0.070759	-0.133895
C274	C	0.880648	0.429241	0.366105
C275	C	0.350629	-0.107480	-0.170734
C276	C	0.850629	0.392520	0.329266
H277	H	0.277878	-0.183373	-0.071983
H278	H	0.777878	0.316627	0.428017
H279	H	0.330121	-0.119470	-0.007874
H280	H	0.830121	0.380530	0.492126
H281	H	0.395386	-0.047952	-0.047192
H282	H	0.895386	0.452048	0.452808
H283	H	0.408412	-0.040336	-0.150622
H284	H	0.908412	0.459664	0.349378
H285	H	0.356169	-0.104240	-0.214731
H286	H	0.856169	0.395760	0.285269
H287	H	0.816225	-0.550677	-0.312571
H288	H	1.316225	-0.050677	0.187429
H289	H	-0.044905	-0.191519	-0.191238
H290	H	0.455095	0.308481	0.308762
C291	C	0.685413	-0.443773	-0.181686
C292	C	1.185413	0.056227	0.318314
C293	C	0.648658	-0.473796	-0.144898
C294	C	1.148658	0.026204	0.355102
C295	C	0.611895	-0.443759	-0.108115
C296	C	1.111895	0.056241	0.391885
C297	C	0.611888	-0.383697	-0.108119
C298	C	1.111888	0.116303	0.391881
C299	C	0.648645	-0.353670	-0.144908
C300	C	1.148645	0.146330	0.355092
C301	C	0.685408	-0.383708	-0.181691
C302	C	1.185408	0.116292	0.318309
H303	H	0.648662	-0.518261	-0.144894
H304	H	1.148662	-0.018261	0.355106
H305	H	0.584685	-0.465987	-0.080882
H306	H	1.084685	0.034013	0.419118
H307	H	0.584674	-0.361461	-0.080890
H308	H	1.084674	0.138539	0.419110
H309	H	0.648641	-0.309206	-0.144913
H310	H	1.148641	0.190794	0.355087
H311	H	0.712618	-0.361479	-0.208925
H312	H	1.212618	0.138521	0.291075
H313	H	0.816276	-0.312793	-0.953268
H314	H	1.316276	0.187207	-0.453268
C315	C	0.685337	-0.181746	-0.557926
C316	C	1.185337	0.318254	-0.057926
C317	C	0.689629	-0.122313	-0.550432
C318	C	1.189629	0.377687	-0.050432
C319	C	0.652870	-0.085493	-0.580499
C320	C	1.152870	0.414507	-0.080499
C321	C	0.611819	-0.108106	-0.618059
C322	C	1.111819	0.391894	-0.118059
C323	C	0.607525	-0.167542	-0.625555
C324	C	1.107525	0.332458	-0.125555
C325	C	0.644284	-0.204362	-0.595488
C326	C	1.144284	0.295638	-0.095488
H327	H	0.720019	-0.105570	-0.522626
H328	H	1.220019	0.394430	-0.022626
H329	H	0.656049	-0.041494	-0.574950
H330	H	1.156049	0.458506	-0.074950
H331	H	0.584608	-0.080849	-0.640317
H332	H	1.084608	0.419151	-0.140317
H333	H	0.577135	-0.184284	-0.653361
H334	H	1.077135	0.315716	-0.153361
H335	H	0.641105	-0.248360	-0.601037
H336	H	1.141105	0.251640	-0.101037
C337	C	0.859203	-0.355820	-0.808891
C338	C	1.359203	0.144180	-0.308891
C339	C	0.918638	-0.351609	-0.801327
C340	C	1.418638	0.148391	-0.301327
C341	C	0.955420	-0.388431	-0.831301
C342	C	1.455420	0.111569	-0.331301
C343	C	0.932766	-0.429466	-0.868840
C344	C	1.432766	0.070534	-0.368840
C345	C	0.873328	-0.433679	-0.876406
C346	C	1.373328	0.066321	-0.376406
C347	C	0.836546	-0.396857	-0.846432
C348	C	1.336546	0.103143	-0.346432
H349	H	0.935411	-0.321231	-0.773537
H350	H	1.435411	0.178769	-0.273537
H351	H	0.999420	-0.385312	-0.825700
H352	H	1.499420	0.114688	-0.325700
H353	H	0.959994	-0.456724	-0.891029
H354	H	1.459994	0.043276	-0.391029
H355	H	0.856555	-0.464057	-0.904196
H356	H	1.356555	0.035943	-0.404196
H357	H	0.792545	-0.399976	-0.852033
H358	H	1.292545	0.100024	-0.352033
H359	H	-0.044887	-0.312647	-0.312730
H360	H	0.455113	0.187353	0.187270
H361	H	0.816257	-1.053014	-0.312472
H362	H	1.316257	-0.553014	0.187528
H363	H	0.849619	-0.346249	-0.702055
H364	H	1.349619	0.153751	-0.202055
C365	C	0.685447	-1.060789	-0.181571
C366	C	1.185447	-0.560789	0.318429
C367	C	0.689747	-1.053301	-0.122134
C368	C	1.189747	-0.553301	0.377866
C369	C	0.652992	-1.083330	-0.085347
C370	C	1.152992	-0.583330	0.414653
C371	C	0.611936	-1.120847	-0.107996
C372	C	1.111936	-0.620847	0.392004
C373	C	0.607634	-1.128337	-0.167435
C374	C	1.107634	-0.628337	0.332565
C375	C	0.644389	-1.098308	-0.204223
C376	C	1.144389	-0.598308	0.295777
H377	H	0.720141	-1.025526	-0.105366
H378	H	1.220141	-0.525526	0.394634
H379	H	0.656177	-1.077785	-0.041345
H380	H	1.156177	-0.577785	0.458655
H381	H	0.584728	-1.143076	-0.080763
H382	H	1.084728	-0.643076	0.419237
H383	H	0.577240	-1.156111	-0.184204
H384	H	1.077240	-0.656111	0.315796
H385	H	0.641204	-1.103852	-0.248225
H386	H	1.141204	-0.603852	0.251775
C387	C	0.449673	-0.322119	-0.322264
C388	C	0.949673	0.177881	0.177736
C389	C	0.457160	-0.317742	-0.381693
C390	C	0.957160	0.182258	0.118307
C391	C	0.427146	-0.354465	-0.418535
C392	C	0.927146	0.145535	0.081465
C393	C	0.389647	-0.395565	-0.395948
C394	C	0.889647	0.104435	0.104052
C395	C	0.382158	-0.399943	-0.336515
C396	C	0.882158	0.100057	0.163485
C397	C	0.412172	-0.363220	-0.299673
C398	C	0.912172	0.136780	0.200327
H399	H	0.484921	-0.287316	-0.398417
H400	H	0.984921	0.212684	0.101583
H401	H	0.432690	-0.351223	-0.462532
H402	H	0.932690	0.148777	0.037468
H403	H	0.367429	-0.422749	-0.423220
H404	H	0.867429	0.077251	0.076780
H405	H	0.354397	-0.430369	-0.319791
H406	H	0.854397	0.069631	0.180209
H407	H	0.406628	-0.366462	-0.255676
H408	H	0.906628	0.133538	0.244324
H409	H	0.849630	-0.702790	-0.345999
H410	H	1.349630	-0.202790	0.154001
H411	H	0.816149	-0.312778	-0.549972
H412	H	1.316149	0.187222	-0.049972
C413	C	0.564330	-0.322096	-0.322254
C414	C	1.064330	0.177904	0.177746
C415	C	0.556790	-0.317730	-0.381686
C416	C	1.056790	0.182270	0.118314
C417	C	0.586826	-0.354447	-0.418518
C418	C	1.086826	0.145553	0.081482
C419	C	0.624401	-0.395529	-0.395918
C420	C	1.124401	0.104471	0.104082
C421	C	0.631943	-0.399897	-0.336483
C422	C	1.131943	0.100103	0.163517
C423	C	0.601907	-0.363180	-0.299651
C424	C	1.101907	0.136820	0.200349
H425	H	0.528973	-0.287317	-0.398418
H426	H	1.028973	0.212683	0.101582
H427	H	0.581242	-0.351213	-0.462515
H428	H	1.081242	0.148787	0.037485
H429	H	0.646635	-0.422709	-0.423183
H430	H	1.146635	0.077291	0.076817
H431	H	0.659760	-0.430310	-0.319751
H432	H	1.159760	0.069690	0.180249
H433	H	0.607491	-0.366413	-0.255654
H434	H	1.107491	0.133587	0.244346
H435	H	0.849639	-0.801840	-0.345983
H436	H	1.349639	-0.301840	0.154017
H437	H	0.694959	-0.550630	-0.191222
H438	H	1.194959	-0.050630	0.308778
C439	C	0.685451	-0.181771	-0.945604
C440	C	1.185451	0.318229	-0.445604
C441	C	0.708118	-0.140743	-0.908067
C442	C	1.208118	0.359257	-0.408067
C443	C	0.671347	-0.103921	-0.878078
C444	C	1.171347	0.396079	-0.378078
C445	C	0.611909	-0.108128	-0.885626
C446	C	1.111909	0.391872	-0.385626
C447	C	0.589239	-0.149158	-0.923165
C448	C	1.089239	0.350842	-0.423165
C449	C	0.626010	-0.185979	-0.953154
C450	C	1.126010	0.314021	-0.453154
H451	H	0.752120	-0.137627	-0.902477
H452	H	1.252120	0.362373	-0.402477
H453	H	0.688129	-0.073548	-0.850289
H454	H	1.188129	0.426452	-0.350289
H455	H	0.584689	-0.080870	-0.863426
H456	H	1.084689	0.419130	-0.363426
H457	H	0.545237	-0.152273	-0.928755
H458	H	1.045237	0.347727	-0.428755
H459	H	0.609227	-0.216353	-0.980943
H460	H	1.109227	0.283647	-0.480943
C461	C	0.198511	-0.355534	-0.355764
C462	C	0.698511	0.144466	0.144236
C463	C	0.206004	-0.351156	-0.415193
C464	C	0.706004	0.148844	0.084807
C465	C	0.175994	-0.387878	-0.452039
C466	C	0.675994	0.112122	0.047961
C467	C	0.138491	-0.428978	-0.429455
C468	C	0.638491	0.071022	0.070545
C469	C	0.130996	-0.433357	-0.370024
C470	C	0.630996	0.066643	0.129976
C471	C	0.161006	-0.396635	-0.333178
C472	C	0.661006	0.103365	0.166822
H473	H	0.233768	-0.320731	-0.431913
H474	H	0.733768	0.179269	0.068087
H475	H	0.181543	-0.384636	-0.496034
H476	H	0.681543	0.115364	0.003966
H477	H	0.116276	-0.456161	-0.456731
H478	H	0.616276	0.043839	0.043269
H479	H	0.103233	-0.463782	-0.353303
H480	H	0.603233	0.036218	0.146697
H481	H	0.155458	-0.399877	-0.289182
H482	H	0.655458	0.100123	0.210818
H483	H	0.556500	-0.191439	-0.191191
H484	H	1.056500	0.308561	0.308809
H485	H	0.305356	-0.345981	-0.346188
H486	H	0.805356	0.154019	0.153812
H487	H	0.816245	-0.953965	-0.312498
H488	H	1.316245	-0.453965	0.187502
C489	C	0.652003	-0.694943	-0.148198
C490	C	1.152003	-0.194943	0.351802
C491	C	0.674673	-0.657423	-0.107153
C492	C	1.174673	-0.157423	0.392847
C493	C	0.637904	-0.627394	-0.070369
C494	C	1.137904	-0.127394	0.429631
C495	C	0.578466	-0.634884	-0.074630
C496	C	1.078466	-0.134884	0.425370
C497	C	0.555794	-0.672405	-0.115677
C498	C	1.055794	-0.172405	0.384323
C499	C	0.592562	-0.702435	-0.152461
C500	C	1.092562	-0.202435	0.347539
H501	H	0.718675	-0.651877	-0.103997
H502	H	1.218675	-0.151877	0.396003
H503	H	0.654689	-0.599618	-0.039983
H504	H	1.154689	-0.099618	0.460017
H505	H	0.551248	-0.612655	-0.047400
H506	H	1.051248	-0.112655	0.452600
H507	H	0.511791	-0.677952	-0.118832
H508	H	1.011791	-0.177952	0.381168
H509	H	0.575778	-0.730211	-0.182847
H510	H	1.075778	-0.230211	0.317153
H511	H	0.661525	-0.157831	-0.702285
H512	H	1.161525	0.342169	-0.202285
H513	H	0.816214	-0.451610	-0.312588
H514	H	1.316214	0.048390	0.187412
H515	H	0.054178	-0.312636	-0.312727
H516	H	0.554178	0.187364	0.187273
H517	H	0.661559	-0.801792	-0.157736
H518	H	1.161559	-0.301792	0.342264
H519	H	0.694988	-0.953926	-0.191142
H520	H	1.194988	-0.453926	0.308858
C521	C	0.825847	-0.322366	-1.060111
C522	C	1.325847	0.177634	-0.560111
C523	C	0.885285	-0.318160	-1.052557
C524	C	1.385285	0.181840	-0.552557
C525	C	0.922057	-0.354985	-1.082540
C526	C	1.422057	0.145015	-0.582540
C527	C	0.899393	-0.396016	-1.120076
C528	C	1.399393	0.103984	-0.620076
C529	C	0.839952	-0.400224	-1.127631
C530	C	1.339952	0.099776	-0.627631
C531	C	0.803180	-0.363399	-1.097648
C532	C	1.303180	0.136601	-0.597648
H533	H	0.902065	-0.287785	-1.024769
H534	H	1.402065	0.212215	-0.524769
H535	H	0.966059	-0.351870	-1.076947
H536	H	1.466059	0.148130	-0.576947
H537	H	0.926614	-0.423276	-1.142271
H538	H	1.426614	0.076724	-0.642271
H539	H	0.823172	-0.430599	-1.155419
H540	H	1.323172	0.069401	-0.655419
H541	H	0.759178	-0.366514	-1.103242
H542	H	1.259178	0.133486	-0.603242
C543	C	0.685300	-0.181744	-0.443271
C544	C	1.185300	0.318256	0.056729
C545	C	0.648552	-0.144929	-0.473352
C546	C	1.148552	0.355071	0.026648
C547	C	0.611779	-0.108103	-0.443371
C548	C	1.111779	0.391897	0.056629
C549	C	0.611754	-0.108091	-0.383310
C550	C	1.111754	0.391909	0.116690
C551	C	0.648504	-0.144907	-0.353225
C552	C	1.148504	0.355093	0.146775
C553	C	0.685277	-0.181734	-0.383206
C554	C	1.185277	0.318266	0.116794
H555	H	0.648570	-0.144936	-0.517816
H556	H	1.148570	0.355064	-0.017816
H557	H	0.584575	-0.080849	-0.465642
H558	H	1.084575	0.419151	0.034358
H559	H	0.584533	-0.080830	-0.361116
H560	H	1.084533	0.419170	0.138884
H561	H	0.648486	-0.144900	-0.308761
H562	H	1.148486	0.355100	0.191239
H563	H	0.712481	-0.208987	-0.360935
H564	H	1.212481	0.291013	0.139065
H565	H	0.206272	-0.158120	-0.157717
H566	H	0.706272	0.341880	0.342283
H567	H	0.661560	-0.157835	-0.801336
H568	H	1.161560	0.342165	-0.301336
H569	H	0.695034	-0.191341	-1.052467
H570	H	1.195034	0.308659	-0.552467
