data_functionalizedCrystal
_audit_creation_method	'MofGen! by Chris Wilmer'
_symmetry_space_group_name_H-M	'P1'
_symmetry_Int_Tables_number	1
_symmetry_cell_setting	triclinic
loop_
_symmetry_equiv_pos_as_xyz
  x,y,z
_cell_length_a	10.654544
_cell_length_b	10.654562
_cell_length_c	9.130313
_cell_angle_alpha	89.995234
_cell_angle_beta	89.995994
_cell_angle_gamma	84.487536
loop_
_atom_site_label
_atom_site_type_symbol
_atom_site_fract_x
_atom_site_fract_y
_atom_site_fract_z
O1	O	-0.176474	-1.667827	0.121895
O2	O	-0.193264	-1.302351	0.121877
O3	O	-0.002130	-1.493492	0.121877
O4	O	-0.367608	-1.476686	0.121894
O5	O	-0.002125	-1.493485	-0.121721
O6	O	-0.193259	-1.302343	-0.121722
O7	O	-0.176469	-1.667820	-0.121704
Cu8	Cu	-0.184863	-1.485081	-0.143955
Cu9	Cu	-0.184869	-1.485090	0.144128
O10	O	-0.367603	-1.476679	-0.121704
C11	C	-0.192025	-1.255550	0.000075
C12	C	-0.188327	-1.116107	0.000068
C13	C	0.044671	-1.492254	0.000079
C14	C	0.184114	-1.488562	0.000081
C15	C	-0.177708	-1.714621	0.000101
C16	C	-0.181406	-1.854064	0.000118
C17	C	0.474089	-1.710189	0.000080
C18	C	0.422547	-1.826206	0.000083
C19	C	0.291528	-1.829679	0.000088
C20	C	0.212048	-1.717123	0.000084
C21	C	0.263590	-1.601106	0.000080
C22	C	0.394613	-1.597645	0.000080
C23	C	0.235656	-1.372545	0.000077
C24	C	0.366675	-1.369069	0.000083
C25	C	0.156176	-1.259989	0.000074
C26	C	0.207718	-1.143969	0.000080
C27	C	0.338745	-1.140501	0.000077
C28	C	0.418217	-1.253052	0.000080
C29	C	0.585597	-1.477921	0.000093
C30	C	0.446155	-1.481626	0.000087
N31	N	-0.184858	-1.485084	-0.346578
C32	C	-0.186599	-1.050572	-0.132706
C33	C	-0.183134	-0.919550	-0.132682
C34	C	-0.183130	-0.919608	0.132903
C35	C	-0.186586	-1.050629	0.132877
C36	C	-0.188340	-1.116050	-0.265515
C37	C	-0.186613	-1.050515	-0.398301
C38	C	-0.183148	-0.919493	-0.398276
C39	C	-0.181410	-0.854006	-0.265467
C40	C	-0.107971	-1.408265	-0.423261
C41	C	-0.107977	-1.408268	-0.576598
C42	C	-0.261760	-1.561918	-0.576555
C43	C	-0.261760	-1.561908	-0.423221
C44	C	-0.031070	-1.331441	-0.346618
C45	C	0.045825	-1.254617	-0.423302
C46	C	0.045819	-1.254620	-0.576639
C47	C	-0.031082	-1.331446	-0.653292
N48	N	-0.184865	-1.485097	0.346751
H49	H	0.580773	-1.707373	0.000095
H50	H	0.487274	-1.917847	0.000082
H51	H	0.142996	-1.052336	0.000067
H52	H	0.249564	-1.924150	0.000083
F53	F	-0.188451	-1.120214	-0.539637
H54	H	-0.031087	-1.331436	-0.778149
H55	H	0.524901	-1.250239	0.000086
H56	H	0.105367	-1.719962	0.000070
F57	F	0.393589	-1.017017	0.000062
H58	H	-0.191165	-1.222734	-0.265550
F59	F	-0.343596	-1.643678	-0.658140
H60	H	-0.324373	-1.624456	-0.360784
H61	H	0.049495	-1.262825	0.000068
H62	H	-0.031054	-1.331433	-0.221764
F63	F	-0.188422	-1.120381	0.274190
F64	F	-0.181302	-0.849750	-0.539595
H65	H	0.108426	-1.192060	-0.360881
H66	H	-0.178586	-0.747319	-0.265458
F67	F	0.127643	-1.172848	-0.658247
H68	H	-0.181718	-0.866278	0.241030
