data_functionalizedCrystal
_audit_creation_method	'MofGen! by Chris Wilmer'
_symmetry_space_group_name_H-M	'P1'
_symmetry_Int_Tables_number	1
_symmetry_cell_setting	triclinic
loop_
_symmetry_equiv_pos_as_xyz
  x,y,z
_cell_length_a	21.295418
_cell_length_b	21.295417
_cell_length_c	21.295412
_cell_angle_alpha	90.030668
_cell_angle_beta	89.957310
_cell_angle_gamma	89.953681
loop_
_atom_site_label
_atom_site_type_symbol
_atom_site_fract_x
_atom_site_fract_y
_atom_site_fract_z
Zn1	Zn	0.962349	0.250359	-0.356234
Zn2	Zn	0.962254	0.355628	-0.250959
Zn3	Zn	0.857074	0.250405	-0.250943
Zn4	Zn	0.857042	0.355623	-0.356155
O5	O	0.909680	0.303004	-0.303573
O6	O	1.050426	0.264306	-0.342308
O7	O	0.948275	0.341691	-0.162868
O8	O	0.871093	0.162310	-0.264937
O9	O	1.050356	0.341646	-0.264963
O10	O	0.948438	0.162276	-0.342293
O11	O	0.871000	0.264384	-0.162856
O12	O	0.768981	0.264380	-0.264861
O13	O	0.871038	0.341639	-0.444255
O14	O	0.768957	0.341684	-0.342160
O15	O	0.948406	0.264302	-0.444313
O16	O	0.948243	0.443716	-0.264887
O17	O	0.870945	0.443713	-0.342175
C18	C	0.746128	0.303037	-0.303500
C19	C	0.676160	0.303066	-0.303484
C20	C	0.909597	0.466556	-0.303538
C21	C	0.909620	0.536524	-0.303544
C22	C	0.909729	0.302965	-0.467763
C23	C	0.909750	0.302948	-0.537731
C24	C	0.643297	0.343371	-0.343674
C25	C	0.577555	0.343356	-0.343702
C26	C	0.544678	0.303042	-0.303530
C27	C	0.577548	0.262729	-0.263337
C28	C	0.643289	0.262741	-0.263315
N29	N	0.441403	0.298123	-0.248472
N30	N	0.378951	0.298116	-0.248495
C31	C	0.346603	0.303002	-0.303596
N32	N	0.379065	0.307908	-0.358675
N33	N	0.441522	0.307920	-0.358650
C34	C	0.473392	0.303024	-0.303550
C35	C	0.242455	0.343292	-0.343820
C36	C	0.176711	0.343272	-0.343849
C37	C	0.176706	0.262649	-0.263479
C38	C	0.242448	0.262665	-0.263455
C39	C	0.275319	0.302990	-0.303625
C40	C	1.073870	0.302971	-0.303646
C41	C	1.143838	0.302957	-0.303677
C42	C	0.909780	0.138814	-0.303622
C43	C	0.909822	0.068845	-0.303642
C44	C	0.949905	0.569371	-0.263342
C45	C	0.949934	0.635113	-0.263356
C46	C	0.909667	0.668006	-0.303566
C47	C	0.869379	0.635151	-0.343776
C48	C	0.869355	0.569410	-0.343765
N49	N	0.854600	0.771287	-0.308340
N50	N	0.854625	0.833739	-0.308347
C51	C	0.909738	0.866081	-0.303602
N52	N	0.964827	0.833612	-0.298838
N53	N	0.964802	0.771155	-0.298828
C54	C	0.909689	0.739291	-0.303582
C55	C	0.950058	0.970214	-0.263413
C56	C	0.950089	1.035957	-0.263431
C57	C	0.869528	1.035993	-0.343848
C58	C	0.869504	0.970251	-0.343833
C59	C	0.909768	0.937365	-0.303612
C60	C	0.869524	0.262690	-0.570582
C61	C	0.869522	0.262678	-0.636325
C62	C	0.909757	0.302918	-0.669214
C63	C	0.949986	0.343184	-0.636355
C64	C	0.949983	0.343199	-0.570614
N65	N	0.964861	0.307710	-0.772471
N66	N	0.964863	0.307692	-0.834922
C67	C	0.909768	0.302876	-0.867289
N68	N	0.854671	0.298066	-0.834845
N69	N	0.854671	0.298081	-0.772387
C70	C	0.909765	0.302906	-0.740499
C71	C	0.869536	0.262603	-0.971425
C72	C	0.869533	0.262596	-1.037169
C73	C	0.950003	0.343098	-1.037198
C74	C	0.950001	0.343109	-0.971456
C75	C	0.909768	0.302858	-0.938573
C76	C	0.909667	0.302997	-0.140021
C77	C	0.909768	0.302837	-0.070054
H78	H	0.670057	0.376207	-0.376384
H79	H	0.550793	0.376177	-0.376431
H80	H	0.550775	0.229904	-0.230630
O81	O	0.830277	0.537401	-0.382797
C82	C	0.794508	0.436139	-0.418386
C83	C	0.838808	0.472311	-0.374163
H84	H	0.801381	0.383507	-0.411412
H85	H	0.805543	0.448966	-0.469176
H86	H	0.743767	0.449172	-0.407278
H87	H	0.889564	0.459298	-0.385214
H88	H	0.827719	0.459481	-0.323387
O89	O	0.830360	0.223598	-0.668177
C90	C	0.723307	0.193068	-0.688268
C91	C	0.767584	0.237355	-0.652148
H92	H	0.672543	0.204184	-0.675333
H93	H	0.734346	0.142301	-0.675354
H94	H	0.730257	0.199961	-0.740900
H95	H	0.760659	0.230518	-0.599508
H96	H	0.756534	0.288106	-0.665115
H97	H	0.982898	1.062700	-0.230695
H98	H	0.670046	0.229918	-0.230588
H99	H	0.982846	0.943437	-0.230664
O100	O	0.274293	0.382476	-0.382904
C101	C	0.267361	0.462461	-0.462600
C102	C	0.231229	0.418110	-0.418379
H103	H	0.232560	0.491293	-0.491283
H104	H	0.298188	0.433638	-0.495597
H105	H	0.298091	0.495320	-0.433619
H106	H	0.200465	0.385242	-0.447309
H107	H	0.200442	0.446972	-0.385380
H108	H	0.836776	0.229829	-0.944651
O109	O	0.144759	0.382337	-0.382959
C110	C	0.070596	0.390913	-0.467936
C111	C	0.106753	0.346600	-0.423693
H112	H	0.039849	0.362038	-0.500872
H113	H	0.105358	0.419724	-0.496685
H114	H	0.039779	0.423793	-0.438970
H115	H	0.137571	0.313681	-0.452611
H116	H	0.071957	0.317833	-0.394943
O117	O	0.989143	0.382230	-0.939638
C118	C	1.068932	0.462098	-0.946607
C119	C	1.024646	0.417812	-0.982718
H120	H	1.097639	0.490887	-0.981421
H121	H	1.101905	0.433226	-0.915879
H122	H	1.040001	0.494999	-0.915780
H123	H	1.053526	0.384902	-1.013579
H124	H	0.991671	0.446723	-1.013406
H125	H	0.836771	0.229815	-1.063915
H126	H	0.982742	0.375981	-0.543867
O127	O	0.830435	1.068035	-0.382852
C128	C	0.794803	1.169329	-0.418543
C129	C	0.839095	1.133117	-0.374325
H130	H	0.801798	1.221954	-0.411674
H131	H	0.744030	1.156520	-0.407424
H132	H	0.805822	1.156313	-0.469305
H133	H	0.828132	1.146113	-0.323548
H134	H	0.889854	1.145929	-0.385497
O135	O	0.144757	0.223585	-0.224373
C136	C	0.070446	0.215014	-0.139426
C137	C	0.106598	0.259324	-0.183673
H138	H	0.039576	0.243890	-0.106517
H139	H	0.105212	0.186232	-0.110649
H140	H	0.039753	0.182107	-0.168391
H141	H	0.137291	0.292269	-0.154756
H142	H	0.071798	0.288061	-0.212452
O143	O	0.274277	0.223497	-0.224351
C144	C	0.267332	0.143501	-0.144667
C145	C	0.231208	0.187842	-0.188910
H146	H	0.232526	0.114653	-0.116010
H147	H	0.298028	0.172334	-0.111645
H148	H	0.298192	0.110657	-0.173629
H149	H	0.200314	0.220695	-0.159999
H150	H	0.200551	0.158970	-0.221933
H151	H	0.982692	0.542597	-0.230593
H152	H	0.836697	0.943505	-0.376567
O153	O	0.989161	0.382095	-1.069164
C154	C	1.074132	0.390524	-1.143463
C155	C	1.029832	0.346287	-1.107289
H156	H	1.107017	0.361592	-1.174307
H157	H	1.102931	0.419284	-1.108712
H158	H	1.045206	0.423455	-1.174185
H159	H	1.058709	0.313318	-1.076567
H160	H	1.001031	0.317572	-1.142075
O161	O	0.989147	0.666968	-0.224329
C162	C	1.096237	0.687040	-0.193912
C163	C	1.051905	0.650913	-0.238140
H164	H	1.146986	0.674083	-0.205070
H165	H	1.085247	0.674153	-0.143128
H166	H	1.089294	0.739671	-0.200824
H167	H	1.058824	0.598274	-0.231284
H168	H	1.062906	0.663852	-0.288907
O169	O	0.830351	0.667169	-0.382866
C170	C	0.821869	0.741317	-0.467880
C171	C	0.866137	0.705108	-0.423636
H172	H	0.850785	0.771988	-0.500862
H173	H	0.788988	0.772195	-0.438977
H174	H	0.793056	0.706532	-0.496584
H175	H	0.894991	0.739846	-0.394922
H176	H	0.898976	0.674220	-0.452575
O177	O	0.989140	0.382181	-0.668328
C178	C	1.074105	0.390615	-0.742634
C179	C	1.029814	0.346375	-0.706454
H180	H	1.106992	0.361684	-0.773477
H181	H	1.102903	0.419380	-0.707886
H182	H	1.045174	0.423540	-0.773356
H183	H	1.058696	0.313411	-0.675730
H184	H	1.001013	0.317653	-0.741235
H185	H	0.836761	0.229917	-0.543813
