data_functionalizedCrystal
_audit_creation_method	'MofGen! by Chris Wilmer'
_symmetry_space_group_name_H-M	'P1'
_symmetry_Int_Tables_number	1
_symmetry_cell_setting	triclinic
loop_
_symmetry_equiv_pos_as_xyz
  x,y,z
_cell_length_a	16.956995
_cell_length_b	15.625429
_cell_length_c	15.455313
_cell_angle_alpha	74.616881
_cell_angle_beta	87.515363
_cell_angle_gamma	80.348218
loop_
_atom_site_label
_atom_site_type_symbol
_atom_site_fract_x
_atom_site_fract_y
_atom_site_fract_z
O1	O	1.062067	0.032557	-0.082429
O2	O	0.830417	0.063635	-0.092192
O3	O	0.950475	-0.081232	-0.046633
O4	O	0.942009	0.177425	-0.127988
O5	O	0.943609	-0.072980	0.095034
O6	O	0.823551	0.071887	0.049475
O7	O	1.055201	0.040809	0.059238
Cu8	Cu	0.938749	0.057102	0.067292
Cu9	Cu	0.946869	0.047343	-0.100246
O10	O	0.935143	0.185677	0.013679
C11	C	0.797302	0.069353	-0.021857
C12	C	0.708858	0.074083	-0.023340
C13	C	0.210138	0.109472	-0.034503
C14	C	0.293240	0.105020	-0.033103
C15	C	0.342963	0.021457	-0.006813
C16	C	0.309580	-0.057660	0.018069
C17	C	0.226479	-0.053208	0.016661
C18	C	0.592374	-0.000581	0.000134
C19	C	0.675480	-0.005028	0.001542
C20	C	0.659135	0.157653	-0.049631
C21	C	0.576033	0.162098	-0.051031
C22	C	0.542658	0.082981	-0.026154
N23	N	0.427907	0.016904	-0.005378
N24	N	0.457715	0.087534	-0.027596
C25	C	0.945979	-0.110048	0.034560
C26	C	0.942802	-0.208204	0.065427
C27	C	0.951044	-0.553516	-0.219135
C28	C	0.948054	-0.645746	-0.190104
C29	C	0.940570	-0.636736	-0.035669
C30	C	0.943563	-0.544504	-0.064687
C31	C	0.948799	-0.502901	-0.156421
C32	C	0.941318	-0.493890	-0.001972
C33	C	0.944306	-0.401665	-0.030989
C34	C	0.949540	-0.360055	-0.122719
C35	C	0.951788	-0.410677	-0.185437
C36	C	0.936076	-0.535494	0.089761
C37	C	0.933831	-0.484879	0.152475
C38	C	0.936825	-0.392654	0.123460
C39	C	0.942059	-0.351044	0.031729
C40	C	0.934577	-0.342032	0.186178
C41	C	0.937566	-0.249807	0.157162
C42	C	0.945047	-0.258819	0.002713
C43	C	1.088316	0.035092	-0.011099
C44	C	1.176760	0.030361	-0.009621
C45	C	0.939639	0.214493	-0.067516
C46	C	0.942816	0.312649	-0.098389
N47	N	0.933044	0.063965	0.185129
N48	N	0.952580	0.040472	-0.218081
C49	C	0.984067	0.002440	0.249872
C50	C	0.979760	0.007638	0.339045
C51	C	0.924433	0.074365	0.363472
C52	C	0.873404	0.135893	0.298722
C53	C	0.877708	0.130691	0.209552
C54	C	0.905855	0.096798	0.627999
C55	C	0.901557	0.101997	0.717177
C56	C	1.007912	-0.026260	0.757493
C57	C	1.012215	-0.031453	0.668319
C58	C	0.961183	0.030072	0.603578
N59	N	0.920031	0.079682	0.454621
N60	N	0.965582	0.024751	0.512432
H61	H	0.565210	-0.065004	0.020393
H62	H	0.686319	0.222066	-0.069886
O63	O	0.723670	-0.086282	0.027056
C64	C	0.731116	-0.247169	0.077693
C65	C	0.676451	-0.155216	0.048801
H66	H	0.692961	-0.302925	0.095300
H67	H	0.773295	-0.256825	0.020346
H68	H	0.767568	-0.249822	0.138890
H69	H	0.639948	-0.152498	-0.012376
H70	H	0.634324	-0.145598	0.106201
H71	H	0.864305	0.146895	0.575293
H72	H	0.320413	0.169440	-0.053372
H73	H	0.169658	0.177519	-0.055905
H74	H	0.929564	-0.518764	0.227166
H75	H	1.021306	-0.042461	0.391760
O76	O	0.929452	-0.382301	0.275315
C77	C	0.922391	-0.363643	0.425449
C78	C	0.928179	-0.317924	0.324527
H79	H	0.921377	-0.311619	0.465267
H80	H	0.865216	-0.394374	0.439112
H81	H	0.976360	-0.418808	0.446684
H82	H	0.874252	-0.262722	0.303222
H83	H	0.985387	-0.287254	0.310920
O84	O	0.819729	0.200682	0.322592
C85	C	0.765934	0.265510	0.442101
C86	C	0.826769	0.192102	0.415191
H87	H	0.771593	0.258587	0.516972
H88	H	0.778310	0.334660	0.402548
H89	H	0.702813	0.257589	0.426709
H90	H	0.889912	0.199938	0.430583
H91	H	0.814323	0.122981	0.454739
O92	O	0.950329	-0.695012	-0.250955
C93	C	1.020093	-0.819384	-0.303189
C94	C	1.017612	-0.763694	-0.234201
H95	H	1.074494	-0.874914	-0.289680
H96	H	0.963342	-0.850663	-0.297292
H97	H	1.024303	-0.773754	-0.373719
H98	H	1.013429	-0.809263	-0.163641
H99	H	1.074361	-0.732405	-0.240177
H100	H	0.936303	-0.670622	0.039022
O101	O	1.065979	-0.096356	0.644753
C102	C	1.171046	-0.222988	0.694146
C103	C	1.110179	-0.149547	0.720960
H104	H	1.206809	-0.266001	0.755739
H105	H	1.137994	-0.267213	0.665581
H106	H	1.213434	-0.190073	0.641239
H107	H	1.067775	-0.182386	0.773890
H108	H	1.143283	-0.105330	0.749472
H109	H	0.933634	-0.610587	0.113383
H110	H	0.951965	-0.284957	-0.146343
O111	O	0.956061	-0.512961	-0.308224
C112	C	0.895042	-0.398976	-0.435385
C113	C	0.889251	-0.444818	-0.334492
H114	H	0.841025	-0.343885	-0.456658
H115	H	0.952173	-0.368156	-0.448977
H116	H	0.896191	-0.451001	-0.475229
H117	H	0.888069	-0.392848	-0.294582
H118	H	0.832127	-0.475656	-0.320970
H119	H	1.049459	-0.076351	0.810213
O120	O	0.357991	-0.138759	0.043621
C121	C	0.493255	-0.217720	0.068424
C122	C	0.438524	-0.125815	0.039483
H123	H	0.558378	-0.207287	0.065070
H124	H	0.478122	-0.253512	0.140069
H125	H	0.483779	-0.260409	0.021491
H126	H	0.447971	-0.083054	0.086352
H127	H	0.453670	-0.090093	-0.032180
O128	O	0.847730	0.166843	0.740764
C129	C	0.742708	0.293522	0.691366
C130	C	0.803614	0.220125	0.664533
H131	H	0.707035	0.336632	0.629745
H132	H	0.700241	0.260660	0.744207
H133	H	0.775805	0.337651	0.720009
H134	H	0.770584	0.175972	0.635850
H135	H	0.846078	0.253045	0.611728
H136	H	0.935721	-0.208592	0.208229
O137	O	1.037835	-0.062460	0.226307
C138	C	1.142899	-0.189093	0.275708
C139	C	1.082032	-0.115649	0.302517
H140	H	1.178659	-0.232105	0.337305
H141	H	1.109848	-0.233319	0.247144
H142	H	1.185289	-0.156182	0.222803
H143	H	1.039625	-0.148485	0.355445
H144	H	1.115135	-0.071431	0.331028
O145	O	0.956804	-0.370122	-0.274526
C146	C	0.895785	-0.256136	-0.401687
C147	C	0.889994	-0.301979	-0.300794
H148	H	0.841768	-0.201046	-0.422960
H149	H	0.952917	-0.225317	-0.415279
H150	H	0.896935	-0.308161	-0.441531
H151	H	0.888812	-0.250009	-0.260884
H152	H	0.832871	-0.332817	-0.287272
O153	O	0.828225	0.190577	0.146659
C154	C	0.785345	0.346303	0.069926
C155	C	0.841445	0.278580	0.141159
H156	H	0.796002	0.417470	0.065469
H157	H	0.797923	0.331199	0.001964
H158	H	0.720529	0.340374	0.089657
H159	H	0.906280	0.284471	0.121513
H160	H	0.828798	0.293705	0.209102
O161	O	0.527852	0.243344	-0.076631
C162	C	0.520410	0.404234	-0.127182
C163	C	0.575069	0.312282	-0.098236
H164	H	0.558561	0.459996	-0.144639
H165	H	0.483990	0.406991	-0.188438
H166	H	0.478201	0.413789	-0.069829
H167	H	0.617324	0.302667	-0.155528
H168	H	0.611432	0.309569	-0.036953
H169	H	0.949318	-0.224945	-0.071985
O170	O	0.194182	-0.130141	0.040898
C171	C	0.219162	-0.291971	0.091746
C172	C	0.255840	-0.204911	0.064346
H173	H	0.268995	-0.352445	0.110693
H174	H	0.177809	-0.290561	0.151685
H175	H	0.183520	-0.297356	0.033075
H176	H	0.291521	-0.199470	0.122959
H177	H	0.297148	-0.206358	0.004379
