data_functionalizedCrystal
_audit_creation_method	'MofGen! by Chris Wilmer'
_symmetry_space_group_name_H-M	'P1'
_symmetry_Int_Tables_number	1
_symmetry_cell_setting	triclinic
loop_
_symmetry_equiv_pos_as_xyz
  x,y,z
_cell_length_a	8.597340
_cell_length_b	10.489741
_cell_length_c	7.681481
_cell_angle_alpha	84.227546
_cell_angle_beta	88.189042
_cell_angle_gamma	84.937299
loop_
_atom_site_label
_atom_site_type_symbol
_atom_site_fract_x
_atom_site_fract_y
_atom_site_fract_z
O1	O	2.067721	0.203945	-0.167281
O2	O	1.617829	0.213025	-0.099021
O3	O	1.853011	0.023066	-0.134714
O4	O	1.832539	0.393904	-0.131587
O5	O	1.823968	0.046420	-0.423164
O6	O	1.588786	0.236379	-0.387471
O7	O	2.038678	0.227299	-0.455731
Zn8	Zn	1.809121	0.235547	-0.467398
Zn9	Zn	1.847386	0.204777	-0.087353
O10	O	1.803496	0.417258	-0.420037
C11	C	1.545698	0.222425	-0.234505
C12	C	1.374042	0.215627	-0.208461
C13	C	1.836943	-0.012816	-0.278704
C14	C	1.832317	-0.154526	-0.277999
C15	C	1.682678	-0.225266	-0.255282
C16	C	1.739047	-0.304646	-0.408228
C17	C	1.767717	-0.327645	-0.123844
C18	C	1.888736	-0.232030	-0.431071
C19	C	1.917397	-0.255030	-0.146557
C20	C	1.973872	-0.334378	-0.299554
C21	C	2.110809	0.217898	-0.320242
C22	C	2.282466	0.224696	-0.346275
C23	C	1.819564	0.453140	-0.276044
C24	C	1.824191	0.594849	-0.276738
N25	N	1.873502	0.183768	0.172017
N26	N	1.783017	0.256546	-0.726771
H27	H	1.335387	0.237653	-0.484195
H28	H	1.321116	0.202660	-0.070532
N29	N	1.528313	-0.165655	-0.232047
N30	N	1.425723	-0.176037	-0.340275
H31	H	1.316703	-0.133937	-0.323874
H32	H	1.965854	0.109462	0.233207
N33	N	1.644420	-0.332711	-0.547004
N34	N	1.503380	-0.291949	-0.551334
H35	H	1.436539	-0.311767	-0.649337
H36	H	2.097008	-0.381657	-0.318317
N37	N	1.952897	-0.179739	-0.594108
N38	N	1.966755	-0.061723	-0.620993
H39	H	2.012064	-0.024788	-0.736137
N40	N	1.667136	0.349734	0.196494
N41	N	1.560715	0.314802	0.109726
H42	H	1.478868	0.380616	0.055521
N43	N	2.011942	-0.226930	-0.007742
N44	N	1.975811	-0.261825	0.147561
H45	H	2.042574	-0.241979	0.245616
N46	N	1.703424	-0.380102	0.039032
N47	N	1.567480	-0.343425	0.085343
H48	H	1.522060	-0.380469	0.200368
