data_functionalizedCrystal
_audit_creation_method	'MofGen! by Chris Wilmer'
_symmetry_space_group_name_H-M	'P1'
_symmetry_Int_Tables_number	1
_symmetry_cell_setting	triclinic
loop_
_symmetry_equiv_pos_as_xyz
  x,y,z
_cell_length_a	27.780692
_cell_length_b	27.781107
_cell_length_c	27.780936
_cell_angle_alpha	90.003441
_cell_angle_beta	120.002640
_cell_angle_gamma	60.000171
loop_
_atom_site_label
_atom_site_type_symbol
_atom_site_fract_x
_atom_site_fract_y
_atom_site_fract_z
O1	O	-0.424554	-0.330250	-0.014310
O2	O	-0.325993	-0.260243	0.014259
O3	O	-0.424556	-0.260250	-0.084308
O4	O	-0.325991	-0.330244	0.084257
O5	O	-0.344492	-0.340306	-0.084308
O6	O	-0.245930	-0.340300	0.014260
O7	O	-0.344491	-0.410307	-0.014310
Cu8	Cu	-0.287900	-0.382613	-0.000025
Cu9	Cu	-0.382584	-0.287937	-0.000026
O10	O	-0.245928	-0.410301	0.084258
C11	C	-0.177687	-0.207636	0.029879
C12	C	-0.211480	-0.237338	0.025794
C13	C	-0.206381	-0.149705	0.030285
C14	C	-0.090521	-0.207640	0.029875
C15	C	-0.031114	-0.237345	0.025786
C16	C	-0.119347	-0.149709	0.030281
C17	C	-0.177684	-0.120472	0.029875
C18	C	-0.211474	-0.056977	0.025786
C19	C	-0.119350	-0.236741	0.030285
C20	C	-0.238774	-0.005680	0.022482
C21	C	-0.238782	-0.261333	0.022492
C22	C	0.016879	-0.261344	0.022480
C23	C	-0.273021	0.058675	0.018337
C24	C	-0.273033	-0.291437	0.018351
C25	C	0.077090	-0.291452	0.018335
C26	C	-0.492797	-0.207642	-0.372384
C27	C	-0.459004	-0.237344	-0.402088
C28	C	-0.551137	-0.149713	-0.401487
C29	C	-0.492797	-0.207642	-0.285218
C30	C	-0.459004	-0.237344	-0.221723
C31	C	-0.551137	-0.149714	-0.314453
C32	C	-0.579966	-0.120480	-0.372384
C33	C	-0.639375	-0.056987	-0.402087
C34	C	-0.464100	-0.236743	-0.314454
C35	C	-0.687371	-0.005691	-0.426083
C36	C	-0.431703	-0.261339	-0.426085
C37	C	-0.431703	-0.261340	-0.170425
C38	C	-0.747585	0.058661	-0.456188
C39	C	-0.397452	-0.291444	-0.456191
C40	C	-0.397452	-0.291444	-0.106070
C41	C	-0.579956	-0.462930	-0.029949
C42	C	-0.639364	-0.433229	-0.025863
C43	C	-0.551126	-0.520860	-0.030357
C44	C	-0.492789	-0.462926	-0.029946
C45	C	-0.458998	-0.433221	-0.025856
C46	C	-0.464091	-0.520856	-0.030354
C47	C	-0.492786	-0.550093	-0.029949
C48	C	-0.458992	-0.613587	-0.025862
C49	C	-0.551129	-0.433826	-0.030355
C50	C	-0.431690	-0.664884	-0.022559
C51	C	-0.687360	-0.409234	-0.022561
C52	C	-0.431698	-0.409222	-0.022550
C53	C	-0.397438	-0.729239	-0.018416
C54	C	-0.747573	-0.379130	-0.018418
C55	C	-0.397450	-0.379114	-0.018404
O56	O	0.234756	-0.410325	-0.014324
O57	O	0.094757	-0.340317	0.014243
O58	O	0.094752	-0.340326	-0.084323
O59	O	0.234761	-0.410316	0.084242
O60	O	0.094755	-0.260268	-0.084327
O61	O	0.094761	-0.260259	0.014240
O62	O	0.234759	-0.330267	-0.014328
Cu63	Cu	0.164760	-0.287953	-0.000044
Cu64	Cu	0.164756	-0.382631	-0.000040
O65	O	0.234764	-0.330258	0.084239
O66	O	-0.344480	0.248998	-0.014325
O67	O	-0.245918	0.080436	0.014241
O68	O	-0.344485	0.178993	-0.084325
O69	O	-0.245913	0.150441	0.084241
O70	O	-0.424545	0.178995	-0.084321
O71	O	-0.325978	0.080439	0.014245
O72	O	-0.424540	0.249001	-0.014321
Cu73	Cu	-0.382569	0.164720	-0.000038
Cu74	Cu	-0.287889	0.164717	-0.000042
O75	O	-0.325973	0.150444	0.084245
O76	O	-0.905261	0.248980	-0.494988
O77	O	-0.765254	0.080422	-0.424992
O78	O	-0.765258	0.178987	-0.424987
O79	O	-0.905258	0.150415	-0.494993
O80	O	-0.765260	0.178989	-0.505047
O81	O	-0.765256	0.080424	-0.505053
O82	O	-0.905263	0.248983	-0.575048
Cu83	Cu	-0.835260	0.164703	-0.547361
Cu84	Cu	-0.835258	0.164701	-0.452680
O85	O	-0.905260	0.150417	-0.575054
O86	O	-0.325986	-0.330249	-0.575053
O87	O	-0.424555	-0.260250	-0.505056
O88	O	-0.325990	-0.260246	-0.505051
O89	O	-0.424551	-0.330253	-0.575058
O90	O	-0.245929	-0.340301	-0.424991
O91	O	-0.344494	-0.340305	-0.424996
O92	O	-0.245924	-0.410304	-0.494993
Cu93	Cu	-0.287899	-0.382614	-0.452684
Cu94	Cu	-0.382581	-0.287940	-0.547365
O95	O	-0.344490	-0.410308	-0.494998
C96	C	-0.090516	-0.550073	0.372332
C97	C	-0.031106	-0.613565	0.402035
C98	C	-0.119344	-0.520839	0.401436
C99	C	-0.177685	-0.462910	0.285167
C100	C	-0.211478	-0.433208	0.221673
C101	C	-0.206382	-0.433809	0.314403
C102	C	-0.177684	-0.462911	0.372334
C103	C	-0.211476	-0.433210	0.402038
C104	C	-0.119345	-0.520838	0.314402
C105	C	-0.238777	-0.409214	0.426036
C106	C	0.016889	-0.664861	0.426031
C107	C	-0.238780	-0.409211	0.170375
C108	C	-0.273027	-0.379111	0.456142
C109	C	0.077103	-0.729214	0.456136
C110	C	-0.273031	-0.379107	0.106020
C111	C	-0.177705	-0.120506	-0.372403
C112	C	-0.211495	-0.057014	-0.402108
C113	C	-0.206404	-0.149741	-0.401505
C114	C	-0.090537	-0.207667	-0.285236
C115	C	-0.031127	-0.237367	-0.221741
C116	C	-0.119369	-0.236770	-0.314470
C117	C	-0.177709	-0.207669	-0.372401
C118	C	-0.211504	-0.237373	-0.402103
C119	C	-0.119364	-0.149739	-0.314472
C120	C	-0.238808	-0.261370	-0.426099
C121	C	-0.238794	-0.005718	-0.426106
C122	C	0.016869	-0.261361	-0.170443
C123	C	-0.273061	-0.291475	-0.456203
C124	C	-0.273043	0.058634	-0.456213
C125	C	0.077083	-0.291464	-0.106087
C126	C	0.507226	-0.462917	0.372317
C127	C	0.541022	-0.433214	0.402020
C128	C	0.535920	-0.520845	0.401421
C129	C	0.420053	-0.462919	0.285151
C130	C	0.360644	-0.433218	0.221656
C131	C	0.448880	-0.520847	0.314387
C132	C	0.507221	-0.550080	0.372318
C133	C	0.541010	-0.613572	0.402023
C134	C	0.448885	-0.433816	0.314386
C135	C	0.568310	-0.664868	0.426020
C136	C	0.568326	-0.409218	0.426016
C137	C	0.312647	-0.409223	0.170358
C138	C	0.602557	-0.729220	0.456127
C139	C	0.602579	-0.379112	0.456121
C140	C	0.252433	-0.379120	0.106003
C141	C	-0.579946	0.194571	-0.372389
C142	C	-0.639352	0.190480	-0.402089
C143	C	-0.551117	0.194971	-0.401493
C144	C	-0.492781	0.194585	-0.285228
C145	C	-0.458991	0.190509	-0.221735
C146	C	-0.464085	0.194986	-0.314464
C147	C	-0.492779	0.194568	-0.372393
C148	C	-0.458987	0.190472	-0.402097
C149	C	-0.551119	0.194989	-0.314460
C150	C	-0.431685	0.187163	-0.426095
C151	C	-0.687346	0.187173	-0.426083
C152	C	-0.431691	0.187215	-0.170438
C153	C	-0.397434	0.183011	-0.456201
C154	C	-0.747557	0.183025	-0.456185
C155	C	-0.397443	0.183083	-0.106085
O156	O	-0.424573	0.248956	-0.575073
O157	O	-0.326002	0.080394	-0.505077
O158	O	-0.424562	0.178953	-0.505068
O159	O	-0.326013	0.150397	-0.575082
O160	O	-0.344497	0.178955	-0.425009
O161	O	-0.245937	0.080397	-0.425019
O162	O	-0.344508	0.248958	-0.495014
Cu163	Cu	-0.287912	0.164678	-0.452706
Cu164	Cu	-0.382599	0.164675	-0.547385
O165	O	-0.245948	0.150400	-0.495023
C166	C	-0.177678	0.134868	0.372314
C167	C	-0.211470	0.138961	0.402018
C168	C	-0.119342	0.134466	0.401413
C169	C	-0.177677	0.134851	0.285148
C170	C	-0.211467	0.138927	0.221655
C171	C	-0.119341	0.134449	0.314380
C172	C	-0.090514	0.134867	0.372309
C173	C	-0.031109	0.138961	0.402008
C174	C	-0.206373	0.134450	0.314385
C175	C	0.016884	0.142269	0.426002
C176	C	-0.238771	0.142269	0.426016
C177	C	-0.238767	0.142222	0.170359
C178	C	0.077094	0.146418	0.456104
C179	C	-0.273021	0.146419	0.456123
C180	C	-0.273016	0.146354	0.106005
H181	H	-0.575256	-0.126242	-0.290976
O182	O	-0.262390	-0.121841	-0.458298
C183	C	-0.281655	-0.160089	-0.477818
H184	H	-0.235827	-0.207711	-0.450090
H185	H	-0.323819	-0.150359	-0.473088
C186	C	-0.363934	-0.092191	-0.577044
C187	C	-0.307646	-0.150682	-0.542991
H188	H	-0.379970	-0.086388	-0.617246
H189	H	-0.350957	-0.066422	-0.563893
H190	H	-0.399064	-0.084090	-0.573096
H191	H	-0.272515	-0.158780	-0.546933
H192	H	-0.320618	-0.176453	-0.556144
H193	H	-0.095227	-0.284339	0.030940
H194	H	-0.253327	-0.386213	0.290930
H195	H	-0.095238	-0.126264	-0.291003
H196	H	-0.253320	-0.126236	0.030947
O197	O	0.419981	-0.548749	0.286318
C198	C	0.362211	-0.510512	0.228804
H199	H	0.342325	-0.462887	0.226994
H200	H	0.376663	-0.520263	0.196367
C201	C	0.330867	-0.578401	0.214466
C202	C	0.306440	-0.519906	0.212244
H203	H	0.296466	-0.584197	0.204249
H204	H	0.369789	-0.604163	0.253213
H205	H	0.342910	-0.586519	0.187434
H206	H	0.294406	-0.511791	0.239280
H207	H	0.267514	-0.494143	0.173501
O208	O	0.591969	-0.548782	0.458183
C209	C	0.611246	-0.510543	0.477712
H210	H	0.590588	-0.475503	0.438062
H211	H	0.589596	-0.488361	0.503229
C212	C	0.714826	-0.589107	0.566835
C213	C	0.689459	-0.546073	0.518136
H214	H	0.763071	-0.611023	0.591773
H215	H	0.701839	-0.614869	0.553680
H216	H	0.696779	-0.570615	0.588092
H217	H	0.707500	-0.564565	0.496876
H218	H	0.702451	-0.520315	0.531289
H219	H	-0.095213	-0.126242	0.030939
O220	O	-0.408019	-0.548912	-0.031033
C221	C	-0.354285	-0.599730	0.019463
H222	H	-0.363405	-0.594406	0.055420
H223	H	-0.351853	-0.639883	0.007831
C224	C	-0.275352	-0.614733	-0.002401
C225	C	-0.286551	-0.608191	0.041764
H226	H	-0.233570	-0.619954	0.011355
H227	H	-0.311554	-0.580497	-0.036422
H228	H	-0.273329	-0.648192	-0.012090
H229	H	-0.288582	-0.574728	0.051447
H230	H	-0.250348	-0.642422	0.075788
O231	O	-0.579836	-0.548943	-0.031167
C232	C	-0.541845	-0.606452	-0.031427
H233	H	-0.512322	-0.608247	-0.049527
H234	H	-0.504678	-0.638886	0.015466
C235	C	-0.626695	-0.620831	-0.048375
C236	C	-0.590438	-0.623033	-0.070610
H237	H	-0.656668	-0.631061	-0.072543
H238	H	-0.652289	-0.582087	-0.048198
H239	H	-0.595715	-0.647859	-0.009298
H240	H	-0.621417	-0.596000	-0.109684
H241	H	-0.564850	-0.661774	-0.070795
H242	H	-0.095206	-0.544309	0.449038
O243	O	-0.090461	-0.548912	0.286493
C244	C	-0.032696	-0.606426	0.324728
H245	H	-0.012793	-0.608234	0.372356
H246	H	-0.047162	-0.638856	0.314987
C247	C	-0.001384	-0.620782	0.256819
C248	C	0.023064	-0.623001	0.315317
H249	H	0.033011	-0.631008	0.251012
H250	H	-0.040302	-0.582035	0.231057
H251	H	-0.013439	-0.647807	0.248708
H252	H	0.035110	-0.595972	0.323424
H253	H	0.061986	-0.661745	0.341079
H254	H	0.424793	-0.386235	0.290900
H255	H	-0.575257	-0.386229	-0.031005
O256	O	-0.408012	0.195667	-0.286456
C257	C	-0.354281	0.145168	-0.283542
H258	H	-0.363403	0.109211	-0.287332
H259	H	-0.351852	0.156790	-0.321266
C260	C	-0.275344	0.167038	-0.219625
C261	C	-0.286545	0.122874	-0.224275
H262	H	-0.233560	0.153288	-0.183068
H263	H	-0.311544	0.201062	-0.221590
H264	H	-0.273324	0.176720	-0.251065
H265	H	-0.288573	0.113199	-0.192839
H266	H	-0.250343	0.088848	-0.222303
O267	O	-0.579969	0.195722	-0.458269
C268	C	-0.637754	0.196001	-0.477803
H269	H	-0.633131	0.176976	-0.438159
H270	H	-0.685433	0.243179	-0.503275
C271	C	-0.648394	0.181646	-0.566978
C272	C	-0.642712	0.158274	-0.518286
H273	H	-0.651455	0.158376	-0.591952
H274	H	-0.609464	0.181460	-0.553819
H275	H	-0.688126	0.220960	-0.588198
H276	H	-0.602977	0.118963	-0.497064
H277	H	-0.681636	0.158452	-0.531443
O278	O	-0.580004	0.195805	-0.286551
C279	C	-0.637767	0.196046	-0.324785
H280	H	-0.657668	0.214130	-0.372413
H281	H	-0.623298	0.149151	-0.315039
C282	C	-0.669082	0.213017	-0.256878
C283	C	-0.693529	0.235233	-0.315376
H284	H	-0.703478	0.237187	-0.251073
H285	H	-0.630165	0.212852	-0.231118
H286	H	-0.657025	0.173938	-0.248763
H287	H	-0.705577	0.274308	-0.323488
H288	H	-0.732449	0.235405	-0.341138
H289	H	-0.095217	0.133792	0.290904
O290	O	-0.090677	0.133745	0.458179
C291	C	-0.128655	0.133483	0.477713
H292	H	-0.182695	0.152482	0.438067
H293	H	-0.103669	0.086315	0.503219
C294	C	-0.064517	0.147916	0.566849
C295	C	-0.130892	0.171256	0.518154
H296	H	-0.065895	0.171214	0.591796
H297	H	-0.038929	0.148090	0.553689
H298	H	-0.043703	0.108610	0.588096
H299	H	-0.151702	0.210559	0.496903
H300	H	-0.156484	0.171090	0.531311
H301	H	-0.095234	-0.284369	-0.290998
O302	O	-0.262360	0.133642	0.286478
C303	C	-0.281642	0.133407	0.324714
H304	H	-0.235822	0.115315	0.372342
H305	H	-0.323807	0.180305	0.314973
C306	C	-0.363920	0.116456	0.256805
C307	C	-0.307641	0.094231	0.315303
H308	H	-0.379961	0.092294	0.250999
H309	H	-0.350931	0.116617	0.231044
H310	H	-0.399050	0.155537	0.248695
H311	H	-0.272510	0.055154	0.323411
H312	H	-0.320625	0.094063	0.341066
O313	O	-0.579840	-0.121695	-0.458239
C314	C	-0.532272	-0.118759	-0.461482
H315	H	-0.492517	-0.122552	-0.416405
H316	H	-0.506179	-0.156470	-0.475552
C317	C	-0.618089	-0.054829	-0.562277
C318	C	-0.569265	-0.059482	-0.506913
H319	H	-0.640907	-0.018266	-0.590303
H320	H	-0.650136	-0.056808	-0.560093
H321	H	-0.596337	-0.086258	-0.573994
H322	H	-0.591018	-0.028058	-0.495194
H323	H	-0.537222	-0.057496	-0.509096
O324	O	-0.408084	-0.293519	-0.286531
C325	C	-0.388787	-0.313037	-0.324759
H326	H	-0.434615	-0.285348	-0.372391
H327	H	-0.346662	-0.308250	-0.315040
C328	C	-0.306419	-0.412235	-0.256803
C329	C	-0.362707	-0.378230	-0.315305
H330	H	-0.290329	-0.452450	-0.250970
H331	H	-0.319418	-0.399086	-0.231046
H332	H	-0.271322	-0.408239	-0.248710
H333	H	-0.397806	-0.382220	-0.323395
H334	H	-0.349714	-0.391381	-0.341063
