data_functionalizedCrystal
_audit_creation_method	'MofGen! by Chris Wilmer'
_symmetry_space_group_name_H-M	'P1'
_symmetry_Int_Tables_number	1
_symmetry_cell_setting	triclinic
loop_
_symmetry_equiv_pos_as_xyz
  x,y,z
_cell_length_a	17.077404
_cell_length_b	19.121063
_cell_length_c	17.077395
_cell_angle_alpha	92.409894
_cell_angle_beta	89.984359
_cell_angle_gamma	92.469213
loop_
_atom_site_label
_atom_site_type_symbol
_atom_site_fract_x
_atom_site_fract_y
_atom_site_fract_z
Zn1	Zn	1.186666	-0.279619	-0.457152
Zn2	Zn	1.180971	-0.397073	-0.331477
Zn3	Zn	1.055406	-0.279641	-0.325901
Zn4	Zn	1.049756	-0.397034	-0.462698
O5	O	1.118200	-0.338342	-0.394307
O6	O	1.295757	-0.295206	-0.440493
O7	O	1.164295	-0.381521	-0.220891
O8	O	1.077565	-0.181353	-0.338657
O9	O	1.291573	-0.381500	-0.348160
O10	O	1.174002	-0.181337	-0.435087
O11	O	1.072043	-0.295244	-0.216795
O12	O	0.944810	-0.295206	-0.344035
O13	O	1.067937	-0.381433	-0.571808
O14	O	0.940659	-0.381455	-0.444540
O15	O	1.168524	-0.295169	-0.567734
O16	O	1.158817	-0.495353	-0.353538
O17	O	1.062415	-0.495324	-0.449946
C18	C	0.914252	-0.338329	-0.394285
C19	C	0.827002	-0.338340	-0.394295
C20	C	0.783868	-0.383318	-0.446550
C21	C	0.701888	-0.383319	-0.446563
C22	C	0.663042	-0.338347	-0.394315
C23	C	0.706182	-0.293364	-0.342058
C24	C	0.788162	-0.293360	-0.342049
C25	C	0.535312	-0.293378	-0.342077
C26	C	0.453327	-0.293383	-0.342084
C27	C	0.449038	-0.383338	-0.446590
C28	C	0.531017	-0.383333	-0.446582
C29	C	0.574151	-0.338352	-0.394323
C30	C	1.109406	-0.520823	-0.402966
C31	C	1.105716	-0.598889	-0.406697
C32	C	1.154213	-0.635556	-0.358296
C33	C	1.150747	-0.708907	-0.361810
C34	C	1.098780	-0.745590	-0.413720
C35	C	1.050281	-0.708918	-0.462125
C36	C	1.053751	-0.635568	-0.458615
C37	C	1.085792	-0.967060	-0.426830
C38	C	1.082323	-1.040415	-0.430335
C39	C	1.182791	-1.040400	-0.330019
C40	C	1.186254	-0.967048	-0.326511
C41	C	1.137758	-0.930382	-0.374919
C42	C	1.095234	-0.820567	-0.417310
C43	C	1.141308	-0.855407	-0.371332
C44	C	1.322943	-0.338355	-0.394330
C45	C	1.410193	-0.338361	-0.394340
C46	C	1.118236	-0.338294	-0.599049
C47	C	1.118251	-0.338274	-0.686298
C48	C	1.127049	-0.155148	-0.385631
C49	C	1.130820	-0.077082	-0.381934
C50	C	1.170718	-0.293260	-1.059988
C51	C	1.170701	-0.293285	-0.978008
C52	C	1.118319	-0.338207	-0.939144
C53	C	1.065956	-0.383113	-0.982264
C54	C	1.065977	-0.383091	-1.064242
C55	C	1.065913	-0.383154	-0.811395
C56	C	1.065890	-0.383174	-0.729412
C57	C	1.170637	-0.293347	-0.725162
C58	C	1.170658	-0.293326	-0.807140
C59	C	1.118294	-0.338231	-0.850254
C60	C	1.118211	-0.338339	-0.190359
C61	C	1.118358	-0.338161	-0.103101
H62	H	0.815490	-0.419942	-0.489093
H63	H	1.023219	-0.419738	-0.697770
Br64	Br	0.583735	-0.444375	-0.517482
Br65	Br	0.994918	-0.444034	-1.122754
Br66	Br	1.256794	-0.917269	-0.256069
Br67	Br	1.216572	-0.758667	-0.296125
Br68	Br	1.241802	-0.232281	-1.112723
Br69	Br	1.024710	-0.870356	-0.487759
H70	H	1.183623	-0.825538	-0.329070
H71	H	1.213310	-0.256743	-0.838781
Br72	Br	1.248607	-1.090164	-0.264330
Br73	Br	0.593851	-0.232330	-0.271155
Br74	Br	0.400608	-0.232354	-0.271171
Br75	Br	0.846702	-0.232313	-0.271133
H76	H	1.213272	-0.256783	-0.690055
Br77	Br	0.643351	-0.444361	-0.517486
Br78	Br	0.994848	-0.444097	-0.869907
Br79	Br	0.653465	-0.232322	-0.271157
H80	H	1.007971	-0.738790	-0.504395
Br81	Br	0.994868	-0.444083	-0.929520
H82	H	1.040014	-1.070280	-0.472620
H83	H	0.413914	-0.419961	-0.489144
H84	H	1.213340	-0.256724	-0.942909
H85	H	1.196527	-0.605694	-0.316022
H86	H	1.046303	-0.937212	-0.466245
H87	H	1.014261	-0.605714	-0.498029
