data_functionalizedCrystal
_audit_creation_method	'MofGen! by Chris Wilmer'
_symmetry_space_group_name_H-M	'P1'
_symmetry_Int_Tables_number	1
_symmetry_cell_setting	triclinic
loop_
_symmetry_equiv_pos_as_xyz
  x,y,z
_cell_length_a	13.339070
_cell_length_b	13.339070
_cell_length_c	11.804365
_cell_angle_alpha	74.887832
_cell_angle_beta	74.875130
_cell_angle_gamma	64.370706
loop_
_atom_site_label
_atom_site_type_symbol
_atom_site_fract_x
_atom_site_fract_y
_atom_site_fract_z
O1	O	1.512774	-0.534576	-0.099059
O2	O	1.197964	-0.462317	-0.099053
O3	O	1.319238	-0.341042	-0.099052
O4	O	1.391499	-0.655850	-0.099060
O5	O	1.287299	-0.372924	0.099004
O6	O	1.166024	-0.494199	0.099002
O7	O	1.480834	-0.566458	0.098997
Cu8	Cu	1.320513	-0.533239	0.117083
Cu9	Cu	1.358285	-0.495535	-0.117140
O10	O	1.359560	-0.687732	0.098995
C11	C	1.140878	-0.466052	-0.000025
C12	C	1.018364	-0.429669	-0.000023
C13	C	0.732981	-0.712563	-0.000049
C14	C	0.848090	-0.746750	-0.000055
C15	C	0.890664	-0.667483	-0.000046
C16	C	0.818118	-0.554023	-0.000033
C17	C	0.702998	-0.519831	-0.000037
C18	C	0.860682	-0.474750	-0.000034
C19	C	0.788135	-0.361290	-0.000021
C20	C	0.673027	-0.327105	-0.000023
C21	C	0.630453	-0.406372	-0.000032
C22	C	0.975801	-0.508942	-0.000030
C23	C	0.945819	-0.316210	-0.000018
C24	C	0.830709	-0.282023	-0.000012
C25	C	1.291062	-0.315868	-0.000026
C26	C	1.254680	-0.193353	-0.000030
C27	C	1.537920	-0.562722	-0.000034
C28	C	1.660436	-0.599104	-0.000044
C29	C	1.387736	-0.712906	-0.000034
C30	C	1.424120	-0.835420	-0.000037
N31	N	1.293954	-0.559760	0.281824
C32	C	1.537579	0.092035	-0.000034
C33	C	1.571765	-0.023075	-0.000023
C34	C	1.492497	-0.065650	-0.000025
C35	C	1.379036	0.006896	-0.000037
C36	C	1.344846	0.122016	-0.000039
C37	C	1.299763	-0.035669	-0.000030
C38	C	1.186303	0.036878	-0.000042
C39	C	1.152118	0.151986	-0.000044
C40	C	1.231386	0.194561	-0.000042
C41	C	1.333954	-0.150789	-0.000029
C42	C	1.141220	-0.120808	-0.000033
C43	C	1.107035	-0.005698	-0.000044
N44	N	1.384850	-0.469008	-0.281880
C45	C	1.448622	-0.405301	0.655774
C46	C	1.468712	-0.385233	0.531113
C47	C	1.425024	-0.428863	0.468784
C48	C	1.361243	-0.492564	0.531130
C49	C	1.341160	-0.512642	0.655803
C50	C	1.317561	-0.536204	0.468814
C51	C	1.253781	-0.599906	0.531159
C52	C	1.233699	-0.619979	0.655820
C53	C	1.277387	-0.576349	0.718149
C54	C	1.337645	-0.516126	0.344140
C55	C	1.230182	-0.623468	0.344169
C56	C	1.210092	-0.643536	0.468830
H57	H	0.984393	-0.695324	-0.000054
H58	H	0.613964	-0.234716	-0.000026
H59	H	1.441383	-0.412520	0.367279
O60	O	1.257723	-0.595907	0.839248
C61	C	1.192093	-0.661518	0.880916
H62	H	1.143622	-0.650714	0.809084
H63	H	1.129956	-0.632753	0.964323
H64	H	1.249630	-0.754139	0.903033
O65	O	1.614559	0.133482	-0.000238
C66	C	1.617071	0.215705	-0.102794
H67	H	1.584263	0.201055	-0.174494
H68	H	1.707463	0.209307	-0.137218
H69	H	1.561520	0.303239	-0.079601
O70	O	0.518638	-0.373004	-0.000190
C71	C	0.488504	-0.292236	-0.102780
H72	H	0.551600	-0.250158	-0.136977
H73	H	0.400400	-0.225707	-0.079711
H74	H	0.489145	-0.335528	-0.174607
H75	H	1.389575	-0.464261	0.293389
H76	H	1.520642	-0.333369	0.480356
H77	H	1.181777	-0.671859	0.706582
H78	H	1.194609	-0.658998	0.293422
O79	O	1.490979	-0.362736	0.716194
C80	C	1.447499	-0.244103	0.685773
H81	H	1.419794	-0.217754	0.595259
H82	H	1.515558	-0.212546	0.681511
H83	H	1.371987	-0.206078	0.755946
H84	H	1.664144	-0.082135	-0.000012
O85	O	1.148035	-0.705277	0.529532
C86	C	1.052146	-0.639011	0.601639
H87	H	1.068771	-0.568388	0.620299
H88	H	1.033514	-0.694071	0.689311
H89	H	0.976618	-0.600991	0.553616
O90	O	1.064131	-0.161993	-0.000197
C91	C	1.013717	-0.108258	-0.102787
H92	H	1.021808	-0.023434	-0.136984
H93	H	0.920671	-0.094324	-0.079718
H94	H	1.057904	-0.163562	-0.174615
H95	H	1.034858	-0.601322	-0.000036
O96	O	0.760246	-0.171830	0.000201
C97	C	0.762728	-0.138061	0.102763
H98	H	0.791581	-0.215382	0.174456
H99	H	0.674670	-0.077412	0.137192
H100	H	0.823936	-0.094081	0.079575
H101	H	0.980482	-0.251662	-0.000016
H102	H	1.203558	0.288293	-0.000055
O103	O	0.918462	-0.856964	-0.000228
C104	C	0.915999	-0.890693	-0.102825
H105	H	0.833673	-0.832949	-0.137015
H106	H	0.922036	-0.981388	-0.079769
H107	H	0.990294	-0.885019	-0.174653
O108	O	1.444115	-0.221329	0.000184
C109	C	1.453118	-0.305340	0.102743
H110	H	1.376568	-0.273689	0.174438
H111	H	1.533181	-0.325437	0.137172
H112	H	1.456887	-0.384826	0.079551
O113	O	0.691733	-0.789683	0.000095
C114	C	0.712402	-0.873164	0.102679
H115	H	0.786202	-0.876100	0.136889
H116	H	0.733771	-0.958772	0.079597
H117	H	0.633948	-0.852126	0.174501
H118	H	1.059730	0.211050	-0.000044
O119	O	0.996764	0.064641	0.000109
C120	C	0.929945	0.029147	0.102697
H121	H	0.976645	-0.064199	0.136901
H122	H	0.846679	0.042638	0.079623
H123	H	0.912478	0.080299	0.174521
H124	H	1.520338	-0.159379	-0.000017
