data_functionalizedCrystal
_audit_creation_method	'MofGen! by Chris Wilmer'
_symmetry_space_group_name_H-M	'P1'
_symmetry_Int_Tables_number	1
_symmetry_cell_setting	triclinic
loop_
_symmetry_equiv_pos_as_xyz
  x,y,z
_cell_length_a	11.792241
_cell_length_b	22.610064
_cell_length_c	11.792241
_cell_angle_alpha	89.995637
_cell_angle_beta	95.806584
_cell_angle_gamma	89.995899
loop_
_atom_site_label
_atom_site_type_symbol
_atom_site_fract_x
_atom_site_fract_y
_atom_site_fract_z
O1	O	1.506917	-0.049127	-0.155552
O2	O	1.176576	-0.049141	-0.171585
O3	O	1.349763	-0.049130	0.001602
O4	O	1.333730	-0.049139	-0.328739
O5	O	1.349732	0.049239	0.001576
O6	O	1.176545	0.049228	-0.171611
O7	O	1.506886	0.049242	-0.155578
Zn8	Zn	1.341710	0.064853	-0.163599
Zn9	Zn	1.341751	-0.064752	-0.163564
O10	O	1.333699	0.049230	-0.328765
C11	C	1.134269	0.000042	-0.170591
C12	C	1.008255	0.000037	-0.167576
N13	N	1.341691	0.153306	-0.163622
C14	C	0.777543	0.000054	-0.162034
C15	C	0.905928	0.000044	-0.165113
C16	C	1.418440	0.561952	-0.086897
C17	C	1.418446	0.623872	-0.086890
O18	O	1.483654	0.655895	-0.021668
N19	N	1.341748	0.654843	-0.163550
C20	C	1.265032	0.623890	-0.240215
O21	O	1.199795	0.655919	-0.305420
C22	C	1.265022	0.561972	-0.240216
C23	C	1.341733	0.531004	-0.163559
C24	C	1.495144	0.530984	-0.010245
C25	C	1.495139	0.469069	-0.010254
C26	C	1.418431	0.438121	-0.086915
C27	C	1.341728	0.469088	-0.163568
C28	C	1.188302	0.531020	-0.316875
C29	C	1.188298	0.469097	-0.316869
C30	C	1.265008	0.438130	-0.240211
C31	C	1.265016	0.376225	-0.240238
N32	N	1.341714	0.345254	-0.163578
C33	C	1.418421	0.376202	-0.086916
C34	C	1.265058	0.753924	-0.240206
C35	C	1.265073	0.815842	-0.240212
C36	C	1.418486	0.815819	-0.086884
C37	C	1.418475	0.753900	-0.086885
C38	C	1.341756	0.722953	-0.163546
C39	C	1.418407	0.246175	-0.086942
C40	C	1.418399	0.184254	-0.086961
C41	C	1.264983	0.184282	-0.240284
C42	C	1.264994	0.246197	-0.240269
C43	C	1.341711	0.277142	-0.163589
O44	O	1.199838	0.344162	-0.305424
O45	O	1.483638	0.344166	-0.021713
C46	C	1.549192	0.000058	-0.156572
C47	C	1.675206	0.000059	-0.159587
C48	C	1.348740	0.000055	0.043880
C49	C	1.345726	0.000054	0.169894
N50	N	1.341777	0.846795	-0.163546
C51	C	1.334721	0.000045	-0.371043
C52	C	1.337736	0.000042	-0.497057
C53	C	1.340183	0.000044	0.400606
C54	C	1.343262	0.000049	0.272221
H55	H	1.480869	0.159042	-0.024537
O56	O	1.569510	0.561068	0.064341
C57	C	1.592782	0.630983	0.219164
C58	C	1.508422	0.596947	0.134780
H59	H	1.543426	0.660008	0.276120
H60	H	1.647577	0.598230	0.274023
H61	H	1.649810	0.659940	0.169755
H62	H	1.451321	0.567989	0.184097
H63	H	1.453707	0.629731	0.079921
H64	H	1.202541	0.271412	-0.302702
O65	O	1.190584	0.154238	-0.314904
C66	C	1.125215	0.135319	-0.511806
C67	C	1.209560	0.169372	-0.427434
H68	H	1.140512	0.147552	-0.602804
H69	H	1.138394	0.085739	-0.498729
H70	H	1.034233	0.147489	-0.496334
H71	H	1.300575	0.157252	-0.442854
H72	H	1.196282	0.218944	-0.440530
H73	H	1.480875	0.271363	-0.024501
H74	H	1.480939	0.728690	-0.024464
O75	O	1.569530	0.439100	0.064517
C76	C	1.634672	0.420452	0.261579
C77	C	1.550344	0.454358	0.176927
H78	H	1.619205	0.432785	0.352480
H79	H	1.621649	0.370850	0.248731
H80	H	1.725656	0.432653	0.246183
H81	H	1.459326	0.442206	0.192271
H82	H	1.563466	0.503952	0.189794
O83	O	1.493105	0.845796	-0.012364
C84	C	1.645216	0.839257	0.139769
C85	C	1.560795	0.805232	0.055426
H86	H	1.699949	0.806475	0.194616
H87	H	1.702292	0.868230	0.090442
H88	H	1.595840	0.868261	0.196744
H89	H	1.610078	0.776196	-0.001569
H90	H	1.503720	0.776296	0.104824
O91	O	1.190455	0.845828	-0.314727
C92	C	1.038336	0.839299	-0.466850
C93	C	1.122770	0.805268	-0.382508
H94	H	0.983607	0.806521	-0.521689
H95	H	0.981258	0.868270	-0.417523
H96	H	1.087701	0.868305	-0.523832
H97	H	1.073498	0.776230	-0.325505
H98	H	1.179849	0.776334	-0.431906
H99	H	1.125837	0.556226	-0.379296
O100	O	1.190697	0.723800	-0.314742
C101	C	1.167475	0.653942	-0.469664
C102	C	1.251812	0.688004	-0.385300
H103	H	1.216853	0.625002	-0.526747
H104	H	1.110477	0.624913	-0.420355
H105	H	1.112646	0.686730	-0.524398
H106	H	1.306715	0.655258	-0.330545
H107	H	1.308730	0.717041	-0.434678
H108	H	1.125820	0.443903	-0.379294
