data_functionalizedCrystal
_audit_creation_method	'MofGen! by Chris Wilmer'
_symmetry_space_group_name_H-M	'P1'
_symmetry_Int_Tables_number	1
_symmetry_cell_setting	triclinic
loop_
_symmetry_equiv_pos_as_xyz
  x,y,z
_cell_length_a	9.065218
_cell_length_b	10.654550
_cell_length_c	7.540329
_cell_angle_alpha	89.996554
_cell_angle_beta	89.996962
_cell_angle_gamma	84.750408
loop_
_atom_site_label
_atom_site_type_symbol
_atom_site_fract_x
_atom_site_fract_y
_atom_site_fract_z
O1	O	1.959392	0.184158	-0.147487
O2	O	1.530024	0.199263	-0.147489
O3	O	1.754580	0.009010	-0.147477
O4	O	1.734836	0.374410	-0.147499
O5	O	1.754567	0.009008	0.147488
O6	O	1.530011	0.199261	0.147476
O7	O	1.959378	0.184155	0.147478
Cu8	Cu	1.744693	0.191708	0.174410
Cu9	Cu	1.744709	0.191711	-0.174421
O10	O	1.734823	0.374408	0.147466
C11	C	1.475039	0.197810	-0.000007
C12	C	1.311220	0.193469	-0.000008
C13	C	1.753124	-0.037795	0.000005
C14	C	1.748786	-0.177255	0.000002
C15	C	1.881001	-0.256217	0.000002
C16	C	1.876917	-0.387254	-0.000019
C17	C	1.608391	-0.360354	-0.000034
C18	C	1.612477	-0.229320	-0.000025
C19	C	2.032639	-0.582481	-0.103368
C20	C	2.164861	-0.661449	-0.103337
C21	C	2.284719	-0.630803	0.000031
C22	C	2.272361	-0.521192	0.103411
C23	C	2.140137	-0.442232	0.103397
C24	C	2.020284	-0.472876	-0.000013
C25	C	1.456764	-0.034091	0.103338
C26	C	1.324539	0.044872	0.103336
C27	C	1.204668	0.014230	-0.000021
C28	C	1.217012	-0.095383	-0.103375
C29	C	1.349237	-0.174347	-0.103373
C30	C	1.469109	-0.143695	-0.000019
C31	C	2.014364	0.185608	-0.000008
C32	C	2.178183	0.189949	-0.000019
C33	C	1.736279	0.421213	-0.000020
C34	C	1.740616	0.560673	-0.000028
N35	N	1.744693	0.191705	0.419758
N36	N	1.744721	0.191703	-0.419769
H37	H	2.130073	-0.352992	0.187573
H38	H	1.497413	-0.402762	-0.000052
C39	C	1.310943	0.165434	0.217060
C40	C	1.442792	0.199146	0.330763
C41	C	1.429192	0.319700	0.444496
C42	C	1.283742	0.406543	0.444524
C43	C	1.151883	0.372832	0.330816
C44	C	1.165484	0.252278	0.217084
H45	H	1.550472	0.134859	0.330746
H46	H	1.526803	0.344654	0.528670
H47	H	1.273674	0.495784	0.528715
H48	H	1.044204	0.437120	0.330833
H49	H	1.067872	0.227324	0.132910
C50	C	1.085157	-0.129100	-0.217078
C51	C	0.939718	-0.042244	-0.217091
C52	C	0.807856	-0.075958	-0.330787
C53	C	0.821433	-0.196528	-0.444470
C54	C	0.966878	-0.283392	-0.444462
C55	C	1.098740	-0.249677	-0.330766
H56	H	0.929662	0.047016	-0.132933
H57	H	0.700188	-0.011655	-0.330793
H58	H	0.723821	-0.221485	-0.528635
H59	H	0.976934	-0.372652	-0.528620
H60	H	1.206408	-0.313980	-0.330760
H61	H	2.174914	-0.750692	-0.187524
H62	H	1.554383	-0.009113	0.187468
C63	C	2.404207	-0.487489	0.217135
C64	C	2.549650	-0.574340	0.217149
C65	C	2.681500	-0.540632	0.330869
C66	C	2.667908	-0.420073	0.444575
C67	C	2.522460	-0.333214	0.444565
C68	C	2.390609	-0.366922	0.330845
H69	H	2.559717	-0.663592	0.132973
H70	H	2.789171	-0.604931	0.330876
H71	H	2.765512	-0.395120	0.528757
H72	H	2.512393	-0.243962	0.528740
H73	H	2.282939	-0.302623	0.330838
H74	H	1.991993	-0.213831	0.000020
H75	H	2.392377	-0.695107	0.000053
H76	H	1.935056	-0.607436	-0.187564
H77	H	1.359288	-0.263590	-0.187556
H78	H	1.096996	0.078524	0.000009
