data_functionalizedCrystal
_audit_creation_method	'MofGen! by Chris Wilmer'
_symmetry_space_group_name_H-M	'P1'
_symmetry_Int_Tables_number	1
_symmetry_cell_setting	triclinic
loop_
_symmetry_equiv_pos_as_xyz
  x,y,z
_cell_length_a	27.732048
_cell_length_b	23.532407
_cell_length_c	22.010155
_cell_angle_alpha	90.003069
_cell_angle_beta	90.000725
_cell_angle_gamma	82.745667
loop_
_atom_site_label
_atom_site_type_symbol
_atom_site_fract_x
_atom_site_fract_y
_atom_site_fract_z
O1	O	-0.058672	-0.755138	-0.050456
O2	O	-0.067162	-0.589257	-0.050475
O3	O	0.007472	-0.677350	-0.050453
O4	O	-0.133306	-0.667046	-0.050477
O5	O	0.007461	-0.677334	0.050597
O6	O	-0.067173	-0.589241	0.050576
O7	O	-0.058683	-0.755122	0.050595
Cu8	Cu	-0.062929	-0.672180	0.059812
Cu9	Cu	-0.062916	-0.672199	-0.059692
O10	O	-0.133317	-0.667030	0.050573
C11	C	-0.066952	-0.568033	0.000048
C12	C	-0.066302	-0.504818	0.000042
C13	C	0.025473	-0.677125	0.000074
C14	C	0.079129	-0.676474	0.000079
C15	C	-0.151319	-0.667254	0.000045
C16	C	-0.204975	-0.667905	0.000036
C17	C	0.417871	-0.724431	0.000053
C18	C	0.619534	-0.722014	0.000044
O19	O	0.650722	-0.765867	0.000023
N20	N	0.638738	-0.669779	0.000039
C21	C	0.607523	-0.618144	0.000032
O22	O	0.628484	-0.573659	0.000021
C23	C	0.405860	-0.620561	0.000036
C24	C	0.386659	-0.672800	0.000048
C25	C	0.398669	-0.776665	0.000064
C26	C	0.348256	-0.777269	0.000069
C27	C	0.317045	-0.725638	0.000064
C28	C	0.336247	-0.673403	0.000053
C29	C	0.374646	-0.568927	0.000025
C30	C	0.324228	-0.569536	0.000024
C31	C	0.305027	-0.621775	0.000036
C32	C	0.254622	-0.622376	0.000053
N33	N	0.235418	-0.674611	0.000059
C34	C	0.266630	-0.726242	0.000064
C35	C	0.713399	-0.616879	0.000031
C36	C	0.763814	-0.616274	0.000031
C37	C	0.775822	-0.720145	0.000042
C38	C	0.725406	-0.720749	0.000046
C39	C	0.694195	-0.669114	0.000036
C40	C	0.160758	-0.727506	0.000076
C41	C	0.110341	-0.728105	0.000084
C42	C	0.098337	-0.624235	0.000069
C43	C	0.148751	-0.623635	0.000065
C44	C	0.179961	-0.675276	0.000066
O45	O	0.223406	-0.578547	0.000068
O46	O	0.245659	-0.770721	0.000061
C47	C	0.468283	-0.723827	0.000047
C48	C	0.487485	-0.671593	0.000037
C49	C	0.456274	-0.619962	0.000031
C50	C	0.537900	-0.670988	0.000037
C51	C	0.569112	-0.722619	0.000042
C52	C	0.549908	-0.774855	0.000047
C53	C	0.499495	-0.775458	0.000053
C54	C	0.475478	-0.567727	0.000026
C55	C	0.525891	-0.567127	0.000021
C56	C	0.557103	-0.618758	0.000026
C57	C	-0.058894	-0.776346	0.000070
C58	C	-0.059544	-0.839562	0.000073
N59	N	-0.062938	-0.672171	0.143864
C60	C	-0.106391	-0.105629	0.000062
C61	C	-0.105787	-0.046230	0.000066
O62	O	-0.142951	-0.009406	0.000082
N63	N	-0.061418	-0.023699	0.000073
C64	C	-0.017649	-0.060570	0.000082
O65	O	0.020147	-0.035951	0.000088
C66	C	-0.018253	-0.119967	0.000082
C67	C	-0.062626	-0.142495	0.000070
C68	C	-0.150760	-0.128158	0.000050
C69	C	-0.151364	-0.187552	0.000045
C70	C	-0.107599	-0.224419	0.000052
C71	C	-0.063229	-0.201890	0.000065
C72	C	0.025515	-0.156837	0.000096
C73	C	0.024907	-0.216239	0.000097
C74	C	-0.019466	-0.238766	0.000084
C75	C	-0.020068	-0.298151	0.000067
N76	N	-0.064437	-0.320683	0.000060
C77	C	-0.108203	-0.283817	0.000053
C78	C	-0.016383	0.064170	0.000082
C79	C	-0.015778	0.123567	0.000077
C80	C	-0.103917	0.137902	0.000062
C81	C	-0.104521	0.078505	0.000063
C82	C	-0.060753	0.041639	0.000075
C83	C	-0.109467	-0.408551	0.000042
C84	C	-0.110067	-0.467951	0.000035
C85	C	-0.021928	-0.482282	0.000052
C86	C	-0.021328	-0.422886	0.000057
C87	C	-0.065102	-0.386021	0.000053
O88	O	0.017077	-0.335010	0.000054
O89	O	-0.145992	-0.308444	0.000054
N90	N	-0.062903	-0.672213	-0.143744
C91	C	-0.029873	-0.711209	0.563653
C92	C	-0.029869	-0.711211	0.627261
O93	O	-0.001762	-0.744380	0.660160
N94	N	-0.062906	-0.672199	0.659071
C95	C	-0.095945	-0.633177	0.627271
O96	O	-0.124044	-0.599994	0.660169
C97	C	-0.095945	-0.633172	0.563665
C98	C	-0.062910	-0.672191	0.531857
C99	C	0.003160	-0.750224	0.531846
C100	C	0.003156	-0.750222	0.468243
C101	C	-0.029881	-0.711205	0.436447
C102	C	-0.062914	-0.672189	0.468254
C103	C	-0.128981	-0.594148	0.531866
C104	C	-0.128979	-0.594147	0.468255
C105	C	-0.095943	-0.633166	0.436447
C106	C	-0.095955	-0.633170	0.372855
N107	N	-0.062919	-0.672182	0.341045
C108	C	-0.029881	-0.711200	0.372840
C109	C	-0.095940	-0.633190	0.760849
C110	C	-0.095942	-0.633197	0.824454
C111	C	-0.029866	-0.711231	0.824440
C112	C	-0.029867	-0.711226	0.760833
C113	C	-0.062904	-0.672202	0.729038
C114	C	-0.029893	-0.711193	0.239269
C115	C	-0.029901	-0.711189	0.175660
C116	C	-0.095975	-0.633153	0.175680
C117	C	-0.095969	-0.633159	0.239284
C118	C	-0.062924	-0.672181	0.271076
O119	O	-0.124047	-0.600017	0.339915
O120	O	-0.001783	-0.744372	0.339935
H121	H	0.094710	-0.770646	0.000095
H122	H	0.709776	-0.763286	0.000055
Cl123	Cl	0.172890	-0.557963	0.000062
H124	H	0.687991	-0.574829	0.000022
Cl125	Cl	-0.137480	-0.584150	0.864433
H126	H	-0.139553	0.167930	0.000059
H127	H	-0.186402	-0.098146	0.000047
H128	H	0.541520	-0.524585	0.000017
Cl129	Cl	0.815068	-0.785052	0.000046
Cl130	Cl	-0.164498	-0.362215	0.000037
H131	H	0.014804	-0.404543	0.000058
Cl132	Cl	0.436248	-0.502812	0.000018
Cl133	Cl	0.475364	-0.841133	0.000062
H134	H	-0.155881	-0.562376	0.557754
Cl135	Cl	-0.165854	-0.496268	0.000017
Cl136	Cl	0.040007	0.151880	0.000078
Cl137	Cl	-0.160306	0.050190	0.000049
Cl138	Cl	0.398772	-0.503251	0.000006
Cl139	Cl	0.199986	-0.792426	0.000079
H140	H	-0.002984	-0.742967	0.265148
H141	H	0.030065	-0.781997	0.557728
Cl142	Cl	0.081302	-0.128532	0.000102
H143	H	-0.122847	-0.601414	0.734965
H144	H	0.779443	-0.573737	0.000032
H145	H	0.019261	0.034156	0.000086
Cl146	Cl	-0.207150	-0.215864	0.000033
Cl147	Cl	0.079934	-0.262581	0.000113
H148	H	-0.155881	-0.562367	0.442371
Cl149	Cl	0.033088	-0.528639	0.000064
H150	H	-0.122874	-0.601392	0.265182
Cl151	Cl	0.011631	-0.760245	0.135677
Cl152	Cl	0.044691	-0.799273	0.428263
H153	H	-0.002967	-0.742998	0.734939
H154	H	-0.002965	-0.743000	0.850339
H155	H	0.072916	-0.582198	0.000067
Cl156	Cl	0.324126	-0.842944	0.000066
Cl157	Cl	0.437898	-0.841582	0.000072
Cl158	Cl	-0.137506	-0.584105	0.135698
Cl159	Cl	0.589154	-0.839761	0.000057
Cl160	Cl	0.284994	-0.504619	0.000010
