data_functionalizedCrystal
_audit_creation_method	'MofGen! by Chris Wilmer'
_symmetry_space_group_name_H-M	'P1'
_symmetry_Int_Tables_number	1
_symmetry_cell_setting	triclinic
loop_
_symmetry_equiv_pos_as_xyz
  x,y,z
_cell_length_a	16.109301
_cell_length_b	11.026607
_cell_length_c	15.186229
_cell_angle_alpha	89.998222
_cell_angle_beta	89.999362
_cell_angle_gamma	96.023749
loop_
_atom_site_label
_atom_site_type_symbol
_atom_site_fract_x
_atom_site_fract_y
_atom_site_fract_z
O1	O	1.126503	0.155971	-0.073169
O2	O	0.887350	0.175382	-0.073183
O3	O	0.987106	-0.010969	-0.073174
O4	O	1.026747	0.342322	-0.073178
O5	O	0.987097	-0.010971	0.073283
O6	O	0.887341	0.175379	0.073274
O7	O	1.126494	0.155969	0.073288
Zn8	Zn	1.006916	0.165674	0.096534
Zn9	Zn	1.006928	0.165677	-0.096429
O10	O	1.026738	0.342319	0.073279
C11	C	0.856253	0.174594	0.000044
C12	C	0.763604	0.172237	0.000039
C13	C	0.557080	0.277333	0.000048
C14	C	0.470027	0.275108	0.000053
C15	C	0.456769	0.054010	0.000052
C16	C	0.543821	0.056235	0.000053
C17	C	0.593975	0.167900	0.000046
C18	C	0.419869	0.163450	0.000051
C19	C	0.325481	0.161038	0.000057
C20	C	0.688369	0.170314	0.000042
C21	C	0.979788	-0.056178	0.000053
C22	C	0.957987	-0.190883	0.000049
C23	C	1.018183	-0.264713	0.000051
C24	C	0.995652	-0.403938	0.000046
C25	C	1.157591	0.156756	0.000059
C26	C	1.250240	0.159114	0.000059
C27	C	1.034056	0.387529	0.000050
C28	C	1.055857	0.522234	0.000049
N29	N	1.006914	0.165670	0.228227
N30	N	1.006935	0.165671	-0.228122
C31	C	1.051109	0.083182	0.453954
C32	C	1.051112	0.083179	0.546144
C33	C	0.962734	0.248163	0.546145
C34	C	0.962728	0.248159	0.453957
C35	C	1.006920	0.165670	0.407864
C36	C	1.006929	0.165671	0.592241
C37	C	1.006931	0.165669	0.692198
C38	C	1.006917	0.165671	0.307901
H39	H	0.415924	-0.036904	0.000063
H40	H	1.124077	-0.437909	-0.000014
H41	H	0.926740	0.315331	0.416428
C42	C	0.826265	-0.205393	-0.075252
C43	C	0.865895	-0.244687	0.000038
H44	H	0.769412	-0.238614	-0.075260
H45	H	0.829323	-0.118900	-0.075242
H46	H	0.853178	-0.232037	-0.126318
H47	H	0.838986	-0.218035	0.051104
H48	H	0.862832	-0.331198	0.000036
C49	C	1.068463	-0.126878	0.425626
C50	C	1.099670	-0.007526	0.403309
H51	H	1.098438	-0.182887	0.394364
H52	H	1.074784	-0.138642	0.487123
H53	H	1.011002	-0.140050	0.410511
H54	H	1.157130	0.005649	0.418431
H55	H	1.093356	0.004243	0.341798
H56	H	0.927432	-0.443797	0.000037
H57	H	0.573861	-0.032883	0.000054
C58	C	0.561438	0.495653	0.000060
C59	C	0.612210	0.400073	0.000052
H60	H	0.595472	0.571429	0.000070
H61	H	0.527212	0.490194	-0.051010
H62	H	0.527204	0.490169	0.051136
H63	H	0.646439	0.405552	-0.051027
H64	H	0.646450	0.405535	0.051128
C65	C	0.379820	0.400868	-0.075236
C66	C	0.429471	0.395399	0.000049
H67	H	0.354780	0.475132	-0.075233
H68	H	0.413504	0.397144	-0.126300
H69	H	0.337492	0.334046	-0.075223
H70	H	0.471802	0.462216	0.000033
H71	H	0.395784	0.399135	0.051126
C72	C	0.945339	0.458210	0.574513
C73	C	0.914161	0.338839	0.596808
H74	H	0.915347	0.514190	0.605785
H75	H	1.002792	0.471409	0.589623
H76	H	0.939009	0.469993	0.513010
H77	H	0.920497	0.327053	0.658310
H78	H	0.856695	0.325635	0.581704
C79	C	1.090357	0.009918	0.687458
C80	C	1.099686	-0.007493	0.596807
H81	H	1.120342	-0.046069	0.718733
H82	H	1.111507	0.090898	0.702560
H83	H	1.032894	-0.003287	0.702560
H84	H	1.157148	0.005722	0.581704
H85	H	1.078540	-0.088491	0.581699
C86	C	1.114769	-0.083403	0.000066
C87	C	1.110275	-0.210911	0.000061
H88	H	1.171625	-0.050193	0.000078
H89	H	1.087880	-0.056764	-0.051006
H90	H	1.087862	-0.056777	0.051140
H91	H	1.137178	-0.237537	-0.051017
H92	H	1.137176	-0.237560	0.051138
