data_functionalizedCrystal
_audit_creation_method	'MofGen! by Chris Wilmer'
_symmetry_space_group_name_H-M	'P1'
_symmetry_Int_Tables_number	1
_symmetry_cell_setting	triclinic
loop_
_symmetry_equiv_pos_as_xyz
  x,y,z
_cell_length_a	12.827893
_cell_length_b	19.121063
_cell_length_c	12.827885
_cell_angle_alpha	92.403785
_cell_angle_beta	89.980538
_cell_angle_gamma	92.468878
loop_
_atom_site_label
_atom_site_type_symbol
_atom_site_fract_x
_atom_site_fract_y
_atom_site_fract_z
Zn1	Zn	1.579838	-0.279578	-0.608539
Zn2	Zn	1.572238	-0.397045	-0.441232
Zn3	Zn	1.405076	-0.279613	-0.433815
Zn4	Zn	1.397574	-0.396992	-0.615928
O5	O	1.488682	-0.338307	-0.524878
O6	O	1.725065	-0.295168	-0.586357
O7	O	1.550023	-0.381504	-0.294014
O8	O	1.434579	-0.181324	-0.450795
O9	O	1.719482	-0.381470	-0.463437
O10	O	1.562975	-0.181298	-0.579165
O11	O	1.427210	-0.295227	-0.288565
O12	O	1.257845	-0.295176	-0.457961
O13	O	1.421793	-0.381381	-0.761182
O14	O	1.252334	-0.381414	-0.591759
O15	O	1.555701	-0.295117	-0.755753
O16	O	1.542749	-0.495322	-0.470602
O17	O	1.414424	-0.495284	-0.598951
C18	C	1.217172	-0.338293	-0.524858
C19	C	1.101019	-0.338305	-0.524875
C20	C	1.476976	-0.520787	-0.536406
C21	C	1.472064	-0.598853	-0.541373
C22	C	1.046530	-0.381045	-0.590989
C23	C	0.926479	-0.381057	-0.591008
C24	C	1.536620	-0.635525	-0.476937
C25	C	1.532006	-0.708876	-0.481614
C26	C	1.462831	-0.745553	-0.550723
C27	C	1.398272	-0.708876	-0.615166
C28	C	1.402892	-0.635526	-0.610493
C29	C	1.445542	-0.967022	-0.568177
C30	C	1.440925	-1.040377	-0.572842
C31	C	1.574661	-1.040372	-0.439292
C32	C	1.579270	-0.967021	-0.434621
C33	C	1.514716	-0.930350	-0.499067
C34	C	1.458111	-0.820530	-0.555503
C35	C	1.519441	-0.855374	-0.494292
C36	C	1.761251	-0.338321	-0.524900
C37	C	1.877403	-0.338327	-0.524909
C38	C	1.488758	-0.338239	-0.797444
C39	C	1.488790	-0.338210	-0.913596
C40	C	1.500461	-0.155115	-0.513328
C41	C	1.505481	-0.077049	-0.508406
C42	C	1.422550	-0.380879	-0.968066
C43	C	1.422582	-0.380850	-1.088115
C44	C	1.488669	-0.338324	-0.253370
C45	C	1.488851	-0.338155	-0.137206
H46	H	0.879630	-0.417651	-0.647607
C47	C	1.595532	-0.815033	-0.418272
C48	C	1.713698	-0.825042	-0.427533
C49	C	1.789785	-0.784693	-0.351510
C50	C	1.747708	-0.734335	-0.266226
C51	C	1.629536	-0.724323	-0.256962
C52	C	1.553449	-0.764672	-0.332985
H53	H	1.744851	-0.862322	-0.490668
H54	H	1.877264	-0.792104	-0.358368
H55	H	1.804032	-0.704466	-0.209949
H56	H	1.598382	-0.687043	-0.193827
H57	H	1.465970	-0.757261	-0.326127
C58	C	1.345964	-0.430203	-1.151373
C59	C	1.269202	-0.479658	-1.094595
C60	C	1.192581	-0.529013	-1.157855
C61	C	1.192722	-0.528913	-1.277895
C62	C	1.269487	-0.479457	-1.334680
C63	C	1.346108	-0.430102	-1.271419
H64	H	1.269095	-0.479733	-1.005728
H65	H	1.135754	-0.565624	-1.115819
H66	H	1.136003	-0.565449	-1.324724
H67	H	1.269595	-0.479382	-1.423546
H68	H	1.402935	-0.393491	-1.313456
H69	H	1.365819	-0.417433	-0.925825
H70	H	1.545561	-0.301620	-1.090380
C71	C	1.655363	-0.926683	-0.358592
C72	C	1.613286	-0.876334	-0.273296
C73	C	1.689373	-0.835999	-0.197257
C74	C	1.807537	-0.846013	-0.206515
C75	C	1.849620	-0.896364	-0.291815
C76	C	1.773533	-0.936699	-0.367853
H77	H	1.525808	-0.868919	-0.266440
H78	H	1.658219	-0.798726	-0.134113
H79	H	1.863861	-0.816154	-0.150227
H80	H	1.937098	-0.903778	-0.298671
H81	H	1.804687	-0.973972	-0.430997
H82	H	1.392977	-0.937170	-0.620650
H83	H	1.384607	-1.070237	-0.629137
H84	H	1.401786	-0.850401	-0.611769
C85	C	1.043984	-0.288881	-0.448422
C86	C	1.064000	-0.209034	-0.452083
C87	C	1.006968	-0.159608	-0.375628
C88	C	0.929920	-0.190030	-0.295511
C89	C	0.909900	-0.269882	-0.291847
C90	C	0.966932	-0.319307	-0.368302
H91	H	1.121039	-0.186510	-0.511393
H92	H	1.021789	-0.100497	-0.378341
H93	H	0.887702	-0.153443	-0.238915
H94	H	0.852862	-0.292406	-0.232537
H95	H	0.952112	-0.378419	-0.365589
H96	H	0.924245	-0.301736	-0.468300
H97	H	1.088758	-0.417624	-0.647580
C98	C	1.612715	-0.595183	-0.400916
C99	C	1.603618	-0.605339	-0.282757
C100	C	1.679718	-0.564999	-0.206737
C101	C	1.764916	-0.514502	-0.248876
C102	C	1.774016	-0.504343	-0.367041
C103	C	1.697916	-0.544684	-0.443061
H104	H	1.540547	-0.642722	-0.251558
H105	H	1.672981	-0.572519	-0.119264
H106	H	1.821250	-0.484640	-0.192602
H107	H	1.837088	-0.466961	-0.398240
H108	H	1.704654	-0.537163	-0.530535
C109	C	1.565441	-0.288828	-0.970650
C110	C	1.645476	-0.319293	-1.047639
C111	C	1.722129	-0.269909	-1.104689
C112	C	1.718746	-0.190059	-1.084751
C113	C	1.638707	-0.159590	-1.007758
C114	C	1.562055	-0.208974	-0.950707
H115	H	1.647983	-0.378406	-1.062402
H116	H	1.781379	-0.292465	-1.161685
H117	H	1.775489	-0.153502	-1.126983
H118	H	1.636200	-0.100477	-0.992994
H119	H	1.502805	-0.186418	-0.893712
H120	H	1.584574	-0.738731	-0.429143
H121	H	1.627219	-1.070237	-0.386825
H122	H	1.341952	-0.738744	-0.671440
H123	H	1.350325	-0.605668	-0.662965
