data_functionalizedCrystal
_audit_creation_method	'MofGen! by Chris Wilmer'
_symmetry_space_group_name_H-M	'P1'
_symmetry_Int_Tables_number	1
_symmetry_cell_setting	triclinic
loop_
_symmetry_equiv_pos_as_xyz
  x,y,z
_cell_length_a	15.995300
_cell_length_b	15.995350
_cell_length_c	9.198806
_cell_angle_alpha	89.999047
_cell_angle_beta	89.994470
_cell_angle_gamma	83.482091
loop_
_atom_site_label
_atom_site_type_symbol
_atom_site_fract_x
_atom_site_fract_y
_atom_site_fract_z
O1	O	1.111011	0.107724	-0.120938
O2	O	0.867230	0.121096	-0.120929
O3	O	0.995785	-0.007479	-0.120933
O4	O	0.982457	0.236299	-0.120935
O5	O	0.995775	-0.007479	0.120853
O6	O	0.867220	0.121095	0.120856
O7	O	1.111001	0.107724	0.120847
Cu8	Cu	0.989110	0.114410	0.142928
Cu9	Cu	0.989122	0.114410	-0.143010
O10	O	0.982447	0.236298	0.120850
C11	C	0.836030	0.120550	-0.000035
C12	C	0.743077	0.118915	-0.000032
C13	C	0.995229	-0.038674	-0.000043
C14	C	0.993577	-0.131624	-0.000051
C15	C	0.572894	0.115896	-0.000043
C16	C	0.525428	0.207443	-0.000040
C17	C	0.428740	0.205773	-0.000593
C18	C	0.405337	0.112924	-0.000052
C19	C	0.446476	0.067504	-0.137851
C20	C	0.543109	0.069820	-0.137962
C21	C	0.543377	0.068465	0.137002
C22	C	0.446433	0.068473	0.138809
C23	C	0.310642	0.111239	-0.000062
C24	C	0.667590	0.117577	-0.000042
C25	C	0.987644	-0.469370	-0.000046
C26	C	0.896090	-0.421920	-0.000584
C27	C	0.897743	-0.325230	-0.000039
C28	C	0.990587	-0.301810	-0.000049
C29	C	1.035739	-0.342896	0.138018
C30	C	1.033439	-0.439531	0.138133
C31	C	1.035342	-0.439890	-0.136822
C32	C	1.035320	-0.342944	-0.138646
C33	C	0.992255	-0.207113	-0.000046
C34	C	0.985979	-0.564068	-0.000039
C35	C	1.142202	0.108269	-0.000050
C36	C	1.235154	0.109904	-0.000063
C37	C	0.983003	0.267493	-0.000043
C38	C	0.984655	0.360443	-0.000044
N39	N	0.989107	0.114409	0.344042
N40	N	0.989131	0.114404	-0.344124
C41	C	1.043086	0.060188	0.416238
C42	C	1.043099	0.060185	0.583650
H43	H	0.400273	0.241462	0.098164
H44	H	0.545041	0.243686	-0.098709
H45	H	1.089287	0.013766	0.354110
O46	O	0.927910	0.175892	0.573641
H47	H	0.938748	0.241137	0.602748
H48	H	1.089315	0.013767	0.645735
O49	O	0.408916	0.108780	-0.274202
H50	H	0.378890	0.061875	-0.339115
O51	O	0.585870	-0.019220	-0.145770
H52	H	0.537500	-0.063742	-0.149460
O53	O	1.122469	-0.482276	0.146468
H54	H	1.158661	-0.463768	0.051051
O55	O	0.391854	0.252842	-0.132202
H56	H	0.322587	0.251820	-0.133049
O57	O	0.570513	0.108388	0.275403
H58	H	0.605345	0.162488	0.248050
O59	O	0.995728	-0.467083	-0.275471
H60	H	0.929092	-0.438928	-0.280375
O61	O	0.927916	0.175906	0.426342
H62	H	0.938760	0.241145	0.397195
O63	O	0.410230	0.112410	0.273859
H64	H	0.363158	0.165680	0.242231
H65	H	0.561433	0.102555	-0.241360
H66	H	0.431094	0.000779	0.147538
H67	H	0.543915	0.244234	0.098760
O68	O	0.427807	-0.022868	-0.144150
H69	H	0.358702	-0.024698	-0.148997
O70	O	0.585483	-0.020938	0.138791
H71	H	0.627236	-0.031580	0.042603
H72	H	0.862003	-0.297359	0.099104
O73	O	0.850713	-0.287560	-0.131115
H74	H	0.826580	-0.338399	-0.195463
H75	H	0.859501	-0.440445	-0.099594
O76	O	1.126090	-0.324199	0.144822
H77	H	1.156554	-0.353926	0.243322
O78	O	0.847823	-0.447847	0.129847
H79	H	0.888758	-0.494380	0.195057
H80	H	1.000506	-0.457827	0.241347
O81	O	0.994197	-0.305300	0.274135
H82	H	0.941400	-0.257366	0.243800
O83	O	0.991661	-0.306777	-0.273956
H84	H	0.938326	-0.259696	-0.242644
H85	H	1.103027	-0.327594	-0.146990
H86	H	1.102844	-0.471663	-0.137756
