data_functionalizedCrystal
_audit_creation_method	'MofGen! by Chris Wilmer'
_symmetry_space_group_name_H-M	'P1'
_symmetry_Int_Tables_number	1
_symmetry_cell_setting	triclinic
loop_
_symmetry_equiv_pos_as_xyz
  x,y,z
_cell_length_a	14.971486
_cell_length_b	18.266242
_cell_length_c	14.971486
_cell_angle_alpha	90.006550
_cell_angle_beta	83.614129
_cell_angle_gamma	90.004077
loop_
_atom_site_label
_atom_site_type_symbol
_atom_site_fract_x
_atom_site_fract_y
_atom_site_fract_z
O1	O	1.186950	0.060797	0.116564
O2	O	0.926550	0.060817	0.130523
O3	O	1.063730	0.060801	-0.006657
O4	O	1.049771	0.060813	0.253744
O5	O	1.063706	-0.060961	-0.006664
O6	O	0.926527	-0.060945	0.130516
O7	O	1.186927	-0.060965	0.116557
Zn8	Zn	1.056723	-0.080287	0.123535
Zn9	Zn	1.056754	0.080139	0.123545
O10	O	1.049748	-0.060949	0.253736
C11	C	0.893214	-0.000061	0.129895
C12	C	0.793917	-0.000054	0.128024
C13	C	0.736691	-0.000051	0.208614
C14	C	0.643392	-0.000062	0.206850
C15	C	0.607320	-0.000071	0.124497
C16	C	0.664552	-0.000075	0.043902
C17	C	0.757850	-0.000070	0.045666
C18	C	0.470090	-0.000086	0.040231
C19	C	0.376786	-0.000090	0.038466
C20	C	0.355632	-0.000078	0.201415
C21	C	0.448930	-0.000073	0.203179
C22	C	0.506156	-0.000076	0.122584
N23	N	1.056709	-0.189774	0.123528
C24	C	1.117472	-0.228090	0.062815
C25	C	1.117478	-0.304735	0.062811
C26	C	1.056729	-0.343061	0.123535
C27	C	0.995954	-0.304736	0.184253
C28	C	0.995944	-0.228093	0.184250
N29	N	1.045429	-0.463389	0.202669
N30	N	1.045443	-0.536197	0.202670
C31	C	1.056754	-0.573983	0.123549
N32	N	1.068067	-0.536211	0.044424
N33	N	1.068056	-0.463396	0.044424
C34	C	1.056733	-0.426168	0.123546
C35	C	1.117527	-0.695406	0.062826
C36	C	1.117526	-0.772053	0.062820
C37	C	0.996007	-0.772052	0.184270
C38	C	0.996003	-0.695408	0.184268
C39	C	1.056768	-0.657089	0.123547
C40	C	1.220263	-0.000085	0.117185
C41	C	1.319561	-0.000087	0.119056
C42	C	1.063094	-0.000079	-0.039985
C43	C	1.061223	-0.000079	-0.139282
N44	N	1.056776	0.189626	0.123544
C45	C	1.141812	-0.000085	-0.196507
C46	C	1.140049	-0.000078	-0.289807
C47	C	1.057696	-0.000069	-0.325879
C48	C	0.977101	-0.000060	-0.268646
C49	C	0.978865	-0.000062	-0.175349
C50	C	0.973430	-0.000057	-0.463109
C51	C	0.971665	-0.000056	-0.556413
C52	C	1.134614	-0.000073	-0.577567
C53	C	1.136378	-0.000075	-0.484269
C54	C	1.055782	-0.000067	-0.427043
C55	C	1.050384	-0.000067	0.287065
C56	C	1.052254	-0.000063	0.386362
H57	H	0.516682	-0.000089	-0.025399
H58	H	1.167004	-0.803250	0.013376
F59	F	0.626159	-0.000089	-0.043745
F60	F	0.887650	-0.000047	-0.402206
F61	F	1.224028	-0.000083	-0.445880
F62	F	1.182139	-0.187310	-0.001812
F63	F	0.931348	-0.812838	0.248892
H64	H	1.200238	-0.000076	-0.624165
H65	H	1.166960	-0.335937	0.013369
F66	F	0.931298	-0.345526	0.248878
H67	H	0.804443	-0.000071	-0.019958
F68	F	0.884016	-0.000047	-0.594802
H69	H	0.596802	-0.000059	0.272474
H70	H	0.946463	-0.196895	0.233691
H71	H	1.167002	-0.664206	0.013380
F72	F	0.931335	-0.654626	0.248891
F73	F	1.229465	-0.000102	-0.158125
F74	F	1.225824	-0.000086	-0.350707
F75	F	0.889454	-0.000042	-0.307040
F76	F	0.893090	-0.000053	-0.114445
H77	H	0.478296	-0.000059	0.270239
F78	F	0.775073	-0.000038	0.296267
H79	H	0.347419	-0.000098	-0.028593
F80	F	0.294727	-0.000076	0.287192
