data_functionalizedCrystal
_audit_creation_method	'MofGen! by Chris Wilmer'
_symmetry_space_group_name_H-M	'P1'
_symmetry_Int_Tables_number	1
_symmetry_cell_setting	triclinic
loop_
_symmetry_equiv_pos_as_xyz
  x,y,z
_cell_length_a	15.995350
_cell_length_b	19.188930
_cell_length_c	14.472310
_cell_angle_alpha	89.993787
_cell_angle_beta	89.990621
_cell_angle_gamma	83.318578
loop_
_atom_site_label
_atom_site_type_symbol
_atom_site_fract_x
_atom_site_fract_y
_atom_site_fract_z
O1	O	1.110667	0.089991	-0.076773
O2	O	1.610667	0.589991	0.423227
O3	O	0.866851	0.101105	-0.076794
O4	O	1.366851	0.601105	0.423206
O5	O	0.995795	-0.006090	-0.076765
O6	O	1.495795	0.493910	0.423235
O7	O	0.981723	0.197186	-0.076802
O8	O	1.481723	0.697186	0.423198
O9	O	0.995762	-0.006083	0.076917
O10	O	1.495762	0.493917	0.576917
O11	O	0.866818	0.101111	0.076888
O12	O	1.366818	0.601111	0.576888
O13	O	1.110634	0.089998	0.076909
O14	O	1.610634	0.589998	0.576909
Cu15	Cu	0.988723	0.095555	0.090931
Cu16	Cu	1.488723	0.595555	0.590931
Cu17	Cu	0.988762	0.095547	-0.090816
Cu18	Cu	1.488762	0.595547	0.409184
O19	O	0.981690	0.197192	0.076880
O20	O	1.481690	0.697192	0.576880
C21	C	0.835641	0.100648	0.000045
C22	C	1.335641	0.600648	0.500045
C23	C	0.742696	0.099271	0.000038
C24	C	1.242696	0.599271	0.500038
C25	C	0.404967	0.094324	0.000058
C26	C	0.904967	0.594324	0.500058
C27	C	0.452680	0.017982	0.000415
C28	C	0.952680	0.517982	0.500415
C29	C	0.549365	0.019360	0.000062
C30	C	1.049365	0.519360	0.500062
C31	C	0.572518	0.096778	0.000049
C32	C	1.072518	0.596778	0.500049
C33	C	0.531312	0.134429	-0.087714
C34	C	1.031312	0.634429	0.412286
C35	C	0.434683	0.132511	-0.087781
C36	C	0.934683	0.632511	0.412219
C37	C	0.434301	0.134095	0.086984
C38	C	0.934301	0.634095	0.586984
C39	C	0.531246	0.134077	0.088137
C40	C	1.031246	0.634077	0.588137
C41	C	0.667211	0.098169	0.000040
C42	C	1.167211	0.598169	0.500040
C43	C	0.310274	0.092936	0.000060
C44	C	0.810274	0.592936	0.500060
C45	C	0.995323	-0.032099	0.000079
C46	C	1.495323	0.467901	0.500079
C47	C	0.993955	-0.109607	0.000087
C48	C	1.493955	0.390393	0.500087
C49	C	1.069615	-0.154338	0.000097
C50	C	1.569615	0.345662	0.500097
C51	C	1.068330	-0.227165	0.000082
C52	C	1.568330	0.272835	0.500082
C53	C	0.991380	-0.255258	0.000075
C54	C	1.491380	0.244742	0.500075
C55	C	0.915710	-0.210517	0.000059
C56	C	1.415710	0.289483	0.500059
C57	C	0.916997	-0.137691	0.000065
C58	C	1.416997	0.362309	0.500065
N59	N	0.932550	-0.363410	0.052371
N60	N	1.432550	0.136590	0.552371
N61	N	0.931332	-0.432592	0.052368
N62	N	1.431332	0.067408	0.552368
C63	C	0.987497	-0.474676	0.000056
C64	C	1.487497	0.025324	0.500056
N65	N	1.044938	-0.444967	-0.052240
N66	N	1.544938	0.055033	0.447760
N67	N	1.046158	-0.375779	-0.052233
N68	N	1.546158	0.124221	0.447767
C69	C	0.989976	-0.334224	0.000069
C70	C	1.489976	0.165776	0.500069
C71	C	1.061769	-0.598375	0.000050
C72	C	1.561769	-0.098375	0.500050
C73	C	1.060480	-0.671204	0.000029
C74	C	1.560480	-0.171204	0.500029
C75	C	0.907859	-0.654553	0.000015
C76	C	1.407859	-0.154553	0.500015
C77	C	0.909149	-0.581727	0.000027
C78	C	1.409149	-0.081727	0.500027
C79	C	0.986106	-0.553643	0.000048
C80	C	1.486106	-0.053643	0.500048
C81	C	1.141843	0.090454	0.000068
C82	C	1.641843	0.590454	0.500068
C83	C	1.234789	0.091831	0.000069
C84	C	1.734789	0.591831	0.500069
C85	C	0.982162	0.223201	0.000034
C86	C	1.482162	0.723201	0.500034
C87	C	0.983530	0.300709	0.000020
C88	C	1.483530	0.800709	0.500020
N89	N	0.988701	0.095560	0.218762
N90	N	1.488701	0.595560	0.718762
N91	N	0.988790	0.095537	-0.218647
N92	N	1.488790	0.595537	0.281353
C93	C	0.988761	0.095545	0.592853
C94	C	1.488761	0.595545	1.092853
C95	C	0.919535	0.152710	0.553672
C96	C	1.419535	0.652710	1.053672
C97	C	0.919694	0.152918	0.446584
C98	C	1.419694	0.652918	0.946584
C99	C	0.988731	0.095552	0.407262
C100	C	1.488731	0.595552	0.907262
C101	C	1.076037	0.111464	0.446103
C102	C	1.576037	0.611464	0.946103
C103	C	1.075648	0.111870	0.553224
C104	C	1.575648	0.611870	1.053224
C105	C	0.971460	0.022298	0.553394
C106	C	1.471460	0.522298	1.053394
C107	C	0.969454	0.022787	0.446266
C108	C	1.469454	0.522787	0.946266
C109	C	0.988719	0.095555	0.302374
C110	C	1.488719	0.595555	0.802374
C111	C	0.988778	0.095543	0.697741
C112	C	1.488778	0.595543	1.197741
H113	H	0.546404	0.190533	0.093428
H114	H	1.046404	0.690533	0.593428
H115	H	1.124432	-0.575508	0.000063
H116	H	1.624432	-0.075508	0.500063
Br117	Br	1.163171	-0.731913	0.000034
Br118	Br	1.663171	-0.231913	0.500034
Br119	Br	0.803425	-0.692671	-0.000004
Br120	Br	1.303425	-0.192671	0.499996
H121	H	0.847538	-0.545305	0.000023
H122	H	1.347538	-0.045305	0.500023
H123	H	0.854789	0.143438	0.420324
H124	H	1.354789	0.643438	0.920324
H125	H	1.021946	-0.020242	0.578732
H126	H	1.521946	0.479758	1.078732
Br127	Br	0.404354	0.086740	-0.197111
Br128	Br	0.904354	0.586740	0.302889
H129	H	0.402333	0.190382	0.087568
H130	H	0.902333	0.690382	0.587568
Br131	Br	0.578783	0.090837	-0.196566
Br132	Br	1.078783	0.590837	0.303434
Br133	Br	1.171018	-0.287884	0.000093
Br134	Br	1.671018	0.212116	0.500093
H135	H	0.854420	0.143386	0.579456
H136	H	1.354420	0.643386	1.079456
H137	H	0.855384	-0.101270	0.000057
H138	H	1.355384	0.398730	0.500057
Br139	Br	0.937654	0.242800	0.598486
Br140	Br	1.437654	0.742800	1.098486
H141	H	0.545229	0.191306	-0.090987
H142	H	1.045229	0.691306	0.409013
H143	H	1.132280	-0.131477	0.000112
H144	H	1.632280	0.368523	0.500112
Br145	Br	0.938022	0.243523	0.403835
Br146	Br	1.438022	0.743523	0.903835
Br147	Br	1.101127	0.200903	0.594844
Br148	Br	1.601127	0.700903	1.094844
H149	H	1.016620	-0.021746	0.419504
H150	H	1.516620	0.478254	0.919504
H151	H	0.909193	0.006998	0.580460
H152	H	1.409193	0.506998	1.080460
Br153	Br	0.862412	0.002657	0.403960
Br154	Br	1.362412	0.502657	0.903960
H155	H	0.577889	-0.010236	0.062975
H156	H	1.077889	0.489764	0.562975
H157	H	1.128755	0.071875	0.579141
H158	H	1.628755	0.571875	1.079141
Br159	Br	1.163933	0.043913	0.403657
Br160	Br	1.663933	0.543913	0.903657
H161	H	0.434256	-0.012531	0.063354
H162	H	0.934256	0.487469	0.563354
Br163	Br	1.102142	0.199481	0.401361
Br164	Br	1.602142	0.699481	0.901361
Br165	Br	0.811277	-0.248640	0.000038
Br166	Br	1.311277	0.251360	0.500038
H167	H	0.577346	-0.010441	-0.062950
H168	H	1.077346	0.489559	0.437050
Br169	Br	0.420226	-0.032657	-0.103882
Br170	Br	0.920226	0.467343	0.396118
H171	H	0.402230	0.188560	-0.091773
H172	H	0.902230	0.688560	0.408227
H173	H	0.413843	0.109140	0.153506
H174	H	0.913843	0.609140	0.653506
H175	H	0.558650	0.106592	0.153064
H176	H	1.058650	0.606592	0.653064
