data_functionalizedCrystal
_audit_creation_method	'MofGen! by Chris Wilmer'
_symmetry_space_group_name_H-M	'P1'
_symmetry_Int_Tables_number	1
_symmetry_cell_setting	triclinic
loop_
_symmetry_equiv_pos_as_xyz
  x,y,z
_cell_length_a	19.805407
_cell_length_b	12.759399
_cell_length_c	19.805399
_cell_angle_alpha	90.023653
_cell_angle_beta	90.019573
_cell_angle_gamma	90.015116
loop_
_atom_site_label
_atom_site_type_symbol
_atom_site_fract_x
_atom_site_fract_y
_atom_site_fract_z
Zn1	Zn	1.034789	-0.418291	0.382738
Zn2	Zn	1.534789	0.081709	0.882738
Zn3	Zn	1.034726	-0.593984	0.269558
Zn4	Zn	1.534726	-0.093984	0.769558
Zn5	Zn	0.921603	-0.418320	0.269563
Zn6	Zn	1.421603	0.081680	0.769563
Zn7	Zn	0.921589	-0.593928	0.382704
Zn8	Zn	1.421589	-0.093928	0.882704
O9	O	0.978177	-0.506131	0.326141
O10	O	1.478177	-0.006131	0.826141
O11	O	1.129497	-0.441608	0.367736
O12	O	1.629497	0.058392	0.867736
O13	O	1.019700	-0.570717	0.174842
O14	O	1.519700	-0.070717	0.674842
O15	O	0.936650	-0.271295	0.284592
O16	O	1.436650	0.228705	0.784592
O17	O	1.129451	-0.570689	0.284583
O18	O	1.629451	-0.070689	0.784583
O19	O	1.019807	-0.271273	0.367741
O20	O	1.519807	0.228727	0.867741
O21	O	0.936589	-0.441657	0.174845
O22	O	1.436589	0.058343	0.674845
O23	O	0.826885	-0.441603	0.284559
O24	O	1.326885	0.058397	0.784559
O25	O	0.936626	-0.570594	0.477425
O26	O	1.436626	-0.070594	0.977425
O27	O	0.826875	-0.570622	0.367684
O28	O	1.326875	-0.070622	0.867684
O29	O	1.019793	-0.441554	0.477450
O30	O	1.519793	0.058446	0.977450
O31	O	1.019686	-0.740998	0.284551
O32	O	1.519686	-0.240998	0.784551
O33	O	0.936565	-0.740957	0.367679
O34	O	1.436565	-0.240957	0.867679
C35	C	0.802321	-0.506110	0.326119
C36	C	1.302321	-0.006110	0.826119
C37	C	0.727089	-0.506127	0.326126
C38	C	1.227089	-0.006127	0.826126
C39	C	0.691757	-0.573408	0.369339
C40	C	1.191757	-0.073408	0.869339
C41	C	0.621069	-0.573410	0.369348
C42	C	1.121069	-0.073410	0.869348
C43	C	0.585713	-0.506135	0.326141
C44	C	1.085713	-0.006135	0.826141
C45	C	0.621050	-0.438847	0.282926
C46	C	1.121050	0.061153	0.782926
C47	C	0.691737	-0.438840	0.282920
C48	C	1.191737	0.061160	0.782920
C49	C	0.335977	-0.438870	0.282948
C50	C	0.835977	0.061130	0.782948
C51	C	0.265285	-0.438884	0.282956
C52	C	0.765285	0.061116	0.782956
C53	C	0.265308	-0.573440	0.369376
C54	C	0.765308	-0.073440	0.869376
C55	C	0.335995	-0.573433	0.369370
C56	C	0.835995	-0.073433	0.869370
C57	C	0.371326	-0.506141	0.326158
C58	C	0.871326	-0.006141	0.826158
C59	C	0.447974	-0.506139	0.326149
C60	C	0.947974	-0.006139	0.826149
C61	C	0.509066	-0.506143	0.326146
C62	C	1.009066	-0.006143	0.826146
C63	C	0.978135	-0.779098	0.326125
C64	C	1.478135	-0.279098	0.826125
C65	C	0.978180	-0.895875	0.326141
C66	C	1.478180	-0.395875	0.826141
C67	C	1.021510	-0.950723	0.282906
C68	C	1.521510	-0.450723	0.782906
C69	C	1.021554	-1.060447	0.282928
C70	C	1.521554	-0.560447	0.782928
C71	C	0.934930	-1.060465	0.369424
C72	C	1.434930	-0.560465	0.869424
C73	C	0.934891	-0.950743	0.369405
C74	C	1.434891	-0.450743	0.869405
C75	C	1.101446	-1.210321	0.258846
C76	C	1.601446	-0.710321	0.758846
C77	C	1.144771	-1.265173	0.215599
C78	C	1.644771	-0.765173	0.715599
C79	C	1.155188	-1.229620	0.149559
C80	C	1.655188	-0.729620	0.649559
C81	C	1.122271	-1.139217	0.126751
C82	C	1.622271	-0.639217	0.626751
C83	C	1.078942	-1.084370	0.169994
C84	C	1.578942	-0.584370	0.669994
C85	C	1.068537	-1.119922	0.236044
C86	C	1.568537	-0.619922	0.736044
C87	C	0.854997	-0.800867	0.393480
C88	C	1.354997	-0.300867	0.893480
C89	C	0.811663	-0.746018	0.436720
C90	C	1.311663	-0.246018	0.936720
C91	C	0.801239	-0.781569	0.502762
C92	C	1.301239	-0.281569	1.002762
C93	C	0.834144	-0.871976	0.525567
C94	C	1.334144	-0.371976	1.025567
C95	C	0.877478	-0.926825	0.482327
C96	C	1.377478	-0.426825	0.982327
C97	C	0.887903	-0.891266	0.416286
C98	C	1.387903	-0.391266	0.916286
C99	C	1.154720	-0.506152	0.326163
C100	C	1.654720	-0.006152	0.826163
C101	C	1.229952	-0.506160	0.326173
C102	C	1.729952	-0.006160	0.826173
C103	C	0.978215	-0.506064	0.502684
C104	C	1.478215	-0.006064	1.002684
C105	C	0.978231	-0.506036	0.577916
C106	C	1.478231	-0.006036	1.077916
C107	C	0.978237	-0.232097	0.326171
C108	C	1.478237	0.267903	0.826171
C109	C	0.978263	-0.115321	0.326184
C110	C	1.478263	0.384679	0.826184
C111	C	0.978178	-0.506121	0.150285
C112	C	1.478178	-0.006121	0.650285
C113	C	0.978293	-0.505853	0.075053
C114	C	1.478293	-0.005853	0.575053
C115	C	1.021537	-0.438842	0.613274
C116	C	1.521537	0.061158	1.113274
C117	C	1.021544	-0.438811	0.683962
C118	C	1.521544	0.061189	1.183962
C119	C	0.978248	-0.505981	0.719291
C120	C	1.478248	-0.005981	1.219291
C121	C	0.934937	-0.573179	0.683928
C122	C	1.434937	-0.073179	1.183928
C123	C	0.934927	-0.573203	0.613241
C124	C	1.434927	-0.073203	1.113241
C125	C	0.934975	-0.573081	0.969002
C126	C	1.434975	-0.073081	1.469002
C127	C	0.934990	-0.573054	1.039694
C128	C	1.434990	-0.073054	1.539694
C129	C	1.021592	-0.438689	1.039723
C130	C	1.521592	0.061311	1.539723
C131	C	1.021582	-0.438713	0.969036
C132	C	1.521582	0.061287	1.469036
C133	C	0.978269	-0.505906	0.933679
C134	C	1.478269	-0.005906	1.433679
C135	C	0.978261	-0.505937	0.857030
C136	C	1.478261	-0.005937	1.357030
C137	C	0.978259	-0.505957	0.795938
C138	C	1.478259	-0.005957	1.295938
H139	H	0.592258	-0.384066	0.247749
H140	H	1.092258	0.115934	0.747749
F141	F	1.090371	-1.248158	0.329138
F142	F	1.590371	-0.748158	0.829138
F143	F	0.888833	-0.644718	0.575610
F144	F	1.388833	-0.144718	1.075610
H145	H	1.190465	-1.274288	0.114348
H146	H	1.690465	-0.774288	0.614348
H147	H	0.899717	-0.627809	0.940222
H148	H	1.399717	-0.127809	1.440222
H149	H	0.720538	-0.628195	0.404521
H150	H	1.220538	-0.128195	0.904521
F151	F	1.067666	-0.367226	0.931440
F152	F	1.567666	0.132774	1.431440
H153	H	0.863486	-0.771906	0.339705
H154	H	1.363486	-0.271906	0.839705
F155	F	1.067623	-0.367354	0.575680
F156	F	1.567623	0.132646	1.075680
F157	F	1.179802	-1.361384	0.239875
F158	F	1.679802	-0.861384	0.739875
H159	H	0.592304	-0.628198	0.404536
H160	H	1.092304	-0.128198	0.904536
H161	H	1.056760	-0.906052	0.247679
H162	H	1.556760	-0.406052	0.747679
H163	H	1.056857	-0.383973	1.068519
H164	H	1.556857	0.116027	1.568519
H165	H	1.056810	-0.384097	0.712748
H166	H	1.556810	0.115903	1.212748
F167	F	0.888855	-0.644662	0.721530
F168	F	1.388855	-0.144662	1.221530
H169	H	0.899685	-1.105151	0.404647
H170	H	1.399685	-0.605151	0.904647
F171	F	0.373619	-0.645040	0.415355
F172	F	0.873619	-0.145040	0.915355
F173	F	0.912499	-1.023045	0.506600
F174	F	1.412499	-0.523045	1.006600
F175	F	0.227701	-0.645058	0.415367
F176	F	0.727701	-0.145058	0.915367
H177	H	0.236500	-0.384094	0.247771
H178	H	0.736500	0.115906	0.747771
F179	F	0.373569	-0.367249	0.236960
F180	F	0.873569	0.132751	0.736960
H181	H	0.825657	-0.900922	0.579344
H182	H	1.325657	-0.400922	1.079344
F183	F	0.729340	-0.367228	0.236928
F184	F	1.229340	0.132772	0.736928
F185	F	1.043907	-0.988166	0.145723
F186	F	1.543907	-0.488166	0.645723
H187	H	0.899730	-0.627754	1.068457
H188	H	1.399730	-0.127754	1.568457
H189	H	1.130751	-1.110283	0.072972
H190	H	1.630751	-0.610283	0.572972
F191	F	0.755086	-0.723226	0.548767
F192	F	1.255086	-0.223226	1.048767
F193	F	0.776624	-0.649819	0.412439
F194	F	1.276624	-0.149819	0.912439
