data_functionalizedCrystal
_audit_creation_method	'MofGen! by Chris Wilmer'
_symmetry_space_group_name_H-M	'P1'
_symmetry_Int_Tables_number	1
_symmetry_cell_setting	triclinic
loop_
_symmetry_equiv_pos_as_xyz
  x,y,z
_cell_length_a	15.538191
_cell_length_b	27.732048
_cell_length_c	14.750779
_cell_angle_alpha	77.459753
_cell_angle_beta	97.572172
_cell_angle_gamma	64.957374
loop_
_atom_site_label
_atom_site_type_symbol
_atom_site_fract_x
_atom_site_fract_y
_atom_site_fract_z
O1	O	1.231553	-0.143284	-0.079812
O2	O	1.731553	0.356716	0.420188
O3	O	0.956477	-0.087327	-0.079821
O4	O	1.456477	0.412673	0.420179
O5	O	1.102563	-0.187172	-0.079798
O6	O	1.602563	0.312828	0.420202
O7	O	1.085467	-0.043439	-0.079835
O8	O	1.585467	0.456561	0.420165
O9	O	1.143860	-0.215394	0.079859
O10	O	1.643860	0.284606	0.579859
O11	O	0.997774	-0.115550	0.079836
O12	O	1.497774	0.384450	0.579836
O13	O	1.272849	-0.171506	0.079845
O14	O	1.772849	0.328494	0.579845
Zn15	Zn	1.141868	-0.148009	0.105189
Zn16	Zn	1.641868	0.351991	0.605189
Zn17	Zn	1.087458	-0.110825	-0.105165
Zn18	Zn	1.587458	0.389175	0.394835
O19	O	1.126764	-0.071662	0.079822
O20	O	1.626764	0.428338	0.579822
C21	C	0.941944	-0.095584	0.000007
C22	C	1.441944	0.404416	0.500007
C23	C	0.837116	-0.078145	0.000004
C24	C	1.337116	0.421855	0.500004
C25	C	0.551855	-0.251395	0.000034
C26	C	1.051855	0.248605	0.500034
C27	C	0.453349	-0.234996	0.000029
C28	C	0.953349	0.265004	0.500029
C29	C	0.429558	-0.142756	0.000005
C30	C	0.929558	0.357244	0.500005
C31	C	0.528065	-0.159148	0.000015
C32	C	1.028065	0.340852	0.500015
C33	C	0.589206	-0.213468	0.000028
C34	C	1.089206	0.286532	0.500028
C35	C	0.565415	-0.121222	0.000009
C36	C	1.065415	0.378778	0.500009
C37	C	0.663912	-0.137612	0.000014
C38	C	1.163912	0.362388	0.500014
C39	C	0.725059	-0.191928	0.000024
C40	C	1.225059	0.308072	0.500024
C41	C	0.687703	-0.229858	0.000032
C42	C	1.187703	0.270142	0.500032
C43	C	0.504271	-0.066901	-0.000011
C44	C	1.004271	0.433099	0.499989
C45	C	0.541621	-0.028974	-0.000017
C46	C	1.041621	0.471026	0.499983
C47	C	0.640122	-0.045365	-0.000005
C48	C	1.140122	0.454635	0.499995
C49	C	0.701268	-0.099682	0.000005
C50	C	1.201268	0.400318	0.500005
C51	C	0.677478	-0.007436	-0.000014
C52	C	1.177478	0.492564	0.499986
C53	C	0.775975	-0.023826	-0.000009
C54	C	1.275975	0.476174	0.499991
C55	C	0.799765	-0.116072	0.000010
C56	C	1.299765	0.383928	0.500010
C57	C	1.122853	-0.219229	0.000033
C58	C	1.622853	0.280771	0.500033
C59	C	1.121775	-0.272700	0.000041
C60	C	1.621775	0.227300	0.500041
C61	C	1.201288	-0.625155	-0.000006
C62	C	1.701288	-0.125155	0.499994
C63	C	1.197277	-0.826125	-0.000019
C64	C	1.697277	-0.326125	0.499981
O65	O	1.269986	-0.869854	-0.000059
O66	O	1.769986	-0.369854	0.499941
N67	N	1.110657	-0.830382	-0.000021
N68	N	1.610657	-0.330382	0.499979
C69	C	1.025032	-0.784391	-0.000026
C70	C	1.525032	-0.284391	0.499974
O71	O	0.951262	-0.792622	-0.000038
O72	O	1.451262	-0.292622	0.499962
C73	C	1.029042	-0.583422	-0.000019
C74	C	1.529042	-0.083422	0.499981
C75	C	1.115670	-0.579170	-0.000008
C76	C	1.615670	-0.079170	0.499992
C77	C	1.287908	-0.620901	0.000005
C78	C	1.787908	-0.120901	0.500005
C79	C	1.288911	-0.570663	0.000014
C80	C	1.788911	-0.070663	0.500014
C81	C	1.203294	-0.524678	0.000012
C82	C	1.703294	-0.024678	0.500012
C83	C	1.116673	-0.528931	0.000001
C84	C	1.616673	-0.028931	0.500001
C85	C	0.943416	-0.537431	-0.000031
C86	C	1.443416	-0.037431	0.499969
C87	C	0.944426	-0.487187	-0.000032
C88	C	1.444426	0.012813	0.499968
C89	C	1.031054	-0.482935	-0.000020
C90	C	1.531054	0.017065	0.499980
C91	C	1.032059	-0.432708	0.000008
C92	C	1.532059	0.067292	0.500008
N93	N	1.118679	-0.428450	0.000010
N94	N	1.618679	0.071550	0.500010
C95	C	1.204296	-0.474435	0.000012
C96	C	1.704296	0.025565	0.500012
C97	C	1.022934	-0.889905	-0.000028
C98	C	1.522934	-0.389905	0.499972
C99	C	1.021931	-0.940147	-0.000028
C100	C	1.521931	-0.440147	0.499972
C101	C	1.194176	-0.981877	-0.000022
C102	C	1.694176	-0.481877	0.499978
C103	C	1.195179	-0.931635	-0.000016
C104	C	1.695179	-0.431635	0.499984
C105	C	1.109554	-0.885648	-0.000026
C106	C	1.609554	-0.385648	0.499974
C107	C	1.206396	-0.368929	0.000031
C108	C	1.706396	0.131071	0.500031
C109	C	1.207393	-0.318685	0.000043
C110	C	1.707393	0.181315	0.500043
C111	C	1.035147	-0.276959	0.000033
C112	C	1.535147	0.223041	0.500033
C113	C	1.034152	-0.327199	0.000025
C114	C	1.534152	0.172801	0.500025
C115	C	1.119783	-0.373185	0.000021
C116	C	1.619783	0.126815	0.500021
O117	O	0.959386	-0.388955	0.000036
O118	O	1.459386	0.111045	0.500036
O119	O	1.278050	-0.466189	0.000002
O120	O	1.778050	0.033811	0.500002
C121	C	1.200285	-0.675394	-0.000014
C122	C	1.700285	-0.175394	0.499986
C123	C	1.113664	-0.679647	-0.000025
C124	C	1.613664	-0.179647	0.499975
C125	C	1.028046	-0.633662	-0.000027
C126	C	1.528046	-0.133662	0.499973
C127	C	1.112662	-0.729890	-0.000025
C128	C	1.612662	-0.229890	0.499975
C129	C	1.198279	-0.775875	-0.000023
C130	C	1.698279	-0.275875	0.499977
C131	C	1.284899	-0.771617	-0.000021
C132	C	1.784899	-0.271617	0.499979
C133	C	1.285902	-0.721379	-0.000012
C134	C	1.785902	-0.221379	0.499988
C135	C	0.941427	-0.637920	-0.000029
C136	C	1.441427	-0.137920	0.499971
C137	C	0.940431	-0.688160	-0.000036
C138	C	1.440431	-0.188160	0.499964
C139	C	1.026048	-0.734145	-0.000034
C140	C	1.526048	-0.234145	0.499966
C141	C	1.287382	-0.163249	0.000015
C142	C	1.787382	0.336751	0.500015
C143	C	1.392208	-0.180687	0.000012
C144	C	1.892208	0.319313	0.500012
C145	C	1.106473	-0.039604	-0.000011
C146	C	1.606473	0.460396	0.499989
C147	C	1.107549	0.013868	-0.000025
C148	C	1.607549	0.513868	0.499975
N149	N	1.179009	-0.173388	0.248751
N150	N	1.679009	0.326612	0.748751
N151	N	1.050325	-0.085451	-0.248727
N152	N	1.550325	0.414549	0.251273
C153	C	0.946598	-0.014593	0.600532
C154	C	1.446598	0.485407	1.100532
C155	C	0.972630	-0.032375	0.701036
C156	C	1.472630	0.467625	1.201036
C157	C	1.102015	-0.120767	0.701019
C158	C	1.602015	0.379233	1.201019
C159	C	1.075991	-0.102994	0.600514
C160	C	1.575991	0.397006	1.100514
C161	C	0.998282	-0.049906	0.550278
C162	C	1.498282	0.450094	1.050278
C163	C	1.127675	-0.138307	0.550259
C164	C	1.627675	0.361693	1.050259
C165	C	1.101655	-0.120534	0.449763
C166	C	1.601655	0.379466	0.949763
C167	C	1.023951	-0.067447	0.399521
C168	C	1.523951	0.432553	0.899521
C169	C	0.972262	-0.032133	0.449782
C170	C	1.472262	0.467867	0.949782
C171	C	1.205388	-0.191393	0.600497
C172	C	1.705388	0.308607	1.100497
C173	C	1.257072	-0.226706	0.550242
C174	C	1.757072	0.273294	1.050242
C175	C	1.231048	-0.208935	0.449744
C176	C	1.731048	0.291065	0.949744
C177	C	1.153344	-0.155848	0.399502
C178	C	1.653344	0.344152	0.899502
C179	C	1.282737	-0.244249	0.399483
C180	C	1.782737	0.255751	0.899483
C181	C	1.256717	-0.226476	0.298986
C182	C	1.756717	0.273524	0.798986
C183	C	1.127325	-0.138075	0.299005
C184	C	1.627325	0.361925	0.799005
H185	H	0.627680	0.036793	-0.000034
H186	H	1.127680	0.536793	0.499966
H187	H	1.064040	-0.094847	0.258102
H188	H	1.564040	0.405153	0.758102
N189	N	0.398040	-0.049226	0.000007
N190	N	0.898040	0.450774	0.500007
H191	H	0.364975	-0.009061	-0.000003
H192	H	0.864975	0.490939	0.499997
H193	H	0.363746	-0.052962	-0.059168
H194	H	0.863746	0.447038	0.440832
H195	H	1.276125	-0.406366	0.000023
H196	H	1.776125	0.093634	0.500023
N197	N	0.413080	-0.275914	0.000048
N198	N	0.913080	0.224086	0.500048
H199	H	0.388055	-0.281633	0.059234
H200	H	0.888055	0.218367	0.559234
H201	H	0.357472	-0.260684	-0.059175
H202	H	0.857472	0.239316	0.440825
H203	H	1.346015	-0.287472	0.440398
H204	H	1.846015	0.212528	0.940398
H205	H	0.951395	-0.943606	-0.000020
H206	H	1.451395	-0.443606	0.499980
N207	N	0.846987	-0.692737	-0.000037
N208	N	1.346987	-0.192737	0.499963
H209	H	0.794208	-0.664400	-0.059224
H210	H	1.294208	-0.164400	0.440776
H211	H	0.859415	-0.731557	-0.000006
H212	H	1.359415	-0.231557	0.499994
N213	N	0.753658	-0.288449	0.000060
N214	N	1.253658	0.211551	0.500060
H215	H	0.726416	-0.295303	-0.059118
H216	H	1.226416	0.204697	0.440882
H217	H	0.821703	-0.293036	0.000098
H218	H	1.321703	0.206964	0.500098
N219	N	0.363610	-0.084170	-0.000014
N220	N	0.863610	0.415830	0.499986
H221	H	0.295544	-0.079541	-0.000018
H222	H	0.795544	0.420459	0.499982
H223	H	0.390940	-0.077358	0.059171
H224	H	0.890940	0.422642	0.559171
H225	H	0.871704	-0.600480	-0.000033
H226	H	1.371704	-0.100480	0.499967
H227	H	0.963619	-0.330665	0.000043
H228	H	1.463619	0.169335	0.500043
H229	H	0.965441	-0.239510	0.000035
H230	H	1.465441	0.260490	0.500035
H231	H	0.953203	-0.852463	-0.000035
H232	H	1.453203	-0.352463	0.499965
N233	N	1.382348	-0.566085	0.000006
N234	N	1.882348	-0.066085	0.500006
H235	H	1.371294	-0.535705	-0.059181
H236	H	1.871294	-0.035705	0.440819
H237	H	1.401885	-0.556660	0.059228
H238	H	1.901885	-0.056660	0.559228
N239	N	0.849984	-0.542010	-0.000032
N240	N	1.349984	-0.042010	0.499968
H241	H	0.795907	-0.505250	-0.000035
H242	H	1.295907	-0.005250	0.499965
H243	H	0.830498	-0.551479	-0.059218
H244	H	1.330498	-0.051479	0.440782
H245	H	1.226573	-0.205861	0.682327
H246	H	1.726573	0.294139	1.182327
N247	N	0.475674	0.029612	-0.000036
N248	N	0.975674	0.529612	0.499964
H249	H	0.407607	0.034241	-0.000040
H250	H	0.907607	0.534241	0.499960
H251	H	0.503003	0.036423	0.059149
H252	H	1.003003	0.536423	0.559149
N253	N	1.380261	-0.670497	0.000008
N254	N	1.880261	-0.170497	0.500008
H255	H	1.435278	-0.660169	0.000016
H256	H	1.935278	-0.160169	0.500016
H257	H	1.398909	-0.702717	0.059199
H258	H	1.898909	-0.202717	0.559199
H259	H	1.320346	-0.269930	0.591155
H260	H	1.820346	0.230070	1.091155
N261	N	0.816268	0.017079	-0.000020
N262	N	1.316268	0.517079	0.499980
H263	H	0.762591	0.053976	-0.000026
H264	H	1.262591	0.553976	0.499974
H265	H	0.871927	0.001823	0.059167
H266	H	1.371927	0.501823	0.559167
N267	N	1.300834	-0.314104	0.000053
N268	N	1.800834	0.185896	0.500053
H269	H	1.289785	-0.283721	-0.059126
H270	H	1.789785	0.216279	0.440874
H271	H	1.320355	-0.304681	0.059283
H272	H	1.820355	0.195319	0.559283
N273	N	0.852069	-0.437585	-0.000047
N274	N	1.352069	0.062415	0.499953
H275	H	0.797045	-0.447907	-0.000055
H276	H	1.297045	0.052093	0.499945
H277	H	0.864035	-0.426297	0.059142
H278	H	1.364035	0.073703	0.559142
N279	N	1.379337	-0.716797	0.000002
N280	N	1.879337	-0.216797	0.500002
H281	H	1.433416	-0.753556	0.000002
H282	H	1.933416	-0.253556	0.500002
H283	H	1.368204	-0.686395	-0.059182
H284	H	1.868204	-0.186395	0.440818
N285	N	1.288614	-0.927053	-0.000006
N286	N	1.788614	-0.427053	0.499994
H287	H	1.277569	-0.896674	-0.059190
H288	H	1.777569	-0.396674	0.440810
H289	H	1.308132	-0.917626	0.059219
H290	H	1.808132	-0.417626	0.559219
N291	N	0.831299	-0.209610	0.000041
N292	N	1.331299	0.290390	0.500041
H293	H	0.864362	-0.249776	0.000051
H294	H	1.364362	0.250224	0.500051
H295	H	0.834973	-0.184953	-0.059147
H296	H	1.334973	0.315047	0.440853
N297	N	1.377248	-0.821222	-0.000010
N298	N	1.877248	-0.321222	0.499990
H299	H	1.363458	-0.853692	-0.000015
H300	H	1.863458	-0.353692	0.499985
H301	H	1.399724	-0.811088	-0.059194
H302	H	1.899724	-0.311088	0.440806
H303	H	1.002770	-0.052976	0.317690
H304	H	1.502770	0.447024	0.817690
N305	N	0.888438	0.025124	0.395588
N306	N	1.388438	0.525124	0.895588
H307	H	0.859637	0.044799	0.442671
H308	H	1.359637	0.544799	0.942671
H309	H	0.913479	0.047593	0.353880
H310	H	1.413479	0.547593	0.853880
H311	H	1.263889	-1.019327	-0.000020
H312	H	1.763889	-0.519327	0.499980
N313	N	0.617813	-0.309983	0.000052
N314	N	1.117813	0.190017	0.500052
H315	H	0.674516	-0.329297	0.059240
H316	H	1.174516	0.170703	0.559240
H317	H	0.579134	-0.331481	0.000024
H318	H	1.079134	0.168519	0.500024
H319	H	0.883313	0.028635	0.559629
H320	H	1.383313	0.528635	1.059629
N321	N	0.916889	0.005718	0.755241
N322	N	1.416889	0.505718	1.255241
H323	H	0.863717	0.042045	0.708164
H324	H	1.363717	0.542045	1.208164
H325	H	0.886207	-0.012895	0.796953
H326	H	1.386207	0.487105	1.296953
H327	H	1.165289	-0.163991	0.741932
H328	H	1.665289	0.336009	1.241932
N329	N	1.312462	-0.264559	0.244775
N330	N	1.812462	0.235441	0.744775
H331	H	1.365636	-0.300888	0.291848
H332	H	1.865636	0.199112	0.791848
H333	H	1.265827	-0.272277	0.203087
H334	H	1.765827	0.227723	0.703087
H335	H	0.849552	-0.160306	0.000026
H336	H	1.349552	0.339694	0.500026
