data_functionalizedCrystal
_audit_creation_method	'MofGen! by Chris Wilmer'
_symmetry_space_group_name_H-M	'P1'
_symmetry_Int_Tables_number	1
_symmetry_cell_setting	triclinic
loop_
_symmetry_equiv_pos_as_xyz
  x,y,z
_cell_length_a	14.044191
_cell_length_b	14.044220
_cell_length_c	14.048226
_cell_angle_alpha	89.992807
_cell_angle_beta	89.996146
_cell_angle_gamma	93.190327
loop_
_atom_site_label
_atom_site_type_symbol
_atom_site_fract_x
_atom_site_fract_y
_atom_site_fract_z
O1	O	1.277175	0.230202	-0.079119
O2	O	1.610508	0.563535	0.254215
O3	O	1.943842	0.896869	0.587548
O4	O	1.000503	0.221889	-0.079131
O5	O	1.333836	0.555223	0.254203
O6	O	1.667169	0.888556	0.587536
O7	O	1.134686	0.087710	-0.079116
O8	O	1.468019	0.421043	0.254218
O9	O	1.801353	0.754377	0.587551
O10	O	1.142992	0.364382	-0.079134
O11	O	1.476325	0.697715	0.254199
O12	O	1.809658	1.031048	0.587533
O13	O	1.134668	0.087700	0.079206
O14	O	1.468001	0.421033	0.412539
O15	O	1.801334	0.754366	0.745872
O16	O	1.000484	0.221879	0.079191
O17	O	1.333818	0.555213	0.412524
O18	O	1.667151	0.888546	0.745857
O19	O	1.277157	0.230192	0.079202
O20	O	1.610490	0.563525	0.412536
O21	O	1.943823	0.896859	0.745869
Zn22	Zn	1.138818	0.226034	0.104333
Zn23	Zn	1.472151	0.559367	0.437667
Zn24	Zn	1.805484	0.892701	0.771000
Zn25	Zn	1.138842	0.226047	-0.104262
Zn26	Zn	1.472175	0.559381	0.229072
Zn27	Zn	1.805508	0.892714	0.562405
O28	O	1.142973	0.364372	0.079187
O29	O	1.476307	0.697705	0.412521
O30	O	1.809640	1.031038	0.745854
C31	C	0.964872	0.218248	0.000029
C32	C	1.298205	0.551581	0.333362
C33	C	1.631538	0.884914	0.666695
C34	C	0.858728	0.207401	0.000024
C35	C	1.192062	0.540734	0.333358
C36	C	1.525395	0.874067	0.666691
C37	C	0.613270	0.264501	0.000030
C38	C	0.946603	0.597834	0.333363
C39	C	1.279937	0.931168	0.666697
C40	C	0.664395	0.187585	0.000033
C41	C	0.997729	0.520918	0.333367
C42	C	1.331062	0.854251	0.666700
C43	C	0.772532	0.198613	0.000028
C44	C	1.105866	0.531946	0.333362
C45	C	1.439199	0.865280	0.666695
C46	C	0.505123	0.253474	0.000035
C47	C	0.838457	0.586808	0.333368
C48	C	1.171790	0.920141	0.666702
C49	C	1.131041	0.052083	0.000045
C50	C	1.464375	0.385416	0.333379
C51	C	1.797708	0.718750	0.666712
C52	C	1.120197	-0.054060	0.000046
C53	C	1.453530	0.279273	0.333379
C54	C	1.786863	0.612607	0.666713
C55	C	1.100370	-0.248398	0.000032
C56	C	1.433704	0.084935	0.333365
C57	C	1.767037	0.418268	0.666698
C58	C	1.177285	-0.299526	0.000032
C59	C	1.510618	0.033807	0.333365
C60	C	1.843952	0.367140	0.666699
C61	C	1.166253	-0.407663	0.000024
C62	C	1.499587	-0.074329	0.333357
C63	C	1.832920	0.259004	0.666690
C64	C	1.111400	-0.140252	0.000040
C65	C	1.444734	0.193081	0.333373
C66	C	1.778067	0.526415	0.666706
C67	C	1.312788	0.233834	0.000041
C68	C	1.646121	0.567167	0.333374
C69	C	1.979455	0.900500	0.666708
C70	C	1.418931	0.244681	0.000039
C71	C	1.752264	0.578014	0.333372
C72	C	2.085598	0.911348	0.666706
C73	C	1.146618	0.399998	0.000024
C74	C	1.479952	0.733332	0.333358
C75	C	1.813285	1.066665	0.666691
C76	C	1.157463	0.506142	0.000017
C77	C	1.490796	0.839475	0.333351
C78	C	1.824130	1.172808	0.666684
N79	N	1.138808	0.226025	0.246694
N80	N	1.472141	0.559358	0.580027
N81	N	1.805475	0.892692	0.913361
N82	N	1.138858	0.226050	-0.246622
N83	N	1.472192	0.559383	0.086711
N84	N	1.805525	0.892716	0.420044
C85	C	1.198247	0.166639	0.296519
C86	C	1.531580	0.499972	0.629852
C87	C	1.864914	0.833305	0.963186
C88	C	1.198254	0.166639	0.396177
C89	C	1.531587	0.499972	0.729510
C90	C	1.864920	0.833305	1.062843
C91	C	1.138825	0.226031	0.446008
C92	C	1.472158	0.559364	0.779341
C93	C	1.805492	0.892697	1.112674
C94	C	1.079379	0.285419	0.396176
C95	C	1.412713	0.618753	0.729509
C96	C	1.746046	0.952086	1.062843
C97	C	1.079369	0.285414	0.296520
C98	C	1.412702	0.618747	0.629853
C99	C	1.746035	0.952080	0.963187
C100	C	1.079408	0.285429	0.603890
C101	C	1.412741	0.618762	0.937223
C102	C	1.746074	0.952095	1.270557
C103	C	1.079419	0.285436	0.703553
C104	C	1.412753	0.618769	1.036886
C105	C	1.746086	0.952102	1.370220
C106	C	1.198292	0.166654	0.703547
C107	C	1.531626	0.499987	1.036880
C108	C	1.864959	0.833320	1.370213
C109	C	1.198282	0.166648	0.603891
C110	C	1.531615	0.499981	0.937224
C111	C	1.864948	0.833315	1.270557
C112	C	1.138837	0.226038	0.554066
C113	C	1.472170	0.559372	0.887399
C114	C	1.805504	0.892705	1.220733
H115	H	1.251419	-0.262085	-0.000029
H116	H	1.584752	0.071248	0.333305
H117	H	1.918085	0.404582	0.666638
Cl118	Cl	0.671077	0.378949	0.000011
Cl119	Cl	1.004410	0.712283	0.333344
Cl120	Cl	1.337743	1.045616	0.666677
H121	H	1.031026	0.333798	0.744120
H122	H	1.364359	0.667131	1.077454
H123	H	1.697692	1.000464	1.410787
Cl124	Cl	0.985920	-0.306201	0.000022
Cl125	Cl	1.319253	0.027132	0.333355
Cl126	Cl	1.652587	0.360465	0.666689
H127	H	1.246645	0.118279	0.255953
H128	H	1.579978	0.451613	0.589286
H129	H	1.913311	0.784946	0.922620
Cl130	Cl	0.606590	0.073129	0.000040
Cl131	Cl	0.939923	0.406462	0.333374
Cl132	Cl	1.273257	0.739795	0.666707
H133	H	1.246652	0.118281	0.436743
H134	H	1.579986	0.451615	0.770077
H135	H	1.913319	0.784948	1.103410
H136	H	1.246677	0.118292	0.563319
H137	H	1.580011	0.451625	0.896652
H138	H	1.913344	0.784959	1.229985
H139	H	1.246694	0.118296	0.744120
H140	H	1.580027	0.451629	1.077453
H141	H	1.913360	0.784963	1.410787
Cl142	Cl	1.004672	0.360090	0.541257
Cl143	Cl	1.338006	0.693424	0.874590
Cl144	Cl	1.671339	1.026757	1.207924
Cl145	Cl	1.004663	0.360080	0.458818
Cl146	Cl	1.337996	0.693413	0.792152
Cl147	Cl	1.671330	1.026747	1.125485
H148	H	1.030966	0.333771	0.255954
H149	H	1.364300	0.667104	0.589287
H150	H	1.697633	1.000437	0.922620
