data_functionalizedCrystal
_audit_creation_method	'MofGen! by Chris Wilmer'
_symmetry_space_group_name_H-M	'P1'
_symmetry_Int_Tables_number	1
_symmetry_cell_setting	triclinic
loop_
_symmetry_equiv_pos_as_xyz
  x,y,z
_cell_length_a	8.559649
_cell_length_b	17.699083
_cell_length_c	16.776229
_cell_angle_alpha	89.992455
_cell_angle_beta	89.992917
_cell_angle_gamma	76.530839
loop_
_atom_site_label
_atom_site_type_symbol
_atom_site_fract_x
_atom_site_fract_y
_atom_site_fract_z
O1	O	2.120233	-0.025681	-0.066274
O2	O	1.654878	0.013416	-0.066280
O3	O	1.900703	-0.117074	-0.066270
O4	O	1.874408	0.104810	-0.066284
O5	O	1.900670	-0.117080	0.066307
O6	O	1.654845	0.013411	0.066297
O7	O	2.120201	-0.025686	0.066302
Zn8	Zn	1.887518	-0.006138	0.087349
Zn9	Zn	1.887561	-0.006132	-0.087326
O10	O	1.874376	0.104804	0.066292
C11	C	1.595320	0.016376	0.000008
C12	C	1.417906	0.025195	0.000006
C13	C	1.899745	-0.145220	0.000019
C14	C	1.896918	-0.229076	0.000019
C15	C	2.041212	-0.285959	0.000022
C16	C	2.038547	-0.364749	0.000015
C17	C	1.891585	-0.386656	0.000010
C18	C	1.747280	-0.329767	0.000005
C19	C	1.749947	-0.250978	0.000007
C20	C	1.736521	-0.647514	-0.000001
C21	C	1.733865	-0.726310	-0.000000
C22	C	2.025120	-0.761286	0.000007
C23	C	2.027787	-0.682496	0.000008
C24	C	1.883483	-0.625614	-0.000001
C25	C	1.886375	-0.540181	0.000005
C26	C	1.888692	-0.472088	0.000010
C27	C	2.179758	-0.028646	0.000013
C28	C	2.357173	-0.037465	0.000009
C29	C	1.875334	0.132950	0.000002
C30	C	1.878161	0.216806	-0.000003
N31	N	1.887500	-0.006144	0.206560
N32	N	1.887591	-0.006132	-0.206538
C33	C	1.996385	-0.063906	0.248282
C34	C	1.996394	-0.063907	0.331734
C35	C	1.887524	-0.006143	0.373463
C36	C	1.778628	0.051622	0.331736
C37	C	1.778613	0.051619	0.248285
C38	C	1.778686	0.051634	0.668283
C39	C	1.778713	0.051633	0.751740
C40	C	1.996467	-0.063893	0.751732
C41	C	1.996451	-0.063896	0.668281
C42	C	1.887550	-0.006134	0.626561
C43	C	1.887540	-0.006134	0.536073
C44	C	1.887541	-0.006139	0.463950
H45	H	2.160885	-0.268130	0.000030
N46	N	1.307024	0.105207	0.000024
H47	H	1.327514	0.134434	-0.049117
H48	H	1.191791	0.100330	0.000060
H49	H	2.085045	-0.110942	0.214311
N50	N	1.661224	0.113935	0.623301
H51	H	1.679417	0.166601	0.637813
H52	H	1.677766	0.105106	0.564116
H53	H	2.085054	-0.110942	0.365703
N54	N	2.113867	-0.126196	0.623267
H55	H	2.227262	-0.124042	0.637774
H56	H	2.095537	-0.178829	0.637818
H57	H	2.085135	-0.110928	0.785709
N58	N	1.661275	0.113935	0.796751
H59	H	1.592278	0.150525	0.757659
H60	H	1.590765	0.089029	0.831388
N61	N	1.575346	-0.749936	-0.000018
H62	H	1.595560	-0.808481	-0.000015
H63	H	1.512190	-0.728531	0.049124
H64	H	1.689977	0.098653	0.365717
N65	N	1.661166	0.113916	0.203281
H66	H	1.592200	0.150511	0.242378
H67	H	1.722200	0.143845	0.168641
H68	H	2.156046	-0.411061	0.000019
N69	N	1.468064	-0.117469	0.000023
H70	H	1.447599	-0.146683	-0.049120
H71	H	1.583289	-0.112579	0.000056
N72	N	2.186300	-0.658874	0.000017
H73	H	2.249515	-0.680226	-0.049129
H74	H	2.165965	-0.600328	0.000049
N75	N	2.180766	-0.822640	0.000001
H76	H	2.274267	-0.796805	0.000008
H77	H	2.185992	-0.856100	0.049147
N78	N	1.580886	-0.586169	-0.000008
H79	H	1.487387	-0.612005	-0.000007
H80	H	1.575634	-0.552721	0.049139
H81	H	1.627621	-0.347609	-0.000003
H82	H	1.632448	-0.204663	0.000004
