data_functionalizedCrystal
_audit_creation_method	'MofGen! by Chris Wilmer'
_symmetry_space_group_name_H-M	'P1'
_symmetry_Int_Tables_number	1
_symmetry_cell_setting	triclinic
loop_
_symmetry_equiv_pos_as_xyz
  x,y,z
_cell_length_a	16.109318
_cell_length_b	15.944493
_cell_length_c	15.186229
_cell_angle_alpha	90.002130
_cell_angle_beta	90.000224
_cell_angle_gamma	83.471803
loop_
_atom_site_label
_atom_site_type_symbol
_atom_site_fract_x
_atom_site_fract_y
_atom_site_fract_z
O1	O	1.103134	0.108039	-0.073144
O2	O	1.603134	0.608039	0.426856
O3	O	0.861076	0.121460	-0.073160
O4	O	1.361076	0.621460	0.426840
O5	O	0.988740	-0.007531	-0.073159
O6	O	1.488740	0.492469	0.426841
O7	O	0.975470	0.237029	-0.073145
O8	O	1.475470	0.737029	0.426855
O9	O	0.988732	-0.007533	0.073299
O10	O	1.488732	0.492467	0.573299
O11	O	0.861067	0.121458	0.073297
O12	O	1.361067	0.621458	0.573297
O13	O	1.103126	0.108037	0.073314
O14	O	1.603126	0.608037	0.573314
Zn15	Zn	0.982095	0.114747	0.096559
Zn16	Zn	1.482095	0.614747	0.596559
Zn17	Zn	0.982106	0.114750	-0.096405
Zn18	Zn	1.482106	0.614750	0.403595
O19	O	0.975461	0.237027	0.073312
O20	O	1.475461	0.737027	0.573312
C21	C	0.830097	0.120913	0.000066
C22	C	1.330097	0.620913	0.500066
C23	C	0.737802	0.119275	0.000059
C24	C	1.237802	0.619275	0.500059
C25	C	0.438733	0.113987	-0.079759
C26	C	0.938733	0.613987	0.420241
C27	C	0.525454	0.115520	-0.079765
C28	C	1.025454	0.615520	0.420235
C29	C	0.525464	0.115507	0.079911
C30	C	1.025464	0.615507	0.579911
C31	C	0.438744	0.113968	0.079916
C32	C	0.938744	0.613968	0.579916
C33	C	0.395381	0.113212	0.000078
C34	C	0.895381	0.613212	0.500078
C35	C	0.568821	0.116284	0.000068
C36	C	1.068821	0.616284	0.500068
C37	C	0.662848	0.117947	0.000063
C38	C	1.162848	0.617947	0.500063
C39	C	0.301348	0.111548	0.000083
C40	C	0.801348	0.611548	0.500083
C41	C	0.988194	-0.038826	0.000066
C42	C	1.488194	0.461174	0.500066
C43	C	0.986568	-0.132074	0.000055
C44	C	1.486568	0.367926	0.500055
C45	C	1.061714	-0.367854	0.000077
C46	C	1.561714	0.132146	0.500077
C47	C	1.021194	-0.418411	-0.072137
C48	C	1.521194	0.081589	0.427863
C49	C	0.983555	-0.302795	0.000065
C50	C	1.483555	0.197205	0.500065
C51	C	1.021168	-0.418389	0.072259
C52	C	1.521168	0.081611	0.572259
C53	C	0.980650	-0.467703	0.000079
C54	C	1.480650	0.032297	0.500079
C55	C	0.943056	-0.352123	-0.072208
C56	C	1.443056	0.147877	0.427792
C57	C	0.943041	-0.352097	0.072253
C58	C	1.443041	0.147903	0.572253
C59	C	0.902464	-0.402621	0.000022
C60	C	1.402464	0.097379	0.500022
C61	C	0.985230	-0.207795	0.000056
C62	C	1.485230	0.292205	0.500056
C63	C	0.978968	-0.562700	0.000082
C64	C	1.478968	-0.062700	0.500082
C65	C	1.134105	0.108584	0.000085
C66	C	1.634105	0.608584	0.500085
C67	C	1.226400	0.110221	0.000086
C68	C	1.726400	0.610221	0.500086
C69	C	0.976008	0.268323	0.000085
C70	C	1.476008	0.768323	0.500085
C71	C	0.977634	0.361571	0.000091
C72	C	1.477634	0.861571	0.500091
N73	N	0.982094	0.114745	0.228251
N74	N	1.482094	0.614745	0.728251
N75	N	0.982115	0.114745	-0.228098
N76	N	1.482115	0.614745	0.271902
C77	C	1.038643	0.057647	0.453975
C78	C	1.538643	0.557647	0.953975
C79	C	1.038645	0.057645	0.546164
C80	C	1.538645	0.557645	1.046164
C81	C	0.925560	0.171846	0.546172
C82	C	1.425560	0.671846	1.046172
C83	C	0.925554	0.171843	0.453984
C84	C	1.425554	0.671843	0.953984
C85	C	0.982100	0.114745	0.407888
C86	C	1.482100	0.614745	0.907888
C87	C	0.982108	0.114745	0.592266
C88	C	1.482108	0.614745	1.092266
C89	C	0.982111	0.114744	0.692222
C90	C	1.482111	0.614744	1.192222
C91	C	0.982097	0.114745	0.307925
C92	C	1.482097	0.614745	0.807925
H93	H	0.403446	0.113336	0.144932
H94	H	0.903446	0.613336	0.644932
N95	N	1.099638	-0.003931	0.595873
N96	N	1.599638	0.496069	1.095873
H97	H	1.136437	0.028191	0.634120
H98	H	1.636437	0.528191	1.134120
H99	H	1.067822	-0.041122	0.634074
H100	H	1.567822	0.458878	1.134074
H101	H	0.879506	0.218339	0.416458
H102	H	1.379506	0.718339	0.916458
H103	H	1.129038	-0.352244	0.000008
H104	H	1.629038	0.147756	0.500008
N105	N	1.064891	-0.456721	0.153130
N106	N	1.564891	0.043279	0.653130
H107	H	1.113331	-0.498901	0.134713
H108	H	1.613331	0.001099	0.634713
H109	H	1.086282	-0.410695	0.189512
H110	H	1.586282	0.089305	0.689512
H111	H	0.560781	0.116124	0.144912
H112	H	1.060781	0.616124	0.644912
H113	H	1.054206	-0.447365	-0.133184
H114	H	1.554206	0.052635	0.366816
N115	N	1.099627	-0.003935	0.404254
N116	N	1.599627	0.496065	0.904254
H117	H	1.135446	-0.040107	0.447443
H118	H	1.635446	0.459893	0.947443
H119	H	1.067804	-0.041082	0.366006
H120	H	1.567804	0.458918	0.866006
H121	H	0.403428	0.113371	-0.144768
H122	H	0.903428	0.613371	0.355232
N123	N	0.864578	0.233427	0.595898
N124	N	1.364578	0.733427	1.095898
H125	H	0.896344	0.270631	0.634143
H126	H	1.396344	0.770631	1.134143
H127	H	0.828768	0.269540	0.552658
H128	H	1.328768	0.769540	1.052658
N129	N	0.572214	0.116348	-0.165874
N130	N	1.072214	0.616348	0.334126
H131	H	0.531582	0.115634	-0.216446
H132	H	1.031582	0.615634	0.283554
H133	H	0.601452	0.169025	-0.169350
H134	H	1.101452	0.669025	0.330650
H135	H	0.835088	-0.418069	-0.000022
H136	H	1.335088	0.081931	0.499978
H137	H	0.910071	-0.323293	-0.133324
H138	H	1.410071	0.176707	0.366676
H139	H	0.910058	-0.323128	0.133302
H140	H	1.410058	0.176872	0.633302
