data_functionalizedCrystal
_audit_creation_method	'MofGen! by Chris Wilmer'
_symmetry_space_group_name_H-M	'P1'
_symmetry_Int_Tables_number	1
_symmetry_cell_setting	triclinic
loop_
_symmetry_equiv_pos_as_xyz
  x,y,z
_cell_length_a	13.033293
_cell_length_b	15.299816
_cell_length_c	13.032268
_cell_angle_alpha	107.904846
_cell_angle_beta	89.079182
_cell_angle_gamma	88.701182
loop_
_atom_site_label
_atom_site_type_symbol
_atom_site_fract_x
_atom_site_fract_y
_atom_site_fract_z
Zn1	Zn	1.547015	-0.282160	-0.844279
Zn2	Zn	1.591185	-0.412492	-0.701313
Zn3	Zn	1.396051	-0.277371	-0.649389
Zn4	Zn	1.403941	-0.450299	-0.859767
O5	O	1.484548	-0.355580	-0.763687
O6	O	1.694415	-0.285631	-0.840563
O7	O	1.580483	-0.376741	-0.546549
O8	O	1.394290	-0.151091	-0.647030
O9	O	1.726867	-0.381385	-0.735526
O10	O	1.505202	-0.154609	-0.790215
O11	O	1.437119	-0.277468	-0.508401
O12	O	1.255557	-0.314128	-0.662048
O13	O	1.407737	-0.445822	-1.005588
O14	O	1.261354	-0.441178	-0.816611
O15	O	1.512853	-0.322291	-0.994210
O16	O	1.588134	-0.544422	-0.750544
O17	O	1.450567	-0.572199	-0.866959
C18	C	1.221755	-0.381237	-0.735376
C19	C	1.109333	-0.392237	-0.723295
C20	C	1.043159	-0.349862	-0.769997
C21	C	0.926964	-0.361231	-0.757512
C22	C	1.525025	-0.591219	-0.816092
C23	C	1.542429	-0.692021	-0.838557
C24	C	1.360779	-0.969092	-0.603559
C25	C	1.344421	-0.874385	-0.582455
C26	C	1.393922	-0.828789	-0.646478
C27	C	1.459783	-0.877911	-0.731610
C28	C	1.476137	-0.972629	-0.752722
C29	C	1.509280	-0.832325	-0.795641
C30	C	1.575141	-0.881447	-0.880774
C31	C	1.591492	-0.976156	-0.901881
C32	C	1.541991	-1.021752	-0.837858
C33	C	1.492926	-0.737607	-0.774529
C34	C	1.608284	-0.741144	-0.923692
C35	C	1.624642	-0.835851	-0.944797
C36	C	1.748367	-0.329825	-0.792109
C37	C	1.860791	-0.318849	-0.804221
C38	C	1.456248	-0.388808	-1.039314
C39	C	1.444188	-0.402967	-1.156769
C40	C	1.443939	-0.119022	-0.711103
C41	C	1.426634	-0.018215	-0.688695
C42	C	1.490821	-0.348159	-1.203505
C43	C	1.478358	-0.362793	-1.324901
C44	C	1.512785	-0.322411	-0.489124
C45	C	1.524997	-0.307977	-0.371633
H46	H	1.380600	-0.751673	-0.629288
H47	H	1.574145	-0.250212	-1.321775
H48	H	0.897600	-0.405927	-0.708279
O49	O	1.078127	-0.296402	-0.828585
C50	C	1.039164	-0.205723	-0.782828
H51	H	1.017895	-0.193679	-0.694264
H52	H	1.100058	-0.155283	-0.789476
H53	H	0.968035	-0.194880	-0.827740
O54	O	1.385477	-0.471892	-1.216077
C55	C	1.344561	-0.520027	-1.149058
H56	H	1.342704	-0.473803	-1.061724
H57	H	1.263270	-0.541310	-1.174594
H58	H	1.394619	-0.583891	-1.156663
H59	H	0.890153	-0.274145	-0.853445
O60	O	1.074263	-0.445681	-0.664734
C61	C	1.017047	-0.517498	-0.731308
H62	H	1.041409	-0.530140	-0.819201
H63	H	1.031662	-0.582748	-0.708330
H64	H	0.931806	-0.497679	-0.720226
O65	O	1.428828	-0.690015	-0.691894
C66	C	1.329643	-0.725839	-0.709236
H67	H	1.335219	-0.799698	-0.764955
H68	H	1.292750	-0.724371	-0.628792
H69	H	1.280757	-0.682418	-0.747983
H70	H	1.539967	-0.290400	-1.153642
H71	H	1.290796	-0.834393	-0.513142
H72	H	1.429196	-0.420548	-1.374757
O73	O	1.312653	-1.013507	-0.541541
C74	C	1.250555	-1.081938	-0.606829
H75	H	1.280383	-1.102241	-0.693926
H76	H	1.252961	-1.144701	-0.577177
H77	H	1.168111	-1.054207	-0.602175
O78	O	1.557702	-1.113782	-0.858433
C79	C	1.463431	-1.158215	-0.882076
H80	H	1.407438	-1.113289	-0.911447
H81	H	1.476361	-1.226966	-0.947638
H82	H	1.430267	-1.170320	-0.806264
H83	H	1.645117	-1.016149	-0.971206
O84	O	1.688460	-0.883647	-1.027603
C85	C	1.633279	-0.952321	-1.101790
H86	H	1.548033	-0.932390	-1.093320
H87	H	1.661621	-0.959592	-1.187309
H88	H	1.645562	-1.020511	-1.084732
H89	H	1.648590	-0.704021	-0.975828
