data_functionalizedCrystal
_audit_creation_method	'MofGen! by Chris Wilmer'
_symmetry_space_group_name_H-M	'P1'
_symmetry_Int_Tables_number	1
_symmetry_cell_setting	triclinic
loop_
_symmetry_equiv_pos_as_xyz
  x,y,z
_cell_length_a	27.732048
_cell_length_b	14.750779
_cell_length_c	27.732066
_cell_angle_alpha	102.532756
_cell_angle_beta	97.353622
_cell_angle_gamma	102.540316
loop_
_atom_site_label
_atom_site_type_symbol
_atom_site_fract_x
_atom_site_fract_y
_atom_site_fract_z
O1	O	0.630377	-0.079696	-0.068065
O2	O	0.963711	0.253637	0.265268
O3	O	1.297044	0.586971	0.598601
O4	O	0.489581	-0.079724	-0.076814
O5	O	0.822914	0.253610	0.256519
O6	O	1.156247	0.586943	0.589852
O7	O	0.564347	-0.079712	-0.002044
O8	O	0.897680	0.253621	0.331289
O9	O	1.231014	0.586955	0.664623
O10	O	0.555611	-0.079708	-0.142836
O11	O	0.888945	0.253626	0.190498
O12	O	1.222278	0.586959	0.523831
O13	O	0.585482	0.079942	0.019090
O14	O	0.918816	0.413275	0.352424
O15	O	1.252149	0.746608	0.685757
O16	O	0.510716	0.079930	-0.055680
O17	O	0.844050	0.413263	0.277653
O18	O	1.177383	0.746597	0.610987
O19	O	0.651513	0.079958	-0.046931
O20	O	0.984846	0.413291	0.286403
O21	O	1.318179	0.746624	0.619736
Zn22	Zn	0.584470	0.105292	-0.047950
Zn23	Zn	0.917804	0.438626	0.285384
Zn24	Zn	1.251137	0.771959	0.618717
Zn25	Zn	0.556623	-0.105058	-0.075795
Zn26	Zn	0.889957	0.228275	0.257538
Zn27	Zn	1.223290	0.561608	0.590871
O28	O	0.576747	0.079946	-0.121701
O29	O	0.910080	0.413279	0.211632
O30	O	1.243413	0.746613	0.544966
C31	C	0.482141	0.000099	-0.066064
C32	C	0.815474	0.333433	0.267269
C33	C	1.148808	0.666766	0.600603
C34	C	0.428485	0.000088	-0.065513
C35	C	0.761818	0.333422	0.267821
C36	C	1.095151	0.666755	0.601154
N37	N	0.603478	0.248851	-0.028946
N38	N	0.936812	0.582184	0.304388
N39	N	1.270145	0.915518	0.637721
N40	N	0.537619	-0.248617	-0.094796
N41	N	0.870952	0.084716	0.238538
N42	N	1.204286	0.418050	0.571871
C43	C	0.089678	0.000131	-0.106210
C44	C	0.423011	0.333465	0.227123
C45	C	0.756345	0.666798	0.560456
C46	C	-0.111981	0.000140	-0.104158
C47	C	0.221353	0.333473	0.229175
C48	C	0.554686	0.666806	0.562508
O49	O	-0.143228	0.000182	-0.141373
O50	O	0.190105	0.333516	0.191960
O51	O	0.523438	0.666849	0.525294
N52	N	-0.131108	0.000137	-0.059824
N53	N	0.202226	0.333470	0.273509
N54	N	0.535559	0.666803	0.606843
C55	C	-0.099816	0.000138	-0.015999
C56	C	0.233518	0.333471	0.317335
C57	C	0.566851	0.666804	0.650668
O58	O	-0.120710	0.000145	0.021759
O59	O	0.212623	0.333479	0.355092
O60	O	0.545956	0.666812	0.688426
C61	C	0.101843	0.000136	-0.018050
C62	C	0.435176	0.333470	0.315283
C63	C	0.768509	0.666803	0.648616
C64	C	0.120965	0.000129	-0.062389
C65	C	0.454299	0.333463	0.270944
C66	C	0.787632	0.666796	0.604278
C67	C	0.108801	0.000126	-0.150545
C68	C	0.442135	0.333459	0.182788
C69	C	0.775468	0.666792	0.516121
C70	C	0.159212	0.000118	-0.151058
C71	C	0.492546	0.333452	0.182275
C72	C	0.825879	0.666785	0.515608
C73	C	0.190500	0.000116	-0.107237
C74	C	0.523833	0.333450	0.226096
C75	C	0.857167	0.666783	0.559430
C76	C	0.171376	0.000122	-0.062902
C77	C	0.504710	0.333455	0.270431
C78	C	0.838043	0.666789	0.603765
C79	C	0.133135	0.000144	0.025775
C80	C	0.466468	0.333478	0.359109
C81	C	0.799801	0.666811	0.692442
C82	C	0.183552	0.000146	0.025259
C83	C	0.516886	0.333480	0.358592
C84	C	0.850219	0.666813	0.691926
C85	C	0.202675	0.000140	-0.019080
C86	C	0.536008	0.333473	0.314254
C87	C	0.869342	0.666806	0.647587
C88	C	0.253075	0.000113	-0.019594
C89	C	0.586408	0.333446	0.313740
C90	C	0.919742	0.666780	0.647073
N91	N	0.272202	0.000116	-0.063928
N92	N	0.605535	0.333449	0.269405
N93	N	0.938869	0.666783	0.602739
C94	C	0.240915	0.000118	-0.107750
C95	C	0.574248	0.333451	0.225584
C96	C	0.907581	0.666784	0.558917
C97	C	-0.205690	0.000137	-0.014925
C98	C	0.127643	0.333470	0.318409
C99	C	0.460977	0.666803	0.651742
C100	C	-0.256105	0.000135	-0.014412
C101	C	0.077229	0.333469	0.318921
C102	C	0.410562	0.666802	0.652255
C103	C	-0.268266	0.000139	-0.102572
C104	C	0.065067	0.333473	0.230762
C105	C	0.398401	0.666806	0.564095
C106	C	-0.217851	0.000134	-0.103085
C107	C	0.115482	0.333467	0.230248
C108	C	0.448815	0.666800	0.563582
C109	C	-0.186563	0.000140	-0.059259
C110	C	0.146770	0.333473	0.274074
C111	C	0.480104	0.666806	0.607407
C112	C	0.346782	0.000101	-0.108824
C113	C	0.680115	0.333435	0.224509
C114	C	1.013448	0.666768	0.557842
C115	C	0.397197	0.000090	-0.109334
C116	C	0.730530	0.333423	0.223999
C117	C	1.063864	0.666757	0.557332
C118	C	0.409355	0.000092	-0.021174
C119	C	0.742688	0.333425	0.312159
C120	C	1.076021	0.666758	0.645493
C121	C	0.358943	0.000098	-0.020665
C122	C	0.692276	0.333431	0.312669
C123	C	1.025610	0.666764	0.646002
C124	C	0.327658	0.000106	-0.064493
C125	C	0.660991	0.333439	0.268840
C126	C	0.994324	0.666773	0.602173
O127	O	0.284352	0.000081	0.017602
O128	O	0.617686	0.333414	0.350936
O129	O	0.951019	0.666748	0.684269
O130	O	0.261821	0.000132	-0.145499
O131	O	0.595155	0.333465	0.187834
O132	O	0.928488	0.666798	0.521168
C133	C	0.039267	0.000139	-0.105697
C134	C	0.372600	0.333472	0.227636
C135	C	0.705934	0.666805	0.560969
C136	C	0.020143	0.000144	-0.061362
C137	C	0.353477	0.333478	0.271971
C138	C	0.686810	0.666811	0.605304
C139	C	0.051431	0.000142	-0.017541
C140	C	0.384764	0.333476	0.315793
C141	C	0.718098	0.666809	0.649126
C142	C	-0.030271	0.000143	-0.060850
C143	C	0.303062	0.333476	0.272484
C144	C	0.636396	0.666810	0.605817
C145	C	-0.061559	0.000145	-0.104671
C146	C	0.271775	0.333478	0.228662
C147	C	0.605108	0.666811	0.561996
C148	C	-0.042432	0.000148	-0.149006
C149	C	0.290902	0.333481	0.184328
C150	C	0.624235	0.666814	0.517661
C151	C	0.007979	0.000140	-0.149519
C152	C	0.341313	0.333474	0.183815
C153	C	0.674646	0.666807	0.517148
C154	C	0.032304	0.000139	0.026794
C155	C	0.365637	0.333473	0.360127
C156	C	0.698971	0.666806	0.693460
C157	C	-0.018108	0.000146	0.027303
C158	C	0.315226	0.333479	0.360636
C159	C	0.648559	0.666812	0.693970
C160	C	-0.049395	0.000147	-0.016518
C161	C	0.283938	0.333481	0.316815
C162	C	0.617271	0.666814	0.650148
C163	C	0.658952	0.000133	-0.057681
C164	C	0.992286	0.333466	0.275652
C165	C	1.325619	0.666799	0.608985
C166	C	0.712608	0.000137	-0.058234
C167	C	1.045941	0.333471	0.275100
C168	C	1.379274	0.666804	0.608433
C169	C	0.574729	0.000112	0.026530
C170	C	0.908063	0.333445	0.359863
C171	C	1.241396	0.666779	0.693196
C172	C	0.574172	0.000104	0.080183
C173	C	0.907505	0.333437	0.413516
C174	C	1.240839	0.666770	0.746850
C175	C	0.484532	0.600650	-0.147850
C176	C	0.817865	0.933984	0.185483
C177	C	1.151198	1.267317	0.518817
C178	C	0.497855	0.701152	-0.134536
C179	C	0.831188	1.034485	0.198797
C180	C	1.164522	1.367818	0.532130
C181	C	0.564074	0.701125	-0.068351
C182	C	0.897407	1.034458	0.264982
C183	C	1.230740	1.367791	0.598315
C184	C	0.550754	0.600622	-0.081658
C185	C	0.884088	0.933955	0.251676
C186	C	1.217421	1.267288	0.585009
C187	C	0.510983	0.550392	-0.121408
C188	C	0.844317	0.883726	0.211925
C189	C	1.177650	1.217059	0.545259
C190	C	0.577206	0.550363	-0.055216
C191	C	0.910539	0.883697	0.278118
C192	C	1.243873	1.217030	0.611451
C193	C	0.563889	0.449869	-0.068523
C194	C	0.897223	0.783202	0.264810
C195	C	1.230556	1.116536	0.598144
C196	C	0.524121	0.399633	-0.108273
C197	C	0.857454	0.732966	0.225061
C198	C	1.190787	1.066299	0.558394
C199	C	0.497667	0.449898	-0.134715
C200	C	0.831000	0.783231	0.198618
C201	C	1.164333	1.116564	0.531951
C202	C	0.616979	0.600594	-0.015468
C203	C	0.950313	0.933928	0.317865
C204	C	1.283646	1.267261	0.651199
C205	C	0.643431	0.550336	0.010974
C206	C	0.976764	0.883670	0.344307
C207	C	1.310098	1.217003	0.677641
C208	C	0.630112	0.449840	-0.002331
C209	C	0.963445	0.783173	0.331002
C210	C	1.296779	1.116507	0.664336
C211	C	0.590344	0.399604	-0.042080
C212	C	0.923677	0.732937	0.291253
C213	C	1.257010	1.066270	0.624586
C214	C	0.656566	0.399575	0.024112
C215	C	0.989900	0.732908	0.357445
C216	C	1.323233	1.066241	0.690778
C217	C	0.643249	0.299080	0.010804
C218	C	0.976583	0.632414	0.344138
C219	C	1.309916	0.965747	0.677471
C220	C	0.577027	0.299109	-0.055388
C221	C	0.910360	0.632443	0.277946
C222	C	1.243693	0.965776	0.611279
C223	C	0.526201	0.000095	0.457254
C224	C	0.859535	0.333428	0.790588
C225	C	1.192868	0.666761	1.123921
C226	C	0.528248	0.000091	0.255594
C227	C	0.861582	0.333425	0.588927
C228	C	1.194915	0.666758	0.922260
O229	O	0.491022	0.000045	0.224335
O230	O	0.824355	0.333379	0.557668
O231	O	1.157688	0.666712	0.891002
N232	N	0.572584	0.000100	0.236467
N233	N	0.905917	0.333433	0.569801
N234	N	1.239251	0.666767	0.903134
C235	C	0.616410	0.000103	0.267759
C236	C	0.949743	0.333436	0.601092
C237	C	1.283077	0.666769	0.934425
O238	O	0.654166	0.000100	0.246862
O239	O	0.987499	0.333433	0.580195
O240	O	1.320832	0.666767	0.913529
C241	C	0.614362	0.000099	0.469417
C242	C	0.947695	0.333432	0.802751
C243	C	1.281028	0.666766	1.136084
C244	C	0.570025	0.000100	0.488542
C245	C	0.903358	0.333434	0.821875
C246	C	1.236691	0.666767	1.155209
C247	C	0.481868	0.000095	0.476379
C248	C	0.815201	0.333428	0.809713
C249	C	1.148534	0.666761	1.143046
C250	C	0.481357	0.000101	0.526792
C251	C	0.814691	0.333434	0.860125
C252	C	1.148024	0.666767	1.193459
C253	C	0.525180	0.000107	0.558080
C254	C	0.858514	0.333440	0.891413
C255	C	1.191847	0.666773	1.224747
C256	C	0.569514	0.000106	0.538955
C257	C	0.902847	0.333440	0.872288
C258	C	1.236181	0.666773	1.205622
C259	C	0.658186	0.000095	0.500707
C260	C	0.991520	0.333428	0.834040
C261	C	1.324853	0.666762	1.167374
C262	C	0.657670	0.000092	0.551124
C263	C	0.991003	0.333425	0.884457
C264	C	1.324337	0.666758	1.217791
C265	C	0.613333	0.000093	0.570249
C266	C	0.946666	0.333426	0.903582
C267	C	1.279999	0.666760	1.236915
C268	C	0.612826	0.000118	0.620656
C269	C	0.946160	0.333451	0.953989
C270	C	1.279493	0.666785	1.287322
N271	N	0.568491	0.000110	0.639782
N272	N	0.901824	0.333443	0.973115
N273	N	1.235158	0.666776	1.306449
C274	C	0.524668	0.000104	0.608494
C275	C	0.858001	0.333437	0.941827
C276	C	1.191334	0.666771	1.275161
C277	C	0.617483	0.000107	0.161885
C278	C	0.950816	0.333440	0.495218
C279	C	1.284149	0.666773	0.828552
C280	C	0.617995	0.000109	0.111471
C281	C	0.951328	0.333443	0.444804
C282	C	1.284662	0.666776	0.778137
C283	C	0.529833	0.000096	0.099309
C284	C	0.863166	0.333430	0.432642
C285	C	1.196500	0.666763	0.765976
C286	C	0.529322	0.000100	0.149725
C287	C	0.862655	0.333434	0.483058
C288	C	1.195989	0.666767	0.816392
C289	C	0.573147	0.000098	0.181011
C290	C	0.906480	0.333432	0.514345
C291	C	1.239814	0.666765	0.847678
C292	C	0.523599	0.000117	0.714365
C293	C	0.856932	0.333451	1.047699
C294	C	1.190266	0.666784	1.381032
C295	C	0.523093	0.000127	0.764784
C296	C	0.856426	0.333461	1.098117
C297	C	1.189759	0.666794	1.431450
C298	C	0.611254	0.000135	0.776940
C299	C	0.944587	0.333469	1.110274
C300	C	1.277921	0.666802	1.443607
C301	C	0.611761	0.000130	0.726527
C302	C	0.945094	0.333464	1.059861
C303	C	1.278428	0.666797	1.393194
C304	C	0.567929	0.000118	0.695240
C305	C	0.901262	0.333452	1.028573
C306	C	1.234596	0.666785	1.361907
O307	O	0.650032	0.000153	0.651941
O308	O	0.983365	0.333487	0.985275
O309	O	1.316699	0.666820	1.318608
O310	O	0.486915	0.000085	0.629397
O311	O	0.820248	0.333419	0.962731
O312	O	1.153581	0.666752	1.296064
C313	C	0.526712	0.000089	0.406841
C314	C	0.860045	0.333422	0.740175
C315	C	1.193379	0.666755	1.073508
C316	C	0.571046	0.000088	0.387716
C317	C	0.904379	0.333422	0.721050
C318	C	1.237712	0.666755	1.054383
C319	C	0.614869	0.000094	0.419004
C320	C	0.948202	0.333427	0.752337
C321	C	1.281535	0.666761	1.085671
C322	C	0.571558	0.000091	0.337302
C323	C	0.904891	0.333424	0.670635
C324	C	1.238225	0.666758	1.003969
C325	C	0.527735	0.000085	0.306014
C326	C	0.861068	0.333419	0.639348
C327	C	1.194402	0.666752	0.972681
C328	C	0.483400	0.000077	0.325141
C329	C	0.816733	0.333410	0.658474
C330	C	1.150066	0.666743	0.991807
C331	C	0.482889	0.000083	0.375553
C332	C	0.816222	0.333416	0.708887
C333	C	1.149556	0.666749	1.042220
C334	C	0.659204	0.000103	0.399878
C335	C	0.992538	0.333436	0.733211
C336	C	1.325871	0.666769	1.066544
C337	C	0.659711	0.000098	0.349465
C338	C	0.993045	0.333431	0.682798
C339	C	1.326378	0.666764	1.016131
C340	C	0.615888	0.000092	0.318177
C341	C	0.949222	0.333425	0.651510
C342	C	1.282555	0.666759	0.984843
C343	C	0.566363	0.000123	0.849725
C344	C	0.899696	0.333456	1.183058
C345	C	1.233029	0.666789	1.516392
C346	C	0.566916	0.000133	0.796072
C347	C	0.900249	0.333466	1.129405
C348	C	1.233583	0.666800	1.462738
H349	H	0.412764	0.000084	-0.145442
H350	H	0.746097	0.333417	0.187892
H351	H	1.079430	0.666751	0.521225
O352	O	0.476326	0.000121	0.680627
O353	O	0.809659	0.333455	1.013961
O354	O	1.142992	0.666788	1.347294
H355	H	0.446471	-0.064943	0.678781
H356	H	0.779804	0.268390	1.012114
H357	H	1.113138	0.601723	1.345447
H358	H	0.493219	0.000105	0.165293
H359	H	0.826553	0.333439	0.498626
H360	H	1.159886	0.666772	0.831960
H361	H	0.321315	0.000111	-0.144513
H362	H	0.654648	0.333445	0.188820
H363	H	0.987982	0.666778	0.522153
H364	H	0.675814	0.591245	0.043338
H365	H	1.009147	0.924578	0.376671
H366	H	1.342481	1.257911	0.710004
O367	O	0.454770	0.395708	-0.177588
O368	O	0.788103	0.729041	0.155745
O369	O	1.121436	1.062375	0.489078
H370	H	0.438612	0.447537	-0.193743
H371	H	0.771945	0.780870	0.139591
H372	H	1.105279	1.114203	0.472924
H373	H	0.445252	0.000094	0.542357
H374	H	0.778586	0.333427	0.875690
H375	H	1.111919	0.666760	1.209024
O376	O	-0.197227	0.000146	-0.150905
O377	O	0.136106	0.333479	0.182428
O378	O	0.469440	0.666813	0.515761
H379	H	-0.218440	-0.064920	-0.180560
H380	H	0.114893	0.268413	0.152774
H381	H	0.448227	0.601746	0.486107
O382	O	0.664756	0.000123	0.195630
O383	O	0.998090	0.333456	0.528964
O384	O	1.331423	0.666790	0.862297
H385	H	0.695669	0.000143	0.173857
H386	H	1.029002	0.333476	0.507191
H387	H	1.362336	0.666809	0.840524
H388	H	0.057774	0.000140	0.062480
H389	H	0.391108	0.333474	0.395813
H390	H	0.724441	0.666807	0.729146
O391	O	0.665817	0.000107	0.090848
O392	O	0.999150	0.333441	0.424182
O393	O	1.332484	0.666774	0.757515
H394	H	0.695474	0.065174	0.112059
H395	H	1.028808	0.398507	0.445392
H396	H	1.362141	0.731841	0.778726
H397	H	0.209025	0.000152	0.060948
H398	H	0.542359	0.333485	0.394281
H399	H	0.875692	0.666819	0.727615
H400	H	0.476312	0.742067	-0.156073
H401	H	0.809645	1.075400	0.177261
H402	H	1.142978	1.408734	0.510594
O403	O	0.441624	0.546481	-0.190716
O404	O	0.774958	0.879815	0.142617
O405	O	1.108291	1.213148	0.475950
H406	H	0.412220	0.500716	-0.176581
H407	H	0.745553	0.834050	0.156753
H408	H	1.078887	1.167383	0.490086
O409	O	0.338315	0.000099	0.027157
O410	O	0.671648	0.333432	0.360490
O411	O	1.004982	0.666765	0.693823
H412	H	0.324259	0.065177	0.038111
H413	H	0.657592	0.398510	0.371444
H414	H	0.990926	0.731843	0.704777
H415	H	0.695820	0.000104	0.333900
H416	H	1.029153	0.333438	0.667233
H417	H	1.362486	0.666771	1.000566
O418	O	0.435068	0.000078	0.396178
O419	O	0.768401	0.333412	0.729511
O420	O	1.101734	0.666745	1.062844
H421	H	0.404684	0.000066	0.365944
H422	H	0.738017	0.333399	0.699278
H423	H	1.071351	0.666732	1.032611
O424	O	0.179839	0.000140	-0.198877
O425	O	0.513173	0.333473	0.134456
O426	O	0.846506	0.666806	0.467790
H427	H	0.149609	0.000158	-0.229256
H428	H	0.482943	0.333491	0.104077
H429	H	0.816276	0.666825	0.437411
H430	H	-0.293749	0.000141	-0.138253
H431	H	0.039584	0.333474	0.195081
H432	H	0.372918	0.666807	0.528414
O433	O	0.631345	0.708986	-0.001118
O434	O	0.964678	1.042320	0.332215
O435	O	1.298011	1.375653	0.665548
H436	H	0.663449	0.735471	0.030958
H437	H	0.996782	1.068804	0.364292
H438	H	1.330116	1.402137	0.697625
H439	H	-0.067916	0.000145	-0.184687
H440	H	0.265418	0.333479	0.148646
H441	H	0.598751	0.666812	0.481980
O442	O	0.475270	0.000135	0.785411
O443	O	0.808604	0.333468	1.118744
O444	O	1.141937	0.666801	1.452077
H445	H	0.464312	-0.064929	0.799482
H446	H	0.797646	0.268404	1.132815
H447	H	1.130979	0.601737	1.466149
H448	H	0.694290	0.000093	0.485145
H449	H	1.027623	0.333427	0.818478
H450	H	1.360957	0.666760	1.151812
H451	H	0.693358	0.000085	0.576595
H452	H	1.026691	0.333418	0.909928
H453	H	1.360024	0.666751	1.243261
H454	H	0.434837	0.000086	0.014504
H455	H	0.768171	0.333420	0.347837
H456	H	1.101504	0.666753	0.681170
H457	H	0.688951	0.440485	0.056474
H458	H	1.022285	0.773818	0.389807
H459	H	1.355618	1.107151	0.723140
O460	O	0.509755	0.291241	-0.122628
O461	O	0.843088	0.624574	0.210705
O462	O	1.176422	0.957907	0.544038
H463	H	0.470192	0.264758	-0.118657
H464	H	0.803526	0.598092	0.214677
H465	H	1.136859	0.931425	0.548010
O466	O	-0.276729	0.000141	0.033409
O467	O	0.056604	0.333474	0.366743
O468	O	0.389938	0.666807	0.700076
H469	H	-0.246497	0.000152	0.063794
H470	H	0.086837	0.333485	0.397127
H471	H	0.420170	0.666819	0.730461
H472	H	0.447718	0.000078	0.299658
H473	H	0.781051	0.333411	0.632991
H474	H	1.114385	0.666745	0.966324
H475	H	0.647866	0.000143	0.710957
H476	H	0.981199	0.333476	1.044291
H477	H	1.314532	0.666810	1.377624
H478	H	0.544638	0.258211	-0.087753
H479	H	0.877971	0.591544	0.245580
H480	H	1.211304	0.924877	0.578914
O481	O	0.606967	0.755301	-0.025478
O482	O	0.940300	1.088634	0.307856
O483	O	1.273634	1.421968	0.641189
H484	H	0.611782	0.833625	-0.020664
H485	H	0.945115	1.166959	0.312670
H486	H	1.278449	1.500292	0.646003
H487	H	0.664790	0.258160	0.032336
H488	H	0.998123	0.591493	0.365669
H489	H	1.331457	0.924826	0.699003
H490	H	0.023544	0.000136	-0.185624
H491	H	0.356878	0.333470	0.147710
H492	H	0.690211	0.666803	0.481043
O493	O	0.434600	0.000104	0.442638
O494	O	0.767933	0.333437	0.775971
O495	O	1.101266	0.666771	1.109305
H496	H	0.403692	0.000114	0.464416
H497	H	0.737025	0.333447	0.797750
H498	H	1.070359	0.666780	1.131083
O499	O	0.482564	0.000081	0.065558
O500	O	0.815897	0.333415	0.398891
O501	O	1.149230	0.666748	0.732224
H502	H	0.490372	0.000075	0.027289
H503	H	0.823705	0.333408	0.360622
H504	H	1.157039	0.666741	0.693956
O505	O	0.075062	0.000124	-0.197817
O506	O	0.408395	0.333457	0.135517
O507	O	0.741728	0.666790	0.468850
H508	H	0.060421	0.065198	-0.191087
H509	H	0.393755	0.398532	0.142246
H510	H	0.727088	0.731865	0.475580
O511	O	0.658520	0.000144	0.810691
O512	O	0.991853	0.333477	1.144024
O513	O	1.325187	0.666811	1.477357
H514	H	0.650710	0.000138	0.848958
H515	H	0.984044	0.333472	1.182291
H516	H	1.317377	0.666805	1.515625
O517	O	0.706477	0.000126	0.433621
O518	O	1.039810	0.333459	0.766954
O519	O	1.373143	0.666792	1.100288
H520	H	0.719103	-0.064936	0.418247
H521	H	1.052436	0.268398	0.751580
H522	H	1.385769	0.601731	1.084914
O523	O	-0.171946	0.000144	0.032348
O524	O	0.161387	0.333477	0.365681
O525	O	0.494721	0.666810	0.699014
H526	H	-0.187324	-0.064934	0.044965
H527	H	0.146009	0.268400	0.378298
H528	H	0.479342	0.601733	0.711631
O529	O	0.112519	0.000171	0.073601
O530	O	0.445852	0.333505	0.406934
O531	O	0.779185	0.666838	0.740267
H532	H	0.142754	0.000188	0.103984
H533	H	0.476088	0.333522	0.437317
H534	H	0.809421	0.666855	0.770650
O535	O	-0.038730	0.000162	0.075130
O536	O	0.294603	0.333495	0.408463
O537	O	0.627937	0.666829	0.741796
H538	H	-0.008498	0.000173	0.105514
H539	H	0.324836	0.333506	0.438847
H540	H	0.658169	0.666839	0.772181
