data_functionalizedCrystal
_audit_creation_method	'MofGen! by Chris Wilmer'
_symmetry_space_group_name_H-M	'P1'
_symmetry_Int_Tables_number	1
_symmetry_cell_setting	triclinic
loop_
_symmetry_equiv_pos_as_xyz
  x,y,z
_cell_length_a	19.288840
_cell_length_b	12.996460
_cell_length_c	14.519731
_cell_angle_alpha	90.011339
_cell_angle_beta	96.592566
_cell_angle_gamma	89.986655
loop_
_atom_site_label
_atom_site_type_symbol
_atom_site_fract_x
_atom_site_fract_y
_atom_site_fract_z
O1	O	0.921781	-0.085751	-0.114934
O2	O	1.255114	0.247583	0.218400
O3	O	1.588448	0.580916	0.551733
O4	O	0.719575	-0.085717	-0.130477
O5	O	1.052908	0.247617	0.202856
O6	O	1.386242	0.580950	0.536190
O7	O	0.826031	-0.085714	0.011566
O8	O	1.159365	0.247619	0.344900
O9	O	1.492698	0.580953	0.678233
O10	O	0.815324	-0.085754	-0.256977
O11	O	1.148658	0.247580	0.076356
O12	O	1.481991	0.580913	0.409689
O13	O	0.826019	0.085420	0.011573
O14	O	1.159353	0.418753	0.344907
O15	O	1.492686	0.752087	0.678240
O16	O	0.719563	0.085417	-0.130470
O17	O	1.052896	0.418750	0.202863
O18	O	1.386229	0.752084	0.536197
O19	O	0.921769	0.085383	-0.114927
O20	O	1.255102	0.418716	0.218407
O21	O	1.588436	0.752050	0.551740
Cu22	Cu	0.820665	0.101026	-0.122698
Cu23	Cu	1.153998	0.434359	0.210636
Cu24	Cu	1.487331	0.767693	0.543969
Cu25	Cu	0.820679	-0.101360	-0.122706
Cu26	Cu	1.154012	0.231974	0.210627
Cu27	Cu	1.487346	0.565307	0.543961
O28	O	0.815312	0.085380	-0.256970
O29	O	1.148646	0.418713	0.076363
O30	O	1.481979	0.752047	0.409697
C31	C	0.693690	-0.000145	-0.129977
C32	C	1.027023	0.333188	0.203356
C33	C	1.360357	0.666521	0.536689
C34	C	0.616580	-0.000131	-0.128487
C35	C	0.949914	0.333202	0.204846
C36	C	1.283247	0.666535	0.538179
N37	N	0.820660	0.243373	-0.122691
N38	N	1.153993	0.576706	0.210642
N39	N	1.487326	0.910040	0.543976
C40	C	0.580381	-0.093419	-0.127776
C41	C	0.913714	0.239914	0.205558
C42	C	1.247047	0.573248	0.538891
C43	C	0.507929	-0.093431	-0.126366
C44	C	0.841262	0.239902	0.206968
C45	C	1.174595	0.573235	0.540301
C46	C	0.471681	-0.000151	-0.125649
C47	C	0.805014	0.333183	0.207685
C48	C	1.138347	0.666516	0.541018
C49	C	0.507888	0.093149	-0.126366
C50	C	0.841222	0.426482	0.206967
C51	C	1.174555	0.759816	0.540301
C52	C	0.580338	0.093159	-0.127785
C53	C	0.913671	0.426492	0.205548
C54	C	1.247005	0.759825	0.538881
C55	C	0.362142	0.071309	-0.069381
C56	C	0.695475	0.404642	0.263953
C57	C	1.028809	0.737976	0.597286
C58	C	0.289694	0.071295	-0.067956
C59	C	0.623028	0.404629	0.265378
C60	C	0.956361	0.737962	0.598711
C61	C	0.248221	-0.000177	-0.121275
C62	C	0.581554	0.333156	0.212058
C63	C	0.914888	0.666490	0.545391
C64	C	0.279206	-0.071653	-0.176008
C65	C	0.612539	0.261680	0.157325
C66	C	0.945872	0.595014	0.490659
C67	C	0.351656	-0.071643	-0.177427
C68	C	0.684989	0.261690	0.155906
C69	C	1.018322	0.595023	0.489239
C70	C	0.393121	-0.000151	-0.124110
C71	C	0.726454	0.333182	0.209223
C72	C	1.059788	0.666516	0.542556
C73	C	0.133461	-0.093484	-0.119036
C74	C	0.466794	0.239849	0.214297
C75	C	0.800127	0.573182	0.547631
C76	C	0.061007	-0.093493	-0.117631
C77	C	0.394340	0.239840	0.215702
C78	C	0.727673	0.573174	0.549035
C79	C	0.060969	0.093090	-0.117622
C80	C	0.394302	0.426423	0.215711
C81	C	0.727635	0.759757	0.549044
C82	C	0.133420	0.093096	-0.119036
C83	C	0.466754	0.426429	0.214297
C84	C	0.800087	0.759763	0.547631
C85	C	0.169662	-0.000194	-0.119738
C86	C	0.502996	0.333139	0.213595
C87	C	0.836329	0.666472	0.546928
C88	C	0.820673	0.663187	-0.122710
C89	C	1.154006	0.996521	0.210624
C90	C	1.487340	1.329854	0.543957
C91	C	0.820667	0.546382	-0.122708
C92	C	1.154001	0.879715	0.210626
C93	C	1.487334	1.213049	0.543959
C94	C	0.820667	0.453284	-0.122701
C95	C	1.154000	0.786617	0.210632
C96	C	1.487333	1.119950	0.543966
C97	C	0.820660	0.336471	-0.122698
C98	C	1.153993	0.669805	0.210636
C99	C	1.487327	1.003138	0.543969
C100	C	0.947654	-0.000191	-0.115426
C101	C	1.280987	0.333142	0.217907
C102	C	1.614320	0.666476	0.551240
C103	C	1.024764	-0.000212	-0.116916
C104	C	1.358097	0.333122	0.216417
C105	C	1.691430	0.666455	0.549750
N106	N	0.820683	0.756293	-0.122709
N107	N	1.154016	1.089627	0.210624
N108	N	1.487350	1.422960	0.543958
C109	C	0.825524	-0.000144	0.045926
C110	C	1.158857	0.333190	0.379259
C111	C	1.492190	0.666523	0.712593
C112	C	0.824020	-0.000134	0.148297
C113	C	1.157354	0.333199	0.481630
C114	C	1.490687	0.666532	0.814963
C115	C	0.822799	-0.000129	0.231433
C116	C	1.156132	0.333204	0.564766
C117	C	1.489465	0.666537	0.898100
C118	C	0.821272	-0.000128	0.335732
C119	C	1.154606	0.333205	0.669065
C120	C	1.487939	0.666539	1.002398
C121	C	0.820061	-0.000127	0.418863
C122	C	1.153394	0.333206	0.752196
C123	C	1.486728	0.666539	1.085530
C124	C	0.818535	-0.000124	0.523168
C125	C	1.151868	0.333209	0.856502
C126	C	1.485201	0.666543	1.189835
C127	C	0.815820	-0.000171	0.708670
C128	C	1.149153	0.333162	1.042004
C129	C	1.482487	0.666496	1.375337
C130	C	0.817323	-0.000123	0.606300
C131	C	1.150657	0.333210	0.939633
C132	C	1.483990	0.666543	1.272966
H133	H	0.478449	-0.169400	-0.125787
H134	H	0.811782	0.163934	0.207546
H135	H	1.145116	0.497267	0.540879
H136	H	0.376880	-0.129839	-0.221995
H137	H	0.710213	0.203494	0.111339
H138	H	1.043547	0.536827	0.444672
H139	H	0.264473	0.129491	-0.023384
H140	H	0.597806	0.462824	0.309949
H141	H	0.931140	0.796157	0.643282
N142	N	0.236842	-0.144666	-0.230466
N143	N	0.570176	0.188668	0.102867
N144	N	0.903509	0.522001	0.436200
N145	N	0.172156	-0.144665	-0.229197
N146	N	0.505489	0.188668	0.104136
N147	N	0.838822	0.522001	0.437470
H148	H	0.142233	-0.196231	-0.267654
H149	H	0.475566	0.137103	0.065680
H150	H	0.808900	0.470436	0.399013
N151	N	0.170411	0.188380	-0.119759
N152	N	0.503745	0.521713	0.213574
N153	N	0.837078	0.855047	0.546908
N154	N	0.204509	0.209192	-0.185541
N155	N	0.537842	0.542526	0.147793
N156	N	0.871176	0.875859	0.481126
H157	H	0.230635	0.276491	-0.186054
H158	H	0.563968	0.609824	0.147279
H159	H	0.897301	0.943157	0.480612
H160	H	0.395905	0.129516	-0.025959
H161	H	0.729238	0.462849	0.307374
H162	H	1.062571	0.796182	0.640708
N163	N	0.170475	-0.188782	-0.119753
N164	N	0.503809	0.144552	0.213580
N165	N	0.837142	0.477885	0.546913
N166	N	0.138141	-0.272071	-0.119125
N167	N	0.471474	0.061262	0.214208
N168	N	0.804808	0.394596	0.547541
H169	H	0.164280	-0.339377	-0.119631
H170	H	0.497614	-0.006043	0.213702
H171	H	0.830947	0.327290	0.547035
H172	H	0.031534	-0.169462	-0.117058
H173	H	0.364867	0.163871	0.216276
H174	H	0.698200	0.497205	0.549609
N175	N	0.023939	0.188366	-0.116910
N176	N	0.357272	0.521700	0.216423
N177	N	0.690605	0.855033	0.549757
N178	N	-0.040749	0.188347	-0.115654
N179	N	0.292584	0.521681	0.217679
N180	N	0.625918	0.855014	0.551012
H181	H	-0.066906	0.255638	-0.115159
H182	H	0.266427	0.588972	0.218175
H183	H	0.599760	0.922305	0.551508
N184	N	0.470864	0.188434	-0.125652
N185	N	0.804198	0.521767	0.207681
N186	N	1.137531	0.855100	0.541014
N187	N	0.424105	0.209231	-0.189854
N188	N	0.757439	0.542564	0.143479
N189	N	1.090772	0.875898	0.476813
H190	H	0.397957	0.276530	-0.189356
H191	H	0.731291	0.609863	0.143977
H192	H	1.064624	0.943196	0.477311
N193	N	0.617389	-0.188718	-0.128494
N194	N	0.950722	0.144615	0.204840
N195	N	1.284056	0.477948	0.538173
N196	N	0.585053	-0.272006	-0.127859
N197	N	0.918386	0.061327	0.205474
N198	N	1.251720	0.394661	0.538808
H199	H	0.611191	-0.339313	-0.128367
H200	H	0.944524	-0.005980	0.204966
H201	H	1.277857	0.327354	0.538299
N202	N	0.617307	0.188464	-0.128519
N203	N	0.950641	0.521797	0.204814
N204	N	1.283974	0.855130	0.538148
N205	N	0.584938	0.271746	-0.127889
N206	N	0.918271	0.605079	0.205444
N207	N	1.251605	0.938412	0.538777
H208	H	0.611048	0.339057	-0.128408
H209	H	0.944381	0.672391	0.204925
H210	H	1.277715	1.005724	0.538259
