data_functionalizedCrystal
_audit_creation_method	'MofGen! by Chris Wilmer'
_symmetry_space_group_name_H-M	'P1'
_symmetry_Int_Tables_number	1
_symmetry_cell_setting	triclinic
loop_
_symmetry_equiv_pos_as_xyz
  x,y,z
_cell_length_a	29.839135
_cell_length_b	29.839131
_cell_length_c	12.759387
_cell_angle_alpha	89.955090
_cell_angle_beta	89.973869
_cell_angle_gamma	90.037758
loop_
_atom_site_label
_atom_site_type_symbol
_atom_site_fract_x
_atom_site_fract_y
_atom_site_fract_z
Zn1	Zn	0.686786	-0.178799	-0.594060
Zn2	Zn	0.686712	-0.253937	-0.418337
Zn3	Zn	0.611655	-0.178825	-0.418379
Zn4	Zn	0.611625	-0.253906	-0.593959
O5	O	0.649195	-0.216367	-0.506184
O6	O	0.749644	-0.188768	-0.570774
O7	O	0.676738	-0.243997	-0.271321
O8	O	0.621665	-0.115955	-0.441744
O9	O	0.749589	-0.243972	-0.441671
O10	O	0.676863	-0.115936	-0.570815
O11	O	0.621593	-0.188812	-0.271352
O12	O	0.548784	-0.188783	-0.441646
O13	O	0.621613	-0.243920	-0.740993
O14	O	0.548762	-0.243945	-0.570643
O15	O	0.676834	-0.188739	-0.741067
O16	O	0.676708	-0.316800	-0.441573
O17	O	0.621542	-0.316778	-0.570602
C18	C	0.532472	-0.216363	-0.506139
C19	C	0.482538	-0.216373	-0.506144
C20	C	0.172919	-0.187666	-0.573506
C21	C	-0.014754	-0.187669	-0.573536
O22	O	-0.038997	-0.163251	-0.630760
N23	N	-0.038247	-0.216367	-0.506222
C24	C	-0.014820	-0.245065	-0.438891
O25	O	-0.039109	-0.269471	-0.381629
C26	C	0.172852	-0.245059	-0.438856
C27	C	0.196343	-0.216362	-0.506183
C28	C	0.196411	-0.158971	-0.640826
C29	C	0.243326	-0.158972	-0.640822
C30	C	0.266750	-0.187669	-0.573498
C31	C	0.243259	-0.216363	-0.506178
C32	C	0.196278	-0.273754	-0.371521
C33	C	0.243199	-0.273749	-0.371516
C34	C	0.266691	-0.245052	-0.438842
C35	C	0.313598	-0.245061	-0.438850
N36	N	0.337092	-0.216363	-0.506165
C37	C	0.313668	-0.187667	-0.573488
C38	C	-0.113351	-0.245066	-0.438915
C39	C	-0.160269	-0.245068	-0.438925
C40	C	-0.160199	-0.187672	-0.573569
C41	C	-0.113280	-0.187673	-0.573564
C42	C	-0.089857	-0.216368	-0.506229
C43	C	0.412194	-0.187672	-0.573475
C44	C	0.459114	-0.187677	-0.573468
C45	C	0.459040	-0.245071	-0.438821
C46	C	0.412124	-0.245068	-0.438831
C47	C	0.388703	-0.216364	-0.506162
O48	O	0.337871	-0.269462	-0.381648
O49	O	0.337966	-0.163257	-0.630725
C50	C	0.126004	-0.187665	-0.573511
C51	C	0.102513	-0.216360	-0.506191
C52	C	0.125937	-0.245056	-0.438867
C53	C	0.055595	-0.216362	-0.506200
C54	C	0.032171	-0.187666	-0.573524
C55	C	0.055665	-0.158967	-0.640839
C56	C	0.102580	-0.158969	-0.640834
C57	C	0.102443	-0.273754	-0.371553
C58	C	0.055527	-0.273751	-0.371563
C59	C	0.032103	-0.245055	-0.438887
C60	C	0.649126	-0.333090	-0.506095
C61	C	0.649138	-0.383024	-0.506092
C62	C	0.677930	-0.692623	-0.573487
C63	C	0.677979	-0.880296	-0.573550
O64	O	0.702392	-0.904522	-0.630786
N65	N	0.649271	-0.903809	-0.506300
C66	C	0.620547	-0.880401	-0.439035
O67	O	0.596126	-0.904707	-0.381844
C68	C	0.620496	-0.692729	-0.438978
C69	C	0.649209	-0.669218	-0.506224
C70	C	0.706641	-0.669112	-0.640729
C71	C	0.706630	-0.622196	-0.640709
C72	C	0.677909	-0.598792	-0.573446
C73	C	0.649198	-0.622303	-0.506204
C74	C	0.591769	-0.669322	-0.371718
C75	C	0.591759	-0.622401	-0.371712
C76	C	0.620472	-0.598890	-0.438958
C77	C	0.620466	-0.551983	-0.438921
N78	N	0.649174	-0.528469	-0.506171
C79	C	0.677896	-0.551874	-0.573433
C80	C	0.620576	-0.978932	-0.439068
C81	C	0.620589	-1.025850	-0.439081
C82	C	0.678021	-1.025741	-0.573598
C83	C	0.678010	-0.978822	-0.573579
C84	C	0.649284	-0.955418	-0.506318
C85	C	0.677871	-0.453348	-0.573384
C86	C	0.677859	-0.406428	-0.573355
C87	C	0.620426	-0.406541	-0.438842
C88	C	0.620439	-0.453457	-0.438867
C89	C	0.649163	-0.476859	-0.506147
O90	O	0.596062	-0.527727	-0.381723
O91	O	0.702305	-0.527560	-0.630632
C92	C	0.677941	-0.739538	-0.573507
C93	C	0.649231	-0.763049	-0.506265
C94	C	0.620509	-0.739645	-0.439003
C95	C	0.649244	-0.809967	-0.506278
C96	C	0.677965	-0.833371	-0.573541
C97	C	0.706673	-0.809858	-0.640791
C98	C	0.706662	-0.762942	-0.640770
C99	C	0.591801	-0.763158	-0.371753
C100	C	0.591815	-0.810073	-0.371778
C101	C	0.620536	-0.833478	-0.439041
C102	C	0.766373	-0.216371	-0.506229
C103	C	0.816307	-0.216372	-0.506249
C104	C	0.649229	-0.216323	-0.780217
C105	C	0.649243	-0.216304	-0.896994
C106	C	0.649276	-0.099189	-0.506296
C107	C	0.649310	-0.049254	-0.506343
C108	C	0.706748	-0.158848	-0.897091
C109	C	0.735507	-0.130113	-0.952000
C110	C	0.735518	-0.130097	-1.061722
C111	C	0.706766	-0.158818	-1.116537
C112	C	0.678007	-0.187552	-1.061628
C113	C	0.678000	-0.187566	-0.951903
C114	C	0.620500	-0.245005	-1.061531
C115	C	0.620491	-0.245025	-0.951809
C116	C	0.591748	-0.273726	-1.116346
C117	C	0.562991	-0.302463	-1.061436
C118	C	0.562982	-0.302479	-0.951708
C119	C	0.591732	-0.273759	-0.896900
C120	C	0.649187	-0.216378	-0.233216
C121	C	0.649259	-0.216271	-0.116440
H122	H	0.393130	-0.164297	-0.628299
H123	H	0.597042	-0.387478	-0.384074
C124	C	0.767087	-0.721805	-0.655484
C125	C	0.738216	-0.694834	-0.714668
H126	H	0.786581	-0.737684	-0.701132
H127	H	0.784270	-0.703502	-0.609746
H128	H	0.749988	-0.742526	-0.615449
H129	H	0.755315	-0.674111	-0.754698
H130	H	0.721031	-0.713138	-0.760425
H131	H	-0.094156	-0.164304	-0.628385
H132	H	0.478120	-0.268436	-0.384009
H133	H	0.568434	-0.829212	-0.317008
H134	H	-0.179391	-0.268441	-0.384113
H135	H	0.730060	-0.828922	-0.695555
C136	C	0.603177	-0.316444	-1.273477
C137	C	0.591759	-0.273710	-1.236953
H138	H	0.603181	-0.316435	-1.347936
H139	H	0.632157	-0.324216	-1.248666
H140	H	0.581931	-0.337663	-1.248612
H141	H	0.613007	-0.252492	-1.261813
H142	H	0.562775	-0.265933	-1.261775
C143	C	0.563813	-0.983762	-0.306093
C144	C	0.589002	-0.953210	-0.365115
H145	H	0.544325	-0.967884	-0.260431
H146	H	0.546624	-1.002058	-0.351835
H147	H	0.583410	-1.002061	-0.265971
H148	H	0.569406	-0.934914	-0.405244
H149	H	0.606193	-0.934907	-0.319367
H150	H	0.701390	-0.959682	-0.628337
H151	H	0.177160	-0.297122	-0.316695
C152	C	0.002734	-0.279923	-0.230209
C153	C	0.029707	-0.305298	-0.297555
H154	H	-0.013208	-0.299397	-0.184523
H155	H	0.021043	-0.260332	-0.190120
H156	H	-0.017933	-0.262836	-0.270315
H157	H	0.050375	-0.322383	-0.257450
H158	H	0.011396	-0.324897	-0.337649
C159	C	0.238414	-0.330483	-0.238424
C160	C	0.268945	-0.305297	-0.297505
H161	H	0.254309	-0.349962	-0.192742
H162	H	0.220121	-0.310888	-0.198330
H163	H	0.220111	-0.347688	-0.284135
H164	H	0.287247	-0.288090	-0.251794
H165	H	0.287246	-0.324894	-0.337602
C166	C	0.703532	-1.097618	-0.633348
C167	C	0.709589	-1.051473	-0.647543
H168	H	0.723016	-1.113504	-0.679006
H169	H	0.710130	-1.105324	-0.562784
H170	H	0.673342	-1.105321	-0.648644
H171	H	0.739778	-1.043770	-0.632239
H172	H	0.702994	-1.043763	-0.718122
C173	C	0.535041	-0.767988	-0.238783
C174	C	0.560232	-0.737436	-0.297802
H175	H	0.515554	-0.752109	-0.193118
H176	H	0.517850	-0.786280	-0.284528
H177	H	0.554636	-0.786289	-0.198664
H178	H	0.540637	-0.719137	-0.337927
H179	H	0.577425	-0.719136	-0.252052
C180	C	0.560174	-1.078670	-0.424357
C181	C	0.589029	-1.051690	-0.365156
H182	H	0.540690	-1.094623	-0.378719
H183	H	0.542979	-1.060364	-0.470082
H184	H	0.577285	-1.099326	-0.464407
H185	H	0.571918	-1.031032	-0.325112
H186	H	0.606225	-1.069998	-0.319412
C187	C	0.541049	-0.378527	-1.095132
C188	C	0.531389	-0.334030	-1.121686
H189	H	0.521537	-0.398015	-1.132326
H190	H	0.571227	-0.385098	-1.113134
H191	H	0.536928	-0.382646	-1.021926
H192	H	0.535513	-0.329911	-1.194891
H193	H	0.501204	-0.327457	-1.103690
C194	C	0.718150	-0.201612	-0.739878
C195	C	0.706737	-0.158868	-0.776483
H196	H	0.718145	-0.201622	-0.665419
H197	H	0.696912	-0.222822	-0.764664
H198	H	0.747138	-0.209377	-0.764713
H199	H	0.677748	-0.151104	-0.751654
H200	H	0.727976	-0.137651	-0.751686
C201	C	0.556683	-0.362926	-0.828245
C202	C	0.531371	-0.334065	-0.891346
H203	H	0.537167	-0.382423	-0.790978
H204	H	0.576241	-0.380105	-0.871047
H205	H	0.573803	-0.345819	-0.779903
H206	H	0.514253	-0.351172	-0.939694
H207	H	0.511805	-0.316884	-0.848541
H208	H	0.568388	-0.688457	-0.316958
C209	C	0.761037	-0.104632	-0.783844
C210	C	0.767114	-0.098549	-0.891746
H211	H	0.780552	-0.085147	-0.746651
H212	H	0.730860	-0.098051	-0.765853
H213	H	0.767584	-0.134823	-0.765849
H214	H	0.760564	-0.068358	-0.909743
H215	H	0.797298	-0.105126	-0.909745
H216	H	0.591729	-0.273771	-0.807558
H217	H	0.730043	-0.743803	-0.695529
C218	C	0.534985	-0.627225	-0.238758
C219	C	0.560182	-0.596677	-0.297773
H220	H	0.515494	-0.611344	-0.193109
H221	H	0.517799	-0.645521	-0.284506
H222	H	0.554577	-0.645524	-0.198623
H223	H	0.540590	-0.578380	-0.337914
H224	H	0.577370	-0.578374	-0.252019
C225	C	0.563668	-0.448849	-0.305904
C226	C	0.588879	-0.479303	-0.364948
H227	H	0.544179	-0.464804	-0.260280
H228	H	0.583247	-0.430553	-0.265750
H229	H	0.546473	-0.430542	-0.351644
H230	H	0.606076	-0.497608	-0.319208
H231	H	0.569297	-0.497607	-0.405104
C232	C	-0.174600	-0.165870	-0.751577
C233	C	-0.185952	-0.156127	-0.647570
H234	H	-0.190503	-0.146396	-0.797253
H235	H	-0.143300	-0.161757	-0.761206
H236	H	-0.182305	-0.196063	-0.766810
H237	H	-0.178244	-0.125934	-0.632335
H238	H	-0.217259	-0.160236	-0.637936
H239	H	0.706774	-0.158798	-1.205878
C240	C	0.359312	-0.305492	-0.423957
C241	C	0.386299	-0.276614	-0.364834
H242	H	0.343373	-0.324966	-0.378266
H243	H	0.338648	-0.288399	-0.464039
H244	H	0.377616	-0.322700	-0.469649
H245	H	0.367995	-0.259403	-0.319146
H246	H	0.406965	-0.293708	-0.324734
C247	C	0.454463	-0.130940	-0.706559
C248	C	0.484935	-0.156129	-0.647474
H249	H	0.470403	-0.111463	-0.752239
H250	H	0.436160	-0.150534	-0.746656
H251	H	0.436164	-0.113735	-0.660850
H252	H	0.503231	-0.173337	-0.693183
H253	H	0.503245	-0.136533	-0.607374
C254	C	0.238668	-0.102234	-0.773892
C255	C	0.269144	-0.127421	-0.714814
H256	H	0.254606	-0.082751	-0.819565
H257	H	0.220369	-0.121828	-0.813995
H258	H	0.220366	-0.085034	-0.728178
H259	H	0.287444	-0.144623	-0.760528
H260	H	0.287451	-0.107824	-0.674707
C261	C	0.757467	-0.054023	-1.095608
C262	C	0.767130	-0.098512	-1.122083
H263	H	0.776985	-0.034524	-1.132868
H264	H	0.727292	-0.047445	-1.113583
H265	H	0.761578	-0.049925	-1.022416
H266	H	0.763016	-0.102610	-1.195274
H267	H	0.797312	-0.105091	-1.104115
C268	C	0.143693	-0.152802	-0.782201
C269	C	0.170668	-0.127427	-0.714842
H270	H	0.127801	-0.133328	-0.827898
H271	H	0.161995	-0.172395	-0.822278
H272	H	0.122983	-0.169887	-0.742104
H273	H	0.191380	-0.110345	-0.754938
H274	H	0.152364	-0.107827	-0.674762
H275	H	-0.094284	-0.268435	-0.384080
C276	C	0.002928	-0.152798	-0.782184
C277	C	0.029910	-0.127424	-0.714840
H278	H	-0.012975	-0.133324	-0.827859
H279	H	0.021227	-0.172385	-0.822287
H280	H	-0.017771	-0.169890	-0.742076
H281	H	0.050612	-0.110334	-0.754948
H282	H	0.011609	-0.107830	-0.674734
C283	C	0.155155	-0.334182	-0.356677
C284	C	0.128187	-0.305302	-0.297551
H285	H	0.171048	-0.353659	-0.310989
H286	H	0.136848	-0.351383	-0.402372
H287	H	0.175863	-0.317088	-0.396755
H288	H	0.107476	-0.322396	-0.257478
H289	H	0.146495	-0.288100	-0.251837
C290	C	0.699698	-0.391892	-0.751309
C291	C	0.709420	-0.380585	-0.647283
H292	H	0.719180	-0.375935	-0.796947
H293	H	0.703816	-0.423180	-0.760937
H294	H	0.669507	-0.384220	-0.766596
H295	H	0.739610	-0.388260	-0.631993
H296	H	0.705306	-0.349289	-0.637650
C297	C	0.684100	-0.506039	-0.714764
C298	C	0.709445	-0.479069	-0.647335
H299	H	0.703594	-0.521916	-0.760417
H300	H	0.667009	-0.526758	-0.674723
H301	H	0.664514	-0.487732	-0.754894
H302	H	0.729029	-0.497376	-0.607199
H303	H	0.726544	-0.458348	-0.687381
H304	H	0.121703	-0.135600	-0.695658
C305	C	0.763396	-0.626816	-0.773677
C306	C	0.738189	-0.596357	-0.714638
H307	H	0.782877	-0.610865	-0.819325
H308	H	0.780593	-0.645116	-0.727943
H309	H	0.743810	-0.645119	-0.813814
H310	H	0.757775	-0.578056	-0.674495
H311	H	0.720990	-0.578049	-0.760377
