data_functionalizedCrystal
_audit_creation_method	'MofGen! by Chris Wilmer'
_symmetry_space_group_name_H-M	'P1'
_symmetry_Int_Tables_number	1
_symmetry_cell_setting	triclinic
loop_
_symmetry_equiv_pos_as_xyz
  x,y,z
_cell_length_a	18.050591
_cell_length_b	18.050590
_cell_length_c	18.215399
_cell_angle_alpha	89.971265
_cell_angle_beta	89.975463
_cell_angle_gamma	90.015000
loop_
_atom_site_label
_atom_site_type_symbol
_atom_site_fract_x
_atom_site_fract_y
_atom_site_fract_z
Zn1	Zn	1.135377	-0.295737	-0.416204
Zn2	Zn	1.135299	-0.419932	-0.293136
Zn3	Zn	1.011186	-0.295753	-0.293141
Zn4	Zn	1.011166	-0.419882	-0.416151
O5	O	1.073257	-0.357826	-0.354658
O6	O	1.239292	-0.312227	-0.399899
O7	O	1.118811	-0.403487	-0.190153
O8	O	1.027702	-0.191826	-0.309490
O9	O	1.239234	-0.403472	-0.309482
O10	O	1.118945	-0.191815	-0.399904
O11	O	1.027626	-0.312253	-0.190156
O12	O	0.907259	-0.312205	-0.309439
O13	O	1.027667	-0.403387	-0.519142
O14	O	0.907244	-0.403402	-0.399813
O15	O	1.118925	-0.312178	-0.519181
O16	O	1.118791	-0.523850	-0.309430
O17	O	1.027591	-0.523814	-0.399808
C18	C	0.880305	-0.357800	-0.354621
C19	C	0.797759	-0.357807	-0.354623
C20	C	0.548920	-0.308162	-0.305594
C21	C	0.598355	-0.290075	-0.372757
C22	C	0.500639	-0.357845	-0.354683
C23	C	0.598286	-0.375878	-0.287494
C24	C	0.646624	-0.357824	-0.354650
C25	C	0.548986	-0.339722	-0.421882
C26	C	0.548913	-0.425557	-0.336575
C27	C	0.598325	-0.407496	-0.403784
C28	C	0.416540	-0.357855	-0.354701
C29	C	0.730720	-0.357815	-0.354640
C30	C	1.073200	-0.550778	-0.354629
C31	C	1.073243	-0.633324	-0.354641
C32	C	1.122941	-0.832768	-0.305562
C33	C	1.141082	-0.882101	-0.372730
C34	C	1.073286	-0.784455	-0.354670
C35	C	1.055220	-0.882203	-0.287532
C36	C	1.073328	-0.930440	-0.354693
C37	C	1.091462	-0.832701	-0.421874
C38	C	1.005568	-0.832798	-0.336631
C39	C	1.023683	-0.882109	-0.403845
C40	C	1.073263	-0.700356	-0.354656
C41	C	1.073350	-1.014536	-0.354714
C42	C	1.266963	-0.357853	-0.354696
C43	C	1.349508	-0.357865	-0.354712
C44	C	1.073302	-0.357775	-0.546611
C45	C	1.073322	-0.357753	-0.628410
C46	C	1.073335	-0.164121	-0.354704
C47	C	1.073368	-0.081575	-0.354723
C48	C	1.120857	-0.310216	-0.816626
C49	C	1.120865	-0.310195	-0.893485
C50	C	1.025839	-0.405175	-0.893433
C51	C	1.025827	-0.405193	-0.816575
C52	C	1.073340	-0.357714	-0.778174
C53	C	1.073361	-0.357675	-0.931890
C54	C	1.073370	-0.357652	-1.015224
C55	C	1.073330	-0.357736	-0.694835
C56	C	1.073255	-0.357824	-0.163452
C57	C	1.073379	-0.357636	-0.081654
H58	H	0.619944	-0.391140	-0.230688
O59	O	0.624145	-0.221701	-0.390999
C60	C	0.593213	-0.096153	-0.423915
C61	C	0.563909	-0.173547	-0.403255
H62	H	0.544527	-0.057204	-0.433845
H63	H	0.628795	-0.073700	-0.377260
H64	H	0.628019	-0.100277	-0.475991
H65	H	0.529072	-0.169486	-0.351199
H66	H	0.528368	-0.195972	-0.449953
H67	H	1.164947	-0.811102	-0.264075
H68	H	1.159543	-0.271555	-0.785362
O69	O	0.624172	-0.457600	-0.453290
C70	C	0.731453	-0.514218	-0.508509
C71	C	0.702279	-0.457469	-0.452403
H72	H	0.794606	-0.514120	-0.507822
H73	H	0.710296	-0.571804	-0.493580
H74	H	0.711046	-0.498704	-0.565705
H75	H	0.722674	-0.472914	-0.395188
H76	H	0.723430	-0.399898	-0.467395
H77	H	1.159557	-0.271516	-0.924789
H78	H	0.527180	-0.482813	-0.321247
H79	H	0.527420	-0.324394	-0.478705
H80	H	0.987157	-0.443832	-0.924708
O81	O	0.973617	-0.907924	-0.453399
C82	C	0.917052	-1.015169	-0.508701
C83	C	0.973759	-0.986032	-0.452542
H84	H	0.917159	-1.078322	-0.508038
H85	H	0.859453	-0.994070	-0.493807
H86	H	0.932603	-0.994676	-0.565878
H87	H	0.958277	-1.006513	-0.395346
H88	H	1.031343	-1.007125	-0.467499
O89	O	0.979644	-0.451406	-0.779332
C90	C	0.885361	-0.545582	-0.787384
C91	C	0.937636	-0.493301	-0.829654
H92	H	0.851373	-0.579456	-0.828051
H93	H	0.919403	-0.584474	-0.751420
H94	H	0.846569	-0.511476	-0.751381
H95	H	0.976439	-0.527347	-0.865697
H96	H	0.903548	-0.454407	-0.865572
O97	O	0.937190	-0.807024	-0.318475
C98	C	0.807340	-0.803919	-0.348968
C99	C	0.884732	-0.833173	-0.369613
H100	H	0.764909	-0.825035	-0.390310
H101	H	0.791939	-0.824244	-0.291692
H102	H	0.807889	-0.740767	-0.349642
H103	H	0.884242	-0.896323	-0.368982
H104	H	0.900103	-0.812791	-0.426877
H105	H	0.527230	-0.266125	-0.264145
H106	H	1.106702	-0.811049	-0.478710
O107	O	1.036876	-0.908230	-0.219844
C108	C	0.951118	-0.980581	-0.148072
C109	C	0.971808	-0.951172	-0.224772
H110	H	0.898501	-1.015293	-0.152028
H111	H	0.998219	-1.016254	-0.125982
H112	H	0.941293	-0.931916	-0.109410
H113	H	0.981622	-0.999791	-0.263489
H114	H	0.924696	-0.915477	-0.246802
H115	H	1.198368	-0.903760	-0.388003
