data_functionalizedCrystal
_audit_creation_method	'MofGen! by Chris Wilmer'
_symmetry_space_group_name_H-M	'P1'
_symmetry_Int_Tables_number	1
_symmetry_cell_setting	triclinic
loop_
_symmetry_equiv_pos_as_xyz
  x,y,z
_cell_length_a	14.971482
_cell_length_b	13.262508
_cell_length_c	11.804365
_cell_angle_alpha	62.674773
_cell_angle_beta	101.861871
_cell_angle_gamma	84.039810
loop_
_atom_site_label
_atom_site_type_symbol
_atom_site_fract_x
_atom_site_fract_y
_atom_site_fract_z
O1	O	1.198009	0.124192	0.058785
O2	O	0.936620	0.141793	0.053089
O3	O	1.083525	-0.031152	0.109096
O4	O	1.051104	0.297136	0.002778
O5	O	1.044853	0.014332	-0.103689
O6	O	0.897948	0.187277	-0.159696
O7	O	1.159337	0.169676	-0.154001
Cu8	Cu	1.025112	0.182629	-0.176278
Cu9	Cu	1.070846	0.128839	0.075366
O10	O	1.012432	0.342620	-0.210008
C11	C	0.884003	0.163748	-0.053048
C12	C	0.784839	0.161391	-0.052283
C13	C	0.717177	0.185074	-0.167914
C14	C	0.624003	0.182842	-0.167192
C15	C	0.598494	0.156934	-0.050841
C16	C	0.666165	0.133246	0.064801
C17	C	0.759337	0.135470	0.064080
C18	C	0.471962	0.128614	0.066293
C19	C	0.378783	0.126392	0.067013
C20	C	0.336628	0.175986	-0.164980
C21	C	0.429801	0.178211	-0.165700
C22	C	0.497465	0.154524	-0.050059
C23	C	1.065928	-0.050423	0.016312
C24	C	1.071099	-0.175609	0.056862
C25	C	1.001347	-0.429325	-0.292806
C26	C	0.996482	-0.311705	-0.330906
C27	C	1.015136	-0.277675	-0.233967
C28	C	1.038656	-0.361277	-0.098921
C29	C	1.043515	-0.478907	-0.060817
C30	C	1.057303	-0.327257	-0.001979
C31	C	1.080824	-0.410859	0.133067
C32	C	1.085682	-0.528477	0.171164
C33	C	1.067028	-0.562507	0.074225
C34	C	1.052445	-0.209627	-0.040083
C35	C	1.094612	-0.259209	0.191905
C36	C	1.099478	-0.376829	0.230006
C37	C	1.211954	0.147720	-0.047861
C38	C	1.311120	0.150075	-0.048618
C39	C	1.030030	0.361891	-0.117221
C40	C	1.024860	0.487075	-0.157763
N41	N	0.992951	0.220461	-0.353270
C42	C	1.180244	0.000128	-0.655865
C43	C	1.204572	-0.028497	-0.521933
C44	C	1.151669	0.033740	-0.479761
C45	C	1.074433	0.124607	-0.571533
C46	C	1.050107	0.153240	-0.705480
C47	C	1.021532	0.186853	-0.529376
C48	C	0.944296	0.277720	-0.621148
C49	C	0.919973	0.306348	-0.755081
C50	C	0.972877	0.244111	-0.797254
C51	C	1.045858	0.158219	-0.395429
C52	C	0.915721	0.311332	-0.445044
C53	C	0.891393	0.339957	-0.578975
N54	N	1.103014	0.090998	0.252361
H55	H	0.527054	0.109326	0.160460
Br56	Br	1.008527	-0.118044	-0.285677
Br57	Br	0.964543	-0.198251	-0.514175
Br58	Br	0.976011	-0.475511	-0.424350
Br59	Br	1.073633	-0.722141	0.125930
Br60	Br	1.131402	-0.490301	0.413278
Br61	Br	1.119907	-0.213033	0.323473
H62	H	1.104826	-0.596544	0.281127
H63	H	0.953067	0.267414	-0.906310
Br64	Br	0.815167	0.429683	-0.879638
Br65	Br	0.786574	0.463272	-0.703534
Br66	Br	1.150675	0.034906	-0.270898
H67	H	0.358017	0.105296	0.161757
Br68	Br	1.309388	-0.151806	-0.397389
Br69	Br	1.252044	-0.084316	-0.713106
Br70	Br	0.843925	0.395809	-0.387823
H71	H	1.171481	0.010429	-0.370706
H72	H	0.737936	0.206181	-0.262664
Br73	Br	0.631554	0.098035	0.222725
Br74	Br	0.464418	0.213389	-0.323613
Br75	Br	0.532174	0.215004	-0.324134
H76	H	1.033286	-0.141567	-0.150039
Br77	Br	0.851169	0.103317	0.221018
H78	H	0.281530	0.195273	-0.259139
