data_functionalizedCrystal
_audit_creation_method	'MofGen! by Chris Wilmer'
_symmetry_space_group_name_H-M	'P1'
_symmetry_Int_Tables_number	1
_symmetry_cell_setting	triclinic
loop_
_symmetry_equiv_pos_as_xyz
  x,y,z
_cell_length_a	17.000383
_cell_length_b	9.065218
_cell_length_c	8.140239
_cell_angle_alpha	90.001686
_cell_angle_beta	89.994131
_cell_angle_gamma	99.691906
loop_
_atom_site_label
_atom_site_type_symbol
_atom_site_fract_x
_atom_site_fract_y
_atom_site_fract_z
O1	O	1.056481	-0.053127	-0.136724
O2	O	1.389815	0.280206	0.196609
O3	O	1.723148	0.613540	0.529942
O4	O	0.825135	-0.106617	-0.136701
O5	O	1.158468	0.226716	0.196632
O6	O	1.491801	0.560050	0.529966
O7	O	0.945590	0.135509	-0.136710
O8	O	1.278923	0.468843	0.196624
O9	O	1.612256	0.802176	0.529957
O10	O	0.936026	-0.295253	-0.136715
O11	O	1.269359	0.038080	0.196618
O12	O	1.602693	0.371413	0.529951
O13	O	0.945583	0.135511	0.136517
O14	O	1.278916	0.468844	0.469851
O15	O	1.612250	0.802178	0.803184
O16	O	0.825128	-0.106615	0.136526
O17	O	1.158461	0.226718	0.469859
O18	O	1.491795	0.560051	0.803193
O19	O	1.056474	-0.053125	0.136503
O20	O	1.389808	0.280208	0.469836
O21	O	1.723141	0.613541	0.803170
Zn22	Zn	0.940800	-0.079870	0.179895
Zn23	Zn	1.274133	0.253463	0.513228
Zn24	Zn	1.607467	0.586797	0.846562
Zn25	Zn	0.940809	-0.079872	-0.180093
Zn26	Zn	1.274142	0.253461	0.153240
Zn27	Zn	1.607476	0.586794	0.486573
O28	O	0.936019	-0.295252	0.136512
O29	O	1.269353	0.038082	0.469845
O30	O	1.602686	0.371415	0.803178
C31	C	0.795498	-0.109489	-0.000085
C32	C	1.128832	0.223845	0.333249
C33	C	1.462165	0.557178	0.666582
C34	C	0.707201	-0.118031	-0.000076
C35	C	1.040535	0.215302	0.333257
C36	C	1.373868	0.548636	0.666591
C37	C	0.207382	-0.173190	-0.000138
C38	C	0.540716	0.160143	0.333195
C39	C	0.874049	0.493476	0.666529
C40	C	0.290347	-0.165152	-0.000136
C41	C	0.623681	0.168181	0.333197
C42	C	0.957014	0.501514	0.666530
C43	C	0.340336	-0.025634	-0.000122
C44	C	0.673669	0.307699	0.333211
C45	C	1.007003	0.641033	0.666544
C46	C	0.307356	0.105855	-0.000126
C47	C	0.640690	0.439188	0.333207
C48	C	0.974023	0.772522	0.666541
C49	C	0.224393	0.097816	-0.000139
C50	C	0.557726	0.431149	0.333194
C51	C	0.891059	0.764482	0.666528
C52	C	0.591258	0.005419	-0.000093
C53	C	0.924591	0.338752	0.333241
C54	C	1.257925	0.672085	0.666574
C55	C	0.674227	0.013448	-0.000075
C56	C	1.007560	0.346781	0.333259
C57	C	1.340894	0.680115	0.666592
C58	C	0.657212	-0.257561	-0.000088
C59	C	0.990545	0.075773	0.333245
C60	C	1.323879	0.409106	0.666578
C61	C	0.574248	-0.265588	-0.000092
C62	C	0.907581	0.067746	0.333242
C63	C	1.240914	0.401079	0.666575
C64	C	0.541275	-0.134099	-0.000104
C65	C	0.874608	0.199235	0.333229
C66	C	1.207942	0.532568	0.666563
C67	C	0.425140	-0.017414	-0.000116
C68	C	0.758473	0.315919	0.333218
C69	C	1.091807	0.649252	0.666551
C70	C	0.456473	-0.142320	-0.000122
C71	C	0.789806	0.191014	0.333211
C72	C	1.123139	0.524347	0.666544
C73	C	0.944667	0.190355	-0.000099
C74	C	1.278001	0.523688	0.333235
C75	C	1.611334	0.857021	0.666568
C76	C	0.941919	0.353773	-0.000106
C77	C	1.275252	0.687106	0.333227
C78	C	1.608586	1.020440	0.666560
C79	C	1.086111	-0.050253	-0.000117
C80	C	1.419444	0.283080	0.333216
C81	C	1.752777	0.616413	0.666549
C82	C	1.174408	-0.041711	-0.000137
C83	C	1.507741	0.291622	0.333197
C84	C	1.841074	0.624955	0.666530
C85	C	0.936942	-0.350097	-0.000103
C86	C	1.270275	-0.016764	0.333230
C87	C	1.603608	0.316570	0.666564
C88	C	0.939690	-0.513515	-0.000106
C89	C	1.273023	-0.180182	0.333227
C90	C	1.606357	0.153151	0.666560
N91	N	0.940800	-0.079867	0.425578
N92	N	1.274133	0.253466	0.758911
N93	N	1.607466	0.586800	1.092244
N94	N	0.940815	-0.079863	-0.425776
N95	N	1.274149	0.253470	-0.092443
N96	N	1.607482	0.586804	0.240891
H97	H	0.415768	-0.255915	-0.000142
H98	H	0.749101	0.077419	0.333192
H99	H	1.082435	0.410752	0.666525
H100	H	0.684068	-0.364611	-0.000081
H101	H	1.017401	-0.031278	0.333253
H102	H	1.350734	0.302055	0.666586
Cl103	Cl	0.370200	0.281251	-0.000112
Cl104	Cl	0.703533	0.614585	0.333221
Cl105	Cl	1.036867	0.947918	0.666555
Cl106	Cl	0.549818	0.170720	-0.000147
Cl107	Cl	0.883151	0.504054	0.333186
Cl108	Cl	1.216484	0.837387	0.666520
Cl109	Cl	0.182939	0.263111	-0.000138
Cl110	Cl	0.516272	0.596445	0.333196
Cl111	Cl	0.849606	0.929778	0.666529
Cl112	Cl	0.487990	0.157975	-0.000080
Cl113	Cl	0.821323	0.491308	0.333253
Cl114	Cl	1.154656	0.824642	0.666587
H115	H	0.533551	-0.379199	-0.000108
H116	H	0.866884	-0.045865	0.333225
H117	H	1.200218	0.287468	0.666559
H118	H	0.166686	-0.286802	-0.000137
H119	H	0.500019	0.046532	0.333196
H120	H	0.833353	0.379865	0.666530
H121	H	0.317191	-0.272217	-0.000153
H122	H	0.650524	0.061117	0.333181
H123	H	0.983857	0.394450	0.666514
Cl124	Cl	0.737070	0.188856	-0.000060
Cl125	Cl	1.070403	0.522190	0.333274
Cl126	Cl	1.403737	0.855523	0.666607
