data_functionalizedCrystal
_audit_creation_method	'MofGen! by Chris Wilmer'
_symmetry_space_group_name_H-M	'P1'
_symmetry_Int_Tables_number	1
_symmetry_cell_setting	triclinic
loop_
_symmetry_equiv_pos_as_xyz
  x,y,z
_cell_length_a	15.944551
_cell_length_b	17.699083
_cell_length_c	16.176319
_cell_angle_alpha	89.998611
_cell_angle_beta	89.992246
_cell_angle_gamma	83.390877
loop_
_atom_site_label
_atom_site_type_symbol
_atom_site_fract_x
_atom_site_fract_y
_atom_site_fract_z
O1	O	0.106222	1.004260	-0.068632
O2	O	0.606222	1.504260	0.431368
O3	O	0.120042	0.783905	-0.068660
O4	O	0.620042	1.283905	0.431340
O5	O	-0.009156	0.900100	-0.068638
O6	O	0.490844	1.400100	0.431362
O7	O	0.235419	0.888065	-0.068654
O8	O	0.735419	1.388065	0.431346
O9	O	-0.009164	0.900084	0.068855
O10	O	0.490836	1.400084	0.568855
O11	O	0.120033	0.783889	0.068833
O12	O	0.620033	1.283889	0.568833
O13	O	0.106214	1.004244	0.068861
O14	O	0.606214	1.504244	0.568861
Cu15	Cu	0.113123	0.894065	0.081401
Cu16	Cu	0.613123	1.394065	0.581401
Cu17	Cu	0.113133	0.894084	-0.081200
Cu18	Cu	0.613133	1.394084	0.418800
O19	O	0.235411	0.888049	0.068839
O20	O	0.735411	1.388049	0.568839
C21	C	0.119542	0.755700	0.000083
C22	C	0.619542	1.255700	0.500083
C23	C	0.118057	0.671679	0.000073
C24	C	0.618057	1.171679	0.500073
C25	C	0.193893	0.623187	0.000068
C26	C	0.693893	1.123187	0.500068
C27	C	0.192492	0.544242	0.000079
C28	C	0.692492	1.044242	0.500079
C29	C	0.115254	0.513789	0.000089
C30	C	0.615254	1.013789	0.500089
C31	C	0.039412	0.562287	0.000096
C32	C	0.539412	1.062287	0.500096
C33	C	0.040814	0.641231	0.000091
C34	C	0.540814	1.141231	0.500091
C35	C	0.033758	0.243914	0.000117
C36	C	0.533758	0.743914	0.500117
C37	C	0.032362	0.164964	0.000119
C38	C	0.532362	0.664964	0.500119
C39	C	0.185436	0.146925	0.000105
C40	C	0.685436	0.646925	0.500105
C41	C	0.186837	0.225869	0.000100
C42	C	0.686837	0.725869	0.500100
C43	C	0.110996	0.274360	0.000112
C44	C	0.610996	0.774360	0.500112
C45	C	0.112516	0.359962	0.000102
C46	C	0.612516	0.859962	0.500102
C47	C	0.113733	0.428189	0.000093
C48	C	0.613733	0.928189	0.500093
C49	C	-0.040453	0.899593	0.000109
C50	C	0.459547	1.399593	0.500109
C51	C	-0.133696	0.898095	0.000109
C52	C	0.366304	1.398095	0.500109
C53	C	-0.348393	0.822492	0.000088
C54	C	0.151607	1.322492	0.500088
C55	C	-0.409488	0.857591	0.067885
C56	C	0.090512	1.357591	0.567885
C57	C	-0.304416	0.895385	0.000102
C58	C	0.195584	1.395385	0.500102
C59	C	-0.409464	0.857624	-0.067672
C60	C	0.090536	1.357624	0.432328
C61	C	-0.469323	0.892762	0.000092
C62	C	0.030677	1.392762	0.500092
C63	C	-0.364283	0.930505	0.067955
C64	C	0.135717	1.430505	0.567955
C65	C	-0.364252	0.930527	-0.067663
C66	C	0.135748	1.430527	0.432337
C67	C	-0.425329	0.965680	0.000150
C68	C	0.074671	1.465680	0.500150
C69	C	-0.209417	0.896894	0.000109
C70	C	0.290583	1.396894	0.500109
C71	C	-0.564321	0.891259	0.000092
C72	C	-0.064321	1.391259	0.500092
C73	C	0.266708	0.888557	0.000090
C74	C	0.766708	1.388557	0.500090
C75	C	0.359951	0.890055	0.000085
C76	C	0.859951	1.390055	0.500085
C77	C	0.106713	1.032450	0.000116
C78	C	0.606713	1.532450	0.500116
C79	C	0.108199	1.116471	0.000121
C80	C	0.608199	1.616471	0.500121
N81	N	0.113116	0.894058	0.195767
N82	N	0.613116	1.394058	0.695767
N83	N	0.113133	0.894098	-0.195565
N84	N	0.613133	1.394098	0.304435
C85	C	0.055930	0.945524	0.239040
C86	C	0.555930	1.445524	0.739040
C87	C	0.055929	0.945528	0.325588
C88	C	0.555929	1.445528	0.825588
C89	C	0.113118	0.894068	0.368859
C90	C	0.613118	1.394068	0.868859
C91	C	0.170306	0.842596	0.325579
C92	C	0.670306	1.342596	0.825579
C93	C	0.170303	0.842589	0.239034
C94	C	0.670303	1.342589	0.739034
C95	C	0.170322	0.842622	0.674608
C96	C	0.670322	1.342622	1.174608
C97	C	0.170323	0.842634	0.761159
C98	C	0.670323	1.342634	1.261159
C99	C	0.055949	0.945561	0.761161
C100	C	0.555949	1.445561	1.261161
C101	C	0.055945	0.945554	0.674616
C102	C	0.555945	1.445554	1.174616
C103	C	0.113130	0.894080	0.631343
C104	C	0.613130	1.394080	1.131343
C105	C	0.113129	0.894075	0.537499
C106	C	0.613129	1.394075	1.037499
C107	C	0.113124	0.894076	0.462702
C108	C	0.613124	1.394076	0.962702
H109	H	0.256789	0.647975	0.000060
H110	H	0.756789	1.147975	0.500060
C111	C	-0.006963	1.002175	0.808763
C112	C	0.493037	1.502175	1.308763
H113	H	0.001220	0.994806	0.866504
H114	H	0.501220	1.494806	1.366504
H115	H	0.002089	1.052684	0.794572
H116	H	0.502089	1.552684	1.294572
H117	H	-0.063014	0.993950	0.794586
H118	H	0.436986	1.493950	1.294586
C119	C	0.233242	0.786024	0.627015
C120	C	0.733242	1.286024	1.127015
H121	H	0.225053	0.793385	0.569274
H122	H	0.725053	1.293385	1.069274
H123	H	0.289284	0.794260	0.641197
H124	H	0.789284	1.294260	1.141197
H125	H	0.224202	0.735507	0.641202
H126	H	0.724202	1.235507	1.141202
C127	C	0.233190	0.785968	0.373172
C128	C	0.733190	1.285968	0.873172
H129	H	0.267234	0.755304	0.335002
H130	H	0.767234	1.255304	0.835002
H131	H	0.268131	0.813171	0.406936
H132	H	0.768131	1.313171	0.906936
H133	H	0.202988	0.754473	0.406929
H134	H	0.702988	1.254473	0.906929
C135	C	-0.436579	0.815939	0.145303
C136	C	0.063421	1.315939	0.645303
H137	H	-0.474325	0.849673	0.177226
H138	H	0.025675	1.349673	0.677226
H139	H	-0.463947	0.773403	0.129005
H140	H	0.036053	1.273403	0.629005
H141	H	-0.388170	0.799052	0.177450
H142	H	0.111830	1.299052	0.677450
H143	H	0.009364	0.987435	0.360821
H144	H	0.509364	1.487435	0.860821
C145	C	-0.337376	0.972104	0.145475
C146	C	0.162624	1.472104	0.645475
H147	H	-0.277884	0.972774	0.145021
H148	H	0.222116	1.472774	0.645021
H149	H	-0.364411	1.022816	0.145681
H150	H	0.135589	1.522816	0.645681
H151	H	-0.353219	0.946370	0.193551
H152	H	0.146781	1.446370	0.693551
H153	H	-0.314958	0.761987	0.000149
H154	H	0.185042	1.261987	0.500149
C155	C	0.233219	0.786013	0.808757
C156	C	0.733219	1.286013	1.308757
H157	H	0.267267	0.755347	0.770591
H158	H	0.767267	1.255347	1.270591
H159	H	0.268155	0.813228	0.842513
H160	H	0.768155	1.313228	1.342513
H161	H	0.203026	0.754518	0.842522
H162	H	0.703026	1.254518	1.342522
H163	H	-0.023476	0.537486	0.000116
H164	H	0.476524	1.037486	0.500116
H165	H	-0.429472	0.826790	-0.124993
H166	H	0.070528	1.326790	0.375007
C167	C	-0.006971	1.002135	0.191445
C168	C	0.493029	1.502135	0.691445
H169	H	0.001222	0.994767	0.133703
H170	H	0.501222	1.494767	0.633703
H171	H	-0.063021	0.993923	0.205637
H172	H	0.436979	1.493923	0.705637
H173	H	0.002094	1.052646	0.205625
H174	H	0.502094	1.552646	0.705625
C175	C	0.233210	0.785979	0.191432
C176	C	0.733210	1.285979	0.691432
H177	H	0.267276	0.755337	0.229597
H178	H	0.767276	1.255337	0.729597
H179	H	0.203036	0.754473	0.157680
H180	H	0.703036	1.254473	0.657680
H181	H	0.268139	0.813206	0.157663
H182	H	0.768139	1.313206	0.657663
C183	C	-0.470305	1.047483	0.000211
C184	C	0.029695	1.547483	0.500211
H185	H	-0.454850	1.073246	0.048414
H186	H	0.045150	1.573246	0.548414
H187	H	-0.454134	1.073574	-0.047485
H188	H	0.045866	1.573574	0.452515
H189	H	-0.529688	1.046093	-0.000239
H190	H	-0.029688	1.546093	0.499761
H191	H	0.009379	0.987460	0.639387
H192	H	0.509379	1.487460	1.139387
C193	C	0.275912	0.490904	0.000071
C194	C	0.775912	0.990904	0.500071
H195	H	0.322112	0.520347	0.000054
H196	H	0.822112	1.020347	0.500054
H197	H	0.278549	0.459735	0.048020
H198	H	0.778549	0.959735	0.548020
H199	H	0.278547	0.459731	-0.047879
H200	H	0.778547	0.959731	0.452121
C201	C	0.271798	0.259363	0.000093
C202	C	0.771798	0.759363	0.500093
H203	H	0.316764	0.219176	0.000100
H204	H	0.816764	0.719176	0.500100
H205	H	0.275533	0.289785	-0.047854
H206	H	0.775533	0.789785	0.452146
H207	H	0.275519	0.289783	0.048046
H208	H	0.775519	0.789783	0.548046
C209	C	-0.052604	0.131467	0.000138
C210	C	0.447396	0.631467	0.500138
H211	H	-0.097572	0.171652	0.000153
H212	H	0.402428	0.671652	0.500153
H213	H	-0.056334	0.101045	-0.047806
H214	H	0.443666	0.601045	0.452194
H215	H	-0.056325	0.101047	0.048094
H216	H	0.443675	0.601047	0.548094
H217	H	0.247189	0.107434	0.000100
H218	H	0.747189	0.607434	0.500100
H219	H	-0.027997	0.283386	0.000127
H220	H	0.472003	0.783386	0.500127
H221	H	-0.020940	0.680713	0.000095
H222	H	0.479060	1.180713	0.500095
C223	C	-0.337130	0.972148	-0.145084
C224	C	0.162870	1.472148	0.354916
H225	H	-0.352415	0.946181	-0.193211
H226	H	0.147585	1.446181	0.306789
H227	H	-0.364532	1.022730	-0.145566
H228	H	0.135468	1.522730	0.354434
H229	H	-0.277699	0.973194	-0.144250
H230	H	0.222301	1.473194	0.355750
