data_functionalizedCrystal
_audit_creation_method	'MofGen! by Chris Wilmer'
_symmetry_space_group_name_H-M	'P1'
_symmetry_Int_Tables_number	1
_symmetry_cell_setting	triclinic
loop_
_symmetry_equiv_pos_as_xyz
  x,y,z
_cell_length_a	10.654550
_cell_length_b	27.731996
_cell_length_c	9.130313
_cell_angle_alpha	89.992822
_cell_angle_beta	89.996220
_cell_angle_gamma	83.553145
loop_
_atom_site_label
_atom_site_type_symbol
_atom_site_fract_x
_atom_site_fract_y
_atom_site_fract_z
O1	O	1.664947	0.067885	-0.121941
O2	O	1.299194	0.074353	-0.121920
O3	O	1.493464	0.000792	-0.121899
O4	O	1.470677	0.141447	-0.121961
O5	O	1.493462	0.000794	0.121700
O6	O	1.299191	0.074355	0.121679
O7	O	1.664945	0.067887	0.121658
Cu8	Cu	1.482068	0.071121	0.143911
Cu9	Cu	1.482071	0.071119	-0.144173
O10	O	1.470675	0.141449	0.121638
C11	C	1.252415	0.073879	-0.000117
C12	C	1.113032	0.072458	-0.000107
C13	C	1.492995	-0.017218	-0.000095
C14	C	1.491585	-0.070883	-0.000080
C15	C	1.031705	0.115770	-0.000148
C16	C	0.900741	0.114432	-0.000173
C17	C	0.932445	0.026467	-0.000122
C18	C	1.063406	0.027805	-0.000087
C19	C	1.081331	0.160423	-0.000168
C20	C	1.000002	0.203739	-0.000210
C21	C	0.869038	0.202401	-0.000235
C22	C	0.819403	0.157747	-0.000217
C23	C	1.482716	-0.403655	-0.132937
C24	C	1.477362	-0.605347	-0.132962
O25	O	1.476616	-0.631423	-0.245892
N26	N	1.476695	-0.630567	-0.000178
C27	C	1.477359	-0.605361	0.132623
O28	O	1.476657	-0.631440	0.245564
C29	C	1.482704	-0.403670	0.132647
C30	C	1.483383	-0.378453	-0.000147
C31	C	1.483393	-0.378438	-0.265719
C32	C	1.484739	-0.328019	-0.265711
C33	C	1.485406	-0.302816	-0.132921
C34	C	1.484729	-0.328033	-0.000139
C35	C	1.483359	-0.378464	0.265445
C36	C	1.484692	-0.328038	0.265440
C37	C	1.485371	-0.302821	0.132646
C38	C	1.486742	-0.252411	0.132659
N39	N	1.487408	-0.227191	-0.000126
C40	C	1.486740	-0.252394	-0.132916
C41	C	1.474556	-0.711252	0.132601
C42	C	1.473222	-0.761674	0.132595
C43	C	1.473222	-0.761657	-0.132990
C44	C	1.474565	-0.711234	-0.132983
C45	C	1.475222	-0.686032	-0.000184
C46	C	1.489567	-0.146509	-0.132889
C47	C	1.490917	-0.096085	-0.132870
C48	C	1.490910	-0.096107	0.132715
C49	C	1.489567	-0.146527	0.132696
C50	C	1.488890	-0.171726	-0.000118
O51	O	1.487473	-0.226303	0.245530
O52	O	1.487415	-0.226305	-0.245840
C53	C	1.481370	-0.454075	-0.132944
C54	C	1.480693	-0.479292	-0.000162
C55	C	1.481360	-0.454090	0.132628
C56	C	1.479359	-0.529715	-0.000168
C57	C	1.478691	-0.554917	-0.132958
C58	C	1.479357	-0.529697	-0.265742
C59	C	1.480703	-0.479277	-0.265734
C60	C	1.480694	-0.479310	0.265413
C61	C	1.479350	-0.529729	0.265394
C62	C	1.478682	-0.554932	0.132604
C63	C	1.711724	0.068361	-0.000148
C64	C	1.851107	0.069782	-0.000167
C65	C	1.471144	0.159458	-0.000170
C66	C	1.472554	0.213123	-0.000195
N67	N	1.482075	0.071123	0.346534
N68	N	1.482074	0.071114	-0.346795
C69	C	1.568119	0.038561	0.423195
C70	C	1.568116	0.038555	0.576531
C71	C	1.396020	0.103677	0.576533
C72	C	1.396018	0.103680	0.423199
C73	C	1.654176	0.006003	0.346529
C74	C	1.740228	-0.026561	0.423191
C75	C	1.740225	-0.026567	0.576527
C76	C	1.654170	0.005992	0.653203
H77	H	1.187966	0.161518	-0.000154
H78	H	1.482845	-0.398953	-0.373859
O79	O	0.678148	0.156302	-0.000220
H80	H	0.650475	0.136958	-0.099496
O81	O	1.654167	0.005989	0.818589
H82	H	1.634817	-0.030193	0.859031
O83	O	1.303220	0.138798	0.659222
H84	H	1.317688	0.133329	0.778725
O85	O	1.488838	-0.173730	0.275917
H86	H	1.489523	-0.147732	0.368254
O87	O	1.053528	0.251899	-0.000206
H88	H	1.020804	0.272734	-0.099499
H89	H	1.654189	0.006006	0.221675
H90	H	1.810285	-0.053072	0.360753
O91	O	0.781322	0.249118	-0.000263
H92	H	0.681918	0.240688	-0.000264
O93	O	1.488826	-0.173685	-0.276133
H94	H	1.489528	-0.147673	-0.368452
O95	O	0.878907	-0.021691	-0.000116
H96	H	0.911606	-0.042521	0.099196
O97	O	1.151138	-0.018908	-0.000054
H98	H	1.094631	-0.050183	-0.000070
O99	O	1.491632	-0.068885	-0.276101
H100	H	1.490924	-0.094883	-0.368436
H101	H	1.485287	-0.307491	-0.373845
H102	H	1.810284	-0.053085	0.638943
O103	O	1.472519	-0.788872	0.275821
H104	H	1.386299	-0.807826	0.282181
H105	H	1.481255	-0.458750	-0.373868
H106	H	1.485209	-0.307520	0.373584
O107	O	1.303224	0.138802	0.340497
H108	H	1.243398	0.161447	0.419565
H109	H	1.472679	-0.782185	-0.241113
O110	O	1.475275	-0.684035	-0.276206
H111	H	1.474577	-0.710035	-0.368537
O112	O	1.475292	-0.684077	0.275849
H113	H	1.389428	-0.689741	0.339542
O114	O	1.482614	-0.405655	0.408673
H115	H	1.483284	-0.379650	0.500996
H116	H	1.491460	-0.075578	0.240829
H117	H	1.478819	-0.550226	-0.373865
O118	O	1.478615	-0.556926	0.408630
H119	H	1.479291	-0.530925	0.500960
H120	H	1.481240	-0.458795	0.373549
