data_functionalizedCrystal
_audit_creation_method	'MofGen! by Chris Wilmer'
_symmetry_space_group_name_H-M	'P1'
_symmetry_Int_Tables_number	1
_symmetry_cell_setting	triclinic
loop_
_symmetry_equiv_pos_as_xyz
  x,y,z
_cell_length_a	10.489741
_cell_length_b	18.366186
_cell_length_c	19.288865
_cell_angle_alpha	89.988521
_cell_angle_beta	83.837711
_cell_angle_gamma	89.993662
loop_
_atom_site_label
_atom_site_type_symbol
_atom_site_fract_x
_atom_site_fract_y
_atom_site_fract_z
O1	O	1.691846	-0.060514	0.097994
O2	O	1.320442	-0.060526	0.107192
O3	O	1.516876	-0.060505	0.001535
O4	O	1.495412	-0.060535	0.203651
O5	O	1.516842	0.060594	0.001529
O6	O	1.320409	0.060573	0.107187
O7	O	1.691813	0.060585	0.097988
Zn8	Zn	1.506105	0.079806	0.102587
Zn9	Zn	1.506149	-0.079747	0.102594
O10	O	1.495379	0.060564	0.203646
C11	C	1.272910	0.000022	0.106495
C12	C	1.131327	0.000018	0.104416
N13	N	1.506085	0.188697	0.102581
N14	N	1.506180	-0.188638	0.102594
C15	C	1.064707	0.000035	0.037189
C16	C	0.971879	-0.059677	0.068949
C17	C	0.971880	0.059718	0.068960
C18	C	1.040363	-0.059743	0.136204
C19	C	1.040374	0.059705	0.136205
C20	C	0.947572	-0.000021	0.168014
C21	C	1.739345	0.000035	0.098686
C22	C	1.880928	0.000035	0.100764
C23	C	1.516169	0.000046	-0.024349
C24	C	1.514095	0.000053	-0.101467
C25	C	1.593094	0.226807	0.055820
C26	C	1.593102	0.303035	0.055817
C27	C	1.506113	0.341150	0.102587
C28	C	1.419088	0.303031	0.149353
C29	C	1.419073	0.226805	0.149350
C30	C	1.489039	0.461901	0.165761
C31	C	1.489062	0.538126	0.165765
C32	C	1.506149	0.576258	0.102596
C33	C	1.523241	0.538155	0.039421
C34	C	1.523226	0.461929	0.039418
C35	C	1.506118	0.423805	0.102595
C36	C	1.593172	0.697022	0.055827
C37	C	1.593171	0.773252	0.055823
C38	C	1.419163	0.773247	0.149365
C39	C	1.419158	0.697019	0.149363
C40	C	1.506169	0.658911	0.102595
C41	C	1.629354	0.000060	-0.145390
C42	C	1.627406	0.000049	-0.217850
C43	C	1.510193	0.000044	-0.246384
C44	C	1.394920	0.000033	-0.202451
C45	C	1.396871	0.000037	-0.129992
C46	C	1.418039	0.042460	-0.355291
C47	C	1.416093	0.042460	-0.427748
C48	C	1.504171	0.000028	-0.469870
C49	C	1.594217	-0.042395	-0.439526
C50	C	1.596168	-0.042391	-0.367067
C51	C	1.508065	0.000039	-0.324952
C52	C	1.617326	0.000021	-0.592363
C53	C	1.615373	0.000005	-0.664824
C54	C	1.382884	-0.000003	-0.649423
C55	C	1.384839	0.000006	-0.576964
C56	C	1.502064	0.000021	-0.548438
C57	C	1.496086	0.000011	0.229530
C58	C	1.498159	-0.000000	0.306647
H59	H	1.115647	-0.000032	-0.018075
C60	C	0.879100	-0.000070	0.242746
H61	H	0.827516	0.042364	0.249711
H62	H	0.826445	-0.042101	0.249429
H63	H	0.941106	-0.000492	0.275203
C64	C	1.317047	0.089119	-0.461124
H65	H	1.328508	0.083046	-0.510310
H66	H	1.232990	0.074193	-0.443656
H67	H	1.328557	0.138909	-0.450002
C68	C	1.691102	-0.089078	-0.485849
H69	H	1.677036	-0.083014	-0.533348
H70	H	1.775806	-0.074160	-0.479571
H71	H	1.680213	-0.138864	-0.473214
H72	H	1.669484	-0.076935	-0.342364
H73	H	1.712777	0.000031	-0.569137
C74	C	0.930855	-0.127859	0.030528
H75	H	0.971367	-0.127782	-0.015951
H76	H	0.955450	-0.170265	0.053965
H77	H	0.840433	-0.127584	0.029852
C78	C	0.930884	0.127916	0.030519
H79	H	0.971421	0.127843	-0.015955
H80	H	0.840470	0.127666	0.029840
H81	H	0.955501	0.170313	0.053949
H82	H	1.070763	0.110182	0.164625
H83	H	1.721266	0.000052	-0.253619
C84	C	1.321145	0.089137	-0.308964
H85	H	1.267253	0.114409	-0.337412
H86	H	1.270415	0.058551	-0.277279
H87	H	1.366001	0.123259	-0.283628
H88	H	1.663941	0.195782	0.017737
H89	H	1.287447	-0.000010	-0.672654
H90	H	1.664018	0.665994	0.017744
C91	C	1.688818	0.344964	0.004378
H92	H	1.740639	0.311351	-0.023473
H93	H	1.643118	0.374716	-0.024779
H94	H	1.741766	0.374685	0.029657
H95	H	1.537139	0.430909	-0.012021
C96	C	1.323460	0.655096	0.200809
H97	H	1.271659	0.688711	0.228669
H98	H	1.270510	0.625371	0.175543
H99	H	1.369177	0.625350	0.229968
C100	C	1.542027	0.580089	-0.030068
H101	H	1.539571	0.630944	-0.021021
H102	H	1.622606	0.567597	-0.054412
H103	H	1.475471	0.567607	-0.057635
H104	H	1.070562	-0.110281	0.164629
H105	H	1.709234	0.000007	-0.700587
H106	H	1.475154	0.569143	0.217205
C107	C	1.470252	0.419963	0.235250
H108	H	1.460097	0.453571	0.272874
H109	H	1.395977	0.390233	0.236265
H110	H	1.543112	0.390220	0.239486
H111	H	1.664021	0.804281	0.017741
H112	H	1.348258	0.334069	0.187433
H113	H	1.348330	0.804279	0.187444
H114	H	1.348219	0.195775	0.187429
H115	H	1.290983	0.000004	-0.541200
H116	H	1.724807	0.000070	-0.122170
C117	C	1.265990	0.000031	-0.233835
H118	H	1.281334	0.000037	-0.283280
H119	H	1.218558	-0.042201	-0.218789
H120	H	1.218539	0.042265	-0.218804
H121	H	1.303011	0.000031	-0.094229
