data_functionalizedCrystal
_audit_creation_method	'MofGen! by Chris Wilmer'
_symmetry_space_group_name_H-M	'P1'
_symmetry_Int_Tables_number	1
_symmetry_cell_setting	triclinic
loop_
_symmetry_equiv_pos_as_xyz
  x,y,z
_cell_length_a	17.699083
_cell_length_b	17.699083
_cell_length_c	16.776229
_cell_angle_alpha	90.001114
_cell_angle_beta	89.992455
_cell_angle_gamma	96.716985
loop_
_atom_site_label
_atom_site_type_symbol
_atom_site_fract_x
_atom_site_fract_y
_atom_site_fract_z
O1	O	0.095713	-1.004078	-0.066178
O2	O	0.595713	-0.504078	0.433822
O3	O	0.108165	-0.783700	-0.066204
O4	O	0.608165	-0.283700	0.433796
O5	O	-0.008250	-0.900116	-0.066183
O6	O	0.491750	-0.400116	0.433817
O7	O	0.212128	-0.887663	-0.066199
O8	O	0.712128	-0.387663	0.433801
O9	O	-0.008257	-0.900100	0.066393
O10	O	0.491743	-0.400100	0.566393
O11	O	0.108158	-0.783685	0.066372
O12	O	0.608158	-0.283685	0.566372
O13	O	0.095706	-1.004063	0.066398
O14	O	0.595706	-0.504063	0.566398
Zn15	Zn	0.101931	-0.893871	0.087435
Zn16	Zn	0.601931	-0.393871	0.587435
Zn17	Zn	0.101940	-0.893892	-0.087241
Zn18	Zn	0.601940	-0.393892	0.412759
O19	O	0.212121	-0.887648	0.066378
O20	O	0.712121	-0.387648	0.566378
C21	C	0.107716	-0.755495	0.000081
C22	C	0.607716	-0.255495	0.500081
C23	C	0.106377	-0.671477	0.000071
C24	C	0.606377	-0.171477	0.500071
C25	C	-0.036451	-0.899662	0.000105
C26	C	0.463549	-0.399662	0.500105
C27	C	-0.120469	-0.898323	0.000105
C28	C	0.379531	-0.398323	0.500105
C29	C	0.096156	-1.032268	0.000112
C30	C	0.596156	-0.532268	0.500112
C31	C	0.097494	-1.116286	0.000116
C32	C	0.597494	-0.616286	0.500116
C33	C	-0.169090	-0.966656	0.000114
C34	C	0.330910	-0.466656	0.500114
C35	C	-0.248033	-0.965394	0.000107
C36	C	0.251967	-0.465394	0.500107
C37	C	-0.278354	-0.895798	0.000096
C38	C	0.221646	-0.395798	0.500096
C39	C	-0.229727	-0.827459	0.000085
C40	C	0.270273	-0.327459	0.500085
C41	C	-0.150785	-0.828722	0.000086
C42	C	0.349215	-0.328722	0.500086
C43	C	-0.548090	-0.822364	0.000078
C44	C	-0.048090	-0.322364	0.500078
C45	C	-0.627038	-0.821106	0.000078
C46	C	-0.127038	-0.321106	0.500078
C47	C	-0.645338	-0.959036	0.000099
C48	C	-0.145338	-0.459036	0.500099
C49	C	-0.566396	-0.960299	0.000100
C50	C	-0.066396	-0.460299	0.500100
C51	C	-0.517776	-0.891961	0.000084
C52	C	-0.017776	-0.391961	0.500084
C53	C	-0.432177	-0.893330	0.000090
C54	C	0.067823	-0.393330	0.500090
C55	C	-0.363951	-0.894427	0.000096
C56	C	0.136049	-0.394427	0.500096
C57	C	0.240322	-0.888102	0.000087
C58	C	0.740322	-0.388102	0.500087
C59	C	0.324340	-0.889440	0.000082
C60	C	0.824340	-0.389440	0.500082
N61	N	0.101924	-0.893863	0.206646
N62	N	0.601924	-0.393863	0.706646
C63	C	0.174710	-0.622856	0.000066
C64	C	0.674710	-0.122856	0.500066
C65	C	0.173448	-0.543913	0.000077
C66	C	0.673448	-0.043913	0.500077
C67	C	0.103852	-0.513592	0.000086
C68	C	0.603852	-0.013592	0.500086
C69	C	0.035513	-0.562219	0.000093
C70	C	0.535513	-0.062219	0.500093
C71	C	0.036776	-0.641161	0.000088
C72	C	0.536776	-0.141161	0.500088
C73	C	0.030418	-0.243856	0.000113
C74	C	0.530418	0.256144	0.500113
C75	C	0.029160	-0.164908	0.000115
C76	C	0.529160	0.335092	0.500115
C77	C	0.167090	-0.146608	0.000101
C78	C	0.667090	0.353392	0.500101
C79	C	0.168353	-0.225550	0.000097
C80	C	0.668353	0.274450	0.500097
C81	C	0.100015	-0.274170	0.000108
C82	C	0.600015	0.225830	0.500108
C83	C	0.101384	-0.359769	0.000098
C84	C	0.601384	0.140231	0.500098
C85	C	0.102481	-0.427995	0.000090
C86	C	0.602481	0.072005	0.500090
N87	N	0.101941	-0.893906	-0.206452
N88	N	0.601941	-0.393906	0.293548
C89	C	0.050396	-0.945428	0.248372
C90	C	0.550396	-0.445428	0.748372
C91	C	0.050396	-0.945432	0.331824
C92	C	0.550396	-0.445432	0.831824
C93	C	0.101927	-0.893875	0.373549
C94	C	0.601927	-0.393875	0.873549
C95	C	0.153457	-0.842305	0.331817
C96	C	0.653457	-0.342305	0.831817
C97	C	0.153454	-0.842297	0.248366
C98	C	0.653454	-0.342297	0.748366
C99	C	0.153472	-0.842332	0.668364
C100	C	0.653472	-0.342332	1.168364
C101	C	0.153473	-0.842345	0.751820
C102	C	0.653473	-0.342345	1.251820
C103	C	0.050414	-0.945466	0.751822
C104	C	0.550414	-0.445466	1.251822
C105	C	0.050411	-0.945459	0.668372
C106	C	0.550411	-0.445459	1.168372
C107	C	0.101938	-0.893887	0.626647
C108	C	0.601938	-0.393887	1.126647
C109	C	0.101937	-0.893882	0.536158
C110	C	0.601937	-0.393882	1.036158
C111	C	0.101932	-0.893882	0.464036
C112	C	0.601932	-0.393882	0.964036
H113	H	-0.144409	-1.023330	0.000128
H114	H	0.355591	-0.523330	0.500128
C115	C	-0.301513	-1.040567	0.000130
C116	C	0.198487	-0.540567	0.500130
N117	N	-0.341794	-1.097190	0.000152
N118	N	0.158206	-0.597190	0.500152
H119	H	-0.018868	-0.680748	0.000091
H120	H	0.481132	-0.180748	0.500091
C121	C	0.210251	-0.785699	0.622477
C122	C	0.710251	-0.285699	1.122477
N123	N	0.253055	-0.743075	0.587913
N124	N	0.753055	-0.243075	1.087913
C125	C	0.248621	-0.490433	0.000086
C126	C	0.748621	0.009567	0.500086
N127	N	0.305244	-0.450152	0.000099
N128	N	0.805244	0.049848	0.500099
H129	H	-0.541714	-1.016971	0.000113
H130	H	-0.041714	-0.516971	0.500113
C131	C	0.244914	-0.258898	0.000091
C132	C	0.744914	0.241102	0.500091
N133	N	0.302582	-0.284014	0.000093
N134	N	0.802582	0.215986	0.500093
C135	C	-0.494617	-0.747189	0.000056
C136	C	0.005383	-0.247189	0.500056
N137	N	-0.454339	-0.690564	0.000037
N138	N	0.045661	-0.190564	0.500037
H139	H	0.222734	-0.107012	0.000097
H140	H	0.722734	0.392988	0.500097
H141	H	0.008452	-0.987444	0.634402
H142	H	0.508452	-0.487444	1.134402
C143	C	0.210144	-0.785579	0.202467
C144	C	0.710144	-0.285579	0.702467
N145	N	0.252846	-0.742856	0.167898
N146	N	0.752846	-0.242856	0.667898
C147	C	0.210135	-0.785584	0.377716
C148	C	0.710135	-0.285584	0.877716
N149	N	0.252826	-0.742861	0.412287
N150	N	0.752826	-0.242861	0.912287
H151	H	0.195437	-0.800358	0.785791
H152	H	0.695437	-0.300358	1.285791
C153	C	-0.660388	-0.744541	0.000060
C154	C	-0.160388	-0.244541	0.500060
N155	N	-0.685507	-0.686875	0.000046
N156	N	-0.185507	-0.186875	0.500046
C157	C	-0.263082	-0.750902	0.000079
C158	C	0.236918	-0.250902	0.500079
N159	N	-0.288205	-0.693238	0.000082
N160	N	0.211795	-0.193238	0.500082
H161	H	-0.111198	-0.773078	0.000078
H162	H	0.388802	-0.273078	0.500078
H163	H	0.008438	-0.987419	0.365798
H164	H	0.508438	-0.487419	0.865798
C165	C	-0.047405	-0.131558	0.000135
C166	C	0.452595	0.368442	0.500135
N167	N	-0.105071	-0.106439	0.000152
N168	N	0.394929	0.393561	0.500152
H169	H	0.008437	-0.987414	0.214406
H170	H	0.508437	-0.487414	0.714406
H171	H	-0.684934	-1.014680	0.000107
H172	H	-0.184934	-0.514680	0.500107
H173	H	-0.021154	-0.537526	0.000112
H174	H	0.478846	-0.037526	0.500112
C175	C	-0.006274	-1.002191	0.797727
C176	C	0.493726	-0.502191	1.297727
N177	N	-0.048970	-1.044915	0.832301
N178	N	0.451030	-0.544915	1.332301
H179	H	-0.025228	-0.283434	0.000123
H180	H	0.474772	0.216566	0.500123
H181	H	0.231384	-0.647537	0.000058
H182	H	0.731384	-0.147537	0.500058
