data_functionalizedCrystal
_audit_creation_method	'MofGen! by Chris Wilmer'
_symmetry_space_group_name_H-M	'P1'
_symmetry_Int_Tables_number	1
_symmetry_cell_setting	triclinic
loop_
_symmetry_equiv_pos_as_xyz
  x,y,z
_cell_length_a	17.640112
_cell_length_b	21.295417
_cell_length_c	17.640968
_cell_angle_alpha	101.234808
_cell_angle_beta	87.860920
_cell_angle_gamma	101.256239
loop_
_atom_site_label
_atom_site_type_symbol
_atom_site_fract_x
_atom_site_fract_y
_atom_site_fract_z
Zn1	Zn	1.247775	-0.018088	0.195079
Zn2	Zn	1.581108	0.315246	0.528412
Zn3	Zn	1.914442	0.648579	0.861745
Zn4	Zn	1.221981	-0.147966	0.068087
Zn5	Zn	1.555314	0.185367	0.401420
Zn6	Zn	1.888648	0.518700	0.734753
Zn7	Zn	1.095099	-0.059037	0.093722
Zn8	Zn	1.428433	0.274296	0.427055
Zn9	Zn	1.761766	0.607629	0.760388
Zn10	Zn	1.120723	-0.139680	0.220669
Zn11	Zn	1.454057	0.193654	0.554003
Zn12	Zn	1.787390	0.526987	0.887336
O13	O	1.171395	-0.091193	0.144389
O14	O	1.504728	0.242141	0.477722
O15	O	1.838061	0.575474	0.811056
O16	O	1.350625	-0.021647	0.156795
O17	O	1.683958	0.311687	0.490128
O18	O	2.017292	0.645020	0.823461
O19	O	1.183631	-0.156775	-0.034787
O20	O	1.516964	0.176558	0.298546
O21	O	1.850298	0.509891	0.631879
O22	O	1.115423	0.034499	0.107185
O23	O	1.448756	0.367832	0.440519
O24	O	1.782090	0.701165	0.773852
O25	O	1.331674	-0.117068	0.063494
O26	O	1.665008	0.216265	0.396828
O27	O	1.998341	0.549599	0.730161
O28	O	1.227593	0.064584	0.181652
O29	O	1.560927	0.397917	0.514985
O30	O	1.894260	0.731251	0.848319
O31	O	1.090412	-0.091439	-0.015953
O32	O	1.423745	0.241894	0.317380
O33	O	1.757078	0.575227	0.650713
O34	O	0.992227	-0.083404	0.132000
O35	O	1.325560	0.249929	0.465333
O36	O	1.658893	0.583262	0.798666
O37	O	1.159096	-0.102945	0.323549
O38	O	1.492429	0.230389	0.656883
O39	O	1.825762	0.563722	0.990216
O40	O	1.011052	-0.142652	0.225268
O41	O	1.344386	0.190681	0.558601
O42	O	1.677719	0.524015	0.891934
O43	O	1.252440	-0.013612	0.304748
O44	O	1.585773	0.319722	0.638081
O45	O	1.919106	0.653055	0.971415
O46	O	1.208478	-0.234971	0.088309
O47	O	1.541811	0.098362	0.421642
O48	O	1.875144	0.431696	0.754975
O49	O	1.134084	-0.228883	0.200410
O50	O	1.467418	0.104450	0.533744
O51	O	1.800751	0.437784	0.867077
C52	C	0.974084	-0.116573	0.184193
C53	C	1.307418	0.216760	0.517526
C54	C	1.640751	0.550094	0.850859
C55	C	0.889678	-0.127442	0.201239
C56	C	1.223011	0.205891	0.534572
C57	C	1.556345	0.539224	0.867906
C58	C	1.171287	-0.254765	0.144367
C59	C	1.504620	0.078568	0.477701
C60	C	1.837953	0.411901	0.811034
C61	C	1.171315	-0.324729	0.144369
C62	C	1.504648	0.008605	0.477702
C63	C	1.837982	0.341938	0.811036
C64	C	0.563037	-0.008607	0.014897
C65	C	0.896371	0.324727	0.348231
C66	C	1.229704	0.658060	0.681564
C67	C	0.483727	-0.018831	0.030925
C68	C	0.817060	0.314502	0.364259
C69	C	1.150393	0.647836	0.697592
C70	C	0.503351	-0.080669	0.127878
C71	C	0.836684	0.252665	0.461211
C72	C	1.170017	0.585998	0.794544
C73	C	0.582665	-0.070447	0.111861
C74	C	0.915998	0.262886	0.445194
C75	C	1.249332	0.596220	0.778527
C76	C	0.612502	-0.034416	0.055369
C77	C	0.945835	0.298917	0.388702
C78	C	1.279168	0.632251	0.722036
C79	C	0.632129	-0.096257	0.152332
C80	C	0.965463	0.237077	0.485666
C81	C	1.298796	0.570410	0.818999
C82	C	0.711436	-0.086038	0.136313
C83	C	1.044770	0.247295	0.469647
C84	C	1.378103	0.580628	0.802980
C85	C	0.741279	-0.050011	0.079823
C86	C	1.074612	0.283323	0.413156
C87	C	1.407946	0.616656	0.746490
C88	C	0.691809	-0.024198	0.039350
C89	C	1.025142	0.309135	0.372684
C90	C	1.358475	0.642469	0.706017
C91	C	0.602290	-0.132291	0.208820
C92	C	0.935624	0.201042	0.542153
C93	C	1.268957	0.534375	0.875486
C94	C	0.651755	-0.158101	0.249291
C95	C	0.985088	0.175233	0.582625
C96	C	1.318421	0.508566	0.915958
C97	C	0.731064	-0.147879	0.233277
C98	C	1.064397	0.185455	0.566610
C99	C	1.397731	0.518788	0.899943
C100	C	0.760907	-0.111851	0.176786
C101	C	1.094240	0.221482	0.510119
C102	C	1.427573	0.554816	0.843453
C103	C	0.780534	-0.173691	0.273749
C104	C	1.113868	0.159642	0.607083
C105	C	1.447201	0.492975	0.940416
C106	C	0.859841	-0.163473	0.257730
C107	C	1.193175	0.169860	0.591064
C108	C	1.526508	0.503193	0.924397
C109	C	0.840214	-0.101633	0.160767
C110	C	1.173547	0.231700	0.494101
C111	C	1.506880	0.565034	0.827434
C112	C	1.210105	-0.360729	0.086039
C113	C	1.543438	-0.027396	0.419372
C114	C	1.876771	0.305938	0.752705
C115	C	1.210144	-0.426464	0.086049
C116	C	1.543477	-0.093130	0.419382
C117	C	1.876811	0.240203	0.752715
C118	C	1.171378	-0.456199	0.144384
C119	C	1.504711	-0.122865	0.477717
C120	C	1.838045	0.210468	0.811050
C121	C	1.132586	-0.420189	0.202724
C122	C	1.465920	-0.086855	0.536058
C123	C	1.799253	0.246478	0.869391
C124	C	1.132555	-0.354454	0.202717
C125	C	1.465888	-0.021120	0.536050
C126	C	1.799222	0.312213	0.869384
N127	N	1.106115	-0.566893	0.163575
N128	N	1.439448	-0.233559	0.496909
N129	N	1.772782	0.099774	0.830242
N130	N	1.106146	-0.629339	0.163577
N131	N	1.439479	-0.296005	0.496911
N132	N	1.772813	0.037328	0.830244
C133	C	1.171472	-0.654254	0.144410
C134	C	1.504805	-0.320921	0.477743
C135	C	1.838138	0.012413	0.811077
N136	N	1.236764	-0.614366	0.125225
N137	N	1.570097	-0.281033	0.458559
N138	N	1.903430	0.052300	0.791892
N139	N	1.236731	-0.551916	0.125220
N140	N	1.570064	-0.218582	0.458553
N141	N	1.903397	0.114751	0.791886
C142	C	1.171408	-0.527477	0.144398
C143	C	1.504741	-0.194143	0.477732
C144	C	1.838075	0.139190	0.811065
C145	C	1.210308	-0.761531	0.086087
C146	C	1.543641	-0.428198	0.419420
C147	C	1.876974	-0.094865	0.752754
C148	C	1.210349	-0.827266	0.086102
C149	C	1.543682	-0.493933	0.419435
C150	C	1.877016	-0.160599	0.752769
C151	C	1.132784	-0.820991	0.202775
C152	C	1.466117	-0.487658	0.536108
C153	C	1.799451	-0.154325	0.869442
C154	C	1.132750	-0.755256	0.202763
C155	C	1.466083	-0.421923	0.536096
C156	C	1.799417	-0.088590	0.869429
C157	C	1.171510	-0.725531	0.144415
C158	C	1.504843	-0.392198	0.477748
C159	C	1.838177	-0.058865	0.811081
C160	C	1.369475	-0.065714	0.104431
C161	C	1.702809	0.267620	0.437764
C162	C	2.036142	0.600953	0.771097
C163	C	1.453885	-0.054856	0.087403
C164	C	1.787219	0.278477	0.420736
C165	C	2.120552	0.611810	0.754069
C166	C	1.211503	-0.052786	0.342475
C167	C	1.544837	0.280547	0.675808
C168	C	1.878170	0.613881	1.009142
C169	C	1.228595	-0.036419	0.426887
C170	C	1.561929	0.296914	0.760221
C171	C	1.895262	0.630247	1.093554
C172	C	1.171527	0.073024	0.144424
C173	C	1.504860	0.406358	0.477757
C174	C	1.838194	0.739691	0.811090
C175	C	1.171584	0.143004	0.144438
C176	C	1.504917	0.476337	0.477772
C177	C	1.838250	0.809671	0.811105
C178	C	1.131486	-0.129399	-0.052935
C179	C	1.464819	0.203934	0.280399
C180	C	1.798152	0.537268	0.613732
C181	C	1.114541	-0.145569	-0.137376
C182	C	1.447874	0.187764	0.195957
C183	C	1.781208	0.521097	0.529290
C184	C	1.041841	-0.215148	0.753447
C185	C	1.375174	0.118185	1.086781
C186	C	1.708507	0.451518	1.420114
C187	C	1.057917	-0.199759	0.832762
C188	C	1.391251	0.133574	1.166096
C189	C	1.724584	0.466907	1.499429
C190	C	1.155108	-0.106745	0.813176
C191	C	1.488442	0.226589	1.146509
C192	C	1.821775	0.559922	1.479842
C193	C	1.139037	-0.122124	0.733858
C194	C	1.472371	0.211209	1.067191
C195	C	1.805704	0.544543	1.400524
C196	C	1.082403	-0.176327	0.704000
C197	C	1.415737	0.157006	1.037333
C198	C	1.749070	0.490340	1.370667
C199	C	1.179600	-0.083303	0.684411
C200	C	1.512933	0.250031	1.017744
C201	C	1.846267	0.583364	1.351077
C202	C	1.163533	-0.098683	0.605099
C203	C	1.496866	0.234650	0.938433
C204	C	1.830199	0.567984	1.271766
C205	C	1.106903	-0.152885	0.575235
C206	C	1.440236	0.180449	0.908568
C207	C	1.773570	0.513782	1.241902
C208	C	1.066336	-0.191707	0.624689
C209	C	1.399670	0.141626	0.958022
C210	C	1.733003	0.474959	1.291355
C211	C	1.236237	-0.029103	0.714269
C212	C	1.569571	0.304231	1.047602
C213	C	1.902904	0.637564	1.380936
C214	C	1.276800	0.009719	0.664822
C215	C	1.610133	0.343052	0.998155
C216	C	1.943467	0.676385	1.331489
C217	C	1.260729	-0.005659	0.585510
C218	C	1.594063	0.327675	0.918843
C219	C	1.927396	0.661008	1.252177
C220	C	1.204100	-0.059860	0.555646
C221	C	1.537433	0.273473	0.888979
C222	C	1.870766	0.606806	1.222312
C223	C	1.301296	0.033164	0.536056
C224	C	1.634630	0.366497	0.869390
C225	C	1.967963	0.699831	1.202723
C226	C	1.285229	0.017784	0.456745
C227	C	1.618562	0.351117	0.790078
C228	C	1.951896	0.684450	1.123412
C229	C	1.188033	-0.075241	0.476334
C230	C	1.521366	0.258093	0.809668
C231	C	1.854699	0.591426	1.143001
H232	H	0.864510	-0.072281	0.114778
H233	H	1.197844	0.261052	0.448111
H234	H	1.531177	0.594385	0.781444
H235	H	1.100967	-0.325141	0.250217
H236	H	1.434300	0.008192	0.583551
H237	H	1.767634	0.341526	0.916884
Br238	Br	0.848910	-0.036148	0.058075
Br239	Br	1.182243	0.297186	0.391408
Br240	Br	1.515576	0.630519	0.724741
Br241	Br	1.002860	-0.252451	0.899869
Br242	Br	1.336194	0.080882	1.233202
Br243	Br	1.669527	0.414215	1.566536
H244	H	1.201222	-0.062614	0.837497
H245	H	1.534555	0.270719	1.170830
H246	H	1.867888	0.604053	1.504163
Br247	Br	1.080181	-0.861336	0.281952
Br248	Br	1.413514	-0.528002	0.615285
Br249	Br	1.746848	-0.194669	0.948618
H250	H	1.101160	-0.725943	0.250258
H251	H	1.434493	-0.392610	0.583591
H252	H	1.767827	-0.059277	0.916925
Br253	Br	1.262906	-0.721187	0.006901
Br254	Br	1.596239	-0.387854	0.340235
Br255	Br	1.929572	-0.054520	0.673568
H256	H	1.141897	-0.119366	0.452027
H257	H	1.475231	0.213968	0.785360
H258	H	1.808564	0.547301	1.118693
H259	H	1.241941	-0.856576	0.038603
H260	H	1.575275	-0.523243	0.371936
H261	H	1.908608	-0.189909	0.705270
Br262	Br	0.964970	-0.288704	0.712920
Br263	Br	1.298304	0.044629	1.046254
Br264	Br	1.631637	0.377962	1.379587
H265	H	0.716105	0.005154	-0.006639
H266	H	1.049439	0.338487	0.326694
H267	H	1.382772	0.671820	0.660027
Br268	Br	0.603539	0.040301	-0.061763
Br269	Br	0.936873	0.373634	0.271570
Br270	Br	1.270206	0.706967	0.604903
H271	H	1.249319	-0.016583	0.778850
H272	H	1.582652	0.316750	1.112183
H273	H	1.915986	0.650084	1.445516
Br274	Br	1.085101	-0.173765	0.467596
Br275	Br	1.418435	0.159569	0.800929
Br276	Br	1.751768	0.492902	1.134263
Br277	Br	1.262720	-0.320387	0.006862
Br278	Br	1.596053	0.012946	0.340195
Br279	Br	1.929386	0.346279	0.673528
H280	H	1.241734	-0.455781	0.038549
H281	H	1.575067	-0.122447	0.371882
H282	H	1.908401	0.210886	0.705215
H283	H	0.756228	-0.203033	0.319739
H284	H	1.089561	0.130300	0.653072
H285	H	1.422894	0.463633	0.986406
H286	H	1.020201	-0.235832	0.600381
H287	H	1.353534	0.097501	0.933714
H288	H	1.686868	0.430834	1.267048
Br289	Br	1.079982	-0.460539	0.281899
Br290	Br	1.413315	-0.127206	0.615232
Br291	Br	1.746649	0.206128	0.948565
Br292	Br	1.353661	0.083275	0.705350
Br293	Br	1.686995	0.416608	1.038683
Br294	Br	2.020328	0.749942	1.372016
Br295	Br	0.494656	-0.146172	0.230547
Br296	Br	0.827989	0.187162	0.563881
Br297	Br	1.161322	0.520495	0.897214
Br298	Br	1.378164	0.106715	0.576585
Br299	Br	1.711498	0.440048	0.909918
Br300	Br	2.044831	0.773381	1.243252
H301	H	0.443455	0.002194	-0.002031
H302	H	0.776788	0.335528	0.331303
H303	H	1.110122	0.668861	0.664636
Br304	Br	0.611252	-0.207010	0.325944
Br305	Br	0.944586	0.126323	0.659277
Br306	Br	1.277919	0.459657	0.992610
Br307	Br	0.926976	-0.198505	0.312652
Br308	Br	1.260309	0.134829	0.645985
Br309	Br	1.593643	0.468162	0.979319
H310	H	0.479046	-0.110007	0.173871
H311	H	0.812379	0.223326	0.507204
H312	H	1.145713	0.556659	0.840537
Br313	Br	1.340283	0.070466	0.389632
Br314	Br	1.673617	0.403800	0.722965
Br315	Br	2.006950	0.737133	1.056298
