data_functionalizedCrystal
_audit_creation_method	'MofGen! by Chris Wilmer'
_symmetry_space_group_name_H-M	'P1'
_symmetry_Int_Tables_number	1
_symmetry_cell_setting	triclinic
loop_
_symmetry_equiv_pos_as_xyz
  x,y,z
_cell_length_a	17.640112
_cell_length_b	13.897448
_cell_length_c	17.640968
_cell_angle_alpha	101.231639
_cell_angle_beta	87.860920
_cell_angle_gamma	101.242525
loop_
_atom_site_label
_atom_site_type_symbol
_atom_site_fract_x
_atom_site_fract_y
_atom_site_fract_z
Zn1	Zn	1.247780	-0.027714	0.195080
Zn2	Zn	1.222024	-0.226719	0.068097
Zn3	Zn	1.095117	-0.090459	0.093726
Zn4	Zn	1.120765	-0.214022	0.220679
O5	O	1.171421	-0.139729	0.144395
O6	O	1.350631	-0.033168	0.156796
O7	O	1.183677	-0.240217	-0.034777
O8	O	1.115413	0.052860	0.107183
O9	O	1.331709	-0.179376	0.063502
O10	O	1.227574	0.098958	0.181648
O11	O	1.090439	-0.140107	-0.015947
O12	O	0.992251	-0.127795	0.132005
O13	O	1.159126	-0.157736	0.323556
O14	O	1.011094	-0.218577	0.225277
O15	O	1.252444	-0.020856	0.304749
O16	O	1.208547	-0.360031	0.088325
O17	O	1.134152	-0.350703	0.200426
C18	C	0.974119	-0.178617	0.184201
C19	C	0.889716	-0.195272	0.201248
C20	C	0.563040	-0.013187	0.014898
C21	C	0.483732	-0.028853	0.030926
C22	C	0.503374	-0.123604	0.127883
C23	C	0.582686	-0.107942	0.111865
C24	C	0.612512	-0.052734	0.055371
C25	C	0.632158	-0.147488	0.152339
C26	C	0.711462	-0.131831	0.136319
C27	C	0.741294	-0.076628	0.079826
C28	C	0.691816	-0.037077	0.039352
C29	C	0.602329	-0.202701	0.208829
C30	C	0.651801	-0.242247	0.249302
C31	C	0.731108	-0.226585	0.233287
C32	C	0.760940	-0.171382	0.176794
C33	C	0.780586	-0.266136	0.273761
C34	C	0.859889	-0.250480	0.257742
C35	C	0.840244	-0.155726	0.160774
C36	C	1.171362	-0.390361	0.144385
C37	C	1.171411	-0.497561	0.144391
C38	C	1.171500	-0.693826	0.144423
C39	C	1.171449	-0.584610	0.144408
C40	C	1.369495	-0.100689	0.104435
C41	C	1.453902	-0.084053	0.087406
C42	C	1.211519	-0.080881	0.342478
C43	C	1.228606	-0.055803	0.426890
C44	C	1.171506	0.111891	0.144419
C45	C	1.171541	0.219116	0.144429
C46	C	1.131524	-0.198270	-0.052926
C47	C	1.114584	-0.223047	-0.137366
C48	C	1.041904	-0.329658	0.753462
C49	C	1.057976	-0.306079	0.832776
C50	C	1.155140	-0.163558	0.813183
C51	C	1.139073	-0.187123	0.733866
C52	C	1.082455	-0.270175	0.704012
C53	C	1.179624	-0.127639	0.684416
C54	C	1.163562	-0.151206	0.605106
C55	C	1.106948	-0.234255	0.575246
C56	C	1.066393	-0.293741	0.624702
C57	C	1.236246	-0.044592	0.714271
C58	C	1.276797	0.014891	0.664821
C59	C	1.260731	-0.008670	0.585510
C60	C	1.204117	-0.091720	0.555650
C61	C	1.301286	0.050815	0.536054
C62	C	1.285224	0.027249	0.456744
C63	C	1.188055	-0.115286	0.476339
H64	H	0.443455	0.003362	-0.002031
H65	H	0.995782	-0.397268	0.729157
O66	O	0.869171	-0.102240	0.105793
C67	C	0.834433	-0.149484	0.033995
H68	H	0.811819	-0.232008	0.034463
H69	H	0.878990	-0.141962	-0.014044
H70	H	0.784402	-0.112686	0.023507
O71	O	0.818305	-0.061359	0.064143
C72	C	0.834023	-0.004130	0.005617
H73	H	0.779332	-0.012739	-0.029499
H74	H	0.881228	-0.031277	-0.033957
H75	H	0.854218	0.077902	0.032981
H76	H	0.627505	-0.287201	0.295297
H77	H	1.020271	-0.361351	0.600397
O78	O	1.324491	0.085026	0.408638
C79	C	1.271988	0.125195	0.371503
H80	H	1.212021	0.076303	0.371241
H81	H	1.291626	0.127634	0.309487
H82	H	1.269862	0.204127	0.403750
H83	H	1.024950	-0.354524	0.873037
O84	O	1.251845	-0.021521	0.791314
C85	C	1.237726	0.074958	0.821756
H86	H	1.241467	0.119499	0.773435
H87	H	1.282728	0.114619	0.867904
H88	H	1.177566	0.068772	0.848543
O89	O	1.356231	0.131586	0.564983
C90	C	1.335733	0.218712	0.548985
H91	H	1.294878	0.197855	0.497295
H92	H	1.390004	0.271963	0.535214
H93	H	1.305745	0.256769	0.601509
O94	O	0.591887	0.040424	-0.040031
C95	C	0.531221	0.071999	-0.072308
H96	H	0.474141	0.020546	-0.063568
H97	H	0.542012	0.069144	-0.136756
H98	H	0.528455	0.151836	-0.042703
O99	O	0.907962	-0.289019	0.296943
C100	C	0.945065	-0.355034	0.244355
H101	H	0.909040	-0.383371	0.189366
H102	H	0.951508	-0.421010	0.271540
H103	H	1.004647	-0.314103	0.229636
H104	H	0.716104	0.007896	-0.006640
H105	H	1.322898	0.082510	0.689139
H106	H	0.479078	-0.168557	0.173878
H107	H	0.537754	-0.215447	0.221869
O108	O	0.751586	-0.319609	0.328722
C109	C	0.715649	-0.259256	0.387096
H110	H	0.740525	-0.177150	0.387064
H111	H	0.726575	-0.277084	0.445673
H112	H	0.650790	-0.274730	0.375753
H113	H	1.141933	-0.182896	0.452035
H114	H	1.093874	-0.253445	0.510665
H115	H	1.201240	-0.095939	0.837501
