data_functionalizedCrystal
_audit_creation_method	'MofGen! by Chris Wilmer'
_symmetry_space_group_name_H-M	'P1'
_symmetry_Int_Tables_number	1
_symmetry_cell_setting	triclinic
loop_
_symmetry_equiv_pos_as_xyz
  x,y,z
_cell_length_a	21.295418
_cell_length_b	17.077402
_cell_length_c	17.077396
_cell_angle_alpha	90.030619
_cell_angle_beta	89.963466
_cell_angle_gamma	89.961304
loop_
_atom_site_label
_atom_site_type_symbol
_atom_site_fract_x
_atom_site_fract_y
_atom_site_fract_z
Zn1	Zn	0.962344	0.312170	-0.444240
Zn2	Zn	0.962274	0.443447	-0.312971
Zn3	Zn	0.857081	0.312235	-0.312944
Zn4	Zn	0.857051	0.443434	-0.444150
O5	O	0.909688	0.377822	-0.378576
O6	O	1.050424	0.329562	-0.426876
O7	O	0.948303	0.426074	-0.203120
O8	O	0.871086	0.202380	-0.330386
O9	O	1.050373	0.426011	-0.330433
O10	O	0.948423	0.202332	-0.426849
O11	O	0.871018	0.329674	-0.203100
O12	O	0.768987	0.329661	-0.330299
O13	O	0.871035	0.425989	-0.554009
O14	O	0.768966	0.426052	-0.426696
O15	O	0.948394	0.329550	-0.554075
O16	O	0.948274	0.553292	-0.330346
O17	O	0.870967	0.553283	-0.426723
C18	C	0.746136	0.377863	-0.378486
C19	C	0.676168	0.377900	-0.378466
C20	C	0.909627	0.581770	-0.378545
C21	C	0.909658	0.669019	-0.378558
C22	C	0.909719	0.377761	-0.583320
C23	C	0.909733	0.377735	-0.670570
C24	C	0.643306	0.428157	-0.428585
C25	C	0.577564	0.428138	-0.428620
C26	C	0.544685	0.377869	-0.378522
C27	C	0.577555	0.327602	-0.328400
C28	C	0.643296	0.327617	-0.328372
N29	N	0.441416	0.371740	-0.309865
N30	N	0.378964	0.371730	-0.309894
C31	C	0.346611	0.377819	-0.378605
N32	N	0.379068	0.383934	-0.447288
N33	N	0.441525	0.383948	-0.447258
C34	C	0.473400	0.377847	-0.378548
C35	C	0.242464	0.428058	-0.428767
C36	C	0.176720	0.428033	-0.428803
C37	C	0.176712	0.327502	-0.328576
C38	C	0.242455	0.327523	-0.328547
C39	C	0.275326	0.377805	-0.378641
C40	C	1.073878	0.377781	-0.378667
C41	C	1.143846	0.377763	-0.378706
C42	C	0.909766	0.173077	-0.378625
C43	C	0.909799	0.085828	-0.378645
C44	C	0.949953	0.709988	-0.328428
C45	C	0.949984	0.791969	-0.328448
C46	C	0.909716	0.832979	-0.378594
C47	C	0.869420	0.792004	-0.428729
C48	C	0.869393	0.710025	-0.428713
C49	C	0.869478	0.962874	-0.428759
C50	C	0.869504	1.044859	-0.428775
C51	C	0.950069	1.044818	-0.328495
C52	C	0.950042	0.962839	-0.328478
C53	C	0.909745	0.921870	-0.378612
C54	C	0.869503	0.327533	-0.711549
C55	C	0.869513	0.327515	-0.793530
C56	C	0.909757	0.377696	-0.834530
C57	C	0.949989	0.427903	-0.793545
C58	C	0.949975	0.427925	-0.711566
C59	C	0.950016	0.427854	-0.964415
C60	C	0.950031	0.427832	-1.046400
C61	C	0.869554	0.327445	-1.046379
C62	C	0.869540	0.327466	-0.964400
C63	C	0.909773	0.377673	-0.923421
C64	C	0.909692	0.377826	-0.174628
C65	C	0.909801	0.377630	-0.087379
H66	H	0.670066	0.469100	-0.469376
H67	H	0.836581	0.676669	-0.469534
N68	N	0.543974	0.276243	-0.277237
N69	N	0.507346	0.226249	-0.304964
H70	H	0.483630	0.189971	-0.268832
N71	N	0.991228	1.086659	-0.277273
N72	N	0.969120	1.132469	-0.227226
H73	H	0.998185	1.162021	-0.191048
H74	H	0.982801	0.468694	-1.079780
H75	H	0.982796	0.825322	-0.287627
H76	H	0.149943	0.286569	-0.287789
H77	H	0.550803	0.469063	-0.469436
N78	N	0.143141	0.479378	-0.479987
N79	N	0.084444	0.479359	-0.480005
H80	H	0.060726	0.515624	-0.516151
H81	H	0.670052	0.286689	-0.287559
N82	N	0.828467	0.276156	-1.088246
N83	N	0.828485	0.276140	-1.161441
H84	H	0.799472	0.239914	-1.191014
H85	H	0.269211	0.286601	-0.287731
H86	H	0.269229	0.468997	-0.469560
N87	N	0.991085	0.668114	-0.277192
N88	N	1.027060	0.704707	-0.232438
H89	H	1.056112	0.675136	-0.196251
N90	N	0.991113	0.479148	-0.922567
N91	N	1.027043	0.523948	-0.959181
H92	H	1.056069	0.560172	-0.929626
N93	N	0.991172	0.920959	-0.277244
N94	N	1.027148	0.957545	-0.232485
H95	H	1.056197	0.927968	-0.196300
N96	N	0.828365	1.086739	-0.479998
N97	N	0.792390	1.050153	-0.524757
H98	H	0.763333	1.079730	-0.560933
H99	H	0.836636	0.825401	-0.469563
N100	N	0.991098	0.479147	-0.835440
N101	N	1.031225	0.451497	-0.881213
H102	H	1.060261	0.487686	-0.910804
N103	N	0.828316	0.921036	-0.479980
N104	N	0.792365	0.957659	-0.524750
H105	H	0.763293	0.928111	-0.560923
H106	H	0.836735	0.286666	-0.678173
H107	H	0.836751	0.286639	-0.826892
N108	N	0.991069	0.479214	-0.669716
N109	N	1.026998	0.524016	-0.706330
H110	H	1.056021	0.560244	-0.676775
H111	H	0.836773	0.286601	-0.931020
