data_functionalizedCrystal
_audit_creation_method	'MofGen! by Chris Wilmer'
_symmetry_space_group_name_H-M	'P1'
_symmetry_Int_Tables_number	1
_symmetry_cell_setting	triclinic
loop_
_symmetry_equiv_pos_as_xyz
  x,y,z
_cell_length_a	18.215407
_cell_length_b	18.101397
_cell_length_c	18.215398
_cell_angle_alpha	90.028108
_cell_angle_beta	90.019464
_cell_angle_gamma	90.020914
loop_
_atom_site_label
_atom_site_type_symbol
_atom_site_fract_x
_atom_site_fract_y
_atom_site_fract_z
Zn1	Zn	1.125092	-0.294847	0.416102
Zn2	Zn	1.458425	0.038487	0.749435
Zn3	Zn	1.791759	0.371820	1.082769
Zn4	Zn	1.125011	-0.418688	0.293030
Zn5	Zn	1.458344	-0.085354	0.626363
Zn6	Zn	1.791677	0.247979	0.959697
Zn7	Zn	1.002025	-0.294866	0.293050
Zn8	Zn	1.335359	0.038468	0.626383
Zn9	Zn	1.668692	0.371801	0.959716
Zn10	Zn	1.002000	-0.418652	0.416055
Zn11	Zn	1.335333	-0.085319	0.749388
Zn12	Zn	1.668666	0.248015	1.082722
O13	O	1.063532	-0.356763	0.354559
O14	O	1.396865	-0.023430	0.687893
O15	O	1.730199	0.309904	1.021226
O16	O	1.228065	-0.311282	0.399788
O17	O	1.561399	0.022052	0.733121
O18	O	1.894732	0.355385	1.066455
O19	O	1.108673	-0.402285	0.190048
O20	O	1.442006	-0.068952	0.523382
O21	O	1.775340	0.264381	0.856715
O22	O	1.018395	-0.191230	0.309401
O23	O	1.351728	0.142103	0.642734
O24	O	1.685062	0.475437	0.976067
O25	O	1.228006	-0.402267	0.309367
O26	O	1.561339	-0.068934	0.642701
O27	O	1.894672	0.264400	0.976034
O28	O	1.108811	-0.191216	0.399807
O29	O	1.442145	0.142117	0.733140
O30	O	1.775478	0.475450	1.066473
O31	O	1.018316	-0.311314	0.190063
O32	O	1.351649	0.022020	0.523396
O33	O	1.684983	0.355353	0.856729
O34	O	0.899038	-0.311279	0.309355
O35	O	1.232371	0.022054	0.642688
O36	O	1.565704	0.355388	0.976022
O37	O	1.018352	-0.402206	0.519046
O38	O	1.351685	-0.068873	0.852379
O39	O	1.685018	0.264461	1.185712
O40	O	0.899019	-0.402224	0.399726
O41	O	1.232352	-0.068891	0.733060
O42	O	1.565686	0.264442	1.066393
O43	O	1.108787	-0.311247	0.519080
O44	O	1.442120	0.022086	0.852414
O45	O	1.775453	0.355420	1.185747
O46	O	1.108648	-0.522316	0.309322
O47	O	1.441982	-0.188983	0.642655
O48	O	1.775315	0.144351	0.975988
O49	O	1.018273	-0.522290	0.399708
O50	O	1.351606	-0.188956	0.733041
O51	O	1.684939	0.144377	1.066374
C52	C	0.872326	-0.356750	0.354538
C53	C	1.205659	-0.023417	0.687871
C54	C	1.538992	0.309916	1.021205
C55	C	0.790527	-0.356763	0.354546
C56	C	1.123860	-0.023429	0.687880
C57	C	1.457193	0.309904	1.021213
C58	C	0.602342	-0.404192	0.401544
C59	C	0.935676	-0.070859	0.734877
C60	C	1.269009	0.262474	1.068211
C61	C	0.525484	-0.404195	0.401553
C62	C	0.858817	-0.070861	0.734886
C63	C	1.192150	0.262472	1.068220
C64	C	0.525473	-0.309347	0.307591
C65	C	0.858807	0.023986	0.640924
C66	C	1.192140	0.357320	0.974257
C67	C	0.602331	-0.309341	0.307586
C68	C	0.935664	0.023992	0.640919
C69	C	1.268997	0.357325	0.974252
C70	C	0.640763	-0.356768	0.354561
C71	C	0.974097	-0.023435	0.687895
C72	C	1.307430	0.309898	1.021228
C73	C	0.487047	-0.356776	0.354575
C74	C	0.820380	-0.023443	0.687909
C75	C	1.153714	0.309890	1.021242
C76	C	0.403713	-0.356778	0.354585
C77	C	0.737047	-0.023445	0.687918
C78	C	1.070380	0.309888	1.021252
C79	C	0.724102	-0.356765	0.354553
C80	C	1.057436	-0.023432	0.687886
C81	C	1.390769	0.309901	1.021219
C82	C	1.063469	-0.549174	0.354524
C83	C	1.396802	-0.215840	0.687857
C84	C	1.730136	0.117493	1.021190
C85	C	1.063509	-0.631488	0.354533
C86	C	1.396843	-0.298154	0.687866
C87	C	1.730176	0.035179	1.021200
C88	C	1.063603	-0.930579	0.354600
C89	C	1.396937	-0.597245	0.687933
C90	C	1.730270	-0.263912	1.021267
C91	C	1.120306	-0.899239	0.297579
C92	C	1.453640	-0.565906	0.630913
C93	C	1.786973	-0.232572	0.964246
C94	C	1.120503	-0.813621	0.297727
C95	C	1.453836	-0.480287	0.631060
C96	C	1.787170	-0.146954	0.964394
C97	C	1.063557	-0.782196	0.354566
C98	C	1.396890	-0.448863	0.687899
C99	C	1.730223	-0.115529	1.021233
C100	C	1.084581	-0.813207	0.432138
C101	C	1.417914	-0.479873	0.765472
C102	C	1.751247	-0.146540	1.098805
C103	C	1.085019	-0.898851	0.431828
C104	C	1.418353	-0.565518	0.765161
C105	C	1.751686	-0.232185	1.098494
C106	C	0.985725	-0.899087	0.334720
C107	C	1.319058	-0.565754	0.668053
C108	C	1.652391	-0.232421	1.001387
C109	C	0.986109	-0.813438	0.332988
C110	C	1.319443	-0.480104	0.666322
C111	C	1.652776	-0.146771	0.999655
C112	C	1.063529	-0.698337	0.354552
C113	C	1.396862	-0.365003	0.687885
C114	C	1.730196	-0.031670	1.021218
C115	C	1.063633	-1.014438	0.354620
C116	C	1.396966	-0.681105	0.687953
C117	C	1.730299	-0.347771	1.021286
C118	C	1.255485	-0.356776	0.354581
C119	C	1.588818	-0.023443	0.687914
C120	C	1.922151	0.309890	1.021247
C121	C	1.337284	-0.356782	0.354590
C122	C	1.670617	-0.023449	0.687923
C123	C	2.003950	0.309885	1.021257
C124	C	1.063575	-0.356720	0.546512
C125	C	1.396909	-0.023387	0.879846
C126	C	1.730242	0.309946	1.213179
C127	C	1.063594	-0.356702	0.628311
C128	C	1.396927	-0.023369	0.961644
C129	C	1.730261	0.309964	1.294978
C130	C	1.063615	-0.163601	0.354611
C131	C	1.396948	0.169732	0.687944
C132	C	1.730282	0.503066	1.021278
C133	C	1.063651	-0.081287	0.354633
C134	C	1.396984	0.252046	0.687967
C135	C	1.730317	0.585380	1.021300
C136	C	1.063531	-0.356752	0.163353
C137	C	1.396864	-0.023419	0.496686
C138	C	1.730197	0.309915	0.830020
C139	C	1.063655	-0.356561	0.081554
C140	C	1.396988	-0.023228	0.414888
C141	C	1.730321	0.310105	0.748221
C142	C	1.110676	-0.403980	0.893366
C143	C	1.444010	-0.070646	1.226699
C144	C	1.777343	0.262687	1.560033
C145	C	1.110665	-0.404006	0.816507
C146	C	1.443999	-0.070672	1.149840
C147	C	1.777332	0.262661	1.483174
C148	C	1.016567	-0.309282	0.816505
C149	C	1.349901	0.024051	1.149838
C150	C	1.683234	0.357385	1.483172
C151	C	1.016575	-0.309260	0.893363
C152	C	1.349909	0.024073	1.226696
C153	C	1.683242	0.357406	1.560029
C154	C	1.063634	-0.356608	0.931791
C155	C	1.396967	-0.023275	1.265124
C156	C	1.730301	0.310058	1.598458
C157	C	1.063615	-0.356655	0.778075
C158	C	1.396948	-0.023322	1.111408
C159	C	1.730281	0.310011	1.444741
C160	C	1.063602	-0.356683	0.694741
C161	C	1.396936	-0.023350	1.028074
C162	C	1.730269	0.309984	1.361408
C163	C	1.063646	-0.356582	1.015130
C164	C	1.396979	-0.023249	1.348463
C165	C	1.730312	0.310085	1.681797
H166	H	0.633614	-0.270719	0.269327
H167	H	0.966947	0.062615	0.602660
H168	H	1.300281	0.395948	0.935993
H169	H	0.943477	-0.919355	0.376251
H170	H	1.276810	-0.586022	0.709584
H171	H	1.610143	-0.252689	1.042917
H172	H	0.494205	-0.442811	0.439812
H173	H	0.827538	-0.109478	0.773146
H174	H	1.160871	0.223856	1.106479
C175	C	1.160624	-0.784163	0.455272
C176	C	1.493957	-0.450830	0.788605
C177	C	1.827290	-0.117497	1.121938
H178	H	1.179661	-0.753148	0.417766
H179	H	1.512995	-0.419815	0.751100
H180	H	1.846328	-0.086482	1.084433
H181	H	1.156196	-0.756779	0.499548
H182	H	1.489530	-0.423446	0.832882
H183	H	1.822863	-0.090112	1.166215
H184	H	1.192935	-0.824653	0.462757
H185	H	1.526268	-0.491319	0.796090
H186	H	1.859601	-0.157986	1.129423
C187	C	1.102732	-0.785292	0.220029
C188	C	1.436065	-0.451959	0.553362
C189	C	1.769398	-0.118625	0.886695
H190	H	1.102825	-0.732808	0.220016
H191	H	1.436158	-0.399475	0.553349
H192	H	1.769491	-0.066141	0.886683
H193	H	1.138701	-0.802864	0.186560
H194	H	1.472035	-0.469531	0.519893
H195	H	1.805368	-0.136197	0.853226
H196	H	1.055694	-0.802722	0.205579
H197	H	1.389028	-0.469388	0.538912
H198	H	1.722361	-0.136055	0.872246
C199	C	1.102831	-0.927222	0.219661
C200	C	1.436165	-0.593888	0.552994
C201	C	1.769498	-0.260555	0.886328
H202	H	1.060793	-0.958262	0.221202
H203	H	1.394126	-0.624928	0.554535
H204	H	1.727460	-0.291595	0.887868
H205	H	1.093427	-0.886327	0.188382
H206	H	1.426760	-0.552994	0.521715
H207	H	1.760094	-0.219661	0.855049
H208	H	1.143512	-0.954383	0.201338
H209	H	1.476845	-0.621050	0.534671
H210	H	1.810179	-0.287716	0.868004
H211	H	0.494172	-0.270735	0.269344
H212	H	0.827506	0.062599	0.602677
H213	H	1.160839	0.395932	0.936010
H214	H	1.177679	-0.920707	0.310582
H215	H	1.511012	-0.587374	0.643915
H216	H	1.844346	-0.254041	0.977248
H217	H	1.148994	-0.442534	0.924652
H218	H	1.482327	-0.109201	1.257985
H219	H	1.815661	0.224132	1.591319
H220	H	0.966599	-0.920746	0.279135
H221	H	1.299932	-0.587412	0.612469
H222	H	1.633265	-0.254079	0.945802
C223	C	1.030486	-0.785731	0.491077
C224	C	1.363819	-0.452398	0.824410
C225	C	1.697152	-0.119064	1.157744
H226	H	1.044206	-0.805144	0.537544
H227	H	1.377539	-0.471811	0.870877
H228	H	1.710872	-0.138477	1.204210
H229	H	1.031582	-0.733295	0.492903
H230	H	1.364916	-0.399962	0.826236
H231	H	1.698249	-0.066629	1.159569
H232	H	0.982287	-0.801824	0.479148
H233	H	1.315620	-0.468491	0.812481
H234	H	1.648954	-0.135158	1.145814
C235	C	1.198431	-0.785863	0.315501
C236	C	1.531764	-0.452529	0.648834
C237	C	1.865098	-0.119196	0.982167
H238	H	1.230090	-0.826930	0.322666
H239	H	1.563424	-0.493596	0.656000
H240	H	1.896757	-0.160263	0.989333
H241	H	1.216082	-0.756737	0.275889
H242	H	1.549415	-0.423404	0.609222
H243	H	1.882748	-0.090070	0.942555
H244	H	1.197200	-0.756805	0.358927
H245	H	1.530533	-0.423472	0.692260
H246	H	1.863866	-0.090138	1.025594
H247	H	0.970257	-0.793177	0.275902
H248	H	1.303590	-0.459844	0.609235
H249	H	1.636923	-0.126510	0.942568
C250	C	1.162410	-0.456113	0.774239
C251	C	1.495744	-0.122779	1.107572
C252	C	1.829077	0.210554	1.440906
H253	H	1.155662	-0.449352	0.722961
H254	H	1.488995	-0.116019	1.056295
H255	H	1.822329	0.217314	1.389628
H256	H	1.211863	-0.445272	0.786846
H257	H	1.545196	-0.111938	1.120180
H258	H	1.878530	0.221395	1.453513
H259	H	1.151618	-0.505869	0.786826
H260	H	1.484952	-0.172536	1.120159
H261	H	1.818285	0.160798	1.453492
H262	H	0.941589	-0.792054	0.371478
H263	H	1.274922	-0.458721	0.704811
H264	H	1.608255	-0.125388	1.038145
H265	H	0.978264	-0.270684	0.924649
H266	H	1.311597	0.062649	1.257982
H267	H	1.644931	0.395983	1.591316
C268	C	0.644616	-0.456353	0.453221
C269	C	0.977949	-0.123019	0.786555
C270	C	1.311282	0.210314	1.119888
H271	H	0.610723	-0.484591	0.481209
H272	H	0.944056	-0.151258	0.814542
H273	H	1.277390	0.182075	1.147875
H274	H	0.674578	-0.488583	0.425015
H275	H	1.007912	-0.155250	0.758348
H276	H	1.341245	0.178084	1.091681
H277	H	0.674617	-0.428056	0.485337
H278	H	1.007950	-0.094723	0.818670
H279	H	1.341284	0.238610	1.152004
C280	C	1.161921	-0.925765	0.454567
C281	C	1.495254	-0.592432	0.787900
C282	C	1.828588	-0.259098	1.121233
H283	H	1.192601	-0.884356	0.463903
H284	H	1.525934	-0.551023	0.797236
H285	H	1.859268	-0.217690	1.130570
H286	H	1.158179	-0.954967	0.497720
H287	H	1.491513	-0.621633	0.831054
H288	H	1.824846	-0.288300	1.164387
H289	H	1.182434	-0.954564	0.416092
H290	H	1.515767	-0.621231	0.749425
H291	H	1.849101	-0.287898	1.082759
H292	H	0.978255	-0.270732	0.785207
H293	H	1.311588	0.062601	1.118541
H294	H	1.644921	0.395935	1.451874
C295	C	1.031661	-0.926859	0.491185
C296	C	1.364994	-0.593526	0.824518
C297	C	1.698328	-0.260192	1.157851
H298	H	1.009816	-0.885892	0.515385
H299	H	1.343150	-0.552559	0.848718
H300	H	1.676483	-0.219225	1.182051
H301	H	0.994469	-0.956066	0.468916
H302	H	1.327802	-0.622733	0.802249
H303	H	1.661135	-0.289399	1.135582
H304	H	1.057791	-0.955887	0.525886
H305	H	1.391125	-0.622553	0.859220
H306	H	1.724458	-0.289220	1.192553
