data_functionalizedCrystal
_audit_creation_method	'MofGen! by Chris Wilmer'
_symmetry_space_group_name_H-M	'P1'
_symmetry_Int_Tables_number	1
_symmetry_cell_setting	triclinic
loop_
_symmetry_equiv_pos_as_xyz
  x,y,z
_cell_length_a	10.654549
_cell_length_b	10.723024
_cell_length_c	9.730223
_cell_angle_alpha	89.996766
_cell_angle_beta	89.997731
_cell_angle_gamma	84.476323
loop_
_atom_site_label
_atom_site_type_symbol
_atom_site_fract_x
_atom_site_fract_y
_atom_site_fract_z
O1	O	1.667813	0.175272	-0.114254
O2	O	1.302332	0.191972	-0.114264
O3	O	1.493503	0.002047	-0.114254
O4	O	1.476642	0.365197	-0.114264
O5	O	1.493490	0.002042	0.114326
O6	O	1.302319	0.191967	0.114316
O7	O	1.667801	0.175267	0.114326
Zn8	Zn	1.485058	0.183616	0.150613
Zn9	Zn	1.485074	0.183623	-0.150551
O10	O	1.476630	0.365192	0.114316
C11	C	1.255528	0.190743	0.000025
C12	C	1.116085	0.187075	0.000021
C13	C	0.905554	0.295444	0.000024
C14	C	1.036574	0.298900	0.000015
C15	C	1.064570	0.071787	0.000022
C16	C	0.933552	0.068332	0.000020
C17	C	1.492270	-0.044455	0.000035
C18	C	1.488599	-0.183010	0.000030
C19	C	1.595568	-0.257977	0.000030
C20	C	1.591776	-0.401181	0.000025
C21	C	1.714605	0.176496	0.000034
C22	C	1.854047	0.180164	0.000028
C23	C	1.477863	0.411694	0.000024
C24	C	1.481534	0.550249	0.000020
N25	N	1.485056	0.183611	0.356149
N26	N	1.485086	0.183619	-0.356087
C27	C	1.569736	0.099548	0.428080
C28	C	1.569748	0.099548	0.571963
C29	C	1.400398	0.267685	0.571972
C30	C	1.400380	0.267678	0.428092
H31	H	0.840824	0.386505	0.000029
H32	H	1.683350	-0.465600	0.000032
Cl33	Cl	1.101320	0.443829	0.000004
Cl34	Cl	1.741302	-0.193397	0.000025
Cl35	Cl	0.868796	-0.076603	0.000008
H36	H	1.389955	-0.385339	0.000029
H37	H	1.638700	0.031095	0.630524
H38	H	1.331418	0.336133	0.369522
H39	H	1.331458	0.336133	0.630562
H40	H	1.129319	-0.019263	0.000018
H41	H	1.394211	-0.224846	0.000018
H42	H	1.638682	0.031093	0.369507
