data_functionalizedCrystal
_audit_creation_method	'MofGen! by Chris Wilmer'
_symmetry_space_group_name_H-M	'P1'
_symmetry_Int_Tables_number	1
_symmetry_cell_setting	triclinic
loop_
_symmetry_equiv_pos_as_xyz
  x,y,z
_cell_length_a	33.428889
_cell_length_b	33.428139
_cell_length_c	33.424847
_cell_angle_alpha	60.004234
_cell_angle_beta	60.008465
_cell_angle_gamma	59.994972
loop_
_atom_site_label
_atom_site_type_symbol
_atom_site_fract_x
_atom_site_fract_y
_atom_site_fract_z
O1	O	0.055565	-0.584504	0.488714
O2	O	0.555565	-0.084504	0.988714
O3	O	0.020982	-0.455083	0.393778
O4	O	0.520982	0.044917	0.893778
O5	O	0.102943	-0.536959	0.393689
O6	O	0.602943	-0.036959	0.893689
O7	O	-0.026396	-0.502628	0.488803
O8	O	0.473604	-0.002628	0.988803
O9	O	0.130140	-0.509767	0.420792
O10	O	0.630140	-0.009767	0.920792
O11	O	0.048179	-0.427891	0.420881
O12	O	0.548179	0.072109	0.920881
O13	O	0.082762	-0.557312	0.515817
O14	O	0.582762	-0.057312	1.015817
Cu15	Cu	0.067954	-0.490119	0.470823
Cu16	Cu	0.567954	0.009881	0.970823
Cu17	Cu	0.035790	-0.522276	0.438771
Cu18	Cu	0.535790	-0.022276	0.938771
O19	O	0.000801	-0.475436	0.515906
O20	O	0.500801	0.024564	1.015906
N21	N	0.090577	-0.467504	0.493370
N22	N	0.590577	0.032496	0.993370
N23	N	0.013171	-0.544895	0.416225
N24	N	0.513171	-0.044895	0.916225
C25	C	0.143377	-0.280390	0.546067
C26	C	0.643377	0.219610	1.046067
C27	C	0.143515	-0.414755	0.680369
C28	C	0.643515	0.085245	1.180369
C29	C	0.143392	-0.414735	0.546069
C30	C	0.643392	0.085265	1.046069
C31	C	0.277766	-0.414702	0.545966
C32	C	0.777766	0.085298	1.045966
C33	C	0.158177	-0.324719	0.560828
C34	C	0.658177	0.175281	1.060828
C35	C	0.158255	-0.399967	0.636038
C36	C	0.658255	0.100033	1.136038
C37	C	0.233434	-0.399936	0.560773
C38	C	0.733434	0.100064	1.060773
C39	C	0.158186	-0.399955	0.560829
C40	C	0.658186	0.100045	1.060829
C41	C	0.124540	-0.223964	0.527278
C42	C	0.624540	0.276036	1.027278
C43	C	0.124565	-0.433545	0.527281
C44	C	0.624565	0.066455	1.027281
C45	C	0.177014	-0.381145	0.579617
C46	C	0.677014	0.118855	1.079617
C47	C	0.359814	-0.400540	0.502735
C48	C	0.859814	0.099460	1.002735
C49	C	0.411105	-0.417624	0.485606
C50	C	0.911105	0.082376	0.985606
C51	C	0.411136	-0.500620	0.517255
C52	C	0.911136	-0.000620	1.017255
C53	C	0.359845	-0.483534	0.534385
C54	C	0.859845	0.016466	1.034385
C55	C	0.136887	-0.198305	0.476855
C56	C	0.636887	0.301695	0.976855
C57	C	0.119761	-0.147011	0.459777
C58	C	0.619761	0.352989	0.959777
C59	C	0.077945	-0.147038	0.543547
C60	C	0.577945	0.352962	1.043547
C61	C	0.095072	-0.198332	0.560625
C62	C	0.595072	0.301668	1.060625
C63	C	0.074134	-0.421169	0.539710
C64	C	0.574134	0.078831	1.039710
C65	C	0.057023	-0.438269	0.522625
C66	C	0.557023	0.061731	1.022625
C67	C	0.140770	-0.480120	0.480694
C68	C	0.640770	0.019880	0.980694
C69	C	0.157883	-0.463020	0.497773
C70	C	0.657883	0.036980	0.997773
C71	C	0.074339	-0.421208	0.762475
C72	C	0.574339	0.078792	1.262475
C73	C	0.057288	-0.438323	0.813768
C74	C	0.557288	0.061677	1.313768
C75	C	0.141075	-0.480183	0.813699
C76	C	0.641075	0.019817	1.313699
C77	C	0.158125	-0.463069	0.762404
C78	C	0.658125	0.036931	1.262404
C79	C	0.124756	-0.433580	0.736794
C80	C	0.624756	0.066420	1.236794
C81	C	0.334186	-0.433494	0.527123
C82	C	0.834186	0.066506	1.027123
C83	C	-0.173769	-0.597444	0.363037
C84	C	0.326231	-0.097444	0.863037
C85	C	-0.039302	-0.597595	0.228856
C86	C	0.460698	-0.097595	0.728856
C87	C	-0.039496	-0.597587	0.363300
C88	C	0.460504	-0.097587	0.863300
C89	C	-0.039512	-0.731889	0.363237
C90	C	0.460488	-0.231889	0.863237
C91	C	-0.129442	-0.612265	0.348329
C92	C	0.370558	-0.112265	0.848329
C93	C	-0.054138	-0.612351	0.273187
C94	C	0.445862	-0.112351	0.773187
C95	C	-0.054257	-0.687554	0.348440
C96	C	0.445743	-0.187554	0.848440
C97	C	-0.054247	-0.612346	0.348477
C98	C	0.445753	-0.112346	0.848477
C99	C	-0.230191	-0.578579	0.381758
C100	C	0.269809	-0.078579	0.881758
C101	C	-0.020722	-0.578803	0.382168
C102	C	0.479278	-0.078803	0.882168
C103	C	-0.073020	-0.631130	0.329609
C104	C	0.426980	-0.131130	0.829609
C105	C	-0.053713	-0.813916	0.406386
C106	C	0.446287	-0.313916	0.906386
C107	C	-0.036654	-0.865210	0.423504
C108	C	0.463346	-0.365210	0.923504
C109	C	0.046338	-0.865293	0.391984
C110	C	0.546338	-0.365293	0.891984
C111	C	0.029278	-0.813999	0.374865
C112	C	0.529278	-0.313999	0.874865
C113	C	-0.255900	-0.590938	0.432169
C114	C	0.244100	-0.090938	0.932169
C115	C	-0.307191	-0.573786	0.449185
C116	C	0.192809	-0.073786	0.949185
C117	C	-0.307060	-0.531922	0.365377
C118	C	0.192940	-0.031922	0.865377
C119	C	-0.255769	-0.549074	0.348360
C120	C	0.244231	-0.049074	0.848360
C121	C	-0.033081	-0.528377	0.369764
C122	C	0.466919	-0.028377	0.869764
C123	C	-0.016014	-0.511306	0.386922
C124	C	0.483986	-0.011306	0.886922
C125	C	0.025770	-0.595083	0.428877
C126	C	0.525770	-0.095083	0.928877
C127	C	0.008703	-0.612156	0.411725
C128	C	0.508703	-0.112156	0.911725
C129	C	-0.032755	-0.528393	0.146761
C130	C	0.467245	-0.028393	0.646761
C131	C	-0.015585	-0.511324	0.095468
C132	C	0.484415	-0.011324	0.595468
C133	C	0.026262	-0.595106	0.095516
C134	C	0.526262	-0.095106	0.595516
C135	C	0.009094	-0.612174	0.146811
C136	C	0.509094	-0.112174	0.646811
C137	C	-0.020417	-0.578816	0.172432
C138	C	0.479583	-0.078816	0.672432
C139	C	-0.020748	-0.788312	0.382068
C140	C	0.479252	-0.288312	0.882068
N141	N	0.436037	-0.467415	0.493101
N142	N	0.936037	0.032585	0.993101
O143	O	0.592642	-0.471896	0.376066
O144	O	1.092642	0.028104	0.876066
O145	O	0.592838	-0.567146	0.505347
O146	O	1.092838	-0.067146	1.005347
O147	O	0.592754	-0.566928	0.423360
O148	O	1.092754	-0.066928	0.923360
O149	O	0.592727	-0.472113	0.458053
O150	O	1.092727	0.027887	0.958053
O151	O	0.511269	-0.539835	0.450606
O152	O	1.011269	-0.039835	0.950606
O153	O	0.511353	-0.540052	0.532594
O154	O	1.011353	-0.040052	1.032594
O155	O	0.511157	-0.444802	0.403312
O156	O	1.011157	0.055198	0.903312
Cu157	Cu	0.503815	-0.489954	0.470441
Cu158	Cu	1.003815	0.010046	0.970441
Cu159	Cu	0.600180	-0.521995	0.438219
Cu160	Cu	1.100180	-0.021995	0.938219
O161	O	0.511242	-0.445020	0.485300
O162	O	1.011242	0.054980	0.985300
N163	N	0.667959	-0.544533	0.415554
N164	N	1.167959	-0.044533	0.915554
N165	N	0.090544	-0.122107	0.493359
N166	N	0.590544	0.377893	0.993359
O167	O	-0.026406	0.034587	0.488773
O168	O	0.473594	0.534587	0.988773
O169	O	0.102877	0.034627	0.393499
O170	O	0.602877	0.534627	0.893499
O171	O	0.020848	0.034591	0.393771
O172	O	0.520848	0.534591	0.893771
O173	O	0.055623	0.034623	0.488500
O174	O	0.555623	0.534623	0.988500
O175	O	0.048051	-0.046899	0.420925
O176	O	0.548051	0.453101	0.920925
O177	O	0.130080	-0.046864	0.420653
O178	O	0.630080	0.453136	0.920653
O179	O	0.000796	-0.046903	0.515927
O180	O	0.500796	0.453097	1.015927
Cu181	Cu	0.067922	-0.054324	0.470769
Cu182	Cu	0.567922	0.445676	0.970769
Cu183	Cu	0.035752	0.042048	0.438656
Cu184	Cu	0.535752	0.542048	0.938656
O185	O	0.082825	-0.046867	0.515655
O186	O	0.582825	0.453133	1.015655
N187	N	0.013123	0.109830	0.416068
N188	N	0.513123	0.609830	0.916068
N189	N	0.090892	-0.467554	0.838649
N190	N	0.590892	0.032446	1.338649
O191	O	0.086330	-0.584488	0.995334
O192	O	0.586330	-0.084488	1.495334
O193	O	-0.008902	-0.455160	0.995379
O194	O	0.491098	0.044840	1.495379
O195	O	-0.008679	-0.537172	0.995355
O196	O	0.491321	-0.037172	1.495355
O197	O	0.086107	-0.502475	0.995358
O198	O	0.586107	-0.002475	1.495358
O199	O	0.018452	-0.509990	0.913868
O200	O	0.518452	-0.009990	1.413868
O201	O	0.018230	-0.427978	0.913891
O202	O	0.518230	0.072022	1.413891
O203	O	0.113461	-0.557306	0.913847
O204	O	0.613461	-0.057306	1.413847
Cu205	Cu	0.068323	-0.490160	0.906429
Cu206	Cu	0.568323	0.009840	1.406429
Cu207	Cu	0.036237	-0.522306	1.002797
Cu208	Cu	0.536237	-0.022306	1.502797
O209	O	0.113239	-0.475293	0.913870
O210	O	0.613239	0.024707	1.413870
N211	N	0.013667	-0.544916	1.070577
N212	N	0.513667	-0.044916	1.570577
C213	C	0.031339	-0.425179	0.394250
C214	C	0.531339	0.074821	0.894250
C215	C	0.132837	-0.526572	0.394139
C216	C	0.632837	-0.026572	0.894139
C217	C	0.072405	-0.587216	0.515344
C218	C	0.572405	-0.087216	1.015344
C219	C	-0.029093	-0.485823	0.515455
C220	C	0.470907	0.014177	1.015455
C221	C	0.552119	-0.566716	0.535258
C222	C	1.052119	-0.066716	1.035258
C223	C	0.552016	-0.566447	0.433726
C224	C	1.052016	-0.066447	0.933726
C225	C	0.551873	-0.445232	0.373402
C226	C	1.051873	0.054768	0.873402
C227	C	0.551980	-0.445502	0.474933
C228	C	1.051980	0.054498	0.974933
C229	C	0.132731	-0.006013	0.393923
C230	C	0.632731	0.493987	0.893923
C231	C	0.031182	-0.006158	0.394293
C232	C	0.531182	0.493842	0.894293
C233	C	-0.029092	-0.006163	0.515469
C234	C	0.470908	0.493837	1.015469
C235	C	0.072491	-0.006119	0.515133
C236	C	0.572491	0.493881	1.015133
C237	C	-0.008451	-0.425276	0.954641
C238	C	0.491549	0.074724	1.454641
C239	C	-0.008170	-0.526833	0.954596
C240	C	0.491830	-0.026833	1.454596
C241	C	0.113010	-0.587190	0.954585
C242	C	0.613010	-0.087190	1.454585
C243	C	0.112735	-0.485627	0.954611
C244	C	0.612735	0.014373	1.454611
H245	H	0.016234	-0.428240	0.834672
H246	H	0.516234	0.071760	1.334672
C247	C	0.552032	-0.606688	0.423702
C248	C	1.052032	-0.106688	0.923702
C249	C	0.552106	-0.656961	0.463912
C250	C	1.052106	-0.156961	0.963912
C251	C	0.552121	-0.697203	0.453888
C252	C	1.052121	-0.197203	0.953888
C253	C	0.552062	-0.687170	0.403653
C254	C	1.052062	-0.187170	0.903653
C255	C	0.551988	-0.636895	0.363440
C256	C	1.051988	-0.136895	0.863440
C257	C	0.551973	-0.596654	0.373464
C258	C	1.051973	-0.096654	0.873464
H259	H	0.552149	-0.664390	0.501102
H260	H	1.052149	-0.164390	1.001102
H261	H	0.552176	-0.734420	0.483657
H262	H	1.052176	-0.234420	0.983657
H263	H	0.552073	-0.716959	0.396233
H264	H	1.052073	-0.216959	0.896233
H265	H	0.551944	-0.629466	0.326250
H266	H	1.051944	-0.129466	0.826250
H267	H	0.551918	-0.559436	0.343695
H268	H	1.051918	-0.059436	0.843695
C269	C	0.182783	-0.005689	0.353412
C270	C	0.682783	0.494311	0.853412
C271	C	0.192491	-0.005539	0.303195
C272	C	0.692491	0.494461	0.803195
C273	C	0.242544	-0.005215	0.262684
C274	C	0.742544	0.494785	0.762684
C275	C	0.282888	-0.005040	0.272391
C276	C	0.782888	0.494960	0.772391
C277	C	0.273181	-0.005190	0.322611
C278	C	0.773181	0.494810	0.822611
C279	C	0.223129	-0.005515	0.363122
C280	C	0.723129	0.494485	0.863122
H281	H	0.162625	-0.005668	0.296007
H282	H	0.662625	0.494332	0.796007
H283	H	0.249729	-0.005103	0.225508
H284	H	0.749729	0.494897	0.725508
H285	H	0.319939	-0.004800	0.242403
H286	H	0.819939	0.495200	0.742403
H287	H	0.303047	-0.005061	0.329799
H288	H	0.803047	0.494939	0.829799
H289	H	0.215943	-0.005626	0.400298
H290	H	0.715943	0.494374	0.900298
C291	C	0.021125	-0.006168	0.354084
C292	C	0.521125	0.493832	0.854084
C293	C	-0.029128	-0.006188	0.364143
C294	C	0.470872	0.493812	0.864143
C295	C	-0.039185	-0.006199	0.323935
C296	C	0.460815	0.493801	0.823935
C297	C	0.001011	-0.006190	0.273667
C298	C	0.501011	0.493810	0.773667
C299	C	0.051268	-0.006170	0.263606
C300	C	0.551268	0.493830	0.763606
C301	C	0.061325	-0.006159	0.303815
C302	C	0.561325	0.493841	0.803815
H303	H	-0.058887	-0.006195	0.401356
H304	H	0.441113	0.493805	0.901356
H305	H	-0.076389	-0.006214	0.331383
H306	H	0.423611	0.493786	0.831383
H307	H	-0.006433	-0.006198	0.243902
H308	H	0.493567	0.493802	0.743902
H309	H	0.081027	-0.006163	0.226393
H310	H	0.581027	0.493837	0.726393
H311	H	0.098529	-0.006145	0.296367
H312	H	0.598529	0.493855	0.796367
H313	H	0.079796	-0.624394	0.545162
H314	H	0.579796	-0.124394	1.045162
C315	C	-0.079249	-0.006176	0.555877
C316	C	0.420751	0.493824	1.055877
C317	C	-0.119645	-0.006195	0.546118
C318	C	0.380355	0.493805	1.046118
C319	C	-0.169801	-0.006208	0.586526
C320	C	0.330199	0.493792	1.086526
C321	C	-0.179562	-0.006203	0.636692
C322	C	0.320438	0.493797	1.136692
C323	C	-0.139164	-0.006184	0.646453
C324	C	0.360836	0.493816	1.146453
C325	C	-0.089008	-0.006171	0.606045
C326	C	0.410992	0.493829	1.106045
H327	H	-0.112421	-0.006199	0.508980
H328	H	0.387579	0.493801	1.008980
H329	H	-0.199706	-0.006222	0.579300
H330	H	0.300294	0.493778	1.079300
H331	H	-0.216691	-0.006213	0.666605
H332	H	0.283309	0.493787	1.166605
H333	H	-0.146388	-0.006180	0.683591
H334	H	0.353612	0.493820	1.183591
H335	H	-0.059103	-0.006157	0.613271
H336	H	0.440897	0.493843	1.113271
C337	C	-0.079277	-0.475946	0.555806
C338	C	0.420723	0.024054	1.055806
C339	C	-0.119622	-0.425747	0.545944
C340	C	0.380378	0.074253	1.045944
C341	C	-0.169806	-0.415870	0.586294
C342	C	0.330194	0.084130	1.086294
C343	C	-0.179644	-0.456191	0.636507
C344	C	0.320356	0.043809	1.136507
C345	C	-0.139297	-0.506394	0.646371
C346	C	0.360703	-0.006394	1.146371
C347	C	-0.089113	-0.516271	0.606020
C348	C	0.410887	-0.016271	1.106020
H349	H	-0.112341	-0.395895	0.508771
H350	H	0.387659	0.104105	1.008771
H351	H	-0.199673	-0.378706	0.578992
H352	H	0.300327	0.121294	1.078992
H353	H	-0.216793	-0.448880	0.666377
H354	H	0.283207	0.051120	1.166377
H355	H	-0.146579	-0.536245	0.683543
H356	H	0.353421	-0.036245	1.183543
H357	H	-0.059246	-0.553434	0.613323
H358	H	0.440754	-0.053434	1.113323
H359	H	0.551811	-0.415327	0.336274
H360	H	1.051811	0.084673	0.836274
H361	H	0.552170	-0.596617	0.572390
H362	H	1.052170	-0.096617	1.072390
C363	C	0.551966	-0.405261	0.484957
C364	C	1.051966	0.094739	0.984957
C365	C	0.552025	-0.415293	0.535191
C366	C	1.052025	0.084707	1.035191
C367	C	0.552012	-0.375053	0.545215
C368	C	1.052012	0.124947	1.045215
C369	C	0.551938	-0.324780	0.505004
C370	C	1.051938	0.175220	1.005004
C371	C	0.551879	-0.314745	0.454767
C372	C	1.051879	0.185255	0.954767
C373	C	0.551893	-0.354986	0.444743
C374	C	1.051893	0.145014	0.944743
H375	H	0.552080	-0.452511	0.564960
H376	H	1.052080	0.047489	1.064960
H377	H	0.552056	-0.382481	0.582404
H378	H	1.052056	0.117519	1.082404
H379	H	0.551928	-0.294991	0.512425
H380	H	1.051928	0.205009	1.012425
H381	H	0.551825	-0.277528	0.424998
H382	H	1.051825	0.222472	0.924998
H383	H	0.551848	-0.347557	0.407554
H384	H	1.051848	0.152443	0.907554
C385	C	0.021359	-0.374956	0.353964
C386	C	0.521359	0.125044	0.853964
C387	C	0.007873	-0.328139	0.362947
C388	C	0.507873	0.171861	0.862947
C389	C	-0.002107	-0.277916	0.322661
C390	C	0.497893	0.222084	0.822661
C391	C	0.001401	-0.274510	0.273394
C392	C	0.501401	0.225490	0.773394
C393	C	0.014888	-0.321327	0.264409
C394	C	0.514888	0.178673	0.764409
C395	C	0.024867	-0.371551	0.304694
C396	C	0.524867	0.128449	0.804694
H397	H	0.005276	-0.330660	0.399420
H398	H	0.505276	0.169340	0.899420
H399	H	-0.012091	-0.243259	0.329313
H400	H	0.487909	0.256741	0.829313
H401	H	-0.005987	-0.237331	0.243572
H402	H	0.494013	0.262669	0.743572
H403	H	0.017484	-0.318807	0.227936
H404	H	0.517484	0.181193	0.727936
H405	H	0.034851	-0.406208	0.298043
H406	H	0.534851	0.093792	0.798043
H407	H	-0.038348	-0.388133	0.954654
H408	H	0.461652	0.111867	1.454654
C409	C	0.082549	-0.006111	0.555342
C410	C	0.582549	0.493889	1.055342
C411	C	0.132803	-0.006092	0.545284
C412	C	0.632803	0.493908	1.045284
C413	C	0.142860	-0.006084	0.585493
C414	C	0.642860	0.493916	1.085493
C415	C	0.102664	-0.006094	0.635761
C416	C	0.602664	0.493906	1.135761
C417	C	0.052407	-0.006113	0.645822
C418	C	0.552407	0.493887	1.145822
C419	C	0.042349	-0.006121	0.605612
C420	C	0.542349	0.493879	1.105612
H421	H	0.162561	-0.006085	0.508070
H422	H	0.662561	0.493915	1.008070
H423	H	0.180064	-0.006070	0.578045
H424	H	0.680064	0.493930	1.078045
H425	H	0.110110	-0.006088	0.665527
H426	H	0.610110	0.493912	1.165527
H427	H	0.022648	-0.006120	0.683035
H428	H	0.522648	0.493880	1.183035
H429	H	0.005145	-0.006135	0.613060
H430	H	0.505145	0.493865	1.113060
H431	H	-0.037935	-0.534246	0.954563
H432	H	0.462065	-0.034246	1.454563
H433	H	0.142910	-0.624330	0.954565
H434	H	0.642910	-0.124330	1.454565
C435	C	0.152967	-0.475599	0.954604
C436	C	0.652967	0.024401	1.454604
C437	C	0.142936	-0.425348	0.954616
C438	C	0.642936	0.074652	1.454616
C439	C	0.183168	-0.415320	0.954608
C440	C	0.683168	0.084680	1.454608
C441	C	0.233432	-0.455545	0.954589
C442	C	0.733432	0.044455	1.454589
C443	C	0.243465	-0.505800	0.954578
C444	C	0.743465	-0.005800	1.454578
C445	C	0.203233	-0.515827	0.954585
C446	C	0.703233	-0.015827	1.454585
H447	H	0.105726	-0.395568	0.954630
H448	H	0.605726	0.104432	1.454630
H449	H	0.175741	-0.378118	0.954617
H450	H	0.675741	0.121882	1.454617
H451	H	0.263214	-0.448122	0.954584
H452	H	0.763214	0.051878	1.454584
H453	H	0.280675	-0.535580	0.954564
H454	H	0.780675	-0.035580	1.454564
H455	H	0.210661	-0.553030	0.954577
H456	H	0.710661	-0.053030	1.454577
C457	C	0.183019	-0.536450	0.353788
C458	C	0.683019	-0.036450	0.853788
C459	C	0.214608	-0.504640	0.332665
C460	C	0.714608	-0.004640	0.832665
C461	C	0.264791	-0.514518	0.292314
C462	C	0.764791	-0.014518	0.792314
C463	C	0.283384	-0.556207	0.273084
C464	C	0.783384	-0.056207	0.773084
C465	C	0.251794	-0.588020	0.294207
C466	C	0.751794	-0.088020	0.794207
C467	C	0.201612	-0.578142	0.334558
C468	C	0.701612	-0.078142	0.834558
H469	H	0.200845	-0.473777	0.346900
H470	H	0.700845	0.026223	0.846900
H471	H	0.288175	-0.490968	0.276677
H472	H	0.788175	0.009032	0.776677
H473	H	0.320532	-0.563520	0.243213
H474	H	0.820532	-0.063520	0.743213
H475	H	0.265558	-0.618883	0.279972
H476	H	0.765558	-0.118883	0.779972
H477	H	0.178227	-0.601693	0.350195
H478	H	0.678227	-0.101693	0.850195
H479	H	0.047163	-0.397193	0.741627
H480	H	0.547163	0.102807	1.241627
H481	H	0.168250	-0.504186	0.834549
H482	H	0.668250	-0.004186	1.334549
H483	H	0.199181	-0.473148	0.741498
H484	H	0.699181	0.026852	1.241498
H485	H	0.047002	-0.397168	0.563734
H486	H	0.547002	0.102832	1.063734
H487	H	0.015959	-0.428182	0.532734
H488	H	0.515959	0.071818	1.032734
H489	H	0.198948	-0.473094	0.487648
H490	H	0.698948	0.026906	0.987648
C491	C	0.331657	-0.519785	0.561205
C492	C	0.831657	-0.019785	1.061205
C493	C	0.359886	-0.574826	0.569182
C494	C	0.859886	-0.074826	1.069182
C495	C	0.331698	-0.611079	0.595998
C496	C	0.831698	-0.111079	1.095998
C497	C	0.275280	-0.592291	0.614838
C498	C	0.775280	-0.092291	1.114838
C499	C	0.247047	-0.537247	0.606862
C500	C	0.747047	-0.037247	1.106862
C501	C	0.275235	-0.500995	0.580046
C502	C	0.775235	-0.000995	1.080046
H503	H	0.401653	-0.588737	0.555235
H504	H	0.901653	-0.088737	1.055235
H505	H	0.352598	-0.651826	0.601903
H506	H	0.852598	-0.151826	1.101903
H507	H	0.254413	-0.619127	0.634689
H508	H	0.754413	-0.119127	1.134689
H509	H	0.205280	-0.523337	0.620809
H510	H	0.705280	-0.023337	1.120809
H511	H	0.254335	-0.460248	0.574141
H512	H	0.754335	0.039752	1.074141
C513	C	0.439362	-0.555664	0.525241
C514	C	0.939362	-0.055664	1.025241
C515	C	0.474661	-0.584239	0.554742
C516	C	0.974661	-0.084239	1.054742
C517	C	0.502890	-0.639284	0.562728
C518	C	1.002890	-0.139284	1.062728
C519	C	0.495819	-0.665754	0.541212
C520	C	0.995819	-0.165754	1.041212
C521	C	0.460518	-0.637179	0.511709
C522	C	0.960518	-0.137179	1.011709
C523	C	0.432289	-0.582134	0.503724
C524	C	0.932289	-0.082134	1.003724
H525	H	0.479897	-0.564645	0.570671
H526	H	0.979897	-0.064645	1.070671
H527	H	0.529022	-0.660437	0.584568
H528	H	1.029022	-0.160437	1.084568
H529	H	0.516715	-0.706501	0.547124
H530	H	1.016715	-0.206501	1.047124
H531	H	0.455282	-0.656773	0.495780
H532	H	0.955282	-0.156773	0.995780
H533	H	0.406157	-0.560981	0.481883
H534	H	0.906157	-0.060981	0.981883
C535	C	0.177423	-0.512547	0.448238
C536	C	0.677423	-0.012547	0.948238
C537	C	0.177209	-0.564617	0.465270
C538	C	0.677209	-0.064617	0.965270
C539	C	0.213860	-0.597042	0.432813
C540	C	0.713860	-0.097042	0.932813
C541	C	0.250724	-0.577398	0.383325
C542	C	0.750724	-0.077398	0.883325
C543	C	0.250939	-0.525326	0.366290
C544	C	0.750939	-0.025326	0.866290
C545	C	0.214289	-0.492900	0.398747
C546	C	0.714289	0.007100	0.898747
H547	H	0.149918	-0.579161	0.501906
H548	H	0.649918	-0.079161	1.001906
H549	H	0.213700	-0.635589	0.445423
H550	H	0.713700	-0.135589	0.945423
H551	H	0.277855	-0.601401	0.359298
H552	H	0.777855	-0.101401	0.859298
H553	H	0.278230	-0.510781	0.329654
H554	H	0.778230	-0.010781	0.829654
H555	H	0.214448	-0.454353	0.386137
H556	H	0.714448	0.045647	0.886137
H557	H	0.431972	-0.390789	0.465748
H558	H	0.931972	0.109211	0.965748
H559	H	0.160882	-0.219171	0.449698
H560	H	0.660882	0.280829	0.949698
C561	C	0.331587	-0.345494	0.494749
C562	C	0.831587	0.154506	0.994749
C563	C	0.338597	-0.308192	0.442411
C564	C	0.838597	0.191808	0.942411
C565	C	0.310372	-0.253146	0.434423
C566	C	0.810372	0.246854	0.934423
C567	C	0.275136	-0.235403	0.478773
C568	C	0.775136	0.264597	0.978773
C569	C	0.268125	-0.272705	0.531113
C570	C	0.768125	0.227295	1.031113
C571	C	0.296350	-0.327751	0.539101
C572	C	0.796350	0.172249	1.039101
H573	H	0.364681	-0.321326	0.409578
H574	H	0.864681	0.178674	0.909578
H575	H	0.315562	-0.225532	0.395677
H576	H	0.815562	0.274468	0.895677
H577	H	0.254242	-0.194654	0.472859
H578	H	0.754242	0.305346	0.972859
H579	H	0.242040	-0.259571	0.563947
H580	H	0.742040	0.240429	1.063947
H581	H	0.291159	-0.355365	0.577848
H582	H	0.791159	0.144635	1.077848
C583	C	0.133342	-0.118781	0.404309
C584	C	0.633342	0.381219	0.904309
C585	C	0.165761	-0.146975	0.367628
C586	C	0.665761	0.353025	0.867628
C587	C	0.179343	-0.118748	0.312160
C588	C	0.679343	0.381252	0.812160
C589	C	0.160506	-0.062326	0.293372
C590	C	0.660506	0.437674	0.793372
C591	C	0.128086	-0.034129	0.330053
C592	C	0.628086	0.465871	0.830053
C593	C	0.114504	-0.062356	0.385522
C594	C	0.614504	0.437644	0.885522
H595	H	0.179707	-0.188745	0.381535
H596	H	0.679707	0.311255	0.881535
H597	H	0.203343	-0.139622	0.285006
H598	H	0.703343	0.360378	0.785006
H599	H	0.170560	-0.041430	0.252311
H600	H	0.670560	0.458570	0.752311
H601	H	0.114140	0.007641	0.316146
H602	H	0.614140	0.507641	0.816146
H603	H	0.090503	-0.041482	0.412675
H604	H	0.590503	0.458518	0.912675
H605	H	0.053957	-0.126168	0.570702
H606	H	0.553957	0.373832	1.070702
H607	H	0.085016	-0.219221	0.601683
H608	H	0.585016	0.280779	1.101683
H609	H	-0.025639	-0.470264	0.074572
H610	H	0.474361	0.029736	0.574572
H611	H	0.050281	-0.622271	0.074658
H612	H	0.550281	-0.122271	0.574658
C613	C	-0.065217	-0.491695	0.174940
C614	C	0.434783	0.008305	0.674940
C615	C	-0.045584	-0.454825	0.167932
C616	C	0.454416	0.045175	0.667932
C617	C	-0.078043	-0.418127	0.196111
C618	C	0.421957	0.081873	0.696111
C619	C	-0.130135	-0.418300	0.231297
C620	C	0.369865	0.081700	0.731297
C621	C	-0.149770	-0.455172	0.238306
C622	C	0.350230	0.044828	0.738306
C623	C	-0.117312	-0.491870	0.210128
C624	C	0.382688	0.008130	0.710128
H625	H	-0.007020	-0.454696	0.141884
H626	H	0.492980	0.045304	0.641884
H627	H	-0.063507	-0.390832	0.190921
H628	H	0.436493	0.109168	0.690921
H629	H	-0.154162	-0.391134	0.252156
H630	H	0.345838	0.108866	0.752156
H631	H	-0.188334	-0.455301	0.264355
H632	H	0.311666	0.044699	0.764355
H633	H	-0.131848	-0.519165	0.215317
H634	H	0.368152	-0.019165	0.715317
C635	C	0.022666	-0.667644	0.175048
C636	C	0.522666	-0.167644	0.675048
C637	C	0.055119	-0.704333	0.146863
C638	C	0.555119	-0.204333	0.646863
C639	C	0.068690	-0.759802	0.175099
C640	C	0.568690	-0.259802	0.675099
C641	C	0.049807	-0.778580	0.231518
C642	C	0.549807	-0.278580	0.731518
C643	C	0.017352	-0.741890	0.259706
C644	C	0.517352	-0.241890	0.759706
C645	C	0.003781	-0.686421	0.231470
C646	C	0.503781	-0.186421	0.731470
H647	H	0.069099	-0.690433	0.105095
H648	H	0.569099	-0.190433	0.605095
H649	H	0.092716	-0.786962	0.154232
H650	H	0.592716	-0.286962	0.654232
H651	H	0.059853	-0.819641	0.252420
H652	H	0.559853	-0.319641	0.752420
H653	H	0.003372	-0.755790	0.301474
H654	H	0.503372	-0.255790	0.801474
H655	H	-0.020245	-0.659261	0.252337
H656	H	0.479755	-0.159261	0.752337
H657	H	-0.026079	-0.470245	0.376824
H658	H	0.473921	0.029755	0.876824
C659	C	0.058142	-0.631775	0.461387
C660	C	0.558142	-0.131775	0.961387
C661	C	0.110206	-0.631596	0.444440
C662	C	0.610206	-0.131596	0.944440
C663	C	0.142576	-0.668286	0.476950
C664	C	0.642576	-0.168286	0.976950
C665	C	0.122883	-0.705154	0.526407
C666	C	0.622883	-0.205154	1.026407
C667	C	0.070817	-0.705334	0.543356
C668	C	0.570817	-0.205334	1.043356
C669	C	0.038446	-0.668645	0.510846
C670	C	0.538446	-0.168645	1.010846
H671	H	0.124786	-0.604303	0.407827
H672	H	0.624786	-0.104303	0.907827
H673	H	0.181119	-0.668152	0.464403
H674	H	0.681119	-0.168152	0.964403
H675	H	0.146845	-0.732313	0.550473
H676	H	0.646845	-0.232313	1.050473
H677	H	0.056236	-0.732627	0.579970
H678	H	0.556236	-0.232627	1.079970
H679	H	-0.000097	-0.668778	0.523394
H680	H	0.499903	-0.168778	1.023394
C681	C	0.022304	-0.667626	0.425360
C682	C	0.522304	-0.167626	0.925360
C683	C	0.054676	-0.704313	0.457865
C684	C	0.554676	-0.204313	0.957865
C685	C	0.068281	-0.759782	0.471497
C686	C	0.568281	-0.259782	0.971497
C687	C	0.049513	-0.778564	0.452624
C688	C	0.549513	-0.278564	0.952624
C689	C	0.017139	-0.741876	0.420116
C690	C	0.517139	-0.241876	0.920116
C691	C	0.003534	-0.686407	0.406485
C692	C	0.503534	-0.186407	0.906485
H693	H	0.068571	-0.690411	0.471838
H694	H	0.568571	-0.190411	0.971838
H695	H	0.092246	-0.786941	0.495561
H696	H	0.592246	-0.286941	0.995561
H697	H	0.059584	-0.819625	0.462715
H698	H	0.559584	-0.319625	0.962715
H699	H	0.003244	-0.755779	0.406143
H700	H	0.503244	-0.255779	0.906143
H701	H	-0.020432	-0.659248	0.382421
H702	H	0.479568	-0.159248	0.882421
H703	H	0.056124	-0.793157	0.355062
H704	H	0.556124	-0.293157	0.855062
C705	C	0.101366	-0.893550	0.384064
C706	C	0.601366	-0.393550	0.884064
C707	C	0.119045	-0.928818	0.428454
C708	C	0.619045	-0.428818	0.928454
C709	C	0.174074	-0.957077	0.420534
C710	C	0.674074	-0.457077	0.920534
C711	C	0.211424	-0.950068	0.368224
C712	C	0.711424	-0.450068	0.868224
C713	C	0.193747	-0.914798	0.323830
C714	C	0.693747	-0.414798	0.823830
C715	C	0.138718	-0.886539	0.331750
C716	C	0.638718	-0.386539	0.831750
H717	H	0.091395	-0.934008	0.467180
H718	H	0.591395	-0.434008	0.967180
H719	H	0.187160	-0.983186	0.453398
H720	H	0.687160	-0.483186	0.953398
H721	H	0.252160	-0.970987	0.362362
H722	H	0.752160	-0.470987	0.862362
H723	H	0.221397	-0.909608	0.285104
H724	H	0.721397	-0.409608	0.785104
H725	H	0.125632	-0.860430	0.298887
H726	H	0.625632	-0.360430	0.798887
C727	C	-0.072917	-0.893377	0.450258
C728	C	0.427083	-0.393377	0.950258
C729	C	-0.114954	-0.886281	0.497862
C730	C	0.385046	-0.386281	0.997862
C731	C	-0.151218	-0.914447	0.524621
C732	C	0.348782	-0.414447	1.024621
C733	C	-0.145445	-0.949708	0.503775
C734	C	0.354555	-0.449708	1.003775
C735	C	-0.103406	-0.956806	0.456168
C736	C	0.396594	-0.456806	0.956168
C737	C	-0.067142	-0.928640	0.429409
C738	C	0.432858	-0.428640	0.929409
H739	H	-0.119229	-0.860177	0.513296
H740	H	0.380771	-0.360177	1.013296
H741	H	-0.182338	-0.909193	0.559863
H742	H	0.317662	-0.409193	1.059863
H743	H	-0.172289	-0.970559	0.523583
H744	H	0.327711	-0.470559	1.023583
H745	H	-0.099131	-0.982910	0.440734
H746	H	0.400869	-0.482910	0.940734
H747	H	-0.036022	-0.933894	0.394167
H748	H	0.463978	-0.433894	0.894167
H749	H	-0.057039	-0.501216	0.345698
H750	H	0.442961	-0.001216	0.845698
H751	H	-0.094449	-0.793002	0.412253
H752	H	0.405551	-0.293002	0.912253
H753	H	-0.328125	-0.583847	0.490235
H754	H	0.171875	-0.083847	0.990235
C755	C	-0.227764	-0.623392	0.468906
C756	C	0.272236	-0.123392	0.968906
C757	C	-0.256045	-0.636980	0.524359
C758	C	0.243955	-0.136980	1.024359
C759	C	-0.227907	-0.669435	0.561095
C760	C	0.272093	-0.169435	1.061095
C761	C	-0.171489	-0.688303	0.542379
C762	C	0.328511	-0.188303	1.042379
C763	C	-0.143205	-0.674716	0.486924
C764	C	0.356795	-0.174716	0.986924
C765	C	-0.171343	-0.642261	0.450187
C766	C	0.328657	-0.142261	0.950187
H767	H	-0.297812	-0.623013	0.538216
H768	H	0.202188	-0.123013	1.038216
H769	H	-0.248845	-0.679493	0.602147
H770	H	0.251155	-0.179493	1.102147
H771	H	-0.150660	-0.712328	0.569574
H772	H	0.349340	-0.212328	1.069574
H773	H	-0.101439	-0.688683	0.473066
H774	H	0.398561	-0.188683	0.973066
H775	H	-0.150405	-0.632202	0.409135
H776	H	0.349595	-0.132202	0.909135
H777	H	-0.234840	-0.539009	0.307312
H778	H	0.265160	-0.039009	0.807312
C779	C	-0.335199	-0.499470	0.328640
C780	C	0.164801	0.000530	0.828640
C781	C	-0.328101	-0.519103	0.291718
C782	C	0.171899	-0.019103	0.791718
C783	C	-0.356237	-0.486648	0.254980
C784	C	0.143763	0.013352	0.754980
C785	C	-0.391471	-0.434561	0.255164
C786	C	0.108529	0.065439	0.755164
C787	C	-0.398571	-0.414925	0.292088
C788	C	0.101429	0.085075	0.792088
C789	C	-0.370435	-0.447380	0.328826
C790	C	0.129565	0.052620	0.828826
H791	H	-0.302017	-0.557663	0.291580
H792	H	0.197983	-0.057663	0.791580
H793	H	-0.350981	-0.501184	0.227647
H794	H	0.149019	-0.001184	0.727647
H795	H	-0.412299	-0.410536	0.227969
H796	H	0.087701	0.089464	0.727969
H797	H	-0.424655	-0.376365	0.292226
H798	H	0.075345	0.123635	0.792226
H799	H	-0.375691	-0.432844	0.356159
H800	H	0.124309	0.067156	0.856159
