data_functionalizedCrystal
_audit_creation_method	'MofGen! by Chris Wilmer'
_symmetry_space_group_name_H-M	'P1'
_symmetry_Int_Tables_number	1
_symmetry_cell_setting	triclinic
loop_
_symmetry_equiv_pos_as_xyz
  x,y,z
_cell_length_a	16.625539
_cell_length_b	16.959455
_cell_length_c	16.959454
_cell_angle_alpha	90.017022
_cell_angle_beta	90.024917
_cell_angle_gamma	90.019462
loop_
_atom_site_label
_atom_site_type_symbol
_atom_site_fract_x
_atom_site_fract_y
_atom_site_fract_z
Zn1	Zn	-0.455904	-1.208424	0.314745
Zn2	Zn	0.044096	-0.708424	0.814745
Zn3	Zn	-0.321080	-1.208335	0.446933
Zn4	Zn	0.178920	-0.708335	0.946933
Zn5	Zn	-0.321088	-1.076240	0.314765
Zn6	Zn	0.178912	-0.576240	0.814765
Zn7	Zn	-0.455872	-1.076217	0.446878
Zn8	Zn	0.044128	-0.576217	0.946878
O9	O	-0.388486	-1.142304	0.380830
O10	O	0.111514	-0.642304	0.880830
O11	O	-0.438030	-1.319023	0.332294
O12	O	0.061970	-0.819023	0.832294
O13	O	-0.208248	-1.190784	0.429432
O14	O	0.291752	-0.690784	0.929432
O15	O	-0.338988	-1.093822	0.204151
O16	O	0.161012	-0.593822	0.704151
O17	O	-0.338975	-1.318957	0.429412
O18	O	0.161025	-0.818957	0.929412
O19	O	-0.438038	-1.190937	0.204136
O20	O	0.061962	-0.690937	0.704136
O21	O	-0.208254	-1.093735	0.332329
O22	O	0.291746	-0.593735	0.832329
O23	O	-0.338957	-0.965626	0.332276
O24	O	0.161043	-0.465626	0.832276
O25	O	-0.568709	-1.093782	0.429319
O26	O	-0.068709	-0.593782	0.929319
O27	O	-0.437982	-0.965609	0.429338
O28	O	0.062018	-0.465609	0.929338
O29	O	-0.568733	-1.190914	0.332241
O30	O	-0.068733	-0.690914	0.832241
O31	O	-0.338943	-1.190762	0.557536
O32	O	0.161057	-0.690762	1.057536
O33	O	-0.437975	-1.093695	0.557496
O34	O	0.062025	-0.593695	1.057496
C35	C	-0.388472	-1.142238	0.586196
C36	C	0.111528	-0.642238	1.086196
C37	C	-0.388493	-1.142282	0.674053
C38	C	0.111507	-0.642282	1.174053
C39	C	-0.388468	-0.936938	0.380804
C40	C	0.111532	-0.436938	0.880804
C41	C	-0.388479	-0.849081	0.380812
C42	C	0.111521	-0.349081	0.880812
C43	C	-0.598795	-1.142355	0.380771
C44	C	-0.098795	-0.642355	0.880771
C45	C	-0.688416	-1.142377	0.380746
C46	C	-0.188416	-0.642377	0.880746
C47	C	-1.016592	-1.142414	0.380658
C48	C	-0.516592	-0.642414	0.880658
C49	C	-0.925283	-1.142401	0.380685
C50	C	-0.425283	-0.642401	0.880685
C51	C	-0.852507	-1.142396	0.380702
C52	C	-0.352507	-0.642396	0.880702
C53	C	-0.761193	-1.142383	0.380728
C54	C	-0.261193	-0.642383	0.880728
C55	C	-0.178995	-1.142298	0.380832
C56	C	0.321005	-0.642298	0.880832
C57	C	-0.089374	-1.142429	0.380634
C58	C	0.410626	-0.642429	0.880634
C59	C	-0.388505	-1.348472	0.380857
C60	C	0.111495	-0.848472	0.880857
C61	C	-0.388513	-1.436329	0.380868
C62	C	0.111487	-0.936329	0.880868
C63	C	-0.337031	-0.477590	0.330248
C64	C	0.162969	0.022410	0.830248
C65	C	-0.439987	-0.477621	0.431477
C66	C	0.060013	0.022379	0.931477
C67	C	-0.439982	-0.560167	0.431466
C68	C	0.060018	-0.060167	0.931466
C69	C	-0.388500	-0.601428	0.380846
C70	C	0.111500	-0.101428	0.880846
C71	C	-0.337023	-0.560144	0.330237
C72	C	0.162977	-0.060144	0.830237
C73	C	-0.491453	-0.601458	0.482079
C74	C	0.008547	-0.101458	0.982079
C75	C	-0.491449	-0.684008	0.482070
C76	C	0.008551	-0.184008	0.982070
C77	C	-0.439970	-0.725271	0.431446
C78	C	0.060030	-0.225271	0.931446
C79	C	-0.388492	-0.683982	0.380834
C80	C	0.111508	-0.183982	0.880834
C81	C	-0.337010	-0.725243	0.330214
C82	C	0.162990	-0.225243	0.830214
C83	C	-0.285534	-0.683955	0.279598
C84	C	0.214466	-0.183955	0.779598
C85	C	-0.285544	-0.601406	0.279612
C86	C	0.214456	-0.101406	0.779612
C87	C	-0.439961	-0.807820	0.431432
C88	C	0.060039	-0.307820	0.931432
C89	C	-0.337001	-0.807797	0.330203
C90	C	0.162999	-0.307797	0.830203
C91	C	-0.388517	-1.142392	0.174662
C92	C	0.111483	-0.642392	0.674662
C93	C	-0.388531	-1.142429	0.086805
C94	C	0.111469	-0.642429	0.586805
C95	C	-0.440046	-1.091835	1.045537
C96	C	0.059954	-0.591835	1.545537
C97	C	-0.337008	-1.192993	1.045519
C98	C	0.162992	-0.692993	1.545519
C99	C	-0.337001	-1.192966	0.962974
C100	C	0.162999	-0.692966	1.462974
C101	C	-0.388516	-1.142371	0.921706
C102	C	0.111484	-0.642371	1.421706
C103	C	-0.440039	-1.091804	0.962984
C104	C	0.059961	-0.591804	1.462984
C105	C	-0.285473	-1.243526	0.921689
C106	C	0.214527	-0.743526	1.421689
C107	C	-0.285463	-1.243500	0.839138
C108	C	0.214537	-0.743500	1.339138
C109	C	-0.336983	-1.192908	0.797869
C110	C	0.163017	-0.692908	1.297869
C111	C	-0.388508	-1.142340	0.839152
C112	C	0.111492	-0.642340	1.339152
C113	C	-0.440024	-1.091746	0.797885
C114	C	0.059976	-0.591746	1.297885
C115	C	-0.491554	-1.041181	0.839166
C116	C	0.008446	-0.541181	1.339166
C117	C	-0.491559	-1.041213	0.921715
C118	C	0.008441	-0.541213	1.421715
C119	C	-0.336978	-1.192876	0.715321
C120	C	0.163022	-0.692876	1.215321
C121	C	-0.440016	-1.091715	0.715331
C122	C	0.059984	-0.591715	1.215331
H123	H	-0.295083	-0.841386	0.288977
H124	H	0.204917	-0.341386	0.788977
C125	C	-0.548169	-0.556075	0.537669
C126	C	-0.048169	-0.056075	1.037669
H127	H	-0.578845	-0.592485	0.567789
H128	H	-0.078845	-0.092485	1.067789
H129	H	-0.583325	-0.523941	0.507395
H130	H	-0.083325	-0.023941	1.007395
H131	H	-0.517348	-0.523805	0.572105
H132	H	-0.017348	-0.023805	1.072105
H133	H	-0.243505	-1.284673	0.805532
H134	H	0.256495	-0.784673	1.305532
H135	H	-0.243614	-0.717561	0.238387
H136	H	0.256386	-0.217561	0.738387
C137	C	-0.228917	-0.555989	0.223952
C138	C	0.271083	-0.055989	0.723952
H139	H	-0.236288	-0.500917	0.231219
H140	H	0.263712	-0.000917	0.731219
H141	H	-0.240799	-0.569523	0.170853
H142	H	0.259201	-0.069523	0.670853
H143	H	-0.174720	-0.569497	0.235463
H144	H	0.325280	-0.069497	0.735463
C145	C	-0.280303	-1.248490	0.669914
C146	C	0.219697	-0.748490	1.169914
H147	H	-0.249625	-1.278628	0.706315
H148	H	0.250375	-0.778628	1.206315
H149	H	-0.245144	-1.218261	0.637747
H150	H	0.254856	-0.718261	1.137747
H151	H	-0.311180	-1.282908	0.637677
H152	H	0.188820	-0.782908	1.137677
H153	H	-0.481897	-0.444021	0.472694
H154	H	0.018103	0.055979	0.972694
C155	C	-0.496685	-1.036061	0.669943
C156	C	0.003315	-0.536061	1.169943
H157	H	-0.527369	-1.005951	0.706353
H158	H	-0.027369	-0.505951	1.206353
H159	H	-0.531839	-1.066265	0.637699
H160	H	-0.031839	-0.566265	1.137699
H161	H	-0.465803	-1.001619	0.637783
H162	H	0.034197	-0.501619	1.137783
H163	H	-0.295062	-1.234180	1.079125
H164	H	0.204938	-0.734180	1.579125
H165	H	-0.482003	-1.050668	1.079153
H166	H	0.017997	-0.550668	1.579153
H167	H	-0.243526	-1.284711	0.955296
H168	H	0.256474	-0.784711	1.455296
H169	H	-0.295123	-0.443970	0.289036
H170	H	0.204877	0.056030	0.789036
C171	C	-0.548221	-0.985531	0.793770
C172	C	-0.048221	-0.485531	1.293770
H173	H	-0.578909	-0.955418	0.830174
H174	H	-0.078909	-0.455418	1.330174
H175	H	-0.583370	-1.015739	0.761525
H176	H	-0.083370	-0.515739	1.261525
H177	H	-0.517335	-0.951092	0.761610
H178	H	-0.017335	-0.451092	1.261610
C179	C	-0.548076	-0.729418	0.537737
C180	C	-0.048076	-0.229418	1.037737
H181	H	-0.578741	-0.693021	0.567881
H182	H	-0.078741	-0.193021	1.067881
H183	H	-0.517175	-0.761607	0.572135
H184	H	-0.017175	-0.261607	1.072135
H185	H	-0.583261	-0.761634	0.507530
H186	H	-0.083261	-0.261634	1.007530
H187	H	-0.481869	-0.841433	0.472645
H188	H	0.018131	-0.341433	0.972645
C189	C	-0.548226	-0.985590	0.967125
C190	C	-0.048226	-0.485590	1.467125
H191	H	-0.540843	-0.992848	1.022198
H192	H	-0.040843	-0.492848	1.522198
H193	H	-0.602414	-0.997116	0.953568
H194	H	-0.102414	-0.497116	1.453568
H195	H	-0.536366	-0.932481	0.953635
H196	H	-0.036366	-0.432481	1.453635
