data_functionalizedCrystal
_audit_creation_method	'MofGen! by Chris Wilmer'
_symmetry_space_group_name_H-M	'P1'
_symmetry_Int_Tables_number	1
_symmetry_cell_setting	triclinic
loop_
_symmetry_equiv_pos_as_xyz
  x,y,z
_cell_length_a	6.817900
_cell_length_b	11.102210
_cell_length_c	11.102291
_cell_angle_alpha	91.948932
_cell_angle_beta	108.605752
_cell_angle_gamma	108.604261
loop_
_atom_site_label
_atom_site_type_symbol
_atom_site_fract_x
_atom_site_fract_y
_atom_site_fract_z
V1	V	-4.111530	-0.175854	-0.396256
O2	O	-4.070572	0.008434	-0.388716
O3	O	-4.088297	-0.348674	-0.393543
O4	O	-4.088314	-0.173157	-0.569078
O5	O	-4.070555	-0.168298	-0.211966
V6	V	-4.588633	-0.153810	-0.374214
O7	O	-4.386870	-0.224209	-0.444608
O8	O	-4.763490	-0.105455	-0.325862
O9	O	-4.388658	0.019009	-0.376927
O10	O	-4.746988	-0.338099	-0.381754
O11	O	-4.747005	-0.161367	-0.558504
O12	O	-4.388641	-0.156508	-0.201392
C13	C	-3.938606	-0.390803	-0.387291
C14	C	-4.001066	-0.532086	-0.386225
C15	C	-4.028957	-0.713075	-0.268356
C16	C	-3.970246	-0.580322	-0.269343
C17	C	-4.090584	-0.616609	-0.502127
C18	C	-4.149279	-0.749358	-0.501139
C19	C	-3.938626	-0.166912	-0.611202
C20	C	-4.001095	-0.165850	-0.752485
C21	C	-4.214450	-0.171689	-0.825333
C22	C	-4.273121	-0.170666	-0.958079
C23	C	-3.905065	-0.157969	-0.945118
C24	C	-3.846392	-0.158983	-0.812373
C25	C	-4.426947	-0.179025	-0.832818
C26	C	-4.485619	-0.178002	-0.965564
C27	C	-4.201692	0.061132	-0.383175
C28	C	-4.118472	0.202413	-0.384249
C29	C	-4.201671	-0.162757	-0.159261
C30	C	-4.118440	-0.163813	-0.017977
H31	H	-4.003862	-0.752338	-0.173177
H32	H	-4.446426	-0.092764	-0.785723
Cl33	Cl	-3.857705	-0.474082	-0.123641
Cl34	Cl	-4.129306	-0.555967	-0.649066
H35	H	-4.222166	-0.818172	-0.595519
Cl36	Cl	-3.578163	-0.151632	-0.720795
H37	H	-4.522338	-0.273803	-0.808353
Cl38	Cl	-3.710600	-0.149340	-1.020416
H39	H	-4.629311	-0.269896	-1.018410
Cl40	Cl	-4.541935	-0.038692	-1.010510
