data_functionalizedCrystal
_audit_creation_method	'MofGen! by Chris Wilmer'
_symmetry_space_group_name_H-M	'P1'
_symmetry_Int_Tables_number	1
_symmetry_cell_setting	triclinic
loop_
_symmetry_equiv_pos_as_xyz
  x,y,z
_cell_length_a	16.625548
_cell_length_b	13.032721
_cell_length_c	13.032268
_cell_angle_alpha	76.710373
_cell_angle_beta	97.162193
_cell_angle_gamma	82.794397
loop_
_atom_site_label
_atom_site_type_symbol
_atom_site_fract_x
_atom_site_fract_y
_atom_site_fract_z
Zn1	Zn	1.119641	0.499057	-0.654215
Zn2	Zn	1.119553	0.654142	-0.499163
Zn3	Zn	1.004420	0.476555	-0.476634
Zn4	Zn	0.965173	0.676619	-0.676703
O5	O	1.052197	0.576593	-0.576679
O6	O	1.232459	0.519640	-0.633665
O7	O	1.120669	0.611760	-0.347555
O8	O	1.036166	0.330909	-0.481350
O9	O	1.232395	0.633580	-0.519749
O10	O	1.120819	0.347442	-0.611819
O11	O	1.036081	0.481288	-0.331002
O12	O	0.886384	0.503083	-0.503156
O13	O	0.969275	0.671889	-0.822340
O14	O	0.857549	0.650069	-0.650146
O15	O	1.082763	0.541436	-0.805818
O16	O	1.082613	0.805754	-0.541554
O17	O	0.969190	0.822268	-0.671992
C18	C	1.021652	0.852553	-0.611681
C19	C	1.008655	0.970614	-0.626691
C20	C	0.842711	0.576574	-0.576647
C21	C	0.753086	0.576595	-0.576662
C22	C	1.021651	0.611680	-0.853692
C23	C	1.008634	0.626632	-0.971738
C24	C	0.424905	0.576608	-0.576708
C25	C	0.516216	0.576601	-0.576692
C26	C	0.588993	0.576602	-0.576684
C27	C	0.680309	0.576594	-0.576669
C28	C	1.262501	0.576613	-0.576711
C29	C	1.352119	0.576622	-0.576725
C30	C	1.082880	0.299559	-0.541563
C31	C	1.095956	0.181504	-0.526599
C32	C	1.059018	1.015050	-0.568893
C33	C	1.045586	1.137072	-0.584405
C34	C	1.058982	0.568752	-1.016192
C35	C	1.045530	0.584204	-1.138199
C36	C	1.082679	0.541567	-0.300734
C37	C	1.095885	0.526316	-0.182650
H38	H	0.992523	1.189362	-0.645380
H39	H	0.992458	0.645194	-1.190462
H40	H	1.148949	0.465313	-1.130388
O41	O	0.945391	0.699388	-1.034242
C42	C	0.874273	0.781054	-1.212823
C43	C	0.945939	0.698634	-1.142169
H44	H	0.874683	0.780456	-1.300094
H45	H	0.881322	0.863996	-1.202019
H46	H	0.813718	0.759672	-1.188645
H47	H	1.006528	0.719916	-1.166302
H48	H	0.938818	0.615714	-1.152982
H49	H	1.112083	0.962760	-0.507929
H50	H	1.112044	0.507755	-0.963926
O51	O	1.159201	1.118974	-0.453870
C52	C	1.230303	0.940352	-0.372174
C53	C	1.158636	1.011038	-0.454557
H54	H	1.229880	0.853074	-0.372718
H55	H	1.223266	0.951217	-0.289238
H56	H	1.290860	0.964453	-0.393632
H57	H	1.098046	0.986982	-0.433198
H58	H	1.165745	1.000165	-0.537469
O59	O	0.945370	1.033140	-0.699349
C60	C	0.874333	1.211777	-0.781135
C61	C	0.946025	1.141092	-0.698794
H62	H	0.874849	1.299072	-0.780730
H63	H	0.813735	1.187822	-0.759681
H64	H	0.881377	1.200762	-0.864018
H65	H	0.939060	1.152070	-0.615882
H66	H	1.006596	1.165064	-0.720341
