data_functionalizedCrystal
_audit_creation_method	'MofGen! by Chris Wilmer'
_symmetry_space_group_name_H-M	'P1'
_symmetry_Int_Tables_number	1
_symmetry_cell_setting	triclinic
loop_
_symmetry_equiv_pos_as_xyz
  x,y,z
_cell_length_a	25.639243
_cell_length_b	25.639239
_cell_length_c	19.076919
_cell_angle_alpha	92.267829
_cell_angle_beta	92.278295
_cell_angle_gamma	90.042008
loop_
_atom_site_label
_atom_site_type_symbol
_atom_site_fract_x
_atom_site_fract_y
_atom_site_fract_z
Zn1	Zn	0.787360	-0.220002	-0.397983
Zn2	Zn	0.790791	-0.303924	-0.280284
Zn3	Zn	0.703444	-0.216509	-0.280297
Zn4	Zn	0.699882	-0.307411	-0.397933
O5	O	0.745369	-0.261962	-0.339124
O6	O	0.860980	-0.231137	-0.382385
O7	O	0.782131	-0.289406	-0.181797
O8	O	0.714631	-0.143808	-0.295935
O9	O	0.863501	-0.292794	-0.295912
O10	O	0.776283	-0.146375	-0.382399
O11	O	0.717958	-0.225183	-0.181807
O12	O	0.629807	-0.228565	-0.295887
O13	O	0.708560	-0.298738	-0.496429
O14	O	0.627190	-0.295350	-0.382313
O15	O	0.772829	-0.234519	-0.496465
O16	O	0.778677	-0.377551	-0.295864
O17	O	0.711886	-0.380113	-0.382300
C18	C	0.609528	-0.261957	-0.339097
C19	C	0.551413	-0.261968	-0.339101
C20	C	0.189729	-0.229912	-0.384226
C21	C	0.135125	-0.229911	-0.384231
O22	O	0.105766	-0.202645	-0.422563
N23	N	0.109130	-0.261961	-0.339144
C24	C	0.137742	-0.294008	-0.294045
O25	O	0.110617	-0.321268	-0.255695
C26	C	0.192346	-0.294006	-0.294037
C27	C	0.218338	-0.261958	-0.339132
C28	C	0.215722	-0.197866	-0.429317
C29	C	0.270322	-0.197868	-0.429313
C30	C	0.298931	-0.229914	-0.384219
C31	C	0.272938	-0.261959	-0.339128
C32	C	0.220957	-0.326050	-0.248935
C33	C	0.275564	-0.326044	-0.248931
C34	C	0.301556	-0.293997	-0.294026
C35	C	0.356147	-0.294007	-0.294031
N36	N	0.382143	-0.261958	-0.339117
C37	C	0.353534	-0.229911	-0.384212
C38	C	0.023071	-0.294011	-0.294063
C39	C	-0.031532	-0.294017	-0.294073
C40	C	-0.034145	-0.229919	-0.384258
C41	C	0.020458	-0.229916	-0.384251
C42	C	0.049066	-0.261962	-0.339150
C43	C	0.468200	-0.229916	-0.384201
C44	C	0.522805	-0.229922	-0.384195
C45	C	0.525414	-0.294018	-0.294008
C46	C	0.470813	-0.294014	-0.294016
C47	C	0.442207	-0.261959	-0.339115
O48	O	0.385540	-0.321258	-0.255716
O49	O	0.380666	-0.202651	-0.422548
C50	C	0.745281	-0.397803	-0.339090
C51	C	0.745290	-0.455917	-0.339099
C52	C	0.710586	-0.708458	-0.384118
C53	C	0.710567	-0.653853	-0.384109
O54	O	0.680974	-0.626761	-0.422362
N55	N	0.745355	-0.625192	-0.339136
C56	C	0.780169	-0.651139	-0.294173
O57	O	0.809757	-0.621747	-0.255920
C58	C	0.780190	-0.705743	-0.294186
C59	C	0.745395	-0.734401	-0.339157
C60	C	0.675795	-0.737116	-0.429086
C61	C	0.675813	-0.791716	-0.429093
C62	C	0.710623	-0.817659	-0.384132
C63	C	0.745414	-0.789001	-0.339164
C64	C	0.815005	-0.731688	-0.249227
C65	C	0.815024	-0.786296	-0.249243
C66	C	0.780230	-0.814954	-0.294214
C67	C	0.780242	-0.869545	-0.294210
N68	N	0.745454	-0.898206	-0.339183
C69	C	0.710644	-0.872263	-0.384144
C70	C	0.780122	-0.536468	-0.294152
C71	C	0.780098	-0.481865	-0.294136
C72	C	0.710497	-0.484583	-0.384073
C73	C	0.710518	-0.539187	-0.384085
C74	C	0.745333	-0.565129	-0.339125
C75	C	0.710686	-0.986928	-0.384155
C76	C	0.710706	-1.041534	-0.384156
C77	C	0.780309	-1.038811	-0.294222
C78	C	0.780287	-0.984210	-0.294218
C79	C	0.745473	-0.958270	-0.339190
O80	O	0.809821	-0.896672	-0.255979
O81	O	0.681065	-0.901662	-0.422398
C82	C	0.881742	-0.261966	-0.339153
C83	C	0.939855	-0.261968	-0.339165
C84	C	0.739914	-0.267407	-0.522698
C85	C	0.737590	-0.269728	-0.600926
C86	C	0.745472	-0.125590	-0.339174
C87	C	0.745516	-0.067477	-0.339195
C88	C	0.769958	-0.237384	-0.637698
C89	C	0.767767	-0.239563	-0.711202
C90	C	0.733211	-0.274088	-0.747932
C91	C	0.700840	-0.306433	-0.711155
C92	C	0.703028	-0.304251	-0.637653
C93	C	0.723076	-0.284195	-0.967758
C94	C	0.720891	-0.286375	-1.041266
C95	C	0.787819	-0.219504	-1.041307
C96	C	0.790006	-0.217328	-0.967804
C97	C	0.757633	-0.249671	-0.931033
N98	N	0.730972	-0.276317	-0.823064
N99	N	0.759869	-0.247439	-0.855902
C100	C	0.750833	-0.256499	-0.156265
C101	C	0.753259	-0.254031	-0.078037
H102	H	0.291480	-0.171770	-0.466033
O103	O	0.799189	-0.208068	-0.746839
C104	C	0.788329	-0.155426	-0.728899
H105	H	0.769817	-0.152763	-0.675527
H106	H	0.826156	-0.131911	-0.726396
H107	H	0.760233	-0.139037	-0.770264
H108	H	0.798099	-0.209272	-0.607798
H109	H	0.676665	-0.330584	-0.607714
O110	O	0.548074	-0.198866	-0.428076
C111	C	0.578305	-0.230029	-0.473449
H112	H	0.561695	-0.271340	-0.477697
H113	H	0.577333	-0.212789	-0.527659
H114	H	0.620331	-0.231158	-0.451685
O115	O	0.440496	-0.198767	-0.428079
C116	C	0.475156	-0.170479	-0.467860
H117	H	0.513991	-0.191971	-0.470230
H118	H	0.457751	-0.166613	-0.523331
H119	H	0.481752	-0.129977	-0.442188
H120	H	0.192434	-0.171768	-0.466038
H121	H	0.818147	-0.189215	-0.937903
O122	O	0.848859	-0.703939	-0.205524
C123	C	0.879577	-0.738556	-0.165842
H124	H	0.880515	-0.778323	-0.194685
H125	H	0.920996	-0.722525	-0.158394
H126	H	0.862061	-0.742814	-0.112361
H127	H	0.548716	-0.320110	-0.257295
O128	O	0.195800	-0.357193	-0.205059
C129	C	0.232769	-0.385478	-0.165271
H130	H	0.271776	-0.363985	-0.162898
H131	H	0.218637	-0.389341	-0.109801
H132	H	0.237790	-0.425981	-0.190938
O133	O	0.814092	-1.064100	-0.250599
C134	C	0.806629	-1.118438	-0.260236
H135	H	0.787874	-1.127507	-0.314537
H136	H	0.845937	-1.139018	-0.255497
H137	H	0.780043	-1.132728	-0.218467
H138	H	-0.057448	-0.203824	-0.420975
H139	H	0.449649	-0.320116	-0.257304
H140	H	0.041618	-0.203819	-0.420970
H141	H	0.814174	-0.193172	-1.071254
H142	H	0.808472	-0.557586	-0.257534
O143	O	0.848775	-0.811554	-0.205539
C144	C	0.820406	-0.841828	-0.160031
H145	H	0.780032	-0.850779	-0.184793
H146	H	0.842003	-0.879926	-0.150642
H147	H	0.816242	-0.819261	-0.107860
H148	H	0.672701	-0.334542	-0.741067
H149	H	-0.052690	-0.320119	-0.257360
H150	H	0.692750	-0.314491	-1.071169
O151	O	0.691603	-0.315658	-0.932154
C152	C	0.660623	-0.346584	-0.980337
H153	H	0.680485	-0.349961	-1.032732
H154	H	0.655630	-0.387144	-0.959078
H155	H	0.620703	-0.327657	-0.988164
O156	O	0.303378	-0.357099	-0.205045
C157	C	0.336336	-0.325936	-0.159669
H158	H	0.320040	-0.284625	-0.155426
H159	H	0.338540	-0.343175	-0.105459
H160	H	0.377078	-0.324810	-0.181428
O161	O	0.050778	-0.325197	-0.250234
C162	C	0.016120	-0.353473	-0.210434
H163	H	-0.023654	-0.356166	-0.239266
H164	H	0.032087	-0.394435	-0.202826
H165	H	0.011903	-0.332683	-0.157027
H166	H	0.808615	-0.960876	-0.257591
O167	O	0.676757	-0.459356	-0.427829
C168	C	0.705140	-0.429065	-0.473302
H169	H	0.746190	-0.445608	-0.477703
H170	H	0.684591	-0.430051	-0.527443
H171	H	0.707589	-0.387042	-0.451532
O172	O	0.676887	-1.069293	-0.427911
C173	C	0.646153	-1.034681	-0.467581
H174	H	0.667483	-0.995808	-0.470037
H175	H	0.638901	-1.052091	-0.523030
H176	H	0.607225	-1.028157	-0.441756
H177	H	0.682338	-0.965814	-0.420777
H178	H	0.647448	-0.715998	-0.465702
O179	O	0.642070	-0.819529	-0.472886
C180	C	0.651363	-0.808215	-0.543038
H181	H	0.693019	-0.793269	-0.546634
H182	H	0.645816	-0.845145	-0.577820
H183	H	0.622768	-0.777084	-0.561388
O184	O	0.676704	-0.566944	-0.427840
C185	C	0.645968	-0.532330	-0.467503
H186	H	0.667296	-0.493455	-0.469952
H187	H	0.638716	-0.549735	-0.522955
H188	H	0.607040	-0.525810	-0.441677
O189	O	0.813943	-0.454110	-0.250422
C190	C	0.844659	-0.488723	-0.210730
H191	H	0.845605	-0.528490	-0.239570
H192	H	0.886075	-0.472687	-0.203270
H193	H	0.827134	-0.492982	-0.157254
