data_functionalizedCrystal
_audit_creation_method	'MofGen! by Chris Wilmer'
_symmetry_space_group_name_H-M	'P1'
_symmetry_Int_Tables_number	1
_symmetry_cell_setting	triclinic
loop_
_symmetry_equiv_pos_as_xyz
  x,y,z
_cell_length_a	12.837943
_cell_length_b	12.837942
_cell_length_c	9.730223
_cell_angle_alpha	89.996108
_cell_angle_beta	89.997877
_cell_angle_gamma	94.828940
loop_
_atom_site_label
_atom_site_type_symbol
_atom_site_fract_x
_atom_site_fract_y
_atom_site_fract_z
O1	O	1.402334	0.272140	-0.114264
O2	O	1.099200	0.258697	-0.114272
O3	O	1.244046	0.113851	-0.114260
O4	O	1.257489	0.416985	-0.114276
O5	O	1.244035	0.113846	0.114320
O6	O	1.099190	0.258691	0.114308
O7	O	1.402323	0.272135	0.114316
Zn8	Zn	1.250755	0.265412	0.150604
Zn9	Zn	1.250769	0.265419	-0.150560
O10	O	1.257478	0.416980	0.114303
C11	C	1.060126	0.254153	0.000017
C12	C	0.943711	0.240608	0.000014
C13	C	0.718837	0.403437	0.000025
C14	C	0.609454	0.390716	0.000023
C15	C	0.615562	0.202445	0.000018
C16	C	0.724944	0.215166	0.000020
C17	C	0.776578	0.315666	0.000021
C18	C	0.885962	0.328386	0.000013
C19	C	0.892067	0.140116	0.000018
C20	C	0.782685	0.127395	0.000017
C21	C	1.239499	0.074780	0.000029
C22	C	1.225954	-0.041635	0.000027
C23	C	1.388784	-0.266510	0.000002
C24	C	1.376062	-0.375892	-0.000000
C25	C	1.187791	-0.369785	0.000009
C26	C	1.200513	-0.260402	0.000011
C27	C	1.301012	-0.208769	0.000010
C28	C	1.313732	-0.099384	0.000023
C29	C	1.125462	-0.093279	0.000022
C30	C	1.112741	-0.202661	0.000019
C31	C	1.441398	0.276679	0.000024
C32	C	1.557813	0.290223	0.000018
C33	C	1.262025	0.456052	0.000011
C34	C	1.275569	0.572467	0.000005
N35	N	1.250753	0.265407	0.356140
N36	N	1.250778	0.265416	-0.356097
C37	C	1.314917	0.201302	0.428072
C38	C	1.314928	0.201303	0.571954
C39	C	1.186607	0.329524	0.571962
C40	C	1.186592	0.329517	0.428082
H41	H	0.562446	0.462189	0.000029
C42	C	0.927922	-0.185637	0.000022
C43	C	1.002275	-0.259422	0.000016
H44	H	0.859725	-0.220679	0.000012
H45	H	0.936797	-0.143113	0.079732
H46	H	0.936809	-0.143090	-0.079690
H47	H	0.993393	-0.301964	0.079733
H48	H	0.993395	-0.301964	-0.079703
H49	H	0.939092	0.068646	0.000006
H50	H	1.367175	0.149102	0.630517
C51	C	1.030532	0.033275	-0.117477
C52	C	1.028971	-0.029812	0.000024
H53	H	0.970960	0.072450	-0.117474
H54	H	1.092193	0.079682	-0.117465
H55	H	1.029486	-0.009527	-0.197181
H56	H	1.030025	0.012990	0.079729
H57	H	0.967295	-0.076225	0.000025
C58	C	0.587072	0.038061	-0.117482
C59	C	0.558791	0.091984	0.000022
H60	H	0.552027	-0.030135	-0.117473
H61	H	0.567890	0.074660	-0.197176
H62	H	0.660480	0.033073	-0.117472
H63	H	0.485384	0.096978	0.000008
H64	H	0.577966	0.055375	0.079737
H65	H	1.134336	0.381719	0.369511
H66	H	1.134370	0.381722	0.630551
H67	H	1.105969	-0.411844	-0.000005
C68	C	0.754205	-0.037008	0.117509
C69	C	0.725923	0.016929	0.000011
H70	H	0.719159	-0.105204	0.117502
H71	H	0.827604	-0.041991	0.117497
H72	H	0.735015	-0.000415	0.197215
H73	H	0.745121	-0.019660	-0.079696
H74	H	0.652508	0.021907	0.000010
C75	C	0.868935	0.513204	0.000035
C76	C	0.942721	0.438852	0.000022
H77	H	0.903975	0.581402	0.000052
H78	H	0.826405	0.504336	-0.079673
H79	H	0.826393	0.504308	0.079750
H80	H	0.985258	0.447744	-0.079699
H81	H	0.985269	0.447725	0.079738
C82	C	1.441747	0.074553	0.442521
C83	C	1.385431	0.130824	0.348992
H84	H	1.485273	0.031035	0.393701
H85	H	1.483710	0.121872	0.498618
H86	H	1.394447	0.032574	0.498661
H87	H	1.432731	0.172808	0.292859
H88	H	1.343465	0.083498	0.292872
H89	H	0.760878	0.485268	0.000023
H90	H	1.470614	-0.224469	0.000015
C91	C	1.498551	-0.116412	-0.000013
C92	C	1.424199	-0.042625	0.000007
H93	H	1.566748	-0.081371	-0.000036
H94	H	1.489680	-0.158948	0.079694
H95	H	1.489657	-0.158946	-0.079728
H96	H	1.433088	-0.000096	0.079728
H97	H	1.433074	-0.000070	-0.079709
C98	C	1.563436	-0.370937	0.000001
C99	C	1.472544	-0.439362	-0.000001
H100	H	1.623000	-0.410123	0.000007
H101	H	1.564483	-0.328145	-0.079705
H102	H	1.564473	-0.328149	0.079718
H103	H	1.471503	-0.482145	-0.079723
H104	H	1.471497	-0.482172	0.079713
