data_functionalizedCrystal
_audit_creation_method	'MofGen! by Chris Wilmer'
_symmetry_space_group_name_H-M	'P1'
_symmetry_Int_Tables_number	1
_symmetry_cell_setting	triclinic
loop_
_symmetry_equiv_pos_as_xyz
  x,y,z
_cell_length_a	12.759401
_cell_length_b	18.101397
_cell_length_c	12.759393
_cell_angle_alpha	89.957984
_cell_angle_beta	90.018496
_cell_angle_gamma	89.974726
loop_
_atom_site_label
_atom_site_type_symbol
_atom_site_fract_x
_atom_site_fract_y
_atom_site_fract_z
Zn1	Zn	1.606179	0.294783	0.593905
Zn2	Zn	2.106179	0.794783	1.093905
Zn3	Zn	1.606042	0.418644	0.418193
Zn4	Zn	2.106042	0.918644	0.918193
Zn5	Zn	1.430481	0.294822	0.418244
Zn6	Zn	1.930481	0.794822	0.918244
Zn7	Zn	1.430438	0.418587	0.593835
Zn8	Zn	1.930438	0.918587	1.093835
O9	O	1.518285	0.356709	0.506044
O10	O	2.018285	0.856709	1.006044
O11	O	1.753182	0.311221	0.570604
O12	O	2.253182	0.811221	1.070604
O13	O	1.582714	0.402259	0.271179
O14	O	2.082714	0.902259	0.771179
O15	O	1.453864	0.191183	0.441597
O16	O	1.953864	0.691183	0.941597
O17	O	1.753081	0.402221	0.441510
O18	O	2.253081	0.902221	0.941510
O19	O	1.582948	0.191155	0.570654
O20	O	2.082948	0.691155	1.070654
O21	O	1.453730	0.311287	0.271216
O22	O	1.953730	0.811287	0.771216
O23	O	1.283455	0.311232	0.441529
O24	O	1.783455	0.811232	0.941529
O25	O	1.453790	0.402124	0.740865
O26	O	1.953790	0.902124	1.240865
O27	O	1.283423	0.402162	0.570534
O28	O	1.783423	0.902162	1.070534
O29	O	1.582906	0.311166	0.740917
O30	O	2.082906	0.811166	1.240917
O31	O	1.582672	0.522270	0.441441
O32	O	2.082672	1.022270	0.941441
O33	O	1.453657	0.522228	0.570484
O34	O	1.953657	1.022228	1.070484
C35	C	1.245318	0.356695	0.506030
C36	C	1.745318	0.856695	1.006030
C37	C	1.128541	0.356707	0.506049
C38	C	1.628541	0.856707	1.006049
C39	C	1.518173	0.549120	0.505973
C40	C	2.018173	1.049120	1.005973
C41	C	1.518221	0.631434	0.505977
C42	C	2.018221	1.131434	1.005977
C43	C	1.073690	0.404131	0.573111
C44	C	1.573690	0.904131	1.073111
C45	C	0.963966	0.404140	0.573122
C46	C	1.463966	0.904140	1.073122
C47	C	0.963954	0.309301	0.439001
C48	C	1.463954	0.809301	0.939001
C49	C	1.073676	0.309288	0.438995
C50	C	1.573676	0.809288	0.938995
C51	C	1.128555	0.451550	0.640164
C52	C	1.628555	0.951550	1.140164
C53	C	1.073704	0.498977	0.707231
C54	C	1.573704	0.998977	1.207231
C55	C	0.963980	0.498987	0.707242
C56	C	1.463980	0.998987	1.207242
C57	C	0.909107	0.451568	0.640187
C58	C	1.409107	0.951568	1.140187
C59	C	1.518321	0.930525	0.506041
C60	C	2.018321	1.430525	1.006041
C61	C	1.599271	0.899195	0.424636
C62	C	2.099271	1.399195	0.924636
C63	C	1.599561	0.813576	0.424856
C64	C	2.099561	1.313576	0.924856
C65	C	1.518272	0.782142	0.506008
C66	C	2.018272	1.282142	1.006008
C67	C	1.548286	0.813140	0.616746
C68	C	2.048286	1.313140	1.116746
C69	C	1.548903	0.898785	0.616293
C70	C	2.048903	1.398785	1.116293
C71	C	1.407144	0.899036	0.477669
C72	C	1.907144	1.399036	0.977669
C73	C	1.407703	0.813387	0.475207
C74	C	1.907703	1.313387	0.975207
C75	C	1.518242	0.698283	0.505997
C76	C	2.018242	1.198283	1.005997
C77	C	1.518353	1.014384	0.506059
C78	C	2.018353	1.514384	1.006059
C79	C	1.792318	0.356723	0.506059
C80	C	2.292318	0.856723	1.006059
C81	C	1.909095	0.356729	0.506066
C82	C	2.409095	0.856729	1.006066
C83	C	1.518359	0.356634	0.780078
C84	C	2.018359	0.856634	1.280078
C85	C	1.518390	0.356602	0.896855
C86	C	2.018390	0.856602	1.396855
C87	C	1.518397	1.163547	0.506112
C88	C	2.018397	1.663547	1.006112
C89	C	1.518371	1.081233	0.506072
C90	C	2.018371	1.581233	1.006072
C91	C	1.518272	0.356730	0.233077
C92	C	2.018272	0.856730	0.733077
C93	C	1.518445	0.356553	0.116301
C94	C	2.018445	0.856553	0.616301
C95	C	1.585630	0.309236	0.951745
C96	C	2.085630	0.809236	1.451745
C97	C	1.585655	0.309209	1.061469
C98	C	2.085655	0.809209	1.561469
C99	C	1.451197	0.403922	1.061402
C100	C	1.951197	0.903922	1.561402
C101	C	1.451167	0.403944	0.951680
C102	C	1.951167	0.903944	1.451680
C103	C	1.652853	0.261894	0.896919
C104	C	2.152853	0.761894	1.396919
C105	C	1.720099	0.214524	0.951810
C106	C	2.220099	0.714524	1.451810
C107	C	1.720124	0.214497	1.061534
C108	C	2.220124	0.714497	1.561534
C109	C	1.652903	0.261840	1.116368
C110	C	2.152903	0.761840	1.616368
H111	H	1.217898	0.451549	0.640161
H112	H	1.717898	0.951549	1.140161
H113	H	1.492526	0.919506	0.679036
H114	H	1.992526	1.419506	1.179036
H115	H	1.118337	0.270667	0.384395
H116	H	1.618337	0.770667	0.884395
H117	H	1.774822	0.175974	0.907158
H118	H	2.274822	0.675974	1.407158
H119	H	1.628647	0.791630	0.641190
H120	H	2.128647	1.291630	1.141190
H121	H	1.118389	0.537579	0.761831
H122	H	1.618389	1.037579	1.261831
H123	H	1.580783	0.792622	0.342746
H124	H	2.080783	1.292622	0.842746
H125	H	1.396468	0.442466	1.106056
H126	H	1.896468	0.942466	1.606056
Br127	Br	0.889484	0.244953	0.348003
Br128	Br	1.389484	0.744953	0.848003
H129	H	1.774872	0.175921	1.106224
H130	H	2.274872	0.675921	1.606224
H131	H	1.580715	0.919845	0.342275
H132	H	2.080715	1.419845	0.842275
H133	H	1.630169	0.918701	0.640327
H134	H	2.130169	1.418701	1.140327
Br135	Br	1.652920	0.261790	1.265281
Br136	Br	2.152920	0.761790	1.765281
Br137	Br	0.889541	0.563343	0.798270
Br138	Br	1.389541	1.063343	1.298270
H139	H	0.819762	0.451573	0.640211
H140	H	1.319762	0.951573	1.140211
H141	H	1.396398	0.442503	0.906987
H142	H	1.896398	0.942503	1.406987
Br143	Br	1.735787	0.934969	0.455557
Br144	Br	2.235787	1.434969	0.955557
Br145	Br	1.453021	0.779212	0.720567
Br146	Br	1.953021	1.279212	1.220567
Br147	Br	1.736831	0.779326	0.456155
Br148	Br	2.236831	1.279326	0.956155
H149	H	1.379833	0.920704	0.398316
H150	H	1.879833	1.420704	0.898316
Br151	Br	1.369970	0.779630	0.339380
Br152	Br	1.869970	1.279630	0.839380
Br153	Br	1.301769	0.777737	0.566799
Br154	Br	1.801769	1.277737	1.066799
Br155	Br	1.306616	0.932805	0.576488
Br156	Br	1.806616	1.432805	1.076488
H157	H	1.652842	0.261912	0.807577
H158	H	2.152842	0.761912	1.307577
