data_functionalizedCrystal
_audit_creation_method	'MofGen! by Chris Wilmer'
_symmetry_space_group_name_H-M	'P1'
_symmetry_Int_Tables_number	1
_symmetry_cell_setting	triclinic
loop_
_symmetry_equiv_pos_as_xyz
  x,y,z
_cell_length_a	14.971486
_cell_length_b	14.048226
_cell_length_c	14.971486
_cell_angle_alpha	90.006640
_cell_angle_beta	83.614129
_cell_angle_gamma	90.001501
loop_
_atom_site_label
_atom_site_type_symbol
_atom_site_fract_x
_atom_site_fract_y
_atom_site_fract_z
O1	O	-1.186947	-0.079052	-0.116565
O2	O	-0.926547	-0.079078	-0.130523
O3	O	-1.063726	-0.079057	0.006656
O4	O	-1.049768	-0.079072	-0.253744
O5	O	-1.063710	0.079264	0.006664
O6	O	-0.926530	0.079244	-0.130515
O7	O	-1.186930	0.079270	-0.116556
Zn8	Zn	-1.056728	0.104394	-0.123535
Zn9	Zn	-1.056750	-0.104202	-0.123545
O10	O	-1.049751	0.079249	-0.253736
C11	C	-0.893214	0.000080	-0.129895
C12	C	-0.793917	0.000070	-0.128024
C13	C	-1.063094	0.000103	0.039985
C14	C	-1.061223	0.000102	0.139282
C15	C	-1.220263	0.000110	-0.117185
C16	C	-1.319561	0.000114	-0.119056
C17	C	-0.736692	0.000067	-0.208614
C18	C	-0.643392	0.000081	-0.206850
C19	C	-0.607320	0.000092	-0.124497
C20	C	-0.664552	0.000098	-0.043902
C21	C	-0.757850	0.000090	-0.045666
C22	C	-0.470090	0.000111	-0.040231
C23	C	-0.376786	0.000117	-0.038466
C24	C	-0.355632	0.000102	-0.201415
C25	C	-0.448930	0.000094	-0.203179
C26	C	-0.506156	0.000099	-0.122584
N27	N	-1.056719	0.246754	-0.123527
N28	N	-1.056765	-0.246562	-0.123546
C29	C	-1.117482	0.296581	-0.062809
C30	C	-1.117488	0.396239	-0.062808
C31	C	-1.056735	0.446068	-0.123531
C32	C	-0.995966	0.396234	-0.184252
C33	C	-0.995957	0.296578	-0.184247
C34	C	-0.995992	0.603948	-0.184258
C35	C	-0.996003	0.703611	-0.184264
C36	C	-1.117523	0.703609	-0.062819
C37	C	-1.117514	0.603953	-0.062815
C38	C	-1.056746	0.554126	-0.123537
C39	C	-1.050384	0.000087	-0.287065
C40	C	-1.052254	0.000082	-0.386362
C41	C	-1.141812	0.000111	0.196507
C42	C	-1.140049	0.000101	0.289807
C43	C	-1.057696	0.000089	0.325879
C44	C	-0.977101	0.000078	0.268646
C45	C	-0.978865	0.000081	0.175349
C46	C	-0.973430	0.000074	0.463109
C47	C	-0.971665	0.000073	0.556413
C48	C	-1.134614	0.000094	0.577567
C49	C	-1.136378	0.000097	0.484269
C50	C	-1.055782	0.000088	0.427043
H51	H	-0.766054	0.000057	-0.275675
H52	H	-1.200238	0.000099	0.624165
H53	H	-1.205673	0.000110	0.336396
O54	O	-1.183071	0.757336	0.002680
H55	H	-1.145389	0.802744	0.046229
H56	H	-0.904606	0.000079	0.585780
H57	H	-0.804443	0.000093	0.019958
O58	O	-0.930436	0.550218	-0.249748
H59	H	-0.886916	0.504843	-0.212015
O60	O	-0.337877	0.000149	0.050356
H61	H	-0.295878	-0.064378	0.055068
H62	H	-0.635175	0.000120	0.023152
O63	O	-0.930477	0.757365	-0.249750
H64	H	-0.886992	0.802789	-0.212013
H65	H	-0.907800	0.000064	0.416517
H66	H	-1.203437	0.000114	0.454903
O67	O	-1.183040	0.550209	0.002678
H68	H	-1.145335	0.504815	0.046208
H69	H	-0.946496	0.436810	-0.233690
O70	O	-0.531816	0.000124	0.046696
H71	H	-0.574832	-0.064403	0.049783
H72	H	-0.910047	0.000062	0.298024
O73	O	-0.930426	0.242828	-0.249739
H74	H	-0.888188	0.294217	-0.291971
H75	H	-1.208874	0.000126	0.167145
H76	H	-0.309033	0.000103	-0.267039
O77	O	-0.891945	0.000082	0.113620
H78	H	-0.834382	0.000084	0.154375
H79	H	-1.166957	0.256017	-0.013365
O80	O	-1.183043	0.449973	0.002670
H81	H	-1.171594	0.430852	0.072422
O82	O	-0.581667	0.000078	-0.293771
H83	H	-0.622424	0.000058	-0.351332
O84	O	-0.487843	0.000095	-0.292000
H85	H	-0.432377	0.000107	-0.347747
