data_functionalizedCrystal
_audit_creation_method	'MofGen! by Chris Wilmer'
_symmetry_space_group_name_H-M	'P1'
_symmetry_Int_Tables_number	1
_symmetry_cell_setting	triclinic
loop_
_symmetry_equiv_pos_as_xyz
  x,y,z
_cell_length_a	16.109301
_cell_length_b	16.109301
_cell_length_c	15.186229
_cell_angle_alpha	90.000638
_cell_angle_beta	90.005167
_cell_angle_gamma	83.461481
loop_
_atom_site_label
_atom_site_type_symbol
_atom_site_fract_x
_atom_site_fract_y
_atom_site_fract_z
O1	O	-0.106866	-1.103131	-0.073176
O2	O	0.393134	-0.603131	0.426824
O3	O	-0.120165	-0.861069	-0.073190
O4	O	0.379835	-0.361069	0.426810
O5	O	0.007515	-0.988749	-0.073174
O6	O	0.507515	-0.488749	0.426826
O7	O	-0.234547	-0.975450	-0.073192
O8	O	0.265453	-0.475450	0.426808
O9	O	0.007517	-0.988741	0.073284
O10	O	0.507517	-0.488741	0.573284
O11	O	-0.120164	-0.861060	0.073267
O12	O	0.379836	-0.361060	0.573267
O13	O	-0.106864	-1.103122	0.073282
O14	O	0.393136	-0.603122	0.573282
Zn15	Zn	-0.113514	-0.982090	0.096528
Zn16	Zn	0.386486	-0.482090	0.596528
Zn17	Zn	-0.113516	-0.982101	-0.096436
Zn18	Zn	0.386484	-0.482101	0.403564
O19	O	-0.234545	-0.975441	0.073265
O20	O	0.265455	-0.475441	0.573265
C21	C	-0.119626	-0.830090	0.000037
C22	C	0.380374	-0.330090	0.500037
C23	C	-0.118011	-0.737794	0.000032
C24	C	0.381989	-0.237794	0.500032
C25	C	0.038491	-0.988206	0.000056
C26	C	0.538491	-0.488206	0.500056
C27	C	0.130786	-0.986591	0.000057
C28	C	0.630786	-0.486591	0.500057
C29	C	-0.107404	-1.134101	0.000053
C30	C	0.392596	-0.634101	0.500053
C31	C	-0.109019	-1.226397	0.000052
C32	C	0.390981	-0.726397	0.500052
C33	C	-0.265521	-0.975984	0.000034
C34	C	0.234479	-0.475984	0.500034
C35	C	-0.357816	-0.977600	0.000027
C36	C	0.142184	-0.477600	0.500027
C37	C	0.353059	-1.058599	0.000047
C38	C	0.853059	-0.558599	0.500047
C39	C	0.439779	-1.057075	0.000040
C40	C	0.939779	-0.557075	0.500040
C41	C	0.419905	-0.905586	0.000034
C42	C	0.919905	-0.405586	0.500034
C43	C	0.333186	-0.907111	0.000035
C44	C	0.833186	-0.407111	0.500035
C45	C	0.299766	-0.983620	0.000046
C46	C	0.799766	-0.483620	0.500046
C47	C	0.473205	-0.980571	0.000038
C48	C	0.973205	-0.480571	0.500038
C49	C	0.567231	-0.978918	0.000030
C50	C	1.067231	-0.478918	0.500030
C51	C	0.205734	-0.985273	0.000052
C52	C	0.705734	-0.485273	0.500052
N53	N	-0.113511	-0.982088	0.228220
N54	N	0.386489	-0.482088	0.728220
C55	C	-0.190018	-0.515522	0.000036
C56	C	0.309982	-0.015522	0.500036
C57	C	-0.188494	-0.428801	0.000042
C58	C	0.311506	0.071199	0.500042
C59	C	-0.037006	-0.448676	0.000050
C60	C	0.462994	0.051324	0.500050
C61	C	-0.038530	-0.535394	0.000051
C62	C	0.461470	-0.035394	0.500051
C63	C	-0.115039	-0.568815	0.000039
C64	C	0.384961	-0.068815	0.500039
C65	C	-0.111990	-0.395376	0.000045
C66	C	0.388010	0.104624	0.500045
C67	C	-0.110337	-0.301350	0.000051
C68	C	0.389663	0.198650	0.500051
C69	C	-0.116693	-0.662847	0.000035
C70	C	0.383307	-0.162847	0.500035
N71	N	-0.113512	-0.982109	-0.228129
N72	N	0.386488	-0.482109	0.271871
C73	C	-0.056994	-1.038644	0.453950
C74	C	0.443006	-0.538644	0.953950
C75	C	-0.056992	-1.038647	0.546140
C76	C	0.443008	-0.538647	1.046140
C77	C	-0.170032	-0.925547	0.546135
C78	C	0.329968	-0.425547	1.046135
C79	C	-0.170030	-0.925541	0.453947
C80	C	0.329970	-0.425541	0.953947
C81	C	-0.113511	-0.982094	0.407857
C82	C	0.386489	-0.482094	0.907857
C83	C	-0.113512	-0.982103	0.592235
C84	C	0.386488	-0.482103	1.092235
C85	C	-0.113510	-0.982105	0.692191
C86	C	0.386490	-0.482105	1.192191
C87	C	-0.113512	-0.982091	0.307894
C88	C	0.386488	-0.482091	0.807894
H89	H	0.325851	-1.120897	0.000054
H90	H	0.825851	-0.620897	0.500054
H91	H	-0.216049	-0.879503	0.583670
H92	H	0.283951	-0.379503	1.083670
N93	N	-0.269377	-0.371341	0.000074
N94	N	0.230623	0.128659	0.500074
H95	H	-0.302774	-0.382082	-0.054210
H96	H	0.197226	0.117918	0.445790
H97	H	-0.256758	-0.311350	0.000124
H98	H	0.243242	0.188650	0.500124
N99	N	0.275693	-0.826240	0.000044
N100	N	0.775693	-0.326240	0.500044
H101	H	0.239266	-0.823499	-0.054247
H102	H	0.739266	-0.323499	0.445753
H103	H	0.310077	-0.777585	0.000079
H104	H	0.810077	-0.277585	0.500079
H105	H	0.447127	-0.843295	0.000027
H106	H	0.947127	-0.343295	0.500027
N107	N	-0.272534	-0.551571	0.000023
N108	N	0.227466	-0.051571	0.500023
H109	H	-0.319801	-0.504647	0.000023
H110	H	0.180199	-0.004647	0.500023
H111	H	-0.276466	-0.587119	0.054315
H112	H	0.223534	-0.087119	0.554315
H113	H	0.025285	-0.421454	0.000065
H114	H	0.525285	0.078546	0.500065
H115	H	0.483168	-1.118130	0.000039
H116	H	0.983168	-0.618130	0.500039
N117	N	-0.230984	-0.864538	0.404223
N118	N	0.269016	-0.364538	0.904223
H119	H	-0.266791	-0.828716	0.447408
H120	H	0.233209	-0.328716	0.947408
H121	H	-0.267748	-0.896349	0.365962
H122	H	0.232252	-0.396349	0.865962
N123	N	0.042343	-0.592883	0.000064
N124	N	0.542343	-0.092883	0.500064
H125	H	0.091043	-0.558554	0.000067
H126	H	0.591043	-0.058554	0.500067
H127	H	0.045010	-0.629301	-0.054226
H128	H	0.545010	-0.129301	0.445774
N129	N	0.003963	-1.099637	0.404237
N130	N	0.503963	-0.599637	0.904237
H131	H	0.039768	-1.135460	0.447430
H132	H	0.539768	-0.635460	0.947430
H133	H	0.040729	-1.067817	0.365995
H134	H	0.540729	-0.567817	0.865995
H135	H	-0.010969	-1.084694	0.583667
H136	H	0.489031	-0.584694	1.083667
