data_functionalizedCrystal
_audit_creation_method	'MofGen! by Chris Wilmer'
_symmetry_space_group_name_H-M	'P1'
_symmetry_Int_Tables_number	1
_symmetry_cell_setting	triclinic
loop_
_symmetry_equiv_pos_as_xyz
  x,y,z
_cell_length_a	19.805407
_cell_length_b	18.101395
_cell_length_c	19.805399
_cell_angle_alpha	89.974882
_cell_angle_beta	89.980427
_cell_angle_gamma	90.031104
loop_
_atom_site_label
_atom_site_type_symbol
_atom_site_fract_x
_atom_site_fract_y
_atom_site_fract_z
Zn1	Zn	1.034714	-0.294847	-0.382731
Zn2	Zn	1.534714	0.205153	0.117269
Zn3	Zn	1.034619	-0.418690	-0.269548
Zn4	Zn	1.534619	0.081310	0.230452
Zn5	Zn	0.921528	-0.294867	-0.269556
Zn6	Zn	1.421528	0.205133	0.230444
Zn7	Zn	0.921482	-0.418651	-0.382695
Zn8	Zn	1.421482	0.081349	0.117305
O9	O	0.978086	-0.356764	-0.326132
O10	O	1.478086	0.143236	0.173868
O11	O	1.129418	-0.311283	-0.367729
O12	O	1.629418	0.188717	0.132271
O13	O	1.019597	-0.402290	-0.174832
O14	O	1.519597	0.097710	0.325168
O15	O	0.936601	-0.191232	-0.284587
O16	O	1.436601	0.308768	0.215413
O17	O	1.129348	-0.402270	-0.284574
O18	O	1.629348	0.097730	0.215426
O19	O	1.019758	-0.191217	-0.367737
O20	O	1.519758	0.308783	0.132263
O21	O	0.936510	-0.311318	-0.174838
O22	O	1.436510	0.188682	0.325162
O23	O	0.826806	-0.311279	-0.284552
O24	O	1.326806	0.188721	0.215448
O25	O	0.936523	-0.402203	-0.477416
O26	O	1.436523	0.097797	0.022584
O27	O	0.826772	-0.402223	-0.367674
O28	O	1.326772	0.097777	0.132326
O29	O	1.019714	-0.311245	-0.477443
O30	O	1.519714	0.188755	0.022557
O31	O	1.019553	-0.522318	-0.284538
O32	O	1.519553	-0.022318	0.215462
O33	O	0.936432	-0.522289	-0.367667
O34	O	1.436432	-0.022289	0.132333
C35	C	0.802230	-0.356750	-0.326110
C36	C	1.302230	0.143250	0.173890
C37	C	0.726998	-0.356761	-0.326117
C38	C	1.226998	0.143239	0.173883
C39	C	0.977995	-0.549174	-0.326112
C40	C	1.477995	-0.049174	0.173888
C41	C	0.978018	-0.631489	-0.326127
C42	C	1.478018	-0.131489	0.173873
C43	C	0.691654	-0.404187	-0.369329
C44	C	1.191654	0.095813	0.130671
C45	C	0.620965	-0.404188	-0.369339
C46	C	1.120965	0.095812	0.130661
C47	C	0.585622	-0.356767	-0.326132
C48	C	1.085622	0.143233	0.173868
C49	C	0.620971	-0.309336	-0.282919
C50	C	1.120971	0.190664	0.217081
C51	C	0.691658	-0.309332	-0.282913
C52	C	1.191658	0.190668	0.217087
C53	C	0.335898	-0.309353	-0.282941
C54	C	0.835898	0.190647	0.217059
C55	C	0.265206	-0.309363	-0.282948
C56	C	0.765206	0.190637	0.217052
C57	C	0.265205	-0.404209	-0.369367
C58	C	0.765205	0.095791	0.130633
C59	C	0.335892	-0.404205	-0.369361
C60	C	0.835892	0.095795	0.130639
C61	C	0.371235	-0.356771	-0.326150
C62	C	0.871235	0.143229	0.173850
C63	C	0.447883	-0.356770	-0.326141
C64	C	0.947883	0.143230	0.173859
C65	C	0.508975	-0.356772	-0.326137
C66	C	1.008975	0.143228	0.173863
C67	C	0.978167	-0.930579	-0.326163
C68	C	1.478167	-0.430579	0.173837
C69	C	0.925991	-0.899267	-0.378595
C70	C	1.425991	-0.399267	0.121405
C71	C	0.925743	-0.813649	-0.378431
C72	C	1.425743	-0.313649	0.121569
C73	C	0.978093	-0.782197	-0.326146
C74	C	1.478093	-0.282197	0.173854
C75	C	0.958782	-0.813345	-0.254811
C76	C	1.458782	-0.313345	0.245189
C77	C	0.958446	-0.898990	-0.255125
C78	C	1.458446	-0.398990	0.244875
C79	C	1.049768	-0.898924	-0.344438
C80	C	1.549768	-0.398924	0.155562
C81	C	1.049347	-0.813273	-0.346002
C82	C	1.549347	-0.313273	0.153998
C83	C	0.978053	-0.698337	-0.326131
C84	C	1.478053	-0.198337	0.173869
C85	C	0.978206	-1.014439	-0.326173
C86	C	1.478206	-0.514439	0.173827
C87	C	1.154629	-0.356779	-0.326155
C88	C	1.654629	0.143221	0.173845
C89	C	1.229861	-0.356785	-0.326164
C90	C	1.729861	0.143215	0.173836
C91	C	0.978124	-0.356717	-0.502675
C92	C	1.478124	0.143283	-0.002675
C93	C	0.978140	-0.356697	-0.577907
C94	C	1.478140	0.143303	-0.077907
C95	C	0.978195	-0.163602	-0.326167
C96	C	1.478195	0.336398	0.173833
C97	C	0.978242	-0.081288	-0.326182
C98	C	1.478242	0.418712	0.173818
C99	C	1.021458	-0.309333	-0.613266
C100	C	1.521458	0.190667	-0.113266
C101	C	1.021465	-0.309311	-0.683955
C102	C	1.521465	0.190689	-0.183955
C103	C	0.978157	-0.356659	-0.719283
C104	C	1.478157	0.143341	-0.219283
C105	C	0.934834	-0.404025	-0.683919
C106	C	1.434834	0.095975	-0.183919
C107	C	0.934824	-0.404042	-0.613231
C108	C	1.434824	0.095958	-0.113231
C109	C	0.934872	-0.403956	-0.968992
C110	C	1.434872	0.096044	-0.468992
C111	C	0.934887	-0.403937	-1.039684
C112	C	1.434887	0.096063	-0.539684
C113	C	1.021513	-0.309225	-1.039716
C114	C	1.521513	0.190775	-0.539716
C115	C	1.021503	-0.309242	-0.969028
C116	C	1.521503	0.190758	-0.469028
C117	C	0.978178	-0.356606	-0.933670
C118	C	1.478178	0.143394	-0.433670
C119	C	0.978170	-0.356628	-0.857022
C120	C	1.478170	0.143372	-0.357022
C121	C	0.978168	-0.356641	-0.795930
C122	C	1.478168	0.143359	-0.295930
C123	C	0.978087	-0.356757	-0.150276
C124	C	1.478087	0.143243	0.349724
C125	C	0.978202	-0.356568	-0.075045
C126	C	1.478202	0.143432	0.424955
H127	H	0.720425	-0.442805	-0.404510
H128	H	1.220425	0.057195	0.095490
Cl129	Cl	0.380320	-0.249720	-0.228620
Cl130	Cl	0.880320	0.250280	0.271380
H131	H	0.994801	-0.919706	-0.214727
H132	H	1.494801	-0.419706	0.285273
Cl133	Cl	0.880437	-0.463463	-1.084096
Cl134	Cl	1.380437	0.036537	-0.584096
Cl135	Cl	0.880362	-0.463586	-0.568780
Cl136	Cl	1.380362	0.036414	-0.068780
Cl137	Cl	0.880386	-0.463545	-0.728331
Cl138	Cl	1.380386	0.036455	-0.228331
Cl139	Cl	1.076951	-0.932193	-0.423381
Cl140	Cl	1.576951	-0.432193	0.076619
H141	H	0.592189	-0.270722	-0.247742
H142	H	1.092189	0.229278	0.252258
H143	H	0.873241	-0.920853	-0.366642
H144	H	1.373241	-0.420853	0.133358
H145	H	0.906106	-0.919033	-0.239644
H146	H	1.406106	-0.419033	0.260356
H147	H	0.720435	-0.270709	-0.247729
H148	H	1.220435	0.229291	0.252271
Cl149	Cl	1.071834	-0.781838	-0.427056
Cl150	Cl	1.571834	-0.281838	0.072944
H151	H	0.899604	-0.442533	-0.940212
H152	H	1.399604	0.057467	-0.440212
H153	H	0.937825	-0.792587	-0.431325
H154	H	1.437825	-0.292587	0.068675
Cl155	Cl	0.220775	-0.249741	-0.228629
Cl156	Cl	0.720775	0.250259	0.271371
Cl157	Cl	0.576536	-0.463812	-0.423665
Cl158	Cl	1.076536	0.036188	0.076335
H159	H	0.872670	-0.793225	-0.366326
H160	H	1.372670	-0.293225	0.133674
Cl161	Cl	1.015608	-0.781895	-0.192848
Cl162	Cl	1.515608	-0.281895	0.307152
Cl163	Cl	1.109789	-0.930201	-0.285490
Cl164	Cl	1.609789	-0.430201	0.214510
H165	H	0.937953	-0.919817	-0.431660
H166	H	1.437953	-0.419817	0.068340
H167	H	1.090278	-0.791859	-0.310597
H168	H	1.590278	-0.291859	0.189403
Cl169	Cl	0.878827	-0.780334	-0.230481
Cl170	Cl	1.378827	-0.280334	0.269519
Cl171	Cl	1.075955	-0.249797	-0.728404
Cl172	Cl	1.575955	0.250203	-0.228404
Cl173	Cl	0.380320	-0.463825	-0.423677
Cl174	Cl	0.880320	0.036175	0.076323
Cl175	Cl	1.075978	-0.249679	-1.084170
Cl176	Cl	1.575978	0.250321	-0.584170
H177	H	1.056727	-0.270779	-0.584508
H178	H	1.556727	0.229221	-0.084508
Cl179	Cl	1.075952	-0.249720	-0.924620
Cl180	Cl	1.575952	0.250280	-0.424620
H181	H	0.236420	-0.442829	-0.404554
H182	H	0.736420	0.057171	0.095446
