data_functionalizedCrystal
_audit_creation_method	'MofGen! by Chris Wilmer'
_symmetry_space_group_name_H-M	'P1'
_symmetry_Int_Tables_number	1
_symmetry_cell_setting	triclinic
loop_
_symmetry_equiv_pos_as_xyz
  x,y,z
_cell_length_a	33.510554
_cell_length_b	33.509711
_cell_length_c	33.506470
_cell_angle_alpha	60.004186
_cell_angle_beta	60.008358
_cell_angle_gamma	59.994760
loop_
_atom_site_label
_atom_site_type_symbol
_atom_site_fract_x
_atom_site_fract_y
_atom_site_fract_z
O1	O	0.055430	-0.583081	0.487524
O2	O	0.555430	-0.083081	0.987524
O3	O	0.020931	-0.453975	0.392819
O4	O	0.520931	0.046025	0.892819
O5	O	0.102693	-0.535652	0.392731
O6	O	0.602693	-0.035652	0.892731
O7	O	-0.026332	-0.501404	0.487613
O8	O	0.473668	-0.001404	0.987613
O9	O	0.129823	-0.508526	0.419767
O10	O	0.629823	-0.008526	0.919767
O11	O	0.048062	-0.426850	0.419856
O12	O	0.548062	0.073150	0.919856
O13	O	0.082561	-0.555956	0.514561
O14	O	0.582561	-0.055956	1.014561
Cu15	Cu	0.067789	-0.488926	0.469677
Cu16	Cu	0.567789	0.011074	0.969677
Cu17	Cu	0.035703	-0.521005	0.437703
Cu18	Cu	0.535703	-0.021005	0.937703
O19	O	0.000799	-0.474279	0.514649
O20	O	0.500799	0.025721	1.014649
N21	N	0.090357	-0.466366	0.492168
N22	N	0.590357	0.033634	0.992168
N23	N	0.013139	-0.543569	0.415212
N24	N	0.513139	-0.043569	0.915212
C25	C	0.143028	-0.279707	0.544737
C26	C	0.643028	0.220293	1.044737
C27	C	0.143165	-0.413746	0.678712
C28	C	0.643165	0.086254	1.178712
C29	C	0.143043	-0.413725	0.544739
C30	C	0.643043	0.086275	1.044739
C31	C	0.277090	-0.413694	0.544637
C32	C	0.777090	0.086306	1.044637
C33	C	0.157791	-0.323929	0.559462
C34	C	0.657791	0.176071	1.059462
C35	C	0.157869	-0.398994	0.634489
C36	C	0.657869	0.101006	1.134489
C37	C	0.232865	-0.398963	0.559407
C38	C	0.732865	0.101037	1.059407
C39	C	0.157801	-0.398982	0.559463
C40	C	0.657801	0.101018	1.059463
C41	C	0.124237	-0.223419	0.525994
C42	C	0.624237	0.276581	1.025994
C43	C	0.124262	-0.432490	0.525997
C44	C	0.624262	0.067510	1.025997
C45	C	0.176583	-0.380217	0.578205
C46	C	0.676583	0.119783	1.078205
C47	C	0.358938	-0.399566	0.501510
C48	C	0.858938	0.100434	1.001510
C49	C	0.410104	-0.416609	0.484423
C50	C	0.910104	0.083391	0.984423
C51	C	0.410135	-0.499402	0.515995
C52	C	0.910135	0.000598	1.015995
C53	C	0.358969	-0.482358	0.533084
C54	C	0.858969	0.017642	1.033084
C55	C	0.136554	-0.197822	0.475693
C56	C	0.636554	0.302178	0.975693
C57	C	0.119469	-0.146653	0.458657
C58	C	0.619469	0.353347	0.958657
C59	C	0.077755	-0.146680	0.542223
C60	C	0.577755	0.353320	1.042223
C61	C	0.094840	-0.197850	0.559260
C62	C	0.594840	0.302150	1.059260
C63	C	0.073954	-0.420144	0.538396
C64	C	0.573954	0.079856	1.038396
C65	C	0.056884	-0.437203	0.521352
C66	C	0.556884	0.062797	1.021352
C67	C	0.140427	-0.478952	0.479524
C68	C	0.640427	0.021048	0.979524
C69	C	0.157498	-0.461894	0.496561
C70	C	0.657498	0.038106	0.996561
C71	C	0.074158	-0.420182	0.760618
C72	C	0.574158	0.079818	1.260618
C73	C	0.057149	-0.437256	0.811786
C74	C	0.557149	0.062744	1.311786
C75	C	0.140732	-0.479014	0.811717
C76	C	0.640732	0.020986	1.311717
C77	C	0.157740	-0.461942	0.760547
C78	C	0.657740	0.038058	1.260547
C79	C	0.124452	-0.432525	0.734999
C80	C	0.624452	0.067475	1.234999
C81	C	0.333372	-0.432439	0.525839
C82	C	0.833372	0.067561	1.025839
C83	C	-0.020612	-0.577650	0.170305
C84	C	0.479388	-0.077650	0.670305
C85	C	-0.020943	-0.788098	0.380897
C86	C	0.479057	-0.288098	0.880897
C87	C	-0.020912	-0.577638	0.380991
C88	C	0.479088	-0.077638	0.880991
C89	C	-0.231336	-0.577418	0.380585
C90	C	0.268664	-0.077418	0.880585
C91	C	-0.129735	-0.611383	0.346870
C92	C	0.370265	-0.111383	0.846870
C93	C	-0.054722	-0.611464	0.347017
C94	C	0.445278	-0.111464	0.847017
C95	C	-0.073450	-0.630202	0.328195
C96	C	0.426550	-0.130202	0.828195
C97	C	-0.087616	-0.712029	0.371239
C98	C	0.412384	-0.212029	0.871239
C99	C	-0.070599	-0.763199	0.388315
C100	C	0.429401	-0.263199	0.888315
C101	C	0.012191	-0.763282	0.356872
C102	C	0.512191	-0.263282	0.856872
C103	C	-0.004828	-0.712113	0.339795
C104	C	0.495172	-0.212113	0.839795
C105	C	-0.155381	-0.623711	0.397158
C106	C	0.344619	-0.123711	0.897158
C107	C	-0.206547	-0.606601	0.414133
C108	C	0.293453	-0.106601	0.914133
C109	C	-0.206417	-0.564839	0.330529
C110	C	0.293583	-0.064839	0.830529
C111	C	-0.155251	-0.581949	0.313554
C112	C	0.344749	-0.081949	0.813554
C113	C	-0.067051	-0.561160	0.334643
C114	C	0.432949	-0.061160	0.834643
C115	C	-0.050026	-0.544131	0.351759
C116	C	0.449974	-0.044131	0.851759
C117	C	-0.008343	-0.627704	0.393612
C118	C	0.491657	-0.127704	0.893612
C119	C	-0.025368	-0.644736	0.376502
C120	C	0.474632	-0.144736	0.876502
C121	C	-0.066922	-0.561168	0.246303
C122	C	0.433078	-0.061168	0.746303
C123	C	-0.049794	-0.544141	0.195134
C124	C	0.450206	-0.044141	0.695134
C125	C	-0.008048	-0.627719	0.195183
C126	C	0.491952	-0.127719	0.695183
C127	C	-0.025175	-0.644745	0.246352
C128	C	0.474825	-0.144745	0.746352
C129	C	-0.054614	-0.611468	0.271911
C130	C	0.445386	-0.111468	0.771911
C131	C	-0.054732	-0.686488	0.346980
C132	C	0.445268	-0.186488	0.846980
C133	C	-0.002117	-0.558258	0.114025
C134	C	0.497883	-0.058258	0.614025
C135	C	-0.002879	-0.844379	0.399940
C136	C	0.497121	-0.344379	0.899940
C137	C	-0.002504	-0.558243	0.399473
C138	C	0.497496	-0.058243	0.899473
C139	C	-0.287615	-0.558285	0.398601
C140	C	0.212385	-0.058285	0.898601
N141	N	0.434975	-0.466279	0.491900
N142	N	0.934975	0.033721	0.991900
O143	O	0.591199	-0.470749	0.375150
O144	O	1.091199	0.029251	0.875150
O145	O	0.591395	-0.565767	0.504116
O146	O	1.091395	-0.065767	1.004116
O147	O	0.591311	-0.565550	0.422329
O148	O	1.091311	-0.065550	0.922329
O149	O	0.591283	-0.470966	0.456937
O150	O	1.091283	0.029034	0.956937
O151	O	0.510024	-0.538522	0.449509
O152	O	1.010024	-0.038522	0.949509
O153	O	0.510108	-0.538739	0.531297
O154	O	1.010108	-0.038739	1.031297
O155	O	0.509913	-0.443721	0.402330
O156	O	1.009913	0.056279	0.902330
Cu157	Cu	0.502588	-0.488762	0.469295
Cu158	Cu	1.002588	0.011238	0.969295
Cu159	Cu	0.598719	-0.520726	0.437151
Cu160	Cu	1.098719	-0.020726	0.937151
O161	O	0.509997	-0.443938	0.484117
O162	O	1.009997	0.056062	0.984117
N163	N	0.666332	-0.543209	0.414541
N164	N	1.166332	-0.043209	0.914541
N165	N	0.090323	-0.121809	0.492157
N166	N	0.590323	0.378191	0.992157
O167	O	-0.026342	0.034503	0.487582
O168	O	0.473658	0.534503	0.987582
O169	O	0.102626	0.034543	0.392540
O170	O	0.602626	0.534543	0.892540
O171	O	0.020797	0.034507	0.392812
O172	O	0.520797	0.534507	0.892812
O173	O	0.055487	0.034539	0.487310
O174	O	0.555487	0.534539	0.987310
O175	O	0.047933	-0.046785	0.419900
O176	O	0.547933	0.453215	0.919900
O177	O	0.129763	-0.046749	0.419628
O178	O	0.629763	0.453251	0.919628
O179	O	0.000794	-0.046789	0.514670
O180	O	0.500794	0.453211	1.014670
Cu181	Cu	0.067756	-0.054192	0.469623
Cu182	Cu	0.567756	0.445808	0.969623
Cu183	Cu	0.035664	0.041946	0.437588
Cu184	Cu	0.535664	0.541946	0.937588
O185	O	0.082623	-0.046753	0.514399
O186	O	0.582623	0.453247	1.014399
N187	N	0.013091	0.109564	0.415054
N188	N	0.513091	0.609564	0.915054
N189	N	0.090671	-0.466416	0.836606
N190	N	0.590671	0.033584	1.336606
O191	O	0.086120	-0.583065	0.992910
O192	O	0.586120	-0.083065	1.492910
O193	O	-0.008880	-0.454051	0.992954
O194	O	0.491120	0.045949	1.492954
O195	O	-0.008658	-0.535864	0.992931
O196	O	0.491342	-0.035864	1.492931
O197	O	0.085897	-0.501252	0.992933
O198	O	0.585897	-0.001252	1.492933
O199	O	0.018407	-0.508749	0.911642
O200	O	0.518407	-0.008749	1.411642
O201	O	0.018185	-0.426936	0.911665
O202	O	0.518185	0.073064	1.411665
O203	O	0.113185	-0.555949	0.911621
O204	O	0.613185	-0.055949	1.411621
Cu205	Cu	0.068156	-0.488967	0.904221
Cu206	Cu	0.568156	0.011033	1.404221
Cu207	Cu	0.036148	-0.521034	1.000355
Cu208	Cu	0.536148	-0.021034	1.500355
O209	O	0.112963	-0.474136	0.911644
O210	O	0.612963	0.025864	1.411644
N211	N	0.013633	-0.543590	1.067970
N212	N	0.513633	-0.043590	1.567970
C213	C	0.031262	-0.424144	0.393290
C214	C	0.531262	0.075856	0.893290
C215	C	0.132513	-0.525291	0.393180
C216	C	0.632513	-0.025291	0.893180
C217	C	0.072229	-0.585787	0.514090
C218	C	0.572229	-0.085787	1.014090
C219	C	-0.029022	-0.484640	0.514200
C220	C	0.470978	0.015360	1.014200
C221	C	0.550775	-0.565338	0.533954
C222	C	1.050775	-0.065338	1.033954
C223	C	0.550672	-0.565070	0.432670
C224	C	1.050672	-0.065070	0.932670
C225	C	0.550530	-0.444149	0.372492
C226	C	1.050530	0.055851	0.872492
C227	C	0.550635	-0.444418	0.473776
C228	C	1.050635	0.055582	0.973776
C229	C	0.132408	-0.005998	0.392963
C230	C	0.632408	0.494002	0.892963
C231	C	0.031106	-0.006142	0.393333
C232	C	0.531106	0.493858	0.893333
C233	C	-0.029021	-0.006147	0.514213
C234	C	0.470979	0.493853	1.014213
C235	C	0.072314	-0.006104	0.513878
C236	C	0.572314	0.493896	1.013878
C237	C	-0.008430	-0.424240	0.952316
C238	C	0.491570	0.075760	1.452316
C239	C	-0.008150	-0.525550	0.952271
C240	C	0.491850	-0.025550	1.452271
C241	C	0.112735	-0.585760	0.952260
C242	C	0.612735	-0.085760	1.452260
C243	C	0.112461	-0.484444	0.952286
C244	C	0.612461	0.015556	1.452286
H245	H	0.016194	-0.427197	0.832639
H246	H	0.516194	0.072803	1.332639
H247	H	0.129496	-0.125810	0.417697
H248	H	0.629496	0.374190	0.917697
H249	H	0.079602	-0.622875	0.543835
H250	H	0.579602	-0.122875	1.043835
H251	H	0.023891	-0.387055	0.363546
H252	H	0.523891	0.112945	0.863546
O253	O	-0.073251	-0.475990	0.549732
O254	O	0.426749	0.024010	1.049732
C255	C	-0.094915	-0.509569	0.562909
C256	C	0.405085	-0.009569	1.062909
H257	H	-0.078754	-0.523828	0.531555
H258	H	0.421246	-0.023828	1.031555
H259	H	-0.087471	-0.541425	0.596873
H260	H	0.412529	-0.041425	1.096873
C261	C	-0.170314	-0.466440	0.612284
C262	C	0.329686	0.033560	1.112284
C263	C	-0.150468	-0.483951	0.573773
C264	C	0.349532	0.016049	1.073773
H265	H	-0.204583	-0.450639	0.618988
H266	H	0.295417	0.049361	1.118988
H267	H	-0.155719	-0.443818	0.603408
H268	H	0.344281	0.056182	1.103408
H269	H	-0.164106	-0.492991	0.640583
H270	H	0.335894	0.007009	1.140583
H271	H	-0.156671	-0.457399	0.545473
H272	H	0.343329	0.042601	1.045473
H273	H	-0.165066	-0.506567	0.582644
H274	H	0.334934	-0.006567	1.082644
H275	H	0.338156	-0.509129	0.552896
H276	H	0.838156	-0.009129	1.052896
H277	H	0.430973	-0.540048	0.521891
H278	H	0.930973	-0.040048	1.021891
O279	O	-0.073171	-0.006243	0.549851
O280	O	0.426829	0.493757	1.049851
C281	C	-0.066699	-0.048335	0.591037
C282	C	0.433301	0.451665	1.091037
H283	H	-0.030909	-0.077757	0.579251
H284	H	0.469091	0.422243	1.079251
H285	H	-0.065556	-0.038807	0.618613
H286	H	0.434444	0.461193	1.118613
C287	C	-0.153476	-0.031303	0.629172
C288	C	0.346524	0.468697	1.129172
C289	C	-0.109521	-0.067441	0.614695
C290	C	0.390479	0.432559	1.114695
H291	H	-0.179892	-0.043088	0.643767
H292	H	0.320108	0.456912	1.143767
H293	H	-0.157837	-0.002944	0.601425
H294	H	0.342163	0.497056	1.101425
H295	H	-0.152517	-0.023366	0.652149
H296	H	0.347483	0.476634	1.152149
H297	H	-0.110478	-0.075373	0.591714
H298	H	0.389522	0.424627	1.091714
H299	H	-0.105161	-0.095802	0.642439
H300	H	0.394839	0.404198	1.142439
O301	O	0.550647	-0.408923	0.482517
O302	O	1.050647	0.091077	0.982517
C303	C	0.550565	-0.366727	0.440565
C304	C	1.050565	0.133273	0.940565
H305	H	0.565924	-0.377388	0.406956
H306	H	1.065924	0.122612	0.906956
H307	H	0.511550	-0.340170	0.444552
H308	H	1.011550	0.159830	0.944552
C309	C	0.563566	-0.329010	0.476030
C310	C	1.063566	0.170990	0.976030
C311	C	0.582434	-0.342106	0.434751
C312	C	1.082434	0.157894	0.934751
H313	H	0.583222	-0.313821	0.472444
H314	H	1.083222	0.186179	0.972444
H315	H	0.563619	-0.357438	0.504295
H316	H	1.063619	0.142562	1.004295
H317	H	0.531054	-0.306882	0.479348
H318	H	1.031054	0.193118	0.979348
H319	H	0.614943	-0.364238	0.431437
H320	H	1.114943	0.135762	0.931437
H321	H	0.582387	-0.313681	0.406485
H322	H	1.082387	0.186319	0.906485
O323	O	0.550620	-0.600536	0.423919
O324	O	1.050620	-0.100536	0.923919
C325	C	0.508552	-0.613720	0.457447
C326	C	1.008552	-0.113720	0.957447
H327	H	0.494543	-0.603990	0.491327
H328	H	0.994543	-0.103990	0.991327
H329	H	0.479037	-0.593106	0.439765
H330	H	0.979037	-0.093106	0.939765
C331	C	0.538597	-0.681063	0.430580
C332	C	1.038597	-0.181063	0.930580
C333	C	0.521394	-0.669116	0.472193
C334	C	1.021394	-0.169116	0.972193
H335	H	0.546517	-0.715233	0.439675
H336	H	1.046517	-0.215233	0.939675
H337	H	0.566938	-0.672179	0.407990
H338	H	1.066938	-0.172179	0.907990
H339	H	0.513999	-0.663880	0.415849
H340	H	1.013999	-0.163880	0.915849
H341	H	0.545994	-0.686293	0.486920
H342	H	1.045994	-0.186293	0.986920
H343	H	0.493057	-0.678003	0.494786
H344	H	0.993057	-0.178003	0.994786
O345	O	0.550478	-0.408618	0.328274
O346	O	1.050478	0.091382	0.828274
C347	C	0.550443	-0.426212	0.297869
C348	C	1.050443	0.073788	0.797869
H349	H	0.565878	-0.467846	0.311081
H350	H	1.065878	0.032154	0.811081
H351	H	0.511432	-0.413822	0.299237
H352	H	1.011432	0.086178	0.799237
C353	C	0.563293	-0.354794	0.228736
C354	C	1.063293	0.145206	0.728736
C355	C	0.582255	-0.405929	0.244961
C356	C	1.082255	0.094071	0.744961
H357	H	0.582914	-0.342281	0.196099
H358	H	1.082914	0.157719	0.696099
H359	H	0.563314	-0.342939	0.249221
H360	H	1.063314	0.157061	0.749221
H361	H	0.530785	-0.344475	0.229880
H362	H	1.030785	0.155525	0.729880
H363	H	0.614760	-0.416247	0.243823
H364	H	1.114760	0.083753	0.743823
H365	H	0.582239	-0.417785	0.224475
H366	H	1.082239	0.082215	0.724475
H367	H	0.053825	-0.125861	0.569312
H368	H	0.553825	0.374139	1.069312
H369	H	0.169370	-0.005761	0.363053
H370	H	0.669370	0.494239	0.863053
H371	H	0.550826	-0.595166	0.570996
H372	H	1.050826	-0.095166	1.070996
O373	O	0.022178	-0.006188	0.357978
O374	O	0.522178	0.493812	0.857978
C375	C	-0.025868	-0.006200	0.375804
C376	C	0.474132	0.493800	0.875804
H377	H	-0.038704	-0.021578	0.417437
H378	H	0.461296	0.478422	0.917437
H379	H	-0.051173	0.032791	0.363441
H380	H	0.448827	0.532791	0.863441
C381	C	-0.011060	-0.019223	0.304602
C382	C	0.488940	0.480777	0.804602
C383	C	-0.026825	-0.038115	0.355737
C384	C	0.473175	0.461885	0.855737
H385	H	-0.011651	-0.038908	0.292223
H386	H	0.488349	0.461092	0.792223
H387	H	0.021309	-0.019213	0.292591
H388	H	0.521309	0.480787	0.792591
H389	H	-0.032150	0.013269	0.294307
H390	H	0.467850	0.513269	0.794307
H391	H	-0.005731	-0.070604	0.366031
H392	H	0.494269	0.429396	0.866031
H393	H	-0.059190	-0.038131	0.367749
H394	H	0.440810	0.461869	0.867749
O395	O	0.081265	-0.006125	0.549255
O396	O	0.581265	0.493875	1.049255
C397	C	0.129305	-0.006098	0.531424
C398	C	0.629305	0.493902	1.031424
H399	H	0.152410	-0.021479	0.500042
H400	H	0.652410	0.478521	1.000042
H401	H	0.128574	0.032905	0.517792
H402	H	0.628574	0.532905	1.017792
C403	C	0.123182	-0.019090	0.611295
C404	C	0.623182	0.480910	1.111295
C405	C	0.151560	-0.037984	0.572755
C406	C	0.651560	0.462016	1.072755
H407	H	0.136909	-0.038756	0.636790
H408	H	0.636909	0.461244	1.136790
H409	H	0.090815	-0.019106	0.623308
H410	H	0.590815	0.480894	1.123308
H411	H	0.122575	0.013413	0.599929
H412	H	0.622575	0.513413	1.099929
H413	H	0.152162	-0.070483	0.584119
H414	H	0.652162	0.429517	1.084119
H415	H	0.183927	-0.037974	0.560744
H416	H	0.683927	0.462026	1.060744
O417	O	-0.043967	-0.380018	0.952353
O418	O	0.456033	0.119982	1.452353
C419	C	-0.026370	-0.349596	0.952346
C420	C	0.473630	0.150404	1.452346
H421	H	0.005014	-0.373098	0.967727
H422	H	0.505014	0.126902	1.467727
H423	H	-0.012813	-0.324907	0.913351
H424	H	0.487187	0.175093	1.413351
C425	C	-0.106403	-0.289103	0.965348
C426	C	0.393597	0.210897	1.465348
C427	C	-0.067859	-0.317969	0.984243
C428	C	0.432141	0.182031	1.484243
H429	H	-0.131995	-0.269592	0.985021
H430	H	0.368005	0.230408	1.485021
H431	H	-0.118258	-0.309598	0.965350
H432	H	0.381742	0.190402	1.465350
H433	H	-0.095099	-0.268533	0.932852
H434	H	0.404901	0.231467	1.432852
H435	H	-0.079161	-0.338542	1.016736
H436	H	0.420839	0.161458	1.516736
H437	H	-0.056006	-0.297476	0.984247
H438	H	0.443994	0.202524	1.484247
H439	H	-0.037843	-0.532946	0.952238
H440	H	0.462157	-0.032946	1.452238
H441	H	0.142562	-0.622811	0.952240
H442	H	0.642562	-0.122811	1.452240
O443	O	0.147856	-0.475523	0.952258
O444	O	0.647856	0.024477	1.452258
C445	C	0.130046	-0.427480	0.952284
C446	C	0.630046	0.072520	1.452284
H447	H	0.098660	-0.404354	0.936907
H448	H	0.598660	0.095646	1.436907
H449	H	0.116428	-0.428204	0.991285
H450	H	0.616428	0.071796	1.491285
C451	C	0.209934	-0.433664	0.939287
C452	C	0.709934	0.066336	1.439287
C453	C	0.171387	-0.405259	0.920397
C454	C	0.671387	0.094741	1.420397
H455	H	0.235435	-0.419957	0.919619
H456	H	0.735435	0.080043	1.419619
H457	H	0.221932	-0.466032	0.939271
H458	H	0.721932	0.033968	1.439271
H459	H	0.198579	-0.434265	0.971788
H460	H	0.698579	0.065735	1.471788
H461	H	0.182741	-0.404663	0.887899
H462	H	0.682741	0.095337	1.387899
H463	H	0.159392	-0.372890	0.920406
H464	H	0.659392	0.127110	1.420406
H465	H	0.047048	-0.396226	0.739820
H466	H	0.547048	0.103774	1.239820
H467	H	0.167840	-0.502959	0.832516
H468	H	0.667840	-0.002959	1.332516
H469	H	0.198696	-0.471996	0.739692
H470	H	0.698696	0.028004	1.239692
H471	H	0.046887	-0.396202	0.562361
H472	H	0.546887	0.103798	1.062361
H473	H	0.167497	-0.502899	0.455559
H474	H	0.667497	-0.002899	0.955559
O475	O	0.008011	-0.425275	0.533479
O476	O	0.508011	0.074725	1.033479
C477	C	-0.013193	-0.442788	0.584732
C478	C	0.486807	0.057212	1.084732
H479	H	0.015969	-0.474342	0.601195
H480	H	0.515969	0.025658	1.101195
H481	H	-0.029345	-0.412099	0.599901
H482	H	0.470655	0.087901	1.099901
C483	C	-0.089748	-0.421995	0.577770
C484	C	0.410252	0.078005	1.077770
C485	C	-0.053931	-0.460753	0.597990
C486	C	0.446069	0.039247	1.097990
H487	H	-0.114879	-0.433075	0.585948
H488	H	0.385121	0.066925	1.085948
H489	H	-0.075463	-0.410194	0.543239
H490	H	0.424537	0.089806	1.043239
H491	H	-0.103202	-0.396425	0.590412
H492	H	0.396798	0.103575	1.090412
H493	H	-0.040473	-0.486320	0.585342
H494	H	0.459527	0.013680	1.085342
H495	H	-0.068215	-0.472558	0.632518
H496	H	0.431785	0.027442	1.132518
O497	O	0.206384	-0.473941	0.484484
O498	O	0.706384	0.026059	0.984484
C499	C	0.232058	-0.503537	0.454835
C500	C	0.732058	-0.003537	0.954835
H501	H	0.207661	-0.522154	0.461387
H502	H	0.707661	-0.022154	0.961387
H503	H	0.243043	-0.479913	0.414759
H504	H	0.743043	0.020087	0.914759
C505	C	0.308187	-0.519761	0.459686
C506	C	0.808187	-0.019761	0.959686
C507	C	0.278223	-0.542631	0.467736
C508	C	0.778223	-0.042631	0.967736
H509	H	0.336665	-0.543875	0.467642
H510	H	0.836665	-0.043875	0.967642
H511	H	0.290890	-0.499820	0.479659
H512	H	0.790890	0.000180	0.979659
H513	H	0.317335	-0.500076	0.426289
H514	H	0.817335	-0.000076	0.926289
H515	H	0.269070	-0.562311	0.501134
H516	H	0.769070	-0.062311	1.001134
H517	H	0.295520	-0.562576	0.447768
H518	H	0.795520	-0.062576	0.947768
H519	H	0.430920	-0.389838	0.464614
H520	H	0.930920	0.110162	0.964614
H521	H	0.160490	-0.218637	0.448603
H522	H	0.660490	0.281363	0.948603
O523	O	0.334125	-0.351054	0.494389
O524	O	0.834125	0.148946	0.994389
C525	C	0.346579	-0.324648	0.443870
C526	C	0.846579	0.175352	0.943870
H527	H	0.383723	-0.346998	0.423704
H528	H	0.883723	0.153002	0.923704
H529	H	0.317763	-0.317019	0.429947
H530	H	0.817763	0.182981	0.929947
C531	C	0.303315	-0.248466	0.459500
C532	C	0.803315	0.251534	0.959500
C533	C	0.348937	-0.275915	0.434733
C534	C	0.848937	0.224085	0.934733
H535	H	0.304767	-0.218404	0.453863
H536	H	0.804767	0.281596	0.953863
H537	H	0.294922	-0.266256	0.493536
H538	H	0.794922	0.233744	0.993536
H539	H	0.279306	-0.242114	0.447895
H540	H	0.779306	0.257886	0.947895
H541	H	0.372944	-0.282273	0.446342
H542	H	0.872944	0.217727	0.946342
H543	H	0.357334	-0.258125	0.400698
H544	H	0.857334	0.241875	0.900698
O545	O	0.082848	-0.222637	0.608138
O546	O	0.582848	0.277363	1.108138
C547	C	0.053226	-0.189094	0.633843
C548	C	0.553226	0.310906	1.133843
H549	H	0.059732	-0.152611	0.609439
H550	H	0.559732	0.347389	1.109439
H551	H	0.013148	-0.183665	0.644900
H552	H	0.513148	0.316335	1.144900
C553	C	0.058229	-0.253877	0.709923
C554	C	0.558229	0.246123	1.209923
C555	C	0.066223	-0.209069	0.679951
C556	C	0.566223	0.290931	1.179951
H557	H	0.066244	-0.266199	0.738367
H558	H	0.566244	0.233801	1.238367
H559	H	0.078185	-0.276477	0.692606
H560	H	0.578185	0.223523	1.192606
H561	H	0.024831	-0.249348	0.719133
H562	H	0.524831	0.250652	1.219133
H563	H	0.099622	-0.213601	0.670738
H564	H	0.599622	0.286399	1.170738
H565	H	0.046274	-0.186471	0.697268
H566	H	0.546274	0.313529	1.197268
H567	H	-0.059824	-0.503179	0.174290
H568	H	0.440176	-0.003179	0.674290
H569	H	-0.090896	-0.534066	0.267110
H570	H	0.409104	-0.034066	0.767110
H571	H	0.015913	-0.654818	0.174378
H572	H	0.515913	-0.154818	0.674378
H573	H	-0.090949	-0.534065	0.310634
H574	H	0.409051	-0.034065	0.810634
O575	O	-0.013276	-0.693614	0.271206
O576	O	0.486724	-0.193614	0.771206
C577	C	-0.030743	-0.714840	0.258640
C578	C	0.469257	-0.214840	0.758640
H579	H	-0.062262	-0.685682	0.244513
H580	H	0.437738	-0.185682	0.744513
H581	H	-0.000020	-0.731022	0.228971
H582	H	0.499980	-0.231022	0.728971
C583	C	-0.010037	-0.791367	0.321430
C584	C	0.489963	-0.291367	0.821430
C585	C	-0.048751	-0.755555	0.304082
C586	C	0.451249	-0.255555	0.804082
H587	H	-0.021143	-0.816483	0.349460
H588	H	0.478857	-0.316483	0.849460
H589	H	0.001733	-0.777068	0.329895
H590	H	0.501733	-0.277068	0.829895
H591	H	0.015563	-0.804846	0.296701
H592	H	0.515563	-0.304846	0.796701
H593	H	-0.074347	-0.742072	0.328809
H594	H	0.425653	-0.242072	0.828809
H595	H	-0.060526	-0.769853	0.295623
H596	H	0.439474	-0.269853	0.795623
O597	O	-0.062016	-0.495250	0.339666
O598	O	0.437984	0.004750	0.839666
C599	C	-0.091577	-0.469533	0.309975
C600	C	0.408423	0.030467	0.809975
H601	H	-0.085036	-0.493944	0.291372
H602	H	0.414964	0.006056	0.791372
H603	H	-0.131672	-0.458441	0.333516
H604	H	0.368328	0.041559	0.833516
C605	C	-0.086578	-0.393470	0.293720
C606	C	0.413422	0.106530	0.793720
C607	C	-0.078540	-0.423451	0.270868
C608	C	0.421460	0.076549	0.770868
H609	H	-0.078538	-0.365043	0.269599
H610	H	0.421462	0.134957	0.769599
H611	H	-0.066663	-0.410796	0.313725
H612	H	0.433337	0.089204	0.813725
H613	H	-0.119990	-0.384232	0.313337
H614	H	0.380010	0.115768	0.813337
H615	H	-0.045128	-0.432694	0.251257
H616	H	0.454872	0.067306	0.751257
H617	H	-0.098449	-0.406126	0.250859
H618	H	0.401551	0.093874	0.750859
H619	H	-0.015331	-0.685697	0.386578
H620	H	0.484669	-0.185697	0.886578
O621	O	0.020223	-0.660073	0.422192
O622	O	0.520223	-0.160073	0.922192
C623	C	0.063156	-0.689685	0.396400
C624	C	0.563156	-0.189685	0.896400
H625	H	0.056339	-0.690179	0.366577
H626	H	0.556339	-0.190179	0.866577
H627	H	0.093944	-0.674334	0.379090
H628	H	0.593944	-0.174334	0.879090
C629	C	0.086045	-0.741494	0.468527
C630	C	0.586045	-0.241494	0.968527
C631	C	0.077671	-0.742104	0.431900
C632	C	0.577671	-0.242104	0.931900
H633	H	0.095001	-0.773829	0.490425
H634	H	0.595001	-0.273829	0.990425
H635	H	0.057121	-0.721544	0.485904
H636	H	0.557121	-0.221544	0.985904
H637	H	0.111701	-0.728700	0.454096
H638	H	0.611701	-0.228700	0.954096
H639	H	0.052012	-0.754893	0.446331
H640	H	0.552012	-0.254893	0.946331
H641	H	0.106591	-0.762058	0.414527
H642	H	0.606591	-0.262058	0.914527
O643	O	0.027110	-0.687279	0.316152
O644	O	0.527110	-0.187279	0.816152
C645	C	0.025169	-0.657681	0.268569
C646	C	0.525169	-0.157681	0.768569
H647	H	0.010608	-0.673084	0.256937
H648	H	0.510608	-0.173084	0.756937
H649	H	-0.000079	-0.618888	0.268162
H650	H	0.499921	-0.118888	0.768162
C651	C	0.094712	-0.638031	0.247140
C652	C	0.594712	-0.138031	0.747140
C653	C	0.076831	-0.656951	0.232852
C654	C	0.576831	-0.156951	0.732852
H655	H	0.126579	-0.637578	0.225108
H656	H	0.626579	-0.137578	0.725108
H657	H	0.096019	-0.657970	0.279198
H658	H	0.596019	-0.157970	0.779198
H659	H	0.073667	-0.605705	0.246801
H660	H	0.573667	-0.105705	0.746801
H661	H	0.097872	-0.689278	0.233197
H662	H	0.597872	-0.189278	0.733197
H663	H	0.075529	-0.637018	0.200793
H664	H	0.575529	-0.137018	0.700793
O665	O	0.060685	-0.788156	0.349809
O666	O	0.560685	-0.288156	0.849809
C667	C	0.087144	-0.775676	0.299304
C668	C	0.587144	-0.275676	0.799304
H669	H	0.062043	-0.761587	0.278109
H670	H	0.562043	-0.261587	0.778109
H671	H	0.101851	-0.746002	0.287902
H672	H	0.601851	-0.246002	0.787902
C673	C	0.160918	-0.838466	0.314201
C674	C	0.660918	-0.338466	0.814201
C675	C	0.130090	-0.821166	0.288169
C676	C	0.630090	-0.321166	0.788169
H677	H	0.187411	-0.866525	0.307332
H678	H	0.687411	-0.366525	0.807332
H679	H	0.143093	-0.846873	0.348227
H680	H	0.643093	-0.346873	0.848227
H681	H	0.173169	-0.813733	0.304696
H682	H	0.673169	-0.313733	0.804696
H683	H	0.117835	-0.845897	0.297678
H684	H	0.617835	-0.345897	0.797678
H685	H	0.147914	-0.812764	0.254144
H686	H	0.647914	-0.312764	0.754144
O687	O	-0.102608	-0.787933	0.411857
O688	O	0.397392	-0.287933	0.911857
C689	C	-0.126551	-0.775429	0.380520
C690	C	0.373449	-0.275429	0.880520
H691	H	-0.125303	-0.738312	0.351356
H692	H	0.374697	-0.238312	0.851356
H693	H	-0.107482	-0.804266	0.362249
H694	H	0.392518	-0.304266	0.862249
C695	C	-0.181685	-0.818544	0.446187
C696	C	0.318315	-0.318544	0.946187
C697	C	-0.180155	-0.772954	0.410370
C698	C	0.319845	-0.272954	0.910370
H699	H	-0.214750	-0.817019	0.464599
H700	H	0.285250	-0.317019	0.964599
H701	H	-0.165553	-0.826970	0.467299
H702	H	0.334447	-0.326970	0.967299
H703	H	-0.165792	-0.842570	0.430956
H704	H	0.334208	-0.342570	0.930956
H705	H	-0.196043	-0.748930	0.425602
H706	H	0.303957	-0.248930	0.925602
H707	H	-0.196291	-0.764524	0.389261
H708	H	0.303709	-0.264524	0.889261
O709	O	-0.130669	-0.652279	0.429585
O710	O	0.369331	-0.152279	0.929585
C711	C	-0.164279	-0.659497	0.477612
C712	C	0.335721	-0.159497	0.977612
H713	H	-0.200730	-0.628617	0.477463
H714	H	0.299270	-0.128617	0.977463
H715	H	-0.169748	-0.695929	0.492259
H716	H	0.330252	-0.195929	0.992259
C717	C	-0.099596	-0.697805	0.510674
C718	C	0.400404	-0.197805	1.010674
C719	C	-0.144364	-0.659876	0.510491
C720	C	0.355636	-0.159876	1.010491
H721	H	-0.087311	-0.698042	0.530956
H722	H	0.412689	-0.198042	1.030956
H723	H	-0.076952	-0.692945	0.478317
H724	H	0.423048	-0.192945	0.978317
H725	H	-0.104160	-0.728162	0.522878
H726	H	0.395840	-0.228162	1.022878
H727	H	-0.139799	-0.629521	0.498282
H728	H	0.360201	-0.129521	0.998282
H729	H	-0.167007	-0.664732	0.542847
H730	H	0.332993	-0.164732	1.042847
O731	O	0.176723	-0.533914	0.357616
O732	O	0.676723	-0.033914	0.857616
C733	C	0.198399	-0.500352	0.344457
C734	C	0.698399	-0.000352	0.844457
H735	H	0.168782	-0.466538	0.354306
H736	H	0.668782	0.033462	0.854306
H737	H	0.225060	-0.518053	0.364987
H738	H	0.725060	-0.018053	0.864987
C739	C	0.262447	-0.526988	0.276945
C740	C	0.762447	-0.026988	0.776945
C741	C	0.226070	-0.485455	0.289039
C742	C	0.726070	0.014545	0.789039
H743	H	0.279517	-0.517800	0.242761
H744	H	0.779517	-0.017800	0.742761
H745	H	0.247844	-0.549601	0.285811
H746	H	0.747844	-0.049601	0.785811
H747	H	0.284659	-0.541735	0.294058
H748	H	0.784659	-0.041735	0.794058
H749	H	0.203855	-0.470712	0.271931
H750	H	0.703855	0.029288	0.771931
H751	H	0.240669	-0.462839	0.280168
H752	H	0.740669	0.037161	0.780168
H753	H	-0.227429	-0.616637	0.455084
H754	H	0.272571	-0.116637	0.955084
O755	O	-0.231131	-0.536240	0.298102
O756	O	0.268869	-0.036240	0.798102
C757	C	-0.197523	-0.529047	0.250074
C758	C	0.302477	-0.029047	0.750074
H759	H	-0.161065	-0.534800	0.250228
H760	H	0.338935	-0.034800	0.750228
H761	H	-0.192071	-0.556284	0.235409
H762	H	0.307929	-0.056284	0.735409
C763	C	-0.262203	-0.469559	0.217021
C764	C	0.237797	0.030441	0.717021
C765	C	-0.217426	-0.476622	0.217211
C766	C	0.282574	0.023378	0.717211
H767	H	-0.274480	-0.437222	0.196749
H768	H	0.225520	0.062778	0.696749
H769	H	-0.284846	-0.474407	0.249378
H770	H	0.215154	0.025593	0.749378
H771	H	-0.257653	-0.492260	0.204802
H772	H	0.242347	0.007740	0.704802
H773	H	-0.221977	-0.453925	0.229435
H774	H	0.278023	0.046075	0.729435
H775	H	-0.194784	-0.471769	0.184855
H776	H	0.305216	0.028231	0.684855
H777	H	-0.128252	-0.691169	0.377093
H778	H	0.371748	-0.191169	0.877093
H779	H	-0.134369	-0.571905	0.272603
H780	H	0.365631	-0.071905	0.772603
