data_functionalizedCrystal
_audit_creation_method	'MofGen! by Chris Wilmer'
_symmetry_space_group_name_H-M	'P1'
_symmetry_Int_Tables_number	1
_symmetry_cell_setting	triclinic
loop_
_symmetry_equiv_pos_as_xyz
  x,y,z
_cell_length_a	15.298206
_cell_length_b	21.295417
_cell_length_c	15.296720
_cell_angle_alpha	99.639335
_cell_angle_beta	110.778255
_cell_angle_gamma	80.368721
loop_
_atom_site_label
_atom_site_type_symbol
_atom_site_fract_x
_atom_site_fract_y
_atom_site_fract_z
Zn1	Zn	1.330553	-0.444824	-0.279328
Zn2	Zn	1.830553	0.055176	0.220672
Zn3	Zn	1.357357	-0.534555	-0.123821
Zn4	Zn	1.857357	-0.034555	0.376179
Zn5	Zn	1.201973	-0.413818	-0.150789
Zn6	Zn	1.701973	0.086182	0.349211
Zn7	Zn	1.174999	-0.534546	-0.306241
Zn8	Zn	1.674999	-0.034546	0.193759
O9	O	1.266221	-0.481936	-0.215045
O10	O	1.766221	0.018064	0.284955
O11	O	1.464237	-0.469707	-0.236150
O12	O	1.964237	0.030293	0.263850
O13	O	1.359251	-0.505567	0.002738
O14	O	1.859251	-0.005567	0.502738
O15	O	1.219101	-0.329853	-0.167863
O16	O	1.719101	0.170147	0.332137
O17	O	1.483930	-0.535633	-0.121900
O18	O	1.983930	-0.035633	0.378100
O19	O	1.313568	-0.352633	-0.262300
O20	O	1.813568	0.147367	0.237700
O21	O	1.245091	-0.416862	-0.017075
O22	O	1.745091	0.083138	0.482925
O23	O	1.068267	-0.416852	-0.193960
O24	O	1.568267	0.083148	0.306040
O25	O	1.173128	-0.535616	-0.432808
O26	O	1.673128	-0.035616	0.067192
O27	O	1.048449	-0.505551	-0.308170
O28	O	1.548449	-0.005551	0.191830
O29	O	1.287412	-0.469698	-0.413035
O30	O	1.787412	0.030302	0.086965
O31	O	1.333096	-0.622632	-0.147997
O32	O	1.833096	-0.122632	0.352003
O33	O	1.199118	-0.622625	-0.282020
O34	O	1.699118	-0.122625	0.217980
C35	C	1.024617	-0.457836	-0.256912
C36	C	1.524617	0.042164	0.243088
C37	C	0.921254	-0.447544	-0.274845
C38	C	1.421254	0.052456	0.225155
C39	C	0.862431	-0.408456	-0.342851
C40	C	1.362431	0.091544	0.157149
C41	C	0.765316	-0.398780	-0.359702
C42	C	1.265316	0.101220	0.140298
C43	C	0.727014	-0.428194	-0.308555
C44	C	1.227014	0.071806	0.191445
C45	C	0.785836	-0.467286	-0.240552
C46	C	1.285836	0.032714	0.259448
C47	C	0.882962	-0.476959	-0.223694
C48	C	1.382962	0.023041	0.276306
C49	C	0.747544	-0.496697	-0.189397
C50	C	1.247544	0.003303	0.310603
C51	C	0.806367	-0.535789	-0.121395
C52	C	1.306367	-0.035789	0.378605
C53	C	0.903483	-0.545461	-0.104540
C54	C	1.403483	-0.045461	0.395460
C55	C	0.941785	-0.516047	-0.155688
C56	C	1.441785	-0.016047	0.344312
C57	C	0.650419	-0.487024	-0.206255
C58	C	1.150419	0.012976	0.293745
C59	C	0.670950	-0.555527	-0.087098
C60	C	1.170950	-0.055527	0.412902
C61	C	0.768065	-0.565203	-0.070247
C62	C	1.268065	-0.065203	0.429753
C63	C	1.266110	-0.645471	-0.215018
C64	C	1.766110	-0.145471	0.284982
C65	C	1.266143	-0.715443	-0.215023
C66	C	1.766143	-0.215443	0.284977
C67	C	1.315290	-0.760115	-0.264245
C68	C	1.815290	-0.260115	0.235755
C69	C	1.315319	-0.825863	-0.264262
C70	C	1.815319	-0.325863	0.235738
C71	C	1.266213	-0.846936	-0.215040
C72	C	1.766213	-0.346936	0.284960
C73	C	1.217055	-0.802255	-0.165816
C74	C	1.717055	-0.302255	0.334184
C75	C	1.217019	-0.736508	-0.165808
C76	C	1.717019	-0.236508	0.334192
N77	N	1.273283	-0.941373	-0.134867
N78	N	1.773283	-0.441373	0.365133
N79	N	1.273322	-1.003830	-0.134876
N80	N	1.773322	-0.503830	0.365124
C81	C	1.266314	-1.045026	-0.215063
C82	C	1.766314	-0.545026	0.284937
N83	N	1.259285	-1.021407	-0.295238
N84	N	1.759285	-0.521407	0.204762
N85	N	1.259252	-0.958944	-0.295227
N86	N	1.759252	-0.458944	0.204773
C87	C	1.266245	-0.918226	-0.215043
C88	C	1.766245	-0.418226	0.284957
C89	C	1.315496	-1.160990	-0.264307
C90	C	1.815496	-0.660990	0.235693
C91	C	1.315518	-1.226739	-0.264327
C92	C	1.815518	-0.726739	0.235673
C93	C	1.217259	-1.203129	-0.165872
C94	C	1.717259	-0.703129	0.334128
C95	C	1.217231	-1.137382	-0.165861
C96	C	1.717231	-0.637382	0.334139
C97	C	1.266354	-1.116317	-0.215077
C98	C	1.766354	-0.616317	0.284923
C99	C	1.508768	-0.506130	-0.173015
C100	C	2.008768	-0.006130	0.326985
C101	C	1.612127	-0.516440	-0.155104
C102	C	2.112127	-0.016440	0.344896
C103	C	1.224271	-0.506115	-0.457608
C104	C	1.724271	-0.006115	0.042392
C105	C	1.206395	-0.516418	-0.560974
C106	C	1.706395	-0.016418	-0.060974
C107	C	1.266353	-0.317767	-0.215087
C108	C	1.766353	0.182233	0.284913
C109	C	1.266410	-0.247807	-0.215106
C110	C	1.766410	0.252193	0.284894
C111	C	1.394020	-0.408187	-0.811165
C112	C	1.894020	0.091813	-0.311165
C113	C	1.410822	-0.398508	-0.714047
C114	C	1.910822	0.101492	-0.214047
C115	C	1.359716	-0.427985	-0.675774
C116	C	1.859716	0.072015	-0.175774
C117	C	1.291807	-0.467142	-0.734629
C118	C	1.791807	0.032858	-0.234629
C119	C	1.275009	-0.476826	-0.831756
C120	C	1.775009	0.023174	-0.331756
C121	C	1.240705	-0.496624	-0.696365
C122	C	1.740705	0.003376	-0.196365
C123	C	1.172795	-0.535781	-0.755220
C124	C	1.672795	-0.035781	-0.255220
C125	C	1.156000	-0.545463	-0.852337
C126	C	1.656000	-0.045463	-0.352337
C127	C	1.207105	-0.515987	-0.890610
C128	C	1.707105	-0.015987	-0.390610
C129	C	1.257503	-0.486940	-0.599237
C130	C	1.757503	0.013060	-0.099237
C131	C	1.138492	-0.555579	-0.619828
C132	C	1.638492	-0.055579	-0.119828
C133	C	1.121690	-0.565258	-0.716947
C134	C	1.621690	-0.065258	-0.216947
C135	C	1.308060	-0.457811	0.026584
C136	C	1.808060	0.042189	0.526584
C137	C	1.326117	-0.447348	0.129981
C138	C	1.826117	0.052652	0.629981
H139	H	0.717429	-0.366953	-0.415071
H140	H	1.217429	0.133047	0.084929
O141	O	0.629652	-0.587252	-0.031919
O142	O	1.129652	-0.087252	0.468081
H143	H	0.645538	-0.640104	-0.044490
H144	H	1.145538	-0.140104	0.455510
O145	O	1.368473	-1.138265	-0.317390
O146	O	1.868473	-0.638265	0.182610
H147	H	1.318627	-1.108874	-0.371878
H148	H	1.818627	-0.608874	0.128122
H149	H	0.815972	-0.597032	-0.014878
H150	H	1.315972	-0.097032	0.485122
H151	H	1.355331	-0.862242	-0.304356
H152	H	1.855331	-0.362242	0.195644
H153	H	1.177215	-1.101007	-0.125776
H154	H	1.677215	-0.601007	0.374224
H155	H	0.647938	-0.420312	-0.322276
H156	H	1.147938	0.079688	0.177724
O157	O	1.082754	-0.587696	-0.915816
O158	O	1.582754	-0.087696	-0.415816
H159	H	1.101876	-0.636826	-0.894394
H160	H	1.601876	-0.136826	-0.394394
O161	O	0.903748	-0.376731	-0.398003
O162	O	1.403748	0.123269	0.101997
H163	H	0.846533	-0.347920	-0.448118
H164	H	1.346533	0.152080	0.051882
O165	O	1.046538	-0.526472	-0.137491
O166	O	1.546538	-0.026472	0.362509
H167	H	1.063285	-0.499445	-0.184477
H168	H	1.563285	0.000555	0.315523
O169	O	1.048445	-0.607489	-0.780434
O170	O	1.548445	-0.107489	-0.280434
H171	H	1.067565	-0.656621	-0.759019
H172	H	1.567565	-0.156621	-0.259019
H173	H	1.355287	-0.742967	-0.304322
H174	H	1.855287	-0.242967	0.195678
O175	O	0.586986	-0.444865	-0.279601
O176	O	1.086986	0.055135	0.220399
H177	H	0.549937	-0.404244	-0.245743
H178	H	1.049937	0.095756	0.254257
O179	O	0.966934	-0.587613	-0.031184
O180	O	1.466934	-0.087613	0.468816
H181	H	0.923988	-0.606445	0.001548
H182	H	1.423988	-0.106445	0.501548
H183	H	1.177070	-0.819417	-0.125741
H184	H	1.677070	-0.319417	0.374259
H185	H	1.176997	-0.700134	-0.125725
H186	H	1.676997	-0.200134	0.374275
H187	H	1.355538	-1.263112	-0.304414
H188	H	1.855538	-0.763112	0.195586
H189	H	1.177269	-1.220286	-0.125801
H190	H	1.677269	-0.720286	0.374199
O191	O	1.083354	-0.587354	-0.578548
O192	O	1.583354	-0.087354	-0.078548
H193	H	1.007160	-0.571128	-0.609847
H194	H	1.507160	-0.071128	-0.109847
H195	H	1.435628	-0.384196	-0.842336
H196	H	1.935628	0.115804	-0.342336
O197	O	1.377824	-0.417542	-0.571026
O198	O	1.877824	0.082458	-0.071026
H199	H	1.433624	-0.385356	-0.536532
H200	H	1.933624	0.114644	-0.036532
H201	H	1.193429	-0.523866	-0.969691
H202	H	1.693429	-0.023866	-0.469691
O203	O	1.330742	-0.444708	-0.535761
O204	O	1.830742	0.055292	-0.035761
H205	H	1.311609	-0.395576	-0.557175
H206	H	1.811609	0.104424	-0.057175
H207	H	1.466116	-0.366628	-0.666133
H208	H	1.966116	0.133372	-0.166133
