data_functionalizedCrystal
_audit_creation_method	'MofGen! by Chris Wilmer'
_symmetry_space_group_name_H-M	'P1'
_symmetry_Int_Tables_number	1
_symmetry_cell_setting	triclinic
loop_
_symmetry_equiv_pos_as_xyz
  x,y,z
_cell_length_a	18.215407
_cell_length_b	25.639240
_cell_length_c	18.215399
_cell_angle_alpha	89.960373
_cell_angle_beta	89.985195
_cell_angle_gamma	90.027271
loop_
_atom_site_label
_atom_site_type_symbol
_atom_site_fract_x
_atom_site_fract_y
_atom_site_fract_z
Zn1	Zn	1.125010	-0.208220	-0.416029
Zn2	Zn	1.625010	0.291780	0.083971
Zn3	Zn	1.124908	-0.295660	-0.292943
Zn4	Zn	1.624908	0.204340	0.207057
Zn5	Zn	1.001949	-0.208232	-0.292980
Zn6	Zn	1.501949	0.291768	0.207020
Zn7	Zn	1.001891	-0.295618	-0.415972
Zn8	Zn	1.501891	0.204382	0.084028
O9	O	1.063439	-0.251933	-0.354481
O10	O	1.563439	0.248067	0.145519
O11	O	1.227980	-0.219832	-0.399709
O12	O	1.727980	0.280168	0.100291
O13	O	1.108578	-0.284085	-0.189963
O14	O	1.608578	0.215915	0.310037
O15	O	1.018340	-0.135065	-0.309343
O16	O	1.518340	0.364935	0.190657
O17	O	1.227906	-0.284074	-0.309278
O18	O	1.727906	0.215926	0.190722
O19	O	1.108752	-0.135057	-0.399746
O20	O	1.608752	0.364943	0.100254
O21	O	1.018241	-0.219852	-0.189991
O22	O	1.518241	0.280148	0.310009
O23	O	0.898957	-0.219811	-0.309288
O24	O	1.398957	0.280189	0.190712
O25	O	1.018242	-0.284002	-0.518964
O26	O	1.518242	0.215998	-0.018964
O27	O	0.898915	-0.284014	-0.399649
O28	O	1.398915	0.215986	0.100351
O29	O	1.108697	-0.219791	-0.519006
O30	O	1.608697	0.280209	-0.019006
O31	O	1.108523	-0.368820	-0.309223
O32	O	1.608523	0.131180	0.190777
O33	O	1.018143	-0.368789	-0.399612
O34	O	1.518143	0.131211	0.100388
C35	C	0.872233	-0.251910	-0.354467
C36	C	1.372233	0.248090	0.145533
C37	C	0.790434	-0.251912	-0.354478
C38	C	1.290434	0.248088	0.145522
C39	C	1.063335	-0.387775	-0.354423
C40	C	1.563335	0.112225	0.145577
C41	C	1.063358	-0.445889	-0.354423
C42	C	1.563358	0.054111	0.145577
C43	C	0.525410	-0.218546	-0.401643
C44	C	1.025410	0.281454	0.098357
C45	C	0.602269	-0.218538	-0.401641
C46	C	1.102269	0.281462	0.098359
C47	C	0.602210	-0.285336	-0.307335
C48	C	1.102210	0.214664	0.192665
C49	C	0.525353	-0.285346	-0.307341
C50	C	1.025353	0.214654	0.192659
C51	C	0.486955	-0.251949	-0.354494
C52	C	0.986955	0.248051	0.145506
C53	C	0.640671	-0.251930	-0.354486
C54	C	1.140671	0.248070	0.145514
C55	C	0.724004	-0.251921	-0.354483
C56	C	1.224004	0.248079	0.145517
C57	C	0.403616	-0.251958	-0.354498
C58	C	0.903616	0.248042	0.145502
C59	C	1.110541	-0.806209	-0.401639
C60	C	1.610541	-0.306209	0.098361
C61	C	1.110562	-0.860814	-0.401654
C62	C	1.610562	-0.360814	0.098346
O63	O	1.150555	-0.889014	-0.441739
O64	O	1.650555	-0.389014	0.058261
N65	N	1.063542	-0.888172	-0.354552
N66	N	1.563542	-0.388172	0.145448
C67	C	1.016491	-0.860923	-0.307438
C68	C	1.516491	-0.360923	0.192562
O69	O	0.976498	-0.889207	-0.267376
O70	O	1.476498	-0.389207	0.232624
C71	C	1.016466	-0.806319	-0.307427
C72	C	1.516466	-0.306319	0.192573
C73	C	1.063495	-0.778964	-0.354526
C74	C	1.563495	-0.278964	0.145474
C75	C	1.157565	-0.778854	-0.448735
C76	C	1.657565	-0.278854	0.051265
C77	C	1.157544	-0.724253	-0.448719
C78	C	1.657544	-0.224253	0.051281
C79	C	1.110499	-0.697008	-0.401606
C80	C	1.610499	-0.197008	0.098394
C81	C	1.063474	-0.724363	-0.354510
C82	C	1.563474	-0.224363	0.145490
C83	C	0.969412	-0.779071	-0.260317
C84	C	1.469412	-0.279071	0.239683
C85	C	0.969391	-0.724464	-0.260311
C86	C	1.469391	-0.224464	0.239689
C87	C	1.016420	-0.697109	-0.307410
C88	C	1.516420	-0.197109	0.192590
C89	C	1.016408	-0.642518	-0.307382
C90	C	1.516408	-0.142518	0.192618
N91	N	1.063428	-0.615160	-0.354483
N92	N	1.563428	-0.115160	0.145517
C93	C	1.110474	-0.642405	-0.401596
C94	C	1.610474	-0.142405	0.098404
C95	C	1.016546	-0.975593	-0.307465
C96	C	1.516546	-0.475593	0.192535
C97	C	1.016574	-1.030195	-0.307471
C98	C	1.516574	-0.530195	0.192529
C99	C	1.110644	-1.030083	-0.401688
C100	C	1.610644	-0.530083	0.098312
C101	C	1.110620	-0.975479	-0.401678
C102	C	1.610620	-0.475479	0.098322
C103	C	1.063566	-0.948235	-0.354566
C104	C	1.563566	-0.448235	0.145434
C105	C	1.110427	-0.527740	-0.401558
C106	C	1.610427	-0.027740	0.098442
C107	C	1.110404	-0.473134	-0.401535
C108	C	1.610404	0.026866	0.098465
C109	C	1.016331	-0.473252	-0.307321
C110	C	1.516331	0.026748	0.192679
C111	C	1.016356	-0.527853	-0.307341
C112	C	1.516356	-0.027853	0.192659
C113	C	1.063407	-0.555095	-0.354465
C114	C	1.563407	-0.055095	0.145535
O115	O	0.976434	-0.614283	-0.267319
O116	O	1.476434	-0.114283	0.232681
O117	O	1.150453	-0.614114	-0.441658
O118	O	1.650453	-0.114114	0.058342
C119	C	1.255392	-0.251956	-0.354496
C120	C	1.755392	0.248044	0.145504
C121	C	1.337191	-0.251966	-0.354502
C122	C	1.837191	0.248034	0.145498
C123	C	1.063474	-0.251891	-0.546434
C124	C	1.563474	0.248109	-0.046434
C125	C	1.063489	-0.251873	-0.628233
C126	C	1.563489	0.248127	-0.128233
C127	C	1.063564	-0.115560	-0.354555
C128	C	1.563564	0.384440	0.145445
C129	C	1.063617	-0.057446	-0.354586
C130	C	1.563617	0.442554	0.145414
C131	C	1.016490	-0.218404	-0.816442
C132	C	1.516490	0.281596	-0.316442
C133	C	1.016503	-0.218394	-0.893301
C134	C	1.516503	0.281606	-0.393301
C135	C	1.110576	-0.285279	-0.893261
C136	C	1.610576	0.214721	-0.393261
C137	C	1.110559	-0.285292	-0.816404
C138	C	1.610559	0.214708	-0.316404
C139	C	1.063517	-0.251852	-0.777996
C140	C	1.563517	0.248148	-0.277996
C141	C	1.063547	-0.251828	-0.931713
C142	C	1.563547	0.248172	-0.431713
C143	C	1.063561	-0.251817	-1.015046
C144	C	1.563561	0.248183	-0.515046
C145	C	1.063502	-0.251863	-0.694657
C146	C	1.563502	0.248137	-0.194657
C147	C	1.063447	-0.251936	-0.163275
C148	C	1.563447	0.248064	0.336725
C149	C	1.063575	-0.251807	-0.081476
C150	C	1.563575	0.248193	0.418524
H151	H	0.494149	-0.191352	-0.440038
H152	H	0.994149	0.308648	0.059962
H153	H	0.978029	-0.451060	-0.268961
H154	H	1.478029	0.048940	0.231039
Br155	Br	1.174493	-1.067069	-0.465627
Br156	Br	1.674493	-0.567069	0.034373
Br157	Br	0.473158	-0.330683	-0.243350
Br158	Br	0.973158	0.169317	0.256650
H159	H	0.978208	-0.191158	-0.924600
H160	H	1.478208	0.308842	-0.424600
H161	H	1.148876	-0.312505	-0.924542
H162	H	1.648876	0.187495	-0.424542
Br163	Br	1.174236	-0.436013	-0.465458
Br164	Br	1.674236	0.063987	0.034542
Br165	Br	0.654456	-0.173207	-0.465636
Br166	Br	1.154456	0.326793	0.034364
Br167	Br	0.654326	-0.330657	-0.243342
Br168	Br	1.154326	0.169343	0.256658
H169	H	0.978185	-0.191175	-0.785173
H170	H	1.478185	0.308825	-0.285173
Br171	Br	1.174282	-0.564703	-0.465512
Br172	Br	1.674282	-0.064703	0.034488
Br173	Br	0.952685	-0.938624	-0.243518
Br174	Br	1.452685	-0.438624	0.256482
Br175	Br	1.221368	-0.687137	-0.512648
Br176	Br	1.721368	-0.187137	-0.012648
Br177	Br	1.174381	-0.330692	-0.764222
Br178	Br	1.674381	0.169308	-0.264222
Br179	Br	0.952542	-0.564979	-0.243408
Br180	Br	1.452542	-0.064979	0.256592
Br181	Br	0.905528	-0.687493	-0.196371
Br182	Br	1.405528	-0.187493	0.303629
H183	H	1.195875	-0.801031	-0.487104
H184	H	1.695875	-0.301031	0.012896
H185	H	0.978286	-1.052464	-0.269110
H186	H	1.478286	-0.552464	0.230890
Br187	Br	1.174447	-0.938360	-0.465600
Br188	Br	1.674447	-0.438360	0.034400
Br189	Br	0.905581	-0.816182	-0.196393
Br190	Br	1.405581	-0.316182	0.303607
