data_functionalizedCrystal
_audit_creation_method	'MofGen! by Chris Wilmer'
_symmetry_space_group_name_H-M	'P1'
_symmetry_Int_Tables_number	1
_symmetry_cell_setting	triclinic
loop_
_symmetry_equiv_pos_as_xyz
  x,y,z
_cell_length_a	10.654550
_cell_length_b	10.654542
_cell_length_c	9.130313
_cell_angle_alpha	89.989527
_cell_angle_beta	90.001030
_cell_angle_gamma	84.483476
loop_
_atom_site_label
_atom_site_type_symbol
_atom_site_fract_x
_atom_site_fract_y
_atom_site_fract_z
O1	O	-1.667832	-0.176404	0.121703
O2	O	-1.302353	-0.193210	0.121731
O3	O	-1.493500	-0.002067	0.121693
O4	O	-1.476685	-0.367547	0.121741
O5	O	-1.493493	-0.002052	-0.121905
O6	O	-1.302346	-0.193195	-0.121868
O7	O	-1.667825	-0.176389	-0.121896
Cu8	Cu	-1.485084	-0.184791	-0.144124
Cu9	Cu	-1.485093	-0.184808	0.143960
O10	O	-1.476677	-0.367532	-0.121858
C11	C	-1.255552	-0.191969	-0.000065
C12	C	-1.116108	-0.188277	-0.000055
C13	C	-1.492264	0.044738	-0.000109
C14	C	-1.488575	0.184182	-0.000117
N15	N	-1.485087	-0.184778	-0.346747
C16	C	-1.714626	-0.177631	-0.000096
C17	C	-1.854069	-0.181322	-0.000096
C18	C	-1.036620	-0.300819	-0.000045
C19	C	-0.905599	-0.297342	-0.000071
C20	C	-0.933568	-0.068772	-0.000111
C21	C	-1.064586	-0.072250	-0.000096
C22	C	-1.597644	0.394697	-0.000135
C23	C	-1.601119	0.263676	-0.000134
C24	C	-1.372549	0.235715	-0.000115
C25	C	-1.369075	0.366733	-0.000126
C26	C	-1.477920	0.585663	-0.000076
C27	C	-1.481627	0.446222	-0.000128
N28	N	-1.485100	-0.184811	0.346582
C29	C	-1.569894	-0.100324	0.576564
C30	C	-1.569898	-0.100337	0.423227
C31	C	-1.400285	-0.269269	0.423282
C32	C	-1.400276	-0.269249	0.576616
H33	H	-1.078564	-0.395295	-0.000022
H34	H	-1.129310	0.019401	-0.000109
C35	C	-1.797003	0.247155	0.125093
C36	C	-1.728648	0.207039	-0.000131
H37	H	-1.875734	0.212182	0.125096
H38	H	-1.811037	0.336550	0.125078
H39	H	-1.750602	0.219918	0.210033
H40	H	-1.775046	0.234284	-0.085071
H41	H	-1.714619	0.117625	-0.000128
H42	H	-1.274594	0.408684	-0.000128
C43	C	-1.243862	0.072147	0.125146
C44	C	-1.248837	0.148337	-0.000092
H45	H	-1.167481	0.018212	0.125165
H46	H	-1.313447	0.022713	0.125133
H47	H	-1.247263	0.123850	0.210076
H48	H	-1.245444	0.096634	-0.085023
H49	H	-1.179233	0.197776	-0.000093
C50	C	-1.183418	-0.340597	0.376067
C51	C	-1.307068	-0.362117	0.339031
H52	H	-1.125872	-0.397915	0.324047
H53	H	-1.171280	-0.352680	0.478350
H54	H	-1.169239	-0.256605	0.350898
H55	H	-1.321250	-0.446107	0.364210
H56	H	-1.319211	-0.350045	0.236726
H57	H	-1.638951	-0.031541	0.638958
C58	C	-1.737561	0.066631	0.438585
C59	C	-1.663125	-0.007508	0.338931
H60	H	-1.795121	0.123937	0.386541
H61	H	-1.684991	0.112409	0.498368
H62	H	-1.783069	0.013825	0.498416
H63	H	-1.617610	0.045297	0.279107
H64	H	-1.715702	-0.053289	0.279123
C65	C	-1.726353	0.558242	0.125073
C66	C	-1.721359	0.482071	-0.000149
H67	H	-1.802736	0.612174	0.125062
H68	H	-1.656771	0.607680	0.125066
H69	H	-1.722960	0.506526	0.210014
H70	H	-1.724742	0.533787	-0.085091
H71	H	-1.790960	0.432629	-0.000155
H72	H	-0.840884	-0.388985	-0.000065
C73	C	-1.328009	-0.485893	0.623923
C74	C	-1.307053	-0.362092	0.660925
H75	H	-1.270462	-0.543204	0.675979
H76	H	-1.315871	-0.497990	0.521648
H77	H	-1.411902	-0.500452	0.649071
H78	H	-1.223162	-0.347531	0.635767
H79	H	-1.319180	-0.349990	0.763222
C80	C	-0.802447	0.067734	0.125084
C81	C	-0.876931	0.058761	-0.000136
H82	H	-0.767491	0.146473	0.125074
H83	H	-0.736360	0.001214	0.125078
H84	H	-0.852985	0.061620	0.210026
H85	H	-0.826390	0.064866	-0.085079
H86	H	-0.943027	0.125300	-0.000143
