data_functionalizedCrystal
_audit_creation_method	'MofGen! by Chris Wilmer'
_symmetry_space_group_name_H-M	'P1'
_symmetry_Int_Tables_number	1
_symmetry_cell_setting	triclinic
loop_
_symmetry_equiv_pos_as_xyz
  x,y,z
_cell_length_a	14.908783
_cell_length_b	14.909042
_cell_length_c	14.908308
_cell_angle_alpha	89.837538
_cell_angle_beta	90.211273
_cell_angle_gamma	89.820521
loop_
_atom_site_label
_atom_site_type_symbol
_atom_site_fract_x
_atom_site_fract_y
_atom_site_fract_z
Zn1	Zn	1.364399	-0.313454	0.570869
Zn2	Zn	1.381551	-0.454222	0.412892
Zn3	Zn	1.222653	-0.312484	0.411893
Zn4	Zn	1.223621	-0.471383	0.553585
O5	O	1.298056	-0.387886	0.487310
O6	O	1.492090	-0.325351	0.557565
O7	O	1.367245	-0.427833	0.287347
O8	O	1.233874	-0.187200	0.439796
O9	O	1.504691	-0.428773	0.441500
O10	O	1.338014	-0.187913	0.556596
O11	O	1.250505	-0.323698	0.286613
O12	O	1.097367	-0.340338	0.423037
O13	O	1.235522	-0.458021	0.681291
O14	O	1.098077	-0.457081	0.527138
O15	O	1.338952	-0.341991	0.693989
O16	O	1.368184	-0.581911	0.424741
O17	O	1.252153	-0.594519	0.528107
C18	C	1.065203	-0.400467	0.473104
C19	C	0.965588	-0.405873	0.467047
C20	C	0.765277	-0.308504	0.576690
C21	C	0.671679	-0.313579	0.571002
C22	C	0.684793	-0.421095	0.449979
C23	C	0.778391	-0.416019	0.455667
C24	C	0.818629	-0.359722	0.519026
C25	C	0.912229	-0.354652	0.524717
C26	C	0.925340	-0.462162	0.403691
C27	C	0.831743	-0.467238	0.398003
C28	C	1.312158	-0.620733	0.474678
C29	C	1.318271	-0.720343	0.469309
C30	C	1.208831	-0.920715	0.566749
C31	C	1.214572	-1.014308	0.561708
C32	C	1.335489	-1.001124	0.454179
C33	C	1.329748	-0.907531	0.459221
C34	C	1.266418	-0.867330	0.515509
C35	C	1.260682	-0.773735	0.520555
C36	C	1.381594	-0.760553	0.413022
C37	C	1.387335	-0.854147	0.407981
C38	C	1.531818	-0.375256	0.501572
C39	C	1.631434	-0.369874	0.507649
C40	C	1.285432	-0.402029	0.721067
C41	C	1.280052	-0.408056	0.820681
C42	C	1.283923	-0.154129	0.500012
C43	C	1.277900	-0.054516	0.505425
C44	C	1.310679	-0.373731	0.254469
C45	C	1.316217	-0.367442	0.154880
C46	C	1.377640	-0.298538	1.021090
C47	C	1.372588	-0.304197	1.114686
C48	C	1.264892	-0.425029	1.101471
C49	C	1.269944	-0.419370	1.007875
C50	C	1.326321	-0.356123	0.967688
C51	C	1.331377	-0.350468	0.874090
C52	C	1.223677	-0.471295	0.860876
C53	C	1.218624	-0.476955	0.954472
H54	H	0.652014	-0.466918	0.398386
H55	H	1.423549	-0.247044	0.988370
F56	F	1.141439	-0.877928	0.626663
F57	F	0.982129	-0.516682	0.342321
F58	F	0.788908	-0.527146	0.330573
H59	H	1.172722	-0.528447	0.987205
H60	H	1.387041	-1.033873	0.408343
H61	H	1.209118	-0.741005	0.566390
F62	F	0.614901	-0.259063	0.632374
F63	F	1.153279	-1.071121	0.616243
F64	F	1.454732	-0.896942	0.348079
H65	H	0.944989	-0.308814	0.576308
F66	F	1.442889	-0.703730	0.358489
F67	F	1.204890	-0.492330	1.144256
F68	F	1.391381	-0.283158	0.831322
H69	H	0.798040	-0.262669	0.628282
F70	F	1.427208	-0.242906	1.171518
H71	H	1.181891	-0.518188	0.817385
