data_functionalizedCrystal
_audit_creation_method	'MofGen! by Chris Wilmer'
_symmetry_space_group_name_H-M	'P1'
_symmetry_Int_Tables_number	1
_symmetry_cell_setting	triclinic
loop_
_symmetry_equiv_pos_as_xyz
  x,y,z
_cell_length_a	12.645331
_cell_length_b	18.050590
_cell_length_c	12.645323
_cell_angle_alpha	90.030576
_cell_angle_beta	90.022676
_cell_angle_gamma	90.017531
loop_
_atom_site_label
_atom_site_type_symbol
_atom_site_fract_x
_atom_site_fract_y
_atom_site_fract_z
Zn1	Zn	1.620725	-0.295674	0.599404
Zn2	Zn	1.620604	-0.419873	0.422127
Zn3	Zn	1.443439	-0.295699	0.422149
Zn4	Zn	1.443419	-0.419824	0.599342
O5	O	1.532047	-0.357767	0.510755
O6	O	1.769056	-0.312159	0.575905
O7	O	1.597061	-0.403432	0.273782
O8	O	1.467016	-0.191771	0.445697
O9	O	1.768967	-0.403407	0.445660
O10	O	1.597267	-0.191753	0.575926
O11	O	1.466899	-0.312202	0.273798
O12	O	1.295089	-0.312155	0.445637
O13	O	1.466981	-0.403325	0.747698
O14	O	1.295074	-0.403349	0.575820
O15	O	1.597247	-0.312112	0.747743
O16	O	1.597040	-0.523791	0.445599
O17	O	1.466863	-0.523755	0.575799
C18	C	1.256617	-0.357750	0.510725
C19	C	1.138787	-0.357760	0.510737
C20	C	1.531965	-0.550720	0.510713
C21	C	1.532027	-0.633265	0.510731
C22	C	0.971197	-0.300126	0.429290
C23	C	1.093757	-0.300275	0.428931
C24	C	1.094265	-0.435993	0.480211
C25	C	0.971667	-0.435678	0.479655
C26	C	0.971638	-0.337906	0.623024
C27	C	1.094244	-0.336158	0.622400
C28	C	1.602965	-0.832708	0.440027
C29	C	1.628865	-0.882039	0.536780
C30	C	1.532088	-0.784396	0.510773
C31	C	1.506295	-0.882147	0.414063
C32	C	1.532148	-0.930381	0.510805
C33	C	1.558037	-0.832639	0.607577
C34	C	1.435422	-0.832743	0.484795
C35	C	1.461286	-0.882051	0.581614
C36	C	1.532056	-0.700297	0.510753
C37	C	1.532179	-1.014477	0.510836
C38	C	1.808552	-0.357786	0.510787
C39	C	1.926382	-0.357793	0.510800
C40	C	1.532125	-0.357710	0.787261
C41	C	1.532158	-0.357686	0.905091
C42	C	1.532157	-0.164062	0.510821
C43	C	1.532205	-0.081516	0.510849
C44	C	1.532030	-0.357771	0.235326
C45	C	1.532202	-0.357586	0.117496
C46	C	1.449955	-0.414797	1.072626
C47	C	1.450170	-0.415080	0.950066
C48	C	1.643857	-0.378927	0.949608
C49	C	1.643406	-0.379285	1.072206
C50	C	1.503718	-0.279014	1.072300
C51	C	1.501226	-0.279485	0.949693
H52	H	1.123859	-0.242262	0.448066
F53	F	1.474797	-0.491208	0.911735
H54	H	1.468575	-0.472682	1.103437
H55	H	1.123433	-0.480108	0.537715
F56	F	1.586720	-0.804338	0.714523
H57	H	1.366880	-0.401633	1.102102
F58	F	0.932689	-0.224068	0.454030
F59	F	1.341908	-0.397702	0.910720
F60	F	0.930859	-0.317104	0.321233
H61	H	0.943020	-0.452544	0.397614
F62	F	0.933760	-0.392805	0.702406
F63	F	1.675959	-0.453216	0.909487
F64	F	1.726175	-0.327151	1.111009
H65	H	1.123035	-0.313420	0.345769
H66	H	1.123349	-0.278587	0.645418
F67	F	1.573814	-0.220824	0.909690
F68	F	1.582018	-0.223300	1.110229
H69	H	1.667550	-0.436723	1.100809
F70	F	1.382975	-0.910193	0.659919
F71	F	1.735752	-0.910331	0.565542
H72	H	1.124920	-0.453148	0.399050
H73	H	0.942021	-0.480100	0.536434
F74	F	1.328565	-0.804419	0.456015
F75	F	1.477748	-0.910572	0.307147
H76	H	1.706781	-0.338575	0.920478
F77	F	1.399108	-0.253707	1.112694
H78	H	0.940743	-0.281854	0.650783
H79	H	1.419026	-0.263466	0.920596
F80	F	1.134308	-0.387055	0.706029
H81	H	1.662924	-0.811042	0.380261
