data_functionalizedCrystal
_audit_creation_method	'MofGen! by Chris Wilmer'
_symmetry_space_group_name_H-M	'P1'
_symmetry_Int_Tables_number	1
_symmetry_cell_setting	triclinic
loop_
_symmetry_equiv_pos_as_xyz
  x,y,z
_cell_length_a	15.297475
_cell_length_b	12.645330
_cell_length_c	15.296720
_cell_angle_alpha	99.649341
_cell_angle_beta	91.617114
_cell_angle_gamma	80.321044
loop_
_atom_site_label
_atom_site_type_symbol
_atom_site_fract_x
_atom_site_fract_y
_atom_site_fract_z
Zn1	Zn	1.253448	-0.825067	-0.726648
Zn2	Zn	1.753448	-0.325067	-0.226648
Zn3	Zn	1.278720	-0.977718	-0.580172
Zn4	Zn	1.778720	-0.477718	-0.080172
Zn5	Zn	1.132323	-0.765511	-0.554885
Zn6	Zn	1.632323	-0.265511	-0.054885
Zn7	Zn	1.106946	-0.967297	-0.701300
Zn8	Zn	1.606946	-0.467297	-0.201300
O9	O	1.192859	-0.883898	-0.640751
O10	O	1.692859	-0.383898	-0.140751
O11	O	1.379380	-0.874601	-0.728408
O12	O	1.879380	-0.374601	-0.228408
O13	O	1.280497	-0.929005	-0.454242
O14	O	1.780497	-0.429005	0.045758
O15	O	1.148435	-0.625078	-0.577695
O16	O	1.648435	-0.125078	-0.077695
O17	O	1.397947	-0.986754	-0.620794
O18	O	1.897947	-0.486754	-0.120794
O19	O	1.237425	-0.668833	-0.703888
O20	O	1.737425	-0.168833	-0.203888
O21	O	1.172939	-0.773098	-0.435663
O22	O	1.672939	-0.273098	0.064337
O23	O	1.006377	-0.762993	-0.553116
O24	O	1.506377	-0.262993	-0.053116
O25	O	1.105183	-0.968993	-0.827238
O26	O	1.605183	-0.468993	-0.327238
O27	O	0.987732	-0.911244	-0.660687
O28	O	1.487732	-0.411244	-0.160687
O29	O	1.212818	-0.864497	-0.845861
O30	O	1.712818	-0.364497	-0.345861
O31	O	1.255889	-1.124669	-0.596215
O32	O	1.755889	-0.624669	-0.096215
O33	O	1.129687	-1.117013	-0.685207
O34	O	1.629687	-0.617013	-0.185207
C35	C	0.965271	-0.829526	-0.601408
C36	C	1.465271	-0.329526	-0.101408
C37	C	0.867904	-0.806295	-0.584597
C38	C	1.367904	-0.306295	-0.084597
C39	C	0.554772	-1.049945	-0.760902
C40	C	1.054772	-0.549945	-0.260902
C41	C	0.646253	-1.071780	-0.776693
C42	C	1.146253	-0.571780	-0.276693
C43	C	0.701670	-1.005410	-0.728671
C44	C	1.201670	-0.505410	-0.228671
C45	C	0.665597	-0.917203	-0.664853
C46	C	1.165597	-0.417203	-0.164853
C47	C	0.574108	-0.895371	-0.649055
C48	C	1.074108	-0.395371	-0.149055
C49	C	0.721006	-0.850836	-0.616824
C50	C	1.221006	-0.350836	-0.116824
C51	C	0.684933	-0.762629	-0.553007
C52	C	1.184933	-0.262629	-0.053007
C53	C	0.593452	-0.740801	-0.537212
C54	C	1.093452	-0.240801	-0.037212
C55	C	0.538035	-0.807170	-0.585234
C56	C	1.038035	-0.307170	-0.085234
C57	C	0.812496	-0.872668	-0.632623
C58	C	1.312496	-0.372668	-0.132623
C59	C	0.831831	-0.718094	-0.520776
C60	C	1.331831	-0.218094	-0.020776
C61	C	0.740350	-0.696259	-0.504984
C62	C	1.240350	-0.196259	-0.004984
C63	C	1.192797	-1.159311	-0.640728
C64	C	1.692797	-0.659311	-0.140728
C65	C	1.192846	-1.277157	-0.640761
C66	C	1.692846	-0.777157	-0.140761
C67	C	1.113695	-1.440051	-0.697003
C68	C	1.613695	-0.940051	-0.197003
C69	C	1.113388	-1.317372	-0.696725
C70	C	1.613388	-0.817372	-0.196725
C71	C	1.183843	-1.300270	-0.544135
C72	C	1.683843	-0.800270	-0.044135
C73	C	1.183360	-1.422840	-0.544476
C74	C	1.683360	-0.922840	-0.044476
C75	C	1.281541	-1.470384	-0.680468
C76	C	1.781541	-0.970384	-0.180468
C77	C	1.280623	-1.347981	-0.682388
C78	C	1.780623	-0.847981	-0.182388
C79	C	1.421336	-0.938483	-0.680249
C80	C	1.921336	-0.438483	-0.180249
C81	C	1.518699	-0.961744	-0.697081
C82	C	2.018699	-0.461744	-0.197081
C83	C	1.153351	-0.922226	-0.869221
C84	C	1.653351	-0.422226	-0.369221
C85	C	1.136514	-0.938559	-0.966581
C86	C	1.636514	-0.438559	-0.466581
C87	C	1.192942	-0.607419	-0.640798
C88	C	1.692942	-0.107419	-0.140798
C89	C	1.192977	-0.489600	-0.640818
C90	C	1.692977	0.010400	-0.140818
C91	C	1.313223	-0.766986	-1.279808
C92	C	1.813223	-0.266986	-0.779808
C93	C	1.329047	-0.751644	-1.188334
C94	C	1.829047	-0.251644	-0.688334
C95	C	1.280915	-0.798371	-1.132891
C96	C	1.780915	-0.298371	-0.632891
C97	C	1.216957	-0.860444	-1.168931
C98	C	1.716957	-0.360444	-0.668931
C99	C	1.201136	-0.875795	-1.260415
C100	C	1.701136	-0.375795	-0.760415
C101	C	1.168828	-0.907179	-1.113499
C102	C	1.668828	-0.407179	-0.613499
C103	C	1.104870	-0.969252	-1.149538
C104	C	1.604870	-0.469252	-0.649538
C105	C	1.089052	-0.984600	-1.241013
C106	C	1.589052	-0.484600	-0.741013
C107	C	1.137183	-0.937873	-1.296456
C108	C	1.637183	-0.437873	-0.796456
C109	C	1.184649	-0.891828	-1.022015
C110	C	1.684649	-0.391828	-0.522015
C111	C	1.072562	-1.000637	-1.002622
C112	C	1.572562	-0.500637	-0.502622
C113	C	1.056738	-1.015979	-1.094096
C114	C	1.556738	-0.515979	-0.594096
C115	C	1.232264	-0.845655	-0.413179
C116	C	1.732264	-0.345655	0.086821
C117	C	1.249270	-0.829064	-0.315849
C118	C	1.749270	-0.329064	0.184151
H119	H	0.564086	-0.668986	-0.485238
H120	H	1.064086	-0.168986	0.014762
Cl121	Cl	0.691596	-1.182665	-0.856916
Cl122	Cl	1.191596	-0.682665	-0.356916
Cl123	Cl	1.119243	-1.508993	-0.807160
Cl124	Cl	1.619243	-1.008993	-0.307160
Cl125	Cl	1.084139	-1.436973	-0.495489
Cl126	Cl	1.584139	-0.936973	0.004511
Cl127	Cl	1.008662	-1.062656	-1.286321
Cl128	Cl	1.508662	-0.562656	-0.786321
H129	H	0.710966	-0.624440	-0.453023
H130	H	1.210966	-0.124440	0.046977
Cl131	Cl	1.372435	-1.520890	-0.617604
Cl132	Cl	1.872435	-1.020890	-0.117604
H133	H	1.236723	-0.841287	-0.992680
H134	H	1.736723	-0.341287	-0.492680
Cl135	Cl	0.976338	-1.094013	-1.139414
Cl136	Cl	1.476338	-0.594013	-0.639414
Cl137	Cl	1.012055	-1.059390	-0.932930
Cl138	Cl	1.512055	-0.559390	-0.432930
H139	H	0.463542	-0.789395	-0.572381
H140	H	0.963542	-0.289395	-0.072381
H141	H	1.293803	-0.785875	-1.058410
H142	H	1.793803	-0.285875	-0.558410
Cl143	Cl	1.117298	-0.957165	-1.411458
Cl144	Cl	1.617298	-0.457165	-0.911458
H145	H	0.776158	-1.023193	-0.741533
H146	H	1.276158	-0.523193	-0.241533
H147	H	1.120346	-1.250226	-0.512165
H148	H	1.620346	-0.750226	-0.012165
H149	H	0.509645	-1.103979	-0.799989
H150	H	1.009645	-0.603979	-0.299989
Cl151	Cl	0.857833	-0.983553	-0.712849
Cl152	Cl	1.357833	-0.483553	-0.212849
H153	H	0.876953	-0.664052	-0.481671
H154	H	1.376953	-0.164052	0.018329
Cl155	Cl	1.291559	-1.327553	-0.792302
Cl156	Cl	1.791559	-0.827553	-0.292302
Cl157	Cl	1.119221	-1.294335	-0.806572
Cl158	Cl	1.619221	-0.794335	-0.306572
H159	H	1.048109	-1.452052	-0.669746
H160	H	1.548109	-0.952052	-0.169746
Cl161	Cl	1.011518	-1.242839	-0.654223
Cl162	Cl	1.511518	-0.742839	-0.154223
Cl163	Cl	1.409447	-0.673613	-1.143033
Cl164	Cl	1.909447	-0.173613	-0.643033
H165	H	1.239467	-1.454946	-0.500326
H166	H	1.739467	-0.954946	-0.000326
Cl167	Cl	1.271260	-1.259336	-0.476648
Cl168	Cl	1.771260	-0.759336	0.023352
H169	H	1.352410	-0.728955	-1.324958
H170	H	1.852410	-0.228955	-0.824958
H171	H	1.292878	-1.517792	-0.750574
H172	H	1.792878	-1.017792	-0.250574
Cl173	Cl	1.374650	-1.308292	-0.625778
Cl174	Cl	1.874650	-0.808292	-0.125778
