data_functionalizedCrystal
_audit_creation_method	'MofGen! by Chris Wilmer'
_symmetry_space_group_name_H-M	'P1'
_symmetry_Int_Tables_number	1
_symmetry_cell_setting	triclinic
loop_
_symmetry_equiv_pos_as_xyz
  x,y,z
_cell_length_a	17.077404
_cell_length_b	15.299816
_cell_length_c	17.077396
_cell_angle_alpha	99.656369
_cell_angle_beta	89.980499
_cell_angle_gamma	80.351064
loop_
_atom_site_label
_atom_site_type_symbol
_atom_site_fract_x
_atom_site_fract_y
_atom_site_fract_z
Zn1	Zn	1.254116	-0.359055	-0.497975
Zn2	Zn	1.276733	-0.509886	-0.389448
Zn3	Zn	1.122853	-0.359087	-0.366728
Zn4	Zn	1.145518	-0.509832	-0.520664
O5	O	1.199805	-0.434465	-0.443704
O6	O	1.366965	-0.379073	-0.483592
O7	O	1.256301	-0.489918	-0.276593
O8	O	1.121315	-0.232873	-0.365134
O9	O	1.383582	-0.489887	-0.403858
O10	O	1.217753	-0.232849	-0.461560
O11	O	1.143245	-0.379126	-0.259900
O12	O	1.016011	-0.379075	-0.387134
O13	O	1.159944	-0.489796	-0.627496
O14	O	1.032663	-0.489826	-0.500231
O15	O	1.239731	-0.379021	-0.610826
O16	O	1.278278	-0.636089	-0.425859
O17	O	1.181875	-0.636049	-0.522262
C18	C	0.995855	-0.434449	-0.443680
C19	C	0.908607	-0.434463	-0.443691
C20	C	1.235012	-0.668794	-0.479005
C21	C	1.250145	-0.769041	-0.494133
C22	C	0.876321	-0.492219	-0.502513
C23	C	0.794341	-0.492221	-0.502526
C24	C	0.744649	-0.434471	-0.443713
C25	C	0.776940	-0.376709	-0.384888
C26	C	0.858918	-0.376704	-0.384879
C27	C	0.606072	-0.376727	-0.384909
C28	C	0.524089	-0.376734	-0.384917
C29	C	0.541496	-0.492244	-0.502556
C30	C	0.623474	-0.492239	-0.502547
C31	C	0.655759	-0.434478	-0.443721
C32	C	1.092160	-1.051967	-0.335846
C33	C	1.077938	-0.957780	-0.321634
C34	C	1.120989	-0.910591	-0.364757
C35	C	1.178264	-0.957598	-0.422096
C36	C	1.192483	-1.051794	-0.436313
C37	C	1.221311	-0.910417	-0.465225
C38	C	1.278587	-0.957424	-0.522563
C39	C	1.292804	-1.051611	-0.536778
C40	C	1.249753	-1.098801	-0.493654
C41	C	1.207092	-0.816221	-0.451007
C42	C	1.307415	-0.816048	-0.551474
C43	C	1.321637	-0.910235	-0.565686
C44	C	1.404552	-0.434482	-0.443729
C45	C	1.491803	-0.434489	-0.443739
C46	C	1.199843	-0.434399	-0.648438
C47	C	1.199859	-0.434370	-0.735684
C48	C	1.164483	-0.199221	-0.408282
C49	C	1.149430	-0.098974	-0.393187
C50	C	1.241405	-0.376685	-0.767995
C51	C	1.241410	-0.376655	-0.849971
C52	C	1.199873	-0.434315	-0.899635
C53	C	1.158322	-0.492003	-0.867319
C54	C	1.158312	-0.492028	-0.785343
C55	C	1.158345	-0.491949	-1.038181
C56	C	1.158355	-0.491926	-1.120162
C57	C	1.241442	-0.376576	-1.102808
C58	C	1.241433	-0.376601	-1.020832
C59	C	1.199883	-0.434290	-0.988522
C60	C	1.199803	-0.434466	-0.239756
C61	C	1.199901	-0.434240	-0.152473
H62	H	0.768059	-0.539252	-0.550424
H63	H	1.124530	-0.538876	-1.160597
H64	H	1.339438	-1.089881	-0.583470
H65	H	1.124496	-0.538912	-1.011875
H66	H	0.663933	-0.539268	-0.550435
H67	H	0.515205	-0.539273	-0.550457
H68	H	0.483629	-0.329698	-0.337034
H69	H	1.057111	-1.090398	-0.300745
N70	N	1.286227	-0.314432	-0.884805
H71	H	1.328112	-0.351072	-0.924345
H72	H	1.248004	-0.272626	-0.912469
H73	H	1.160458	-0.777957	-0.404322
N74	N	1.286244	-0.314332	-1.137639
H75	H	1.344433	-0.328345	-1.125495
H76	H	1.279885	-0.323077	-1.197095
H77	H	0.632354	-0.329684	-0.337013
H78	H	0.736473	-0.329685	-0.337004
N79	N	1.113494	-0.554243	-0.750497
H80	H	1.135359	-0.618683	-0.774466
H81	H	1.119797	-0.545434	-0.691033
H82	H	1.124498	-0.538948	-0.907762
H83	H	1.261333	-1.175495	-0.505220
H84	H	0.885202	-0.329668	-0.336984
H85	H	1.342469	-0.777627	-0.586591
H86	H	1.109406	-0.833900	-0.353182
H87	H	1.031304	-0.919511	-0.274951
H88	H	1.368271	-0.948521	-0.612372
H89	H	0.916777	-0.539248	-0.550403
H90	H	1.275232	-0.329734	-0.727563
H91	H	1.275261	-0.329654	-0.980398
