data_functionalizedCrystal
_audit_creation_method	'MofGen! by Chris Wilmer'
_symmetry_space_group_name_H-M	'P1'
_symmetry_Int_Tables_number	1
_symmetry_cell_setting	triclinic
loop_
_symmetry_equiv_pos_as_xyz
  x,y,z
_cell_length_a	15.944551
_cell_length_b	15.944551
_cell_length_c	15.021413
_cell_angle_alpha	89.996935
_cell_angle_beta	89.997174
_cell_angle_gamma	96.501262
loop_
_atom_site_label
_atom_site_type_symbol
_atom_site_fract_x
_atom_site_fract_y
_atom_site_fract_z
O1	O	1.114529	-0.108321	-0.073941
O2	O	1.447862	0.225012	0.259392
O3	O	1.781196	0.558346	0.592726
O4	O	0.869979	-0.121677	-0.073964
O5	O	1.203313	0.211656	0.259370
O6	O	1.536646	0.544990	0.592703
O7	O	0.998932	0.007276	-0.073944
O8	O	1.332265	0.340609	0.259390
O9	O	1.665599	0.673943	0.592723
O10	O	0.985576	-0.237274	-0.073961
O11	O	1.318909	0.096060	0.259372
O12	O	1.652243	0.429393	0.592706
O13	O	0.998912	0.007257	0.074121
O14	O	1.332245	0.340591	0.407454
O15	O	1.665578	0.673924	0.740787
O16	O	0.869959	-0.121695	0.074101
O17	O	1.203292	0.211638	0.407434
O18	O	1.536625	0.544971	0.740767
O19	O	1.114508	-0.108339	0.074123
O20	O	1.447842	0.224994	0.407456
O21	O	1.781175	0.558327	0.740790
Zn22	Zn	0.992230	-0.115020	0.097620
Zn23	Zn	1.325564	0.218313	0.430954
Zn24	Zn	1.658897	0.551646	0.764287
Zn25	Zn	0.992257	-0.114996	-0.097461
Zn26	Zn	1.325591	0.218337	0.235873
Zn27	Zn	1.658924	0.551671	0.569206
O28	O	0.985555	-0.237292	0.074103
O29	O	1.318889	0.096041	0.407437
O30	O	1.652222	0.429374	0.740770
C31	C	0.838675	-0.121132	0.000066
C32	C	1.172008	0.212202	0.333399
C33	C	1.505342	0.545535	0.666732
C34	C	0.745429	-0.119470	0.000057
C35	C	1.078762	0.213864	0.333391
C36	C	1.412096	0.547197	0.666724
C37	C	0.530572	-0.035565	0.000081
C38	C	0.863906	0.297768	0.333414
C39	C	1.197239	0.631102	0.666747
C40	C	0.469562	-0.074518	-0.072926
C41	C	0.802896	0.258815	0.260408
C42	C	1.136229	0.592148	0.593741
C43	C	0.574703	-0.116462	0.000068
C44	C	0.908036	0.216871	0.333402
C45	C	1.241370	0.550204	0.666735
C46	C	0.469564	-0.074556	0.073054
C47	C	0.802898	0.258778	0.406387
C48	C	1.136231	0.592111	0.739721
C49	C	0.409790	-0.113551	0.000083
C50	C	0.743124	0.219782	0.333416
C51	C	1.076457	0.553115	0.666749
C52	C	0.514921	-0.155438	-0.072998
C53	C	0.848255	0.177896	0.260335
C54	C	1.181588	0.511229	0.593668
C55	C	0.514930	-0.155464	0.073047
C56	C	0.848263	0.177870	0.406380
C57	C	1.181596	0.511203	0.739714
C58	C	0.453937	-0.194476	0.000023
C59	C	0.787271	0.138857	0.333356
C60	C	1.120604	0.472191	0.666690
C61	C	0.669705	-0.118137	0.000059
C62	C	1.003039	0.215197	0.333393
C63	C	1.336372	0.548530	0.666726
C64	C	0.314789	-0.111883	0.000085
C65	C	0.648123	0.221450	0.333418
C66	C	0.981456	0.554783	0.666752
C67	C	0.998367	0.038561	0.000089
C68	C	1.331701	0.371894	0.333422
C69	C	1.665034	0.705227	0.666755
C70	C	0.996705	0.131807	0.000089
C71	C	1.330038	0.465140	0.333422
C72	C	1.663372	0.798473	0.666756
C73	C	1.145813	-0.108885	0.000092
C74	C	1.479146	0.224449	0.333425
C75	C	1.812479	0.557782	0.666758
C76	C	1.239059	-0.110547	0.000094
C77	C	1.572392	0.222786	0.333428
C78	C	1.905725	0.556120	0.666761
C79	C	0.986120	-0.268577	0.000069
C80	C	1.319453	0.064756	0.333402
C81	C	1.652787	0.398090	0.666736
C82	C	0.987782	-0.361823	0.000063
C83	C	1.321116	-0.028490	0.333396
C84	C	1.654449	0.304844	0.666730
N85	N	0.992218	-0.115036	0.230758
N86	N	1.325551	0.218297	0.564091
N87	N	1.658885	0.551630	0.897425
C88	C	0.912801	0.346663	0.000069
C89	C	1.246134	0.679997	0.333402
C90	C	1.579467	1.013330	0.666736
C91	C	0.951753	0.407672	0.073077
C92	C	1.285086	0.741005	0.406410
C93	C	1.618420	1.074338	0.739744
C94	C	0.993698	0.302533	0.000082
C95	C	1.327031	0.635866	0.333415
C96	C	1.660365	0.969199	0.666748
C97	C	0.951792	0.407673	-0.072903
C98	C	1.285126	0.741006	0.260431
C99	C	1.618459	1.074340	0.593764
C100	C	0.990787	0.467445	0.000071
C101	C	1.324120	0.800779	0.333404
C102	C	1.657454	1.134112	0.666738
C103	C	1.032672	0.362313	0.073150
C104	C	1.366006	0.695646	0.406484
C105	C	1.699339	1.028979	0.739817
C106	C	1.032700	0.362308	-0.072895
C107	C	1.366034	0.695641	0.260438
C108	C	1.699367	1.028974	0.593772
C109	C	1.071711	0.423298	0.000131
C110	C	1.405045	0.756632	0.333464
C111	C	1.738378	1.089965	0.666798
C112	C	0.995372	0.207530	0.000089
C113	C	1.328706	0.540864	0.333422
C114	C	1.662039	0.874197	0.666755
C115	C	0.989119	0.562446	0.000070
C116	C	1.322452	0.895780	0.333404
C117	C	1.655785	1.229113	0.666737
N118	N	0.992276	-0.114973	-0.230598
N119	N	1.325610	0.218360	0.102735
N120	N	1.658943	0.551693	0.436068
C121	C	0.932581	-0.174636	0.470432
C122	C	1.265914	0.158697	0.803765
C123	C	1.599248	0.492031	1.137099
C124	C	1.008481	-0.190943	0.529772
C125	C	1.341815	0.142390	0.863105
C126	C	1.675148	0.475723	1.196439
C127	C	0.992239	-0.115015	0.412365
C128	C	1.325573	0.218318	0.745698
C129	C	1.658906	0.551651	1.079031
C130	C	0.916360	-0.098727	0.529766
C131	C	1.249693	0.234606	0.863100
C132	C	1.583026	0.567940	1.196433
C133	C	0.992253	-0.114997	0.587789
C134	C	1.325587	0.218336	0.921122
C135	C	1.658920	0.551670	1.254456
C136	C	1.068178	-0.131360	0.470398
C137	C	1.401511	0.201973	0.803732
C138	C	1.734845	0.535307	1.137065
C139	C	0.976006	-0.039111	0.470387
C140	C	1.309340	0.294222	0.803721
C141	C	1.642673	0.627556	1.137054
C142	C	1.051962	-0.055386	0.529701
C143	C	1.385295	0.277947	0.863034
C144	C	1.718628	0.611281	1.196368
C145	C	0.992230	-0.115028	0.311307
C146	C	1.325564	0.218305	0.644641
C147	C	1.658897	0.551639	0.977974
C148	C	0.992271	-0.114984	0.688844
C149	C	1.325605	0.218350	1.022177
C150	C	1.658938	0.551683	1.355511
H151	H	0.449461	-0.040295	-0.134642
H152	H	0.782794	0.293039	0.198691
H153	H	1.116127	0.626372	0.532024
H154	H	0.917528	0.427772	0.134794
H155	H	1.250861	0.761106	0.468127
H156	H	1.584195	1.094439	0.801460
N157	N	0.540010	-0.198337	-0.150497
N158	N	0.873343	0.134996	0.182836
N159	N	1.206677	0.468330	0.516170
N160	N	0.616159	-0.206517	-0.163020
N161	N	0.949493	0.126816	0.170314
N162	N	1.282826	0.460149	0.503647
H163	H	0.633881	-0.236819	-0.217749
H164	H	0.967214	0.096514	0.115584
H165	H	1.300547	0.429847	0.448918
H166	H	0.917574	0.427758	-0.134630
H167	H	1.250907	0.761091	0.198704
H168	H	1.584241	1.094424	0.532037
H169	H	1.132368	-0.145206	0.444430
H170	H	1.465701	0.188128	0.777764
H171	H	1.799035	0.521461	1.111097
N172	N	0.444357	-0.031615	0.150474
N173	N	0.777690	0.301718	0.483807
N174	N	1.111024	0.635052	0.817141
N175	N	0.472129	0.043879	0.163466
N176	N	0.805462	0.377212	0.496799
N177	N	1.138796	0.710546	0.830132
H178	H	0.454329	0.074212	0.218140
H179	H	0.787662	0.407546	0.551473
H180	H	1.120996	0.740879	0.884806
N181	N	0.828562	0.304886	0.000155
N182	N	1.161896	0.638220	0.333488
N183	N	1.495229	0.971553	0.666821
N184	N	0.779594	0.316735	0.062739
N185	N	1.112928	0.650069	0.396072
N186	N	1.446261	0.983402	0.729405
H187	H	0.720102	0.287230	0.062803
H188	H	1.053435	0.620564	0.396136
H189	H	1.386768	0.953897	0.729470
H190	H	1.066851	0.342314	0.134941
H191	H	1.400184	0.675648	0.468274
H192	H	1.733518	1.008981	0.801607
N193	N	1.156019	0.464902	0.000205
N194	N	1.489352	0.798235	0.333539
N195	N	1.822685	1.131569	0.666872
N196	N	1.180425	0.513824	0.062341
N197	N	1.513758	0.847157	0.395675
N198	N	1.847091	1.180491	0.729008
H199	H	1.239966	0.543208	0.062399
H200	H	1.573300	0.876541	0.395733
H201	H	1.906633	1.209874	0.729066
H202	H	0.962240	0.025051	0.444283
H203	H	1.295573	0.358384	0.777616
H204	H	1.628907	0.691718	1.110949
H205	H	0.882181	-0.225096	0.444409
H206	H	1.215514	0.108237	0.777742
H207	H	1.548847	0.441570	1.111075
H208	H	1.066896	0.342185	-0.134615
H209	H	1.400229	0.675518	0.198719
H210	H	1.733562	1.008852	0.532052
N211	N	1.025717	-0.271463	0.562486
N212	N	1.359050	0.061871	0.895820
N213	N	1.692384	0.395204	1.229153
N214	N	0.977343	-0.336232	0.543498
N215	N	1.310677	-0.002898	0.876831
N216	N	1.644010	0.330435	1.210164
H217	H	0.989511	-0.393101	0.566598
H218	H	1.322845	-0.059768	0.899931
H219	H	1.656178	0.273565	1.233264
H220	H	1.102474	-0.004956	0.555561
H221	H	1.435807	0.328378	0.888894
H222	H	1.769141	0.661711	1.222228
N223	N	0.835850	-0.081466	0.562486
N224	N	1.169183	0.251867	0.895819
N225	N	1.502517	0.585201	1.229153
N226	N	0.771067	-0.129819	0.543496
N227	N	1.104400	0.203514	0.876830
N228	N	1.437734	0.536847	1.210163
H229	H	0.714205	-0.117637	0.566604
H230	H	1.047538	0.215696	0.899938
H231	H	1.380871	0.549029	1.233271
H232	H	0.563905	0.031573	-0.000005
H233	H	0.897238	0.364906	0.333328
H234	H	1.230572	0.698240	0.666662
H235	H	0.420779	-0.261683	-0.000023
H236	H	0.754112	0.071650	0.333311
H237	H	1.087445	0.404984	0.666644
H238	H	0.535052	-0.189659	0.134767
H239	H	0.868386	0.143674	0.468100
H240	H	1.201719	0.477007	0.801433
