data_functionalizedCrystal
_audit_creation_method	'MofGen! by Chris Wilmer'
_symmetry_space_group_name_H-M	'P1'
_symmetry_Int_Tables_number	1
_symmetry_cell_setting	triclinic
loop_
_symmetry_equiv_pos_as_xyz
  x,y,z
_cell_length_a	14.044220
_cell_length_b	14.044190
_cell_length_c	13.330367
_cell_angle_alpha	89.990836
_cell_angle_beta	89.997392
_cell_angle_gamma	93.190328
loop_
_atom_site_label
_atom_site_type_symbol
_atom_site_fract_x
_atom_site_fract_y
_atom_site_fract_z
O1	O	1.277178	0.230168	-0.083337
O2	O	1.000506	0.221862	-0.083362
O3	O	1.134686	0.087679	-0.083330
O4	O	1.142999	0.364351	-0.083369
O5	O	1.134664	0.087674	0.083517
O6	O	1.000485	0.221857	0.083485
O7	O	1.277157	0.230163	0.083510
Cu8	Cu	1.138819	0.226010	0.098732
Cu9	Cu	1.138844	0.226016	-0.098584
O10	O	1.142977	0.364346	0.083478
C11	C	0.964874	0.218224	0.000059
C12	C	0.858731	0.207380	0.000050
C13	C	0.664392	0.187553	0.000073
C14	C	0.613264	0.264468	0.000066
C15	C	0.505128	0.253436	0.000079
C16	C	0.772539	0.198583	0.000060
C17	C	1.131039	0.052054	0.000096
C18	C	1.120191	-0.054089	0.000104
C19	C	1.177292	-0.299547	0.000070
C20	C	1.100375	-0.248422	0.000070
C21	C	1.111404	-0.140285	0.000089
C22	C	1.166265	-0.407694	0.000051
C23	C	1.312789	0.233801	0.000087
C24	C	1.418932	0.244646	0.000089
C25	C	1.146624	0.399971	0.000050
C26	C	1.157472	0.506114	0.000036
N27	N	1.138808	0.226005	0.237514
N28	N	1.138862	0.226013	-0.237365
C29	C	1.079425	0.285406	0.710122
C30	C	1.198289	0.166620	0.710119
C31	C	1.198278	0.166616	0.605100
C32	C	1.138840	0.226009	0.552588
C33	C	1.079414	0.285406	0.605094
C34	C	1.257710	0.107227	0.552586
C35	C	1.257702	0.107221	0.447561
C36	C	1.198259	0.166610	0.395047
C37	C	1.138830	0.226009	0.447560
C38	C	1.079392	0.285403	0.395048
C39	C	1.019957	0.344797	0.447559
C40	C	1.019970	0.344796	0.552580
C41	C	1.198245	0.166612	0.290026
C42	C	1.079381	0.285403	0.290020
H43	H	1.026243	-0.285865	0.000057
Cl44	Cl	1.291740	-0.241740	0.000096
Cl45	Cl	0.671066	0.378926	0.000044
H46	H	1.246686	0.118268	0.752877
Cl47	Cl	1.004650	0.360068	0.224013
Cl48	Cl	0.945245	0.419467	0.381532
Cl49	Cl	1.332415	0.032553	0.381555
Cl50	Cl	0.606589	0.073103	0.000091
Cl51	Cl	0.945261	0.419460	0.618596
Cl52	Cl	1.272964	0.091957	0.224019
Cl53	Cl	1.004705	0.360067	0.776130
Cl54	Cl	1.332436	0.032570	0.618598
