data_functionalizedCrystal
_audit_creation_method	'MofGen! by Chris Wilmer'
_symmetry_space_group_name_H-M	'P1'
_symmetry_Int_Tables_number	1
_symmetry_cell_setting	triclinic
loop_
_symmetry_equiv_pos_as_xyz
  x,y,z
_cell_length_a	12.594516
_cell_length_b	12.594517
_cell_length_c	14.908308
_cell_angle_alpha	86.722292
_cell_angle_beta	93.271498
_cell_angle_gamma	89.984147
loop_
_atom_site_label
_atom_site_type_symbol
_atom_site_fract_x
_atom_site_fract_y
_atom_site_fract_z
Zn1	Zn	-0.458461	-1.592508	-0.510130
Zn2	Zn	-0.626197	-1.602677	-0.359287
Zn3	Zn	-0.448232	-1.424790	-0.359288
Zn4	Zn	-0.636394	-1.414496	-0.510095
O5	O	-0.542321	-1.508618	-0.434700
O6	O	-0.480724	-1.742802	-0.490135
O7	O	-0.594041	-1.587643	-0.233045
O8	O	-0.300644	-1.447090	-0.379313
O9	O	-0.603959	-1.750273	-0.379311
O10	O	-0.308159	-1.570312	-0.490136
O11	O	-0.463291	-1.456951	-0.233046
O12	O	-0.473179	-1.274480	-0.379278
O13	O	-0.621339	-1.429546	-0.636341
O14	O	-0.611421	-1.266917	-0.490075
O15	O	-0.490612	-1.560331	-0.636368
O16	O	-0.776494	-1.577662	-0.379276
O17	O	-0.783986	-1.439407	-0.490074
C18	C	-0.818861	-1.508549	-0.434691
C19	C	-0.937169	-1.508614	-0.434717
C20	C	-0.542298	-1.232079	-0.434673
C21	C	-0.542315	-1.113772	-0.434683
C22	C	-0.558254	-1.492656	-0.670003
C23	C	-0.565044	-1.485854	-0.770275
C24	C	-1.010533	-1.433413	-0.494938
C25	C	-1.075791	-1.413089	-0.412620
C26	C	-1.082710	-1.529035	-0.517050
C27	C	-1.000866	-1.488242	-0.352355
C28	C	-1.007782	-1.604229	-0.456841
C29	C	-1.073005	-1.583945	-0.374466
C30	C	-0.264702	-1.508715	-0.434729
C31	C	-0.146397	-1.508756	-0.434741
C32	C	-0.542345	-1.786237	-0.434727
C33	C	-0.542355	-1.904541	-0.434739
C34	C	-0.467036	-1.048594	-0.374536
C35	C	-0.562614	-0.979295	-0.352349
C36	C	-0.446786	-0.972272	-0.456885
C37	C	-0.637941	-1.046034	-0.412454
C38	C	-0.522050	-1.039015	-0.517028
C39	C	-0.617697	-0.969746	-0.494873
C40	C	-0.441652	-1.609255	-0.958726
C41	C	-0.448028	-1.602868	-1.052940
C42	C	-0.584166	-1.466686	-1.052920
C43	C	-0.577790	-1.473074	-0.958706
C44	C	-0.506532	-1.544362	-0.911612
C45	C	-0.500162	-1.550754	-0.817396
C46	C	-0.636294	-1.414569	-0.817377
C47	C	-0.642670	-1.408181	-0.911592
C48	C	-0.526373	-1.524579	-0.200312
C49	C	-0.519283	-1.531587	-0.100041
H50	H	-0.982961	-1.369716	-0.545791
C51	C	-0.376658	-1.674258	-1.104763
N52	N	-0.322899	-1.728033	-1.143795
H53	H	-0.383636	-1.667306	-0.920381
H54	H	-0.365990	-0.939869	-0.475609
C55	C	-0.721042	-1.329761	-0.963406
N56	N	-0.780073	-1.270692	-1.002431
H57	H	-1.105737	-1.332295	-0.393926
H58	H	-0.965227	-1.470933	-0.282718
C59	C	-0.662517	-1.388250	-1.104740
N60	N	-0.721525	-1.329163	-1.143771
C61	C	-0.421773	-1.629168	-0.765594
N62	N	-0.362725	-1.688228	-0.726579
H63	H	-0.689127	-1.361730	-0.779007
H64	H	-1.100371	-1.647605	-0.323491
C65	C	-0.498814	-1.074749	-0.611042
N66	N	-0.481299	-1.101670	-0.681853
H67	H	-0.977842	-1.685001	-0.475574
H68	H	-1.118476	-1.546250	-0.586669
H69	H	-0.403430	-1.083085	-0.323608
C70	C	-0.585799	-0.943599	-0.258306
N71	N	-0.603254	-0.916714	-0.187472
C72	C	-0.703816	-0.923405	-0.563617
N73	N	-0.768684	-0.888497	-0.615389
C74	C	-0.747126	-1.089566	-0.387001
N75	N	-0.829362	-1.122356	-0.367825
