data_functionalizedCrystal
_audit_creation_method	'MofGen! by Chris Wilmer'
_symmetry_space_group_name_H-M	'P1'
_symmetry_Int_Tables_number	1
_symmetry_cell_setting	triclinic
loop_
_symmetry_equiv_pos_as_xyz
  x,y,z
_cell_length_a	21.606444
_cell_length_b	23.196402
_cell_length_c	23.196401
_cell_angle_alpha	59.997774
_cell_angle_beta	90.004828
_cell_angle_gamma	60.005326
loop_
_atom_site_label
_atom_site_type_symbol
_atom_site_fract_x
_atom_site_fract_y
_atom_site_fract_z
Zr1	Zr	0.596275	0.631013	-0.075657
O2	O	0.497447	0.751286	-0.167708
O3	O	0.626561	0.510748	-0.047441
O4	O	0.626551	0.631030	-0.167717
O5	O	0.497476	0.630988	0.047446
O6	O	0.728400	0.631034	-0.167720
O7	O	0.497458	0.631004	-0.047433
O8	O	0.728420	0.415872	0.047430
O9	O	0.497457	0.846150	-0.167704
O10	O	0.715499	0.560215	-0.035407
O11	O	0.639504	0.560200	0.035403
O12	O	0.639491	0.701816	-0.106206
O13	O	0.563495	0.701801	-0.035396
Zr14	Zr	0.758743	0.630994	0.075658
Zr15	Zr	0.758713	0.631020	-0.075662
Zr16	Zr	0.596305	0.630987	0.075664
Zr17	Zr	0.596291	0.782310	-0.075651
Zr18	Zr	0.758727	0.479696	0.075653
O19	O	0.728456	0.751259	0.047443
O20	O	0.728413	0.751295	-0.167716
O21	O	0.497489	0.751249	0.047451
O22	O	0.857571	0.510721	0.167709
O23	O	0.857528	0.510758	-0.047449
O24	O	0.626604	0.510711	0.167717
O25	O	0.857541	0.631019	-0.047445
O26	O	0.728467	0.630977	0.167718
O27	O	0.626617	0.630973	0.167722
O28	O	0.857560	0.631003	0.047434
O29	O	0.626574	0.846156	-0.167709
O30	O	0.728444	0.415851	0.167710
O31	O	0.857561	0.415857	0.167706
O32	O	0.857537	0.415877	0.047426
O33	O	0.497481	0.846130	-0.047425
O34	O	0.626598	0.846135	-0.047429
O35	O	0.715527	0.560191	0.106207
O36	O	0.791522	0.560206	0.035398
O37	O	0.715514	0.701807	-0.035401
O38	O	0.639519	0.701792	0.035408
C39	C	0.677488	0.441754	-0.000006
C40	C	0.677481	0.377524	-0.000009
C41	C	0.733602	0.295089	0.052254
C42	C	0.733607	0.234728	0.052261
C43	C	0.677497	0.256808	-0.000007
C44	C	0.621367	0.339258	-0.052274
C45	C	0.621359	0.399615	-0.052275
C46	C	0.660014	0.201231	-0.063803
C47	C	0.660027	0.140872	-0.063802
C48	C	0.677518	0.070646	-0.000004
C49	C	0.695011	0.060777	0.063799
C50	C	0.695003	0.121135	0.063798
C51	C	0.677499	0.191366	-0.000011
C52	C	0.733647	-0.077242	0.052270
C53	C	0.733648	-0.137602	0.052277
C54	C	0.621410	-0.033070	-0.052263
C55	C	0.621407	0.027287	-0.052264
C56	C	0.677529	0.005196	0.000002
C57	C	0.474323	0.630995	0.000008
C58	C	0.405364	0.630993	0.000010
C59	C	0.412640	0.557079	0.036964
C60	C	0.347842	0.557081	0.036964
C61	C	0.275770	0.630998	0.000007
C62	C	0.268495	0.704917	-0.036948
C63	C	0.333292	0.704914	-0.036944
C64	C	0.007177	0.704932	-0.036964
C65	C	-0.057621	0.704929	-0.036967
C66	C	0.021728	0.557098	0.036945
C67	C	0.086524	0.557095	0.036949
C68	C	0.079244	0.631014	-0.000003
C69	C	0.149505	0.631011	-0.000002
C70	C	0.205509	0.631002	0.000001
C71	C	0.880695	0.631012	-0.000006
C72	C	0.949654	0.631014	-0.000008
C73	C	0.677471	0.631036	-0.189278
C74	C	0.677458	0.631047	-0.253518
C75	C	0.677529	0.820253	0.000008
C76	C	0.677536	0.884483	0.000010
C77	C	0.733570	0.631051	-0.283683
C78	C	0.733587	0.631034	-0.344030
C79	C	0.677480	0.631031	-0.374217
C80	C	0.621364	0.631022	-0.344043
C81	C	0.621353	0.631031	-0.283693
C82	C	0.609011	0.678521	-0.493595
C83	C	0.609021	0.678518	-0.553946
C84	C	0.677514	0.631002	-0.560353
C85	C	0.746001	0.583499	-0.506408
C86	C	0.745990	0.583507	-0.446058
C87	C	0.677486	0.631021	-0.439656
C88	C	0.733648	0.630986	-0.655953
C89	C	0.733666	0.630965	-0.716298
C90	C	0.621436	0.630961	-0.716314
C91	C	0.621425	0.630974	-0.655965
C92	C	0.677531	0.630991	-0.625791
C93	C	0.677546	0.630971	0.189280
C94	C	0.677559	0.630960	0.253520
C95	C	0.880674	0.441762	-0.000013
C96	C	0.949627	0.377535	-0.000018
C97	C	0.677526	0.441721	0.189273
C98	C	0.677532	0.377480	0.253510
C99	C	0.880712	0.441729	0.189266
C100	C	0.949677	0.377491	0.253501
C101	C	0.474306	0.820278	-0.189265
C102	C	0.405341	0.884516	-0.253499
C103	C	0.474343	0.820245	0.000015
C104	C	0.405391	0.884472	0.000019
C105	C	0.677492	0.820286	-0.189271
C106	C	0.677486	0.884527	-0.253509
C107	C	0.942324	0.347378	-0.036986
C108	C	1.007106	0.287038	-0.037004
C109	C	1.079190	0.256853	-0.000051
C110	C	1.086491	0.287015	0.036918
C111	C	1.021710	0.347358	0.036932
C112	C	0.717218	0.347308	0.320642
C113	C	0.717220	0.286955	0.381006
C114	C	0.677541	0.256772	0.374236
C115	C	0.637850	0.286951	0.307096
C116	C	0.637843	0.347307	0.246734
C117	C	1.021739	0.347332	0.246704
C118	C	1.086546	0.286982	0.307054
C119	C	1.079288	0.256788	0.374200
C120	C	1.007218	0.286953	0.380995
C121	C	0.942413	0.347306	0.320646
C122	C	0.333278	0.914682	-0.246703
C123	C	0.268472	0.975051	-0.307053
C124	C	0.275730	1.005248	-0.374198
C125	C	0.347800	0.975079	-0.380993
C126	C	0.412604	0.914716	-0.320644
C127	C	0.412694	0.914635	0.036981
C128	C	0.347912	0.974992	0.036983
C129	C	0.275828	1.005179	0.000027
C130	C	0.268527	0.975014	-0.036939
C131	C	0.333308	0.914663	-0.036945
C132	C	0.717173	0.914690	-0.246716
C133	C	0.717183	0.975043	-0.307068
C134	C	0.677500	1.005235	-0.374212
C135	C	0.637811	0.975066	-0.381003
C136	C	0.637807	0.914710	-0.320652
H137	H	0.709248	0.003600	0.115749
Br138	Br	0.545196	0.631024	-0.242750
Br139	Br	0.170673	1.015979	-0.297814
H140	H	0.749501	0.999601	-0.301524
H141	H	0.471321	0.496887	0.067062
H142	H	1.027663	0.371908	0.192037
Br143	Br	1.167101	0.174958	-0.000077
Br144	Br	0.677513	1.087149	-0.456111
Br145	Br	0.187772	1.087171	-0.456095
Br146	Br	0.584003	0.245980	0.297920
Br147	Br	0.636288	0.154270	-0.150389
H148	H	1.145222	0.262428	0.301509
H149	H	1.145190	0.262429	0.067005
H150	H	0.353871	0.999542	0.067088
H151	H	0.553256	0.717201	-0.597867
Br152	Br	0.357722	0.456765	0.087129
H153	H	0.471279	0.890155	-0.326186
Br154	Br	0.583981	0.388245	0.155629
H155	H	0.223085	1.054321	0.000037
Br156	Br	0.583952	1.016057	-0.472133
H157	H	0.749544	0.262391	0.435667
H158	H	1.132062	0.207645	0.423334
Br159	Br	0.323383	0.873730	-0.087108
Br160	Br	0.771035	0.873728	-0.155599
H161	H	0.605485	0.890158	-0.326192
H162	H	0.779301	0.277094	0.094814
Br163	Br	0.170692	1.015990	-0.087088
H164	H	1.001320	0.262360	0.435673
Br165	Br	0.510514	0.873682	0.087139
H166	H	1.001146	0.262487	-0.067109
Br167	Br	0.809777	0.122838	0.123193
H168	H	0.749530	0.371876	0.326168
Br169	Br	0.809811	-0.107218	0.123201
Br170	Br	0.718744	0.107743	0.150381
H171	H	0.553230	0.717207	-0.488382
H172	H	0.145207	0.496904	0.067041
Br173	Br	0.357636	1.016068	-0.472125
H174	H	0.575681	0.357232	-0.094830
H175	H	0.779347	-0.204727	0.094840
Br176	Br	0.323416	0.805230	-0.087093
H177	H	0.027649	0.496910	0.067034
H178	H	-0.116308	0.765125	-0.067064
Br179	Br	0.545253	-0.003096	-0.123193
H180	H	0.883739	0.371854	0.326189
H181	H	0.327354	0.890098	-0.192035
Br182	Br	0.545239	0.139171	-0.123197
H183	H	0.645763	0.258414	-0.115760
H184	H	0.575655	0.466741	-0.094833
Br185	Br	0.170682	0.805235	-0.087099
Br186	Br	-0.002711	0.805250	-0.087114
H187	H	0.779282	0.631037	-0.368595
Br188	Br	0.838930	0.519038	-0.372847
Br189	Br	0.809713	0.631069	-0.242729
Br190	Br	0.838963	0.519015	-0.515097
H191	H	0.779362	0.630963	-0.740856
Br192	Br	0.809793	0.631005	-0.614997
Br193	Br	0.677557	0.174860	0.456164
H194	H	0.575756	0.630953	-0.740889
H195	H	0.575682	0.631017	-0.368623
Br196	Br	0.545268	0.630973	-0.615024
Br197	Br	0.844504	0.388333	-0.087146
H198	H	1.027666	0.371904	0.067040
