data_functionalizedCrystal
_audit_creation_method	'MofGen! by Chris Wilmer'
_symmetry_space_group_name_H-M	'P1'
_symmetry_Int_Tables_number	1
_symmetry_cell_setting	triclinic
loop_
_symmetry_equiv_pos_as_xyz
  x,y,z
_cell_length_a	12.645323
_cell_length_b	19.805407
_cell_length_c	19.805405
_cell_angle_alpha	89.977440
_cell_angle_beta	89.967550
_cell_angle_gamma	90.023054
loop_
_atom_site_label
_atom_site_type_symbol
_atom_site_fract_x
_atom_site_fract_y
_atom_site_fract_z
Zn1	Zn	-0.599401	-1.034761	-0.269527
Zn2	Zn	-0.099401	-0.534761	0.230473
Zn3	Zn	-0.422118	-1.034669	-0.382722
Zn4	Zn	0.077882	-0.534669	0.117278
Zn5	Zn	-0.422144	-0.921568	-0.269545
Zn6	Zn	0.077856	-0.421568	0.230455
Zn7	Zn	-0.599332	-0.921540	-0.382672
Zn8	Zn	-0.099332	-0.421540	0.117328
O9	O	-0.510749	-0.978135	-0.326117
O10	O	-0.010749	-0.478135	0.173883
O11	O	-0.575902	-1.129466	-0.284556
O12	O	-0.075902	-0.629466	0.215444
O13	O	-0.273774	-1.019639	-0.367737
O14	O	0.226226	-0.519639	0.132263
O15	O	-0.445698	-0.936635	-0.174826
O16	O	0.054302	-0.436635	0.325174
O17	O	-0.445653	-1.129397	-0.367720
O18	O	0.054347	-0.629397	0.132280
O19	O	-0.575928	-1.019797	-0.174813
O20	O	-0.075928	-0.519797	0.325187
O21	O	-0.273793	-0.936545	-0.284586
O22	O	0.226207	-0.436545	0.215414
O23	O	-0.445631	-0.826848	-0.284538
O24	O	0.054369	-0.326848	0.215462
O25	O	-0.747688	-0.936585	-0.367635
O26	O	-0.247688	-0.436585	0.132365
O27	O	-0.575810	-0.826827	-0.367652
O28	O	-0.075810	-0.326827	0.132348
O29	O	-0.747739	-1.019769	-0.284508
O30	O	-0.247739	-0.519769	0.215492
O31	O	-0.445585	-1.019611	-0.477432
O32	O	0.054415	-0.519611	0.022568
O33	O	-0.575784	-0.936495	-0.477395
O34	O	-0.075784	-0.436495	0.022605
C35	C	-0.510716	-0.802278	-0.326092
C36	C	-0.010716	-0.302278	0.173908
C37	C	-0.510728	-0.727047	-0.326097
C38	C	-0.010728	-0.227047	0.173903
C39	C	-0.578650	-0.691738	-0.282870
C40	C	-0.078650	-0.191738	0.217130
C41	C	-0.578652	-0.621050	-0.282872
C42	C	-0.078652	-0.121050	0.217128
C43	C	-0.510735	-0.585671	-0.326106
C44	C	-0.010735	-0.085671	0.173894
C45	C	-0.442805	-0.620984	-0.369335
C46	C	0.057195	-0.120984	0.130665
C47	C	-0.442799	-0.691671	-0.369329
C48	C	0.057201	-0.191671	0.130671
C49	C	-0.442826	-0.335911	-0.369360
C50	C	0.057174	0.164089	0.130640
C51	C	-0.442840	-0.265218	-0.369364
C52	C	0.057160	0.234782	0.130636
C53	C	-0.578679	-0.265290	-0.282903
C54	C	-0.078679	0.234710	0.217097
C55	C	-0.578673	-0.335977	-0.282897
C56	C	-0.078673	0.164023	0.217103
C57	C	-0.510740	-0.371284	-0.326123
C58	C	-0.010740	0.128716	0.173877
C59	C	-0.510738	-0.447932	-0.326120
C60	C	-0.010738	0.052068	0.173880
C61	C	-0.510742	-0.509024	-0.326113
C62	C	-0.010742	-0.009024	0.173887
C63	C	-0.787254	-0.978184	-0.326064
C64	C	-0.287254	-0.478184	0.173936
C65	C	-0.905084	-0.978206	-0.326042
C66	C	-0.405084	-0.478206	0.173958
C67	C	-1.072617	-0.925713	-0.378091
C68	C	-0.572617	-0.425713	0.121909
C69	C	-0.950057	-0.925851	-0.378348
C70	C	-0.450057	-0.425851	0.121652
C71	C	-0.949601	-1.049521	-0.345404
C72	C	-0.449601	-0.549521	0.154596
C73	C	-1.072199	-1.049233	-0.345731
C74	C	-0.572199	-0.549233	0.154269
C75	C	-1.072297	-0.960057	-0.254340
C76	C	-0.572297	-0.460057	0.245660
C77	C	-0.949690	-0.958466	-0.254769
C78	C	-0.449690	-0.458466	0.245231
C79	C	-0.235319	-0.978124	-0.326120
C80	C	0.264681	-0.478124	0.173880
C81	C	-0.117490	-0.978234	-0.325951
C82	C	0.382510	-0.478234	0.174049
C83	C	-0.510697	-0.978058	-0.501973
C84	C	-0.010697	-0.478058	-0.001973
C85	C	-0.510711	-0.978088	-0.577205
C86	C	-0.010711	-0.478088	-0.077205
C87	C	-0.510772	-0.154677	-0.326137
C88	C	-0.010772	0.345323	0.173863
C89	C	-0.510758	-0.229909	-0.326132
C90	C	-0.010758	0.270091	0.173868
C91	C	-0.442988	-1.021408	-0.612545
C92	C	0.057012	-0.521408	-0.112545
C93	C	-0.443011	-1.021437	-0.683234
C94	C	0.056989	-0.521437	-0.183234
C95	C	-0.510753	-0.978141	-0.718580
C96	C	-0.010753	-0.478141	-0.218580
C97	C	-0.578484	-0.934819	-0.683234
C98	C	-0.078484	-0.434819	-0.183234
C99	C	-0.578465	-0.934794	-0.612547
C100	C	-0.078465	-0.434794	-0.112547
C101	C	-0.578563	-0.934919	-0.968308
C102	C	-0.078563	-0.434919	-0.468308
C103	C	-0.578574	-0.934946	-1.039000
C104	C	-0.078574	-0.434946	-0.539000
C105	C	-0.443108	-1.021561	-1.038994
C106	C	0.056892	-0.521561	-0.538994
C107	C	-0.443090	-1.021537	-0.968307
C108	C	0.056910	-0.521537	-0.468307
C109	C	-0.510824	-0.978217	-0.932967
C110	C	-0.010824	-0.478217	-0.432967
C111	C	-0.510799	-0.978187	-0.856319
C112	C	-0.010799	-0.478187	-0.356319
C113	C	-0.510773	-0.978167	-0.795227
C114	C	-0.010773	-0.478167	-0.295227
C115	C	-0.510823	-0.978229	-0.149574
C116	C	-0.010823	-0.478229	0.350426
C117	C	-0.510855	-0.978270	-0.074342
C118	C	-0.010855	-0.478270	0.425658
H119	H	-0.633981	-0.364779	-0.247694
H120	H	-0.133981	0.135221	0.252306
N121	N	-0.370066	-1.068295	-1.077112
N122	N	0.129934	-0.568295	-0.577112
H123	H	-0.327147	-1.095716	-1.043993
H124	H	0.172853	-0.595716	-0.543993
H125	H	-0.320975	-1.040772	-1.106487
H126	H	0.179025	-0.540772	-0.606487
H127	H	-0.387530	-0.236415	-0.404571
H128	H	0.112470	0.263585	0.095429
H129	H	-1.103204	-0.908961	-0.236691
H130	H	-0.603204	-0.408961	0.263309
N131	N	-0.369556	-0.373986	-0.415978
N132	N	0.130444	0.126014	0.084022
H133	H	-0.326537	-0.340846	-0.443367
H134	H	0.173463	0.159154	0.056633
H135	H	-0.412608	-0.403321	-0.447335
H136	H	0.087392	0.096679	0.052665
H137	H	-1.101885	-1.089690	-0.309404
H138	H	-0.601885	-0.589690	0.190596
H139	H	-0.387501	-0.592173	-0.404533
H140	H	0.112499	-0.092173	0.095467
H141	H	-0.387863	-1.056712	-0.712005
H142	H	0.112137	-0.556712	-0.212005
H143	H	-0.633746	-0.899690	-1.067777
H144	H	-0.133746	-0.399690	-0.567777
H145	H	-0.633959	-0.720539	-0.247666
H146	H	-0.133959	-0.220539	0.252334
N147	N	-0.911231	-0.941772	-0.448669
N148	N	-0.411231	-0.441772	0.051331
H149	H	-0.867055	-0.984232	-0.447566
H150	H	-0.367055	-0.484232	0.052434
H151	H	-0.866916	-0.902985	-0.465914
H152	H	-0.366916	-0.402985	0.034086
N153	N	-0.651606	-0.888193	-0.930197
N154	N	-0.151606	-0.388193	-0.430197
H155	H	-0.694515	-0.860767	-0.963317
H156	H	-0.194515	-0.360767	-0.463317
H157	H	-0.608396	-0.856875	-0.900913
H158	H	-0.108396	-0.356875	-0.400913
H159	H	-0.633646	-0.899570	-0.712019
H160	H	-0.133646	-0.399570	-0.212019
N161	N	-0.369535	-0.729757	-0.415949
N162	N	0.130465	-0.229757	0.084051
H163	H	-0.326511	-0.696620	-0.443339
H164	H	0.173489	-0.196620	0.056661
H165	H	-0.412590	-0.759091	-0.447305
H166	H	0.087410	-0.259091	0.052695
N167	N	-0.370028	-1.068235	-0.930183
N168	N	0.129972	-0.568235	-0.430183
H169	H	-0.327131	-1.095686	-0.963298
H170	H	0.172869	-0.595686	-0.463298
H171	H	-0.413227	-1.099530	-0.900814
H172	H	0.086773	-0.599530	-0.400814
N173	N	-0.910174	-0.855811	-0.362269
N174	N	-0.410174	-0.355811	0.137731
H175	H	-0.972235	-0.824568	-0.354953
H176	H	-0.472235	-0.324568	0.145047
H177	H	-0.865903	-0.838656	-0.401119
H178	H	-0.365903	-0.338656	0.098881
N179	N	-1.110094	-1.069641	-0.415071
N180	N	-0.610094	-0.569641	0.084929
H181	H	-1.047159	-1.078739	-0.445138
H182	H	-0.547159	-0.578739	0.054862
H183	H	-1.153928	-1.031991	-0.435039
H184	H	-0.653928	-0.531991	0.064961
H185	H	-0.920474	-1.089701	-0.308630
H186	H	-0.420474	-0.589701	0.191370
H187	H	-0.633614	-0.899519	-0.583774
H188	H	-0.133614	-0.399519	-0.083774
H189	H	-1.102092	-0.872674	-0.366090
H190	H	-0.602092	-0.372674	0.133910
H191	H	-0.633990	-0.236534	-0.247703
H192	H	-0.133990	0.263466	0.252297
H193	H	-0.633963	-0.592305	-0.247673
H194	H	-0.133963	-0.092305	0.252327
H195	H	-1.103425	-0.937595	-0.430848
H196	H	-0.603425	-0.437595	0.069152
N197	N	-0.911149	-0.888951	-0.235418
N198	N	-0.411149	-0.388951	0.264582
H199	H	-0.864985	-0.870318	-0.272659
H200	H	-0.364985	-0.370318	0.227341
H201	H	-0.868920	-0.891920	-0.192252
H202	H	-0.368920	-0.391920	0.307748
H203	H	-0.918902	-1.065193	-0.397206
H204	H	-0.418902	-0.565193	0.102794
N205	N	-0.909149	-1.005433	-0.200586
N206	N	-0.409149	-0.505433	0.299414
H207	H	-0.861081	-1.040330	-0.221567
H208	H	-0.361081	-0.540330	0.278433
H209	H	-0.970842	-1.028741	-0.178053
H210	H	-0.470842	-0.528741	0.321947
H211	H	-0.387819	-1.056661	-0.583771
H212	H	0.112181	-0.556661	-0.083771
N213	N	-1.110733	-1.010725	-0.202880
N214	N	-0.610733	-0.510725	0.297120
H215	H	-1.157191	-1.045288	-0.225805
H216	H	-0.657191	-0.545288	0.274195
H217	H	-1.152628	-0.986653	-0.166752
H218	H	-0.652628	-0.486653	0.333248
