data_functionalizedCrystal
_audit_creation_method	'MofGen! by Chris Wilmer'
_symmetry_space_group_name_H-M	'P1'
_symmetry_Int_Tables_number	1
_symmetry_cell_setting	triclinic
loop_
_symmetry_equiv_pos_as_xyz
  x,y,z
_cell_length_a	14.908571
_cell_length_b	18.050589
_cell_length_c	18.050583
_cell_angle_alpha	89.968090
_cell_angle_beta	86.690916
_cell_angle_gamma	86.724558
loop_
_atom_site_label
_atom_site_type_symbol
_atom_site_fract_x
_atom_site_fract_y
_atom_site_fract_z
Zn1	Zn	1.379121	-0.361211	-0.485330
Zn2	Zn	1.379010	-0.485418	-0.361145
Zn3	Zn	1.228268	-0.354076	-0.354001
Zn4	Zn	1.228208	-0.478184	-0.478142
O5	O	1.303652	-0.419722	-0.419655
O6	O	1.505350	-0.383700	-0.474855
O7	O	1.358992	-0.468037	-0.256271
O8	O	1.248351	-0.251101	-0.371441
O9	O	1.505269	-0.474955	-0.383616
O10	O	1.359182	-0.256343	-0.467928
O11	O	1.248243	-0.371540	-0.251023
O12	O	1.102017	-0.364526	-0.364471
O13	O	1.248248	-0.462626	-0.583022
O14	O	1.101972	-0.455708	-0.455677
O15	O	1.359124	-0.376686	-0.588303
O16	O	1.358934	-0.588380	-0.376646
O17	O	1.248140	-0.583065	-0.462604
C18	C	1.069261	-0.408558	-0.408519
C19	C	0.968987	-0.403800	-0.403773
C20	C	1.303543	-0.612669	-0.419637
C21	C	1.303579	-0.695217	-0.419658
C22	C	0.780565	-0.489954	-0.489700
C23	C	0.686349	-0.485486	-0.485243
C24	C	0.686338	-0.390391	-0.390407
C25	C	0.780554	-0.394860	-0.394864
C26	C	0.827664	-0.444644	-0.444511
C27	C	0.921882	-0.449115	-0.448964
C28	C	0.921869	-0.354018	-0.354132
C29	C	0.827653	-0.349549	-0.349675
C30	C	1.243389	-0.891807	-0.466388
C31	C	1.221402	-0.940211	-0.397578
C32	C	1.303668	-0.846351	-0.419672
C33	C	1.325698	-0.945031	-0.488492
C34	C	1.303752	-0.992340	-0.419692
C35	C	1.281638	-0.893666	-0.350825
C36	C	1.385972	-0.898483	-0.441786
C37	C	1.364017	-0.946867	-0.372931
C38	C	1.303617	-0.762251	-0.419662
C39	C	1.303802	-1.076439	-0.419694
C40	C	1.538958	-0.430930	-0.430834
C41	C	1.639232	-0.435707	-0.435598
C42	C	1.303692	-0.419645	-0.613362
C43	C	1.303709	-0.419612	-0.695909
C44	C	1.303786	-0.226023	-0.419690
C45	C	1.303843	-0.143480	-0.419705
C46	C	1.364063	-0.372857	-0.898234
C47	C	1.281783	-0.350766	-0.943726
C48	C	1.303745	-0.419601	-0.847041
C49	C	1.386059	-0.441646	-0.948633
C50	C	1.303787	-0.419589	-0.993028
C51	C	1.221421	-0.397473	-0.891444
C52	C	1.325752	-0.488387	-0.896348
C53	C	1.243415	-0.466320	-0.941815
C54	C	1.303722	-0.419606	-0.762942
C55	C	1.303801	-0.419584	-1.077125
C56	C	1.303664	-0.419748	-0.226703
C57	C	1.303822	-0.419580	-0.144165
H58	H	0.960237	-0.489653	-0.489388
H59	H	1.263182	-0.292590	-0.964571
H60	H	0.647964	-0.349855	-0.349992
H61	H	1.344298	-0.967558	-0.546685
C62	C	1.127430	-0.965152	-0.372313
H63	H	1.131576	-0.994325	-0.328690
H64	H	1.104810	-0.993767	-0.410484
H65	H	1.087931	-0.922744	-0.362167
C66	C	0.775827	-0.294796	-0.295064
H67	H	0.712969	-0.298627	-0.298877
H68	H	0.791292	-0.245642	-0.306739
H69	H	0.791238	-0.306353	-0.245876
C70	C	1.127381	-0.372182	-0.857810
H71	H	1.127948	-0.372315	-0.805207
H72	H	1.084515	-0.405159	-0.873052
H73	H	1.111672	-0.323456	-0.874412
H74	H	1.262958	-0.871225	-0.292613
C75	C	1.479922	-0.873519	-0.467070
H76	H	1.503021	-0.845676	-0.428545
H77	H	1.475568	-0.843583	-0.510154
H78	H	1.519144	-0.915903	-0.478102
C79	C	1.432926	-0.979225	-0.319512
H80	H	1.417159	-0.961515	-0.270669
H81	H	1.491187	-0.964278	-0.334795
H82	H	1.432928	-1.031851	-0.320107
C83	C	0.634538	-0.535326	-0.534948
H84	H	0.571679	-0.525532	-0.525189
H85	H	0.649954	-0.585944	-0.524729
H86	H	0.650009	-0.525238	-0.585598
H87	H	1.414989	-0.333296	-0.878999
H88	H	0.960227	-0.317124	-0.317334
C89	C	1.174456	-0.519708	-0.967614
H90	H	1.116052	-0.503925	-0.947844
H91	H	1.189575	-0.568407	-0.950646
H92	H	1.175187	-0.519715	-1.020276
C93	C	1.350908	-0.566956	-0.868162
H94	H	1.302739	-0.583668	-0.836919
H95	H	1.403497	-0.565923	-0.840955
H96	H	1.361997	-0.599754	-0.909230
C97	C	1.174429	-0.859262	-0.519669
H98	H	1.116007	-0.873454	-0.503841
H99	H	1.189475	-0.877571	-0.568401
H100	H	1.175251	-0.806675	-0.519623
C101	C	1.480071	-0.466847	-0.982389
H102	H	1.522836	-0.433586	-0.967527
H103	H	1.479284	-0.467102	-1.034973
H104	H	1.496101	-0.515397	-0.965477
H105	H	0.818923	-0.530494	-0.530121
