data_functionalizedCrystal
_audit_creation_method	'MofGen! by Chris Wilmer'
_symmetry_space_group_name_H-M	'P1'
_symmetry_Int_Tables_number	1
_symmetry_cell_setting	triclinic
loop_
_symmetry_equiv_pos_as_xyz
  x,y,z
_cell_length_a	17.077404
_cell_length_b	16.120507
_cell_length_c	16.120256
_cell_angle_alpha	95.613568
_cell_angle_beta	87.120369
_cell_angle_gamma	87.068191
loop_
_atom_site_label
_atom_site_type_symbol
_atom_site_fract_x
_atom_site_fract_y
_atom_site_fract_z
Zn1	Zn	1.159590	0.356806	0.489421
Zn2	Zn	1.492923	0.690140	0.822754
Zn3	Zn	1.826256	1.023473	1.156087
Zn4	Zn	1.159473	0.489492	0.356725
Zn5	Zn	1.492806	0.822826	0.690059
Zn6	Zn	1.826140	1.156159	1.023392
Zn7	Zn	1.035332	0.349733	0.349669
Zn8	Zn	1.368666	0.683067	0.683002
Zn9	Zn	1.701999	1.016400	1.016335
Zn10	Zn	1.021258	0.496533	0.496451
Zn11	Zn	1.354591	0.829866	0.829784
Zn12	Zn	1.687924	1.163199	1.163118
O13	O	1.093913	0.423141	0.423066
O14	O	1.427246	0.756475	0.756400
O15	O	1.760580	1.089808	1.089733
O16	O	1.269420	0.374421	0.471829
O17	O	1.602753	0.707754	0.805163
O18	O	1.936087	1.041088	1.138496
O19	O	1.148847	0.465047	0.238827
O20	O	1.482180	0.798380	0.572160
O21	O	1.815514	1.131713	0.905494
O22	O	1.057754	0.233706	0.362311
O23	O	1.391088	0.567040	0.695645
O24	O	1.724421	0.900373	1.028978
O25	O	1.269334	0.471905	0.374339
O26	O	1.602668	0.805238	0.707672
O27	O	1.936001	1.138571	1.041005
O28	O	1.149046	0.238903	0.464987
O29	O	1.482379	0.572236	0.798320
O30	O	1.815712	0.905569	1.131653
O31	O	1.057641	0.362366	0.233642
O32	O	1.390975	0.695700	0.566976
O33	O	1.724308	1.029033	0.900309
O34	O	0.923620	0.369193	0.369129
O35	O	1.256953	0.702526	0.702462
O36	O	1.590286	1.035860	1.035795
O37	O	1.033766	0.483904	0.612481
O38	O	1.367099	0.817237	0.945814
O39	O	1.700433	1.150571	1.279148
O40	O	0.913279	0.477046	0.476969
O41	O	1.246612	0.810379	0.810302
O42	O	1.579946	1.143712	1.143636
O43	O	1.135398	0.381248	0.607316
O44	O	1.468731	0.714581	0.940649
O45	O	1.802065	1.047914	1.273982
O46	O	1.135199	0.607392	0.381156
O47	O	1.468533	0.940725	0.714489
O48	O	1.801866	1.274058	1.047823
O49	O	1.033653	0.612564	0.483812
O50	O	1.366986	0.945898	0.817145
O51	O	1.700320	1.279231	1.150478
C52	C	0.889967	0.423117	0.423046
C53	C	1.223301	0.756450	0.756380
C54	C	1.556634	1.089783	1.089713
C55	C	0.802717	0.423127	0.423059
C56	C	1.136050	0.756460	0.756392
C57	C	1.469383	1.089794	1.089725
C58	C	0.761763	0.372467	0.473909
C59	C	1.095096	0.705800	0.807242
C60	C	1.428430	1.039133	1.140575
C61	C	0.679782	0.372472	0.473913
C62	C	1.013115	0.705805	0.807246
C63	C	1.346449	1.039139	1.140579
C64	C	0.638756	0.423143	0.423071
C65	C	0.972089	0.756477	0.756404
C66	C	1.305422	1.089810	1.089738
C67	C	0.679715	0.473806	0.372215
C68	C	1.013049	0.807139	0.705549
C69	C	1.346382	1.140473	1.038882
C70	C	0.761695	0.473795	0.372207
C71	C	1.095029	0.807129	0.705541
C72	C	1.428362	1.140462	1.038874
C73	C	0.508843	0.473826	0.372237
C74	C	0.842177	0.807159	0.705570
C75	C	1.175510	1.140493	1.038904
C76	C	0.426858	0.473838	0.372246
C77	C	0.760191	0.807171	0.705579
C78	C	1.093524	1.140505	1.038913
C79	C	0.426930	0.372503	0.473942
C80	C	0.760263	0.705836	0.807276
C81	C	1.093597	1.039169	1.140609
C82	C	0.508910	0.372492	0.473934
C83	C	0.842243	0.705826	0.807268
C84	C	1.175577	1.039159	1.140601
C85	C	0.549864	0.423156	0.423080
C86	C	0.883197	0.756490	0.756413
C87	C	1.216530	1.089823	1.089746
C88	C	1.082907	0.640307	0.434031
C89	C	1.416240	0.973640	0.767364
C90	C	1.749573	1.306973	1.100697
C91	C	1.078268	0.733212	0.438749
C92	C	1.411602	1.066546	0.772082
C93	C	1.744935	1.399879	1.105416
C94	C	1.118039	0.942122	0.398718
C95	C	1.451373	1.275455	0.732051
C96	C	1.784706	1.608789	1.065385
C97	C	1.069814	0.903307	0.447373
C98	C	1.403147	1.236640	0.780706
C99	C	1.736481	1.569974	1.114039
C100	C	1.074520	0.808658	0.442573
C101	C	1.407853	1.141991	0.775906
C102	C	1.741186	1.475324	1.109240
C103	C	1.113335	1.036780	0.403517
C104	C	1.446668	1.370113	0.736850
C105	C	1.780002	1.703447	1.070183
C106	C	1.298655	0.423167	0.423087
C107	C	1.631989	0.756500	0.756420
C108	C	1.965322	1.089833	1.089754
C109	C	1.385904	0.423177	0.423096
C110	C	1.719237	0.756511	0.756429
C111	C	2.052571	1.089844	1.089762
C112	C	1.083025	0.434150	0.641073
C113	C	1.416358	0.767484	0.974407
C114	C	1.749692	1.100817	1.307740
C115	C	1.078385	0.438842	0.733975
C116	C	1.411719	0.772175	1.067308
C117	C	1.745052	1.105508	1.400642
C118	C	1.104954	1.205128	0.412065
C119	C	1.438287	1.538461	0.745398
C120	C	1.771620	1.871795	1.078732
C121	C	1.109583	1.112222	0.407344
C122	C	1.442916	1.445556	0.740677
C123	C	1.776249	1.778889	1.074011
C124	C	1.104807	0.412115	0.205905
C125	C	1.438140	0.745448	0.539238
C126	C	1.771474	1.078781	0.872571
C127	C	1.109611	0.407188	0.112992
C128	C	1.442944	0.740521	0.446325
C129	C	1.776277	1.073854	0.779658
C130	C	1.118109	0.398655	0.942901
C131	C	1.451442	0.731988	1.276235
C132	C	1.784776	1.065321	1.609568
C133	C	1.069890	0.447372	0.904060
C134	C	1.403223	0.780706	1.237393
C135	C	1.736556	1.114039	1.570726
C136	C	1.074618	0.442624	0.809416
C137	C	1.407951	0.775958	1.142749
C138	C	1.741285	1.109291	1.476082
C139	C	1.113382	0.403401	1.037554
C140	C	1.446715	0.736735	1.370887
C141	C	1.780048	1.070068	1.704221
H142	H	0.646441	0.331221	0.515321
H143	H	0.979774	0.664554	0.848655
H144	H	1.313108	0.997888	1.181988
Br145	Br	0.995164	0.522834	0.967102
Br146	Br	1.328497	0.856167	1.300435
Br147	Br	1.661830	1.189500	1.633768
H148	H	1.162939	0.353385	0.905077
H149	H	1.496272	0.686718	1.238411
H150	H	1.829606	1.020051	1.571744
Br151	Br	0.995107	0.966394	0.522807
Br152	Br	1.328440	1.299727	0.856140
Br153	Br	1.661774	1.633061	1.189474
H154	H	0.542311	0.331236	0.515339
H155	H	0.875644	0.664570	0.848673
H156	H	1.208977	0.997903	1.182006
H157	H	1.162857	0.904273	0.353461
H158	H	1.496190	1.237606	0.686794
H159	H	1.829523	1.570939	1.020128
H160	H	0.393582	0.331249	0.515348
H161	H	0.726915	0.664582	0.848682
H162	H	1.060248	0.997915	1.182015
Br163	Br	0.817433	0.303701	0.542918
Br164	Br	1.150766	0.637034	0.876252
Br165	Br	1.484099	0.970367	1.209585
H166	H	0.795039	0.515048	0.330800
H167	H	1.128372	0.848381	0.664133
H168	H	1.461705	1.181715	0.997466
H169	H	0.393456	0.515100	0.330847
H170	H	0.726790	0.848433	0.664180
H171	H	1.060123	1.181766	0.997513
H172	H	0.646306	0.515059	0.330815
H173	H	0.979639	0.848392	0.664148
H174	H	1.312972	1.181726	0.997481
Br175	Br	0.564423	0.542590	0.303224
Br176	Br	0.897756	0.875923	0.636557
Br177	Br	1.231089	1.209256	0.969891
