data_functionalizedCrystal
_audit_creation_method	'MofGen! by Chris Wilmer'
_symmetry_space_group_name_H-M	'P1'
_symmetry_Int_Tables_number	1
_symmetry_cell_setting	triclinic
loop_
_symmetry_equiv_pos_as_xyz
  x,y,z
_cell_length_a	17.699083
_cell_length_b	10.654550
_cell_length_c	9.730223
_cell_angle_alpha	90.004253
_cell_angle_beta	89.997260
_cell_angle_gamma	83.883973
loop_
_atom_site_label
_atom_site_type_symbol
_atom_site_fract_x
_atom_site_fract_y
_atom_site_fract_z
O1	O	-1.005084	-0.158805	-0.114097
O2	O	-0.784837	-0.179467	-0.114142
O3	O	-0.900024	0.013692	-0.114110
O4	O	-0.889897	-0.351964	-0.114129
O5	O	-0.900017	0.013697	0.114470
O6	O	-0.784830	-0.179462	0.114438
O7	O	-1.005077	-0.158800	0.114483
Zn8	Zn	-0.894952	-0.169130	0.150753
Zn9	Zn	-0.894962	-0.169137	-0.150411
O10	O	-0.889889	-0.351959	0.114451
C11	C	-0.899277	0.060479	0.000180
C12	C	-0.897052	0.199884	0.000177
C13	C	-0.756632	-0.178724	0.000143
C14	C	-0.672599	-0.176503	0.000126
C15	C	-1.033282	-0.159543	0.000196
C16	C	-1.117314	-0.161764	0.000204
C17	C	-0.624699	-0.289883	0.000120
C18	C	-0.545743	-0.287788	0.000138
C19	C	-0.514688	-0.172313	0.000152
C20	C	-0.562594	-0.058924	0.000161
C21	C	-0.641549	-0.061020	0.000153
C22	C	-0.244177	-0.050470	0.000196
C23	C	-0.165216	-0.048383	0.000200
C24	C	-0.148371	-0.277239	0.000180
C25	C	-0.227326	-0.279334	0.000172
C26	C	-0.275225	-0.165946	0.000189
C27	C	-0.360839	-0.168219	0.000172
C28	C	-0.429076	-0.170039	0.000159
C29	C	-0.890637	-0.398746	0.000159
C30	C	-0.892861	-0.538151	0.000153
N31	N	-0.894951	-0.169125	0.356289
C32	C	-0.964873	0.280556	0.000190
C33	C	-0.962778	0.411541	0.000173
C34	C	-0.825036	0.381166	0.000135
C35	C	-0.827132	0.250185	0.000142
N36	N	-0.894969	-0.169132	-0.355948
C37	C	-0.945973	-0.083630	0.428229
C38	C	-0.945981	-0.083630	0.572112
C39	C	-0.843941	-0.254631	0.572102
C40	C	-0.843930	-0.254624	0.428222
H41	H	-0.649978	-0.383916	0.000108
N42	N	-1.040283	0.226299	0.000226
H43	H	-1.082929	0.297286	0.000229
H44	H	-1.044157	0.172605	-0.084507
N45	N	-0.529095	0.065620	0.000192
H46	H	-0.496708	0.071593	-0.084539
H47	H	-0.571461	0.137061	0.000253
N48	N	-0.295831	0.071824	0.000181
H49	H	-0.350563	0.052984	0.000175
H50	H	-0.285714	0.122169	0.084917
N51	N	-1.035925	0.498557	0.000205
H52	H	-1.038135	0.553567	-0.084534
H53	H	-1.080493	0.446725	0.000282
N54	N	-0.749624	0.435420	0.000104
H55	H	-0.758586	0.530638	0.000106
H56	H	-0.719913	0.405899	0.084835
N57	N	-1.000998	0.008584	0.350641
H58	H	-1.033321	0.062746	0.418054
H59	H	-0.971732	0.064046	0.290957
N60	N	-0.693217	0.061268	0.000170
H61	H	-0.661565	0.134740	0.000179
H62	H	-0.726341	0.065387	-0.084567
H63	H	-0.802378	-0.324245	0.369644
N64	N	-0.753979	0.163161	0.000118
H65	H	-0.709367	0.214900	0.000105
H66	H	-0.751845	0.108160	0.084856
N67	N	-0.494078	-0.410076	0.000287
H68	H	-0.525732	-0.483546	0.000319
H69	H	-0.460904	-0.414287	-0.084394
N70	N	-1.001024	0.008566	0.649702
H71	H	-0.991855	0.097685	0.624675
H72	H	-1.054781	-0.005921	0.624608
N73	N	-0.260821	-0.403882	0.000139
H74	H	-0.218495	-0.475392	0.000138
H75	H	-0.293220	-0.409738	0.084870
N76	N	-0.096708	-0.399541	0.000166
H77	H	-0.041977	-0.380698	0.000178
H78	H	-0.106837	-0.449880	0.084894
N79	N	-0.788914	-0.346845	0.649687
H80	H	-0.796663	-0.333880	0.751752
H81	H	-0.798117	-0.435916	0.624520
N82	N	-0.131718	0.076171	0.000216
H83	H	-0.174043	0.147685	0.000230
H84	H	-0.099328	0.082014	0.084955
