data_functionalizedCrystal
_audit_creation_method	'MofGen! by Chris Wilmer'
_symmetry_space_group_name_H-M	'P1'
_symmetry_Int_Tables_number	1
_symmetry_cell_setting	triclinic
loop_
_symmetry_equiv_pos_as_xyz
  x,y,z
_cell_length_a	14.853567
_cell_length_b	13.330367
_cell_length_c	14.853569
_cell_angle_alpha	89.994190
_cell_angle_beta	96.364752
_cell_angle_gamma	90.004582
loop_
_atom_site_label
_atom_site_type_symbol
_atom_site_fract_x
_atom_site_fract_y
_atom_site_fract_z
O1	O	-1.196369	-0.083357	0.117704
O2	O	-0.933910	-0.083375	0.131725
O3	O	-1.072150	-0.083356	-0.006515
O4	O	-1.058130	-0.083376	0.255944
O5	O	-1.072130	0.083491	-0.006519
O6	O	-0.933890	0.083473	0.131722
O7	O	-1.196349	0.083490	0.117700
Cu8	Cu	-1.065118	0.098716	0.124711
Cu9	Cu	-1.065142	-0.098600	0.124714
O10	O	-1.058110	0.083471	0.255941
C11	C	-1.071504	0.000068	-0.040106
C12	C	-1.069600	0.000069	-0.140189
C13	C	-0.900311	0.000047	0.131088
C14	C	-0.800228	0.000041	0.129184
N15	N	-1.065108	0.237497	0.124708
C16	C	-1.229948	0.000066	0.118337
C17	C	-1.330032	0.000066	0.120241
C18	C	-0.387693	0.000070	0.039019
C19	C	-0.366413	0.000056	0.203251
C20	C	-0.460447	0.000053	0.205041
C21	C	-0.518108	0.000057	0.123819
C22	C	-0.481736	0.000064	0.040806
C23	C	-0.496826	0.000036	0.288053
C24	C	-0.590866	0.000031	0.289846
C25	C	-0.648529	0.000042	0.208622
C26	C	-0.612151	0.000050	0.125606
C27	C	-0.669813	0.000054	0.044384
C28	C	-0.633437	0.000069	-0.038633
C29	C	-0.539399	0.000074	-0.040417
C30	C	-0.742566	0.000037	0.210407
C31	C	-0.763855	0.000047	0.046172
N32	N	-1.065159	-0.237382	0.124710
C33	C	-1.003926	0.710112	0.185903
C34	C	-1.126381	0.710097	0.063519
C35	C	-1.126371	0.605078	0.063516
C36	C	-1.065138	0.552572	0.124709
C37	C	-1.003916	0.605084	0.185904
C38	C	-1.187598	0.552558	0.002328
C39	C	-1.187591	0.447534	0.002323
C40	C	-1.126354	0.395025	0.063512
C41	C	-1.065128	0.447544	0.124710
C42	C	-1.003896	0.395037	0.185902
C43	C	-0.942665	0.447554	0.247096
C44	C	-0.942679	0.552576	0.247093
C45	C	-1.126340	0.290004	0.063515
C46	C	-1.003885	0.290009	0.185903
C47	C	-0.986589	0.000065	-0.176566
C48	C	-1.150822	0.000065	-0.197855
C49	C	-1.149035	0.000061	-0.291889
C50	C	-1.066024	0.000057	-0.328266
C51	C	-0.984800	0.000058	-0.270608
C52	C	-1.230258	0.000050	-0.349554
C53	C	-1.228475	0.000044	-0.443594
C54	C	-1.145463	0.000048	-0.479972
C55	C	-1.064235	0.000050	-0.422309
C56	C	-0.981224	0.000046	-0.458685
C57	C	-0.899996	0.000055	-0.401023
C58	C	-0.901788	0.000061	-0.306987
C59	C	-1.143670	0.000042	-0.574009
C60	C	-0.979435	0.000038	-0.552728
C61	C	-1.058755	0.000045	0.289531
C62	C	-1.060660	0.000038	0.389615
H63	H	-0.810798	0.000054	-0.019971
Br64	Br	-1.263474	0.000055	-0.148486
H65	H	-1.237447	0.404781	-0.047504
H66	H	-1.297841	0.000115	-0.319929
H67	H	-0.319460	0.000045	0.269379
H68	H	-0.772179	0.000026	0.277998
H69	H	-1.237456	0.595312	-0.047489
H70	H	-1.209806	0.000024	-0.620953
Br71	Br	-1.209488	0.781351	-0.019518
Br72	Br	-0.920825	0.781377	0.268943
Br73	Br	-1.209440	0.218738	-0.019519
Br74	Br	-0.866771	0.000045	-0.602088
Br75	Br	-0.787342	0.000033	-0.450403
Br76	Br	-0.791560	0.000067	-0.228728
Br77	Br	-0.876355	0.000084	-0.098315
Br78	Br	-1.338711	0.000037	-0.521842
Br79	Br	-0.418570	0.000009	0.398276
H80	H	-0.620474	0.000019	0.357443
H81	H	-0.509773	0.000111	-0.108005
Br82	Br	-0.338330	0.000099	-0.073642
Br83	Br	-0.711702	0.000062	-0.148859
H84	H	-0.954019	0.247265	0.235731
H85	H	-0.892813	0.404791	0.296924
H86	H	-0.892828	0.595341	0.296916
