data_functionalizedCrystal
_audit_creation_method	'MofGen! by Chris Wilmer'
_symmetry_space_group_name_H-M	'P1'
_symmetry_Int_Tables_number	1
_symmetry_cell_setting	triclinic
loop_
_symmetry_equiv_pos_as_xyz
  x,y,z
_cell_length_a	17.038272
_cell_length_b	11.792241
_cell_length_c	10.268362
_cell_angle_alpha	90.000374
_cell_angle_beta	89.994496
_cell_angle_gamma	92.347514
loop_
_atom_site_label
_atom_site_type_symbol
_atom_site_fract_x
_atom_site_fract_y
_atom_site_fract_z
O1	O	0.107207	-1.516303	-0.108175
O2	O	0.607207	-1.016303	0.391825
O3	O	0.118256	-1.186930	-0.108205
O4	O	0.618256	-0.686930	0.391795
O5	O	-0.001093	-1.349659	-0.108180
O6	O	0.498907	-0.849659	0.391820
O7	O	0.226556	-1.353574	-0.108200
O8	O	0.726556	-0.853574	0.391800
O9	O	-0.001098	-1.349643	0.108421
O10	O	0.498902	-0.849643	0.608421
O11	O	0.118251	-1.186914	0.108396
O12	O	0.618251	-0.686914	0.608396
O13	O	0.107202	-1.516287	0.108426
O14	O	0.607202	-1.016287	0.608426
Cu15	Cu	0.112726	-1.351600	0.128188
Cu16	Cu	0.612726	-0.851600	0.628188
Cu17	Cu	0.112732	-1.351618	-0.127967
Cu18	Cu	0.612732	-0.851618	0.372033
O19	O	0.226551	-1.353558	0.108401
O20	O	0.726551	-0.853558	0.608401
C21	C	0.117559	-1.144571	0.000092
C22	C	0.617559	-0.644571	0.500092
C23	C	0.115482	-1.018375	0.000080
C24	C	0.615482	-0.518375	0.500080
C25	C	-0.030239	-1.346090	0.000120
C26	C	0.469761	-0.846090	0.500120
C27	C	-0.117079	-1.335466	0.000119
C28	C	0.382921	-0.835466	0.500119
C29	C	0.107899	-1.558647	0.000127
C30	C	0.607899	-1.058647	0.500127
C31	C	0.109976	-1.684843	0.000130
C32	C	0.609976	-1.184843	0.500130
C33	C	-0.166762	-1.433006	0.000129
C34	C	0.333238	-0.933006	0.500129
C35	C	-0.248357	-1.423017	0.000116
C36	C	0.251643	-0.923017	0.500116
C37	C	-0.280267	-1.315487	0.000102
C38	C	0.219733	-0.815487	0.500102
C39	C	-0.230577	-1.217940	0.000087
C40	C	0.269423	-0.717940	0.500087
C41	C	-0.148984	-1.227930	0.000091
C42	C	0.351016	-0.727930	0.500091
C43	C	-0.526181	-1.280194	0.000081
C44	C	-0.026181	-0.780194	0.500081
C45	C	-0.607780	-1.270211	0.000080
C46	C	-0.107780	-0.770211	0.500080
C47	C	-0.625554	-1.475289	0.000107
C48	C	-0.125554	-0.975289	0.500107
C49	C	-0.543958	-1.485270	0.000118
C50	C	-0.043958	-0.985270	0.500118
C51	C	-0.494276	-1.387723	0.000097
C52	C	0.005724	-0.887723	0.500097
C53	C	-0.363669	-1.305274	0.000092
C54	C	0.136331	-0.805274	0.500092
C55	C	-0.410875	-1.397937	0.000097
C56	C	0.089125	-0.897937	0.500097
C57	C	0.255697	-1.357127	0.000098
C58	C	0.755697	-0.857127	0.500098
C59	C	0.342537	-1.367751	0.000091
C60	C	0.842537	-0.867751	0.500091
N61	N	0.112721	-1.351595	0.308354
N62	N	0.612721	-0.851595	0.808354
C63	C	0.111662	-0.787328	0.000118
C64	C	0.611662	-0.287328	0.500118
C65	C	0.113785	-0.915899	0.000097
C66	C	0.613785	-0.415899	0.500097
N67	N	0.112730	-1.351631	-0.308133
N68	N	0.612730	-0.851631	0.191867
C69	C	0.112730	-1.351612	0.574025
C70	C	0.612730	-0.851612	1.074025
C71	C	0.112728	-1.351599	0.426187
C72	C	0.612728	-0.851599	0.926187
H73	H	-0.140788	-1.520568	0.000149
H74	H	0.359212	-1.020568	0.500149
H75	H	-0.288806	-1.502445	0.000127
H76	H	0.211194	-1.002445	0.500127
H77	H	-0.108532	-1.148503	0.000083
H78	H	0.391468	-0.648503	0.500083
H79	H	-0.517984	-1.572832	0.000130
H80	H	-0.017984	-1.072832	0.500130
O81	O	-0.673927	-1.569924	0.000058
O82	O	-0.173927	-1.069924	0.500058
C83	C	-0.752787	-1.538056	0.000084
C84	C	-0.252787	-1.038056	0.500084
H85	H	-0.756290	-1.448572	-0.040929
H86	H	-0.256290	-0.948572	0.459071
H87	H	-0.789467	-1.599749	-0.062800
H88	H	-0.289467	-1.099749	0.437200
H89	H	-0.776371	-1.540078	0.103997
H90	H	-0.276371	-1.040078	0.603997
O91	O	-0.638649	-1.165664	-0.000005
O92	O	-0.138649	-0.665664	0.499995
C93	C	-0.577303	-1.081707	0.000003
C94	C	-0.077303	-0.581707	0.500003
H95	H	-0.521741	-1.118890	-0.040993
H96	H	-0.021741	-0.618890	0.459007
H97	H	-0.594661	-1.007123	-0.062902
H98	H	-0.094661	-0.507123	0.437098
H99	H	-0.565899	-1.051218	0.103909
H100	H	-0.065899	-0.551218	0.603909
H101	H	-0.256565	-1.130387	0.000067
H102	H	0.243435	-0.630387	0.500067
O103	O	-0.477897	-1.185471	-0.000162
O104	O	0.022103	-0.685471	0.499838
C105	C	-0.430150	-1.185126	-0.112327
C106	C	0.069850	-0.685126	0.387673
H107	H	-0.459774	-1.240315	-0.190727
H108	H	0.040226	-0.740315	0.309273
H109	H	-0.421369	-1.094553	-0.149991
H110	H	0.078631	-0.594553	0.350009
H111	H	-0.370697	-1.220230	-0.086963
H112	H	0.129303	-0.720230	0.413037
H113	H	-0.384890	-1.485487	0.000080
H114	H	0.115110	-0.985487	0.500080
O115	O	-0.394574	-1.200759	0.000259
O116	O	0.105426	-0.700759	0.500259
C117	C	-0.369259	-1.140822	0.112453
C118	C	0.130741	-0.640822	0.612453
H119	H	-0.312546	-1.177222	0.149863
H120	H	0.187454	-0.677222	0.649863
H121	H	-0.358337	-1.047362	0.087216
H122	H	0.141663	-0.547362	0.587216
H123	H	-0.416420	-1.149414	0.191000
H124	H	0.083580	-0.649414	0.691000
