data_functionalizedCrystal
_audit_creation_method	'MofGen! by Chris Wilmer'
_symmetry_space_group_name_H-M	'P1'
_symmetry_Int_Tables_number	1
_symmetry_cell_setting	triclinic
loop_
_symmetry_equiv_pos_as_xyz
  x,y,z
_cell_length_a	8.597340
_cell_length_b	15.944493
_cell_length_c	7.088929
_cell_angle_alpha	83.783099
_cell_angle_beta	103.954719
_cell_angle_gamma	84.409319
loop_
_atom_site_label
_atom_site_type_symbol
_atom_site_fract_x
_atom_site_fract_y
_atom_site_fract_z
O1	O	2.101336	0.115360	0.187193
O2	O	1.636650	0.129072	0.110644
O3	O	1.881729	-0.000071	0.151001
O4	O	1.856257	0.244503	0.146836
O5	O	1.914482	-0.017369	0.474369
O6	O	1.669402	0.111774	0.434013
O7	O	2.134089	0.098062	0.510561
Cu8	Cu	1.904736	0.103339	0.501813
Cu9	Cu	1.866003	0.123795	0.119392
O10	O	1.889009	0.227205	0.470205
C11	C	1.593563	0.119914	0.262533
C12	C	1.416382	0.118388	0.233344
C13	C	1.897063	-0.040014	0.312505
C14	C	1.893939	-0.133258	0.311966
C15	C	2.038203	-0.369131	0.335767
C16	C	1.944261	-0.411111	0.163516
C17	C	1.888157	-0.303976	0.311037
C18	C	1.976517	-0.428141	0.482326
C19	C	1.882585	-0.468883	0.310150
C20	C	1.794242	-0.344721	0.138660
C21	C	1.826535	-0.361756	0.457617
C22	C	1.732478	-0.403700	0.285309
C23	C	1.891372	-0.208978	0.311547
C24	C	1.879357	-0.563878	0.309624
C25	C	2.177175	0.107220	0.358669
C26	C	2.354355	0.108747	0.387845
C27	C	1.873675	0.267148	0.308696
C28	C	1.876798	0.360393	0.309222
N29	N	1.931991	0.088950	0.770789
N30	N	1.838761	0.138177	-0.149581
H31	H	1.436802	0.101656	0.542457
C32	C	1.305006	0.127964	0.024451
C33	C	1.203755	0.056657	-0.039748
C34	C	1.092379	0.066233	-0.248636
C35	C	1.082256	0.147116	-0.393325
C36	C	1.183511	0.218429	-0.329129
C37	C	1.294886	0.208853	-0.120241
H38	H	1.211246	-0.003223	0.067363
H39	H	1.017424	0.013442	-0.296157
H40	H	0.999809	0.154205	-0.547956
H41	H	1.176020	0.278309	-0.436240
H42	H	1.369841	0.261644	-0.072720
H43	H	1.776876	-0.339957	0.581986
C44	C	2.212775	-0.348130	0.364322
C45	C	2.308538	-0.369066	0.214003
C46	C	2.483102	-0.348063	0.242546
C47	C	2.561904	-0.306124	0.421407
C48	C	2.466140	-0.285186	0.571738
C49	C	2.291576	-0.306189	0.543195
H50	H	2.250204	-0.400113	0.081588
H51	H	2.553992	-0.363563	0.131260
H52	H	2.691127	-0.290577	0.442536
H53	H	2.524474	-0.254139	0.704153
H54	H	2.220686	-0.290690	0.654481
C55	C	1.708217	0.207091	0.718635
C56	C	1.599833	0.263921	0.810644
C57	C	1.469287	0.332837	0.678846
C58	C	1.447125	0.344922	0.455040
C59	C	1.555512	0.288091	0.363020
C60	C	1.686059	0.219175	0.494818
H61	H	1.616235	0.254977	0.976329
H62	H	1.389051	0.374908	0.746967
H63	H	1.350487	0.395938	0.357476
H64	H	1.539110	0.297036	0.197335
H65	H	1.766294	0.177105	0.426697
C66	C	1.557737	-0.424464	0.256411
C67	C	1.479848	-0.467633	0.079215
C68	C	1.305110	-0.488398	0.050304
C69	C	1.208260	-0.465995	0.198589
C70	C	1.286149	-0.422824	0.375796
C71	C	1.460887	-0.402059	0.404707
H72	H	1.551542	-0.484219	-0.030565
H73	H	1.247452	-0.520356	-0.080877
H74	H	1.078909	-0.481366	0.177187
H75	H	1.214455	-0.406238	0.485576
H76	H	1.518545	-0.370101	0.535889
C77	C	2.062541	0.020032	0.902581
C78	C	2.085088	0.008144	1.126452
C79	C	2.215635	-0.060772	1.258243
C80	C	2.323636	-0.117800	1.166165
C81	C	2.301093	-0.105914	0.942283
C82	C	2.170546	-0.036998	0.810491
H83	H	2.005136	0.050361	1.194624
H84	H	2.232322	-0.069571	1.423976
H85	H	2.420276	-0.168817	1.263725
H86	H	2.381045	-0.148131	0.874110
H87	H	2.153858	-0.028199	0.644758
H88	H	1.993974	-0.432895	0.039160
H89	H	1.717245	-0.308635	-0.006707
H90	H	2.053566	-0.464330	0.627552
