data_functionalizedCrystal
_audit_creation_method	'MofGen! by Chris Wilmer'
_symmetry_space_group_name_H-M	'P1'
_symmetry_Int_Tables_number	1
_symmetry_cell_setting	triclinic
loop_
_symmetry_equiv_pos_as_xyz
  x,y,z
_cell_length_a	21.295417
_cell_length_b	12.827893
_cell_length_c	12.827885
_cell_angle_alpha	90.019272
_cell_angle_beta	90.038290
_cell_angle_gamma	90.030477
loop_
_atom_site_label
_atom_site_type_symbol
_atom_site_fract_x
_atom_site_fract_y
_atom_site_fract_z
Zn1	Zn	-0.250578	1.597560	0.590788
Zn2	Zn	-0.355860	1.597408	0.416023
Zn3	Zn	-0.250609	1.422801	0.416062
Zn4	Zn	-0.355813	1.422740	0.590723
O5	O	-0.303215	1.510127	0.503399
O6	O	-0.264551	1.743776	0.567616
O7	O	-0.341931	1.574208	0.269792
O8	O	-0.162516	1.446072	0.439283
O9	O	-0.341901	1.743664	0.439217
O10	O	-0.162493	1.574467	0.567654
O11	O	-0.264604	1.445925	0.269821
O12	O	-0.264558	1.276557	0.439220
O13	O	-0.341821	1.445969	0.736968
O14	O	-0.341851	1.276512	0.567543
O15	O	-0.264505	1.574408	0.737016
O16	O	-0.443944	1.574149	0.439154
O17	O	-0.443909	1.445821	0.567505
C18	C	-0.303203	1.238617	0.503379
C19	C	-0.303213	1.122464	0.503396
C20	C	-0.341520	1.070685	0.566796
C21	C	-0.341531	0.950635	0.566814
C22	C	-0.466767	1.509990	0.503341
C23	C	-0.536735	1.510027	0.503351
C24	C	-0.569599	1.576907	0.436587
C25	C	-0.635341	1.576956	0.436611
C26	C	-0.668217	1.510107	0.503387
C27	C	-0.635346	1.443222	0.570165
C28	C	-0.569604	1.443183	0.570147
N29	N	-0.771483	1.418690	0.511347
N30	N	-0.833934	1.418731	0.511358
C31	C	-0.866292	1.510224	0.503447
N32	N	-0.833839	1.601676	0.495504
N33	N	-0.771382	1.601635	0.495488
C34	C	-0.739503	1.510143	0.503415
C35	C	-0.970441	1.577162	0.436705
C36	C	-1.036185	1.577213	0.436736
C37	C	-1.036188	1.443470	0.570284
C38	C	-0.970446	1.443429	0.570259
C39	C	-0.937576	1.510273	0.503464
C40	C	-0.139025	1.510293	0.503480
C41	C	-0.069057	1.510364	0.503515
C42	C	-0.303154	1.510198	0.775969
C43	C	-0.303128	1.510229	0.892123
C44	C	-0.303228	1.782697	0.503420
C45	C	-0.303233	1.898851	0.503428
C46	C	-0.303231	1.510117	0.231889
C47	C	-0.303079	1.510289	0.115737
C48	C	-0.341377	1.573714	0.943893
C49	C	-0.341351	1.573747	1.063944
H50	H	-0.374329	0.906106	0.621090
Cl51	Cl	-0.391961	1.657606	0.875114
Cl52	Cl	-0.252585	1.053697	0.419615
H53	H	-1.062955	1.389045	0.624660
H54	H	-0.542846	1.388721	0.624515
H55	H	-0.374305	1.115232	0.621065
Cl56	Cl	-0.929117	1.661192	0.352736
H57	H	-0.542838	1.631338	0.382202
Cl58	Cl	-0.929129	1.359342	0.654191
Cl59	Cl	-1.077500	1.661305	0.352804
H60	H	-0.374098	1.628098	1.108465
Cl61	Cl	-0.252521	1.426360	1.047011
Cl62	Cl	-0.676675	1.359188	0.654117
Cl63	Cl	-0.252598	0.967587	0.419612
Cl64	Cl	-0.676664	1.661037	0.352671
H65	H	-0.270360	1.455906	0.936677
