data_functionalizedCrystal
_audit_creation_method	'MofGen! by Chris Wilmer'
_symmetry_space_group_name_H-M	'P1'
_symmetry_Int_Tables_number	1
_symmetry_cell_setting	triclinic
loop_
_symmetry_equiv_pos_as_xyz
  x,y,z
_cell_length_a	10.540535
_cell_length_b	10.540510
_cell_length_c	9.016244
_cell_angle_alpha	90.000273
_cell_angle_beta	89.995024
_cell_angle_gamma	84.518476
loop_
_atom_site_label
_atom_site_type_symbol
_atom_site_fract_x
_atom_site_fract_y
_atom_site_fract_z
O1	O	1.685877	0.178870	-0.123250
O2	O	1.316462	0.195732	-0.123270
O3	O	1.509617	0.002592	-0.123259
O4	O	1.492722	0.372010	-0.123261
O5	O	1.509589	0.002596	0.123422
O6	O	1.316433	0.195737	0.123411
O7	O	1.685849	0.178874	0.123430
Cu8	Cu	1.501138	0.187306	0.145944
Cu9	Cu	1.501172	0.187301	-0.145784
O10	O	1.492693	0.372015	0.123419
C11	C	1.269145	0.194471	0.000068
C12	C	1.128197	0.190691	0.000060
C13	C	1.091541	0.049676	0.000066
C14	C	0.944941	0.045698	0.000641
C15	C	0.918838	0.255065	0.140670
C16	C	1.065603	0.258066	0.140773
C17	C	1.065519	0.260113	-0.139759
C18	C	0.919173	0.253591	-0.141592
C19	C	1.508344	-0.044709	0.000078
C20	C	1.504577	-0.185659	0.000069
C21	C	1.638761	-0.403117	0.000641
C22	C	1.642779	-0.256521	0.000078
C23	C	1.433847	-0.230419	-0.140799
C24	C	1.430808	-0.377180	-0.140909
C25	C	1.427897	-0.376984	0.139613
C26	C	1.434452	-0.230642	0.141467
C27	C	1.733166	0.180136	0.000089
C28	C	1.874114	0.183915	0.000088
C29	C	1.493967	0.419316	0.000079
C30	C	1.497733	0.560266	0.000078
N31	N	1.501124	0.187309	0.351131
N32	N	1.501196	0.187288	-0.350970
C33	C	1.397482	0.290279	0.586157
C34	C	1.397711	0.290665	0.414266
C35	C	1.633844	0.217441	0.413476
C36	C	1.633278	0.218170	0.585421
C37	C	1.473365	0.053869	0.585673
C38	C	1.470319	0.054734	0.413719
H39	H	1.133527	-0.004477	-0.100733
H40	H	1.105767	0.210019	0.246264
H41	H	1.692305	-0.446625	-0.099805
H42	H	1.479168	-0.417398	-0.246205
H43	H	1.658732	0.313679	0.370399
H44	H	0.887929	0.206254	0.245695
H45	H	1.088622	0.361441	0.146780
H46	H	1.107995	0.216108	-0.246352
H47	H	0.890588	0.201813	-0.245597
F48	F	0.855062	0.385448	-0.153255
F49	F	1.501713	-0.193235	0.277685
H50	H	0.871470	0.356832	0.145501
H51	H	1.087693	0.363865	-0.141119
F52	F	1.295704	-0.407239	-0.149281
H53	H	0.915621	-0.009945	-0.100114
H54	H	1.332105	-0.183029	-0.146042
H55	H	1.482990	-0.199565	-0.245627
F56	F	1.484904	-0.432532	0.279171
H57	H	1.333553	-0.181574	0.149968
F58	F	1.349518	0.016404	0.642413
H59	H	1.698122	-0.227176	0.101055
F60	F	1.737188	0.122069	0.360025
H61	H	1.692592	-0.445071	0.101665
H62	H	1.540855	-0.025589	0.370747
F63	F	1.715563	-0.219390	-0.132133
F64	F	1.572203	-0.046328	0.638814
H65	H	1.324134	-0.399132	0.140556
F66	F	1.268797	0.267033	0.359169
H67	H	1.298558	0.272428	0.627545
H68	H	1.415138	0.388704	0.629351
H69	H	1.415600	0.389650	0.373120
F70	F	1.148331	-0.019920	0.131645
F71	F	1.665096	0.345398	0.637826
H72	H	1.712928	0.146178	0.627008
F73	F	0.907735	-0.026650	0.133156
F74	F	1.342701	0.024878	0.360463
