data_functionalizedCrystal
_audit_creation_method	'MofGen! by Chris Wilmer'
_symmetry_space_group_name_H-M	'P1'
_symmetry_Int_Tables_number	1
_symmetry_cell_setting	triclinic
loop_
_symmetry_equiv_pos_as_xyz
  x,y,z
_cell_length_a	18.050591
_cell_length_b	18.101396
_cell_length_c	18.101390
_cell_angle_alpha	90.030705
_cell_angle_beta	89.974633
_cell_angle_gamma	89.966971
loop_
_atom_site_label
_atom_site_type_symbol
_atom_site_fract_x
_atom_site_fract_y
_atom_site_fract_z
Zn1	Zn	1.135280	0.294880	-0.418864
Zn2	Zn	1.135162	0.418737	-0.295027
Zn3	Zn	1.011089	0.294905	-0.295023
Zn4	Zn	1.011028	0.418676	-0.418814
O5	O	1.073140	0.356800	-0.356932
O6	O	1.239189	0.311325	-0.402459
O7	O	1.118680	0.402347	-0.191393
O8	O	1.027639	0.191269	-0.311470
O9	O	1.239102	0.402322	-0.311476
O10	O	1.118881	0.191251	-0.402455
O11	O	1.027524	0.311368	-0.191391
O12	O	0.907157	0.311309	-0.311422
O13	O	1.027534	0.402218	-0.522454
O14	O	0.907111	0.402242	-0.402371
O15	O	1.118821	0.311266	-0.522490
O16	O	1.118620	0.522362	-0.311428
O17	O	1.027419	0.522317	-0.402374
C18	C	1.073020	0.549210	-0.356912
C19	C	1.073037	0.631524	-0.356929
C20	C	0.880187	0.356772	-0.356891
C21	C	0.797642	0.356778	-0.356891
C22	C	1.073184	0.356732	-0.550094
C23	C	1.073203	0.356703	-0.632408
C24	C	0.598194	0.307271	-0.307547
C25	C	0.548763	0.374820	-0.289325
C26	C	0.646511	0.356801	-0.356925
C27	C	0.548861	0.289275	-0.375145
C28	C	0.500526	0.356816	-0.356955
C29	C	0.598167	0.424385	-0.338667
C30	C	0.598270	0.338794	-0.424518
C31	C	0.548861	0.406390	-0.406322
C32	C	0.730610	0.356791	-0.356905
C33	C	0.416430	0.356834	-0.356975
C34	C	1.266845	0.356828	-0.356973
C35	C	1.349391	0.356840	-0.356991
C36	C	1.073169	0.930615	-0.356972
C37	C	1.015925	0.899293	-0.414334
C38	C	1.015661	0.813675	-0.414154
C39	C	1.073104	0.782233	-0.356951
C40	C	1.051911	0.813388	-0.278900
C41	C	1.051533	0.899033	-0.279244
C42	C	1.151735	0.898963	-0.376973
C43	C	1.151282	0.813312	-0.378684
C44	C	1.073068	0.698373	-0.356934
C45	C	1.073203	1.014475	-0.356983
C46	C	1.073254	1.163638	-0.356971
C47	C	1.073236	1.081324	-0.356994
C48	C	1.073243	0.356657	-0.931499
C49	C	1.130867	0.299634	-0.900197
C50	C	1.130688	0.299422	-0.814579
C51	C	1.073223	0.356680	-0.783117
C52	C	0.994989	0.335471	-0.814181
C53	C	0.995334	0.335044	-0.899827
C54	C	1.093163	0.435036	-0.899916
C55	C	1.094880	0.434636	-0.814267
C56	C	1.073208	0.356694	-0.699257
C57	C	1.073253	0.356641	-1.015359
C58	C	1.073138	0.356814	-0.164521
C59	C	1.073264	0.356634	-0.082208
H60	H	0.619855	0.265431	-0.265745
C61	C	1.209061	0.317325	-0.786186
C62	C	1.221887	0.385626	-0.737087
C63	C	1.300266	0.403512	-0.708692
C64	C	1.365818	0.353097	-0.729396
C65	C	1.352995	0.284792	-0.778498
C66	C	1.274616	0.266905	-0.806893
H67	H	1.173359	0.422951	-0.721758
H68	H	1.309758	0.454077	-0.672344
H69	H	1.423839	0.366338	-0.708377
H70	H	1.401523	0.247467	-0.793827
H71	H	1.265124	0.216341	-0.843241
C72	C	1.105405	0.927030	-0.219528
C73	C	1.171765	0.975801	-0.241351
C74	C	1.225631	1.003792	-0.181631
C75	C	1.213137	0.983012	-0.100089
C76	C	1.146774	0.934239	-0.078263
C77	C	1.092908	0.906248	-0.137982
H78	H	1.181017	0.991186	-0.301716
H79	H	1.274758	1.039897	-0.197789
H80	H	1.253012	1.003733	-0.055881
H81	H	1.137523	0.918854	-0.017897
H82	H	1.043782	0.870143	-0.121825
H83	H	1.167263	0.792946	-0.436126
H84	H	0.527018	0.390062	-0.232175
H85	H	1.196193	0.791905	-0.339950
C86	C	0.937730	0.928445	-0.396660
C87	C	0.874805	0.873891	-0.378775
C88	C	0.796612	0.903045	-0.361096
C89	C	0.781343	0.986753	-0.361303
C90	C	0.844270	1.041311	-0.379189
C91	C	0.922463	1.012157	-0.396868
H92	H	0.886105	0.811921	-0.378621
H93	H	0.750029	0.862657	-0.347856
H94	H	0.723460	1.008334	-0.348217
H95	H	0.832970	1.103281	-0.379343
H96	H	0.969046	1.052546	-0.410108
C97	C	1.209357	0.926326	-0.320539
C98	C	1.200325	0.907428	-0.238090
C99	C	1.257940	0.934795	-0.181653
C100	C	1.324587	0.981060	-0.207665
C101	C	1.333622	0.999961	-0.290118
C102	C	1.276007	0.972594	-0.346555
H103	H	1.150987	0.873177	-0.218830
H104	H	1.251252	0.920803	-0.120615
H105	H	1.367237	1.001319	-0.165887
H106	H	1.382960	1.034212	-0.309378
H107	H	1.282695	0.986586	-0.407593
H108	H	0.619735	0.481514	-0.323206
H109	H	0.527336	0.448331	-0.448092
H110	H	1.117502	0.241358	-0.794102
H111	H	1.189070	0.312752	-0.920805
C112	C	1.106465	0.785876	-0.219580
C113	C	1.077992	0.739910	-0.153890
C114	C	1.132546	0.712396	-0.094572
C115	C	1.215573	0.730848	-0.100945
C116	C	1.244050	0.776816	-0.166638
C117	C	1.189496	0.804330	-0.225956
H118	H	1.016527	0.726249	-0.149170
H119	H	1.111465	0.678368	-0.045942
H120	H	1.255957	0.710480	-0.057034
H121	H	1.305515	0.790477	-0.171358
H122	H	1.210577	0.838359	-0.274586
H123	H	0.995093	0.792001	-0.261653
H124	H	0.620032	0.323532	-0.481651
H125	H	1.117849	0.241894	-0.921731
H126	H	0.527163	0.232170	-0.390517
H127	H	0.957431	0.793248	-0.400904
H128	H	0.978446	0.277750	-0.919814
C129	C	1.033525	0.785208	-0.492347
C130	C	1.048135	0.840405	-0.555391
C131	C	1.065974	0.811942	-0.633593
C132	C	1.069205	0.728283	-0.648752
C133	C	1.054596	0.673081	-0.585706
C134	C	1.036756	0.701543	-0.507504
H135	H	1.045743	0.902339	-0.544172
H136	H	1.076790	0.852807	-0.680264
H137	H	1.082411	0.707213	-0.706642
H138	H	1.056987	0.611146	-0.596925
H139	H	1.025941	0.660678	-0.460833
H140	H	1.171051	0.920508	-0.432919
C141	C	1.033651	0.927039	-0.492777
C142	C	1.100321	0.978480	-0.505710
C143	C	1.118051	1.006229	-0.584156
C144	C	1.069112	0.982536	-0.649668
C145	C	1.002438	0.931092	-0.636737
C146	C	0.984707	0.903343	-0.558291
H147	H	1.136552	0.996022	-0.457213
H148	H	1.167408	1.044311	-0.593729
H149	H	1.082237	1.003077	-0.707739
H150	H	0.966206	0.913550	-0.685235
H151	H	0.935350	0.865261	-0.548719
C152	C	0.973948	0.926113	-0.256362
C153	C	0.912766	0.869808	-0.237903
C154	C	0.835178	0.896883	-0.215024
C155	C	0.818773	0.980263	-0.210603
C156	C	0.879957	1.036573	-0.229062
C157	C	0.957545	1.009498	-0.251942
H158	H	0.924909	0.808080	-0.241175
H159	H	0.789886	0.855198	-0.201359
H160	H	0.761338	1.000305	-0.193666
H161	H	0.867815	1.098300	-0.225790
H162	H	1.002837	1.051183	-0.265607
H163	H	0.950940	0.374770	-0.920531
H164	H	0.950890	0.375725	-0.793800
C165	C	0.971757	0.258926	-0.785227
C166	C	1.023632	0.215600	-0.733438
C167	C	1.000404	0.139053	-0.704486
C168	C	0.925303	0.105832	-0.727323
C169	C	0.873424	0.149158	-0.779115
C170	C	0.896651	0.225705	-0.808067
H171	H	1.079230	0.240192	-0.716530
H172	H	1.038809	0.106980	-0.666146
H173	H	0.908109	0.049167	-0.705891
H174	H	0.817825	0.124567	-0.796023
H175	H	0.858247	0.257778	-0.846408
C176	C	1.168911	0.461097	-0.929106
C177	C	1.213649	0.411535	-0.982004
C178	C	1.289400	0.437587	-1.011195
C179	C	1.320414	0.513200	-0.987487
C180	C	1.275676	0.562767	-0.934586
C181	C	1.199925	0.536715	-0.905396
H182	H	1.190691	0.355558	-0.999557
H183	H	1.322518	0.400894	-1.050355
H184	H	1.376490	0.532485	-1.009095
H185	H	1.298634	0.618744	-0.917033
H186	H	1.166807	0.573408	-0.866235
C187	C	1.172657	0.456244	-0.786836
C188	C	1.183190	0.526590	-0.740139
C189	C	1.260967	0.548193	-0.712703
C190	C	1.328211	0.499450	-0.731963
C191	C	1.317680	0.429099	-0.778662
C192	C	1.239903	0.407496	-0.806099
H193	H	1.133410	0.562677	-0.725880
H194	H	1.268762	0.600272	-0.678133
H195	H	1.385786	0.515442	-0.711653
H196	H	1.367459	0.393012	-0.792922
H197	H	1.232108	0.355417	-0.840669
H198	H	1.055961	0.479406	-0.792847
H199	H	1.051196	0.477524	-0.920164
