data_functionalizedCrystal
_audit_creation_method	'MofGen! by Chris Wilmer'
_symmetry_space_group_name_H-M	'P1'
_symmetry_Int_Tables_number	1
_symmetry_cell_setting	triclinic
loop_
_symmetry_equiv_pos_as_xyz
  x,y,z
_cell_length_a	19.188905
_cell_length_b	17.666332
_cell_length_c	9.065218
_cell_angle_alpha	90.000244
_cell_angle_beta	95.924779
_cell_angle_gamma	90.013693
loop_
_atom_site_label
_atom_site_type_symbol
_atom_site_fract_x
_atom_site_fract_y
_atom_site_fract_z
O1	O	0.927588	0.063070	-0.183993
O2	O	0.724467	0.063044	-0.208825
O3	O	0.830226	0.063056	0.018380
O4	O	0.821829	0.063058	-0.411198
O5	O	0.830212	-0.062841	0.018372
O6	O	0.724453	-0.062853	-0.208832
O7	O	0.927574	-0.062826	-0.184000
Cu8	Cu	0.826012	-0.074335	-0.196417
Cu9	Cu	0.826029	0.074553	-0.196408
O10	O	0.821815	-0.062839	-0.411205
C11	C	0.698442	0.000092	-0.208031
C12	C	0.620918	0.000082	-0.205635
N13	N	0.826005	-0.179054	-0.196422
C14	C	0.868949	-0.781097	-0.285622
C15	C	0.868942	-0.701850	-0.285637
C16	C	0.826035	-0.662236	-0.196393
C17	C	0.783119	-0.701876	-0.107156
C18	C	0.783121	-0.781122	-0.107155
N19	N	0.823341	-0.537813	-0.067168
N20	N	0.823342	-0.462532	-0.067172
C21	C	0.826023	-0.423472	-0.196393
N22	N	0.828716	-0.462536	-0.325610
N23	N	0.828718	-0.537823	-0.325603
C24	C	0.826027	-0.576307	-0.196385
C25	C	0.868925	-0.297912	-0.285648
C26	C	0.868914	-0.218663	-0.285666
C27	C	0.783094	-0.218691	-0.107171
C28	C	0.783102	-0.297938	-0.107167
C29	C	0.826021	-0.337544	-0.196403
C30	C	0.584525	0.068711	-0.204480
C31	C	0.511684	0.068720	-0.202213
C32	C	0.475240	0.000097	-0.201071
C33	C	0.511642	-0.068540	-0.202234
C34	C	0.584481	-0.068548	-0.204516
N35	N	0.365534	-0.050972	-0.113540
N36	N	0.296340	-0.050961	-0.111369
C37	C	0.255780	0.000116	-0.194199
N38	N	0.287029	0.051191	-0.279263
N39	N	0.356230	0.051182	-0.281427
C40	C	0.396259	0.000098	-0.198598
C41	C	0.140404	0.068759	-0.190588
C42	C	0.067561	0.068765	-0.188330
C43	C	0.067521	-0.068497	-0.188336
C44	C	0.140362	-0.068501	-0.190609
C45	C	0.176800	0.000129	-0.191728
C46	C	0.953598	0.000127	-0.184795
C47	C	1.031122	0.000142	-0.187190
C48	C	0.829412	0.000109	0.073335
C49	C	0.826999	0.000112	0.237093
N50	N	0.826041	0.179272	-0.196391
C51	C	0.822629	0.000110	-0.466160
C52	C	0.825042	0.000112	-0.629919
H53	H	0.903896	-0.813340	-0.358288
Br54	Br	0.018168	0.161912	-0.186781
Br55	Br	0.724883	-0.834910	0.013952
Br56	Br	0.724854	-0.164937	0.013932
H57	H	0.614111	-0.124435	-0.205458
Br58	Br	0.724882	-0.648116	0.013950
Br59	Br	0.633973	0.161851	-0.206002
Br60	Br	0.724868	-0.351726	0.013943
Br61	Br	0.462282	0.161865	-0.200649
H62	H	0.903870	-0.330161	-0.358316
H63	H	0.169994	-0.124386	-0.191539
Br64	Br	0.189859	0.161897	-0.192116
Br65	Br	0.927132	-0.164877	-0.406817
Br66	Br	0.462183	-0.161672	-0.200701
H67	H	0.037849	-0.124371	-0.187415
H68	H	0.903882	-0.669576	-0.358306
