data_functionalizedCrystal
_audit_creation_method	'MofGen! by Chris Wilmer'
_symmetry_space_group_name_H-M	'P1'
_symmetry_Int_Tables_number	1
_symmetry_cell_setting	triclinic
loop_
_symmetry_equiv_pos_as_xyz
  x,y,z
_cell_length_a	18.215407
_cell_length_b	19.120786
_cell_length_c	18.215385
_cell_angle_alpha	87.466553
_cell_angle_beta	89.937984
_cell_angle_gamma	92.462700
loop_
_atom_site_label
_atom_site_type_symbol
_atom_site_fract_x
_atom_site_fract_y
_atom_site_fract_z
Zn1	Zn	1.112905	-0.279246	-0.403565
Zn2	Zn	1.107454	-0.396847	-0.275236
Zn3	Zn	0.989734	-0.279396	-0.280511
Zn4	Zn	0.984549	-0.396668	-0.398276
O5	O	1.048661	-0.338039	-0.339397
O6	O	1.215166	-0.294858	-0.386547
O7	O	1.091727	-0.381405	-0.172945
O8	O	1.010524	-0.181082	-0.301256
O9	O	1.211161	-0.381259	-0.292265
O10	O	1.101017	-0.180971	-0.391663
O11	O	1.005238	-0.295114	-0.176821
O12	O	0.886062	-0.294941	-0.296127
O13	O	1.001687	-0.380954	-0.501968
O14	O	0.882253	-0.381100	-0.382648
O15	O	1.095990	-0.294684	-0.505854
O16	O	1.086700	-0.495118	-0.287136
O17	O	0.996402	-0.494987	-0.377533
C18	C	0.857455	-0.338018	-0.339387
C19	C	0.775656	-0.338025	-0.339399
C20	C	0.508630	-0.382976	-0.384381
C21	C	0.585489	-0.382970	-0.384377
C22	C	0.589431	-0.293118	-0.294426
C23	C	0.512574	-0.293128	-0.294426
C24	C	0.472175	-0.338056	-0.339407
C25	C	0.625892	-0.338040	-0.339404
C26	C	0.709226	-0.338033	-0.339400
C27	C	0.388836	-0.338064	-0.339410
C28	C	1.040417	-0.520539	-0.331204
C29	C	1.036958	-0.598613	-0.327724
C30	C	1.082413	-0.635175	-0.373197
C31	C	1.079159	-0.708534	-0.369929
C32	C	1.030454	-0.745330	-0.321183
C33	C	0.984994	-0.708763	-0.275708
C34	C	0.988245	-0.635406	-0.278980
C35	C	1.018282	-0.966828	-0.308947
C36	C	1.015037	-1.040191	-0.305676
C37	C	1.109201	-1.039956	-0.399899
C38	C	1.112450	-0.966597	-0.403164
C39	C	1.066988	-0.930037	-0.357692
C40	C	1.027129	-0.820315	-0.317839
C41	C	1.070309	-0.855054	-0.361040
C42	C	1.240613	-0.338061	-0.339408
C43	C	1.322411	-0.338071	-0.339412
C44	C	1.048868	-0.337782	-0.531362
C45	C	1.048957	-0.337673	-0.613166
C46	C	1.056957	-0.154827	-0.347638
C47	C	1.060492	-0.076753	-0.351149
C48	C	1.048499	-0.338245	-0.148181
C49	C	1.048562	-0.338156	-0.066386
C50	C	1.003342	-0.293355	0.119760
C51	C	1.003410	-0.293272	0.196615
C52	C	1.094181	-0.382476	0.200682
C53	C	1.094116	-0.382555	0.123828
C54	C	1.048693	-0.337996	0.083370
C55	C	1.048825	-0.337833	0.237078
C56	C	1.048900	-0.337742	0.320407
C57	C	1.048620	-0.338086	0.000035
H58	H	0.622333	-0.256539	-0.257804
H59	H	0.615168	-0.419549	-0.420998
H60	H	1.131050	-0.418908	0.094199
H61	H	1.109962	-0.825092	-0.400732
O62	O	0.477273	-0.249424	-0.250716
C63	C	0.529408	-0.209775	-0.211005
H64	H	0.584338	-0.207334	-0.241260
H65	H	0.509680	-0.154436	-0.205729
H66	H	0.536364	-0.235493	-0.153916
H67	H	0.966358	-0.257070	0.086821
H68	H	0.475740	-0.419559	-0.421007
O69	O	0.959286	-0.249887	0.231850
C70	C	0.919198	-0.210565	0.179656
H71	H	0.915518	-0.239412	0.126248
H72	H	0.861499	-0.203444	0.201633
H73	H	0.948158	-0.157044	0.168883
O74	O	1.138230	-0.425740	0.240098
C75	C	1.128576	-0.416088	0.315735
H76	H	1.072642	-0.393457	0.325261
H77	H	1.131608	-0.468638	0.347434
H78	H	1.173669	-0.378365	0.335670
O79	O	1.129644	-0.599464	-0.420655
C80	C	1.112793	-0.617294	-0.493192
H81	H	1.053107	-0.637500	-0.495950
H82	H	1.121278	-0.568986	-0.531712
H83	H	1.150369	-0.659812	-0.510568
O84	O	1.123349	-0.744132	-0.413989
C85	C	1.168995	-0.786585	-0.370227
H86	H	1.142527	-0.797683	-0.313940
H87	H	1.176580	-0.838116	-0.397908
H88	H	1.224786	-0.758289	-0.363446
H89	H	1.146213	-1.069731	-0.436920
H90	H	1.152109	-0.936639	-0.442857
H91	H	0.981266	-0.937067	-0.271920
O92	O	0.967654	-1.075828	-0.258306
C93	C	0.928236	-1.027830	-0.218860
H94	H	0.928011	-0.975489	-0.251335
H95	H	0.869310	-1.049088	-0.210017
H96	H	0.955510	-1.020100	-0.163333
O97	O	0.979720	-0.856030	-0.270563
C98	C	0.907166	-0.838126	-0.287361
H99	H	0.904354	-0.817858	-0.347051
H100	H	0.868673	-0.886412	-0.278840
H101	H	0.889802	-0.795633	-0.249777
O102	O	0.937578	-0.744474	-0.228436
C103	C	0.865027	-0.726568	-0.245242
H104	H	0.862221	-0.706308	-0.304935
H105	H	0.826530	-0.774851	-0.236716
H106	H	0.847664	-0.684068	-0.207666
O107	O	0.944014	-0.599855	-0.234914
C108	C	0.898387	-0.557378	-0.278670
H109	H	0.892880	-0.579394	-0.335645
H110	H	0.841777	-0.556632	-0.252039
H111	H	0.923606	-0.501760	-0.283708
