data_functionalizedCrystal
_audit_creation_method	'MofGen! by Chris Wilmer'
_symmetry_space_group_name_H-M	'P1'
_symmetry_Int_Tables_number	1
_symmetry_cell_setting	triclinic
loop_
_symmetry_equiv_pos_as_xyz
  x,y,z
_cell_length_a	10.654550
_cell_length_b	17.000371
_cell_length_c	9.730223
_cell_angle_alpha	89.998453
_cell_angle_beta	89.996251
_cell_angle_gamma	80.042075
loop_
_atom_site_label
_atom_site_type_symbol
_atom_site_fract_x
_atom_site_fract_y
_atom_site_fract_z
O1	O	1.653961	0.111721	-0.114403
O2	O	1.287161	0.122366	-0.114381
O3	O	1.493336	0.001303	-0.114383
O4	O	1.447785	0.232784	-0.114400
O5	O	1.493333	0.001306	0.114196
O6	O	1.287158	0.122369	0.114199
O7	O	1.653958	0.111724	0.114177
Zn8	Zn	1.470558	0.117047	0.150480
Zn9	Zn	1.470561	0.117043	-0.150684
O10	O	1.447783	0.232787	0.114180
C11	C	1.240458	0.121586	-0.000088
C12	C	1.101305	0.119247	-0.000079
C13	C	1.495781	-0.028336	-0.000094
C14	C	1.503057	-0.116654	-0.000096
C15	C	1.012968	0.190527	-0.000104
C16	C	0.882221	0.188325	-0.000128
C17	C	0.928161	0.043557	-0.000107
C18	C	1.058906	0.045760	-0.000074
C19	C	1.055368	0.264014	-0.000110
C20	C	0.967029	0.335300	-0.000137
C21	C	0.836281	0.333098	-0.000160
C22	C	0.793873	0.259611	-0.000157
C23	C	1.391100	-0.149298	-0.000095
C24	C	1.397943	-0.232283	-0.000092
C25	C	1.516745	-0.282623	-0.000099
C26	C	1.628710	-0.249975	-0.000096
C27	C	1.621865	-0.166991	-0.000089
C28	C	1.543183	-0.533623	-0.000110
C29	C	1.550019	-0.616612	-0.000121
C30	C	1.319251	-0.598915	-0.000114
C31	C	1.312417	-0.515930	-0.000116
C32	C	1.424382	-0.483289	-0.000105
C33	C	1.523742	-0.367448	-0.000100
C34	C	1.417383	-0.398466	-0.000095
C35	C	1.700660	0.112504	-0.000119
C36	C	1.839813	0.114843	-0.000136
C37	C	1.445337	0.262426	-0.000113
C38	C	1.438062	0.350744	-0.000120
N39	N	1.470565	0.117049	0.356017
N40	N	1.470565	0.117034	-0.356220
C41	C	1.561879	0.063461	0.427941
C42	C	1.561877	0.063451	0.571824
C43	C	1.379241	0.170625	0.571845
C44	C	1.379239	0.170630	0.427965
C45	C	1.653204	0.009880	0.355993
C46	C	1.744527	-0.043712	0.427918
C47	C	1.744525	-0.043722	0.571801
C48	C	1.653200	0.009860	0.643759
H49	H	1.161826	0.265815	-0.000097
H50	H	1.001567	0.395131	-0.000128
C51	C	1.844963	-0.102672	0.650922
H52	H	1.831880	-0.095010	0.746917
H53	H	1.927762	-0.093537	0.627341
H54	H	1.837196	-0.155843	0.627332
H55	H	1.294358	-0.108316	-0.000096
H56	H	1.304881	0.214266	0.369403
C57	C	0.739113	0.411507	-0.000188
H58	H	0.783095	0.455585	-0.000197
H59	H	0.687131	0.413664	0.079509
H60	H	0.687179	0.413651	-0.079923
H61	H	1.653198	0.009843	0.760919
C62	C	1.278804	0.229567	0.650995
H63	H	1.291893	0.221894	0.746986
H64	H	1.196002	0.220438	0.627427
H65	H	1.286577	0.282739	0.627416
C66	C	1.653208	0.009893	0.197728
H67	H	1.585749	0.049487	0.165196
H68	H	1.641664	-0.041048	0.165163
H69	H	1.732215	0.021267	0.165186
H70	H	0.687408	0.257823	-0.000155
C71	C	1.844973	-0.102653	0.348778
H72	H	1.899348	-0.134575	0.412225
H73	H	1.894050	-0.073727	0.292650
H74	H	1.803482	-0.136032	0.292650
H75	H	0.893621	-0.016273	-0.000127
H76	H	1.130833	-0.012282	-0.000057
H77	H	1.215676	-0.474948	-0.000114
C78	C	1.274790	-0.268188	-0.000095
H79	H	1.203057	-0.226322	-0.000106
H80	H	1.272656	-0.300193	0.079615
H81	H	1.272668	-0.300190	-0.079816
H82	H	1.646767	-0.657598	-0.000136
C83	C	1.196101	-0.634823	-0.000108
H84	H	1.217187	-0.691454	-0.000101
H85	H	1.147566	-0.617585	-0.079812
H86	H	1.147579	-0.617590	0.079620
C87	C	1.759392	-0.305343	-0.000104
H88	H	1.825090	-0.274014	-0.000092
H89	H	1.766861	-0.338079	-0.079819
H90	H	1.766857	-0.338086	0.079613
C91	C	1.745018	-0.131083	-0.000093
H92	H	1.816753	-0.172947	-0.000110
H93	H	1.747142	-0.099082	0.079621
H94	H	1.747146	-0.099076	-0.079811
C95	C	1.654420	-0.422821	-0.000123
H96	H	1.720125	-0.391498	-0.000120
H97	H	1.661876	-0.455559	-0.079835
H98	H	1.661884	-0.455561	0.079597
H99	H	1.634353	-0.507057	-0.000105
H100	H	1.320656	-0.357475	-0.000080
