data_functionalizedCrystal
_audit_creation_method	'MofGen! by Chris Wilmer'
_symmetry_space_group_name_H-M	'P1'
_symmetry_Int_Tables_number	1
_symmetry_cell_setting	triclinic
loop_
_symmetry_equiv_pos_as_xyz
  x,y,z
_cell_length_a	6.817900
_cell_length_b	19.453114
_cell_length_c	17.982783
_cell_angle_alpha	96.125467
_cell_angle_beta	102.448572
_cell_angle_gamma	101.709288
loop_
_atom_site_label
_atom_site_type_symbol
_atom_site_fract_x
_atom_site_fract_y
_atom_site_fract_z
V1	V	-4.001665	-0.219293	-0.106206
V2	V	-3.501665	0.280707	0.393794
O3	O	-3.994950	-0.214818	0.004287
O4	O	-3.494950	0.285182	0.504287
O5	O	-3.948263	-0.218081	-0.209804
O6	O	-3.448263	0.281919	0.290196
O7	O	-3.944642	-0.314802	-0.104931
O8	O	-3.444642	0.185198	0.395069
O9	O	-3.998596	-0.117428	-0.101312
O10	O	-3.498596	0.382572	0.398688
V11	V	-4.487059	-0.207074	-0.092948
V12	V	-3.987059	0.292926	0.407052
O13	O	-4.258820	-0.246096	-0.135290
O14	O	-3.758820	0.253904	0.364710
O15	O	-4.680101	-0.180271	-0.063864
O16	O	-4.180101	0.319729	0.436136
O17	O	-4.317255	-0.208285	0.010650
O18	O	-3.817255	0.291715	0.510650
O19	O	-4.611171	-0.211548	-0.203441
O20	O	-4.111171	0.288452	0.296559
O21	O	-4.607525	-0.308939	-0.097842
O22	O	-4.107525	0.191061	0.402158
O23	O	-4.320876	-0.111564	-0.094223
O24	O	-3.820876	0.388436	0.405777
C25	C	-3.792326	-0.214697	-0.235048
C26	C	-3.292326	0.285303	0.264952
C27	C	-3.829892	-0.214343	-0.319743
C28	C	-3.329892	0.285657	0.180257
C29	C	-3.813685	-0.149824	-0.348419
C30	C	-3.313685	0.350176	0.151581
C31	C	-3.849002	-0.149494	-0.428000
C32	C	-3.349002	0.350506	0.072000
C33	C	-3.900512	-0.213683	-0.478902
C34	C	-3.400512	0.286317	0.021098
C35	C	-3.916726	-0.278208	-0.450221
C36	C	-3.416726	0.221792	0.049779
C37	C	-3.881423	-0.278537	-0.370642
C38	C	-3.381423	0.221463	0.129358
C39	C	-4.059102	-0.276881	-0.771155
C40	C	-3.559102	0.223119	-0.271155
C41	C	-4.094398	-0.276546	-0.850738
C42	C	-3.594398	0.223454	-0.350738
C43	C	-4.026680	-0.147837	-0.828512
C44	C	-3.526680	0.352163	-0.328512
C45	C	-3.991377	-0.148167	-0.748933
C46	C	-3.491377	0.351833	-0.248933
C47	C	-4.007604	-0.212691	-0.720259
C48	C	-3.507604	0.287309	-0.220259
C49	C	-3.969313	-0.213048	-0.633969
C50	C	-3.469313	0.286952	-0.133969
C51	C	-3.938789	-0.213327	-0.565191
C52	C	-3.438789	0.286673	-0.065191
C53	C	-3.787706	-0.338073	-0.101270
C54	C	-3.287706	0.161927	0.398730
C55	C	-3.822334	-0.416154	-0.100913
C56	C	-3.322334	0.083846	0.399087
C57	C	-4.020199	-0.456421	-0.104569
C58	C	-3.520199	0.043579	0.395431
C59	C	-4.052736	-0.529787	-0.104234
C60	C	-3.552736	-0.029787	0.395766
C61	C	-3.887403	-0.562885	-0.100257
C62	C	-3.387403	-0.062885	0.399743
C63	C	-3.689508	-0.522608	-0.096596
C64	C	-3.189508	-0.022608	0.403404
C65	C	-3.656973	-0.449242	-0.096924
C66	C	-3.156973	0.050758	0.403076
N67	N	-3.825717	-0.681785	-0.140493
N68	N	-3.325717	-0.181785	0.359507
N69	N	-3.856637	-0.751480	-0.140183
N70	N	-3.356637	-0.251480	0.359817
C71	C	-3.985417	-0.783930	-0.099267
C72	C	-3.485417	-0.283930	0.400733
N73	N	-4.082145	-0.744055	-0.058682
N74	N	-3.582145	-0.244055	0.441318
N75	N	-4.051230	-0.674355	-0.058995
N76	N	-3.551230	-0.174355	0.441005
C77	C	-3.922662	-0.642437	-0.099900
C78	C	-3.422662	-0.142437	0.400100
C79	C	-4.218575	-0.903749	-0.102558
C80	C	-3.718575	-0.403749	0.397442
C81	C	-4.251102	-0.977116	-0.102217
C82	C	-3.751102	-0.477116	0.397783
C83	C	-3.887872	-0.969936	-0.094587
C84	C	-3.387872	-0.469936	0.405413
C85	C	-3.855347	-0.896570	-0.094920
C86	C	-3.355347	-0.396570	0.405080
C87	C	-4.020708	-0.863482	-0.098909
C88	C	-3.520708	-0.363482	0.401091
C89	C	-4.136534	-0.211668	0.035890
C90	C	-3.636534	0.288332	0.535890
C91	C	-4.078205	-0.212026	0.120584
C92	C	-3.578205	0.287974	0.620584
C93	C	-4.141154	-0.088290	-0.097886
C94	C	-3.641154	0.411710	0.402114
C95	C	-4.085765	-0.010208	-0.098239
C96	C	-3.585765	0.489792	0.401761
H97	H	-3.771725	-0.097552	-0.306978
H98	H	-3.271725	0.402448	0.193022
H99	H	-3.958683	-0.330473	-0.491673
H100	H	-3.458683	0.169527	0.008327
H101	H	-3.949425	-0.095896	-0.707490
H102	H	-3.449425	0.404104	-0.207490
O103	O	-3.443540	-0.405808	-0.092971
O104	O	-2.943540	0.094192	0.407029
H105	H	-3.448690	-0.349232	-0.093860
H106	H	-2.948690	0.150768	0.406140
H107	H	-4.213869	-0.562580	-0.107215
H108	H	-3.713869	-0.062580	0.392785
H109	H	-3.554894	-0.549560	-0.093355
H110	H	-3.054894	-0.049560	0.406645
O111	O	-4.149993	-0.345786	-0.905641
O112	O	-3.649993	0.154214	-0.405641
H113	H	-4.031903	-0.346095	-0.939516
H114	H	-3.531903	0.153905	-0.439516
O115	O	-4.198545	-0.420735	-0.108851
O116	O	-3.698545	0.079265	0.391149
H117	H	-4.318719	-0.444181	-0.162809
H118	H	-3.818719	0.055819	0.337191
H119	H	-3.835807	-0.096956	-0.451343
H120	H	-3.335807	0.403044	0.048657
H121	H	-4.013478	-0.095299	-0.851867
H122	H	-3.513478	0.404701	-0.351867
O123	O	-4.464530	-1.020547	-0.106156
O124	O	-3.964530	-0.520547	0.393844
H125	H	-4.459374	-1.077120	-0.105247
H126	H	-3.959374	-0.577120	0.394753
O127	O	-4.076571	-0.346470	-0.740230
O128	O	-3.576571	0.153530	-0.240230
H129	H	-4.118291	-0.391047	-0.788997
H130	H	-3.618291	0.108953	-0.288997
O131	O	-3.898886	-0.348125	-0.339706
O132	O	-3.398886	0.151875	0.160294
H133	H	-3.940613	-0.392705	-0.388470
H134	H	-3.440613	0.107295	0.111530
H135	H	-3.694229	-0.863785	-0.091951
H136	H	-3.194229	-0.363785	0.408049
H137	H	-3.753251	-0.996882	-0.091342
H138	H	-3.253251	-0.496882	0.408658
H139	H	-4.353220	-0.876807	-0.105804
H140	H	-3.853220	-0.376807	0.394196
