data_functionalizedCrystal
_audit_creation_method	'MofGen! by Chris Wilmer'
_symmetry_space_group_name_H-M	'P1'
_symmetry_Int_Tables_number	1
_symmetry_cell_setting	triclinic
loop_
_symmetry_equiv_pos_as_xyz
  x,y,z
_cell_length_a	15.944551
_cell_length_b	15.944551
_cell_length_c	12.996460
_cell_angle_alpha	89.992903
_cell_angle_beta	89.998907
_cell_angle_gamma	83.498738
loop_
_atom_site_label
_atom_site_type_symbol
_atom_site_fract_x
_atom_site_fract_y
_atom_site_fract_z
O1	O	1.114525	0.108334	-0.085462
O2	O	0.869976	0.121690	-0.085488
O3	O	0.998929	-0.007263	-0.085465
O4	O	0.985572	0.237287	-0.085485
O5	O	0.998915	-0.007270	0.085669
O6	O	0.869962	0.121683	0.085646
O7	O	1.114512	0.108326	0.085672
Cu8	Cu	0.992236	0.115004	0.101285
Cu9	Cu	0.992252	0.115012	-0.101101
O10	O	0.985559	0.237279	0.085649
C11	C	0.838675	0.121132	0.000076
C12	C	0.745429	0.119470	0.000066
C13	C	0.530572	0.035565	0.000093
C14	C	0.469559	0.074531	-0.084288
C15	C	0.574703	0.116462	0.000079
C16	C	0.469568	0.074543	0.084437
C17	C	0.409790	0.113551	0.000095
C18	C	0.514918	0.155450	-0.084372
C19	C	0.514933	0.155451	0.084428
C20	C	0.453937	0.194476	0.000027
C21	C	0.669705	0.118137	0.000068
C22	C	0.314789	0.111883	0.000098
C23	C	0.998367	-0.038561	0.000102
C24	C	0.996705	-0.131807	0.000103
C25	C	0.912801	-0.346663	0.000080
C26	C	0.951757	-0.407684	0.084463
C27	C	0.993698	-0.302533	0.000094
C28	C	0.951789	-0.407661	-0.084261
C29	C	0.990787	-0.467445	0.000082
C30	C	1.032676	-0.362325	0.084548
C31	C	1.032697	-0.362295	-0.084253
C32	C	1.071711	-0.423298	0.000151
C33	C	0.995372	-0.207530	0.000103
C34	C	0.989119	-0.562446	0.000081
C35	C	1.145813	0.108885	0.000106
C36	C	1.239059	0.110547	0.000109
C37	C	0.986120	0.268577	0.000080
C38	C	0.987782	0.361823	0.000073
N39	N	0.992231	0.114997	0.243632
N40	N	0.992263	0.115012	-0.243448
C41	C	0.992251	0.115013	0.663446
C42	C	0.992243	0.115012	0.546641
C43	C	0.992241	0.115006	0.453543
C44	C	0.992232	0.115003	0.336730
H45	H	0.449454	0.040318	-0.155621
H46	H	0.845652	-0.313356	0.000157
O47	O	0.538703	0.196374	-0.169502
C48	C	0.525630	0.326108	-0.266294
C49	C	0.498637	0.279873	-0.169833
H50	H	0.493236	0.393620	-0.266605
H51	H	0.597012	0.327084	-0.265641
H52	H	0.506583	0.291819	-0.338095
H53	H	0.517627	0.314126	-0.097982
H54	H	0.427258	0.278889	-0.170577
H55	H	0.420779	0.261683	-0.000026
O56	O	0.538976	0.196357	0.169421
C57	C	0.605624	0.313480	0.235609
C58	C	0.578419	0.267258	0.139260
H59	H	0.637536	0.370802	0.211258
H60	H	0.547755	0.334936	0.284437
H61	H	0.651779	0.268875	0.282468
H62	H	0.532284	0.311814	0.092321
H63	H	0.636329	0.245788	0.090508
H64	H	0.917535	-0.427795	0.155795
H65	H	1.066858	-0.342338	0.155966
H66	H	1.138919	-0.456457	0.000206
O67	O	0.570282	-0.044551	-0.000182
C68	C	0.592311	-0.177687	-0.089424
C69	C	0.547297	-0.086976	-0.089244
H70	H	0.573730	-0.212019	-0.161413
H71	H	0.663559	-0.175717	-0.088759
H72	H	0.572921	-0.212498	-0.018183
H73	H	0.566617	-0.052112	-0.160474
H74	H	0.476057	-0.089007	-0.089857
O75	O	0.445710	0.033594	0.169511
C76	C	0.457927	-0.096478	0.265597
C77	C	0.485027	-0.050191	0.169229
H78	H	0.489689	-0.164232	0.265390
H79	H	0.477511	-0.062719	0.337540
H80	H	0.386462	-0.096762	0.265166
H81	H	0.556489	-0.049895	0.169560
H82	H	0.465382	-0.083966	0.097329
O83	O	1.073366	-0.338291	-0.169458
C84	C	1.076737	-0.333943	-0.354732
C85	C	1.030596	-0.361159	-0.258314
H86	H	1.042186	-0.352437	-0.426597
H87	H	1.078117	-0.262619	-0.353572
H88	H	1.144113	-0.366681	-0.355402
H89	H	0.963200	-0.328480	-0.257582
H90	H	1.029284	-0.432491	-0.259511
H91	H	0.917568	-0.427734	-0.155606
