data_functionalizedCrystal
_audit_creation_method	'MofGen! by Chris Wilmer'
_symmetry_space_group_name_H-M	'P1'
_symmetry_Int_Tables_number	1
_symmetry_cell_setting	triclinic
loop_
_symmetry_equiv_pos_as_xyz
  x,y,z
_cell_length_a	8.497365
_cell_length_b	12.759401
_cell_length_c	12.759400
_cell_angle_alpha	89.985155
_cell_angle_beta	90.051021
_cell_angle_gamma	89.968799
loop_
_atom_site_label
_atom_site_type_symbol
_atom_site_fract_x
_atom_site_fract_y
_atom_site_fract_z
Zn1	Zn	-0.891905	1.606387	0.417998
Zn2	Zn	-0.628109	1.606243	0.593777
Zn3	Zn	-0.628138	1.430650	0.418113
Zn4	Zn	-0.891847	1.430678	0.593636
O5	O	-0.760000	1.518490	0.505881
O6	O	-0.856924	1.753389	0.441326
O7	O	-0.407351	1.582878	0.570581
O8	O	-0.663164	1.454011	0.271077
O9	O	-0.663114	1.753283	0.570470
O10	O	-0.856952	1.583124	0.270992
O11	O	-0.407372	1.453871	0.441522
O12	O	-0.663108	1.283633	0.441385
O13	O	-1.112618	1.454058	0.570231
O14	O	-0.856854	1.283653	0.570342
O15	O	-1.112660	1.583151	0.441190
O16	O	-0.663059	1.582905	0.740779
O17	O	-0.856826	1.453918	0.740676
C18	C	-0.759979	1.245522	0.505862
C19	C	-0.760007	1.128746	0.505879
C20	C	-0.860724	1.073922	0.573134
C21	C	-0.860741	0.964197	0.573147
C22	C	-0.659311	0.964131	0.438647
C23	C	-0.659303	1.073853	0.438629
C24	C	-0.977013	1.073959	0.650789
C25	C	-0.977030	0.964235	0.650803
C26	C	-0.759967	1.518427	0.778848
C27	C	-0.760006	1.518497	0.895625
C28	C	-0.350120	1.518414	0.505995
C29	C	-0.171477	1.518563	0.505780
C30	C	-0.760023	1.792523	0.505901
C31	C	-0.760032	1.909299	0.505910
C32	C	-0.760068	1.518581	0.231848
C33	C	-0.760096	1.518620	0.115071
C34	C	-0.659223	1.585735	0.950506
C35	C	-0.659271	1.585799	1.060230
C36	C	-0.860891	1.451379	1.060182
C37	C	-0.860849	1.451320	0.950460
C38	C	-0.542815	1.663338	0.950534
C39	C	-0.542863	1.663402	1.060258
H40	H	-0.933040	1.107967	0.728051
C41	C	-0.933206	0.924282	0.759217
C42	C	-0.933381	0.814550	0.758954
C43	C	-0.893036	0.777708	0.858804
H44	H	-0.831331	0.948935	0.777427
H45	H	-1.007621	0.949062	0.808921
H46	H	-0.858969	0.789780	0.709267
H47	H	-1.035241	0.789869	0.740763
H48	H	-0.967452	0.802488	0.908508
H49	H	-0.791163	0.802369	0.877006
H50	H	-0.893164	0.703252	0.858642
C51	C	-0.970336	1.378207	0.891064
C52	C	-1.058621	1.319371	0.962574
C53	C	-1.159484	1.251995	0.907897
H54	H	-1.039244	1.418244	0.848171
H55	H	-0.909951	1.332360	0.848368
H56	H	-1.119002	1.365213	1.005252
H57	H	-0.989754	1.279313	1.005469
H58	H	-1.099098	1.206147	0.865201
H59	H	-1.228381	1.292040	0.865006
H60	H	-1.219386	1.212060	0.956408
H61	H	-1.093179	0.930254	0.621732
C62	C	-0.970195	1.378484	1.119910
C63	C	-0.948640	1.392909	1.227747
C64	C	-1.049290	1.325764	1.282798
H65	H	-1.076267	1.393762	1.101959
H66	H	-0.946994	1.307864	1.102066
H67	H	-0.971852	1.463512	1.245585
H68	H	-0.842589	1.377623	1.245730
H69	H	-1.026090	1.255144	1.264954
H70	H	-1.155356	1.341048	1.264838
H71	H	-1.034669	1.335535	1.355971
C72	C	-0.586355	1.771892	0.910846
C73	C	-0.476416	1.844876	0.947610
C74	C	-0.516486	1.944885	0.911082
H75	H	-0.586299	1.772005	0.836400
H76	H	-0.688170	1.790120	0.935596
H77	H	-0.374628	1.826653	0.922855
H78	H	-0.476456	1.844797	1.022052
H79	H	-0.618300	1.963113	0.935832
H80	H	-0.516430	1.944986	0.836637
H81	H	-0.441908	1.994418	0.936028
H82	H	-0.426704	1.634196	0.916613
C83	C	-0.601647	1.766382	1.105573
C84	C	-0.735008	1.747703	1.167163
C85	C	-0.789221	1.842540	1.208913
H86	H	-0.521532	1.796911	1.147587
H87	H	-0.628101	1.812854	1.050092
H88	H	-0.708549	1.701249	1.222637
H89	H	-0.815155	1.717190	1.125172
H90	H	-0.815675	1.889012	1.153431
H91	H	-0.709096	1.873061	1.250922
H92	H	-0.879720	1.829881	1.250698
H93	H	-0.420664	1.641647	1.090148
H94	H	-0.577300	1.118487	0.383857
H95	H	-0.577323	0.919424	0.383894
C96	C	-1.140079	1.113534	0.621744
C97	C	-1.239836	1.028049	0.603996
C98	C	-1.390052	1.064465	0.577224
H99	H	-1.180731	1.154881	0.677396
H100	H	-1.133657	1.154868	0.559953
H101	H	-1.246263	0.986733	0.665780
H102	H	-1.199235	0.986693	0.548340
H103	H	-1.383630	1.105798	0.515433
H104	H	-1.430688	1.105812	0.632880
H105	H	-1.457752	1.006469	0.565169
