data_functionalizedCrystal
_audit_creation_method	'MofGen! by Chris Wilmer'
_symmetry_space_group_name_H-M	'P1'
_symmetry_Int_Tables_number	1
_symmetry_cell_setting	triclinic
loop_
_symmetry_equiv_pos_as_xyz
  x,y,z
_cell_length_a	15.538191
_cell_length_b	19.188930
_cell_length_c	14.750779
_cell_angle_alpha	77.396187
_cell_angle_beta	97.572172
_cell_angle_gamma	65.208438
loop_
_atom_site_label
_atom_site_type_symbol
_atom_site_fract_x
_atom_site_fract_y
_atom_site_fract_z
O1	O	1.230319	-0.206654	-0.079811
O2	O	0.955725	-0.125950	-0.079820
O3	O	1.100951	-0.269953	-0.079797
O4	O	1.085093	-0.062651	-0.079835
O5	O	1.142004	-0.310658	0.079860
O6	O	0.996778	-0.166654	0.079837
O7	O	1.271372	-0.247359	0.079846
Zn8	Zn	1.140594	-0.213470	0.105190
Zn9	Zn	1.086504	-0.159839	-0.105165
O10	O	1.126146	-0.103356	0.079822
C11	C	0.941121	-0.137858	0.000007
C12	C	0.836443	-0.112707	0.000004
C13	C	0.549690	-0.362580	0.000035
C14	C	0.451325	-0.338928	0.000030
C15	C	0.428328	-0.205893	0.000006
C16	C	0.526694	-0.229535	0.000016
C17	C	0.587367	-0.307879	0.000029
C18	C	0.564371	-0.174835	0.000010
C19	C	0.662727	-0.198474	0.000014
C20	C	0.723406	-0.276813	0.000025
C21	C	0.685723	-0.331518	0.000034
C22	C	0.503694	-0.096490	-0.000011
C23	C	0.541372	-0.041789	-0.000017
C24	C	0.639731	-0.065429	-0.000005
C25	C	0.700410	-0.143769	0.000006
C26	C	0.677414	-0.010724	-0.000014
C27	C	0.775770	-0.034363	-0.000009
C28	C	0.798766	-0.167408	0.000010
C29	C	1.120965	-0.316188	0.000035
C30	C	1.119427	-0.393308	0.000043
C31	C	1.204639	-0.459635	0.000050
C32	C	1.203187	-0.532092	0.000035
C33	C	1.116524	-0.538221	0.000031
C34	C	1.031299	-0.471879	0.000018
C35	C	1.032751	-0.399422	0.000024
N36	N	1.064252	-0.643440	0.054363
N37	N	1.062879	-0.712273	0.054360
C38	C	1.112146	-0.756526	0.000012
N39	N	1.162854	-0.729353	-0.054321
N40	N	1.164230	-0.660516	-0.054313
C41	C	1.114941	-0.616784	0.000024
C42	C	1.195790	-0.901421	0.000001
C43	C	1.194333	-0.973876	-0.000020
C44	C	1.022445	-0.913663	-0.000027
C45	C	1.023901	-0.841208	-0.000016
C46	C	1.110577	-0.835093	0.000003
C47	C	1.285976	-0.235450	0.000016
C48	C	1.390652	-0.260600	0.000013
C49	C	1.106132	-0.057120	-0.000011
C50	C	1.107668	0.020001	-0.000026
N51	N	1.177515	-0.250073	0.248752
N52	N	1.049589	-0.123244	-0.248726
C53	C	0.946472	-0.021047	0.600532
C54	C	0.972351	-0.046693	0.701036
C55	C	1.100975	-0.174180	0.701020
C56	C	1.075104	-0.148545	0.600514
C57	C	0.997852	-0.071978	0.550279
C58	C	1.126484	-0.199476	0.550260
C59	C	1.100617	-0.173842	0.449764
C60	C	1.023370	-0.097277	0.399521
C61	C	0.971985	-0.046344	0.449782
C62	C	1.203739	-0.276041	0.600498
C63	C	1.255119	-0.326973	0.550244
C64	C	1.229248	-0.301341	0.449745
C65	C	1.152002	-0.224776	0.399503
C66	C	1.280633	-0.352274	0.399484
C67	C	1.254767	-0.326640	0.298988
C68	C	1.126135	-0.199142	0.299006
H69	H	0.378914	-0.142105	-0.000009
O70	O	0.938190	-0.919523	-0.000202
C71	C	0.864995	-0.862395	-0.082878
H72	H	0.900820	-0.845349	-0.140667
H73	H	0.817919	-0.889307	-0.110642
H74	H	0.817060	-0.806335	-0.064181
H75	H	1.263725	-1.027882	-0.000019
H76	H	1.063223	-0.136796	0.258102
H77	H	0.848172	-0.231204	0.000027
H78	H	1.224800	-0.296908	0.682329
O79	O	1.304582	-0.376165	0.250172
C80	C	1.295912	-0.447766	0.274703
H81	H	1.227554	-0.436101	0.302371
H82	H	1.289873	-0.468685	0.208579
H83	H	1.363296	-0.496412	0.332992
O84	O	0.608718	-0.438720	0.000223
C85	C	0.687573	-0.477444	0.082901
H86	H	0.666266	-0.447304	0.140686
H87	H	0.705999	-0.543624	0.110671
H88	H	0.754217	-0.472720	0.064205
H89	H	0.803490	-0.296055	0.000016
H90	H	0.930506	-0.005211	0.741948
H91	H	0.960737	-0.476873	0.000013
H92	H	0.909073	0.016002	0.408878
H93	H	0.420654	-0.383477	0.000033
H94	H	1.275216	-0.454663	0.000062
H95	H	0.954514	-0.787202	-0.000016
H96	H	0.883560	0.041299	0.559629
O97	O	1.175960	-0.248543	0.749971
C98	C	1.187793	-0.260241	0.849449
H99	H	1.116255	-0.218652	0.863190
H100	H	1.208332	-0.325568	0.887647
H101	H	1.248359	-0.245962	0.877950
H102	H	0.735129	-0.395315	0.000051
H103	H	1.272579	-0.586105	0.000037
O104	O	0.408133	-0.073583	-0.000145
C105	C	0.360314	-0.081077	-0.082837
H106	H	0.416619	-0.126519	-0.110390
H107	H	0.304943	-0.102701	-0.064236
H108	H	0.320711	-0.020072	-0.140751
O109	O	0.482308	0.034269	0.000015
C110	C	0.387409	0.043412	-0.000014
H111	H	0.391627	-0.018235	0.030214
H112	H	0.354605	0.083059	0.046334
H113	H	0.339259	0.072807	-0.076612
H114	H	1.002314	-0.076406	0.317690
O115	O	0.949954	-0.334923	-0.000148
C116	C	0.924406	-0.270109	-0.082817
H117	H	0.957877	-0.294283	-0.140612
H118	H	0.841276	-0.235578	-0.110578
H119	H	0.953404	-0.228055	-0.064112
O120	O	0.618340	0.065387	-0.000160
C121	C	0.539519	0.104126	-0.082869
H122	H	0.527686	0.056938	-0.110428
H123	H	0.470265	0.144162	-0.064288
H124	H	0.556867	0.142605	-0.140771
O125	O	0.812230	0.018859	0.000030
C126	C	0.737583	0.093081	-0.000005
H127	H	0.678613	0.082727	0.030223
H128	H	0.769883	0.120955	0.046341
H129	H	0.703893	0.135578	-0.076604
H130	H	1.266365	-0.896441	0.000012
H131	H	1.318021	-0.389314	0.591157
O132	O	1.355555	-0.426694	0.448336
C133	C	1.320208	-0.471859	0.506509
H134	H	1.238059	-0.446507	0.476240
H135	H	1.359207	-0.537440	0.507657
H136	H	1.334776	-0.468152	0.582668
