data_functionalizedCrystal
_audit_creation_method	'MofGen! by Chris Wilmer'
_symmetry_space_group_name_H-M	'P1'
_symmetry_Int_Tables_number	1
_symmetry_cell_setting	triclinic
loop_
_symmetry_equiv_pos_as_xyz
  x,y,z
_cell_length_a	12.759395
_cell_length_b	16.994747
_cell_length_c	12.759387
_cell_angle_alpha	90.010915
_cell_angle_beta	90.020509
_cell_angle_gamma	90.012594
loop_
_atom_site_label
_atom_site_type_symbol
_atom_site_fract_x
_atom_site_fract_y
_atom_site_fract_z
Zn1	Zn	1.606295	-0.313954	0.594150
Zn2	Zn	1.606197	-0.445880	0.418532
Zn3	Zn	1.430594	-0.313997	0.418487
Zn4	Zn	1.430597	-0.445824	0.594171
O5	O	1.518421	-0.379914	0.506335
O6	O	1.753303	-0.331460	0.570864
O7	O	1.582860	-0.428427	0.271505
O8	O	1.453940	-0.203610	0.441762
O9	O	1.753231	-0.428385	0.441838
O10	O	1.583028	-0.203579	0.570821
O11	O	1.453845	-0.331533	0.271472
O12	O	1.283573	-0.331479	0.441782
O13	O	1.453946	-0.428289	0.741189
O14	O	1.283575	-0.428331	0.570856
O15	O	1.583031	-0.331405	0.741174
O16	O	1.582864	-0.556253	0.441858
O17	O	1.453851	-0.556212	0.570899
C18	C	1.245453	-0.379904	0.506317
C19	C	1.128677	-0.379919	0.506334
C20	C	1.518360	-0.584853	0.506382
C21	C	1.518367	-0.674176	0.506379
Zn22	Zn	1.430624	-0.945084	0.418458
Zn23	Zn	1.606342	-0.945019	0.594104
Zn24	Zn	1.430633	-0.813216	0.594153
Zn25	Zn	1.606216	-0.813135	0.418497
O26	O	1.518454	-0.879113	0.506303
O27	O	1.453982	-1.055456	0.441720
O28	O	1.583090	-0.927542	0.741132
O29	O	1.283611	-0.830769	0.570851
O30	O	1.583082	-1.055409	0.570767
O31	O	1.283604	-0.927652	0.441768
O32	O	1.453998	-0.830707	0.741168
O33	O	1.453876	-0.702824	0.570889
O34	O	1.582867	-0.830631	0.271471
O35	O	1.582876	-0.702764	0.441836
O36	O	1.453860	-0.927573	0.271442
O37	O	1.753347	-0.927463	0.570806
O38	O	1.753254	-0.830569	0.441788
C39	C	1.128718	-0.480934	0.640522
C40	C	1.073878	-0.531448	0.707618
C41	C	0.964156	-0.531458	0.707631
C42	C	0.909272	-0.480946	0.640542
C43	C	0.964112	-0.430432	0.573446
C44	C	1.073836	-0.430430	0.573438
C45	C	0.964071	-0.329414	0.439265
C46	C	1.073793	-0.329407	0.439245
C47	C	0.909187	-0.278903	0.372176
C48	C	0.964027	-0.228392	0.305072
C49	C	1.073755	-0.228385	0.305062
C50	C	1.128633	-0.278893	0.372148
C51	C	1.792454	-0.379924	0.506354
C52	C	1.909231	-0.379928	0.506362
C53	C	1.518500	-0.379836	0.780368
C54	C	1.518534	-0.379803	0.897145
C55	C	1.518487	-0.174173	0.506281
C56	C	1.518520	-0.084851	0.506259
C57	C	1.518402	-0.379934	0.233367
C58	C	1.518572	-0.379744	0.116591
C59	C	1.652959	-0.278925	0.897149
C60	C	1.720186	-0.228474	0.952012
C61	C	1.720212	-0.228445	1.061734
C62	C	1.653001	-0.278871	1.116595
C63	C	1.585773	-0.329322	1.061732
C64	C	1.585757	-0.329347	0.952008
C65	C	1.451345	-0.430195	1.061728
C66	C	1.451323	-0.430229	0.952007
C67	C	1.384134	-0.480622	1.116590
C68	C	1.316910	-0.531078	1.061727
C69	C	1.316888	-0.531105	0.951998
C70	C	1.384096	-0.480681	0.897144
C71	C	1.791421	-0.879002	0.506299
C72	C	1.908198	-0.878978	0.506327
C73	C	1.518348	-0.879100	0.232269
C74	C	1.518303	-0.879095	0.115493
C75	C	1.244420	-0.879227	0.506310
C76	C	1.127644	-0.879275	0.506313
C77	C	1.518484	-0.879171	0.779270
C78	C	1.518235	-0.879327	0.896047
C79	C	1.908241	-0.979950	0.640573
C80	C	1.963123	-1.030421	0.707708
C81	C	2.072845	-1.030395	0.707729
C82	C	2.127687	-0.979894	0.640606
C83	C	2.072804	-0.929424	0.573471
C84	C	1.963080	-0.929454	0.573459
C85	C	2.072761	-0.828457	0.439222
C86	C	1.963040	-0.828477	0.439204
C87	C	2.127603	-0.777956	0.372099
C88	C	2.072721	-0.727481	0.304967
C89	C	1.962993	-0.727508	0.304949
C90	C	1.908157	-0.778007	0.372069
C91	C	1.383977	-0.980048	0.115442
C92	C	1.316799	-1.030521	0.060557
C93	C	1.316761	-1.030513	-0.049165
C94	C	1.383907	-0.980024	-0.104003
C95	C	1.451086	-0.929550	-0.049117
C96	C	1.451118	-0.929566	0.060607
C97	C	1.585405	-0.828595	-0.049067
C98	C	1.585449	-0.828606	0.060654
C99	C	1.652551	-0.778105	-0.103906
C100	C	1.719736	-0.727635	-0.049020
C101	C	1.719772	-0.727646	0.060709
C102	C	1.652628	-0.778132	0.115540
H103	H	1.218059	-0.480937	0.640510
C104	C	2.246813	-0.979958	0.640814
C105	C	2.283139	-1.034957	0.713987
C106	C	2.392873	-1.035029	0.714215
H107	H	2.271751	-0.993580	0.573063
H108	H	2.271673	-0.929075	0.659106
H109	H	2.258290	-1.085829	0.695689
H110	H	2.258230	-1.021348	0.781748
H111	H	2.417732	-0.984146	0.732507
H112	H	2.417800	-1.048649	0.646460
H113	H	2.417533	-1.072339	0.763868
H114	H	1.818816	-0.778030	0.372065
H115	H	1.918459	-1.071539	0.762356
H116	H	2.117530	-1.071494	0.762394
H117	H	1.384009	-0.980066	0.204784
C118	C	2.246730	-0.778008	0.371922
C119	C	2.283020	-0.798084	0.271886
C120	C	2.392753	-0.798146	0.271687
H121	H	2.271676	-0.727135	0.390091
H122	H	2.271605	-0.815320	0.421471
H123	H	2.258155	-0.760773	0.222353
H124	H	2.258102	-0.848957	0.253697
H125	H	2.417629	-0.835458	0.321236
H126	H	2.417689	-0.747271	0.289860
H127	H	2.417390	-0.811774	0.203817
H128	H	1.262045	-1.071603	-0.093853
H129	H	1.652654	-0.778149	0.204882
C130	C	1.244013	-1.085306	0.120285
C131	C	1.258439	-1.074529	0.228123
C132	C	1.191415	-1.124987	0.283172
H133	H	1.173368	-1.073844	0.102432
H134	H	1.259424	-1.138312	0.102341
H135	H	1.243021	-1.021534	0.246059
H136	H	1.329071	-1.085996	0.246007
H137	H	1.206826	-1.177993	0.265229
H138	H	1.120774	-1.113521	0.265310
H139	H	1.201201	-1.117687	0.356345
H140	H	2.117382	-0.686371	0.250316
C141	C	1.903599	-0.672624	0.232016
C142	C	1.975116	-0.628385	0.173261
C143	C	1.920446	-0.577809	0.106074
H144	H	1.860786	-0.702692	0.186102
H145	H	1.860825	-0.638243	0.272218
H146	H	2.017873	-0.662761	0.133063
H147	H	2.017932	-0.598300	0.219149
H148	H	1.877671	-0.543429	0.146276
H149	H	1.877635	-0.607884	0.060166
H150	H	1.968962	-0.547782	0.066208
H151	H	1.118576	-0.572572	0.762242
C152	C	1.652730	-0.778100	-0.223032
C153	C	1.752761	-0.798149	-0.259345
C154	C	1.752970	-0.798142	-0.369079
H155	H	1.603185	-0.815389	-0.247999
H156	H	1.634577	-0.727197	-0.247872
H157	H	1.770901	-0.849045	-0.234517
H158	H	1.802322	-0.760867	-0.234408
H159	H	1.734817	-0.747239	-0.393918
H160	H	1.703421	-0.835431	-0.394035
H161	H	1.820841	-0.811738	-0.393731
H162	H	1.383861	-0.980014	-0.193345
C163	C	1.384166	-0.480761	1.235717
C164	C	1.410910	-0.555860	1.272032
C165	C	1.410938	-0.556025	1.381766
H166	H	1.433827	-0.443556	1.260671
H167	H	1.316369	-0.467149	1.260566
H168	H	1.478697	-0.569463	1.247194
H169	H	1.361259	-0.593079	1.247106
H170	H	1.343141	-0.542412	1.406615
H171	H	1.460598	-0.518816	1.406710
H172	H	1.429074	-0.606980	1.406420
C173	C	0.904798	-0.586381	0.780525
C174	C	0.976340	-0.630625	0.839264
C175	C	0.921698	-0.681232	0.906416
H176	H	0.862020	-0.556335	0.826452
H177	H	0.861991	-0.620757	0.740299
H178	H	1.019129	-0.596253	0.879487
H179	H	1.019121	-0.660687	0.793365
H180	H	0.878891	-0.715608	0.866190
H181	H	0.878922	-0.651180	0.952336
H182	H	0.970231	-0.711262	0.946272
H183	H	0.819931	-0.480952	0.640568
H184	H	1.774947	-0.187358	1.106403
H185	H	1.774396	-0.686527	-0.093678
H186	H	1.774471	-0.686539	0.105390
H187	H	0.819846	-0.278911	0.372196
H188	H	1.262187	-0.572127	1.106403
H189	H	0.919332	-0.187266	0.250459
C190	C	1.653212	-0.278747	1.235722
C191	C	1.726483	-0.223781	1.272026
C192	C	1.726713	-0.223652	1.381760
H193	H	1.585485	-0.265065	1.260656
H194	H	1.671413	-0.329629	1.260600
H195	H	1.708275	-0.172909	1.247160
H196	H	1.794220	-0.237449	1.247121
H197	H	1.744915	-0.274535	1.406638
H198	H	1.658983	-0.209972	1.406684
H199	H	1.776433	-0.186364	1.406407
C200	C	1.244036	-0.586018	0.892486
C201	C	1.266904	-0.664057	0.919182
C202	C	1.199827	-0.714667	0.864372
H203	H	1.173414	-0.574570	0.910402
H204	H	1.253661	-0.578869	0.819273
H205	H	1.257270	-0.671202	0.992379
H206	H	1.337514	-0.675529	0.901263
H207	H	1.209452	-0.707518	0.791159
H208	H	1.129209	-0.703212	0.882292
H209	H	1.215340	-0.767622	0.882470
H210	H	1.118400	-0.187244	0.250430
C211	C	1.383969	-0.480863	0.778017
C212	C	1.310734	-0.535854	0.741707
C213	C	1.310605	-0.536053	0.631973
H214	H	1.365790	-0.430014	0.753041
H215	H	1.451742	-0.494561	0.753186
H216	H	1.242975	-0.522153	0.766527
H217	H	1.328895	-0.586712	0.766654
H218	H	1.378378	-0.549750	0.607142
H219	H	1.292428	-0.485201	0.607007
H220	H	1.260923	-0.573368	0.607323
C221	C	1.789114	-0.980094	0.640706
C222	C	1.752833	-1.035120	0.713854
C223	C	1.643099	-1.035271	0.714013
H224	H	1.764197	-0.929246	0.658982
H225	H	1.764205	-0.993734	0.572916
H226	H	1.777732	-1.021475	0.781630
H227	H	1.777722	-1.085975	0.695596
H228	H	1.618190	-1.048911	0.646223
H229	H	1.618192	-0.984421	0.732287
H230	H	1.618468	-1.072610	0.763636
H231	H	1.217974	-0.278895	0.372143
C232	C	1.793198	-0.173642	0.892638
C233	C	1.852056	-0.129440	0.964170
C234	C	1.919312	-0.078913	0.909517
H235	H	1.839044	-0.203744	0.849844
H236	H	1.753040	-0.139236	0.849845
H237	H	1.892210	-0.163841	1.006945
H238	H	1.806238	-0.099322	1.006966
H239	H	1.879155	-0.044507	0.866724
H240	H	1.965152	-0.109021	0.866726
H241	H	1.959249	-0.048910	0.958043
C242	C	1.653057	-0.278816	0.778022
C243	C	1.726287	-0.223849	0.741720
C244	C	1.726399	-0.223719	0.631986
H245	H	1.671231	-0.329682	0.753087
H246	H	1.585280	-0.265134	0.753145
H247	H	1.794049	-0.237535	0.766587
H248	H	1.708130	-0.172976	0.766627
H249	H	1.658622	-0.210037	0.607109
H250	H	1.744571	-0.274587	0.607061
H251	H	1.776077	-0.186420	0.607341
