data_functionalizedCrystal
_audit_creation_method	'MofGen! by Chris Wilmer'
_symmetry_space_group_name_H-M	'P1'
_symmetry_Int_Tables_number	1
_symmetry_cell_setting	triclinic
loop_
_symmetry_equiv_pos_as_xyz
  x,y,z
_cell_length_a	6.817900
_cell_length_b	7.190339
_cell_length_c	19.453114
_cell_angle_alpha	88.401381
_cell_angle_beta	78.290712
_cell_angle_gamma	119.388276
loop_
_atom_site_label
_atom_site_type_symbol
_atom_site_fract_x
_atom_site_fract_y
_atom_site_fract_z
V1	V	4.094688	0.297310	-0.218499
O2	O	3.991195	-0.012002	-0.214850
O3	O	4.132023	0.587319	-0.216513
O4	O	4.036547	0.293740	-0.314018
O5	O	4.087332	0.283609	-0.116671
V6	V	4.568469	0.260195	-0.206379
O7	O	4.377317	0.378727	-0.245084
O8	O	4.736037	0.178778	-0.179793
O9	O	4.307927	-0.029814	-0.208365
O10	O	4.789359	0.569507	-0.210027
O11	O	4.693222	0.273895	-0.308207
O12	O	4.403403	0.263765	-0.110860
C13	C	3.876406	0.283493	-0.337315
C14	C	3.910720	0.282493	-0.415399
C15	C	3.998213	0.657988	-0.212943
C16	C	4.112062	0.899537	-0.211939
C17	C	4.111788	0.292728	-0.455639
C18	C	4.144031	0.291789	-0.529008
C19	C	3.975215	0.280656	-0.562135
C20	C	3.774113	0.270407	-0.521885
C21	C	3.741865	0.271325	-0.448518
N22	N	3.948770	0.393290	-0.680735
N23	N	3.979419	0.392423	-0.750432
C24	C	4.072362	0.277884	-0.783188
N25	N	4.133543	0.164273	-0.743617
N26	N	4.102902	0.165150	-0.673914
C27	C	4.010161	0.279658	-0.641690
C28	C	4.308402	0.287098	-0.902983
C29	C	4.340631	0.286144	-0.976352
C30	C	3.970718	0.264784	-0.969229
C31	C	3.938484	0.265716	-0.895860
C32	C	4.107339	0.276884	-0.862742
C33	C	4.226889	0.274018	-0.087559
C34	C	4.171810	0.275008	-0.009474
H35	H	4.249282	0.301813	-0.428679
Br36	Br	4.416921	0.305660	-0.583630
Br37	Br	3.741576	0.249623	-1.014177
Br38	Br	3.665605	0.251855	-0.841247
H39	H	3.636661	0.261336	-0.548862
Br40	Br	4.537546	0.302240	-0.858032
H41	H	3.578121	0.262974	-0.415753
Br42	Br	4.613528	0.300026	-1.030965
