data_functionalizedCrystal
_audit_creation_method	'MofGen! by Chris Wilmer'
_symmetry_space_group_name_H-M	'P1'
_symmetry_Int_Tables_number	1
_symmetry_cell_setting	triclinic
loop_
_symmetry_equiv_pos_as_xyz
  x,y,z
_cell_length_a	19.805405
_cell_length_b	19.805407
_cell_length_c	19.805399
_cell_angle_alpha	90.020409
_cell_angle_beta	90.029301
_cell_angle_gamma	90.028350
loop_
_atom_site_label
_atom_site_type_symbol
_atom_site_fract_x
_atom_site_fract_y
_atom_site_fract_z
Zn1	Zn	-0.269444	1.034736	0.382727
Zn2	Zn	0.230556	1.534736	0.882727
Zn3	Zn	-0.382632	1.034651	0.269535
Zn4	Zn	0.117368	1.534651	0.769535
Zn5	Zn	-0.269466	0.921550	0.269550
Zn6	Zn	0.230534	1.421550	0.769550
Zn7	Zn	-0.382600	0.921514	0.382680
Zn8	Zn	0.117400	1.421514	0.882680
O9	O	-0.326036	0.978113	0.326123
O10	O	0.173964	1.478113	0.826123
O11	O	-0.284463	1.129441	0.367725
O12	O	0.215537	1.629441	0.867725
O13	O	-0.367643	1.019627	0.174820
O14	O	0.132357	1.519627	0.674820
O15	O	-0.174747	0.936616	0.284588
O16	O	0.325253	1.436616	0.784588
O17	O	-0.367622	1.129378	0.284564
O18	O	0.132378	1.629378	0.784564
O19	O	-0.174730	1.019772	0.367739
O20	O	0.325270	1.519772	0.867739
O21	O	-0.284501	0.936533	0.174831
O22	O	0.215499	1.436533	0.674831
O23	O	-0.284470	0.826829	0.284543
O24	O	0.215530	1.326829	0.784543
O25	O	-0.367567	0.936553	0.477403
O26	O	0.132433	1.436553	0.977403
O27	O	-0.367589	0.826802	0.367660
O28	O	0.132411	1.326802	0.867660
O29	O	-0.284431	1.019737	0.477437
O30	O	0.215569	1.519737	0.977437
O31	O	-0.477345	1.019592	0.284518
O32	O	0.022655	1.519592	0.784518
O33	O	-0.477321	0.936471	0.367646
O34	O	0.022679	1.436471	0.867646
C35	C	-0.326029	0.802257	0.326098
C36	C	0.173971	1.302257	0.826098
C37	C	-0.326042	0.727025	0.326104
C38	C	0.173958	1.227025	0.826104
C39	C	-0.282816	0.265270	0.369517
C40	C	0.217184	0.765270	0.869517
C41	C	-0.282817	0.335958	0.369513
C42	C	0.217183	0.835958	0.869513
C43	C	-0.326046	0.371263	0.326145
C44	C	0.173954	0.871263	0.826145
C45	C	-0.369281	0.335876	0.282784
C46	C	0.130719	0.835876	0.782784
C47	C	-0.369283	0.265188	0.282793
C48	C	0.130717	0.765188	0.782793
C49	C	-0.369276	0.620949	0.282748
C50	C	0.130724	1.120949	0.782748
C51	C	-0.369270	0.691641	0.282741
C52	C	0.130730	1.191641	0.782741
C53	C	-0.282810	0.691719	0.369468
C54	C	0.217190	1.191719	0.869468
C55	C	-0.282812	0.621031	0.369477
C56	C	0.217188	1.121031	0.869477
C57	C	-0.326049	0.585650	0.326119
C58	C	0.173951	1.085650	0.826119
C59	C	-0.326048	0.509002	0.326125
C60	C	0.173952	1.009002	0.826125
C61	C	-0.326044	0.447910	0.326134
C62	C	0.173956	0.947910	0.826134
C63	C	-0.501892	0.978036	0.326090
C64	C	-0.001892	1.478036	0.826090
C65	C	-0.577124	0.978066	0.326099
C66	C	-0.077124	1.478066	0.826099
C67	C	-0.612458	1.021389	0.282860
C68	C	-0.112458	1.521389	0.782860
C69	C	-0.683146	1.021418	0.282875
C70	C	-0.183146	1.521418	0.782875
C71	C	-0.718499	0.978119	0.326126
C72	C	-0.218499	1.478119	0.826126
C73	C	-0.683160	0.934794	0.369370
C74	C	-0.183160	1.434794	0.869370
C75	C	-0.612473	0.934769	0.369357
C76	C	-0.112473	1.434769	0.869357
C77	C	-0.968233	0.934894	0.369420
C78	C	-0.468233	1.434894	0.869420
C79	C	-1.038926	0.934921	0.369427
C80	C	-0.538926	1.434921	0.869427
C81	C	-1.038906	1.021542	0.282937
C82	C	-0.538906	1.521542	0.782937
C83	C	-0.968219	1.021518	0.282925
C84	C	-0.468219	1.521518	0.782925
C85	C	-0.932886	0.978195	0.326171
C86	C	-0.432886	1.478195	0.826171
C87	C	-0.856238	0.978166	0.326155
C88	C	-0.356238	1.478166	0.826155
C89	C	-0.795146	0.978145	0.326139
C90	C	-0.295146	1.478145	0.826139
C91	C	-0.149493	0.978207	0.326171
C92	C	0.350507	1.478207	0.826171
C93	C	-0.074261	0.978248	0.326191
C94	C	0.425739	1.478248	0.826191
C95	C	-0.325993	0.978151	0.502666
C96	C	0.174007	1.478151	1.002666
C97	C	-0.325975	0.978167	0.577898
C98	C	0.174025	1.478167	1.077898
C99	C	-0.326043	1.154655	0.326148
C100	C	0.173957	1.654655	0.826148
C101	C	-0.326046	1.229887	0.326158
C102	C	0.173954	1.729887	0.826158
C103	C	-0.326029	0.978114	0.150267
C104	C	0.173971	1.478114	0.650267
C105	C	-0.325857	0.978229	0.075035
C106	C	0.174143	1.478229	0.575035
C107	C	-0.282684	1.021481	0.613261
C108	C	0.217316	1.521481	1.113261
C109	C	-0.282664	1.021488	0.683949
C110	C	0.217336	1.521488	1.183949
C111	C	-0.325939	0.978184	0.719273
C112	C	0.174061	1.478184	1.219273
C113	C	-0.369232	0.934864	0.683905
C114	C	0.130768	1.434864	1.183905
C115	C	-0.369248	0.934854	0.613218
C116	C	0.130752	1.434854	1.113218
C117	C	-0.369169	0.934902	0.968979
C118	C	0.130831	1.434902	1.468979
C119	C	-0.369151	0.934917	1.039671
C120	C	0.130849	1.434917	1.539671
C121	C	-0.282586	1.021536	1.039710
C122	C	0.217414	1.521536	1.539710
C123	C	-0.282601	1.021527	0.969023
C124	C	0.217399	1.521527	1.469023
C125	C	-0.325891	0.978205	0.933661
C126	C	0.174109	1.478205	1.433661
C127	C	-0.325911	0.978197	0.857012
C128	C	0.174089	1.478197	1.357012
C129	C	-0.325923	0.978194	0.795921
C130	C	0.174077	1.478194	1.295921
H131	H	-0.404481	0.592150	0.247441
H132	H	0.095519	1.092150	0.747441
Br133	Br	-0.224131	0.739739	0.428314
Br134	Br	0.275869	1.239739	0.928314
Br135	Br	-0.223873	1.080303	0.921086
Br136	Br	0.276127	1.580303	1.421086
Br137	Br	-0.920291	0.876100	0.428111
Br138	Br	-0.420291	1.376100	0.928111
H139	H	-0.404482	0.364626	0.247475
H140	H	0.095518	0.864626	0.747475
H141	H	-0.404493	0.899576	0.584426
H142	H	0.095507	1.399576	1.084426
H143	H	-0.404487	0.236381	0.247486
H144	H	0.095513	0.736381	0.747486
Br145	Br	-0.731139	0.876037	0.428074
Br146	Br	-0.231139	1.376037	0.928074
Br147	Br	-0.427918	0.876107	0.920996
Br148	Br	0.072082	1.376107	1.420996
Br149	Br	-0.564485	1.080148	0.224152
Br150	Br	-0.064485	1.580148	0.724152
Br151	Br	-0.427959	0.876088	0.731844
Br152	Br	0.072041	1.376088	1.231844
Br153	Br	-0.731097	1.080220	0.224195
Br154	Br	-0.231097	1.580220	0.724195
Br155	Br	-0.920243	1.080280	0.224224
Br156	Br	-0.420243	1.580280	0.724224
Br157	Br	-0.224139	0.217363	0.428372
Br158	Br	0.275861	0.717363	0.928372
H159	H	-1.067683	1.056820	0.247726
H160	H	-0.567683	1.556820	0.747726
H161	H	-0.247414	1.056761	0.712739
H162	H	0.252586	1.556761	1.212739
Br163	Br	-1.086905	0.876155	0.428129
Br164	Br	-0.586905	1.376155	0.928129
H165	H	-0.247446	1.056747	0.584505
H166	H	0.252554	1.556747	1.084505
H167	H	-0.247335	1.056809	1.068510
H168	H	0.252665	1.556809	1.568510
Br169	Br	-0.224139	0.573121	0.428332
Br170	Br	0.275861	1.073121	0.928332
H171	H	-0.404392	0.899650	1.068430
H172	H	0.095608	1.399650	1.568430
H173	H	-0.404475	0.720384	0.247424
H174	H	0.095525	1.220384	0.747424
Br175	Br	-0.224150	0.383975	0.428365
Br176	Br	0.275850	0.883975	0.928365
Br177	Br	-0.564519	0.875976	0.428046
Br178	Br	-0.064519	1.375976	0.928046
