data_functionalizedCrystal
_audit_creation_method	'MofGen! by Chris Wilmer'
_symmetry_space_group_name_H-M	'P1'
_symmetry_Int_Tables_number	1
_symmetry_cell_setting	triclinic
loop_
_symmetry_equiv_pos_as_xyz
  x,y,z
_cell_length_a	13.635800
_cell_length_b	12.095388
_cell_length_c	11.168136
_cell_angle_alpha	78.478863
_cell_angle_beta	108.508683
_cell_angle_gamma	148.803837
loop_
_atom_site_label
_atom_site_type_symbol
_atom_site_fract_x
_atom_site_fract_y
_atom_site_fract_z
V1	V	2.233211	0.295127	0.392807
O2	O	2.026187	-0.014149	0.386248
O3	O	2.396544	0.585155	0.389237
O4	O	2.218622	0.290601	0.564526
O5	O	2.205340	0.282443	0.209745
V6	V	2.449479	0.258132	0.371018
O7	O	2.419761	0.376277	0.440601
O8	O	2.488027	0.176981	0.323224
O9	O	2.174542	-0.031896	0.374588
O10	O	2.715201	0.567408	0.377577
O11	O	2.536048	0.270815	0.554080
O12	O	2.352464	0.262657	0.199299
V13	V	2.733211	0.295127	0.392807
O14	O	2.526187	-0.014149	0.386248
O15	O	2.896544	0.585155	0.389237
O16	O	2.718622	0.290601	0.564526
O17	O	2.705340	0.282443	0.209745
V18	V	2.949479	0.258132	0.371018
O19	O	2.919761	0.376277	0.440601
O20	O	2.988027	0.176981	0.323224
O21	O	2.674542	-0.031896	0.374588
O22	O	3.215201	0.567408	0.377577
O23	O	3.036048	0.270815	0.554080
O24	O	2.852464	0.262657	0.199299
C25	C	2.364366	0.655860	0.382818
C26	C	2.541894	0.897419	0.381013
C27	C	2.038416	-0.102588	0.381010
C28	C	1.850324	-0.344139	0.382845
C29	C	2.137396	0.280122	0.606409
C30	C	2.167351	0.278341	0.746785
C31	C	2.265365	0.273143	0.157409
C32	C	2.225022	0.274913	0.017032
C33	C	2.637396	0.280122	0.606409
C34	C	2.667351	0.278341	0.746785
C35	C	2.765365	0.273143	0.157409
C36	C	2.725022	0.274913	0.017032
C37	C	2.274236	0.287664	0.815449
C38	C	2.305199	0.285823	0.960535
C39	C	2.774236	0.287664	0.815449
C40	C	2.805199	0.285823	0.960535
H41	H	2.342811	0.296993	0.766822
C42	C	2.074623	0.265631	0.812462
N43	N	2.004756	0.256030	0.861926
H44	H	2.842811	0.296993	0.766822
H45	H	2.396768	0.293814	1.019562
C46	C	2.928893	0.296599	1.040272
N47	N	3.022061	0.304712	1.100334
C48	C	2.601325	0.264136	0.937302
N49	N	2.508151	0.256016	0.877240
H50	H	2.133469	0.266946	0.958015
H51	H	2.598754	0.268983	0.795410
