data_functionalizedCrystal
_audit_creation_method	'MofGen! by Chris Wilmer'
_symmetry_space_group_name_H-M	'P1'
_symmetry_Int_Tables_number	1
_symmetry_cell_setting	triclinic
loop_
_symmetry_equiv_pos_as_xyz
  x,y,z
_cell_length_a	18.215407
_cell_length_b	29.839131
_cell_length_c	18.215399
_cell_angle_alpha	90.030873
_cell_angle_beta	90.019833
_cell_angle_gamma	90.041868
loop_
_atom_site_label
_atom_site_type_symbol
_atom_site_fract_x
_atom_site_fract_y
_atom_site_fract_z
Zn1	Zn	1.124987	-0.178853	0.416101
Zn2	Zn	1.124860	-0.253982	0.293028
Zn3	Zn	1.001920	-0.178867	0.293048
Zn4	Zn	1.001850	-0.253957	0.416053
O5	O	1.063404	-0.216415	0.354558
O6	O	1.227955	-0.188823	0.399787
O7	O	1.108528	-0.244034	0.190047
O8	O	1.018327	-0.115998	0.309400
O9	O	1.227861	-0.244020	0.309366
O10	O	1.108745	-0.115987	0.399806
O11	O	1.018204	-0.188848	0.190061
O12	O	0.898926	-0.188824	0.309354
O13	O	1.018209	-0.243978	0.519044
O14	O	0.898875	-0.243992	0.399725
O15	O	1.108677	-0.188799	0.519079
O16	O	1.108460	-0.316846	0.309320
O17	O	1.018086	-0.316827	0.399705
C18	C	0.872198	-0.216407	0.354537
C19	C	0.790399	-0.216414	0.354545
C20	C	0.602198	-0.245186	0.401542
C21	C	0.525339	-0.245187	0.401551
C22	C	0.525363	-0.187652	0.307589
C23	C	0.602220	-0.187648	0.307584
C24	C	0.640636	-0.216418	0.354560
C25	C	0.486920	-0.216423	0.354574
C26	C	0.403586	-0.216424	0.354583
C27	C	0.723975	-0.216416	0.354551
C28	C	1.063272	-0.333137	0.354521
C29	C	1.063282	-0.383072	0.354530
C30	C	1.110548	-0.692712	0.307563
C31	C	1.110639	-0.880385	0.307591
O32	O	1.150721	-0.904647	0.267629
N33	N	1.063557	-0.903857	0.354613
C34	C	1.016452	-0.880407	0.401635
O35	O	0.976414	-0.904678	0.441636
C36	C	1.016366	-0.692735	0.401609
C37	C	1.063446	-0.669266	0.354579
C38	C	1.157625	-0.669243	0.260536
C39	C	1.157599	-0.622327	0.260527
C40	C	1.110496	-0.598881	0.307544
C41	C	1.063420	-0.622350	0.354570
C42	C	0.969265	-0.669287	0.448634
C43	C	0.969249	-0.622365	0.448625
C44	C	1.016329	-0.598896	0.401595
C45	C	1.016291	-0.551989	0.401577
N46	N	1.063373	-0.528517	0.354554
C47	C	1.110476	-0.551963	0.307538
C48	C	1.016500	-0.978938	0.401644
C49	C	1.016521	-1.025856	0.401649
C50	C	1.110709	-1.025830	0.307606
C51	C	1.110684	-0.978911	0.307598
C52	C	1.063582	-0.955466	0.354622
C53	C	1.110417	-0.453437	0.307521
C54	C	1.110385	-0.406518	0.307514
C55	C	1.016200	-0.406547	0.401559
C56	C	1.016229	-0.453463	0.401564
C57	C	1.063344	-0.476907	0.354543
O58	O	0.976236	-0.527698	0.441523
O59	O	1.150520	-0.527685	0.267554
C60	C	1.110574	-0.739627	0.307572
C61	C	1.063498	-0.763097	0.354598
C62	C	1.016395	-0.739651	0.401615
C63	C	1.063518	-0.810015	0.354604
C64	C	1.110621	-0.833461	0.307587
C65	C	1.157703	-0.809989	0.260565
C66	C	1.157677	-0.763074	0.260555
C67	C	0.969313	-0.763122	0.448637
C68	C	0.969342	-0.810038	0.448642
C69	C	1.016445	-0.833484	0.401625
C70	C	1.255357	-0.216423	0.354579
C71	C	1.337156	-0.216426	0.354589
C72	C	1.063449	-0.216384	0.546511
C73	C	1.063468	-0.216370	0.628310
C74	C	1.063558	-0.099236	0.354610
C75	C	1.063623	-0.049302	0.354633
C76	C	1.063402	-0.216413	0.163351
C77	C	1.063526	-0.216300	0.081553
C78	C	1.110592	-0.187612	0.816523
C79	C	1.110601	-0.187599	0.893382
C80	C	1.016397	-0.245059	0.893334
C81	C	1.016385	-0.245070	0.816477
C82	C	1.063487	-0.216347	0.778073
C83	C	1.063507	-0.216323	0.931789
C84	C	1.063517	-0.216309	1.015123
C85	C	1.063477	-0.216360	0.694734
H86	H	0.633474	-0.268610	0.439794
H87	H	0.977847	-0.387450	0.439837
N88	N	0.643685	-0.156613	0.256918
H89	H	0.607688	-0.138389	0.227158
H90	H	0.675545	-0.174869	0.222804
N91	N	1.161510	-1.051126	0.256896
H92	H	1.195599	-1.070560	0.286847
H93	H	1.191291	-1.029115	0.227113
N94	N	0.483926	-0.156630	0.256916
H95	H	0.519941	-0.138405	0.227152
H96	H	0.452070	-0.135864	0.286932
N97	N	0.483883	-0.276220	0.452219
H98	H	0.429365	-0.271857	0.445098
H99	H	0.497349	-0.269270	0.504798
N100	N	1.161471	-0.953604	0.256878
H101	H	1.195552	-0.934107	0.286815
H102	H	1.131529	-0.934193	0.222749
H103	H	1.148944	-0.164223	0.785257
N104	N	0.965585	-0.276031	0.934755
H105	H	0.972737	-0.271663	0.989279
H106	H	0.976984	-0.308121	0.921312
N107	N	0.965561	-0.276055	0.774999
H108	H	0.935724	-0.294249	0.810989
H109	H	0.995474	-0.296852	0.743097
H110	H	1.148723	-0.387411	0.269213
H111	H	0.930924	-0.688387	0.486928
H112	H	1.148784	-0.472520	0.269233
H113	H	1.195985	-0.688328	0.222250
H114	H	0.978177	-1.044960	0.439939
N115	N	1.208390	-0.597017	0.209813
H116	H	1.197004	-0.605211	0.157221
H117	H	1.260944	-0.605162	0.221369
N118	N	0.965691	-0.953654	0.452362
H119	H	0.935870	-0.975646	0.482145
H120	H	0.931641	-0.934220	0.422371
N121	N	0.918448	-0.597078	0.499347
H122	H	0.888630	-0.619068	0.529138
H123	H	0.884394	-0.577646	0.469359
H124	H	0.977895	-0.472573	0.439862
H125	H	1.196014	-0.743968	0.222259
N126	N	1.208501	-0.835282	0.209847
H127	H	1.201366	-0.868564	0.216993
H128	H	1.261052	-0.827046	0.221346
H129	H	0.930998	-0.829142	0.486939
N130	N	1.161405	-0.156601	0.934845
H131	H	1.213977	-0.163580	0.921478
H132	H	1.154206	-0.160961	0.989349
N133	N	0.918505	-0.737838	0.499348
H134	H	0.888686	-0.759830	0.529133
H135	H	0.884454	-0.718407	0.469353
