data_functionalizedCrystal
_audit_creation_method	'MofGen! by Chris Wilmer'
_symmetry_space_group_name_H-M	'P1'
_symmetry_Int_Tables_number	1
_symmetry_cell_setting	triclinic
loop_
_symmetry_equiv_pos_as_xyz
  x,y,z
_cell_length_a	14.971486
_cell_length_b	27.732048
_cell_length_c	14.048226
_cell_angle_alpha	89.988614
_cell_angle_beta	89.998499
_cell_angle_gamma	83.128392
loop_
_atom_site_label
_atom_site_type_symbol
_atom_site_fract_x
_atom_site_fract_y
_atom_site_fract_z
O1	O	1.185952	0.062991	-0.079062
O2	O	0.925432	0.070534	-0.079089
O3	O	1.063783	-0.003597	-0.079057
O4	O	1.047601	0.137122	-0.079094
O5	O	1.063767	-0.003601	0.079265
O6	O	0.925416	0.070530	0.079232
O7	O	1.185935	0.062986	0.079259
Zn8	Zn	1.055673	0.066757	0.104383
Zn9	Zn	1.055695	0.066763	-0.104212
O10	O	1.047584	0.137117	0.079227
C11	C	0.892105	0.070195	0.000068
C12	C	0.792824	0.069184	0.000059
C13	C	0.734910	0.112734	0.000048
C14	C	0.641626	0.111781	0.000063
C15	C	0.606257	0.067278	0.000081
C16	C	0.664178	0.023724	0.000094
C17	C	0.757460	0.024678	0.000086
C18	C	0.469746	0.021740	0.000108
C19	C	0.376457	0.020787	0.000114
C20	C	0.353912	0.108844	0.000084
C21	C	0.447195	0.109797	0.000076
C22	C	0.505109	0.066243	0.000088
C23	C	1.063435	-0.021608	0.000107
C24	C	1.062412	-0.075267	0.000114
C25	C	1.137729	-0.413735	0.000073
C26	C	1.133934	-0.615412	0.000060
O27	O	1.202806	-0.646350	0.000025
N28	N	1.051898	-0.634914	0.000052
C29	C	0.970804	-0.603994	0.000042
O30	O	0.900940	-0.625209	0.000025
C31	C	0.974601	-0.402318	0.000048
C32	C	1.056642	-0.382818	0.000066
C33	C	1.219764	-0.394235	0.000090
C34	C	1.220712	-0.343819	0.000098
C35	C	1.139625	-0.312902	0.000091
C36	C	1.057590	-0.332402	0.000074
C37	C	0.893508	-0.371398	0.000031
C38	C	0.894464	-0.320976	0.000030
C39	C	0.976506	-0.301477	0.000048
C40	C	0.977451	-0.251069	0.000075
N41	N	1.059487	-0.231567	0.000083
C42	C	1.140574	-0.262483	0.000091
C43	C	0.968817	-0.709877	0.000040
C44	C	0.967868	-0.760296	0.000040
C45	C	1.130998	-0.771710	0.000056
C46	C	1.131946	-0.721291	0.000063
C47	C	1.050854	-0.690375	0.000048
C48	C	1.142559	-0.156605	0.000110
C49	C	1.143500	-0.106184	0.000122
C50	C	0.980370	-0.094773	0.000101
C51	C	0.979429	-0.145190	0.000093
C52	C	1.060530	-0.176105	0.000094
O53	O	0.908616	-0.220103	0.000099
O54	O	1.210428	-0.241258	0.000086
C55	C	1.136781	-0.464151	0.000065
C56	C	1.054746	-0.483651	0.000049
C57	C	0.973659	-0.452734	0.000041
C58	C	1.053797	-0.534070	0.000049
C59	C	1.134884	-0.564986	0.000056
C60	C	1.216921	-0.545484	0.000064
C61	C	1.217868	-0.495067	0.000072
C62	C	0.891623	-0.472237	0.000033
C63	C	0.890682	-0.522654	0.000026
C64	C	0.971769	-0.553570	0.000033
C65	C	1.219263	0.063326	0.000100
C66	C	1.318544	0.064337	0.000103
C67	C	1.047932	0.155128	0.000062
C68	C	1.048955	0.208788	0.000048
N69	N	1.055665	0.066753	0.246743
N70	N	1.055710	0.066764	-0.246573
C71	C	1.116945	0.033942	0.296576
C72	C	1.116951	0.033941	0.396234
C73	C	1.055680	0.066755	0.446057
C74	C	0.994393	0.099569	0.396217
C75	C	0.994384	0.099566	0.296562
C76	C	0.994419	0.099572	0.603932
C77	C	0.994429	0.099575	0.703594
C78	C	1.116987	0.033947	0.703604
C79	C	1.116977	0.033945	0.603948
C80	C	1.055691	0.066759	0.554115
H81	H	0.804613	-0.010785	0.000094
H82	H	0.944510	0.126291	0.563361
C83	C	0.927031	0.135666	0.758403
H84	H	0.935824	0.130971	0.824891
H85	H	0.867411	0.130361	0.742088
H86	H	0.936292	0.167938	0.742054
C87	C	1.310956	-0.322373	0.000112
H88	H	1.299920	-0.287917	0.000121
H89	H	1.344318	-0.332978	-0.055094
H90	H	1.344303	-0.332991	0.055333
H91	H	1.166850	0.007223	0.436807
C92	C	0.891181	-0.060759	0.000087
H93	H	0.903503	-0.027940	0.000082
H94	H	0.857497	-0.066679	0.055287
H95	H	0.857526	-0.066669	-0.055140
H96	H	0.306753	0.144307	0.000079
C97	C	0.889186	-0.166641	0.000072
H98	H	0.841030	-0.141005	0.000062
H99	H	0.885410	-0.186084	0.055271
H100	H	0.885438	-0.186059	-0.055156
H101	H	1.284675	-0.479196	0.000086
H102	H	0.826701	-0.387265	0.000011
C103	C	1.233749	-0.084737	0.000136
H104	H	1.281903	-0.110374	0.000129
H105	H	1.237509	-0.065313	0.055348
H106	H	1.237515	-0.065300	-0.055079
C107	C	0.926979	0.135659	0.241741
H108	H	0.935742	0.130955	0.175255
H109	H	0.936241	0.167928	0.258054
H110	H	0.867360	0.130352	0.258086
C111	C	1.306114	-0.579498	0.000065
H112	H	1.293790	-0.612317	0.000050
H113	H	1.339787	-0.573593	0.055276
H114	H	1.339782	-0.573575	-0.055151
C115	C	0.800430	-0.544097	0.000004
H116	H	0.752278	-0.518459	-0.000010
H117	H	0.796650	-0.563537	0.055205
H118	H	0.796679	-0.563517	-0.055222
H119	H	0.825590	-0.447069	0.000025
C120	C	0.773808	0.161688	0.000028
H121	H	0.725953	0.187488	0.000033
H122	H	0.809726	0.163893	-0.055185
H123	H	0.809730	0.163888	0.055242
C124	C	0.577925	0.159686	0.000048
H125	H	0.612349	0.186326	0.000025
H126	H	0.541070	0.161146	0.055262
H127	H	0.541063	0.161144	-0.055166
C128	C	0.337552	-0.028165	0.000139
H129	H	0.385402	-0.053968	0.000158
H130	H	0.301630	-0.030367	-0.055068
H131	H	0.301632	-0.030364	0.055359
H132	H	1.166843	0.007223	0.256016
H133	H	0.944501	0.126285	0.436789
C134	C	1.184402	-0.002148	0.758410
H135	H	1.220899	-0.021687	0.714465
H136	H	1.152519	-0.022300	0.797302
H137	H	1.221394	0.015279	0.797271
C138	C	0.533450	-0.026167	0.000109
H139	H	0.499027	-0.052809	0.000108
H140	H	0.570318	-0.027632	0.055312
H141	H	0.570299	-0.027620	-0.055115
H142	H	1.197022	-0.796891	0.000063
C143	C	1.231768	-0.190604	0.000119
H144	H	1.280755	-0.171764	0.000139
H145	H	1.234808	-0.210505	-0.055091
H146	H	1.234784	-0.210515	0.055336
C147	C	1.308968	-0.428236	0.000106
H148	H	1.357953	-0.409394	0.000123
H149	H	1.312011	-0.448140	-0.055100
H150	H	1.311983	-0.448143	0.055327
H151	H	1.166873	0.007228	0.563382
C152	C	1.222191	-0.699846	0.000073
H153	H	1.270343	-0.725484	0.000073
H154	H	1.225952	-0.680419	0.055281
H155	H	1.225961	-0.680412	-0.055146
H156	H	0.635373	-0.012511	0.000122
H157	H	0.475989	0.146035	0.000053
C158	C	0.877623	-0.781740	0.000029
H159	H	0.829471	-0.756102	0.000014
H160	H	0.873847	-0.801177	0.055235
H161	H	0.873868	-0.801163	-0.055192
C162	C	0.879609	-0.675875	0.000036
H163	H	0.830623	-0.694716	0.000042
H164	H	0.876581	-0.655962	-0.055172
H165	H	0.876583	-0.655977	0.055255
C166	C	0.805262	-0.286969	0.000014
H167	H	0.817571	-0.254148	0.000013
H168	H	0.771584	-0.292894	0.055216
H169	H	0.771608	-0.292882	-0.055211
