data_functionalizedCrystal
_audit_creation_method	'MofGen! by Chris Wilmer'
_symmetry_space_group_name_H-M	'P1'
_symmetry_Int_Tables_number	1
_symmetry_cell_setting	triclinic
loop_
_symmetry_equiv_pos_as_xyz
  x,y,z
_cell_length_a	10.540535
_cell_length_b	16.109301
_cell_length_c	15.186229
_cell_angle_alpha	90.005167
_cell_angle_beta	89.999024
_cell_angle_gamma	96.007438
loop_
_atom_site_label
_atom_site_type_symbol
_atom_site_fract_x
_atom_site_fract_y
_atom_site_fract_z
O1	O	1.684219	-0.117147	-0.073184
O2	O	1.314647	-0.128191	-0.073196
O3	O	1.509586	-0.001700	-0.073181
O4	O	1.489281	-0.243638	-0.073199
O5	O	1.509573	-0.001698	0.073277
O6	O	1.314634	-0.128189	0.073261
O7	O	1.684206	-0.117146	0.073274
Zn8	Zn	1.499418	-0.122667	0.096521
Zn9	Zn	1.499435	-0.122669	-0.096443
O10	O	1.489268	-0.243636	0.073258
C11	C	1.267350	-0.127362	0.000031
C12	C	1.126437	-0.124887	0.000026
C13	C	1.091083	-0.032533	0.000037
C14	C	0.944519	-0.029928	0.000378
C15	C	0.916492	-0.167044	0.083505
C16	C	1.063230	-0.169009	0.083566
C17	C	1.063109	-0.170355	-0.082989
C18	C	0.916824	-0.166083	-0.084077
C19	C	1.508757	0.029281	0.000048
C20	C	1.506291	0.121591	0.000050
C21	C	1.731503	-0.117974	0.000045
C22	C	1.872416	-0.120449	0.000043
C23	C	1.490097	-0.274617	0.000027
C24	C	1.492563	-0.366927	0.000020
N25	N	1.499416	-0.122665	0.228213
C26	C	1.616229	0.343192	0.000039
C27	C	1.613902	0.429927	0.000032
C28	C	1.382615	0.411465	0.000028
C29	C	1.384943	0.324732	0.000029
C30	C	1.501754	0.290598	0.000039
C31	C	1.497099	0.464066	0.000031
C32	C	1.494575	0.558107	0.000023
C33	C	1.504279	0.196551	0.000045
N34	N	1.499448	-0.122665	-0.228136
C35	C	1.585764	-0.066674	0.453943
C36	C	1.585768	-0.066672	0.546133
C37	C	1.413090	-0.178658	0.546128
C38	C	1.413081	-0.178656	0.453940
C39	C	1.499425	-0.122664	0.407850
C40	C	1.499438	-0.122665	0.592228
C41	C	1.499442	-0.122664	0.692184
C42	C	1.499420	-0.122665	0.307887
H43	H	0.915706	0.006512	-0.059438
H44	H	1.105985	-0.141537	-0.146272
O45	O	1.269071	0.444525	0.000141
C46	C	1.199299	0.417737	0.076002
H47	H	1.233873	0.357391	0.101291
H48	H	1.093588	0.406321	0.058940
H49	H	1.214014	0.467835	0.129116
O50	O	1.273651	0.273721	-0.000088
C51	C	1.202748	0.289277	-0.075952
H52	H	1.233936	0.354875	-0.101239
H53	H	1.096876	0.283797	-0.058896
H54	H	1.220097	0.241740	-0.129067
O55	O	1.329334	-0.233166	0.409200
C56	C	1.349911	-0.315600	0.431728
H57	H	1.451536	-0.316647	0.457065
H58	H	1.335288	-0.357230	0.371096
H59	H	1.279550	-0.339580	0.485239
H60	H	1.707120	0.472746	0.000031
H61	H	1.085295	-0.236711	0.087128
H62	H	1.656068	-0.021081	0.416419
O63	O	1.669762	-0.012254	0.590771
C64	C	1.745940	0.037178	0.530318
H65	H	1.747352	0.003080	0.464600
H66	H	1.847315	0.049223	0.556950
H67	H	1.704755	0.099201	0.520521
H68	H	1.084325	-0.238304	-0.083801
O69	O	1.141618	0.009893	-0.071326
C70	C	1.108241	0.092372	-0.069344
H71	H	1.018643	0.094791	-0.027778
H72	H	1.089280	0.113718	-0.139249
H73	H	1.189808	0.135303	-0.039405
O74	O	1.143547	0.008940	0.071408
C75	C	1.212142	-0.045134	0.121314
H76	H	1.174054	-0.112608	0.106841
H77	H	1.200319	-0.031757	0.194405
H78	H	1.317519	-0.034763	0.103051
H79	H	1.342793	-0.224246	0.583664
O80	O	1.729584	0.309897	0.000079
C81	C	1.707098	0.222065	0.000058
H82	H	1.608033	0.202287	0.027789
H83	H	1.781840	0.195003	0.042577
H84	H	1.713237	0.197883	-0.070205
H85	H	0.916578	0.006334	0.060566
H86	H	0.868185	-0.233692	0.086369
O87	O	1.111730	-0.131600	0.158343
C88	C	1.174755	-0.189078	0.207636
H89	H	1.135668	-0.255369	0.188830
H90	H	1.158167	-0.178886	0.280847
H91	H	1.281390	-0.179458	0.193091
O92	O	0.880225	-0.129028	0.157988
C93	C	0.920583	-0.171633	0.232331
H94	H	0.934638	-0.238523	0.213341
H95	H	0.845212	-0.172206	0.286229
H96	H	1.014531	-0.138624	0.257541
O97	O	0.883137	-0.125562	-0.157656
C98	C	0.819754	-0.056219	-0.133228
H99	H	0.777729	-0.066644	-0.064458
H100	H	0.739862	-0.048357	-0.182154
H101	H	0.890416	0.002416	-0.133320
H102	H	0.866834	-0.232148	-0.089381
