data_functionalizedCrystal
_audit_creation_method	'MofGen! by Chris Wilmer'
_symmetry_space_group_name_H-M	'P1'
_symmetry_Int_Tables_number	1
_symmetry_cell_setting	triclinic
loop_
_symmetry_equiv_pos_as_xyz
  x,y,z
_cell_length_a	17.638686
_cell_length_b	17.637651
_cell_length_c	12.759393
_cell_angle_alpha	78.749835
_cell_angle_beta	78.783988
_cell_angle_gamma	87.823829
loop_
_atom_site_label
_atom_site_type_symbol
_atom_site_fract_x
_atom_site_fract_y
_atom_site_fract_z
Zn1	Zn	1.099869	-0.537480	-0.744488
Zn2	Zn	1.074110	-0.664502	-0.527723
Zn3	Zn	0.972867	-0.511799	-0.541660
Zn4	Zn	0.947196	-0.638737	-0.676244
O5	O	1.023511	-0.588129	-0.622529
O6	O	1.202716	-0.575860	-0.738461
O7	O	1.060643	-0.644281	-0.382531
O8	O	1.011238	-0.408923	-0.602959
O9	O	1.183791	-0.669182	-0.579205
O10	O	1.104545	-0.427791	-0.751976
O11	O	0.986260	-0.532091	-0.392771
O12	O	0.863198	-0.507108	-0.536786
O13	O	0.967485	-0.625269	-0.832337
O14	O	0.844337	-0.600368	-0.635663
O15	O	1.079653	-0.550877	-0.882476
O16	O	1.035751	-0.767366	-0.513032
O17	O	0.942508	-0.748437	-0.622149
C18	C	0.826214	-0.548156	-0.580332
C19	C	0.741806	-0.531073	-0.562299
C20	C	0.415130	-0.718070	-0.759735
C21	C	0.335817	-0.702011	-0.742766
C22	C	0.355453	-0.604749	-0.640061
C23	C	0.434769	-0.620802	-0.657017
C24	C	0.464600	-0.677462	-0.716856
C25	C	0.484240	-0.580194	-0.614138
C26	C	0.563549	-0.596243	-0.631097
C27	C	0.593387	-0.652900	-0.690936
C28	C	0.543910	-0.693511	-0.733815
C29	C	0.454407	-0.523530	-0.554306
C30	C	0.503878	-0.482923	-0.511427
C31	C	0.583188	-0.498975	-0.528380
C32	C	0.613026	-0.555632	-0.588218
C33	C	0.632665	-0.458363	-0.485501
C34	C	0.711974	-0.474412	-0.502460
C35	C	0.692335	-0.571681	-0.605178
C36	C	0.983569	-0.785464	-0.558700
C37	C	0.966551	-0.869898	-0.531444
C38	C	1.153285	-1.196375	-0.830029
C39	C	1.137270	-1.275709	-0.804394
C40	C	1.040174	-1.256182	-0.649107
C41	C	1.056183	-1.176845	-0.674726
C42	C	1.112739	-1.146948	-0.765188
C43	C	1.015637	-1.127419	-0.609885
C44	C	1.031642	-1.048088	-0.635506
C45	C	1.088194	-1.018184	-0.725966
C46	C	1.128744	-1.067617	-0.790809
C47	C	0.959078	-1.157317	-0.519427
C48	C	0.918532	-1.107891	-0.454587
C49	C	0.934541	-1.028559	-0.480203
C50	C	0.991092	-0.998655	-0.570663
C51	C	0.893990	-0.979126	-0.415360
C52	C	0.909996	-0.899796	-0.440981
C53	C	1.007098	-0.919325	-0.596284
C54	C	1.221577	-0.628260	-0.664891
C55	C	1.305981	-0.645361	-0.682943
C56	C	1.023579	-0.588064	-0.896598
C57	C	1.023608	-0.588035	-1.013391
C58	C	1.063629	-0.390029	-0.686635
C59	C	1.080725	-0.305610	-0.713953
C60	C	1.082022	-0.549296	-1.094364
C61	C	1.082045	-0.549272	-1.204101
C62	C	0.965239	-0.626734	-1.151878
C63	C	0.965213	-0.626752	-1.042144
C64	C	1.149461	-0.504577	-1.124516
C65	C	1.149485	-0.504553	-1.234253
C66	C	1.023497	-0.588149	-0.349553
C67	C	1.023658	-0.587993	-0.232862
H68	H	0.752256	-0.441340	-0.467553
Br69	Br	0.455621	-0.794978	-0.840928
H70	H	1.170281	-1.315948	-0.857214
Br71	Br	0.885922	-0.679311	-0.932253
Br72	Br	0.592172	-0.381458	-0.404315
H73	H	0.994124	-1.280536	-0.575454
Br74	Br	1.242206	-0.550651	-1.296372
H75	H	0.657967	-0.665962	-0.704750
H76	H	0.917694	-0.658253	-1.175304
H77	H	0.295539	-0.735081	-0.777692
H78	H	1.145619	-0.442567	-1.110412
Br79	Br	0.314961	-0.527850	-0.558863
H80	H	1.174804	-1.043276	-0.864467
H81	H	0.946041	-1.221912	-0.498579
H82	H	1.201050	-0.536976	-1.095605
H83	H	0.847937	-1.003480	-0.341712
H84	H	1.199344	-1.172033	-0.903686
H85	H	0.872482	-1.132244	-0.380934
H86	H	0.479578	-0.436787	-0.462710
Br87	Br	0.854970	-0.832712	-0.352982
Br88	Br	1.083865	-0.878744	-0.719043
H89	H	1.139741	-0.444400	-1.281870
Br90	Br	0.732827	-0.648588	-0.686371
H91	H	0.568199	-0.739654	-0.782535
H92	H	1.101225	-0.953588	-0.746824
H93	H	0.389829	-0.510461	-0.540507
