data_functionalizedCrystal
_audit_creation_method	'MofGen! by Chris Wilmer'
_symmetry_space_group_name_H-M	'P1'
_symmetry_Int_Tables_number	1
_symmetry_cell_setting	triclinic
loop_
_symmetry_equiv_pos_as_xyz
  x,y,z
_cell_length_a	23.532361
_cell_length_b	23.532407
_cell_length_c	22.010155
_cell_angle_alpha	90.001349
_cell_angle_beta	89.995857
_cell_angle_gamma	97.160831
loop_
_atom_site_label
_atom_site_type_symbol
_atom_site_fract_x
_atom_site_fract_y
_atom_site_fract_z
O1	O	0.755281	-0.069000	-0.050472
O2	O	0.589414	-0.079031	-0.050488
O3	O	0.677349	0.008917	-0.050466
O4	O	0.667346	-0.156948	-0.050494
O5	O	0.677333	0.008903	0.050584
O6	O	0.589398	-0.079045	0.050563
O7	O	0.755265	-0.069014	0.050578
Cu8	Cu	0.672330	-0.074031	0.059797
Cu9	Cu	0.672349	-0.074014	-0.059707
O10	O	0.667330	-0.156962	0.050557
C11	C	0.568189	-0.078787	0.000036
C12	C	0.504971	-0.078032	0.000030
C13	C	0.231736	-0.074721	-0.055048
C14	C	0.291136	-0.075436	-0.055050
O15	O	0.321869	-0.075779	-0.101894
N16	N	0.320832	-0.075804	0.000033
C17	C	0.291127	-0.075452	0.055121
O18	O	0.321841	-0.075831	0.101973
C19	C	0.231729	-0.074733	0.055122
C20	C	0.202035	-0.074370	0.000036
C21	C	0.202041	-0.074357	-0.110130
C22	C	0.142645	-0.073643	-0.110128
C23	C	0.112944	-0.073293	-0.055044
C24	C	0.142639	-0.073657	0.000037
C25	C	0.202026	-0.074377	0.110209
C26	C	0.142624	-0.073658	0.110205
C27	C	0.112929	-0.073295	0.055119
C28	C	0.053542	-0.072592	0.055123
N29	N	0.023845	-0.072224	0.000040
C30	C	0.053546	-0.072574	-0.055043
C31	C	0.415867	-0.076961	0.055115
C32	C	0.475264	-0.077684	0.055114
C33	C	0.475268	-0.077667	-0.055057
C34	C	0.415870	-0.076948	-0.055056
C35	C	0.386171	-0.076593	0.000032
C36	C	-0.071189	-0.071075	-0.055035
C37	C	-0.130591	-0.070364	-0.055029
C38	C	-0.130590	-0.070379	0.055142
C39	C	-0.071194	-0.071093	0.055135
C40	C	-0.041495	-0.071440	0.000042
O41	O	0.022771	-0.072246	0.101944
O42	O	0.022826	-0.072188	-0.101888
C43	C	0.677086	0.030126	0.000061
C44	C	0.676320	0.093343	0.000067
C45	C	0.776489	-0.069258	0.000054
C46	C	0.839708	-0.070014	0.000055
N47	N	0.672321	-0.074042	0.143850
C48	C	0.723555	0.492454	0.000048
C49	C	0.722844	0.551854	0.000045
O50	O	0.766630	0.588606	0.000028
N51	N	0.670566	0.574471	0.000041
C52	C	0.618997	0.537685	0.000034
O53	O	0.574465	0.562377	0.000030
C54	C	0.619709	0.478286	0.000033
C55	C	0.671990	0.455672	0.000043
C56	C	0.775832	0.469839	0.000058
C57	C	0.776543	0.410443	0.000062
C58	C	0.724977	0.373662	0.000057
C59	C	0.672701	0.396276	0.000048
C60	C	0.568140	0.441501	0.000022
C61	C	0.568857	0.382099	0.000020
C62	C	0.621137	0.359485	0.000030
C63	C	0.621847	0.300099	0.000047
N64	N	0.674124	0.277481	0.000051
C65	C	0.725690	0.314263	0.000056
C66	C	0.617505	0.662427	0.000036
C67	C	0.616793	0.721825	0.000041
C68	C	0.720640	0.735990	0.000051
C69	C	0.721352	0.676591	0.000050
C70	C	0.669783	0.639810	0.000040
C71	C	0.727179	0.189526	0.000065
C72	C	0.727886	0.130124	0.000072
C73	C	0.624039	0.115965	0.000059
C74	C	0.623332	0.175361	0.000056
C75	C	0.674907	0.212141	0.000057
O76	O	0.578083	0.263312	0.000062
O77	O	0.770214	0.289562	0.000052
C78	C	0.667592	0.821829	0.000034
C79	C	0.668358	0.758612	0.000043
C80	C	0.711288	-0.035081	0.563639
C81	C	0.711291	-0.035077	0.627246
O82	O	0.744400	-0.001956	0.660146
N83	N	0.672348	-0.074008	0.659057
C84	C	0.633396	-0.112940	0.627256
O85	O	0.600272	-0.146052	0.660155
C86	C	0.633391	-0.112940	0.563650
C87	C	0.672340	-0.074011	0.531843
C88	C	0.750234	0.003845	0.531831
C89	C	0.750232	0.003841	0.468228
C90	C	0.711284	-0.035090	0.436432
C91	C	0.672338	-0.074016	0.468239
C92	C	0.594437	-0.151869	0.531851
C93	C	0.594435	-0.151866	0.468240
C94	C	0.633384	-0.112937	0.436433
C95	C	0.633389	-0.112950	0.372840
N96	N	0.672331	-0.074020	0.341030
C97	C	0.711279	-0.035090	0.372826
C98	C	0.633408	-0.112936	0.760834
C99	C	0.633415	-0.112938	0.824440
C100	C	0.711310	-0.035075	0.824425
C101	C	0.711305	-0.035075	0.760818
C102	C	0.672351	-0.074005	0.729024
C103	C	0.711272	-0.035102	0.239254
C104	C	0.711268	-0.035112	0.175645
C105	C	0.633372	-0.112973	0.175666
C106	C	0.633378	-0.112966	0.239269
C107	C	0.672330	-0.074026	0.271062
O108	O	0.600295	-0.146053	0.339900
O109	O	0.744393	-0.001978	0.339920
N110	N	0.672361	-0.074006	0.856241
H111	H	0.226193	-0.074671	0.155066
O112	O	0.113859	-0.073340	0.163774
C113	C	0.152812	-0.073799	0.212388
H114	H	0.192692	-0.092340	0.196233
H115	H	0.131876	-0.101250	0.250912
H116	H	0.165367	-0.028181	0.229330
O117	O	0.556544	-0.189706	0.562644
C118	C	0.522180	-0.224068	0.520928
H119	H	0.521678	-0.200716	0.475590
H120	H	0.476648	-0.232993	0.539304
H121	H	0.540427	-0.266282	0.514159
H122	H	0.391697	-0.076652	-0.099912
O123	O	0.386945	-0.076699	0.108591
C124	C	0.345860	-0.125621	0.111890
H125	H	0.334714	-0.141953	0.064062
H126	H	0.305607	-0.114025	0.135212
H127	H	0.364036	-0.160446	0.139063
H128	H	0.762627	0.765949	0.000053
O129	O	0.595467	-0.150724	0.270146
C130	C	0.539147	-0.141767	0.254591
H131	H	0.539134	-0.096172	0.237097
H132	H	0.510526	-0.148457	0.296422
H133	H	0.522237	-0.173427	0.217676
H134	H	0.601689	-0.144642	0.734950
H135	H	0.743022	-0.003375	0.850325
O136	O	0.230939	-0.074777	-0.163604
C137	C	0.258545	-0.124533	-0.166920
H138	H	0.265205	-0.141090	-0.119097
H139	H	0.301826	-0.113945	-0.190244
H140	H	0.230930	-0.158796	-0.194099
O141	O	-0.042430	-0.071422	0.108699
C142	C	-0.081388	-0.070977	0.157317
H143	H	-0.121270	-0.052439	0.141170
H144	H	-0.060458	-0.043530	0.195846
H145	H	-0.093937	-0.116599	0.174249
H146	H	-0.047016	-0.071358	-0.099898
O147	O	0.556673	-0.189709	0.437289
C148	C	0.586967	-0.224700	0.400506
H149	H	0.631661	-0.201786	0.390968
H150	H	0.563141	-0.233839	0.355783
H151	H	0.590596	-0.266770	0.425023
H152	H	0.601705	-0.144644	0.850333
H153	H	0.499462	-0.077951	-0.099909
H154	H	0.499435	-0.077989	0.099971
H155	H	0.743020	-0.003376	0.734925
H156	H	0.582056	0.086007	0.000058
O157	O	0.113897	-0.073258	-0.163694
C158	C	0.152858	-0.073732	-0.212305
H159	H	0.197658	-0.056218	-0.196144
H160	H	0.139483	-0.045859	-0.250825
H161	H	0.152937	-0.119500	-0.229257
H162	H	0.781950	0.035550	0.557714
H163	H	0.817825	0.499782	0.000059
H164	H	-0.154783	-0.070096	0.099989
O165	O	0.595617	-0.150809	0.144705
C166	C	0.625911	-0.185796	0.107917
H167	H	0.670607	-0.162885	0.098390
H168	H	0.602090	-0.194922	0.063189
H169	H	0.629532	-0.227872	0.132425
H170	H	0.574220	0.740232	0.000044
O171	O	-0.159344	-0.069986	-0.108597
C172	C	-0.120388	-0.070461	-0.157213
H173	H	-0.075588	-0.052939	-0.141059
H174	H	-0.133772	-0.042596	-0.195735
H175	H	-0.120305	-0.116231	-0.174158
O176	O	0.778724	0.108253	0.000053
C177	C	0.824083	0.153459	0.000069
H178	H	0.808353	0.193722	-0.019066
H179	H	0.860608	0.141253	-0.029265
H180	H	0.839965	0.161959	0.048549
H181	H	0.769176	0.219466	0.000064
H182	H	0.763923	0.658183	0.000057
H183	H	0.781946	0.035542	0.442334
O184	O	0.827379	0.388575	0.000040
C185	C	0.872733	0.433786	0.000058
H186	H	0.856998	0.474047	-0.019074
H187	H	0.909259	0.421585	-0.029278
H188	H	0.888615	0.442284	0.048538
H189	H	0.575509	0.632483	0.000033
O190	O	0.749164	0.002746	0.270038
C191	C	0.783524	0.037108	0.228314
H192	H	0.784027	0.013752	0.182977
H193	H	0.829057	0.046039	0.246680
H194	H	0.765272	0.079318	0.221546
H195	H	0.525567	0.459902	0.000010
H196	H	0.526862	0.352154	0.000011
H197	H	0.580761	0.193774	0.000065
O198	O	0.748994	0.002793	0.144720
C199	C	0.718637	0.037771	0.107996
H200	H	0.673975	0.014796	0.098432
H201	H	0.742457	0.047007	0.063281
H202	H	0.714930	0.079794	0.132576
