data_functionalizedCrystal
_audit_creation_method	'MofGen! by Chris Wilmer'
_symmetry_space_group_name_H-M	'P1'
_symmetry_Int_Tables_number	1
_symmetry_cell_setting	triclinic
loop_
_symmetry_equiv_pos_as_xyz
  x,y,z
_cell_length_a	8.597187
_cell_length_b	8.634740
_cell_length_c	7.681481
_cell_angle_alpha	83.367078
_cell_angle_beta	88.166928
_cell_angle_gamma	92.880183
loop_
_atom_site_label
_atom_site_type_symbol
_atom_site_fract_x
_atom_site_fract_y
_atom_site_fract_z
O1	O	2.077453	0.276122	-0.461592
O2	O	1.629068	0.287121	-0.393570
O3	O	1.832036	0.056504	-0.424358
O4	O	1.874485	0.506739	-0.430804
O5	O	1.857008	0.028052	-0.135288
O6	O	1.654040	0.258670	-0.104500
O7	O	2.102425	0.247670	-0.172522
Zn8	Zn	1.882197	0.248653	-0.092615
Zn9	Zn	1.849296	0.286139	-0.473477
O10	O	1.899457	0.478287	-0.141734
C11	C	1.583554	0.270129	-0.240236
C12	C	1.410732	0.261866	-0.214018
C13	C	1.834905	-0.015462	-0.278367
C14	C	1.806232	-0.187511	-0.274026
C15	C	2.147938	0.264663	-0.325859
C16	C	2.320760	0.272927	-0.352089
C17	C	1.896588	0.550254	-0.287728
C18	C	1.925260	0.722304	-0.292081
N19	N	1.904663	0.223069	0.167311
N20	N	1.826840	0.311710	-0.733405
H21	H	1.355545	0.246092	-0.075764
O22	O	1.642182	-0.259571	-0.249140
H23	H	1.590970	-0.233403	-0.122012
O24	O	2.089320	-0.205636	-0.316970
H25	H	2.086860	-0.077278	-0.316588
O26	O	1.721569	0.431533	0.182975
H27	H	1.724461	0.428184	0.038900
O28	O	1.393847	0.293814	-0.535244
H29	H	1.522673	0.297215	-0.527784
H30	H	1.984124	0.132598	0.230464
