data_functionalizedCrystal
_audit_creation_method	'MofGen! by Chris Wilmer'
_symmetry_space_group_name_H-M	'P1'
_symmetry_Int_Tables_number	1
_symmetry_cell_setting	triclinic
loop_
_symmetry_equiv_pos_as_xyz
  x,y,z
_cell_length_a	13.339070
_cell_length_b	10.489741
_cell_length_c	12.376457
_cell_angle_alpha	101.393369
_cell_angle_beta	75.589755
_cell_angle_gamma	100.084234
loop_
_atom_site_label
_atom_site_type_symbol
_atom_site_fract_x
_atom_site_fract_y
_atom_site_fract_z
O1	O	1.366233	0.623457	-0.094044
O2	O	1.071092	0.539311	-0.094038
O3	O	1.225377	0.398086	-0.094035
O4	O	1.211948	0.764681	-0.094048
O5	O	1.186819	0.433330	0.093977
O6	O	1.032534	0.574555	0.093973
O7	O	1.327675	0.658701	0.093967
Zn8	Zn	1.173983	0.622224	0.123821
Zn9	Zn	1.224784	0.575788	-0.123892
O10	O	1.173390	0.799925	0.093964
C11	C	1.014020	0.542719	-0.000031
C12	C	0.901409	0.500351	-0.000029
C13	C	0.539022	0.829783	-0.000059
C14	C	0.644826	0.869593	-0.000065
C15	C	0.708977	0.777286	-0.000055
C16	C	0.667313	0.645161	-0.000041
C17	C	0.561501	0.605345	-0.000044
C18	C	0.731456	0.552849	-0.000040
C19	C	0.689792	0.420724	-0.000026
C20	C	0.583990	0.380915	-0.000028
C21	C	0.519839	0.473222	-0.000037
C22	C	0.837268	0.592665	-0.000037
C23	C	0.859747	0.368227	-0.000022
C24	C	0.753943	0.328417	-0.000016
C25	C	1.205084	0.367829	-0.000030
C26	C	1.202049	0.225160	-0.000032
C27	C	1.103883	0.123412	-0.000038
C28	C	1.131245	0.064542	0.092661
C29	C	1.169284	0.029828	-0.092704
C30	C	1.229436	0.168184	0.092743
C31	C	1.267478	0.133459	-0.092704
C32	C	1.294907	0.074645	0.000017
C33	C	1.384748	0.655292	-0.000042
C34	C	1.497360	0.697659	-0.000052
C35	C	1.193684	0.830182	-0.000044
C36	C	1.196720	0.972849	-0.000049
N37	N	1.139319	0.653917	0.292879
N38	N	1.259456	0.544088	-0.292950
C39	C	1.339921	0.470493	0.647868
C40	C	1.364176	0.448309	0.529529
C41	C	1.307963	0.499709	0.470360
C42	C	1.227492	0.573297	0.529543
C43	C	1.203240	0.595492	0.647894
C44	C	1.171283	0.624708	0.470386
C45	C	1.090812	0.698296	0.529569
C46	C	1.066563	0.720486	0.647908
C47	C	1.122775	0.669087	0.707076
C48	C	1.195535	0.602512	0.352035
C49	C	1.058855	0.727511	0.352061
C50	C	1.034599	0.749696	0.470400
H51	H	0.486784	0.904923	-0.000076
H52	H	1.375682	0.052887	0.000066
N53	N	1.343744	0.173965	-0.196512
H54	H	1.415650	0.155164	-0.197257
H55	H	1.320866	0.122936	-0.266446
H56	H	1.073636	0.034002	0.171032
H57	H	1.143808	-0.030053	-0.171080
N58	N	0.405721	0.430263	-0.000036
H59	H	0.370362	0.389679	0.069663
H60	H	0.371485	0.508838	-0.000080
H61	H	0.550074	0.273328	-0.000029
H62	H	1.103024	0.687144	0.803438
N63	N	0.823090	0.820231	-0.000046
H64	H	0.838685	0.798833	0.069659
H65	H	0.867219	0.772683	-0.069779
N66	N	0.998212	0.782960	0.288268
H67	H	1.047440	0.844113	0.239151
H68	H	0.963014	0.708888	0.239248
H69	H	1.261055	0.542597	0.303859
N70	N	0.689766	1.012083	-0.000097
H71	H	0.633075	1.064519	-0.000105
H72	H	0.718886	1.046571	0.069596
N73	N	0.979768	0.799850	0.711744
H74	H	0.947831	0.829037	0.656308
H75	H	0.924523	0.744184	0.760852
N76	N	0.947809	0.829062	0.534245
H77	H	0.976914	0.908631	0.583335
H78	H	0.915903	0.858166	0.478745
N79	N	0.708992	0.185917	-0.000010
H80	H	0.746610	0.130714	-0.069702
H81	H	0.718021	0.156963	0.069736
N82	N	0.996947	0.152601	0.000080
H83	H	0.972456	0.217983	0.069428
H84	H	1.000585	0.190392	-0.070004
N85	N	1.263101	0.247311	0.196668
H86	H	1.264913	0.343829	0.196052
H87	H	1.211936	0.221647	0.266543
H88	H	0.871179	0.700242	-0.000045
N89	N	1.334119	0.475784	0.342724
H90	H	1.393625	0.421365	0.314209
H91	H	1.270862	0.427439	0.314327
N92	N	1.450962	0.368945	0.465698
H93	H	1.518828	0.413064	0.486282
H94	H	1.434313	0.277920	0.486325
N95	N	1.400543	0.415077	0.711693
H96	H	1.351313	0.353926	0.760810
H97	H	1.455198	0.365154	0.656182
H98	H	0.911980	0.293062	-0.000020
