data_functionalizedCrystal
_audit_creation_method	'MofGen! by Chris Wilmer'
_symmetry_space_group_name_H-M	'P1'
_symmetry_Int_Tables_number	1
_symmetry_cell_setting	triclinic
loop_
_symmetry_equiv_pos_as_xyz
  x,y,z
_cell_length_a	10.489741
_cell_length_b	23.532407
_cell_length_c	8.965430
_cell_angle_alpha	89.995773
_cell_angle_beta	89.998843
_cell_angle_gamma	83.693926
loop_
_atom_site_label
_atom_site_type_symbol
_atom_site_fract_x
_atom_site_fract_y
_atom_site_fract_z
O1	O	1.691383	0.080340	-0.123964
O2	O	1.319936	0.087881	-0.123989
O3	O	1.516860	0.001253	-0.123949
O4	O	1.494458	0.166968	-0.124005
O5	O	1.516844	0.001259	0.124130
O6	O	1.319920	0.087887	0.124090
O7	O	1.691366	0.080346	0.124115
Cu8	Cu	1.505641	0.084117	0.146754
Cu9	Cu	1.505661	0.084110	-0.146628
O10	O	1.494442	0.166974	0.124074
C11	C	1.272415	0.087315	0.000048
C12	C	1.130842	0.085611	0.000039
C13	C	1.516282	-0.019964	0.000095
C14	C	1.514566	-0.083192	0.000106
C15	C	1.064535	0.030491	0.000072
C16	C	0.971550	0.056526	-0.122250
C17	C	0.971568	0.056545	0.122337
C18	C	1.039723	0.111668	-0.122383
C19	C	1.039750	0.111679	0.122313
C20	C	0.946792	0.137754	-0.000039
C21	C	1.620344	-0.481594	0.000031
C22	C	1.618751	-0.541005	0.000020
O23	O	1.716808	-0.577100	-0.000029
N24	N	1.501680	-0.564407	0.000013
C25	C	1.386194	-0.528395	0.000003
O26	O	1.286470	-0.553755	-0.000006
C27	C	1.387789	-0.468985	0.000003
C28	C	1.504868	-0.445587	0.000025
C29	C	1.737414	-0.458195	0.000051
C30	C	1.739007	-0.398788	0.000066
C31	C	1.623530	-0.362781	0.000060
C32	C	1.506460	-0.386180	0.000039
C33	C	1.272305	-0.432974	-0.000018
C34	C	1.273909	-0.373561	-0.000018
C35	C	1.390988	-0.350162	0.000004
C36	C	1.392576	-0.290766	0.000048
N37	N	1.509648	-0.267364	0.000054
C38	C	1.625125	-0.303371	0.000060
C39	C	1.382854	-0.653160	-0.000002
C40	C	1.381258	-0.712568	0.000008
C41	C	1.613816	-0.725174	0.000023
C42	C	1.615410	-0.665765	0.000023
C43	C	1.499926	-0.629758	0.000005
C44	C	1.628461	-0.178612	0.000092
C45	C	1.630043	-0.119200	0.000112
C46	C	1.397486	-0.106599	0.000090
C47	C	1.395903	-0.166006	0.000077
C48	C	1.511401	-0.202012	0.000073
O49	O	1.294571	-0.254636	0.000090
O50	O	1.724833	-0.278003	0.000049
C51	C	1.738887	0.080912	0.000075
C52	C	1.880460	0.082616	0.000073
C53	C	1.495021	0.188191	0.000028
C54	C	1.496736	0.251419	0.000006
N55	N	1.505637	0.084121	0.353103
N56	N	1.505676	0.084101	-0.352977
C57	C	1.414538	0.124171	0.450390
C58	C	1.529652	0.135693	0.549807
C59	C	1.390572	0.072603	0.549813
C60	C	1.620808	0.095670	0.450331
C61	C	1.481652	0.032557	0.450328
C62	C	1.596850	0.044059	0.549701
H63	H	1.115731	-0.014820	-0.000066
O64	O	1.274577	0.060916	0.602120
C65	C	1.290474	0.010577	0.688546
H66	H	1.393295	0.003344	0.731398
H67	H	1.221457	0.015037	0.787129
H68	H	1.269524	-0.027354	0.616999
H69	H	1.303468	-0.077271	0.000090
O70	O	1.075838	0.139398	0.245822
C71	C	1.041503	0.110202	0.374549
H72	H	1.031823	0.063732	0.345260
H73	H	1.118811	0.111910	0.463303
H74	H	0.946113	0.131355	0.419177
O75	O	1.457225	-0.019390	0.397965
C76	C	1.345563	-0.012878	0.309300
H77	H	1.329136	0.032856	0.265753
H78	H	1.357584	-0.043814	0.211184
H79	H	1.259680	-0.022409	0.379261
H80	H	0.941318	0.033202	-0.225650
O81	O	1.075708	0.139519	-0.245748
C82	C	1.135887	0.187587	-0.202123
H83	H	1.175081	0.180899	-0.084081
H84	H	1.218052	0.193413	-0.281936
H85	H	1.063192	0.227317	-0.205075
O86	O	1.849514	-0.493227	0.000258
C87	C	1.855564	-0.527961	0.128762
H88	H	1.754369	-0.531397	0.171582
H89	H	1.903678	-0.572403	0.099876
H90	H	1.913538	-0.508171	0.218737
H91	H	1.718153	0.105455	0.406816
O92	O	0.886076	0.191875	-0.000393
C93	C	0.920836	0.220714	-0.129517
H94	H	0.954518	0.188154	-0.219238
H95	H	0.834382	0.249748	-0.172212
H96	H	1.001714	0.247561	-0.101516
O97	O	1.688769	0.003649	0.601658
C98	C	1.687118	0.003776	0.758910
H99	H	1.588720	0.022830	0.799864
H100	H	1.707842	-0.041926	0.801695
H101	H	1.763453	0.030524	0.802329
H102	H	1.710746	-0.646718	0.000040
O103	O	0.935699	0.028641	0.245668
C104	C	0.996240	-0.027898	0.245193
H105	H	1.086474	-0.030262	0.173587
H106	H	1.023293	-0.041439	0.364151
H107	H	0.927909	-0.057713	0.197458
O108	O	1.322563	0.164577	0.398531
C109	C	1.201556	0.152883	0.451358
H110	H	1.214496	0.125765	0.556762
H111	H	1.140476	0.194778	0.477715
H112	H	1.151848	0.128652	0.362318
H113	H	1.300568	-0.185058	0.000101
O114	O	1.743892	-0.096566	0.000061
C115	C	1.845468	-0.141091	0.000095
H116	H	1.810240	-0.181588	-0.046882
H117	H	1.927258	-0.128334	-0.071922
H118	H	1.881044	-0.149356	0.119111
O119	O	1.740570	-0.213641	0.000293
C120	C	1.746619	-0.248379	0.128790
H121	H	1.645423	-0.251816	0.171608
H122	H	1.794731	-0.292820	0.099895
H123	H	1.804593	-0.228593	0.218771
O124	O	1.270580	-0.618242	-0.000196
C125	C	1.199475	-0.628914	-0.128699
H126	H	1.231395	-0.673839	-0.171538
H127	H	1.093048	-0.625187	-0.099804
H128	H	1.216480	-0.596346	-0.218664
H129	H	1.176967	-0.452014	-0.000045
H130	H	1.549965	0.179291	0.593502
H131	H	1.707843	-0.754503	0.000022
O132	O	1.852850	-0.376158	0.000008
C133	C	1.954416	-0.420688	0.000046
H134	H	1.919177	-0.461184	-0.046923
H135	H	2.036209	-0.407936	-0.071975
H136	H	1.989993	-0.428951	0.119063
H137	H	1.285921	-0.731613	0.000016
H138	H	1.179865	-0.344246	-0.000035
