data_functionalizedCrystal
_audit_creation_method	'MofGen! by Chris Wilmer'
_symmetry_space_group_name_H-M	'P1'
_symmetry_Int_Tables_number	1
_symmetry_cell_setting	triclinic
loop_
_symmetry_equiv_pos_as_xyz
  x,y,z
_cell_length_a	19.121215
_cell_length_b	19.121063
_cell_length_c	19.120915
_cell_angle_alpha	94.738654
_cell_angle_beta	89.875521
_cell_angle_gamma	95.002544
loop_
_atom_site_label
_atom_site_type_symbol
_atom_site_fract_x
_atom_site_fract_y
_atom_site_fract_z
Zn1	Zn	1.043541	-0.254502	-0.452591
Zn2	Zn	1.043458	-0.367158	-0.339939
Zn3	Zn	0.931330	-0.254088	-0.330340
Zn4	Zn	0.920819	-0.377138	-0.452526
O5	O	0.984787	-0.313222	-0.393849
O6	O	1.141815	-0.265443	-0.441692
O7	O	1.032948	-0.347810	-0.240385
O8	O	0.950649	-0.155500	-0.342567
O9	O	1.141754	-0.348211	-0.358927
O10	O	1.033090	-0.155804	-0.432384
O11	O	0.950569	-0.264738	-0.233332
O12	O	0.831651	-0.274414	-0.342504
O13	O	0.932734	-0.365219	-0.550816
O14	O	0.823928	-0.364818	-0.432274
O15	O	1.022897	-0.275120	-0.550864
O16	O	1.022756	-0.467126	-0.358864
O17	O	0.932654	-0.474457	-0.441582
C18	C	0.802305	-0.320655	-0.386341
C19	C	0.724237	-0.323852	-0.383146
C20	C	0.282696	-0.344096	-0.362934
C21	C	0.356050	-0.341087	-0.365931
C22	C	0.392754	-0.296567	-0.410597
C23	C	0.356101	-0.255048	-0.452263
C24	C	0.282749	-0.258053	-0.449263
C25	C	0.614232	-0.285338	-0.421812
C26	C	0.687589	-0.282337	-0.424811
C27	C	0.687533	-0.368376	-0.338477
C28	C	0.614179	-0.371381	-0.335484
C29	C	0.577533	-0.329859	-0.377148
C30	C	0.467733	-0.293493	-0.413662
C31	C	0.502555	-0.332930	-0.374078
C32	C	0.976573	-0.496369	-0.401274
C33	C	0.973123	-0.574718	-0.404476
C34	C	1.018447	-0.607686	-0.362952
C35	C	1.015205	-0.681304	-0.365968
C36	C	0.966636	-0.721952	-0.410505
C37	C	0.921311	-0.688979	-0.452033
C38	C	0.924556	-0.615363	-0.449020
C39	C	0.954492	-0.944419	-0.421758
C40	C	0.951249	-1.018040	-0.424766
C41	C	1.045145	-1.010360	-0.338702
C42	C	1.048383	-0.936743	-0.335690
C43	C	1.003060	-0.903776	-0.377221
C44	C	0.963321	-0.797202	-0.413587
C45	C	1.006380	-0.828528	-0.374142
C46	C	1.167982	-0.305760	-0.401387
C47	C	1.246048	-0.302581	-0.404600
C48	C	0.976652	-0.321329	-0.577035
C49	C	0.973186	-0.324784	-0.655099
C50	C	0.993051	-0.129360	-0.386412
C51	C	0.996573	-0.051009	-0.383242
C52	C	0.951229	-0.346716	-1.096608
C53	C	0.954484	-0.343459	-1.023259
C54	C	1.003058	-0.294925	-0.986613
C55	C	1.048375	-0.249639	-1.023320
C56	C	1.045117	-0.252893	-1.096667
C57	C	1.015244	-0.282752	-0.765152
C58	C	1.018501	-0.279503	-0.691800
C59	C	0.924608	-0.373322	-0.691745
C60	C	0.921357	-0.376575	-0.765094
C61	C	0.966671	-0.331286	-0.801793
C62	C	1.006388	-0.291597	-0.911639
C63	C	0.963337	-0.334612	-0.876766
C64	C	0.992933	-0.305094	-0.211375
C65	C	0.996544	-0.301435	-0.133310
H66	H	0.717472	-0.246079	-0.461182
H67	H	0.252817	-0.380352	-0.326566
H68	H	1.087923	-0.210118	-0.993477
O69	O	1.089209	-0.208878	-1.132215
C70	C	1.132769	-0.165330	-1.084143
H71	H	1.136227	-0.191786	-1.033124
H72	H	1.187502	-0.156497	-1.107311
H73	H	1.109802	-0.112495	-1.073121
O74	O	1.059177	-0.713464	-0.325695
C75	C	1.019445	-0.755781	-0.280394
H76	H	0.964569	-0.770059	-0.303295
H77	H	1.046203	-0.805971	-0.274450
H78	H	1.015433	-0.725534	-0.226809
H79	H	0.881803	-0.416097	-0.794926
O80	O	0.503363	-0.250150	-0.456978
C81	C	0.489244	-0.179929	-0.438187
H82	H	0.471720	-0.174613	-0.381114
H83	H	0.538772	-0.143411	-0.444862
H84	H	0.445825	-0.164979	-0.473391
O85	O	0.880692	-0.417335	-0.656018
C86	C	0.920518	-0.459366	-0.617088
H87	H	0.975352	-0.431852	-0.607292
H88	H	0.893779	-0.467686	-0.564711
H89	H	0.924626	-0.512546	-0.647780
O90	O	0.916060	-0.381685	-0.912323
C91	C	0.847545	-0.368352	-0.890889
H92	H	0.847421	-0.311291	-0.868302
H93	H	0.810435	-0.377974	-0.937946
H94	H	0.829376	-0.405009	-0.849088
H95	H	0.385992	-0.218795	-0.488628
H96	H	1.082045	-1.037210	-0.304891
H97	H	0.584403	-0.251531	-0.455742
H98	H	0.881768	-0.722081	-0.488299
O99	O	0.247253	-0.217704	-0.489809
C100	C	0.295377	-0.177752	-0.529864
H101	H	0.346269	-0.204593	-0.535558
H102	H	0.272070	-0.173639	-0.584044
H103	H	0.306707	-0.122721	-0.502382
H104	H	0.923774	-0.830306	-0.449847
H105	H	1.045939	-0.252081	-0.881794
H106	H	0.911678	-0.386240	-1.126441
O107	O	0.904051	-1.057422	-0.468097
C108	C	0.864732	-1.012540	-0.504097
H109	H	0.895702	-0.958973	-0.505587
H110	H	0.853810	-1.036552	-0.559986
H111	H	0.812893	-1.005802	-0.475830
O112	O	0.466865	-0.376257	-0.330794
C113	C	0.420620	-0.425336	-0.370822
H114	H	0.440088	-0.431317	-0.427213
H115	H	0.418482	-0.478452	-0.347498
H116	H	0.365896	-0.405926	-0.370123
O117	O	0.880458	-0.583447	-0.489382
C118	C	0.836907	-0.635108	-0.529352
H119	H	0.833455	-0.686423	-0.502630
H120	H	0.782170	-0.616465	-0.533661
H121	H	0.859877	-0.644211	-0.584085
O122	O	0.910437	-0.912317	-0.461990
C123	C	0.868749	-0.869880	-0.418359
H124	H	0.896415	-0.855488	-0.365726
H125	H	0.860324	-0.819758	-0.444451
H126	H	0.815797	-0.900077	-0.409619
H127	H	1.045927	-0.795430	-0.337883
H128	H	0.917591	-0.380339	-0.993381
H129	H	1.058056	-0.239976	-0.661965
H130	H	1.057993	-0.574595	-0.326683
H131	H	1.087932	-0.903648	-0.299425
H132	H	1.052146	-0.245878	-0.795025
H133	H	0.717378	-0.402181	-0.304556
O134	O	0.391539	-0.381484	-0.325432
C135	C	0.343415	-0.421412	-0.285356
H136	H	0.289747	-0.427316	-0.312085
H137	H	0.362462	-0.475734	-0.280887
H138	H	0.339122	-0.393474	-0.230690
O139	O	0.578638	-0.414638	-0.292030
C140	C	0.626714	-0.450649	-0.255908
H141	H	0.680399	-0.419526	-0.254494
H142	H	0.607632	-0.456495	-0.199993
H143	H	0.630985	-0.505042	-0.284026
