data_functionalizedCrystal
_audit_creation_method	'MofGen! by Chris Wilmer'
_symmetry_space_group_name_H-M	'P1'
_symmetry_Int_Tables_number	1
_symmetry_cell_setting	triclinic
loop_
_symmetry_equiv_pos_as_xyz
  x,y,z
_cell_length_a	13.032831
_cell_length_b	18.101397
_cell_length_c	13.032268
_cell_angle_alpha	82.856580
_cell_angle_beta	89.113023
_cell_angle_gamma	82.824609
loop_
_atom_site_label
_atom_site_type_symbol
_atom_site_fract_x
_atom_site_fract_y
_atom_site_fract_z
Zn1	Zn	1.498456	-0.500126	0.780762
Zn2	Zn	1.520193	-0.610462	0.608766
Zn3	Zn	1.348316	-0.469189	0.587007
Zn4	Zn	1.326441	-0.606458	0.758892
O5	O	1.423351	-0.546559	0.683857
O6	O	1.645259	-0.529385	0.776205
O7	O	1.515645	-0.580451	0.461964
O8	O	1.368289	-0.369670	0.612756
O9	O	1.661229	-0.610448	0.649840
O10	O	1.478597	-0.392398	0.755107
O11	O	1.389367	-0.476658	0.445979
O12	O	1.201494	-0.472776	0.591549
O13	O	1.331008	-0.603624	0.905708
O14	O	1.185423	-0.573626	0.717832
O15	O	1.457386	-0.525502	0.921776
O16	O	1.494434	-0.713554	0.628633
O17	O	1.352085	-0.710613	0.738930
C18	C	1.156142	-0.519410	0.649957
C19	C	1.041825	-0.507816	0.635479
C20	C	0.982947	-0.552610	0.691413
C21	C	0.864794	-0.540628	0.676450
C22	C	1.423270	-0.738956	0.683796
C23	C	1.423324	-0.821277	0.683816
C24	C	1.423444	-1.120389	0.683926
C25	C	1.512811	-1.090844	0.614290
C26	C	1.513059	-1.005270	0.614531
C27	C	1.423385	-0.971996	0.683871
C28	C	1.438993	-1.014495	0.795995
C29	C	1.439662	-1.100168	0.795638
C30	C	1.318137	-1.075666	0.642350
C31	C	1.318982	-0.989882	0.639999
C32	C	1.423349	-0.888131	0.683846
C33	C	1.423481	-1.204255	0.683959
C34	C	1.691604	-0.573814	0.717889
C35	C	1.805918	-0.585428	0.732392
C36	C	1.389332	-0.567567	0.952101
C37	C	1.374835	-0.576520	1.066410
C38	C	1.423458	-0.353414	0.683944
C39	C	1.423504	-0.271108	0.683981
C40	C	1.457297	-0.525584	0.416664
C41	C	1.471994	-0.516443	0.302380
C42	C	1.430901	-0.541858	1.125323
C43	C	1.415919	-0.551110	1.243469
H44	H	1.004760	-0.460592	0.576519
O45	O	1.364512	-1.124082	0.860459
C46	C	1.364417	-1.201993	0.860780
H47	H	1.401020	-1.219781	0.786256
H48	H	1.281460	-1.215971	0.866444
H49	H	1.410692	-1.233226	0.929896
H50	H	1.531084	-0.479911	1.265356
O51	O	1.501274	-0.498226	1.081026
C52	C	1.450569	-0.439606	1.011496
H53	H	1.374624	-0.456558	0.985611
H54	H	1.501981	-0.428066	0.941227
H55	H	1.434102	-0.386795	1.051424
O56	O	1.304480	-0.620195	1.110638
C57	C	1.355184	-0.678791	1.180205
H58	H	1.440267	-0.689069	1.158041
H59	H	1.317793	-0.732104	1.176784
H60	H	1.348491	-0.662583	1.262042
O61	O	1.027261	-0.608859	0.761823
C62	C	1.080973	-0.578238	0.836185
H63	H	1.101549	-0.520855	0.802067
H64	H	1.154821	-0.617100	0.859392
H65	H	1.029983	-0.571999	0.907224
O66	O	0.850051	-0.641697	0.802885
C67	C	0.810873	-0.631035	0.902133
H68	H	0.780615	-0.569318	0.903755
H69	H	0.875137	-0.648569	0.961818
H70	H	0.745189	-0.666594	0.921080
H71	H	1.249930	-0.966400	0.685898
O72	O	1.503182	-0.970582	0.515833
C73	C	1.409390	-0.984253	0.473646
H74	H	1.383701	-1.037510	0.516965
H75	H	1.421026	-0.991492	0.388428
H76	H	1.347602	-0.934812	0.481433
O77	O	0.820431	-0.484351	0.606102
C78	C	0.712338	-0.484912	0.606828
H79	H	0.693508	-0.543257	0.638549
H80	H	0.681192	-0.469664	0.524660
H81	H	0.674907	-0.442268	0.657860
O82	O	1.503249	-1.105808	0.515422
C83	C	1.415553	-1.143191	0.507713
H84	H	1.395942	-1.171828	0.587244
H85	H	1.432542	-1.187116	0.452159
H86	H	1.347265	-1.100859	0.477503
H87	H	1.375295	-0.993239	0.849868
O88	O	1.605632	-1.127920	0.648238
C89	C	1.590158	-1.180483	0.734625
H90	H	1.513331	-1.162697	0.772945
H91	H	1.655751	-1.183094	0.792334
H92	H	1.588881	-1.238159	0.708454
O93	O	1.606534	-0.992330	0.648544
C94	C	1.684957	-1.019677	0.582284
H95	H	1.656514	-1.064823	0.540195
H96	H	1.756532	-1.044649	0.629715
H97	H	1.705240	-0.971672	0.523365
H98	H	1.514617	-1.002853	0.829895
O99	O	1.530914	-1.135819	0.835894
C100	C	1.511582	-1.185370	0.924378
H101	H	1.432750	-1.166254	0.957779
H102	H	1.574061	-1.185514	0.984689
H103	H	1.512304	-1.244407	0.902218
O104	O	1.298065	-1.091122	0.545697
C105	C	1.292030	-1.168558	0.548244
H106	H	1.336388	-1.200423	0.618167
H107	H	1.327247	-1.188785	0.474523
H108	H	1.207579	-1.179083	0.554100
H109	H	1.356817	-0.587632	1.280492
H110	H	1.306963	-0.961112	0.557417
H111	H	1.251721	-1.094492	0.692902
