data_functionalizedCrystal
_audit_creation_method	'MofGen! by Chris Wilmer'
_symmetry_space_group_name_H-M	'P1'
_symmetry_Int_Tables_number	1
_symmetry_cell_setting	triclinic
loop_
_symmetry_equiv_pos_as_xyz
  x,y,z
_cell_length_a	8.634740
_cell_length_b	8.597304
_cell_length_c	15.186229
_cell_angle_alpha	82.296375
_cell_angle_beta	89.996933
_cell_angle_gamma	92.879752
loop_
_atom_site_label
_atom_site_type_symbol
_atom_site_fract_x
_atom_site_fract_y
_atom_site_fract_z
O1	O	2.053792	0.512864	-0.112135
O2	O	1.604191	0.469858	-0.108874
O3	O	1.837839	0.264232	-0.093271
O4	O	1.820144	0.718490	-0.127739
O5	O	1.837823	0.264226	0.053187
O6	O	1.604176	0.469852	0.037584
O7	O	2.053776	0.512858	0.034322
Zn8	Zn	1.828973	0.491354	0.059206
Zn9	Zn	1.828994	0.491362	-0.133758
O10	O	1.820128	0.718484	0.018719
C11	C	1.546586	0.460113	-0.034906
C12	C	1.374965	0.431065	-0.032703
C13	C	1.835931	0.205470	-0.015585
C14	C	1.830249	0.030384	-0.002306
C15	C	2.111381	0.522604	-0.039647
C16	C	2.283002	0.551652	-0.041856
C17	C	1.822037	0.777246	-0.058968
C18	C	1.827719	0.952332	-0.072254
N19	N	1.828970	0.491350	0.190899
N20	N	1.829009	0.491356	-0.265450
C21	C	1.932466	0.400340	0.423528
C22	C	1.932471	0.400337	0.515718
C23	C	1.725503	0.582369	0.501914
C24	C	1.725491	0.582362	0.409727
C25	C	1.828982	0.491351	0.370536
C26	C	1.828998	0.491355	0.554913
C27	C	1.829002	0.491352	0.654870
C28	C	1.828976	0.491351	0.270573
H29	H	1.829896	0.019454	-0.142304
O30	O	1.827413	-0.049858	0.081230
C31	C	1.690791	-0.147393	0.093350
H32	H	1.645501	-0.172691	0.025935
H33	H	1.717035	-0.262609	0.135808
H34	H	1.599361	-0.085753	0.128107
H35	H	2.016732	0.326231	0.391622
O36	O	2.033066	0.312158	0.567274
C37	C	2.129708	0.410878	0.613086
H38	H	2.070006	0.524626	0.618270
H39	H	2.153177	0.348930	0.682612
H40	H	2.244088	0.438906	0.575424
O41	O	1.625136	0.670748	0.540125
C42	C	1.647310	0.651214	0.632858
H43	H	1.769298	0.611069	0.648487
H44	H	1.631918	0.767737	0.659048
H45	H	1.558647	0.559046	0.666023
O46	O	1.312520	0.281276	-0.021303
C47	C	1.432479	0.174994	-0.013259
H48	H	1.542720	0.235506	0.009883
H49	H	1.397124	0.068865	0.037311
H50	H	1.454593	0.134670	-0.080462
O51	O	1.345950	0.701235	-0.053247
C52	C	1.509038	0.697914	-0.052967
H53	H	1.544894	0.580822	-0.071802
H54	H	1.560068	0.797963	-0.103082
H55	H	1.554028	0.712271	0.016207
O56	O	1.624906	0.670921	0.358369
C57	C	1.533548	0.751231	0.412727
H58	H	1.596943	0.762638	0.477573
H59	H	1.511858	0.873272	0.376824
H60	H	1.417972	0.682728	0.427740
