data_functionalizedCrystal
_audit_creation_method	'MofGen! by Chris Wilmer'
_symmetry_space_group_name_H-M	'P1'
_symmetry_Int_Tables_number	1
_symmetry_cell_setting	triclinic
loop_
_symmetry_equiv_pos_as_xyz
  x,y,z
_cell_length_a	13.897449
_cell_length_b	21.295417
_cell_length_c	13.897441
_cell_angle_alpha	89.963577
_cell_angle_beta	89.976606
_cell_angle_gamma	90.031333
loop_
_atom_site_label
_atom_site_type_symbol
_atom_site_fract_x
_atom_site_fract_y
_atom_site_fract_z
Zn1	Zn	1.474617	-0.250575	-0.545411
Zn2	Zn	1.807950	0.082758	-0.212077
Zn3	Zn	2.141283	0.416091	0.121256
Zn4	Zn	1.474475	-0.355854	-0.384096
Zn5	Zn	1.807808	-0.022521	-0.050762
Zn6	Zn	2.141141	0.310812	0.282571
Zn7	Zn	1.313306	-0.250604	-0.384121
Zn8	Zn	1.646639	0.082729	-0.050788
Zn9	Zn	1.979973	0.416062	0.282545
Zn10	Zn	1.313252	-0.355812	-0.545341
Zn11	Zn	1.646585	-0.022479	-0.212007
Zn12	Zn	1.979918	0.310855	0.121326
O13	O	1.393912	-0.303211	-0.464742
O14	O	1.727246	0.030122	-0.131409
O15	O	2.060579	0.363455	0.201925
O16	O	1.609580	-0.264546	-0.524030
O17	O	1.942913	0.068787	-0.190697
O18	O	2.276246	0.402120	0.142636
O19	O	1.453059	-0.341922	-0.249117
O20	O	1.786392	-0.008589	0.084216
O21	O	2.119725	0.324744	0.417549
O22	O	1.334786	-0.162511	-0.405557
O23	O	1.668120	0.170822	-0.072224
O24	O	2.001453	0.504156	0.261110
O25	O	1.609475	-0.341894	-0.405513
O26	O	1.942808	-0.008561	-0.072179
O27	O	2.276142	0.324772	0.261154
O28	O	1.453301	-0.162490	-0.524055
O29	O	1.786634	0.170844	-0.190722
O30	O	2.119967	0.504177	0.142611
O31	O	1.334649	-0.264596	-0.249136
O32	O	1.667982	0.068737	0.084197
O33	O	2.001315	0.402071	0.417530
O34	O	1.178317	-0.264555	-0.405489
O35	O	1.511650	0.068778	-0.072156
O36	O	1.844984	0.402112	0.261178
O37	O	1.334694	-0.341822	-0.680332
O38	O	1.668027	-0.008489	-0.346998
O39	O	2.001360	0.324844	-0.013665
O40	O	1.178277	-0.341851	-0.523936
O41	O	1.511610	-0.008517	-0.190603
O42	O	1.844944	0.324816	0.142730
O43	O	1.453248	-0.264505	-0.680383
O44	O	1.786581	0.068828	-0.347050
O45	O	2.119915	0.402161	-0.013716
O46	O	1.453006	-0.443938	-0.405445
O47	O	1.786339	-0.110605	-0.072112
O48	O	2.119673	0.222729	0.261222
O49	O	1.334556	-0.443907	-0.523911
O50	O	1.667889	-0.110574	-0.190578
O51	O	2.001223	0.222760	0.142756
C52	C	1.143298	-0.303202	-0.464708
C53	C	1.476631	0.030132	-0.131375
C54	C	1.809965	0.363465	0.201958
C55	C	1.036084	-0.303213	-0.464717
C56	C	1.369417	0.030121	-0.131384
C57	C	1.702751	0.363454	0.201950
C58	C	1.393786	-0.466763	-0.464689
C59	C	1.727119	-0.133430	-0.131355
C60	C	2.060452	0.199904	0.201978
C61	C	1.393820	-0.536731	-0.464698
C62	C	1.727153	-0.203398	-0.131365
C63	C	2.060487	0.129935	0.201969
C64	C	0.949014	-0.303215	-0.464733
C65	C	1.282348	0.030118	-0.131400
C66	C	1.615681	0.363452	0.201934
C67	C	0.839782	-0.303219	-0.464762
C68	C	1.173115	0.030114	-0.131429
C69	C	1.506448	0.363447	0.201904
C70	C	1.455552	-0.569593	-0.403076
C71	C	1.788885	-0.236260	-0.069743
C72	C	2.122218	0.097074	0.263591
C73	C	1.455597	-0.635336	-0.403098
C74	C	1.788930	-0.302002	-0.069764
C75	C	2.122263	0.031331	0.263569
C76	C	1.393893	-0.668214	-0.464731
C77	C	1.727226	-0.334880	-0.131398
C78	C	2.060560	-0.001547	0.201935
C79	C	1.332157	-0.635344	-0.526365
C80	C	1.665490	-0.302011	-0.193032
C81	C	1.998824	0.031323	0.140301
C82	C	1.332120	-0.569603	-0.526349
C83	C	1.665454	-0.236269	-0.193015
C84	C	1.998787	0.097064	0.140318
N85	N	1.309512	-0.771480	-0.472074
N86	N	1.642845	-0.438147	-0.138740
N87	N	1.976179	-0.104813	0.194593
N88	N	1.309550	-0.833931	-0.472084
N89	N	1.642883	-0.500598	-0.138750
N90	N	1.976216	-0.167265	0.194583
C91	C	1.394001	-0.866288	-0.464787
C92	C	1.727334	-0.532955	-0.131453
C93	C	2.060668	-0.199622	0.201880
N94	N	1.478416	-0.833835	-0.457460
N95	N	1.811749	-0.500501	-0.124127
N96	N	2.145082	-0.167168	0.209206
N97	N	1.478377	-0.771378	-0.457445
N98	N	1.811710	-0.438044	-0.124112
N99	N	2.145044	-0.104711	0.209222
C100	C	1.393926	-0.739499	-0.464757
C101	C	1.727260	-0.406166	-0.131423
C102	C	2.060593	-0.072832	0.201910
C103	C	1.455787	-0.970436	-0.403185
C104	C	1.789120	-0.637102	-0.069851
C105	C	2.122454	-0.303769	0.263482
C106	C	1.455834	-1.036179	-0.403213
C107	C	1.789167	-0.702846	-0.069880
C108	C	2.122501	-0.369513	0.263453
C109	C	1.332386	-1.036187	-0.526476
C110	C	1.665719	-0.702853	-0.193143
C111	C	1.999052	-0.369520	0.140191
C112	C	1.332347	-0.970444	-0.526453
C113	C	1.665681	-0.637111	-0.193119
C114	C	1.999014	-0.303777	0.140214
C115	C	1.394047	-0.937573	-0.464802
C116	C	1.727380	-0.604239	-0.131468
C117	C	2.060713	-0.270906	0.201865
C118	C	1.645505	-0.303222	-0.464776
C119	C	1.978838	0.030112	-0.131443
C120	C	2.312172	0.363445	0.201890
C121	C	1.752719	-0.303226	-0.464791
C122	C	2.086052	0.030107	-0.131458
C123	C	2.419386	0.363441	0.201876
C124	C	1.393981	-0.303156	-0.716335
C125	C	1.727314	0.030178	-0.383002
C126	C	2.060647	0.363511	-0.049669
C127	C	1.394010	-0.303132	-0.823549
C128	C	1.727343	0.030201	-0.490216
C129	C	2.060676	0.363535	-0.156883
C130	C	1.394065	-0.139021	-0.464817
C131	C	1.727399	0.194312	-0.131483
C132	C	2.060732	0.527646	0.201850
C133	C	1.394131	-0.069053	-0.464849
C134	C	1.727464	0.264280	-0.131515
C135	C	2.060797	0.597614	0.201818
C136	C	1.394036	-0.303090	-1.019845
C137	C	1.727369	0.030244	-0.686511
C138	C	2.060703	0.363577	-0.353178
C139	C	1.394018	-0.303115	-0.910612
C140	C	1.727352	0.030218	-0.577279
C141	C	2.060685	0.363552	-0.243945
C142	C	1.393900	-0.303221	-0.214128
C143	C	1.727233	0.030112	0.119206
C144	C	2.060566	0.363445	0.452539
C145	C	1.394057	-0.303068	-0.106914
C146	C	1.727391	0.030265	0.226419
C147	C	2.060724	0.363599	0.559752
H148	H	1.505793	-0.542831	-0.352879
H149	H	1.839127	-0.209498	-0.019545
H150	H	2.172460	0.123836	0.313788
H151	H	1.505870	-0.662097	-0.352918
H152	H	1.839203	-0.328764	-0.019585
H153	H	2.172536	0.004570	0.313749
Cl154	Cl	1.533350	-0.929109	-0.325682
Cl155	Cl	1.866683	-0.595775	0.007651
Cl156	Cl	2.200016	-0.262442	0.340984
Cl157	Cl	1.533454	-1.077492	-0.325745
Cl158	Cl	1.866787	-0.744159	0.007588
Cl159	Cl	2.200121	-0.410826	0.340922
H160	H	1.282149	-1.062955	-0.576664
H161	H	1.615483	-0.729622	-0.243330
H162	H	1.948816	-0.396289	0.090003
Cl163	Cl	1.254507	-0.528288	-0.603822
Cl164	Cl	1.587841	-0.194955	-0.270489
Cl165	Cl	1.921174	0.138378	0.062844
H166	H	1.281919	-0.662117	-0.576550
H167	H	1.615253	-0.328784	-0.243216
H168	H	1.948586	0.004549	0.090117
H169	H	1.282075	-0.943686	-0.576627
H170	H	1.615409	-0.610353	-0.243294
H171	H	1.948742	-0.277019	0.090040
