data_functionalizedCrystal
_audit_creation_method	'MofGen! by Chris Wilmer'
_symmetry_space_group_name_H-M	'P1'
_symmetry_Int_Tables_number	1
_symmetry_cell_setting	triclinic
loop_
_symmetry_equiv_pos_as_xyz
  x,y,z
_cell_length_a	17.640112
_cell_length_b	13.897447
_cell_length_c	17.640968
_cell_angle_alpha	78.769972
_cell_angle_beta	92.139080
_cell_angle_gamma	101.244075
loop_
_atom_site_label
_atom_site_type_symbol
_atom_site_fract_x
_atom_site_fract_y
_atom_site_fract_z
Zn1	Zn	1.247780	-0.027714	-0.195081
Zn2	Zn	1.581113	0.305619	0.138253
Zn3	Zn	1.914446	0.638952	0.471586
Zn4	Zn	1.222020	-0.226719	-0.068102
Zn5	Zn	1.555353	0.106614	0.265231
Zn6	Zn	1.888686	0.439947	0.598565
Zn7	Zn	1.095115	-0.090459	-0.093728
Zn8	Zn	1.428448	0.242874	0.239606
Zn9	Zn	1.761781	0.576208	0.572939
Zn10	Zn	1.120760	-0.214022	-0.220684
Zn11	Zn	1.454093	0.119311	0.112650
Zn12	Zn	1.787427	0.452644	0.445983
O13	O	1.171418	-0.139729	-0.144399
O14	O	1.504752	0.193605	0.188935
O15	O	1.838085	0.526938	0.522268
O16	O	1.350631	-0.033168	-0.156797
O17	O	1.683964	0.300166	0.176536
O18	O	2.017297	0.633499	0.509870
O19	O	1.183672	-0.240217	0.034771
O20	O	1.517005	0.093117	0.368104
O21	O	1.850339	0.426450	0.701438
O22	O	1.115414	0.052860	-0.107182
O23	O	1.448747	0.386193	0.226151
O24	O	1.782081	0.719527	0.559485
O25	O	1.331705	-0.179376	-0.063506
O26	O	1.665038	0.153958	0.269827
O27	O	1.998372	0.487291	0.603160
O28	O	1.227576	0.098958	-0.181645
O29	O	1.560910	0.432291	0.151688
O30	O	1.894243	0.765625	0.485021
O31	O	1.090436	-0.140107	0.015944
O32	O	1.423769	0.193227	0.349277
O33	O	1.757102	0.526560	0.682611
O34	O	0.992248	-0.127795	-0.132008
O35	O	1.325582	0.205538	0.201325
O36	O	1.658915	0.538872	0.534658
O37	O	1.159123	-0.157736	-0.323560
O38	O	1.492456	0.175598	0.009773
O39	O	1.825789	0.508931	0.343107
O40	O	1.011090	-0.218577	-0.225282
O41	O	1.344423	0.114757	0.108051
O42	O	1.677756	0.448090	0.441384
O43	O	1.252443	-0.020856	-0.304749
O44	O	1.585777	0.312477	0.028584
O45	O	1.919110	0.645811	0.361917
O46	O	1.208539	-0.360031	-0.088333
O47	O	1.541873	-0.026697	0.245000
O48	O	1.875206	0.306636	0.578334
O49	O	1.134144	-0.350702	-0.200434
O50	O	1.467477	-0.017369	0.132899
O51	O	1.800811	0.315964	0.466233
C52	C	0.974115	-0.178617	-0.184205
C53	C	1.307448	0.154716	0.149129
C54	C	1.640782	0.488049	0.482462
C55	C	0.889711	-0.195272	-0.201252
C56	C	1.223045	0.138062	0.132081
C57	C	1.556378	0.471395	0.465415
C58	C	0.563040	-0.013187	-0.014898
C59	C	0.896373	0.320146	0.318435
C60	C	1.229706	0.653479	0.651768
C61	C	0.483732	-0.028853	-0.030927
C62	C	0.817065	0.304480	0.302406
C63	C	1.150398	0.637813	0.635740
C64	C	0.503372	-0.123604	-0.127886
C65	C	0.836705	0.209730	0.205448
C66	C	1.170038	0.543063	0.538781
C67	C	0.582684	-0.107942	-0.111868
C68	C	0.916017	0.225392	0.221466
C69	C	1.249350	0.558725	0.554799
C70	C	0.612511	-0.052734	-0.055373
C71	C	0.945844	0.280600	0.277961
C72	C	1.279177	0.613933	0.611294
C73	C	0.632155	-0.147488	-0.152342
C74	C	0.965488	0.185846	0.180991
C75	C	1.298821	0.519179	0.514325
C76	C	0.711459	-0.131831	-0.136322
C77	C	1.044792	0.201502	0.197011
C78	C	1.378126	0.534836	0.530344
C79	C	0.741292	-0.076628	-0.079828
C80	C	1.074625	0.256705	0.253505
C81	C	1.407959	0.590038	0.586839
C82	C	0.691815	-0.037077	-0.039353
C83	C	1.025148	0.296256	0.293981
C84	C	1.358482	0.629590	0.627314
C85	C	0.602325	-0.202701	-0.208833
C86	C	0.935658	0.130632	0.124500
C87	C	1.268992	0.463965	0.457834
C88	C	0.651796	-0.242247	-0.249307
C89	C	0.985129	0.091086	0.084026
C90	C	1.318463	0.424419	0.417359
C91	C	0.731103	-0.226585	-0.233292
C92	C	1.064436	0.106748	0.100042
C93	C	1.397769	0.440082	0.433375
C94	C	0.760936	-0.171382	-0.176798
C95	C	1.094269	0.161951	0.156536
C96	C	1.427603	0.495284	0.489869
C97	C	0.780580	-0.266136	-0.273767
C98	C	1.113913	0.067197	0.059566
C99	C	1.447246	0.400530	0.392900
C100	C	0.859884	-0.250480	-0.257747
C101	C	1.193217	0.082854	0.075586
C102	C	1.526551	0.416187	0.408919
C103	C	0.840240	-0.155726	-0.160778
C104	C	1.173574	0.177608	0.172556
C105	C	1.506907	0.510941	0.505889
C106	C	1.171353	-0.390361	-0.144393
C107	C	1.504686	-0.057027	0.188940
C108	C	1.838020	0.276306	0.522273
C109	C	1.171400	-0.497561	-0.144403
C110	C	1.504733	-0.164227	0.188931
C111	C	1.838066	0.169106	0.522264
C112	C	1.171440	-0.584618	-0.144412
C113	C	1.504773	-0.251285	0.188921
C114	C	1.838107	0.082049	0.522254
C115	C	1.171497	-0.693834	-0.144421
C116	C	1.504831	-0.360501	0.188912
C117	C	1.838164	-0.027168	0.522245
C118	C	1.369492	-0.100689	-0.104437
C119	C	1.702826	0.232644	0.228896
C120	C	2.036159	0.565978	0.562229
C121	C	1.453900	-0.084053	-0.087408
C122	C	1.787233	0.249281	0.245925
C123	C	2.120567	0.582614	0.579258
C124	C	1.211517	-0.080881	-0.342480
C125	C	1.544850	0.252453	-0.009147
C126	C	1.878184	0.585786	0.324186
C127	C	1.228605	-0.055803	-0.426891
C128	C	1.561938	0.277530	-0.093558
C129	C	1.895271	0.610864	0.239776
C130	C	1.171508	0.111891	-0.144416
C131	C	1.504841	0.445224	0.188917
C132	C	1.838175	0.778557	0.522251
C133	C	1.171546	0.219116	-0.144424
C134	C	1.504880	0.552449	0.188910
C135	C	1.838213	0.885783	0.522243
C136	C	1.041897	-0.329658	-0.753469
C137	C	1.375230	0.003675	-0.420136
C138	C	1.708564	0.337009	-0.086803
C139	C	1.057969	-0.306078	-0.832783
C140	C	1.391303	0.027255	-0.499449
C141	C	1.724636	0.360588	-0.166116
C142	C	1.155136	-0.163558	-0.813187
C143	C	1.488469	0.169775	-0.479853
C144	C	1.821803	0.503109	-0.146520
C145	C	1.139069	-0.187123	-0.733870
C146	C	1.472403	0.146211	-0.400537
C147	C	1.805736	0.479544	-0.067204
C148	C	1.082449	-0.270175	-0.704018
C149	C	1.415783	0.063159	-0.370685
C150	C	1.749116	0.396492	-0.037352
C151	C	1.179622	-0.127639	-0.684419
C152	C	1.512955	0.205694	-0.351086
C153	C	1.846288	0.539027	-0.017753
C154	C	1.163559	-0.151206	-0.605110
C155	C	1.496892	0.182128	-0.271776
C156	C	1.830225	0.515461	0.061557
C157	C	1.106943	-0.234255	-0.575251
C158	C	1.440276	0.099078	-0.241917
C159	C	1.773610	0.432411	0.091416
C160	C	1.066386	-0.293741	-0.624709
C161	C	1.399720	0.039592	-0.291375
C162	C	1.733053	0.372926	0.041958
C163	C	1.236245	-0.044592	-0.714272
C164	C	1.569578	0.288741	-0.380939
C165	C	1.902912	0.622075	-0.047605
C166	C	1.276797	0.014891	-0.664821
C167	C	1.610131	0.348225	-0.331488
C168	C	1.943464	0.681558	0.001846
C169	C	1.260731	-0.008670	-0.585511
C170	C	1.594064	0.324663	-0.252177
C171	C	1.927398	0.657996	0.081156
C172	C	1.204115	-0.091720	-0.555652
C173	C	1.537449	0.241613	-0.222318
C174	C	1.870782	0.574947	0.111015
C175	C	1.301288	0.050815	-0.536053
C176	C	1.634621	0.384149	-0.202719
C177	C	1.967954	0.717482	0.130614
C178	C	1.285224	0.027249	-0.456743
C179	C	1.618558	0.360582	-0.123410
C180	C	1.951891	0.693916	0.209924
C181	C	1.188052	-0.115286	-0.476342
C182	C	1.521386	0.218047	-0.143009
C183	C	1.854719	0.551380	0.190325
C184	C	1.131520	-0.198270	0.052921
C185	C	1.464853	0.135064	0.386255
C186	C	1.798186	0.468397	0.719588
C187	C	1.114579	-0.223046	0.137361
C188	C	1.447912	0.110287	0.470695
C189	C	1.781246	0.443620	0.804028
H190	H	0.805867	-0.063884	-0.066784
H191	H	1.139200	0.269449	0.266549
H192	H	1.472534	0.602783	0.599882
H193	H	0.443455	0.003362	0.002031
H194	H	0.776788	0.336696	0.335364
H195	H	1.110121	0.670029	0.668698
Cl196	Cl	1.006980	-0.380865	-0.894949
Cl197	Cl	1.340313	-0.047532	-0.561616
Cl198	Cl	1.673646	0.285802	-0.228283
Cl199	Cl	1.116865	-0.219689	-0.438809
Cl200	Cl	1.450198	0.113644	-0.105476
Cl201	Cl	1.783532	0.446977	0.227858
H202	H	0.537750	-0.215447	-0.221874
H203	H	0.871083	0.117886	0.111459
H204	H	1.204416	0.451219	0.444792
H205	H	0.995773	-0.397268	-0.729166
H206	H	1.329107	-0.063934	-0.395833
H207	H	1.662440	0.269399	-0.062500
H208	H	1.201238	-0.095939	-0.837503
H209	H	1.534571	0.237394	-0.504170
H210	H	1.867905	0.570727	-0.170836
Cl211	Cl	0.877744	-0.086312	-0.089759
Cl212	Cl	1.211078	0.247021	0.243574
Cl213	Cl	1.544411	0.580355	0.576908
Cl214	Cl	1.336208	0.102026	-0.394571
Cl215	Cl	1.669541	0.435359	-0.061238
Cl216	Cl	2.002874	0.768693	0.272095
H217	H	0.716104	0.007896	0.006640
H218	H	1.049437	0.341230	0.339973
H219	H	1.382771	0.674563	0.673307
H220	H	1.093869	-0.253445	-0.510671
H221	H	1.427202	0.079889	-0.177337
H222	H	1.760535	0.413222	0.155996
H223	H	0.756281	-0.311095	-0.319760
H224	H	1.089614	0.022239	0.013574
H225	H	1.422948	0.355572	0.346907
H226	H	1.249323	-0.025409	-0.778852
H227	H	1.582657	0.307924	-0.445518
H228	H	1.915990	0.641258	-0.112185
H229	H	0.587329	0.031786	0.031094
H230	H	0.920662	0.365119	0.364428
H231	H	1.253995	0.698453	0.697761
Cl232	Cl	0.922080	-0.300198	-0.308628
Cl233	Cl	1.255413	0.033135	0.024706
Cl234	Cl	1.588747	0.366468	0.358039
Cl235	Cl	1.372472	0.155210	-0.573590
Cl236	Cl	1.705805	0.488543	-0.240256
Cl237	Cl	2.039138	0.821876	0.093077
Cl238	Cl	0.614289	-0.311663	-0.320318
Cl239	Cl	0.947622	0.021670	0.013015
Cl240	Cl	1.280956	0.355004	0.346348
H241	H	0.479075	-0.168557	-0.173882
H242	H	0.812408	0.164776	0.159451
H243	H	1.145741	0.498109	0.492785
Cl244	Cl	0.995199	-0.398144	-0.587175
Cl245	Cl	1.328533	-0.064811	-0.253842
Cl246	Cl	1.661866	0.268523	0.079491
Cl247	Cl	1.347976	0.119294	-0.702357
Cl248	Cl	1.681309	0.452627	-0.369024
Cl249	Cl	2.014642	0.785960	-0.035690
