data_functionalizedCrystal
_audit_creation_method	'MofGen! by Chris Wilmer'
_symmetry_space_group_name_H-M	'P1'
_symmetry_Int_Tables_number	1
_symmetry_cell_setting	triclinic
loop_
_symmetry_equiv_pos_as_xyz
  x,y,z
_cell_length_a	19.288867
_cell_length_b	17.699092
_cell_length_c	17.766277
_cell_angle_alpha	89.995315
_cell_angle_beta	89.992126
_cell_angle_gamma	83.211718
loop_
_atom_site_label
_atom_site_type_symbol
_atom_site_fract_x
_atom_site_fract_y
_atom_site_fract_z
O1	O	0.921466	0.094424	-0.062565
O2	O	0.719221	0.107159	-0.062572
O3	O	0.826055	-0.009405	-0.062567
O4	O	0.814633	0.210988	-0.062570
O5	O	0.826036	-0.009411	0.062622
O6	O	0.719203	0.107153	0.062616
O7	O	0.921448	0.094418	0.062623
Cu8	Cu	0.820323	0.100785	0.074051
Cu9	Cu	0.820346	0.100792	-0.073999
O10	O	0.814614	0.210983	0.062618
C11	C	0.693335	0.106746	0.000021
C12	C	0.616230	0.105515	0.000019
C13	C	0.060664	0.096653	-0.068213
C14	C	0.133113	0.097805	-0.068216
C15	C	0.169332	0.098381	0.000024
C16	C	0.133099	0.097786	0.068272
C17	C	0.060652	0.096626	0.068273
C18	C	0.278708	0.144545	0.052304
C19	C	0.351152	0.145709	0.052301
C20	C	0.392782	0.101954	0.000025
C21	C	0.361957	0.057045	-0.052261
C22	C	0.289511	0.055886	-0.052260
C23	C	0.247889	0.099638	0.000031
C24	C	0.507565	0.103793	-0.068222
C25	C	0.580016	0.104940	-0.068222
C26	C	0.579999	0.104929	0.068268
C27	C	0.507551	0.103774	0.068266
C28	C	0.471337	0.103210	0.000019
C29	C	0.825635	-0.037604	0.000026
C30	C	0.824405	-0.121620	0.000023
C31	C	0.823838	-0.161084	-0.068218
C32	C	0.822677	-0.240025	-0.068219
C33	C	0.822088	-0.279502	0.000022
C34	C	0.822652	-0.240033	0.068268
C35	C	0.823808	-0.161092	0.068268
C36	C	0.817990	-0.558392	0.068269
C37	C	0.816836	-0.637338	0.068264
C38	C	0.816859	-0.637324	-0.068218
C39	C	0.818015	-0.558384	-0.068218
C40	C	0.818575	-0.518921	0.000028
C41	C	0.819833	-0.433323	0.000028
C42	C	0.820835	-0.365099	0.000022
C43	C	0.947334	0.094831	0.000028
C44	C	1.024439	0.096062	0.000026
C45	C	0.815034	0.239182	0.000023
C46	C	0.816265	0.323198	0.000022
N47	N	0.820313	0.100780	0.178181
N48	N	0.820362	0.100792	-0.178130
C49	C	0.867634	0.049190	0.217570
C50	C	0.867638	0.049187	0.296372
C51	C	0.820328	0.100786	0.335782
C52	C	0.772998	0.152379	0.296383
C53	C	0.772990	0.152376	0.217582
C54	C	0.811112	0.169747	0.460618
C55	C	0.811124	0.169751	0.539417
C56	C	0.820346	0.100795	0.578828
C57	C	0.829570	0.031832	0.539430
C58	C	0.829563	0.031829	0.460630
C59	C	0.820330	0.100795	0.421227
C60	C	0.867674	0.049197	0.703663
C61	C	0.867673	0.049193	0.782466
C62	C	0.773036	0.152392	0.782476
C63	C	0.773034	0.152390	0.703674
C64	C	0.820356	0.100793	0.664272
H65	H	0.609510	0.105416	-0.123793
N66	N	0.818606	-0.515838	0.141875
H67	H	0.819426	-0.459839	0.131526
H68	H	0.775359	-0.523361	0.171674
N69	N	0.822023	-0.282609	0.141873
H70	H	0.821212	-0.338607	0.131519
H71	H	0.865266	-0.275087	0.171666
H72	H	0.906165	0.007176	0.185492
H73	H	0.734512	0.194402	0.814562
H74	H	0.609488	0.105396	0.123830
H75	H	0.478055	0.103296	0.123834
H76	H	0.734503	0.194402	0.671601
H77	H	0.734476	0.194391	0.328474
N78	N	0.824427	-0.118522	0.141869
H79	H	0.781866	-0.079489	0.144909
H80	H	0.823907	-0.155557	0.185059
N81	N	0.021576	0.095988	0.141877
H82	H	0.055574	0.096002	0.185107
H83	H	-0.013865	0.142682	0.145077
N84	N	0.824463	-0.118480	-0.141807
H85	H	0.867302	-0.138478	-0.171657
H86	H	0.781192	-0.125938	-0.171578
H87	H	0.906174	0.007175	0.328449
H88	H	0.822219	-0.272153	-0.123788
H89	H	0.906205	0.007182	0.671581
N90	N	0.818656	-0.515805	-0.141820
H91	H	0.818119	-0.552784	-0.185052
H92	H	0.776093	-0.476771	-0.144793
N93	N	0.816260	-0.679887	-0.141830
H94	H	0.773432	-0.659866	-0.171678
H95	H	0.859542	-0.672407	-0.171587
N96	N	0.801172	0.244128	0.581907
H97	H	0.795317	0.287811	0.544985
H98	H	0.758184	0.245820	0.614611
H99	H	0.734455	0.194387	0.185511
N100	N	0.839509	-0.042546	0.418135
H101	H	0.845353	-0.086232	0.455053
H102	H	0.797319	-0.046847	0.385453
N103	N	0.816201	-0.679920	0.141870
H104	H	0.816730	-0.642942	0.185104
H105	H	0.772681	-0.706395	0.144834
N106	N	0.839521	-0.042550	0.581925
H107	H	0.838123	-0.032087	0.637822
H108	H	0.800960	-0.073965	0.568161
H109	H	0.478079	0.103331	-0.123793
H110	H	0.906206	0.007179	0.814538
N111	N	0.384396	0.194150	0.108685
H112	H	0.347033	0.221686	0.141807
H113	H	0.418593	0.160624	0.140788
N114	N	0.233810	0.191737	0.108694
H115	H	0.264328	0.220366	0.141810
H116	H	0.199145	0.229124	0.081140
H117	H	0.803591	0.225904	0.428536
N118	N	0.021607	0.096034	-0.141819
H119	H	0.055554	0.096580	-0.185049
H120	H	-0.002737	0.048641	-0.144789
N121	N	0.172197	0.098441	-0.141819
H122	H	0.138263	0.097907	-0.185052
H123	H	0.196544	0.145833	-0.144783
H124	H	0.264416	0.019318	-0.094831
H125	H	0.162593	0.098254	0.123834
H126	H	0.395851	0.021418	-0.094831
