data_functionalizedCrystal
_audit_creation_method	'MofGen! by Chris Wilmer'
_symmetry_space_group_name_H-M	'P1'
_symmetry_Int_Tables_number	1
_symmetry_cell_setting	triclinic
loop_
_symmetry_equiv_pos_as_xyz
  x,y,z
_cell_length_a	14.519710
_cell_length_b	14.519709
_cell_length_c	13.596369
_cell_angle_alpha	90.006934
_cell_angle_beta	89.995619
_cell_angle_gamma	96.319855
loop_
_atom_site_label
_atom_site_type_symbol
_atom_site_fract_x
_atom_site_fract_y
_atom_site_fract_z
O1	O	1.223868	-0.120893	-0.081772
O2	O	0.955392	-0.135129	-0.081779
O3	O	1.096748	0.006227	-0.081766
O4	O	1.082512	-0.262249	-0.081785
O5	O	1.096734	0.006235	0.081816
O6	O	0.955377	-0.135122	0.081804
O7	O	1.223854	-0.120885	0.081811
Zn8	Zn	1.089614	-0.128002	0.107780
Zn9	Zn	1.089632	-0.128012	-0.107748
O10	O	1.082498	-0.262242	0.081798
C11	C	1.096078	0.040591	0.000025
C12	C	1.094090	0.142972	0.000026
C13	C	0.921025	-0.134462	0.000012
C14	C	0.818643	-0.132474	0.000009
C15	C	1.258221	-0.121553	0.000018
C16	C	1.360602	-0.123541	0.000014
C17	C	1.735498	-0.130860	0.000013
C18	C	1.631190	-0.128828	0.000013
C19	C	1.548054	-0.127201	0.000013
C20	C	1.443739	-0.125168	0.000014
C21	C	1.083168	-0.296606	0.000005
C22	C	1.085156	-0.398987	-0.000002
N23	N	1.089608	-0.127995	0.254872
C24	C	1.086770	0.517868	-0.000000
C25	C	1.088803	0.413560	0.000007
C26	C	1.090430	0.330423	0.000014
C27	C	1.092463	0.226109	0.000019
N28	N	1.089645	-0.128012	-0.254840
C29	C	1.089631	-0.128013	0.656162
C30	C	1.089622	-0.128011	0.544511
C31	C	1.089620	-0.128005	0.455521
C32	C	1.089610	-0.128001	0.343862
