data_functionalizedCrystal
_audit_creation_method	'MofGen! by Chris Wilmer'
_symmetry_space_group_name_H-M	'P1'
_symmetry_Int_Tables_number	1
_symmetry_cell_setting	triclinic
loop_
_symmetry_equiv_pos_as_xyz
  x,y,z
_cell_length_a	6.817900
_cell_length_b	9.514072
_cell_length_c	11.102193
_cell_angle_alpha	88.635780
_cell_angle_beta	108.604059
_cell_angle_gamma	118.843421
loop_
_atom_site_label
_atom_site_type_symbol
_atom_site_fract_x
_atom_site_fract_y
_atom_site_fract_z
V1	V	-4.170264	-0.222216	-0.397253
O2	O	-4.067727	0.010666	-0.388667
O3	O	-4.204780	-0.440605	-0.395522
O4	O	-4.146136	-0.218803	-0.570059
O5	O	-4.126777	-0.212671	-0.212920
V6	V	-4.640003	-0.194360	-0.375086
O7	O	-4.461759	-0.283320	-0.445879
O8	O	-4.798706	-0.133255	-0.326460
O9	O	-4.382281	0.024030	-0.376817
O10	O	-4.859937	-0.427242	-0.383672
O11	O	-4.800888	-0.203904	-0.559419
O12	O	-4.440925	-0.197773	-0.202280
C13	C	-4.069166	-0.493844	-0.389509
C14	C	-4.178835	-0.672380	-0.389245
C15	C	-3.994359	-0.210911	-0.612148
C16	C	-4.056463	-0.209565	-0.753424
C17	C	-4.254562	-0.503723	-0.791069
C18	C	-4.382777	-0.650162	-0.876262
C19	C	-4.441127	-0.648889	-1.009002
C20	C	-4.371258	-0.501160	-1.056551
C21	C	-4.243042	-0.354721	-0.971359
C22	C	-4.184696	-0.356009	-0.838617
C23	C	-4.044961	-0.060568	-0.933715
C24	C	-3.986594	-0.061837	-0.800973
C25	C	-3.975091	0.087161	-0.981264
C26	C	-3.846859	0.233605	-0.896071
C27	C	-3.788508	0.232326	-0.763323
C28	C	-3.858379	0.084603	-0.715781
C29	C	-4.181240	0.077260	-0.382826
C30	C	-4.050811	0.255794	-0.383099
C31	C	-4.256046	-0.205670	-0.160185
C32	C	-4.173176	-0.207007	-0.018907
H33	H	-4.372381	-0.747490	-0.394350
H34	H	-4.418804	-0.500138	-1.164638
H35	H	-4.439663	-0.770441	-0.837532
H36	H	-4.207029	-0.504773	-0.682986
H37	H	-4.545533	-0.768134	-1.078367
C38	C	-4.038329	0.088884	-1.125342
C39	C	-3.949758	0.249592	-1.148748
C40	C	-4.007991	0.251246	-1.281458
H41	H	-3.969056	0.040104	-1.158311
H42	H	-4.207207	0.029788	-1.166520
H43	H	-3.780913	0.308664	-1.107587
H44	H	-4.019018	0.298402	-1.115810
H45	H	-4.176869	0.192150	-1.322635
H46	H	-3.938714	0.202461	-1.314415
H47	H	-3.947924	0.360283	-1.297357
H48	H	-3.789998	0.353874	-0.934798
H49	H	-3.857268	-0.669101	-0.377975
C50	C	-3.649186	0.391500	-0.671036
C51	C	-3.600452	0.521134	-0.741095
C52	C	-3.472088	0.667791	-0.656128
H53	H	-3.741194	0.392210	-0.622596
H54	H	-3.503124	0.402350	-0.614326
H55	H	-3.746490	0.510286	-0.797783
H56	H	-3.508417	0.520477	-0.789531
H57	H	-3.326026	0.678642	-0.599418
H58	H	-3.564111	0.668485	-0.607693
H59	H	-3.438987	0.755766	-0.703650
C60	C	-3.794703	0.083555	-0.571617
C61	C	-3.667420	0.243416	-0.507179
C62	C	-3.608707	0.242507	-0.374374
H63	H	-3.936993	0.023912	-0.552534
H64	H	-3.698880	0.034161	-0.544319
H65	H	-3.763241	0.292787	-0.534467
H66	H	-3.525103	0.303088	-0.526223
H67	H	-3.512883	0.193114	-0.347076
H68	H	-3.751008	0.182859	-0.355305
H69	H	-3.522320	0.350971	-0.330635
