data_functionalizedCrystal
_audit_creation_method	'MofGen! by Chris Wilmer'
_symmetry_space_group_name_H-M	'P1'
_symmetry_Int_Tables_number	1
_symmetry_cell_setting	triclinic
loop_
_symmetry_equiv_pos_as_xyz
  x,y,z
_cell_length_a	19.077105
_cell_length_b	21.295417
_cell_length_c	19.077271
_cell_angle_alpha	87.717260
_cell_angle_beta	89.912562
_cell_angle_gamma	87.725910
loop_
_atom_site_label
_atom_site_type_symbol
_atom_site_fract_x
_atom_site_fract_y
_atom_site_fract_z
Zn1	Zn	1.058158	-0.304636	0.440390
Zn2	Zn	1.308158	-0.054636	0.690390
Zn3	Zn	1.558158	0.195364	0.940390
Zn4	Zn	1.808158	0.445364	1.190390
Zn5	Zn	1.062810	-0.405822	0.322876
Zn6	Zn	1.312810	-0.155822	0.572876
Zn7	Zn	1.562810	0.094178	0.822876
Zn8	Zn	1.812810	0.344178	1.072876
Zn9	Zn	0.945400	-0.296175	0.318185
Zn10	Zn	1.195400	-0.046175	0.568185
Zn11	Zn	1.445400	0.203825	0.818185
Zn12	Zn	1.695400	0.453825	1.068185
Zn13	Zn	0.940611	-0.405468	0.435628
Zn14	Zn	1.190611	-0.155468	0.685628
Zn15	Zn	1.440611	0.094532	0.935628
Zn16	Zn	1.690611	0.344532	1.185628
O17	O	1.001745	-0.353025	0.379270
O18	O	1.251745	-0.103025	0.629270
O19	O	1.501745	0.146975	0.879270
O20	O	1.751745	0.396975	1.129270
O21	O	1.157106	-0.321747	0.428758
O22	O	1.407106	-0.071747	0.678758
O23	O	1.657106	0.178253	0.928758
O24	O	1.907106	0.428253	1.178758
O25	O	1.051186	-0.387884	0.223924
O26	O	1.301186	-0.137884	0.473924
O27	O	1.551186	0.112116	0.723924
O28	O	1.801186	0.362116	0.973924
O29	O	0.960415	-0.209211	0.334426
O30	O	1.210415	0.040789	0.584426
O31	O	1.460415	0.290789	0.834426
O32	O	1.710415	0.540789	1.084426
O33	O	1.160524	-0.396088	0.342421
O34	O	1.410524	-0.146088	0.592421
O35	O	1.660524	0.103912	0.842421
O36	O	1.910524	0.353912	1.092421
O37	O	1.043258	-0.215427	0.424209
O38	O	1.293258	0.034573	0.674209
O39	O	1.543258	0.284573	0.924209
O40	O	1.793258	0.534573	1.174209
O41	O	0.964925	-0.307327	0.220477
O42	O	1.214925	-0.057327	0.470477
O43	O	1.464925	0.192673	0.720477
O44	O	1.714925	0.442673	0.970477
O45	O	0.846434	-0.306984	0.329808
O46	O	1.096434	-0.056984	0.579808
O47	O	1.346434	0.193016	0.829808
O48	O	1.596434	0.443016	1.079808
O49	O	0.952253	-0.395485	0.534590
O50	O	1.202253	-0.145485	0.784590
O51	O	1.452253	0.104515	1.034590
O52	O	1.702253	0.354515	1.284590
O53	O	0.842915	-0.387281	0.416093
O54	O	1.092915	-0.137281	0.666093
O55	O	1.342915	0.112719	0.916093
O56	O	1.592915	0.362719	1.166093
O57	O	1.038615	-0.321404	0.538089
O58	O	1.288615	-0.071404	0.788089
O59	O	1.538615	0.178596	1.038089
O60	O	1.788615	0.428596	1.288089
O61	O	1.046543	-0.493861	0.337803
O62	O	1.296543	-0.243861	0.587803
O63	O	1.546543	0.006139	0.837803
O64	O	1.796543	0.256139	1.087803
O65	O	0.956763	-0.493601	0.420641
O66	O	1.206763	-0.243601	0.670641
O67	O	1.456763	0.006399	0.920641
O68	O	1.706763	0.256399	1.170641
C69	C	0.819179	-0.346177	0.371925
C70	C	1.069179	-0.096177	0.621925
C71	C	1.319179	0.153823	0.871925
C72	C	1.569179	0.403823	1.121925
C73	C	0.741075	-0.343262	0.368799
C74	C	0.991075	-0.093262	0.618799
C75	C	1.241075	0.156738	0.868799
C76	C	1.491075	0.406738	1.118799
C77	C	1.001657	-0.516572	0.379231
C78	C	1.251657	-0.266572	0.629231
C79	C	1.501657	-0.016572	0.879231
C80	C	1.751657	0.233428	1.129231
C81	C	1.001682	-0.586541	0.379240
C82	C	1.251682	-0.336541	0.629240
C83	C	1.501682	-0.086541	0.879240
C84	C	1.751682	0.163459	1.129240
C85	C	0.702572	-0.383758	0.412184
C86	C	0.952572	-0.133758	0.662184
C87	C	1.202572	0.116242	0.912184
C88	C	1.452572	0.366242	1.162184
C89	C	0.629185	-0.381012	0.409251
C90	C	0.879185	-0.131012	0.659251
C91	C	1.129185	0.118988	0.909251
C92	C	1.379185	0.368988	1.159251
C93	C	0.594304	-0.337773	0.362929
C94	C	0.844304	-0.087773	0.612929
C95	C	1.094304	0.162227	0.862929
C96	C	1.344304	0.412227	1.112929
C97	C	0.632813	-0.297273	0.319542
C98	C	0.882813	-0.047273	0.569542
C99	C	1.132813	0.202727	0.819542
C100	C	1.382813	0.452727	1.069542
C101	C	0.706198	-0.300016	0.322479
C102	C	0.956198	-0.050016	0.572479
C103	C	1.206198	0.199984	0.822479
C104	C	1.456198	0.449984	1.072479
C105	C	0.375020	-0.325075	0.349337
C106	C	0.625020	-0.075075	0.599337
C107	C	0.875020	0.174925	0.849337
C108	C	1.125020	0.424925	1.099337
C109	C	0.301630	-0.322335	0.346401
C110	C	0.551630	-0.072335	0.596401
C111	C	0.801630	0.177665	0.846401
C112	C	1.051630	0.427665	1.096401
C113	C	0.298008	-0.406074	0.436111
C114	C	0.548008	-0.156074	0.686111
C115	C	0.798008	0.093926	0.936111
C116	C	1.048008	0.343926	1.186111
C117	C	0.371394	-0.408816	0.439042
C118	C	0.621394	-0.158816	0.689042
C119	C	0.871394	0.091184	0.939042
C120	C	1.121394	0.341184	1.189042
C121	C	0.409897	-0.368314	0.395658
C122	C	0.659897	-0.118314	0.645658
C123	C	0.909897	0.131686	0.895658
C124	C	1.159897	0.381686	1.145658
N125	N	0.519291	-0.334966	0.359927
N126	N	0.769291	-0.084966	0.609927
N127	N	1.019291	0.165034	0.859927
N128	N	1.269291	0.415034	1.109927
N129	N	0.484908	-0.371118	0.398663
N130	N	0.734908	-0.121118	0.648663
N131	N	0.984908	0.128882	0.898663
N132	N	1.234908	0.378882	1.148663
C133	C	1.044792	-0.622588	0.426021
C134	C	1.294792	-0.372588	0.676021
C135	C	1.544792	-0.122588	0.926021
C136	C	1.794792	0.127412	1.176021
C137	C	1.044816	-0.688332	0.426040
C138	C	1.294816	-0.438332	0.676040
C139	C	1.544816	-0.188332	0.926040
C140	C	1.794816	0.061668	1.176040
C141	C	1.001738	-0.718027	0.379264
C142	C	1.251738	-0.468027	0.629264
C143	C	1.501738	-0.218027	0.879264
C144	C	1.751738	0.031973	1.129264
C145	C	0.958620	-0.681972	0.332479
C146	C	1.208620	-0.431972	0.582479
C147	C	1.458620	-0.181972	0.832479
C148	C	1.708620	0.068028	1.082479
C149	C	0.958592	-0.616230	0.332467
C150	C	1.208592	-0.366230	0.582467
C151	C	1.458592	-0.116230	0.832467
C152	C	1.708592	0.133770	1.082467
N153	N	0.998916	-0.818955	0.317556
N154	N	1.248916	-0.568955	0.567556
N155	N	1.498916	-0.318955	0.817556
N156	N	1.748916	-0.068955	1.067556
N157	N	0.998947	-0.881408	0.317570
N158	N	1.248947	-0.631408	0.567570
N159	N	1.498947	-0.381408	0.817570
N160	N	1.748947	-0.131408	1.067570
C161	C	1.001819	-0.916106	0.379299
C162	C	1.251819	-0.666106	0.629299
C163	C	1.501819	-0.416106	0.879299
C164	C	1.751819	-0.166106	1.129299
N165	N	1.004674	-0.885992	0.441016
N166	N	1.254674	-0.635992	0.691016
N167	N	1.504674	-0.385992	0.941016
N168	N	1.754674	-0.135992	1.191016
N169	N	1.004647	-0.823533	0.441002
N170	N	1.254647	-0.573533	0.691002
N171	N	1.504647	-0.323533	0.941002
N172	N	1.754647	-0.073533	1.191002
C173	C	1.001764	-0.789313	0.379273
C174	C	1.251764	-0.539313	0.629273
C175	C	1.501764	-0.289313	0.879273
C176	C	1.751764	-0.039313	1.129273
C177	C	1.044957	-1.023439	0.426104
C178	C	1.294957	-0.773439	0.676104
C179	C	1.544957	-0.523439	0.926104
C180	C	1.794957	-0.273439	1.176104
C181	C	1.044976	-1.089185	0.426124
C182	C	1.294976	-0.839185	0.676124
C183	C	1.544976	-0.589185	0.926124
C184	C	1.794976	-0.339185	1.176124
C185	C	0.958784	-1.082824	0.332558
C186	C	1.208784	-0.832824	0.582558
C187	C	1.458784	-0.582824	0.832558
C188	C	1.708784	-0.332824	1.082558
C189	C	0.958761	-1.017080	0.332544
C190	C	1.208761	-0.767080	0.582544
C191	C	1.458761	-0.517080	0.832544
C192	C	1.708761	-0.267080	1.082544
C193	C	1.001851	-0.987392	0.379317
C194	C	1.251851	-0.737392	0.629317
C195	C	1.501851	-0.487392	0.879317
C196	C	1.751851	-0.237392	1.129317
C197	C	1.185024	-0.359901	0.386644
C198	C	1.435024	-0.109901	0.636644
C199	C	1.685024	0.140099	0.886644
C200	C	1.935024	0.390099	1.136644
C201	C	1.263126	-0.362831	0.389786
C202	C	1.513126	-0.112831	0.639786
C203	C	1.763126	0.137169	0.889786
C204	C	2.013126	0.387169	1.139786
C205	C	0.994381	-0.359349	0.562548
C206	C	1.244381	-0.109349	0.812548
C207	C	1.494381	0.140651	1.062548
C208	C	1.744381	0.390651	1.312548
C209	C	0.991243	-0.362044	0.640650
C210	C	1.241243	-0.112044	0.890650
C211	C	1.491243	0.137956	1.140650
C212	C	1.741243	0.387956	1.390650
C213	C	1.001852	-0.188841	0.379325
C214	C	1.251852	0.061159	0.629325
C215	C	1.501852	0.311159	0.879325
C216	C	1.751852	0.561159	1.129325
C217	C	1.001897	-0.118875	0.379349
C218	C	1.251897	0.131125	0.629349
C219	C	1.501897	0.381125	0.879349
C220	C	1.751897	0.631125	1.129349
C221	C	1.034730	-0.324741	0.679165
C222	C	1.284730	-0.074741	0.929165
C223	C	1.534730	0.175259	1.179165
C224	C	1.784730	0.425259	1.429165
C225	C	1.031773	-0.327271	0.752550
C226	C	1.281773	-0.077271	1.002550
C227	C	1.531773	0.172729	1.252550
C228	C	1.781773	0.422729	1.502550
C229	C	0.985331	-0.367106	0.787419
C230	C	1.235331	-0.117106	1.037419
C231	C	1.485331	0.132894	1.287419
C232	C	1.735331	0.382894	1.537419
C233	C	0.941839	-0.404410	0.748898
C234	C	1.191839	-0.154410	0.998898
C235	C	1.441839	0.095590	1.248898
C236	C	1.691839	0.345590	1.498898
C237	C	0.944793	-0.401877	0.675515
C238	C	1.194793	-0.151877	0.925515
C239	C	1.444793	0.098123	1.175515
C240	C	1.694793	0.348123	1.425515
C241	C	0.971671	-0.378814	1.006697
C242	C	1.221671	-0.128814	1.256697
C243	C	1.471671	0.121186	1.506697
C244	C	1.721671	0.371186	1.756697
C245	C	0.968722	-0.381346	1.080087
C246	C	1.218722	-0.131346	1.330087
C247	C	1.468722	0.118654	1.580087
C248	C	1.718722	0.368654	1.830087
C249	C	1.058655	-0.304206	1.083734
C250	C	1.308655	-0.054206	1.333734
C251	C	1.558655	0.195794	1.583734
C252	C	1.808655	0.445794	1.833734
C253	C	1.061608	-0.301679	1.010348
C254	C	1.311608	-0.051679	1.260348
C255	C	1.561608	0.198321	1.510348
C256	C	1.811608	0.448321	1.760348
C257	C	1.018113	-0.338980	0.971834
C258	C	1.268113	-0.088980	1.221834
C259	C	1.518113	0.161020	1.471834
C260	C	1.768113	0.411020	1.721834
N261	N	0.982309	-0.369694	0.862430
N262	N	1.232309	-0.119694	1.112430
N263	N	1.482309	0.130306	1.362430
N264	N	1.732309	0.380306	1.612430
N265	N	1.021133	-0.336389	0.896824
N266	N	1.271133	-0.086389	1.146824
N267	N	1.521133	0.163611	1.396824
N268	N	1.771133	0.413611	1.646824
C269	C	1.009074	-0.346740	1.196704
C270	C	1.259074	-0.096740	1.446704
C271	C	1.509074	0.153260	1.696704
C272	C	1.759074	0.403260	1.946704
C273	C	1.012209	-0.344044	1.118602
C274	C	1.262209	-0.094044	1.368602
C275	C	1.512209	0.155956	1.618602
C276	C	1.762209	0.405956	1.868602
H277	H	0.730967	-0.418970	0.449902
H278	H	0.980967	-0.168970	0.699902
H279	H	1.230967	0.081030	0.949902
H280	H	1.480967	0.331030	1.199902
H281	H	0.904023	-0.436842	0.777294
H282	H	1.154023	-0.186842	1.027294
H283	H	1.404023	0.063158	1.277294
H284	H	1.654023	0.313158	1.527294
H285	H	1.099427	-0.269243	0.981964
H286	H	1.349427	-0.019243	1.231964
H287	H	1.599427	0.230757	1.481964
H288	H	1.849427	0.480757	1.731964
H289	H	0.273232	-0.287118	0.308684
H290	H	0.523232	-0.037118	0.558684
H291	H	0.773232	0.212882	0.808684
H292	H	1.023232	0.462882	1.058684
F293	F	0.912936	-1.114423	0.282777
F294	F	1.162936	-0.864423	0.532777
F295	F	1.412936	-0.614423	0.782777
F296	F	1.662936	-0.364423	1.032777
F297	F	0.595687	-0.251250	0.270246
F298	F	0.845687	-0.001250	0.520246
F299	F	1.095687	0.248750	0.770246
F300	F	1.345687	0.498750	1.020246
H301	H	0.923661	-0.987729	0.294448
H302	H	1.173661	-0.737729	0.544448
H303	H	1.423661	-0.487729	0.794448
H304	H	1.673661	-0.237729	1.044448
F305	F	1.090814	-0.991841	0.475885
F306	F	1.340814	-0.741841	0.725885
F307	F	1.590814	-0.491841	0.975885
F308	F	1.840814	-0.241841	1.225885
H309	H	1.072550	-0.292305	0.650781
H310	H	1.322550	-0.042305	0.900781
H311	H	1.572550	0.207695	1.150781
H312	H	1.822550	0.457695	1.400781
H313	H	1.079876	-0.598418	0.464108
H314	H	1.329876	-0.348418	0.714108
H315	H	1.579876	-0.098418	0.964108
H316	H	1.829876	0.151582	1.214108
F317	F	0.912706	-0.577865	0.282675
F318	F	1.162706	-0.327865	0.532675
F319	F	1.412706	-0.077865	0.782675
F320	F	1.662706	0.172135	1.032675
H321	H	0.923545	-0.706154	0.294396
H322	H	1.173545	-0.456154	0.544396
H323	H	1.423545	-0.206154	0.794396
H324	H	1.673545	0.043846	1.044396
H325	H	1.080081	-1.118533	0.464222
H326	H	1.330081	-0.868533	0.714222
H327	H	1.580081	-0.618533	0.964222
H328	H	1.830081	-0.368533	1.214222
H329	H	1.067186	-0.296897	0.783907
H330	H	1.317186	-0.046897	1.033907
H331	H	1.567186	0.203103	1.283907
H332	H	1.817186	0.453103	1.533907
H333	H	1.094065	-0.273837	1.115100
H334	H	1.344065	-0.023837	1.365100
H335	H	1.594065	0.226163	1.615100
H336	H	1.844065	0.476163	1.865100
H337	H	0.930902	-0.413786	1.108474
H338	H	1.180902	-0.163786	1.358474
H339	H	1.430902	0.086214	1.608474
H340	H	1.680902	0.336214	1.858474
H341	H	0.936265	-0.409197	0.975348
H342	H	1.186265	-0.159197	1.225348
H343	H	1.436265	0.090803	1.475348
H344	H	1.686265	0.340803	1.725348
H345	H	0.406360	-0.292099	0.314005
H346	H	0.656360	-0.042099	0.564005
H347	H	0.906360	0.207901	0.814005
H348	H	1.156360	0.457901	1.064005
H349	H	0.909374	-0.432246	0.644156
H350	H	1.159374	-0.182246	0.894156
H351	H	1.409374	0.067754	1.144156
H352	H	1.659374	0.317754	1.394156
H353	H	0.597839	-0.413988	0.444579
H354	H	0.847839	-0.163988	0.694579
H355	H	1.097839	0.086012	0.944579
H356	H	1.347839	0.336012	1.194579
H357	H	0.399790	-0.444028	0.476761
H358	H	0.649790	-0.194028	0.726761
H359	H	0.899790	0.055972	0.976761
H360	H	1.149790	0.305972	1.226761
H361	H	0.737546	-0.267037	0.287154
H362	H	0.987546	-0.017037	0.537154
H363	H	1.237546	0.232963	0.787154
H364	H	1.487546	0.482963	1.037154
H365	H	1.079915	-0.717686	0.464143
H366	H	1.329915	-0.467686	0.714143
H367	H	1.579915	-0.217686	0.964143
H368	H	1.829915	0.032314	1.214143
F369	F	0.257026	-0.449177	0.482279
F370	F	0.507026	-0.199177	0.732279
F371	F	0.757026	0.050823	0.982279
F372	F	1.007026	0.300823	1.232279
