data_functionalizedCrystal
_audit_creation_method	'MofGen! by Chris Wilmer'
_symmetry_space_group_name_H-M	'P1'
_symmetry_Int_Tables_number	1
_symmetry_cell_setting	triclinic
loop_
_symmetry_equiv_pos_as_xyz
  x,y,z
_cell_length_a	6.394989
_cell_length_b	16.956995
_cell_length_c	16.053802
_cell_angle_alpha	87.607939
_cell_angle_beta	92.643543
_cell_angle_gamma	81.276091
loop_
_atom_site_label
_atom_site_type_symbol
_atom_site_fract_x
_atom_site_fract_y
_atom_site_fract_z
O1	O	0.077053	1.062178	-0.069485
O2	O	0.150256	0.830756	-0.069473
O3	O	-0.190977	0.949752	-0.069480
O4	O	0.418286	0.943182	-0.069478
O5	O	-0.172268	0.943201	0.069379
O6	O	0.168966	0.824205	0.069386
O7	O	0.095762	1.055627	0.069374
Zn8	Zn	0.135335	0.938876	0.091427
Zn9	Zn	0.110684	0.947507	-0.091526
O10	O	0.436995	0.936631	0.069381
C11	C	0.163359	0.797810	-0.000042
C12	C	0.174502	0.709401	-0.000037
C13	C	0.257859	0.210940	-0.000068
C14	C	0.247373	0.294010	-0.000067
C15	C	0.050541	0.343120	-0.000062
C16	C	-0.135818	0.309157	-0.000065
C17	C	-0.125330	0.226089	-0.000072
C18	C	-0.001369	0.592370	-0.000047
C19	C	-0.011842	0.675443	-0.000038
C20	C	0.371350	0.660291	-0.000042
C21	C	0.381820	0.577222	-0.000043
C22	C	0.195461	0.543266	-0.000051
N23	N	0.039818	0.428031	-0.000058
N24	N	0.206186	0.458357	-0.000061
C25	C	0.505237	0.941206	-0.000052
C26	C	0.740786	0.945176	-0.000055
C27	C	0.082659	1.088573	-0.000059
C28	C	0.071515	1.176982	-0.000069
N29	N	0.152156	0.932992	0.216288
N30	N	0.093845	0.953398	-0.216387
C31	C	0.007006	0.983644	0.259979
C32	C	0.018791	0.979536	0.347386
C33	C	0.175737	0.924778	0.391100
C34	C	0.320894	0.874120	0.347403
C35	C	0.309098	0.878225	0.259998
C36	C	0.227205	0.906845	0.652511
C37	C	0.238995	0.902745	0.739923
C38	C	-0.063112	1.008160	0.739899
C39	C	-0.074887	1.012264	0.652492
C40	C	0.070263	0.961603	0.608803
N41	N	0.187792	0.920579	0.480444
N42	N	0.058198	0.965799	0.519460
H43	H	-0.153115	0.564734	-0.000051
C44	C	-0.247533	1.072493	0.604403
C45	C	-0.407215	1.128214	0.652454
C46	C	-0.579855	1.188445	0.604362
C47	C	-0.592813	1.192956	0.508219
C48	C	-0.433126	1.137234	0.460163
C49	C	-0.260486	1.077003	0.508255
H50	H	-0.397628	1.124876	0.723629
H51	H	-0.698066	1.229695	0.639937
H52	H	-0.720612	1.237543	0.472619
H53	H	-0.442713	1.140572	0.388988
H54	H	-0.142275	1.035753	0.472680
H55	H	0.399113	0.321655	-0.000074
C56	C	0.493541	0.813885	0.395485
C57	C	0.506628	0.809404	0.491627
C58	C	0.679285	0.749169	0.539706
C59	C	0.838855	0.693415	0.491642
C60	C	0.825773	0.697894	0.395494
C61	C	0.653117	0.758129	0.347415
H62	H	0.388500	0.850678	0.527212
H63	H	0.688967	0.745853	0.610881
H64	H	0.966665	0.648825	0.527232
H65	H	0.943901	0.656620	0.359909
H66	H	0.643434	0.761444	0.276240
C67	C	-0.222785	1.063879	0.787957
C68	C	-0.368830	1.028354	0.848060
C69	C	-0.528518	1.084073	0.896117
C70	C	-0.542161	1.175316	0.884072
C71	C	-0.396111	1.210846	0.823967
C72	C	-0.236423	1.155127	0.775909
H73	H	-0.358735	0.960806	0.856979
H74	H	-0.636633	1.057772	0.940611
H75	H	-0.660371	1.216563	0.919647
H76	H	-0.406206	1.278394	0.815048
H77	H	-0.128308	1.181428	0.731416
H78	H	0.427292	0.836978	0.224426
H79	H	0.542102	0.537241	-0.000051
C80	C	-0.165641	1.043880	0.211897
C81	C	-0.178629	1.048402	0.115755
C82	C	-0.351285	1.108637	0.067676
C83	C	-0.510954	1.164350	0.115740
C84	C	-0.497972	1.159829	0.211888
C85	C	-0.325315	1.099594	0.259967
H86	H	-0.060427	1.007159	0.080170
H87	H	-0.360895	1.111983	-0.003499
H88	H	-0.638765	1.208939	0.080150
H89	H	-0.616174	1.201072	0.247473
H90	H	-0.315706	1.096248	0.331142
H91	H	0.523073	0.687947	-0.000037
H92	H	-0.296083	0.349149	-0.000065
C93	C	-0.228367	0.729470	-0.000034
C94	C	-0.375276	0.720889	0.072069
C95	C	-0.591784	0.774917	0.072076
C96	C	-0.661383	0.837526	-0.000020
C97	C	-0.514472	0.846109	-0.072128
C98	C	-0.297964	0.792081	-0.072135
H99	H	-0.323756	0.674540	0.125444
H100	H	-0.700537	0.768563	0.125456
H101	H	-0.821656	0.877521	-0.000014
H102	H	-0.565991	0.892459	-0.125503
H103	H	-0.189210	0.798436	-0.125515
H104	H	0.345396	0.865596	0.616946
H105	H	0.418142	0.170960	-0.000066
H106	H	-0.277072	0.198442	-0.000074
H107	H	-0.099403	1.020780	0.382958
H108	H	0.366808	0.858153	0.775511
