data_functionalizedCrystal
_audit_creation_method	'MofGen! by Chris Wilmer'
_symmetry_space_group_name_H-M	'P1'
_symmetry_Int_Tables_number	1
_symmetry_cell_setting	triclinic
loop_
_symmetry_equiv_pos_as_xyz
  x,y,z
_cell_length_a	14.044220
_cell_length_b	14.044220
_cell_length_c	9.730223
_cell_angle_alpha	89.997406
_cell_angle_beta	90.004504
_cell_angle_gamma	93.188878
loop_
_atom_site_label
_atom_site_type_symbol
_atom_site_fract_x
_atom_site_fract_y
_atom_site_fract_z
O1	O	1.277162	0.230163	-0.114149
O2	O	1.000491	0.221857	-0.114184
O3	O	1.134674	0.087674	-0.114153
O4	O	1.142979	0.364346	-0.114180
O5	O	1.134672	0.087678	0.114427
O6	O	1.000489	0.221861	0.114396
O7	O	1.277161	0.230166	0.114431
Zn8	Zn	1.138825	0.226014	0.150705
Zn9	Zn	1.138827	0.226010	-0.150458
O10	O	1.142978	0.364349	0.114400
C11	C	0.964868	0.218223	0.000102
C12	C	0.858725	0.207379	0.000089
C13	C	0.664388	0.187553	0.000118
C14	C	0.613258	0.264467	0.000117
C15	C	0.505122	0.253435	0.000133
C16	C	0.772534	0.198583	0.000102
C17	C	1.131037	0.052054	0.000137
C18	C	1.120193	-0.054088	0.000137
C19	C	1.100366	-0.248426	0.000115
C20	C	1.177281	-0.299556	0.000120
C21	C	1.166249	-0.407692	0.000108
C22	C	1.111397	-0.140280	0.000127
C23	C	1.312783	0.233800	0.000142
C24	C	1.418926	0.244645	0.000146
C25	C	1.146614	0.399969	0.000107
C26	C	1.157459	0.506112	0.000098
N27	N	1.138830	0.226017	0.356242
N28	N	1.138828	0.225999	-0.355995
C29	C	1.198265	0.166624	0.428181
C30	C	1.198262	0.166613	0.572064
C31	C	1.079387	0.285395	0.572056
C32	C	1.079386	0.285401	0.428175
C33	C	1.266900	0.098049	0.428188
C34	C	1.266896	0.098038	0.572070
H35	H	0.626951	0.113425	0.000133
H36	H	1.251414	-0.262117	0.000037
C37	C	1.362859	0.136539	0.367900
C38	C	1.420649	0.072705	0.274393
C39	C	1.516608	0.111198	0.214106
C40	C	1.554776	0.213525	0.247326
C41	C	1.496985	0.277365	0.340837
C42	C	1.401026	0.238872	0.401124
H43	H	1.392396	-0.003049	0.249797
H44	H	1.559389	0.063939	0.144882
H45	H	1.625810	0.242020	0.202698
H46	H	1.525238	0.353119	0.365433
H47	H	1.358245	0.286131	0.470348
H48	H	1.026239	-0.285863	0.000102
H49	H	1.238457	0.026980	0.616689
H50	H	1.030981	0.333754	0.369603
H51	H	1.030988	0.333743	0.630639
C52	C	1.237368	-0.002681	0.375419
C53	C	1.213556	-0.083894	0.478250
C54	C	1.184024	-0.184621	0.425480
C55	C	1.178304	-0.204135	0.269881
C56	C	1.202117	-0.122920	0.167040
C57	C	1.231649	-0.022193	0.219809
H58	H	1.217789	-0.069451	0.593442
H59	H	1.166395	-0.244742	0.501610
H60	H	1.156442	-0.278700	0.230818
H61	H	1.197884	-0.137364	0.051847
H62	H	1.249278	0.037928	0.143679
C63	C	1.367608	0.127643	0.624863
C64	C	1.452516	0.068067	0.586651
C65	C	1.553220	0.097675	0.639450
C66	C	1.569016	0.186859	0.730461
C67	C	1.484106	0.246441	0.768678
C68	C	1.383402	0.216833	0.715879
H69	H	1.440824	0.002042	0.519275
H70	H	1.616076	0.053568	0.611159
H71	H	1.643564	0.208776	0.769546
H72	H	1.495797	0.312465	0.836054
H73	H	1.320545	0.260940	0.744170
C74	C	0.663828	0.364619	0.000098
C75	C	0.773535	0.375661	0.000080
C76	C	0.824109	0.475810	0.000061
C77	C	0.764976	0.564916	0.000058
C78	C	0.655263	0.553877	0.000075
C79	C	0.604688	0.453729	0.000095
H80	H	0.817314	0.309697	0.000082
H81	H	0.905327	0.483981	0.000048
H82	H	0.802414	0.639052	0.000043
H83	H	0.611483	0.619841	0.000073
H84	H	0.523471	0.445557	0.000108
