data_functionalizedCrystal
_audit_creation_method	'MofGen! by Chris Wilmer'
_symmetry_space_group_name_H-M	'P1'
_symmetry_Int_Tables_number	1
_symmetry_cell_setting	triclinic
loop_
_symmetry_equiv_pos_as_xyz
  x,y,z
_cell_length_a	17.038272
_cell_length_b	8.597340
_cell_length_c	7.088906
_cell_angle_alpha	103.953975
_cell_angle_beta	83.326268
_cell_angle_gamma	88.193829
loop_
_atom_site_label
_atom_site_type_symbol
_atom_site_fract_x
_atom_site_fract_y
_atom_site_fract_z
O1	O	0.107368	2.115943	0.189570
O2	O	0.120130	1.652994	0.113304
O3	O	-0.000065	1.881718	0.150999
O4	O	0.227564	1.887218	0.151875
O5	O	-0.016163	1.912277	0.474010
O6	O	0.104033	1.683552	0.436315
O7	O	0.091271	2.146501	0.512581
Cu8	Cu	0.096182	1.917817	0.503942
Cu9	Cu	0.115219	1.881678	0.121943
O10	O	0.211467	1.917776	0.474886
C11	C	0.111608	1.608746	0.265003
C12	C	0.110187	1.431372	0.235783
C13	C	-0.037239	1.891993	0.311680
C14	C	-0.124024	1.877060	0.309219
C15	C	-0.174214	2.014157	0.331807
C16	C	-0.255756	2.000115	0.329475
C17	C	-0.287107	1.848976	0.304570
C18	C	-0.236910	1.711869	0.281975
C19	C	-0.155369	1.725911	0.284293
C20	C	-0.532836	1.799368	0.296372
C21	C	-0.614383	1.785336	0.294061
C22	C	-0.633224	2.073584	0.341558
C23	C	-0.551682	2.087614	0.343885
C24	C	-0.501491	1.950505	0.321280
C25	C	-0.370456	1.834620	0.302193
C26	C	-0.418143	1.964861	0.323644
C27	C	0.248641	1.907502	0.314201
C28	C	0.335426	1.922433	0.316649
C29	C	0.099794	2.190749	0.360878
C30	C	0.101215	2.368122	0.390085
N31	N	0.082792	1.943246	0.772621
N32	N	0.128609	1.856249	0.853264
H33	H	0.116781	1.349816	0.081307
H34	H	0.094616	1.449669	0.544551
C35	C	-0.140158	2.178253	0.359237
C36	C	-0.102200	2.210483	0.528165
C37	C	-0.070830	2.361644	0.553503
H38	H	-0.103076	2.179244	0.248646
H39	H	-0.181715	2.257948	0.372463
H40	H	-0.060648	2.130809	0.514925
H41	H	-0.139265	2.209526	0.638788
H42	H	-0.112387	2.441340	0.566729
H43	H	-0.033752	2.362621	0.442903
H44	H	-0.045079	2.383539	0.668131
H45	H	-0.296619	2.111755	0.347873
H46	H	-0.526163	2.210687	0.364166
C47	C	0.192036	1.736228	0.724732
C48	C	0.266383	1.777411	0.780018
C49	C	0.324833	1.666896	0.661629
H50	H	0.182128	1.631598	0.740146
H51	H	0.191168	1.737977	0.591496
H52	H	0.267249	1.775645	0.913222
H53	H	0.276316	1.882022	0.764596
H54	H	0.323965	1.668645	0.528393
H55	H	0.314917	1.562273	0.677052
H56	H	0.375284	1.694832	0.699112
C57	C	-0.687735	2.222342	0.365667
C58	C	-0.726794	2.206996	0.199517
C59	C	-0.777006	2.344014	0.221638
H60	H	-0.725621	2.233648	0.478282
H61	H	-0.657407	2.314396	0.380730
H62	H	-0.757120	2.114967	0.184476
H63	H	-0.688927	2.195711	0.086880
H64	H	-0.746679	2.436068	0.236700
H65	H	-0.814888	2.355309	0.334257
H66	H	-0.803509	2.333627	0.108903
C67	C	-0.648361	1.621155	0.266594
C68	C	-0.614578	1.521923	0.086615
C69	C	-0.645869	1.370686	0.061237
H70	H	-0.636759	1.574668	0.369681
H71	H	-0.704110	1.632365	0.268343
H72	H	-0.558842	1.510708	0.084883
H73	H	-0.626177	1.568358	-0.016507
H74	H	-0.701618	1.381896	0.062986
H75	H	-0.634265	1.324216	0.164333
H76	H	-0.622957	1.303344	-0.060887
H77	H	0.035316	2.033425	0.869139
C78	C	-0.478296	1.650524	0.271451
C79	C	-0.422662	1.634406	0.105176
C80	C	-0.372412	1.497290	0.082142
H81	H	-0.451629	1.660498	0.383848
H82	H	-0.508619	1.558458	0.256183
H83	H	-0.392343	1.726450	0.120458
H84	H	-0.449307	1.624405	-0.007251
H85	H	-0.402735	1.405224	0.066874
H86	H	-0.345750	1.507278	0.194548
H87	H	-0.334663	1.486329	-0.030686
H88	H	-0.262441	1.588807	0.261685
H89	H	-0.114504	1.614271	0.265900
C90	C	-0.383985	2.128822	0.350365
C91	C	-0.329421	2.129568	0.186922
C92	C	-0.297923	2.280573	0.211488
H93	H	-0.425466	2.208613	0.363418
H94	H	-0.358135	2.150945	0.464840
H95	H	-0.355271	2.107463	0.072480
H96	H	-0.287926	2.049809	0.173840
H97	H	-0.272074	2.302697	0.325963
H98	H	-0.339410	2.360353	0.224544
H99	H	-0.260893	2.281095	0.100607
H100	H	-0.395991	1.711562	0.281919
