data_functionalizedCrystal
_audit_creation_method	'MofGen! by Chris Wilmer'
_symmetry_space_group_name_H-M	'P1'
_symmetry_Int_Tables_number	1
_symmetry_cell_setting	triclinic
loop_
_symmetry_equiv_pos_as_xyz
  x,y,z
_cell_length_a	15.297475
_cell_length_b	25.639239
_cell_length_c	15.296720
_cell_angle_alpha	99.638856
_cell_angle_beta	91.617114
_cell_angle_gamma	80.340538
loop_
_atom_site_label
_atom_site_type_symbol
_atom_site_fract_x
_atom_site_fract_y
_atom_site_fract_z
Zn1	Zn	1.253213	-0.406888	-0.726521
Zn2	Zn	1.278441	-0.482170	-0.580022
Zn3	Zn	1.132104	-0.377518	-0.554767
Zn4	Zn	1.106670	-0.477031	-0.701152
O5	O	1.192607	-0.435902	-0.640616
O6	O	1.379131	-0.431317	-0.728274
O7	O	1.280232	-0.458147	-0.454100
O8	O	1.148256	-0.308262	-0.577599
O9	O	1.397666	-0.486626	-0.620642
O10	O	1.237234	-0.329841	-0.703785
O11	O	1.172719	-0.381260	-0.435545
O12	O	1.006159	-0.376276	-0.552999
O13	O	1.104906	-0.477867	-0.827090
O14	O	0.987472	-0.449388	-0.660547
O15	O	1.212571	-0.426334	-0.845728
O16	O	1.255568	-0.554640	-0.596043
O17	O	1.129369	-0.550864	-0.685036
C18	C	0.965034	-0.409088	-0.601280
C19	C	0.867674	-0.397631	-0.584473
C20	C	0.554472	-0.517789	-0.760740
C21	C	0.645948	-0.528557	-0.776529
C22	C	0.701384	-0.495826	-0.728517
C23	C	0.665336	-0.452326	-0.664713
C24	C	0.573852	-0.441560	-0.648918
C25	C	0.720763	-0.419597	-0.616694
C26	C	0.684715	-0.376097	-0.552890
C27	C	0.593241	-0.365332	-0.537098
C28	C	0.537805	-0.398063	-0.585110
C29	C	0.812247	-0.430363	-0.632489
C30	C	0.831627	-0.354134	-0.520666
C31	C	0.740151	-0.343366	-0.504877
C32	C	1.192467	-0.571724	-0.640550
C33	C	1.192482	-0.629841	-0.640565
C34	C	1.258449	-0.992200	-0.594398
C35	C	1.258481	-1.046809	-0.594415
O36	O	1.314423	-1.076721	-0.555091
N37	N	1.192751	-1.072164	-0.640700
C38	C	1.126990	-1.042907	-0.686978
O39	O	1.071085	-1.069488	-0.726350
C40	C	1.126963	-0.988300	-0.686965
C41	C	1.192692	-0.962947	-0.640670
C42	C	1.324173	-0.966847	-0.548107
C43	C	1.324140	-0.912241	-0.548088
C44	C	1.258383	-0.882988	-0.594360
C45	C	1.192658	-0.908341	-0.640651
C46	C	1.061206	-0.959045	-0.733248
C47	C	1.061185	-0.904435	-0.733232
C48	C	1.126914	-0.879082	-0.686936
C49	C	1.126868	-0.824483	-0.686905
N50	N	1.192598	-0.799128	-0.640619
C51	C	1.258355	-0.828381	-0.594347
C52	C	1.127054	-1.157587	-0.687003
C53	C	1.127077	-1.212192	-0.687011
C54	C	1.258569	-1.216091	-0.594449
C55	C	1.258541	-1.161483	-0.594437
C56	C	1.192784	-1.132232	-0.640718
C57	C	1.258280	-0.713705	-0.594311
C58	C	1.258239	-0.659094	-0.594293
C59	C	1.126750	-0.655201	-0.686858
C60	C	1.126788	-0.709806	-0.686873
C61	C	1.192561	-0.739058	-0.640597
O62	O	1.070956	-0.794537	-0.726211
O63	O	1.314257	-0.801795	-0.554992
C64	C	1.421068	-0.462821	-0.680105
C65	C	1.518425	-0.474292	-0.696933
C66	C	1.153088	-0.454803	-0.869079
C67	C	1.136247	-0.462858	-0.966437
C68	C	1.192768	-0.299554	-0.640705
C69	C	1.192837	-0.241450	-0.640743
C70	C	1.313004	-0.378246	-1.279690
C71	C	1.328832	-0.370679	-1.188219
C72	C	1.280687	-0.393723	-1.132769
C73	C	1.216711	-0.424335	-1.168799
C74	C	1.200886	-0.431905	-1.260281
C75	C	1.168569	-0.447383	-1.113359
C76	C	1.104593	-0.477995	-1.149390
C77	C	1.088771	-0.485564	-1.240862
C78	C	1.136916	-0.462520	-1.296312
C79	C	1.184394	-0.439812	-1.021878
C80	C	1.072276	-0.493472	-1.002468
C81	C	1.056448	-0.501039	-1.093940
C82	C	1.232023	-0.417042	-0.413049
C83	C	1.249034	-0.408860	-0.315722
H84	H	0.876763	-0.327483	-0.481569
O85	O	0.680813	-0.570816	-0.838564
C86	C	0.612274	-0.597404	-0.877539
H87	H	0.546549	-0.568576	-0.869386
H88	H	0.608070	-0.633268	-0.843651
C89	C	0.712592	-0.652352	-0.986917
C90	C	0.631869	-0.616943	-0.976910
H91	H	0.724679	-0.664407	-1.048213
H92	H	0.758769	-0.634441	-0.960657
H93	H	0.709078	-0.682234	-0.958672
H94	H	0.635387	-0.587059	-1.005146
H95	H	0.585693	-0.634850	-1.003178
H96	H	0.775866	-0.504596	-0.741376
O97	O	1.063078	-1.129246	-0.731969
C98	C	1.005089	-1.163343	-0.772837
H99	H	1.008322	-1.198955	-0.736443
H100	H	1.025600	-1.178396	-0.844923
C101	C	0.905700	-1.088408	-0.813965
C102	C	0.909665	-1.132145	-0.769260
H103	H	0.846838	-1.069164	-0.811763
H104	H	0.944769	-1.065437	-0.786434
H105	H	0.922797	-1.100960	-0.874033
H106	H	0.892578	-1.119593	-0.709192
H107	H	0.870590	-1.155114	-0.796781
H108	H	0.841588	-0.465781	-0.684439
O109	O	1.062906	-0.626851	-0.731941
C110	C	1.066911	-0.649625	-0.822560
H111	H	1.100270	-0.693374	-0.830230
H112	H	1.106813	-0.626607	-0.859858
C113	C	0.931349	-0.592766	-0.851383
C114	C	0.972314	-0.646501	-0.860803
H115	H	0.872998	-0.590837	-0.874975
H116	H	0.928652	-0.577421	-0.790332
H117	H	0.964610	-0.573591	-0.882464
H118	H	0.939059	-0.665674	-0.829712
H119	H	0.975003	-0.661849	-0.921849
O120	O	1.246627	-0.410156	-0.986857
C121	C	1.312309	-0.442196	-0.943677
H122	H	1.312909	-0.486287	-0.972147
H123	H	1.297215	-0.435068	-0.869667
C124	C	1.402898	-0.373113	-0.923060
C125	C	1.403640	-0.427266	-0.958033
H126	H	1.459235	-0.363902	-0.931911
H127	H	1.358646	-0.351525	-0.952147
H128	H	1.390316	-0.367179	-0.861387
H129	H	1.416211	-0.433198	-1.019706
H130	H	1.447896	-0.448854	-0.928956
H131	H	1.073269	-0.730450	-0.724573
H132	H	1.312064	-1.140844	-0.556739
O133	O	0.994250	-0.530773	-1.128796
C134	C	0.955162	-0.549504	-1.060251
H135	H	0.963431	-0.522341	-0.994532
H136	H	0.988872	-0.592180	-1.056041
C137	C	0.845599	-0.582369	-1.160556
C138	C	0.855749	-0.549004	-1.079840
H139	H	0.784278	-0.582063	-1.172640
H140	H	0.871935	-0.569752	-1.206738
H141	H	0.873696	-0.617929	-1.157038
H142	H	0.827662	-0.513444	-1.083363
H143	H	0.829406	-0.561615	-1.033659
O144	O	0.997316	-0.983588	-0.778302
C145	C	0.939272	-0.946046	-0.819120
H146	H	0.974606	-0.911578	-0.828357
H147	H	0.878325	-0.929794	-0.775500
C148	C	0.867067	-1.015887	-0.898808
C149	C	0.910468	-0.973554	-0.910160
H150	H	0.849296	-1.032855	-0.954964
H151	H	0.906170	-1.041179	-0.871306
H152	H	0.816284	-1.002337	-0.862455
H153	H	0.961256	-0.987104	-0.946502
H154	H	0.871373	-0.948264	-0.937670
O155	O	0.500494	-0.549513	-0.807320
C156	C	0.412028	-0.530691	-0.779676
H157	H	0.404510	-0.486484	-0.748964
H158	H	0.394121	-0.554731	-0.728442
C159	C	0.358974	-0.591667	-0.897893
C160	C	0.349738	-0.537370	-0.860179
H161	H	0.320549	-0.595789	-0.947550
H162	H	0.418575	-0.604350	-0.916516
H163	H	0.344052	-0.611695	-0.855190
H164	H	0.364670	-0.517345	-0.902878
H165	H	0.290138	-0.524685	-0.841566
O166	O	1.295904	-0.386371	-1.043887
C167	C	1.217276	-0.360518	-0.998803
H168	H	1.157685	-0.367846	-1.042792
H169	H	1.218294	-0.315585	-0.982243
C170	C	1.283697	-0.374077	-0.858476
C171	C	1.210506	-0.383081	-0.912501
H172	H	1.279522	-0.387993	-0.805238
H173	H	1.336672	-0.391493	-0.888849
H174	H	1.284537	-0.336633	-0.844685
H175	H	1.209673	-0.420525	-0.926299
H176	H	1.157531	-0.365672	-0.882128
O177	O	1.322495	-1.244429	-0.549428
C178	C	1.380524	-1.210351	-0.508585
H179	H	1.345165	-1.166967	-0.499301
H180	H	1.441457	-1.214987	-0.552212
C181	C	1.452792	-1.278754	-0.428983
C182	C	1.409361	-1.225469	-0.417573
H183	H	1.470584	-1.288080	-0.372844
H184	H	1.413699	-1.301714	-0.456502
H185	H	1.503564	-1.282610	-0.465341
H186	H	1.358584	-1.221615	-0.381225
H187	H	1.448446	-1.202508	-0.390046
O188	O	1.063337	-1.236890	-0.732041
C189	C	1.103378	-1.278976	-0.797296
H190	H	1.175120	-1.292397	-0.777938
H191	H	1.101712	-1.264403	-0.863859
C192	C	0.964344	-1.310018	-0.828586
C193	C	1.052456	-1.326505	-0.804807
H194	H	0.932931	-1.339336	-0.833223
H195	H	0.937366	-1.281663	-0.784625
H196	H	0.962968	-1.297874	-0.884053
H197	H	1.053831	-1.338643	-0.749336
H198	H	1.079433	-1.354863	-0.848759
O199	O	0.448958	-0.387513	-0.569689
C200	C	0.429028	-0.342113	-0.503058
H201	H	0.483878	-0.316754	-0.499986
H202	H	0.423819	-0.355582	-0.436319
C203	C	0.272835	-0.339725	-0.528350
C204	C	0.340198	-0.308577	-0.524582
H205	H	0.218038	-0.319040	-0.541624
H206	H	0.286261	-0.370314	-0.573238
H207	H	0.268505	-0.350947	-0.472732
H208	H	0.344534	-0.297361	-0.580202
H209	H	0.326771	-0.277986	-0.479703
H210	H	0.563895	-0.329916	-0.485135
H211	H	1.007637	-0.880621	-0.770923
H212	H	1.380924	-0.345757	-1.158890
O213	O	1.121547	-0.469966	-1.385171
C214	C	1.138717	-0.525244	-1.419597
H215	H	1.132834	-0.549232	-1.364279
H216	H	1.208585	-0.536257	-1.448388
C217	C	1.078263	-0.508883	-1.560980
C218	C	1.071030	-0.538346	-1.493038
H219	H	1.036514	-0.516965	-1.606284
H220	H	1.066698	-0.471641	-1.537788
H221	H	1.136490	-0.518063	-1.584962
H222	H	1.012808	-0.529160	-1.469050
H223	H	1.082584	-0.575586	-1.516228
O224	O	1.026691	-0.515374	-1.275770
C225	C	1.049653	-0.567882	-1.256701
H226	H	1.094815	-0.567434	-1.196105
H227	H	1.085757	-0.595058	-1.315955
C228	C	0.909491	-0.589686	-1.312108
C229	C	0.964954	-0.589135	-1.237678
H230	H	0.857245	-0.602798	-1.300378
H231	H	0.894022	-0.554312	-1.324959
H232	H	0.939588	-0.612332	-1.361480
H233	H	0.934861	-0.566484	-1.188311
H234	H	0.980417	-0.624506	-1.224819
O235	O	0.705108	-0.301176	-0.442794
C236	C	0.661936	-0.319971	-0.377002
H237	H	0.690426	-0.363926	-0.376218
H238	H	0.587927	-0.315881	-0.392114
C239	C	0.641276	-0.232664	-0.286744
C240	C	0.676272	-0.286649	-0.285776
H241	H	0.650115	-0.212109	-0.230472
H242	H	0.670358	-0.220001	-0.331071
H243	H	0.579604	-0.229263	-0.299341
H244	H	0.737944	-0.290050	-0.273190
H245	H	0.647200	-0.299313	-0.241445
H246	H	1.311764	-0.638453	-0.556590
O247	O	1.322210	-0.742029	-0.549278
C248	C	1.380217	-0.707936	-0.508439
H249	H	1.344841	-0.664556	-0.499174
H250	H	1.441155	-0.712568	-0.552057
C251	C	1.452502	-0.776317	-0.428800
C252	C	1.409049	-0.723037	-0.417414
H253	H	1.470290	-0.785632	-0.372654
H254	H	1.413424	-0.799287	-0.456316
H255	H	1.503278	-0.780170	-0.465152
H256	H	1.358268	-0.719186	-0.381073
H257	H	1.448119	-0.700066	-0.389890
H258	H	1.033074	-0.512238	-0.957321
H259	H	1.352202	-0.359490	-1.324846
H260	H	1.377664	-0.891603	-0.510393
H261	H	1.377725	-0.990660	-0.510427
