data_functionalizedCrystal
_audit_creation_method	'MofGen! by Chris Wilmer'
_symmetry_space_group_name_H-M	'P1'
_symmetry_Int_Tables_number	1
_symmetry_cell_setting	triclinic
loop_
_symmetry_equiv_pos_as_xyz
  x,y,z
_cell_length_a	12.594517
_cell_length_b	12.594516
_cell_length_c	12.594509
_cell_angle_alpha	90.026199
_cell_angle_beta	90.021327
_cell_angle_gamma	90.015853
loop_
_atom_site_label
_atom_site_type_symbol
_atom_site_fract_x
_atom_site_fract_y
_atom_site_fract_z
Zn1	Zn	1.627267	-0.423716	0.601875
Zn2	Zn	1.627158	-0.601726	0.423903
Zn3	Zn	1.449271	-0.423761	0.423904
Zn4	Zn	1.449253	-0.601652	0.601833
O5	O	1.538237	-0.512714	0.512879
O6	O	1.776198	-0.447341	0.578284
O7	O	1.603522	-0.578169	0.274957
O8	O	1.472936	-0.274809	0.447530
O9	O	1.776118	-0.578124	0.447528
O10	O	1.603709	-0.274776	0.578285
O11	O	1.472830	-0.447419	0.274958
O12	O	1.300323	-0.447347	0.447489
O13	O	1.472905	-0.577998	0.750784
O14	O	1.300310	-0.578042	0.578213
O15	O	1.603691	-0.447269	0.750815
O16	O	1.603505	-0.750662	0.447488
O17	O	1.472799	-0.750608	0.578212
C18	C	1.261696	-0.512692	0.512847
C19	C	1.143391	-0.512709	0.512859
C20	C	1.538167	-0.789255	0.512868
C21	C	1.538235	-0.907560	0.512899
C22	C	1.074114	-0.441526	0.441894
C23	C	1.003303	-0.538615	0.415718
C24	C	1.003403	-0.415668	0.539054
C25	C	1.074138	-0.609849	0.486632
C26	C	1.074244	-0.486836	0.610013
C27	C	1.003465	-0.583991	0.583874
C28	C	1.467137	-0.976822	0.583950
C29	C	1.441204	-1.047688	0.486827
C30	C	1.564265	-1.047494	0.610039
C31	C	1.512250	-0.976867	0.415725
C32	C	1.635357	-0.976667	0.539002
C33	C	1.609460	-1.047500	0.441812
C34	C	1.815858	-0.512736	0.512911
C35	C	1.934163	-0.512745	0.512924
C36	C	1.538308	-0.512620	0.790500
C37	C	1.538339	-0.512581	0.908805
C38	C	1.538336	-0.235093	0.512912
C39	C	1.538378	-0.116787	0.512927
C40	C	1.538227	-0.512730	0.236338
C41	C	1.538403	-0.512470	0.118033
C42	C	1.467227	-0.583644	0.978042
C43	C	1.564347	-0.609650	1.048833
C44	C	1.441294	-0.486510	1.048813
C45	C	1.635510	-0.538638	0.978038
C46	C	1.512391	-0.415453	0.978012
C47	C	1.609579	-0.441422	1.048772
H48	H	1.105135	-0.381389	0.381807
H49	H	0.972276	-0.333597	0.561146
O50	O	1.343364	-1.084962	0.460315
C51	C	1.239870	-1.188819	0.337287
C52	C	1.350728	-1.146661	0.367166
H53	H	1.245790	-1.238730	0.261987
H54	H	1.183892	-1.119155	0.322987
H55	H	1.207864	-1.239845	0.404826
H56	H	1.382830	-1.095651	0.299666
H57	H	1.406635	-1.216373	0.381505
O58	O	1.485907	-0.939841	0.317780
C59	C	1.456340	-0.786102	0.207867
C60	C	1.486168	-0.827893	0.318839
H61	H	1.456563	-0.695589	0.208680
H62	H	1.373839	-0.815913	0.185465
H63	H	1.516616	-0.815879	0.147274
H64	H	1.425964	-0.798134	0.379506
H65	H	1.568696	-0.798091	0.341151
H66	H	1.717406	-0.945451	0.561104
H67	H	1.669813	-0.381279	1.079632
H68	H	0.972144	-0.560522	0.333584
H69	H	1.669647	-1.078338	0.381669
O70	O	1.486015	-0.317632	0.940732
C71	C	1.364050	-0.214437	0.835497
C72	C	1.393831	-0.325281	0.877628
H73	H	1.289505	-0.220581	0.784488
H74	H	1.432143	-0.181759	0.785634
H75	H	1.348419	-0.158892	0.905255
H76	H	1.409445	-0.380906	0.807936
H77	H	1.325721	-0.357872	0.927523
H78	H	1.359198	-0.464506	1.079902
O79	O	1.111219	-0.707726	0.460087
C80	C	1.265019	-0.817531	0.430342
C81	C	1.223166	-0.706634	0.460395
H82	H	1.355532	-0.816691	0.430602
H83	H	1.235243	-0.839770	0.347781
H84	H	1.235254	-0.878259	0.490474
H85	H	1.252914	-0.645832	0.400335
H86	H	1.252933	-0.684486	0.542982
H87	H	1.586329	-0.691742	1.079941
O88	O	1.733546	-0.564833	0.941166
C89	C	1.919522	-0.520129	0.936263
C90	C	1.808560	-0.490324	0.978074
H91	H	1.980205	-0.459917	0.966104
H92	H	1.918759	-0.519947	0.845747
H93	H	1.941760	-0.602647	0.966044
H94	H	1.786254	-0.407801	0.948371
H95	H	1.809382	-0.490579	1.068588
O96	O	0.966729	-0.656046	0.655381
C97	C	0.961339	-0.839721	0.708598
C98	C	1.002996	-0.758233	0.627534
H99	H	0.990662	-0.922354	0.686125
H100	H	0.870825	-0.838813	0.708595
H101	H	0.991753	-0.818300	0.791141
H102	H	0.972661	-0.779598	0.544951
H103	H	1.093509	-0.759156	0.627630
H104	H	1.586224	-1.078518	0.692178
O105	O	1.395659	-0.655587	0.941033
C106	C	1.342192	-0.839217	0.935190
C107	C	1.423325	-0.757857	0.977152
H108	H	1.364518	-0.921917	0.964394
H109	H	1.342294	-0.838151	0.844678
H110	H	1.259646	-0.817795	0.965495
H111	H	1.505910	-0.779223	0.946926
H112	H	1.423130	-0.758939	1.067663
O113	O	1.111405	-0.460485	0.707936
C114	C	1.117538	-0.328372	0.846257
C115	C	1.075400	-0.358085	0.735342
H116	H	1.088427	-0.245591	0.868458
H117	H	1.208048	-0.329306	0.845493
H118	H	1.087273	-0.388270	0.906970
H119	H	1.105587	-0.298217	0.674567
H120	H	0.984892	-0.357186	0.736194
H121	H	1.406905	-0.945788	0.643949
