data_functionalizedCrystal
_audit_creation_method	'MofGen! by Chris Wilmer'
_symmetry_space_group_name_H-M	'P1'
_symmetry_Int_Tables_number	1
_symmetry_cell_setting	triclinic
loop_
_symmetry_equiv_pos_as_xyz
  x,y,z
_cell_length_a	15.186229
_cell_length_b	10.654550
_cell_length_c	10.654551
_cell_angle_alpha	95.514820
_cell_angle_beta	90.001981
_cell_angle_gamma	89.999884
loop_
_atom_site_label
_atom_site_type_symbol
_atom_site_fract_x
_atom_site_fract_y
_atom_site_fract_z
O1	O	0.073159	-1.667840	0.176397
O2	O	0.073175	-1.302362	0.193203
O3	O	0.073165	-1.493503	0.002061
O4	O	0.073169	-1.476699	0.367539
O5	O	-0.073293	-1.493490	0.002058
O6	O	-0.073282	-1.302349	0.193201
O7	O	-0.073298	-1.667827	0.176394
Zn8	Zn	-0.096543	-1.485086	0.184797
Zn9	Zn	0.096420	-1.485103	0.184801
O10	O	-0.073288	-1.476686	0.367537
C11	C	-0.000052	-1.255557	0.191968
C12	C	-0.000046	-1.116114	0.188276
N13	N	-0.228236	-1.485084	0.184794
C14	C	-0.000062	-1.492262	-0.044738
C15	C	-0.000058	-1.488570	-0.184181
C16	C	-0.453964	-1.569750	0.100185
C17	C	-0.546153	-1.569754	0.100182
C18	C	-0.546153	-1.400439	0.269407
C19	C	-0.453965	-1.400430	0.269403
C20	C	-0.407873	-1.485093	0.184793
C21	C	-0.592250	-1.485106	0.184795
C22	C	-0.692207	-1.485109	0.184792
C23	C	-0.307910	-1.485088	0.184794
N24	N	0.228113	-1.485115	0.184794
C25	C	-0.000070	-1.714632	0.177630
C26	C	-0.000070	-1.854075	0.181322
C27	C	-0.000047	-1.036629	0.300818
C28	C	-0.000062	-0.905608	0.297341
C29	C	-0.000071	-0.933570	0.068772
C30	C	-0.000062	-1.064589	0.072249
C31	C	0.079777	-1.486844	-0.249684
C32	C	0.079778	-1.483364	-0.380704
C33	C	-0.079898	-1.483341	-0.380709
C34	C	-0.079898	-1.486812	-0.249690
C35	C	-0.000059	-1.477926	0.414336
C36	C	-0.000057	-1.481619	0.553779
H37	H	-0.416437	-1.638686	0.031289
F38	F	0.164749	-1.488710	-0.179968
H39	H	0.144787	-1.481956	-0.434030
F40	F	-0.595203	-1.659855	0.010128
H41	H	-0.144901	-1.481913	-0.434062
F42	F	-0.404908	-1.310317	0.359454
F43	F	-0.595214	-1.310343	0.359453
F44	F	-0.000032	-1.091462	0.424303
F45	F	-0.000086	-0.878721	-0.054705
F46	F	-0.000067	-1.149188	-0.047539
F47	F	-0.164874	-1.488638	-0.179972
F48	F	-0.000065	-0.821019	0.417124
