data_functionalizedCrystal
_audit_creation_method	'MofGen! by Chris Wilmer'
_symmetry_space_group_name_H-M	'P1'
_symmetry_Int_Tables_number	1
_symmetry_cell_setting	triclinic
loop_
_symmetry_equiv_pos_as_xyz
  x,y,z
_cell_length_a	12.645331
_cell_length_b	12.594516
_cell_length_c	12.645323
_cell_angle_alpha	89.976054
_cell_angle_beta	89.977324
_cell_angle_gamma	90.015032
loop_
_atom_site_label
_atom_site_type_symbol
_atom_site_fract_x
_atom_site_fract_y
_atom_site_fract_z
Zn1	Zn	1.620743	-0.423763	-0.599453
Zn2	Zn	1.620630	-0.601766	-0.422196
Zn3	Zn	1.443458	-0.423799	-0.422197
Zn4	Zn	1.443445	-0.601696	-0.599411
O5	O	1.532069	-0.512756	-0.510814
O6	O	1.769076	-0.447389	-0.575956
O7	O	1.597086	-0.578202	-0.273849
O8	O	1.467028	-0.274848	-0.445729
O9	O	1.768992	-0.578167	-0.445726
O10	O	1.597279	-0.274822	-0.575958
O11	O	1.466918	-0.447451	-0.273850
O12	O	1.295109	-0.447383	-0.445688
O13	O	1.467006	-0.578049	-0.747764
O14	O	1.295099	-0.578084	-0.575887
O15	O	1.597266	-0.447322	-0.747795
O16	O	1.597073	-0.750702	-0.445686
O17	O	1.466896	-0.750651	-0.575885
C18	C	1.256639	-0.512731	-0.510784
C19	C	1.138809	-0.512745	-0.510796
C20	C	1.532000	-0.789297	-0.510804
C21	C	1.532067	-0.907602	-0.510835
C22	C	0.971216	-0.430143	-0.429340
C23	C	1.093776	-0.430357	-0.428981
C24	C	1.094292	-0.624870	-0.480283
C25	C	0.971694	-0.624419	-0.479727
C26	C	0.971659	-0.484290	-0.623079
C27	C	1.094265	-0.481785	-0.622456
C28	C	1.461256	-0.976866	-0.581601
C29	C	1.435425	-1.047727	-0.484868
C30	C	1.557995	-1.047540	-0.607584
C31	C	1.506184	-0.976905	-0.414051
C32	C	1.628799	-0.976712	-0.536833
C33	C	1.603004	-1.047541	-0.440033
C34	C	1.808574	-0.512782	-0.510846
C35	C	1.926404	-0.512793	-0.510859
C36	C	1.532147	-0.512674	-0.787320
C37	C	1.532180	-0.512639	-0.905150
C38	C	1.532168	-0.235135	-0.510848
C39	C	1.532210	-0.116830	-0.510862
C40	C	1.449981	-0.594491	-1.072695
C41	C	1.450196	-0.594897	-0.950135
C42	C	1.643881	-0.543081	-0.949670
C43	C	1.643430	-0.543595	-1.072269
C44	C	1.503736	-0.399885	-1.072346
C45	C	1.501244	-0.400561	-0.949740
C46	C	1.532052	-0.512761	-0.235385
C47	C	1.532224	-0.512496	-0.117555
H48	H	1.123874	-0.347212	-0.448106
C49	C	1.336036	-0.573592	-1.223095
C50	C	1.337826	-0.569022	-1.112474
H51	H	1.266793	-0.557872	-1.247656
H52	H	1.384477	-0.523210	-1.251038
H53	H	1.355608	-0.642803	-1.245610
H54	H	1.318262	-0.499808	-1.089959
H55	H	1.289369	-0.619406	-1.084520
C56	C	1.020280	-0.676803	-0.303750
C57	C	0.933015	-0.657038	-0.368977
H58	H	0.996403	-0.696933	-0.235375
H59	H	1.061496	-0.732501	-0.333146
H60	H	1.062113	-0.614371	-0.298482
H61	H	0.891186	-0.719473	-0.374252
H62	H	0.891782	-0.601335	-0.339575
H63	H	1.423702	-0.372136	-1.103250
H64	H	0.941749	-0.346749	-0.448260
H65	H	1.367366	-0.575846	-0.920033
C66	C	1.015193	-0.306890	-0.677422
C67	C	0.929954	-0.375842	-0.660548
H68	H	0.989443	-0.239939	-0.700550
H69	H	1.053328	-0.298119	-0.613320
H70	H	1.060608	-0.335845	-0.729854
H71	H	0.884543	-0.346890	-0.608110
H72	H	0.891802	-0.384610	-0.724658
C73	C	1.695762	-0.720217	-1.023612
C74	C	1.676016	-0.654726	-1.110903
H75	H	1.715871	-0.788827	-1.047462
H76	H	1.751211	-0.690630	-0.982417
H77	H	1.633586	-0.725620	-0.981767
H78	H	1.738195	-0.649316	-1.152743
H79	H	1.620563	-0.684319	-1.152115
C80	C	1.432353	-0.873698	-0.738663
C81	C	1.380283	-0.934965	-0.662274
H82	H	1.382361	-0.847835	-0.788466
H83	H	1.466622	-0.815533	-0.705347
H84	H	1.483378	-0.916182	-0.773995
H85	H	1.329262	-0.892478	-0.626937
H86	H	1.345996	-0.993138	-0.695594
H87	H	1.662947	-1.078377	-0.380132
C88	C	0.819004	-0.450314	-0.317523
C89	C	0.929619	-0.455385	-0.317741
H90	H	0.793341	-0.465937	-0.248629
H91	H	0.797085	-0.381010	-0.337445
H92	H	0.791570	-0.500572	-0.366336
H93	H	0.957054	-0.405121	-0.268933
H94	H	0.951548	-0.524699	-0.297805
C95	C	1.401325	-0.778778	-1.073787
C96	C	1.475111	-0.706491	-1.114297
H97	H	1.416840	-0.847919	-1.099478
H98	H	1.404802	-0.778682	-0.998757
H99	H	1.332291	-0.758765	-1.095670
H100	H	1.544145	-0.726500	-1.092407
H101	H	1.471645	-0.706591	-1.189343
C102	C	1.326592	-1.201011	-0.454586
C103	C	1.325080	-1.089845	-0.455187
H104	H	1.258469	-1.227007	-0.436261
H105	H	1.345441	-1.226226	-0.522815
H106	H	1.376880	-1.225190	-0.404258
H107	H	1.274797	-1.065666	-0.505521
H108	H	1.306217	-1.064620	-0.386948
C109	C	1.192146	-0.498726	-0.784311
C110	C	1.135656	-0.557122	-0.708837
H111	H	1.217706	-0.545245	-0.837631
H112	H	1.146950	-0.447169	-0.815316
H113	H	1.250107	-0.464175	-0.751170
H114	H	1.077690	-0.591667	-0.741976
H115	H	1.180855	-0.608698	-0.677829
H116	H	1.484217	-0.946006	-0.332220
C117	C	1.532349	-0.238650	-1.169635
C118	C	1.584591	-0.317407	-1.111510
H119	H	1.582269	-0.187736	-1.193810
H120	H	1.497911	-0.270068	-1.228577
H121	H	1.481448	-0.204722	-1.125930
H122	H	1.635488	-0.351340	-1.155218
H123	H	1.619047	-0.285986	-1.052560
C124	C	1.807053	-1.020171	-0.585864
C125	C	1.739116	-0.934565	-0.566551
H126	H	1.875156	-0.994147	-0.604226
H127	H	1.812174	-1.062759	-0.524072
H128	H	1.779910	-1.061653	-0.642407
H129	H	1.766255	-0.893087	-0.510003
H130	H	1.733998	-0.891959	-0.628350
C131	C	1.244040	-0.456115	-0.315840
C132	C	1.133313	-0.455799	-0.316723
H133	H	1.268445	-0.471819	-0.246532
H134	H	1.269310	-0.508441	-0.363645
H135	H	1.269457	-0.388288	-0.336729
H136	H	1.107896	-0.523628	-0.295842
H137	H	1.108032	-0.403470	-0.268901
H138	H	1.469003	-0.678380	-0.920822
C139	C	1.588217	-1.200596	-0.716621
C140	C	1.587527	-1.089428	-0.718021
H141	H	1.606436	-1.226450	-0.784803
H142	H	1.638644	-1.224785	-0.666452
H143	H	1.520030	-1.225943	-0.697675
H144	H	1.655716	-1.064080	-0.736959
H145	H	1.537098	-1.065229	-0.768206
H146	H	0.942051	-0.688084	-0.536513
C147	C	1.046919	-0.758150	-0.607452
C148	C	1.133673	-0.710230	-0.557913
H149	H	1.071235	-0.810841	-0.655382
H150	H	1.002877	-0.790175	-0.555598
H151	H	1.007818	-0.705931	-0.644988
H152	H	1.172769	-0.762449	-0.520371
H153	H	1.177732	-0.678206	-0.609774
H154	H	1.706786	-0.486466	-1.101946
C155	C	1.545904	-0.215256	-0.949963
C156	C	1.576196	-0.313721	-0.908405
H157	H	1.592180	-0.161647	-0.924438
H158	H	1.549438	-0.217667	-1.024955
H159	H	1.475554	-0.199669	-0.928666
H160	H	1.646544	-0.329311	-0.929709
H161	H	1.572673	-0.311312	-0.833397
H162	H	1.706802	-0.485249	-0.920534
C163	C	1.323334	-0.354216	-0.997302
C164	C	1.390276	-0.369564	-0.910454
H165	H	1.254827	-0.335090	-0.973041
H166	H	1.350736	-0.299112	-1.040691
H167	H	1.319029	-0.418047	-1.037064
H168	H	1.394587	-0.305730	-0.870696
H169	H	1.362867	-0.424672	-0.867047
C170	C	0.973231	-0.539542	-0.804786
C171	C	0.932539	-0.565546	-0.705082
H172	H	0.949079	-0.589713	-0.855401
H173	H	0.949913	-0.470580	-0.824291
H174	H	1.048301	-0.540717	-0.802285
H175	H	0.857468	-0.564364	-0.707581
H176	H	0.955851	-0.634526	-0.685573
H177	H	1.668442	-0.624540	-0.918983
H178	H	1.124948	-0.649457	-0.399125
H179	H	1.123366	-0.399274	-0.645464
