data_functionalizedCrystal
_audit_creation_method	'MofGen! by Chris Wilmer'
_symmetry_space_group_name_H-M	'P1'
_symmetry_Int_Tables_number	1
_symmetry_cell_setting	triclinic
loop_
_symmetry_equiv_pos_as_xyz
  x,y,z
_cell_length_a	23.532407
_cell_length_b	15.944493
_cell_length_c	15.021413
_cell_angle_alpha	89.993251
_cell_angle_beta	89.999348
_cell_angle_gamma	83.161861
loop_
_atom_site_label
_atom_site_type_symbol
_atom_site_fract_x
_atom_site_fract_y
_atom_site_fract_z
O1	O	0.073285	1.113942	-0.074030
O2	O	0.573285	1.613942	0.425970
O3	O	0.082375	0.869309	-0.074035
O4	O	0.582375	1.369309	0.425965
O5	O	-0.005074	0.999002	-0.074016
O6	O	0.494926	1.499002	0.425984
O7	O	0.160734	0.984248	-0.074049
O8	O	0.660734	1.484248	0.425951
O9	O	-0.005062	0.998981	0.074048
O10	O	0.494938	1.498981	0.574048
O11	O	0.082388	0.869288	0.074029
O12	O	0.582388	1.369288	0.574029
O13	O	0.073298	1.113921	0.074035
O14	O	0.573298	1.613921	0.574035
Zn15	Zn	0.077845	0.991601	0.097540
Zn16	Zn	0.577845	1.491601	0.597540
Zn17	Zn	0.077828	0.991628	-0.097541
Zn18	Zn	0.577828	1.491628	0.402459
O19	O	0.160747	0.984228	0.074015
O20	O	0.660747	1.484228	0.574015
C21	C	0.082010	0.838007	-0.000003
C22	C	0.582010	1.338007	0.499997
C23	C	0.080896	0.744768	-0.000005
C24	C	0.580896	1.244768	0.499995
C25	C	0.132371	0.508574	-0.000016
C26	C	0.632371	1.008574	0.499984
C27	C	0.104619	0.458239	0.072997
C28	C	0.604619	0.958239	0.572997
C29	C	0.078832	0.574064	-0.000003
C30	C	0.578832	1.074064	0.499997
C31	C	0.104594	0.458264	-0.072983
C32	C	0.604594	0.958264	0.427017
C33	C	0.076843	0.409171	-0.000004
C34	C	0.576843	0.909171	0.499996
C35	C	0.051095	0.524957	0.073070
C36	C	0.551095	1.024957	0.573070
C37	C	0.051077	0.524986	-0.072975
C38	C	0.551077	1.024986	0.427025
C39	C	0.023286	0.474684	0.000056
C40	C	0.523286	0.974684	0.500056
C41	C	0.079980	0.669054	-0.000001
C42	C	0.579980	1.169054	0.499999
C43	C	0.075691	0.314184	0.000000
C44	C	0.575691	0.814184	0.500000
C45	C	-0.026285	0.998616	0.000019
C46	C	0.473715	1.498616	0.500019
C47	C	-0.089506	0.997486	0.000025
C48	C	0.410494	1.497486	0.500025
C49	C	-0.488350	1.067151	-0.000022
C50	C	0.011650	1.567151	0.499978
C51	C	-0.547754	1.066102	-0.000029
C52	C	-0.047754	1.566102	0.499971
O53	O	-0.584257	1.130682	-0.000060
O54	O	-0.084257	1.630682	0.499940
N55	N	-0.570668	0.988999	-0.000030
N56	N	-0.070668	1.488999	0.499970
C57	C	-0.534174	0.912941	-0.000033
C58	C	-0.034174	1.412941	0.499967
O59	O	-0.559119	0.847263	-0.000035
O60	O	-0.059119	1.347263	0.499965
C61	C	-0.474771	0.913991	-0.000033
C62	C	0.025229	1.413991	0.499967
C63	C	-0.451861	0.991099	-0.000023
C64	C	0.048139	1.491099	0.499977
C65	C	-0.465439	1.144253	-0.000013
C66	C	0.034561	1.644253	0.499987
C67	C	-0.406038	1.145302	-0.000004
C68	C	0.093962	1.645302	0.499996
C69	C	-0.369549	1.069249	-0.000005
C70	C	0.130451	1.569249	0.499995
C71	C	-0.392460	0.992148	-0.000014
C72	C	0.107540	1.492148	0.499986
C73	C	-0.438278	0.837934	-0.000042
C74	C	0.061722	1.337934	0.499958
C75	C	-0.378872	0.838991	-0.000043
C76	C	0.121128	1.338991	0.499957
C77	C	-0.355962	0.916098	-0.000033
C78	C	0.144038	1.416098	0.499967
C79	C	-0.296571	0.917144	-0.000006
C80	C	0.203429	1.417144	0.499994
N81	N	-0.273657	0.994247	-0.000005
N82	N	0.226343	1.494247	0.499995
C83	C	-0.310146	1.070300	-0.000005
C84	C	0.189854	1.570300	0.499995
C85	C	-0.658925	0.910741	-0.000036
C86	C	-0.158925	1.410741	0.499964
C87	C	-0.718327	0.909690	-0.000030
C88	C	-0.218327	1.409690	0.499970
C89	C	-0.731902	1.062852	-0.000027
C90	C	-0.231902	1.562852	0.499973
C91	C	-0.672499	1.063902	-0.000026
C92	C	-0.172499	1.563902	0.499974
C93	C	-0.636011	0.987844	-0.000034
C94	C	-0.136011	1.487844	0.499966
C95	C	-0.185401	1.072497	0.000014
C96	C	0.314599	1.572497	0.500014
C97	C	-0.125996	1.073539	0.000026
C98	C	0.374004	1.573539	0.500026
C99	C	-0.112425	0.920378	0.000019
C100	C	0.387575	1.420378	0.500019
C101	C	-0.171826	0.919335	0.000011
C102	C	0.328174	1.419335	0.500011
C103	C	-0.208313	0.995402	0.000006
C104	C	0.291687	1.495402	0.500006
O105	O	-0.260033	0.852598	0.000021
O106	O	0.239967	1.352598	0.500021
O107	O	-0.285193	1.135967	-0.000014
O108	O	0.214807	1.635967	0.499986
C109	C	0.181958	0.984614	-0.000021
C110	C	0.681958	1.484614	0.499979
C111	C	0.245179	0.985743	-0.000034
C112	C	0.745179	1.485743	0.499966
C113	C	0.073663	1.145223	0.000001
C114	C	0.573663	1.645223	0.500001
C115	C	0.074777	1.238462	-0.000003
C116	C	0.574777	1.738462	0.499997
N117	N	0.077855	0.991589	0.230678
N118	N	0.577855	1.491589	0.730678
N119	N	0.077813	0.991648	-0.230678
N120	N	0.577813	1.491648	0.269322
C121	C	0.118273	0.931610	0.470352
C122	C	0.618273	1.431610	0.970352
C123	C	0.129319	1.007419	0.529686
C124	C	0.629319	1.507419	1.029686
C125	C	0.077841	0.991610	0.412285
C126	C	0.577841	1.491610	0.912285
C127	C	0.066808	0.915822	0.529693
C128	C	0.566808	1.415822	1.029693
C129	C	0.077829	0.991625	0.587709
C130	C	0.577829	1.491625	1.087709
C131	C	0.088912	1.067458	0.470312
C132	C	0.588912	1.567458	0.970312
C133	C	0.026380	0.975811	0.470314
C134	C	0.526380	1.475811	0.970314
C135	C	0.037404	1.051675	0.529621
C136	C	0.537404	1.551675	1.029621
C137	C	0.077850	0.991601	0.311227
C138	C	0.577850	1.491601	0.811227
C139	C	0.077820	0.991643	0.688764
C140	C	0.577820	1.491643	1.188764
H141	H	0.028479	0.554131	-0.134695
H142	H	0.528479	1.054131	0.365305
H143	H	0.127209	0.429144	-0.134700
H144	H	0.627209	0.929144	0.365300
F145	F	0.101169	1.151260	0.436366
F146	F	0.601169	1.651260	0.936366
F147	F	-0.101617	1.155611	0.000036
F148	F	0.398383	1.655611	0.500036
F149	F	0.021567	0.562872	0.153833
F150	F	0.521567	1.062872	0.653833
F151	F	-0.620095	0.829785	-0.000036
F152	F	-0.120095	1.329785	0.499964
H153	H	0.152492	0.880920	0.444329
H154	H	0.652492	1.380920	0.944329
H155	H	-0.022867	0.459607	0.000107
H156	H	0.477133	0.959607	0.500107
H157	H	0.127234	0.429103	0.134714
H158	H	0.627234	0.929103	0.634714
F159	F	-0.007297	1.118075	0.563426
F160	F	0.492703	1.618075	1.063426
H161	H	-0.736975	0.846902	-0.000022
H162	H	-0.236975	1.346902	0.499978
F163	F	-0.224226	1.153455	0.000008
F164	F	0.275774	1.653455	0.500008
H165	H	0.178488	0.523809	0.000043
H166	H	0.678488	1.023809	0.500043
F167	F	-0.030479	0.958296	0.436198
F168	F	0.469521	1.458296	0.936198
H169	H	0.057482	0.851722	0.555779
H170	H	0.557482	1.351722	1.055779
F171	F	0.186194	1.024904	0.563774
F172	F	0.686194	1.524904	1.063774
H173	H	-0.653850	1.126690	-0.000019
H174	H	-0.153850	1.626690	0.499981
F175	F	-0.381663	1.227371	-0.000013
F176	F	0.118337	1.727371	0.499987
F177	F	-0.340041	0.758037	-0.000053
F178	F	0.159959	1.258037	0.499947
F179	F	-0.196210	0.837269	0.000016
F180	F	0.303790	1.337269	0.500016
F181	F	-0.504265	1.225206	-0.000013
F182	F	-0.004265	1.725206	0.499987
H183	H	-0.456921	0.775145	-0.000056
H184	H	0.043079	1.275145	0.499944
F185	F	-0.770747	1.143794	-0.000031
F186	F	-0.270747	1.643794	0.499969
F187	F	-0.073581	0.839442	0.000018
F188	F	0.426419	1.339442	0.500018
