data_functionalizedCrystal
_audit_creation_method	'MofGen! by Chris Wilmer'
_symmetry_space_group_name_H-M	'P1'
_symmetry_Int_Tables_number	1
_symmetry_cell_setting	triclinic
loop_
_symmetry_equiv_pos_as_xyz
  x,y,z
_cell_length_a	10.065875
_cell_length_b	16.992694
_cell_length_c	16.974813
_cell_angle_alpha	92.975366
_cell_angle_beta	95.178525
_cell_angle_gamma	99.345951
loop_
_atom_site_label
_atom_site_type_symbol
_atom_site_fract_x
_atom_site_fract_y
_atom_site_fract_z
O1	O	-0.130450	-1.053411	0.155124
O2	O	-0.130289	-0.825111	0.153301
O3	O	-0.117827	-0.944356	0.040715
O4	O	-0.142912	-0.934166	0.267710
O5	O	0.106776	-0.921618	0.062276
O6	O	0.094313	-0.802374	0.174861
O7	O	0.094152	-1.030673	0.176685
Zn8	Zn	0.129893	-0.912913	0.179196
Zn9	Zn	-0.166030	-0.942871	0.150789
O10	O	0.081690	-0.911429	0.289270
C11	C	-0.017734	-0.784507	0.161739
C12	C	-0.016978	-0.697394	0.154752
N13	N	0.331853	-0.892474	0.198583
N14	N	-0.367989	-0.963317	0.131397
C15	C	0.404176	-0.935754	0.157529
C16	C	0.559691	-0.920030	0.172456
C17	C	-0.002304	-0.932177	0.022316
C18	C	0.007295	-0.929753	-0.064631
C19	C	-0.018405	-1.071278	0.168246
C20	C	-0.019171	-1.158392	0.175232
C21	C	-0.024425	-0.647833	0.222153
C22	C	-0.023681	-0.565979	0.215586
C23	C	-0.015498	-0.533687	0.141617
C24	C	-0.008046	-0.583253	0.074212
C25	C	-0.008781	-0.665105	0.080780
C26	C	-0.012453	-0.289810	0.114395
C27	C	-0.011723	-0.207952	0.107832
C28	C	-0.027355	-0.190683	0.249207
C29	C	-0.028097	-0.272539	0.255767
C30	C	-0.020638	-0.322097	0.188363
N31	N	-0.014741	-0.450018	0.134903
N32	N	-0.021386	-0.405763	0.195079
C33	C	-0.110626	-0.941011	-0.117227
C34	C	-0.101602	-0.938728	-0.198922
C35	C	0.025343	-0.925194	-0.228020
C36	C	0.143272	-0.913933	-0.175418
C37	C	0.134247	-0.916210	-0.093724
C38	C	0.065462	-0.917049	-0.471088
C39	C	0.074477	-0.914775	-0.552789
C40	C	-0.170398	-0.939569	-0.576287
C41	C	-0.179411	-0.941849	-0.494591
C42	C	-0.061482	-0.930585	-0.441995
N43	N	0.034569	-0.922863	-0.311526
N44	N	-0.070710	-0.932910	-0.358491
C45	C	-0.033835	-0.923608	0.307669
C46	C	-0.043443	-0.926032	0.394615
H47	H	0.350966	-0.984447	0.111328
H48	H	-0.029747	-0.525630	0.270471
Cl49	Cl	-0.249853	-0.952882	-0.265040
H50	H	0.612898	-0.871328	0.218655
H51	H	0.578805	-1.012012	0.085192
H52	H	-0.001365	-0.556952	0.013987
Cl53	Cl	-0.038393	-0.313129	0.348760
H54	H	0.385066	-0.843776	0.244778
Cl55	Cl	-0.034721	-0.688421	0.315146
H56	H	-0.033425	-0.150324	0.304084
H57	H	-0.005061	-0.181664	0.047594
H58	H	-0.282783	-0.952871	-0.470906
Cl59	Cl	-0.003077	-0.352102	0.029657
H60	H	-0.002717	-0.705457	0.025895
Cl61	Cl	-0.270222	-0.958031	-0.080656
Cl62	Cl	-0.318641	-0.953727	-0.642411
H63	H	0.246633	-0.902908	-0.199116
Cl64	Cl	0.213717	-0.902875	-0.404978
H65	H	0.230270	-0.907032	-0.050899
Cl66	Cl	0.234077	-0.897764	-0.589368
