data_functionalizedCrystal
_audit_creation_method	'MofGen! by Chris Wilmer'
_symmetry_space_group_name_H-M	'P1'
_symmetry_Int_Tables_number	1
_symmetry_cell_setting	triclinic
loop_
_symmetry_equiv_pos_as_xyz
  x,y,z
_cell_length_a	17.699104
_cell_length_b	8.597304
_cell_length_c	16.776229
_cell_angle_alpha	97.706479
_cell_angle_beta	90.008029
_cell_angle_gamma	84.318364
loop_
_atom_site_label
_atom_site_type_symbol
_atom_site_fract_x
_atom_site_fract_y
_atom_site_fract_z
O1	O	1.005715	0.198623	0.079942
O2	O	0.785553	0.224410	0.081711
O3	O	0.899966	-0.016967	0.065133
O4	O	0.891303	0.440001	0.096520
O5	O	0.899950	-0.016982	-0.067444
O6	O	0.785538	0.224395	-0.050866
O7	O	1.005700	0.198608	-0.052635
Zn8	Zn	0.895616	0.211499	-0.072800
Zn9	Zn	0.895637	0.211519	0.101876
O10	O	0.891287	0.439986	-0.036057
C11	C	0.757341	0.223473	0.015358
C12	C	0.673301	0.220684	0.015166
C13	C	0.149474	0.346641	0.023826
C14	C	0.228439	0.349252	0.024007
C15	C	0.275882	0.207554	0.014275
C16	C	0.244356	0.063236	0.004368
C17	C	0.165391	0.060627	0.004192
C18	C	0.562809	0.073755	0.005077
C19	C	0.641778	0.076376	0.005251
C20	C	0.625857	0.362380	0.024893
C21	C	0.546893	0.359771	0.024717
C22	C	0.515373	0.215454	0.014814
C23	C	0.429750	0.212625	0.014619
C24	C	0.361504	0.210382	0.014464
C25	C	0.899027	-0.075443	-0.005170
C26	C	0.896244	-0.249661	-0.017131
C27	C	1.033912	0.199545	0.013720
C28	C	1.117953	0.202334	0.013917
C29	C	0.892226	0.498462	0.034248
C30	C	0.895009	0.672679	0.046214
N31	N	0.895608	0.211485	-0.192012
C32	C	0.946286	0.104647	-0.241067
C33	C	0.946290	0.104646	-0.324520
C34	C	0.895619	0.211491	-0.358915
C35	C	0.844936	0.318335	-0.309854
C36	C	0.844929	0.318327	-0.226404
C37	C	0.844963	0.318365	-0.646399
C38	C	0.844976	0.318368	-0.729855
C39	C	0.946325	0.104684	-0.744515
C40	C	0.946318	0.104676	-0.661065
C41	C	0.895632	0.211513	-0.612011
C42	C	0.895627	0.211512	-0.521523
C43	C	0.895627	0.211502	-0.449401
N44	N	0.895651	0.211521	0.221088
H45	H	0.282990	-0.052137	-0.003552
F46	F	1.000221	-0.009068	-0.204469
F47	F	0.894832	-0.336966	-0.099991
F48	F	1.000226	-0.009065	-0.376728
F49	F	1.000250	-0.009037	-0.624462
F50	F	1.000268	-0.009028	-0.796728
H51	H	0.254100	0.466761	0.032083
H52	H	0.110851	0.462028	0.031745
F53	F	0.896410	-0.240020	0.129070
H54	H	0.537156	-0.043756	-0.002988
F55	F	0.496404	0.510585	0.035074
F56	F	0.692269	-0.074446	-0.005107
F57	F	0.791042	0.432092	-0.766459
H58	H	0.803695	0.405358	-0.606466
F59	F	0.791004	0.432042	-0.346461
F60	F	0.131845	-0.092964	-0.006354
H61	H	0.651529	0.479891	0.032960
F62	F	0.790988	0.432035	-0.174197
