data_functionalizedCrystal
_audit_creation_method	'MofGen! by Chris Wilmer'
_symmetry_space_group_name_H-M	'P1'
_symmetry_Int_Tables_number	1
_symmetry_cell_setting	triclinic
loop_
_symmetry_equiv_pos_as_xyz
  x,y,z
_cell_length_a	19.077105
_cell_length_b	13.897448
_cell_length_c	19.077174
_cell_angle_alpha	92.273651
_cell_angle_beta	85.483752
_cell_angle_gamma	87.714101
loop_
_atom_site_label
_atom_site_type_symbol
_atom_site_fract_x
_atom_site_fract_y
_atom_site_fract_z
Zn1	Zn	1.093747	-0.468678	-0.441851
Zn2	Zn	1.088946	-0.623231	-0.323966
Zn3	Zn	0.971131	-0.455194	-0.319249
Zn4	Zn	0.975840	-0.623167	-0.437084
O5	O	1.032416	-0.542567	-0.380538
O6	O	1.191761	-0.494849	-0.430183
O7	O	1.069338	-0.595324	-0.224691
O8	O	0.987435	-0.322004	-0.335533
O9	O	1.188233	-0.608398	-0.343573
O10	O	1.077521	-0.331911	-0.425609
O11	O	0.982780	-0.471868	-0.221225
O12	O	0.873105	-0.471807	-0.330910
O13	O	0.995460	-0.608291	-0.536366
O14	O	0.876565	-0.595216	-0.417484
O15	O	1.082087	-0.494788	-0.539869
O16	O	1.073903	-0.758200	-0.338951
O17	O	0.990805	-0.758154	-0.422058
C18	C	0.849256	-0.532042	-0.373168
C19	C	0.770900	-0.527563	-0.370032
C20	C	0.735905	-0.589801	-0.413562
C21	C	0.662281	-0.585580	-0.410619
C22	C	0.623654	-0.519126	-0.364142
C23	C	0.658654	-0.456882	-0.320610
C24	C	0.732276	-0.461098	-0.323557
C25	C	0.403271	-0.499610	-0.350505
C26	C	0.329643	-0.495400	-0.347559
C27	C	0.333276	-0.624098	-0.437569
C28	C	0.406899	-0.628313	-0.440509
C29	C	0.441893	-0.566065	-0.396980
N30	N	0.548398	-0.514812	-0.361131
N31	N	0.517147	-0.570375	-0.399996
C32	C	1.032364	-0.793178	-0.380515
C33	C	1.032407	-0.900395	-0.380532
C34	C	1.032483	-1.096697	-0.380579
C35	C	1.032439	-0.987460	-0.380555
C36	C	1.216291	-0.553135	-0.387936
C37	C	1.294648	-0.557638	-0.391089
C38	C	1.039834	-0.553036	-0.564412
C39	C	1.042996	-0.557497	-0.642768
C40	C	1.032488	-0.290981	-0.380576
C41	C	1.032519	-0.183769	-0.380593
C42	C	0.999417	-0.495318	-0.677775
C43	C	1.002384	-0.499517	-0.751398
C44	C	1.048935	-0.565893	-0.790014
C45	C	1.092516	-0.628079	-0.755002
C46	C	1.089544	-0.623883	-0.681380
C47	C	1.062652	-0.585338	-1.010396
C48	C	1.065621	-0.589527	-1.084023
C49	C	0.975489	-0.460966	-1.080415
C50	C	0.972524	-0.456772	-1.006791
C51	C	1.016102	-0.518962	-0.971785
N52	N	1.051971	-0.570185	-0.865270
N53	N	1.013062	-0.514673	-0.896531
C54	C	1.025067	-0.532072	-0.197381
C55	C	1.022043	-0.527347	-0.119030
H56	H	0.304776	-0.674775	-0.473009
C57	C	1.109938	-0.653005	-0.972488
C58	C	1.095301	-0.748580	-0.989781
C59	C	1.138859	-0.810942	-0.954880
H60	H	1.101551	-0.641143	-0.923101
H61	H	1.157805	-0.642348	-0.986483
H62	H	1.047446	-0.759233	-0.975783
H63	H	1.103692	-0.760473	-1.039162
H64	H	1.186726	-0.800285	-0.968875
H65	H	1.130469	-0.799071	-0.905495
H66	H	1.128939	-0.875796	-0.966614
C67	C	0.287778	-0.423296	-0.296996
C68	C	0.302854	-0.441163	-0.227930
C69	C	0.264303	-0.374757	-0.181339
H70	H	0.238907	-0.429647	-0.301388
H71	H	0.300283	-0.359772	-0.307844
H72	H	0.290345	-0.504670	-0.217085
H73	H	0.351717	-0.434804	-0.223515
H74	H	0.276808	-0.311234	-0.192187
H75	H	0.215435	-0.381114	-0.185737
H76	H	0.274532	-0.386865	-0.134473
C77	C	1.143168	-0.700090	-0.796841
C78	C	1.212199	-0.682092	-0.781726
C79	C	1.258880	-0.748416	-0.820247
H80	H	1.138794	-0.693750	-0.845717
H81	H	1.132386	-0.763637	-0.784337
H82	H	1.222978	-0.618562	-0.794235
H83	H	1.216595	-0.688440	-0.732858
H84	H	1.248098	-0.811963	-0.807743
H85	H	1.254500	-0.742070	-0.869120
H86	H	1.305722	-0.736219	-0.809992
C87	C	0.441304	-0.431928	-0.303361
C88	C	0.485188	-0.374867	-0.345048
C89	C	0.520233	-0.312498	-0.301643
H90	H	0.468828	-0.468545	-0.273738
H91	H	0.407778	-0.391695	-0.275270
H92	H	0.518710	-0.415096	-0.373128
H93	H	0.457682	-0.338230	-0.374671
H94	H	0.486707	-0.272264	-0.273551
H95	H	0.547753	-0.349122	-0.272021
H96	H	0.550008	-0.273768	-0.329921
C97	C	0.770314	-0.393417	-0.276412
C98	C	0.814199	-0.336357	-0.318099
C99	C	0.849241	-0.273984	-0.274694
H100	H	0.797838	-0.430031	-0.246786
H101	H	0.736787	-0.353183	-0.248322
H102	H	0.847721	-0.376586	-0.346176
H103	H	0.786693	-0.299722	-0.347724
H104	H	0.815714	-0.233750	-0.246604
H105	H	0.876761	-0.310606	-0.245070
H106	H	0.879016	-0.235255	-0.302972
C107	C	0.777716	-0.661986	-0.464097
C108	C	0.731307	-0.715568	-0.501602
C109	C	0.769796	-0.782063	-0.548171
H110	H	0.805339	-0.704155	-0.438307
H111	H	0.807676	-0.628571	-0.496047
H112	H	0.701359	-0.748981	-0.469657
H113	H	0.703683	-0.673425	-0.527407
H114	H	0.799756	-0.748648	-0.580121
H115	H	0.797418	-0.824226	-0.522375
H116	H	0.738314	-0.818420	-0.573629
C117	C	0.624257	-0.653003	-0.457965
C118	C	0.583852	-0.598652	-0.501549
C119	C	0.548825	-0.660733	-0.545182
H120	H	0.594379	-0.691810	-0.429874
H121	H	0.657789	-0.693170	-0.486102
H122	H	0.550323	-0.558502	-0.473415
H123	H	0.613713	-0.559848	-0.529655
H124	H	0.582357	-0.700900	-0.573319
H125	H	0.518950	-0.699537	-0.517085
H126	H	0.521411	-0.623866	-0.574764
C127	C	1.136820	-0.691553	-0.643456
C128	C	1.122174	-0.787124	-0.660746
C129	C	1.165714	-0.849493	-0.625832
H130	H	1.128425	-0.679683	-0.594070
H131	H	1.184691	-0.680910	-0.657442
H132	H	1.074314	-0.797763	-0.646756
H133	H	1.130572	-0.799024	-0.710125
H134	H	1.213585	-0.838851	-0.639817
H135	H	1.157316	-0.837615	-0.576447
H136	H	1.155787	-0.914345	-0.637563
H137	H	0.934616	-0.402725	-0.975355
C138	C	0.928054	-0.393501	-1.118327
C139	C	0.857577	-0.409462	-1.097592
C140	C	0.813856	-0.347322	-1.132494
H141	H	0.936392	-0.405437	-1.167711
H142	H	0.937859	-0.328577	-1.106670
H143	H	0.847776	-0.474370	-1.109254
H144	H	0.849217	-0.397519	-1.048214
H145	H	0.823661	-0.282399	-1.120838
H146	H	0.822201	-0.359264	-1.181877
H147	H	0.766033	-0.358137	-1.118426
H148	H	1.103532	-0.643579	-1.115463
H149	H	0.438345	-0.682429	-0.478354
H150	H	0.627198	-0.402769	-0.282770
H151	H	0.961514	-0.441263	-0.646339
H152	H	0.966895	-0.448888	-0.779897
