data_functionalizedCrystal
_audit_creation_method	'MofGen! by Chris Wilmer'
_symmetry_space_group_name_H-M	'P1'
_symmetry_Int_Tables_number	1
_symmetry_cell_setting	triclinic
loop_
_symmetry_equiv_pos_as_xyz
  x,y,z
_cell_length_a	6.817900
_cell_length_b	10.773890
_cell_length_c	14.858572
_cell_angle_alpha	96.150028
_cell_angle_beta	104.524003
_cell_angle_gamma	96.645716
loop_
_atom_site_label
_atom_site_type_symbol
_atom_site_fract_x
_atom_site_fract_y
_atom_site_fract_z
V1	V	-4.003650	-0.173375	-0.288438
O2	O	-4.027117	0.007524	-0.284507
O3	O	-3.921170	-0.342997	-0.284966
O4	O	-3.960753	-0.171063	-0.414920
O5	O	-3.987260	-0.165601	-0.153653
V6	V	-4.490981	-0.151696	-0.272499
O7	O	-4.256556	-0.220931	-0.323403
O8	O	-4.688273	-0.104140	-0.237535
O9	O	-4.350255	0.017926	-0.275971
O10	O	-4.584911	-0.332595	-0.276431
O11	O	-4.624768	-0.159470	-0.407284
O12	O	-4.310672	-0.154008	-0.146017
C13	C	-3.757702	-0.384337	-0.280029
C14	C	-3.771588	-0.523007	-0.278034
C15	C	-3.949814	-0.590879	-0.281501
C16	C	-3.964170	-0.734203	-0.279439
C17	C	-3.808193	-0.165016	-0.445797
C18	C	-3.854177	-0.164247	-0.549187
C19	C	-4.022481	-0.161439	-0.927780
C20	C	-3.975645	-0.162221	-0.822444
C21	C	-3.938330	-0.162845	-0.738487
C22	C	-3.891492	-0.163624	-0.633144
C23	C	-4.177064	0.059259	-0.280906
C24	C	-4.142416	0.197928	-0.282907
C25	C	-4.126573	-0.160060	-0.115135
C26	C	-4.059828	-0.160822	-0.011745
H27	H	-3.629633	-0.571007	-0.273543
H28	H	-4.284390	-0.754082	-0.287407
H29	H	-3.822202	-0.782197	-0.274948
O30	O	-4.119317	-0.533726	-0.287025
C31	C	-4.270761	-0.586515	-0.370109
H32	H	-4.195105	-0.630674	-0.423370
H33	H	-4.382748	-0.662155	-0.353621
C34	C	-4.480035	-0.428111	-0.345778
C35	C	-4.387111	-0.482339	-0.411197
H36	H	-4.551812	-0.363854	-0.371121
H37	H	-4.378008	-0.392548	-0.289800
H38	H	-4.573343	-0.491157	-0.332043
H39	H	-4.293786	-0.419297	-0.424921
H40	H	-4.489125	-0.517889	-0.467178
