data_functionalizedCrystal
_audit_creation_method	'MofGen! by Chris Wilmer'
_symmetry_space_group_name_H-M	'P1'
_symmetry_Int_Tables_number	1
_symmetry_cell_setting	triclinic
loop_
_symmetry_equiv_pos_as_xyz
  x,y,z
_cell_length_a	29.839134
_cell_length_b	10.685741
_cell_length_c	10.686551
_cell_angle_alpha	90.363604
_cell_angle_beta	94.407170
_cell_angle_gamma	85.628446
loop_
_atom_site_label
_atom_site_type_symbol
_atom_site_fract_x
_atom_site_fract_y
_atom_site_fract_z
Zn1	Zn	0.719470	-0.445043	0.748032
Zn2	Zn	0.720315	-0.670945	0.554375
Zn3	Zn	0.639049	-0.461188	0.538242
Zn4	Zn	0.650513	-0.654739	0.764042
O5	O	0.682337	-0.557978	0.651173
O6	O	0.782451	-0.475034	0.722394
O7	O	0.705091	-0.656659	0.376691
O8	O	0.644565	-0.283503	0.552619
O9	O	0.783072	-0.641004	0.580115
O10	O	0.703650	-0.271642	0.706750
O11	O	0.645385	-0.502551	0.364838
O12	O	0.577700	-0.486837	0.568143
O13	O	0.664104	-0.613383	0.937463
O14	O	0.586123	-0.629039	0.734038
O15	O	0.714767	-0.459320	0.925700
O16	O	0.716207	-0.844337	0.595640
O17	O	0.664924	-0.832431	0.749682
C18	C	0.565610	-0.557932	0.651078
C19	C	0.515676	-0.557940	0.651070
C20	C	0.691914	-0.883898	0.676176
C21	C	0.696054	-1.023325	0.686915
C22	C	0.690620	-0.532743	0.978371
C23	C	0.694150	-0.521989	1.117803
C24	C	0.210432	-0.632149	0.737465
C25	C	0.022762	-0.632180	0.737523
O26	O	0.002235	-0.695220	0.810921
N27	N	-0.005102	-0.558017	0.651271
C28	C	0.013955	-0.483835	0.565003
O29	O	-0.014051	-0.420746	0.491649
C30	C	0.201625	-0.483798	0.564951
C31	C	0.229486	-0.557975	0.651201
C32	C	0.238294	-0.706319	0.823709
C33	C	0.285208	-0.706316	0.823689
C34	C	0.304262	-0.632142	0.737425
C35	C	0.276401	-0.557972	0.651181
C36	C	0.220681	-0.409610	0.478690
C37	C	0.267602	-0.409605	0.478687
C38	C	0.295463	-0.483782	0.564937
C39	C	0.342370	-0.483795	0.564897
N40	N	0.370233	-0.557958	0.651150
C41	C	0.351179	-0.632131	0.737414
C42	C	-0.084574	-0.483862	0.565034
C43	C	-0.131491	-0.483872	0.565045
C44	C	-0.122681	-0.632216	0.737568
C45	C	-0.075763	-0.632211	0.737550
C46	C	-0.056710	-0.558024	0.651287
C47	C	0.449704	-0.632120	0.737365
C48	C	0.496622	-0.632114	0.737334
C49	C	0.487808	-0.483766	0.564816
C50	C	0.440894	-0.483776	0.564842
C51	C	0.421843	-0.557957	0.651127
O52	O	0.362927	-0.420778	0.491547
O53	O	0.379193	-0.695190	0.810774
C54	C	0.163518	-0.632152	0.737485
C55	C	0.135657	-0.557982	0.651241
C56	C	0.154710	-0.483809	0.564977
C57	C	0.088739	-0.557993	0.651252
C58	C	0.069686	-0.632166	0.737516
C59	C	0.097549	-0.706329	0.823769
C60	C	0.144464	-0.706326	0.823749
C61	C	0.126847	-0.409646	0.478724
C62	C	0.079932	-0.409656	0.478751
C63	C	0.060879	-0.483830	0.565014
C64	C	0.799519	-0.558026	0.651268
C65	C	0.849455	-0.558046	0.651309
C66	C	0.672735	-0.230784	0.626099
C67	C	0.668643	-0.091353	0.615414
C68	C	0.674109	-0.583025	0.325241
C69	C	0.670656	-0.593425	0.185782
H70	H	0.519305	-0.692522	0.807570
H71	H	0.647843	-0.662815	1.137312
H72	H	0.198004	-0.349211	0.408453
H73	H	0.716967	-0.452604	1.166279
Br74	Br	0.624311	-0.010639	0.499742
Br75	Br	0.212444	-0.806995	0.940799
H76	H	0.307889	-0.766716	0.893925
Br77	Br	0.740391	-0.104037	0.802561
H78	H	0.057251	-0.349255	0.408504
H79	H	0.418207	-0.423378	0.494608
Br80	Br	-0.037956	-0.732883	0.854607
H81	H	-0.138203	-0.692611	0.807807
Br82	Br	0.423856	-0.732793	0.854467
H83	H	-0.069066	-0.423449	0.494782
Br84	Br	-0.169297	-0.383221	0.447969
H85	H	0.503330	-0.423380	0.494578
Br86	Br	0.293456	-0.308913	0.361612
Br87	Br	0.152698	-0.308966	0.361644
Br88	Br	0.071681	-0.807001	0.940832
H89	H	0.167145	-0.766728	0.893983
