data_functionalizedCrystal
_audit_creation_method	'MofGen! by Chris Wilmer'
_symmetry_space_group_name_H-M	'P1'
_symmetry_Int_Tables_number	1
_symmetry_cell_setting	triclinic
loop_
_symmetry_equiv_pos_as_xyz
  x,y,z
_cell_length_a	10.723024
_cell_length_b	27.732048
_cell_length_c	9.798715
_cell_angle_alpha	89.991917
_cell_angle_beta	89.996609
_cell_angle_gamma	83.555262
loop_
_atom_site_label
_atom_site_type_symbol
_atom_site_fract_x
_atom_site_fract_y
_atom_site_fract_z
O1	O	1.654382	0.067789	-0.113499
O2	O	1.290961	0.074278	-0.113505
O3	O	1.483959	0.000707	-0.113476
O4	O	1.461384	0.141360	-0.113528
O5	O	1.483944	0.000707	0.113507
O6	O	1.290947	0.074278	0.113477
O7	O	1.654368	0.067789	0.113483
Zn8	Zn	1.472655	0.071033	0.149519
Zn9	Zn	1.472674	0.071033	-0.149540
O10	O	1.461370	0.141360	0.113454
C11	C	1.244474	0.073806	-0.000014
C12	C	1.105978	0.072393	-0.000016
C13	C	1.029292	0.113559	-0.000032
C14	C	0.886149	0.112100	-0.000033
C15	C	1.483478	-0.017303	0.000019
C16	C	1.482051	-0.070967	0.000030
C17	C	1.587117	-0.409130	-0.000038
C18	C	1.581823	-0.610822	-0.000057
O19	O	1.677898	-0.641481	-0.000115
N20	N	1.467383	-0.630656	-0.000058
C21	C	1.354259	-0.600064	-0.000063
O22	O	1.256800	-0.621562	-0.000078
C23	C	1.359554	-0.398373	-0.000053
C24	C	1.474001	-0.378541	-0.000039
C25	C	1.701554	-0.389298	-0.000025
C26	C	1.702877	-0.338877	-0.000013
C27	C	1.589761	-0.308289	-0.000013
C28	C	1.475324	-0.328121	-0.000026
C29	C	1.246432	-0.367781	-0.000068
C30	C	1.247766	-0.317356	-0.000069
C31	C	1.362213	-0.297524	-0.000054
C32	C	1.363531	-0.247113	-0.000015
N33	N	1.477970	-0.227278	-0.000014
C34	C	1.591085	-0.257867	-0.000014
C35	C	1.351487	-0.705956	-0.000065
C36	C	1.350163	-0.756378	-0.000065
C37	C	1.577727	-0.767133	-0.000062
C38	C	1.579050	-0.716709	-0.000052
C39	C	1.465926	-0.686121	-0.000064
C40	C	1.593854	-0.151980	0.000013
C41	C	1.595166	-0.101555	0.000031
C42	C	1.367603	-0.090805	0.000021
C43	C	1.366290	-0.141226	0.000010
C44	C	1.479425	-0.171813	0.000002
O45	O	1.267507	-0.216425	0.000028
O46	O	1.688531	-0.236359	-0.000029
C47	C	1.585794	-0.459550	-0.000050
C48	C	1.471357	-0.479382	-0.000063
C49	C	1.358241	-0.448793	-0.000064
C50	C	1.470033	-0.529804	-0.000063
C51	C	1.583148	-0.560392	-0.000062
C52	C	1.697587	-0.540558	-0.000062
C53	C	1.698910	-0.490138	-0.000049
C54	C	1.243802	-0.468628	-0.000065
C55	C	1.242489	-0.519048	-0.000075
C56	C	1.355604	-0.549637	-0.000074
C57	C	1.700855	0.068261	-0.000010
C58	C	1.839351	0.069674	-0.000018
C59	C	1.461851	0.159370	-0.000044
C60	C	1.463278	0.213034	-0.000064
N61	N	1.472651	0.071033	0.353618
N62	N	1.472687	0.071030	-0.353640
C63	C	1.553691	0.040006	0.421408
C64	C	1.553711	0.040005	0.578570
H65	H	0.820258	0.147342	-0.000052
H66	H	1.403306	0.097596	0.588073
H67	H	0.905234	0.034430	-0.000013
O68	O	1.239099	-0.775719	-0.000007
C69	C	1.262168	-0.826783	-0.000045
H70	H	1.359764	-0.838300	0.042936
H71	H	1.188986	-0.842512	0.065844
H72	H	1.256408	-0.840830	-0.108942
H73	H	1.623054	0.013442	0.363096
O74	O	1.636433	0.008246	0.647958
C75	C	1.616726	-0.039647	0.613191
H76	H	1.568697	-0.039739	0.509419
H77	H	1.710832	-0.063216	0.608439
H78	H	1.554717	-0.054714	0.693598
H79	H	1.403280	0.097593	0.411932
H80	H	1.065659	0.036068	-0.000037
O81	O	1.706456	-0.082372	-0.000021
C82	C	1.806006	-0.120186	0.000006
H83	H	1.771702	-0.154548	-0.042974
H84	H	1.885971	-0.109376	-0.065890
H85	H	1.840845	-0.127211	0.108900
O86	O	1.811362	-0.419057	0.000159
C87	C	1.817421	-0.448541	0.117736
H88	H	1.718434	-0.451434	0.156919
H89	H	1.864667	-0.486271	0.091305
H90	H	1.874059	-0.431760	0.200057
O91	O	1.077233	0.156926	-0.000228
C92	C	1.035992	0.183370	-0.117813
H93	H	0.945923	0.169949	-0.157004
H94	H	1.017291	0.223564	-0.091389
H95	H	1.111410	0.177982	-0.200125
O96	O	1.687724	-0.796781	-0.000009
C97	C	1.789029	-0.768470	-0.000054
H98	H	1.756635	-0.730952	0.042929
H99	H	1.868223	-0.786810	0.065830
H100	H	1.824146	-0.764756	-0.108954
O101	O	1.703671	-0.181737	0.000193
C102	C	1.709728	-0.211224	0.117763
H103	H	1.610740	-0.214118	0.156944
H104	H	1.756973	-0.248954	0.091324
H105	H	1.766367	-0.194446	0.200089
H106	H	1.672242	-0.700566	-0.000041
O107	O	1.814085	-0.319641	-0.000254
C108	C	1.882986	-0.335244	-0.117796
H109	H	1.816041	-0.345948	-0.199958
H110	H	1.935486	-0.304527	-0.157258
H111	H	1.953146	-0.367872	-0.091222
O112	O	1.241508	-0.676296	-0.000247
C113	C	1.171985	-0.685335	-0.117816
H114	H	1.203396	-0.723471	-0.157013
H115	H	1.067853	-0.682150	-0.091371
H116	H	1.188486	-0.657695	-0.200132
O117	O	1.135290	-0.387062	0.000145
C118	C	1.127686	-0.415925	0.117672
H119	H	1.192637	-0.403793	0.199859
H120	H	1.027029	-0.411737	0.157105
H121	H	1.157241	-0.455583	0.091089
O122	O	1.137954	-0.287595	0.000104
C123	C	1.131875	-0.258123	0.117682
H124	H	1.230855	-0.255238	0.156886
H125	H	1.084645	-0.220388	0.091246
H126	H	1.075211	-0.274909	0.199991
O127	O	1.255009	-0.160413	-0.000059
C128	C	1.155455	-0.122600	-0.000018
H129	H	1.189764	-0.088229	-0.042964
H130	H	1.075504	-0.133398	-0.065935
H131	H	1.120596	-0.115596	0.108876
H132	H	1.792104	-0.473996	-0.000038
O133	O	1.257842	-0.061018	-0.000042
C134	C	1.283565	-0.012263	-0.000001
H135	H	1.381539	-0.010001	-0.042960
H136	H	1.211420	0.010343	-0.065909
H137	H	1.278535	0.002296	0.108894
O138	O	1.807436	-0.570297	-0.000306
C139	C	1.813453	-0.599783	-0.117853
H140	H	1.749291	-0.581525	-0.200011
H141	H	1.914069	-0.605116	-0.157318
H142	H	1.781865	-0.636552	-0.091283
O143	O	1.131273	-0.538286	-0.000330
C144	C	1.062390	-0.522668	-0.117874
H145	H	1.129347	-0.511950	-0.200023
H146	H	1.009904	-0.553381	-0.157356
H147	H	0.992219	-0.490045	-0.091295
O148	O	1.133947	-0.438899	-0.000302
C149	C	1.127903	-0.409391	-0.117831
H150	H	1.192079	-0.427627	-0.200004
H151	H	1.027285	-0.404066	-0.157286
H152	H	1.159454	-0.372621	-0.091243
