data_functionalizedCrystal
_audit_creation_method	'MofGen! by Chris Wilmer'
_symmetry_space_group_name_H-M	'P1'
_symmetry_Int_Tables_number	1
_symmetry_cell_setting	triclinic
loop_
_symmetry_equiv_pos_as_xyz
  x,y,z
_cell_length_a	12.594517
_cell_length_b	19.077068
_cell_length_c	19.076919
_cell_angle_alpha	94.470751
_cell_angle_beta	87.719340
_cell_angle_gamma	87.673140
loop_
_atom_site_label
_atom_site_type_symbol
_atom_site_fract_x
_atom_site_fract_y
_atom_site_fract_z
Zn1	Zn	1.584210	0.296687	0.409856
Zn2	Zn	2.084210	0.796687	0.909856
Zn3	Zn	1.584078	0.409840	0.296701
Zn4	Zn	2.084078	0.909840	0.796701
Zn5	Zn	1.413675	0.291971	0.291986
Zn6	Zn	1.913675	0.791971	0.791986
Zn7	Zn	1.398715	0.414536	0.414544
Zn8	Zn	1.898715	0.914536	0.914544
O9	O	1.495169	0.353258	0.353272
O10	O	1.995169	0.853258	0.853272
O11	O	1.733137	0.311705	0.394858
O12	O	2.233137	0.811705	0.894858
O13	O	1.567679	0.390265	0.197428
O14	O	2.067679	0.890265	0.697428
O15	O	1.442612	0.193947	0.303686
O16	O	1.942612	0.693947	0.803686
O17	O	1.733040	0.394838	0.311723
O18	O	2.233040	0.894838	0.811723
O19	O	1.567904	0.197412	0.390285
O20	O	2.067904	0.697412	0.890285
O21	O	1.442485	0.303667	0.193964
O22	O	1.942485	0.803667	0.693964
O23	O	1.262746	0.308221	0.308231
O24	O	1.762746	0.808221	0.808231
O25	O	1.417116	0.402843	0.512569
O26	O	1.917116	0.902843	1.012569
O27	O	1.251755	0.398269	0.398274
O28	O	1.751755	0.898269	0.898274
O29	O	1.553398	0.316259	0.509125
O30	O	2.053398	0.816259	1.009125
O31	O	1.553174	0.509112	0.316268
O32	O	2.053174	1.009112	0.816268
O33	O	1.416988	0.512563	0.402847
O34	O	1.916988	1.012563	0.902847
C35	C	1.218631	0.353244	0.353250
C36	C	1.718631	0.853244	0.853250
C37	C	1.100324	0.353255	0.353259
C38	C	1.600324	0.853255	0.853259
C39	C	1.483603	0.360601	0.537140
C40	C	1.983603	0.860601	1.037140
C41	C	1.478674	0.363729	0.615494
C42	C	1.978674	0.863729	1.115494
C43	C	1.483471	0.536417	0.360593
C44	C	1.983471	1.036417	0.860593
C45	C	1.478562	0.614774	0.363749
C46	C	1.978562	1.114774	0.863749
C47	C	1.037016	0.304217	0.304371
C48	C	1.537016	0.804217	0.804371
C49	C	0.963220	0.367822	0.289607
C50	C	1.463220	0.867822	0.789607
C51	C	0.963318	0.289681	0.368036
C52	C	1.463318	0.789681	0.868036
C53	C	1.028086	0.416893	0.338462
C54	C	1.528086	0.916893	0.838462
C55	C	1.028191	0.338709	0.416919
C56	C	1.528191	0.838709	0.916919
C57	C	0.954423	0.402360	0.402181
C58	C	1.454423	0.902360	0.902181
C59	C	1.772788	0.353274	0.353294
C60	C	2.272788	0.853274	0.853294
C61	C	1.891092	0.353281	0.353303
C62	C	2.391092	0.853281	0.853303
C63	C	1.506942	0.169386	0.345937
C64	C	2.006942	0.669386	0.845937
C65	C	1.511958	0.091030	0.342811
C66	C	2.011958	0.591030	0.842811
C67	C	1.547211	0.649768	0.320192
C68	C	2.047211	1.149768	0.820192
C69	C	1.542600	0.723392	0.323164
C70	C	2.042600	1.223392	0.823164
C71	C	1.469335	0.762022	0.369690
C72	C	1.969335	1.262022	0.869690
C73	C	1.400683	0.727023	0.413252
C74	C	1.900683	1.227023	0.913252
C75	C	1.405300	0.653400	0.410283
C76	C	1.905300	1.153400	0.910283
C77	C	1.447923	0.982408	0.383404
C78	C	1.947923	1.482408	0.883404
C79	C	1.443309	1.056036	0.386368
C80	C	1.943309	1.556036	0.886368
C81	C	1.585229	1.052400	0.296281
C82	C	2.085229	1.552400	0.796281
C83	C	1.589835	0.978776	0.293313
C84	C	2.089835	1.478776	0.793313
C85	C	1.521187	0.943783	0.336877
C86	C	2.021187	1.443783	0.836877
N87	N	1.464618	0.837278	0.372728
N88	N	1.964618	1.337278	0.872728
N89	N	1.525910	0.868528	0.333843
N90	N	2.025910	1.368528	0.833843
C91	C	1.506756	0.345894	0.170116
C92	C	2.006756	0.845894	0.670116
C93	C	1.511903	0.342567	0.091755
C94	C	2.011903	0.842567	0.591755
C95	C	1.547309	0.320122	0.650513
C96	C	2.047309	0.820122	1.150513
C97	C	1.542665	0.323059	0.724135
C98	C	2.042665	0.823059	1.224135
C99	C	1.469390	0.369608	0.762736
C100	C	1.969390	0.869608	1.262736
C101	C	1.400747	0.413217	0.727712
C102	C	1.900747	0.913217	1.227712
C103	C	1.405387	0.410276	0.654092
C104	C	1.905387	0.910276	1.154092
C105	C	1.447900	0.383235	0.983110
C106	C	1.947900	0.883235	1.483110
C107	C	1.443268	0.386174	1.056736
C108	C	1.943268	0.886174	1.556736
C109	C	1.585185	0.296015	1.053153
C110	C	2.085185	0.796015	1.553153
C111	C	1.589823	0.293081	0.979532
C112	C	2.089823	0.793081	1.479532
C113	C	1.521176	0.336687	0.944514
C114	C	2.021176	0.836687	1.444514
N115	N	1.464643	0.372613	0.837990
N116	N	1.964643	0.872613	1.337990
N117	N	1.525918	0.333678	0.869262
N118	N	2.025918	0.833678	1.369262
H119	H	1.073086	0.262784	0.262982
H120	H	1.573086	0.762784	0.762982
H121	H	0.934584	0.380141	0.235790
H122	H	1.434584	0.880141	0.735790
H123	H	1.598558	0.287551	0.752644
H124	H	2.098558	0.787551	1.252644
C125	C	1.627807	0.607282	0.269008
C126	C	2.127807	1.107282	0.769008
N127	N	1.688517	0.575283	0.230455
N128	N	2.188517	1.075283	0.730455
C129	C	1.066478	0.489556	0.321512
C130	C	1.566478	0.989556	0.821512
N131	N	1.095398	0.544284	0.308742
N132	N	1.595398	1.044284	0.808742
H133	H	1.392025	0.953923	0.418874
H134	H	1.892025	1.453923	0.918874
C135	C	1.670421	0.241867	0.937075
C136	C	2.170421	0.741867	1.437075
N137	N	1.731128	0.203290	0.905097
N138	N	2.231128	0.703290	1.405097
C139	C	1.362715	1.098527	0.437557
C140	C	1.862715	1.598527	0.937557
N141	N	1.302015	1.130532	0.476112
N142	N	1.802015	1.630532	0.976112
C143	C	1.660739	1.090898	0.248366
C144	C	2.160739	1.590898	0.748366
N145	N	1.717619	1.119895	0.212276
N146	N	2.217619	1.619895	0.712276
H147	H	1.341033	0.758481	0.451138
H148	H	1.841033	1.258481	0.951138
C149	C	0.905941	0.458461	0.458057
C150	C	1.405941	0.958461	0.958057
N151	N	0.869420	0.500717	0.500139
N152	N	1.369420	1.000717	1.000139
C153	C	1.329781	0.614907	0.458199
C154	C	1.829781	1.114907	0.958199
N155	N	1.272900	0.585915	0.494294
N156	N	1.772900	1.085915	0.994294
H157	H	1.606981	0.282219	0.619089
H158	H	2.106981	0.782219	1.119089
C159	C	1.618113	0.761882	0.275244
C160	C	2.118113	1.261882	0.775244
N161	N	1.674992	0.790872	0.239146
N162	N	2.174992	1.290872	0.739146
C163	C	1.660679	0.248042	1.091679
C164	C	2.160679	0.748042	1.591679
N165	N	1.717538	0.211904	1.120696
N166	N	2.217538	0.711904	1.620696
H167	H	1.056855	0.326370	0.470719
H168	H	1.556855	0.826370	0.970719
C169	C	1.320133	0.464414	0.770176
C170	C	1.820133	0.964414	1.270176
N171	N	1.259413	0.502977	0.802160
N172	N	1.759413	1.002977	1.302160
C173	C	1.329884	0.458249	0.615571
C174	C	1.829884	0.958249	1.115571
N175	N	1.273011	0.494382	0.586559
N176	N	1.773011	0.994382	1.086559
C177	C	1.362653	0.437381	1.099196
C178	C	1.862653	0.937381	1.599196
N179	N	1.301937	0.475949	1.131177
N180	N	1.801937	0.975949	1.631177
C181	C	0.924756	0.217034	0.384900
C182	C	1.424756	0.717034	0.884900
N183	N	0.895716	0.162315	0.397597
N184	N	1.395716	0.662315	0.897597
H185	H	1.649493	0.947325	0.255428
H186	H	2.149493	1.447325	0.755428
H187	H	1.392018	0.418753	0.954608
H188	H	1.892018	0.918753	1.454608
