data_functionalizedCrystal
_audit_creation_method	'MofGen! by Chris Wilmer'
_symmetry_space_group_name_H-M	'P1'
_symmetry_Int_Tables_number	1
_symmetry_cell_setting	triclinic
loop_
_symmetry_equiv_pos_as_xyz
  x,y,z
_cell_length_a	14.044220
_cell_length_b	15.944545
_cell_length_c	13.101039
_cell_angle_alpha	93.360364
_cell_angle_beta	86.340132
_cell_angle_gamma	88.342525
loop_
_atom_site_label
_atom_site_type_symbol
_atom_site_fract_x
_atom_site_fract_y
_atom_site_fract_z
O1	O	1.262923	0.198266	-0.085114
O2	O	1.512923	0.448266	0.164886
O3	O	1.762923	0.698266	0.414886
O4	O	2.012923	0.948266	0.664886
O5	O	0.986955	0.190957	-0.085140
O6	O	1.236955	0.440957	0.164860
O7	O	1.486955	0.690957	0.414860
O8	O	1.736955	0.940957	0.664860
O9	O	1.132477	0.072901	-0.085114
O10	O	1.382477	0.322901	0.164886
O11	O	1.632477	0.572901	0.414886
O12	O	1.882477	0.822901	0.664886
O13	O	1.117400	0.316321	-0.085140
O14	O	1.367400	0.566321	0.164860
O15	O	1.617400	0.816321	0.414860
O16	O	1.867400	1.066321	0.664860
O17	O	1.122036	0.081387	0.085314
O18	O	1.372036	0.331387	0.335314
O19	O	1.622036	0.581387	0.585314
O20	O	1.872036	0.831387	0.835314
O21	O	0.976514	0.199443	0.085288
O22	O	1.226514	0.449443	0.335288
O23	O	1.476514	0.699443	0.585288
O24	O	1.726514	0.949443	0.835288
O25	O	1.252481	0.206752	0.085314
O26	O	1.502481	0.456752	0.335314
O27	O	1.752481	0.706752	0.585314
O28	O	2.002481	0.956752	0.835314
Zn29	Zn	1.112840	0.204444	0.112360
Zn30	Zn	1.362840	0.454444	0.362360
Zn31	Zn	1.612840	0.704444	0.612360
Zn32	Zn	1.862840	0.954444	0.862360
Zn33	Zn	1.126596	0.193264	-0.112186
Zn34	Zn	1.376596	0.443264	0.137814
Zn35	Zn	1.626596	0.693264	0.387814
Zn36	Zn	1.876596	0.943264	0.637814
O37	O	1.106959	0.324807	0.085288
O38	O	1.356959	0.574807	0.335288
O39	O	1.606959	0.824807	0.585288
O40	O	1.856959	1.074807	0.835288
C41	C	0.946420	0.192001	0.000071
C42	C	1.196420	0.442001	0.250071
C43	C	1.446420	0.692001	0.500071
C44	C	1.696420	0.942001	0.750071
C45	C	0.841194	0.182459	0.000062
C46	C	1.091194	0.432459	0.250062
C47	C	1.341194	0.682459	0.500062
C48	C	1.591194	0.932459	0.750062
C49	C	1.126631	0.045803	0.000101
C50	C	1.376631	0.295803	0.250101
C51	C	1.626631	0.545803	0.500101
C52	C	1.876631	0.795803	0.750101
C53	C	1.124758	-0.047583	0.000103
C54	C	1.374758	0.202417	0.250103
C55	C	1.624758	0.452417	0.500103
C56	C	1.874758	0.702417	0.750103
C57	C	0.648531	0.165017	0.000084
C58	C	0.898531	0.415017	0.250084
C59	C	1.148531	0.665017	0.500084
C60	C	1.398531	0.915017	0.750084
C61	C	0.590900	0.232688	0.000081
C62	C	0.840900	0.482688	0.250081
C63	C	1.090900	0.732688	0.500081
C64	C	1.340900	0.982688	0.750081
C65	C	0.483696	0.222982	0.000093
C66	C	0.733696	0.472982	0.250093
C67	C	0.983696	0.722982	0.500093
C68	C	1.233696	0.972982	0.750093
C69	C	0.755745	0.174721	0.000072
C70	C	1.005745	0.424721	0.250072
C71	C	1.255745	0.674721	0.500072
C72	C	1.505745	0.924721	0.750072
C73	C	1.028959	-0.325390	0.000074
C74	C	1.278959	-0.075390	0.250074
C75	C	1.528959	0.174610	0.500074
C76	C	1.778959	0.424610	0.750074
C77	C	1.080294	-0.275530	-0.083952
C78	C	1.330294	-0.025530	0.166048
C79	C	1.580294	0.224470	0.416048
C80	C	1.830294	0.474470	0.666048
C81	C	1.118078	-0.383729	0.000074
C82	C	1.368078	-0.133729	0.250074
C83	C	1.618078	0.116271	0.500074
C84	C	1.868078	0.366271	0.750074
C85	C	1.070024	-0.267189	0.084076
C86	C	1.320024	-0.017189	0.334076
C87	C	1.570024	0.232811	0.584076
C88	C	1.820024	0.482811	0.834076
C89	C	1.121355	-0.218569	0.000090
C90	C	1.371355	0.031431	0.250090
C91	C	1.621355	0.281431	0.500090
C92	C	1.871355	0.531431	0.750090
C93	C	1.169394	-0.335102	-0.084022
C94	C	1.419394	-0.085102	0.165978
C95	C	1.669394	0.164898	0.415978
C96	C	1.919394	0.414898	0.665978
C97	C	1.159106	-0.326762	0.084082
C98	C	1.409106	-0.076762	0.334082
C99	C	1.659106	0.173238	0.584082
C100	C	1.909106	0.423238	0.834082
C101	C	1.210508	-0.276930	0.000036
C102	C	1.460508	-0.026930	0.250036
C103	C	1.710508	0.223070	0.500036
C104	C	1.960508	0.473070	0.750036
C105	C	1.116188	-0.478873	0.000063
C106	C	1.366188	-0.228873	0.250063
C107	C	1.616188	0.021127	0.500063
C108	C	1.866188	0.271127	0.750063
C109	C	1.123253	-0.123427	0.000093
C110	C	1.373253	0.126573	0.250093
C111	C	1.623253	0.376573	0.500093
C112	C	1.873253	0.626573	0.750093
C113	C	1.293016	0.205707	0.000101
C114	C	1.543016	0.455707	0.250101
C115	C	1.793016	0.705707	0.500101
C116	C	2.043016	0.955707	0.750101
C117	C	1.398242	0.215249	0.000103
C118	C	1.648242	0.465249	0.250103
C119	C	1.898242	0.715249	0.500103
C120	C	2.148242	0.965249	0.750103
C121	C	1.112805	0.351905	0.000071
C122	C	1.362805	0.601905	0.250071
C123	C	1.612805	0.851905	0.500071
C124	C	1.862805	1.101905	0.750071
C125	C	1.114679	0.445291	0.000061
C126	C	1.364679	0.695291	0.250061
C127	C	1.614679	0.945291	0.500061
C128	C	1.864679	1.195291	0.750061
N129	N	1.103458	0.212075	0.265607
N130	N	1.353458	0.462075	0.515607
N131	N	1.603458	0.712075	0.765607
N132	N	1.853458	0.962075	1.015607
N133	N	1.135985	0.185628	-0.265433
N134	N	1.385985	0.435628	-0.015433
N135	N	1.635985	0.685628	0.234567
N136	N	1.885985	0.935628	0.484567
C137	C	1.090694	0.222463	0.474647
C138	C	1.340694	0.472463	0.724647
C139	C	1.590694	0.722463	0.974647
C140	C	1.840694	0.972463	1.224647
C141	C	1.148746	0.175242	0.525533
C142	C	1.398746	0.425242	0.775533
C143	C	1.648746	0.675242	1.025533
C144	C	1.898746	0.925242	1.275533
C145	C	1.141644	0.181022	0.641850
C146	C	1.391644	0.431022	0.891850
C147	C	1.641644	0.681022	1.141850
C148	C	1.891644	0.931022	1.391850
C149	C	1.097795	0.216684	0.358320
C150	C	1.347795	0.466684	0.608320
C151	C	1.597795	0.716684	0.858320
C152	C	1.847795	0.966684	1.108320
H153	H	0.622075	0.297911	0.000069
H154	H	0.872075	0.547911	0.250069
H155	H	1.122075	0.797911	0.500069
H156	H	1.372075	1.047911	0.750069
H157	H	0.617358	0.099799	0.000096
H158	H	0.867358	0.349799	0.250096
H159	H	1.117358	0.599799	0.500096
H160	H	1.367358	0.849799	0.750096
H161	H	0.952214	-0.346794	-0.000015
H162	H	1.202214	-0.096794	0.249985
H163	H	1.452214	0.153206	0.499985
H164	H	1.702214	0.403206	0.749985
H165	H	1.047009	-0.252951	-0.154998
H166	H	1.297009	-0.002951	0.095002
H167	H	1.547009	0.247049	0.345002
H168	H	1.797009	0.497049	0.595002
H169	H	1.211360	-0.364633	-0.155138
H170	H	1.461360	-0.114633	0.094862
H171	H	1.711360	0.135367	0.344862
H172	H	1.961360	0.385367	0.594862
H173	H	1.287320	-0.255690	-0.000005
H174	H	1.537320	-0.005690	0.249995
H175	H	1.787320	0.244310	0.499995
H176	H	2.037320	0.494310	0.749995
H177	H	1.192358	-0.349358	0.155130
H178	H	1.442358	-0.099358	0.405130
H179	H	1.692358	0.150642	0.655130
H180	H	1.942358	0.400642	0.905130
H181	H	1.035665	0.267230	0.518435
H182	H	1.285665	0.517230	0.768435
H183	H	1.535665	0.767230	1.018435
H184	H	1.785665	1.017230	1.268435
H185	H	1.203781	0.130473	0.481741
H186	H	1.453781	0.380473	0.731741
H187	H	1.703781	0.630473	0.981741
H188	H	1.953781	0.880473	1.231741
H189	H	1.028019	-0.237558	0.155112
H190	H	1.278019	0.012442	0.405112
H191	H	1.528019	0.262442	0.655112
H192	H	1.778019	0.512442	0.905112
