data_functionalizedCrystal
_audit_creation_method	'MofGen! by Chris Wilmer'
_symmetry_space_group_name_H-M	'P1'
_symmetry_Int_Tables_number	1
_symmetry_cell_setting	triclinic
loop_
_symmetry_equiv_pos_as_xyz
  x,y,z
_cell_length_a	23.532407
_cell_length_b	15.944551
_cell_length_c	15.021413
_cell_angle_alpha	90.002826
_cell_angle_beta	89.999348
_cell_angle_gamma	96.826292
loop_
_atom_site_label
_atom_site_type_symbol
_atom_site_fract_x
_atom_site_fract_y
_atom_site_fract_z
O1	O	0.073442	-1.113910	-0.073949
O2	O	0.082498	-0.869284	-0.073972
O3	O	-0.004933	-0.998974	-0.073943
O4	O	0.160873	-0.984220	-0.073977
O5	O	-0.004921	-0.998953	0.074121
O6	O	0.082510	-0.869263	0.074092
O7	O	0.073455	-1.113889	0.074116
Zn8	Zn	0.077985	-0.991573	0.097612
Zn9	Zn	0.077968	-0.991600	-0.097469
O10	O	0.160886	-0.984200	0.074087
C11	C	0.082128	-0.837983	0.000057
C12	C	0.081001	-0.744746	0.000049
C13	C	-0.026144	-0.998588	0.000091
C14	C	-0.089366	-0.997458	0.000098
N15	N	0.077995	-0.991561	0.230750
C16	C	-0.488199	-1.067121	0.000056
C17	C	-0.547603	-1.066072	0.000049
O18	O	-0.584098	-1.130650	0.000022
N19	N	-0.570528	-0.988971	0.000042
C20	C	-0.534045	-0.912915	0.000033
O21	O	-0.558999	-0.847239	0.000026
C22	C	-0.474642	-0.913965	0.000034
C23	C	-0.451721	-0.991071	0.000049
C24	C	-0.465277	-1.144220	0.000070
C25	C	-0.405877	-1.145269	0.000079
C26	C	-0.369399	-1.069219	0.000073
C27	C	-0.392320	-0.992120	0.000058
C28	C	-0.438160	-0.837910	0.000018
C29	C	-0.378754	-0.838967	0.000018
C30	C	-0.355832	-0.916072	0.000034
C31	C	-0.296442	-0.917118	0.000060
N32	N	-0.273517	-0.994219	0.000067
C33	C	-0.309995	-1.070269	0.000073
C34	C	-0.658796	-0.910716	0.000031
C35	C	-0.718198	-0.909664	0.000037
C36	C	-0.731752	-1.062821	0.000050
C37	C	-0.672349	-1.063872	0.000051
C38	C	-0.635871	-0.987816	0.000037
C39	C	-0.185250	-1.072466	0.000092
C40	C	-0.125844	-1.073508	0.000104
C41	C	-0.112295	-0.920352	0.000085
C42	C	-0.171696	-0.919309	0.000078
C43	C	-0.208173	-0.995373	0.000078
O44	O	-0.259913	-0.852574	0.000083
O45	O	-0.285033	-1.135935	0.000069
C46	C	0.182097	-0.984586	0.000051
C47	C	0.245318	-0.985715	0.000038
C48	C	0.073824	-1.145190	0.000084
C49	C	0.074951	-1.238427	0.000087
C50	C	0.024113	-0.530369	0.000078
C51	C	0.050524	-0.469137	-0.072931
C52	C	0.078962	-0.574038	0.000060
C53	C	0.050549	-0.469138	0.073049
C54	C	0.076989	-0.409142	0.000075
C55	C	0.105388	-0.514033	-0.073009
C56	C	0.105405	-0.514041	0.073036
C57	C	0.131856	-0.452826	0.000010
C58	C	0.080097	-0.669030	0.000051
C59	C	0.075858	-0.314150	0.000077
N60	N	0.077953	-0.991619	-0.230606
C61	C	0.118404	-0.931583	0.470420
C62	C	0.129461	-1.007390	0.529759
C63	C	0.077981	-0.991582	0.412357
C64	C	0.066938	-0.915796	0.529760
C65	C	0.077969	-0.991596	0.587781
C66	C	0.089063	-1.067428	0.470389
C67	C	0.026518	-0.975783	0.470385
C68	C	0.037552	-1.051645	0.529697
C69	C	0.077990	-0.991573	0.311300
C70	C	0.077960	-0.991614	0.688836
H71	H	-0.107185	-1.136300	0.000119
H72	H	-0.214943	-1.134405	0.000089
C73	C	-0.618675	-0.827043	0.000027
N74	N	-0.588459	-0.764020	0.000024
C75	C	-0.037391	-0.575887	-0.000006
N76	N	-0.083714	-0.610173	-0.000075
C77	C	0.019176	-0.442237	-0.156300
N78	N	-0.004440	-0.421979	-0.219091
C79	C	-0.380672	-1.230092	0.000087
N80	N	-0.361691	-1.293985	0.000089
C81	C	-0.743404	-0.824843	0.000030
N82	N	-0.762387	-0.760952	0.000020
H83	H	-0.494973	-1.206153	0.000072
H84	H	-0.349056	-0.777032	0.000006
H85	H	0.128564	-0.533834	-0.134800
H86	H	0.177423	-0.419284	-0.000040
C87	C	0.136724	-0.540971	0.156415
N88	N	0.160309	-0.561258	0.219223
C89	C	0.019203	-0.442257	0.156433
N90	N	-0.004410	-0.422014	0.219235
H91	H	0.152617	-0.880895	0.444393
H92	H	0.172977	-1.020766	0.555839
H93	H	-0.190359	-0.856524	0.000090
H94	H	0.098450	-1.131539	0.444420
H95	H	-0.653691	-1.126658	0.000063
H96	H	0.003360	-1.102446	0.555561
H97	H	-0.016985	-0.962383	0.444284
H98	H	0.057603	-0.851698	0.555841
H99	H	-0.456812	-0.775123	0.000000
C100	C	-0.771890	-1.146479	0.000048
N101	N	-0.802123	-1.209485	0.000045
C102	C	-0.072158	-0.836701	0.000072
N103	N	-0.041925	-0.773694	0.000054
