data_functionalizedCrystal
_audit_creation_method	'MofGen! by Chris Wilmer'
_symmetry_space_group_name_H-M	'P1'
_symmetry_Int_Tables_number	1
_symmetry_cell_setting	triclinic
loop_
_symmetry_equiv_pos_as_xyz
  x,y,z
_cell_length_a	18.215407
_cell_length_b	18.215405
_cell_length_c	18.215399
_cell_angle_alpha	90.030551
_cell_angle_beta	90.017813
_cell_angle_gamma	90.019398
loop_
_atom_site_label
_atom_site_type_symbol
_atom_site_fract_x
_atom_site_fract_y
_atom_site_fract_z
Zn1	Zn	1.125072	-0.293100	0.416063
Zn2	Zn	1.625072	0.206900	0.916063
Zn3	Zn	1.124980	-0.416171	0.292991
Zn4	Zn	1.624980	0.083829	0.792991
Zn5	Zn	1.002004	-0.293111	0.293015
Zn6	Zn	1.502004	0.206889	0.793015
Zn7	Zn	1.001970	-0.416117	0.416020
Zn8	Zn	1.501970	0.083883	0.916020
O9	O	1.063507	-0.354625	0.354522
O10	O	1.563507	0.145375	0.854522
O11	O	1.228044	-0.309443	0.399745
O12	O	1.728044	0.190557	0.899745
O13	O	1.108643	-0.399874	0.190010
O14	O	1.608643	0.100126	0.690010
O15	O	1.018382	-0.190125	0.309365
O16	O	1.518382	0.309875	0.809365
O17	O	1.227977	-0.399863	0.309325
O18	O	1.727977	0.100137	0.809325
O19	O	1.108799	-0.190117	0.399768
O20	O	1.608799	0.309883	0.899768
O21	O	1.018293	-0.309462	0.190027
O22	O	1.518293	0.190538	0.690027
O23	O	0.899016	-0.309410	0.309324
O24	O	1.399016	0.190590	0.809324
O25	O	1.018324	-0.399771	0.519010
O26	O	1.518324	0.100229	1.019010
O27	O	0.898991	-0.399782	0.399695
O28	O	1.398991	0.100218	0.899695
O29	O	1.108766	-0.309391	0.519042
O30	O	1.608766	0.190609	1.019042
O31	O	1.108610	-0.519148	0.309283
O32	O	1.608610	-0.019148	0.809283
O33	O	1.018235	-0.519109	0.399672
O34	O	1.518235	-0.019109	0.899672
C35	C	0.872300	-0.354592	0.354508
C36	C	1.372300	0.145408	0.854508
C37	C	0.790502	-0.354596	0.354519
C38	C	1.290502	0.145404	0.854519
C39	C	0.525473	-0.307634	0.401679
C40	C	1.025473	0.192366	0.901679
C41	C	0.602332	-0.307622	0.401677
C42	C	1.102332	0.192378	0.901677
C43	C	0.602281	-0.401639	0.307381
C44	C	1.102281	0.098361	0.807381
C45	C	0.525424	-0.401654	0.307388
C46	C	1.025424	0.098346	0.807388
C47	C	0.487022	-0.354647	0.354536
C48	C	0.987022	0.145353	0.854536
C49	C	0.640738	-0.354620	0.354527
C50	C	1.140738	0.145380	0.854527
C51	C	0.724072	-0.354608	0.354524
C52	C	1.224072	0.145392	0.854524
C53	C	0.403683	-0.354661	0.354540
C54	C	0.903683	0.145339	0.854540
C55	C	1.063429	-0.545831	0.354487
C56	C	1.563429	-0.045831	0.854487
C57	C	1.063463	-0.627630	0.354496
C58	C	1.563463	-0.127630	0.854496
C59	C	1.110632	-0.815820	0.307517
C60	C	1.610632	-0.315820	0.807517
C61	C	1.110665	-0.892679	0.307535
C62	C	1.610665	-0.392679	0.807535
C63	C	1.016476	-0.892677	0.401580
C64	C	1.516476	-0.392677	0.901580
C65	C	1.016447	-0.815820	0.401565
C66	C	1.516447	-0.315820	0.901565
C67	C	1.063524	-0.777393	0.354530
C68	C	1.563524	-0.277393	0.854530
C69	C	1.063586	-0.931109	0.354562
C70	C	1.563586	-0.431109	0.854562
C71	C	1.063621	-1.014443	0.354582
C72	C	1.563621	-0.514443	0.854582
C73	C	1.063490	-0.694054	0.354511
C74	C	1.563490	-0.194054	0.854511
C75	C	1.255460	-0.354658	0.354537
C76	C	1.755460	0.145342	0.854537
C77	C	1.337259	-0.354672	0.354543
C78	C	1.837259	0.145328	0.854543
C79	C	1.063552	-0.354574	0.546475
C80	C	1.563552	0.145426	1.046475
C81	C	1.063571	-0.354552	0.628274
C82	C	1.563571	0.145448	1.128274
C83	C	1.063605	-0.162672	0.354574
C84	C	1.563605	0.337328	0.854574
C85	C	1.063647	-0.080873	0.354596
C86	C	1.563647	0.419127	0.854596
C87	C	1.063504	-0.354622	0.163316
C88	C	1.563504	0.145378	0.663316
C89	C	1.063628	-0.354436	0.081517
C90	C	1.563628	0.145564	0.581517
C91	C	1.110681	-0.307447	0.816486
C92	C	1.610681	0.192553	1.316486
C93	C	1.110690	-0.307426	0.893344
C94	C	1.610690	0.192574	1.393344
C95	C	1.016513	-0.401544	0.893301
C96	C	1.516513	0.098456	1.393301
C97	C	1.016501	-0.401561	0.816443
C98	C	1.516501	0.098439	1.316443
C99	C	1.063589	-0.354514	0.778038
C100	C	1.563589	0.145486	1.278038
C101	C	1.063610	-0.354475	0.931754
C102	C	1.563610	0.145525	1.431754
C103	C	1.063619	-0.354452	1.015088
C104	C	1.563619	0.145548	1.515088
C105	C	1.063579	-0.354535	0.694699
C106	C	1.563579	0.145465	1.194699
H107	H	0.633558	-0.439909	0.268994
H108	H	1.133558	0.060091	0.768994
O109	O	0.488088	-0.262081	0.447518
O110	O	0.988088	0.237919	0.947518
C111	C	0.443657	-0.304050	0.494991
C112	C	0.943657	0.195950	0.994991
H113	H	0.432124	-0.359790	0.468936
H114	H	0.932124	0.140210	0.968936
H115	H	0.389620	-0.274096	0.504913
H116	H	0.889620	0.225904	1.004913
H117	H	0.473299	-0.312200	0.549511
H118	H	0.973299	0.187800	1.049511
H119	H	0.494116	-0.439943	0.268998
H120	H	0.994116	0.060057	0.768998
H121	H	1.148966	-0.784535	0.269219
H122	H	1.648966	-0.284535	0.769219
H123	H	1.149026	-0.923962	0.269254
H124	H	1.649026	-0.423962	0.769254
O125	O	0.970777	-0.447216	0.778976
O126	O	1.470777	0.052784	1.278976
C127	C	0.980877	-0.437152	0.702905
C128	C	1.480877	0.062848	1.202905
H129	H	1.005005	-0.380363	0.692433
H130	H	1.505005	0.119637	1.192433
H131	H	0.925747	-0.442141	0.673683
H132	H	1.425747	0.057859	1.173683
H133	H	1.020044	-0.480814	0.681086
H134	H	1.520044	0.019186	1.181086
O135	O	0.970766	-0.930120	0.447193
O136	O	1.470766	-0.430120	0.947193
C137	C	0.980903	-1.006197	0.437138
C138	C	1.480903	-0.506197	0.937138
H139	H	1.005046	-1.016718	0.380369
H140	H	1.505046	-0.516718	0.880369
H141	H	0.925785	-1.035441	0.442081
H142	H	1.425785	-0.535441	0.942081
H143	H	1.020072	-1.027950	0.480831
H144	H	1.520072	-0.527950	0.980831
O145	O	0.970788	-0.778455	0.447314
O146	O	1.470788	-0.278455	0.947314
C147	C	1.012644	-0.733921	0.494863
C148	C	1.512644	-0.233921	0.994863
H149	H	1.070611	-0.757041	0.499467
H150	H	1.570611	-0.257041	0.999467
H151	H	0.985993	-0.733023	0.551474
H152	H	1.485993	-0.233023	1.051474
H153	H	1.015175	-0.675687	0.472098
H154	H	1.515175	-0.175687	0.972098
O155	O	1.156439	-0.261673	0.779292
O156	O	1.656439	0.238327	1.279292
C157	C	1.198017	-0.220139	0.829712
C158	C	1.698017	0.279861	1.329712
H159	H	1.167882	-0.217577	0.884494
H160	H	1.667882	0.282423	1.384494
H161	H	1.205889	-0.162161	0.807526
H162	H	1.705889	0.337839	1.307526
H163	H	1.253899	-0.247093	0.837887
H164	H	1.753899	0.252907	1.337887
H165	H	1.149035	-0.269098	0.924645
H166	H	1.649035	0.230902	1.424645
H167	H	0.633636	-0.269339	0.440066
H168	H	1.133636	0.230661	0.940066
O169	O	0.970846	-0.447223	0.930723
O170	O	1.470846	0.052777	1.430723
C171	C	0.980941	-0.437104	1.006804
C172	C	1.480941	0.062896	1.506804
H173	H	1.037749	-0.413008	1.017318
H174	H	1.537749	0.086992	1.517318
H175	H	0.975928	-0.492222	1.035996
H176	H	1.475928	0.007778	1.535996
H177	H	0.937312	-0.397903	1.028621
H178	H	1.437312	0.102097	1.528621
