data_functionalizedCrystal
_audit_creation_method	'MofGen! by Chris Wilmer'
_symmetry_space_group_name_H-M	'P1'
_symmetry_Int_Tables_number	1
_symmetry_cell_setting	triclinic
loop_
_symmetry_equiv_pos_as_xyz
  x,y,z
_cell_length_a	10.685661
_cell_length_b	25.639240
_cell_length_c	10.686551
_cell_angle_alpha	85.582913
_cell_angle_beta	80.927213
_cell_angle_gamma	85.653331
loop_
_atom_site_label
_atom_site_type_symbol
_atom_site_fract_x
_atom_site_fract_y
_atom_site_fract_z
Zn1	Zn	1.995525	-0.244038	-0.866037
Zn2	Zn	1.979028	-0.337712	-0.653722
Zn3	Zn	1.766960	-0.244062	-0.637561
Zn4	Zn	1.783169	-0.325211	-0.849691
O5	O	1.881171	-0.287756	-0.751753
O6	O	2.170960	-0.261685	-0.851477
O7	O	1.937210	-0.330530	-0.473947
O8	O	1.797400	-0.170895	-0.667946
O9	O	2.158840	-0.330507	-0.695490
O10	O	1.965326	-0.170877	-0.835806
O11	O	1.781404	-0.261727	-0.462073
O12	O	1.591487	-0.249605	-0.652096
O13	O	1.825026	-0.309202	-1.029491
O14	O	1.603395	-0.309225	-0.807947
O15	O	1.981043	-0.249564	-1.041500
O16	O	1.952927	-0.409217	-0.679640
O17	O	1.809030	-0.400033	-0.823618
C18	C	1.551385	-0.278062	-0.726495
C19	C	1.410304	-0.273926	-0.715720
C20	C	1.880984	-0.423596	-0.751639
C21	C	1.881023	-0.481711	-0.751642
C22	C	1.968661	-0.842025	-0.839307
C23	C	1.968700	-0.896629	-0.839336
O24	O	2.042992	-0.924821	-0.913753
N25	N	1.881356	-0.923996	-0.751889
C26	C	1.793958	-0.896756	-0.664416
O27	O	1.719668	-0.925047	-0.590039
C28	C	1.793914	-0.842151	-0.664394
C29	C	1.881272	-0.814788	-0.751838
C30	C	2.056012	-0.814661	-0.926745
C31	C	2.055973	-0.760060	-0.926714
C32	C	1.968585	-0.732823	-0.839246
C33	C	1.881234	-0.760187	-0.751808
C34	C	1.706511	-0.814911	-0.576928
C35	C	1.706474	-0.760303	-0.576915
C36	C	1.793832	-0.732940	-0.664359
C37	C	1.793807	-0.678349	-0.664309
N38	N	1.881152	-0.650982	-0.751756
C39	C	1.968540	-0.678219	-0.839224
C40	C	1.794056	-1.011428	-0.664470
C41	C	1.794106	-1.066031	-0.664485
C42	C	1.968847	-1.065901	-0.839406
C43	C	1.968802	-1.011297	-0.839384
C44	C	1.881401	-0.984060	-0.751917
C45	C	1.968454	-0.563553	-0.839153
C46	C	1.968412	-0.508948	-0.839111
C47	C	1.793667	-0.509083	-0.664194
C48	C	1.793713	-0.563684	-0.664231
C49	C	1.881112	-0.590917	-0.751721
O50	O	1.719550	-0.650123	-0.589933
O51	O	2.042807	-0.649920	-0.913599
C52	C	2.212243	-0.297488	-0.777109
C53	C	2.353327	-0.301635	-0.787915
C54	C	1.906682	-0.277986	-1.082841
C55	C	1.917554	-0.273823	-1.223931
C56	C	1.881395	-0.151385	-0.751897
C57	C	1.881491	-0.093272	-0.751958
C58	C	1.855831	-0.297452	-0.421958
C59	C	1.845205	-0.301475	-0.280887
H60	H	1.412485	-0.328522	-0.857975
C61	C	1.330405	-0.237601	-0.621083
C62	C	1.337348	-0.246557	-0.478123
C63	C	1.257440	-0.210231	-0.383484
C64	C	1.170588	-0.164948	-0.431806
C65	C	1.163641	-0.155990	-0.574773
C66	C	1.243550	-0.192316	-0.669412
H67	H	1.401644	-0.280080	-0.442346
H68	H	1.262583	-0.216863	-0.277650
H69	H	1.111435	-0.138058	-0.361749
H70	H	1.099345	-0.122467	-0.610550
H71	H	1.238407	-0.185684	-0.775246
H72	H	1.987822	-0.246964	-1.283114
C73	C	1.610401	-0.844999	-0.480743
C74	C	1.657794	-0.887095	-0.385337
C75	C	1.561673	-0.917181	-0.289147
C76	C	1.418160	-0.905169	-0.288362
C77	C	1.370761	-0.863070	-0.383772
C78	C	1.466881	-0.832985	-0.479962
H79	H	1.764037	-0.895989	-0.385914
H80	H	1.596762	-0.948345	-0.218518
H81	H	1.347006	-0.927440	-0.217156
H82	H	1.264517	-0.854177	-0.383194
H83	H	1.431792	-0.801821	-0.550590
C84	C	2.064506	-0.478848	-0.935311
C85	C	2.160623	-0.508812	-1.031529
C86	C	2.256711	-0.478715	-1.127728
C87	C	2.256682	-0.418653	-1.127708
C88	C	2.160562	-0.388685	-1.031486
C89	C	2.064474	-0.418783	-0.935287
H90	H	2.160647	-0.553277	-1.031547
H91	H	2.327865	-0.500899	-1.198958
H92	H	2.327812	-0.396373	-1.198920
H93	H	2.160537	-0.344221	-1.031468
H94	H	1.993319	-0.396599	-0.864057
C95	C	2.064598	-0.593506	-0.935384
C96	C	2.208104	-0.590484	-0.936176
C97	C	2.304253	-0.620437	-1.032399
C98	C	2.256896	-0.653412	-1.127830
C99	C	2.113382	-0.656436	-1.127042
C100	C	2.017233	-0.626483	-1.030819
H101	H	2.243167	-0.566072	-0.865528
H102	H	2.410491	-0.618198	-1.032982
H103	H	2.328071	-0.675585	-1.199061
H104	H	2.078319	-0.680848	-1.197689
H105	H	1.910995	-0.628722	-1.030236
H106	H	2.127174	-0.836831	-0.997980
C107	C	2.064974	-1.095867	-0.935632
C108	C	2.160461	-1.137933	-0.888360
C109	C	2.256584	-1.167900	-0.984578
C110	C	2.257220	-1.155801	-1.128068
C111	C	2.161730	-1.113732	-1.175347
C112	C	2.065607	-1.083765	-1.079129
H113	H	2.159993	-1.146892	-0.782134
H114	H	2.327272	-1.199042	-0.949579
H115	H	2.328376	-1.177984	-1.199294
H116	H	2.162197	-1.104773	-1.281573
H117	H	1.994918	-1.052623	-1.114128
C118	C	1.698017	-1.096127	-0.568286
C119	C	1.697366	-1.093210	-0.424791
C120	C	1.601267	-1.123304	-0.328594
C121	C	1.505819	-1.156314	-0.375893
C122	C	1.506467	-1.159232	-0.519396
C123	C	1.602566	-1.129139	-0.615592
H124	H	1.768025	-1.068773	-0.389771
H125	H	1.600788	-1.121143	-0.222364
H126	H	1.434681	-1.178591	-0.304683
H127	H	1.435808	-1.183670	-0.554416
H128	H	1.603045	-1.131299	-0.721822
C129	C	1.750285	-0.337762	-1.200954
C130	C	1.643724	-0.314836	-1.102177
C131	C	1.548802	-0.351124	-1.022234
C132	C	1.560440	-0.410336	-1.041068
C133	C	1.667006	-0.433265	-1.139850
C134	C	1.761928	-0.396978	-1.219793
H135	H	1.635104	-0.271000	-1.088230
H136	H	1.469915	-0.334150	-0.949109
H137	H	1.490173	-0.437199	-0.981890
H138	H	1.675625	-0.477101	-1.153796
H139	H	1.840814	-0.413952	-1.292917
H140	H	1.722886	-0.989255	-0.593233
H141	H	2.039936	-0.989020	-0.910589
C142	C	1.697636	-0.593790	-0.568033
C143	C	1.696995	-0.590882	-0.424537
C144	C	1.600912	-0.620986	-0.328345
C145	C	1.505470	-0.653997	-0.375650
C146	C	1.506107	-0.656906	-0.519153
C147	C	1.602190	-0.626803	-0.615345
H148	H	1.767651	-0.566444	-0.389513
H149	H	1.600441	-0.618832	-0.222115
H150	H	1.434343	-0.676281	-0.304443
H151	H	1.435451	-0.681344	-0.554177
H152	H	1.602661	-0.628957	-0.721576
H153	H	2.127105	-0.737783	-0.997922
C154	C	1.697539	-0.479115	-0.567985
C155	C	1.601444	-0.509208	-0.471796
C156	C	1.505309	-0.479239	-0.375594
C157	C	1.505270	-0.419176	-0.375579
C158	C	1.601369	-0.389080	-0.471772
C159	C	1.697504	-0.419050	-0.567975
H160	H	1.601469	-0.553673	-0.471804
H161	H	1.434170	-0.501518	-0.304386
H162	H	1.434105	-0.396991	-0.304364
H163	H	1.601343	-0.344615	-0.471765
H164	H	1.768643	-0.396770	-0.639182
H165	H	1.635297	-0.738130	-0.505689
