data_functionalizedCrystal
_audit_creation_method	'MofGen! by Chris Wilmer'
_symmetry_space_group_name_H-M	'P1'
_symmetry_Int_Tables_number	1
_symmetry_cell_setting	triclinic
loop_
_symmetry_equiv_pos_as_xyz
  x,y,z
_cell_length_a	8.634740
_cell_length_b	8.559649
_cell_length_c	9.730223
_cell_angle_alpha	90.000781
_cell_angle_beta	89.999743
_cell_angle_gamma	85.174486
loop_
_atom_site_label
_atom_site_type_symbol
_atom_site_fract_x
_atom_site_fract_y
_atom_site_fract_z
O1	O	1.985463	0.511622	-0.114281
O2	O	1.541592	0.468720	-0.114283
O3	O	1.802633	0.263590	-0.114280
O4	O	1.724422	0.716753	-0.114284
O5	O	1.802629	0.263595	0.114300
O6	O	1.541588	0.468726	0.114297
O7	O	1.985460	0.511628	0.114299
Zn8	Zn	1.763524	0.490178	0.150590
Zn9	Zn	1.763528	0.490170	-0.150574
O10	O	1.724419	0.716758	0.114296
C11	C	1.485291	0.459004	0.000006
C12	C	1.317539	0.430026	0.000005
C13	C	1.808558	0.204975	0.000007
C14	C	1.826201	0.030311	-0.000001
C15	C	2.041761	0.521344	0.000007
C16	C	2.209512	0.550322	-0.000001
C17	C	1.718493	0.775373	0.000006
C18	C	1.700851	0.950037	0.000004
N19	N	1.763532	0.490183	0.356126
N20	N	1.763533	0.490154	-0.356110
C21	C	1.879142	0.399392	0.428054
C22	C	1.879141	0.399372	0.571937
C23	C	1.647911	0.580949	0.571952
C24	C	1.647908	0.580959	0.428072
C25	C	2.012645	0.294565	0.428046
C26	C	2.012644	0.294545	0.571929
H27	H	1.245360	0.675483	0.000010
O28	O	1.970379	-0.047035	0.000247
C29	C	2.215077	-0.093131	0.118624
C30	C	2.051835	-0.005467	0.118532
H31	H	2.280993	-0.059531	0.214232
H32	H	2.204202	-0.224946	0.118722
H33	H	2.280928	-0.059730	0.022916
H34	H	1.985894	-0.038738	0.214224
H35	H	2.062821	0.126328	0.118362
O36	O	1.274704	0.280724	-0.000244
C37	C	1.137033	0.087497	-0.118637
C38	C	1.185466	0.256603	-0.118540
H39	H	1.064847	0.067951	-0.214254
H40	H	1.245290	0.001518	-0.118720
H41	H	1.065012	0.067864	-0.022937
H42	H	1.257451	0.276387	-0.214223
H43	H	1.077145	0.342495	-0.118385
H44	H	1.580036	0.014934	0.000008
H45	H	1.553757	0.654873	0.369510
O46	O	1.535413	0.668938	0.641783
C47	C	1.261215	0.720231	0.685747
C48	C	1.388466	0.620444	0.606606
H49	H	1.142376	0.681083	0.657314
H50	H	1.280939	0.704604	0.800954
H51	H	1.266126	0.848973	0.657490
H52	H	1.383628	0.491666	0.634748
H53	H	1.368698	0.636204	0.491419
O54	O	1.999931	0.146304	0.381674
C55	C	1.976977	-0.123880	0.441739
C56	C	1.991336	0.043947	0.494441
H57	H	1.970057	-0.206688	0.532884
H58	H	1.867386	-0.126322	0.376703
H59	H	2.082982	-0.162892	0.376596
H60	H	1.885414	0.083063	0.559640
H61	H	2.100991	0.046295	0.559403
H62	H	2.117875	0.348674	0.383420
O63	O	1.985699	0.152469	0.625216
C64	C	1.820051	0.006831	0.767125
C65	C	1.850361	0.167816	0.706852
H66	H	1.710649	0.019190	0.833164
H67	H	1.803795	-0.079214	0.679910
H68	H	1.923353	-0.038650	0.833001
H69	H	1.747104	0.213438	0.640992
H70	H	1.866680	0.253757	0.794132
H71	H	2.125743	0.338266	0.610980
