data_functionalizedCrystal
_audit_creation_method	'MofGen! by Chris Wilmer'
_symmetry_space_group_name_H-M	'P1'
_symmetry_Int_Tables_number	1
_symmetry_cell_setting	triclinic
loop_
_symmetry_equiv_pos_as_xyz
  x,y,z
_cell_length_a	14.628931
_cell_length_b	16.704494
_cell_length_c	14.628931
_cell_angle_alpha	90.000492
_cell_angle_beta	60.000164
_cell_angle_gamma	56.632286
loop_
_atom_site_label
_atom_site_type_symbol
_atom_site_fract_x
_atom_site_fract_y
_atom_site_fract_z
Zr1	Zr	0.905005	0.815200	-0.072165
O2	O	1.111551	0.680083	-0.226047
O3	O	0.709444	0.856621	-0.024993
O4	O	0.900149	0.856621	-0.215698
O5	O	0.920847	0.680082	0.115089
O6	O	0.883823	0.995878	-0.207533
O7	O	0.920846	0.680083	-0.035342
O8	O	0.542687	0.995877	0.133603
O9	O	1.261982	0.680084	-0.226047
O10	O	0.773629	0.978212	0.001219
O11	O	0.785814	0.874286	0.107392
O12	O	1.010344	0.874287	-0.117139
O13	O	1.022528	0.770361	-0.010966
Zr14	Zr	0.878968	1.037298	0.180777
Zr15	Zr	0.878968	1.037298	-0.059144
Zr16	Zr	0.905006	0.815200	0.167756
Zr17	Zr	1.144926	0.815201	-0.072165
Zr18	Zr	0.639047	1.037298	0.180776
O19	O	1.074529	0.995878	0.133604
O20	O	1.074528	0.995878	-0.207533
O21	O	1.111552	0.680083	0.115090
O22	O	0.672423	1.172415	0.334659
O23	O	0.672422	1.172416	-0.006478
O24	O	0.709445	0.856620	0.316144
O25	O	0.863127	1.172416	-0.006478
O26	O	0.883825	0.995877	0.324309
O27	O	0.900151	0.856621	0.316145
O28	O	0.863127	1.172416	0.143954
O29	O	1.241286	0.856622	-0.215697
O30	O	0.542688	0.995876	0.324308
O31	O	0.521991	1.172415	0.334658
O32	O	0.521991	1.172415	0.143953
O33	O	1.261983	0.680083	-0.035342
O34	O	1.241286	0.856622	-0.024992
O35	O	0.773630	0.978212	0.225750
O36	O	0.761446	1.082137	0.119577
O37	O	0.998160	0.978212	0.001220
O38	O	1.010344	0.874287	0.107392
C39	C	0.591882	0.926249	0.054305
C40	C	0.490030	0.926248	0.054305
C41	C	0.426660	0.853342	-0.028727
C42	C	0.531932	0.853340	-0.028729
C43	C	0.924556	0.648438	0.038018
C44	C	0.935610	0.554152	0.032491
C45	C	0.709229	0.485483	0.145696
C46	C	0.719609	0.396896	0.140505
C47	C	0.966747	0.288388	0.016925
C48	C	0.956368	0.376975	0.022116
C49	C	0.827604	0.475522	0.086502
C50	C	0.817226	0.564111	0.091686
C51	C	1.064363	0.455602	-0.031887
C52	C	1.074743	0.367014	-0.037078
C53	C	1.192091	0.926250	0.054306
C54	C	1.293944	0.926250	0.054307
C55	C	0.891986	0.926250	-0.245799
C56	C	0.891986	0.926250	-0.347652
C57	C	0.859417	1.204060	0.070593
C58	C	0.848364	1.298347	0.076121
C59	C	1.009412	0.874696	-0.451775
C60	C	1.009414	0.874695	-0.557046
C61	C	0.891988	0.926249	0.354410
C62	C	0.891988	0.926249	0.456263
C63	C	0.559313	1.204060	0.070592
C64	C	0.446406	1.298346	0.076120
C65	C	0.591883	0.926248	0.354410
C66	C	0.490031	0.926248	0.456262
C67	C	0.559314	1.204059	0.370697
C68	C	0.446408	1.298345	0.478077
C69	C	1.224660	0.648439	-0.262086
C70	C	1.337566	0.554153	-0.369466
C71	C	1.224661	0.648439	0.038019
C72	C	1.337567	0.554153	0.032491
C73	C	1.192090	0.926250	-0.245798
C74	C	1.293943	0.926251	-0.347651
C75	C	0.399744	1.288376	0.016924
C76	C	0.293670	1.376959	0.022095
C77	C	0.234255	1.475512	0.086469
C78	C	0.280927	1.485480	0.145666
C79	C	0.387005	1.396898	0.140488
C80	C	0.387025	1.396881	0.473084
C81	C	0.280950	1.485481	0.573971
C82	C	0.234253	1.475544	0.679849
C83	C	0.293647	1.376998	0.684840
C84	C	0.399726	1.288400	0.583955
C85	C	1.396961	0.455618	-0.364473
C86	C	1.503065	0.367017	-0.465359
C87	C	1.549767	0.376955	-0.571238
C88	C	1.490367	0.475500	-0.576229
C89	C	1.384271	0.564098	-0.475343
C90	C	1.384240	0.564123	0.091678
C91	C	1.490340	0.475539	0.086480
C92	C	1.549759	0.376987	0.022103
C93	C	1.503082	0.367018	-0.037090
C94	C	1.396990	0.455601	-0.031899
C95	C	0.438578	0.977802	0.560385
C96	C	0.333308	0.977803	0.665657
H97	H	0.258258	0.988664	0.125397
H98	H	1.358944	0.447507	-0.278271
H99	H	1.071580	0.208139	-0.035479
H100	H	1.335868	0.644361	0.144108
H101	H	0.232601	1.565713	0.569887
H102	H	0.791451	0.970383	-0.454423
C103	C	1.216375	0.258606	-0.107906
N104	N	1.323055	0.176953	-0.161261
H105	H	0.712380	0.644349	0.144120
C106	C	0.353666	0.866633	0.531687
N107	N	0.398647	0.821735	0.440799
H108	H	0.425028	1.404991	0.386882
H109	H	1.160753	0.447496	-0.080090
H110	H	0.791454	0.970389	-0.336444
H111	H	0.462347	0.790920	-0.099810
H112	H	1.551477	0.286765	-0.089506
H113	H	1.551412	0.286786	-0.461273
C114	C	0.336295	1.010581	0.150349
N115	N	0.220496	1.074099	0.222691
H116	H	0.147875	1.547695	0.761988
C117	C	0.242340	1.365971	-0.043020
N118	N	0.203678	1.357692	-0.092061
H119	H	0.604385	0.565723	0.198129
C120	C	0.117558	1.572946	0.092162
N121	N	0.029657	1.646330	0.096450
H122	H	1.335912	0.644328	-0.479423
H123	H	1.358994	0.447468	-0.080093
H124	H	0.645729	0.790924	-0.099820
C125	C	0.465089	1.179976	-0.053904
N126	N	0.514308	1.098331	-0.107261
H127	H	1.636158	0.304804	-0.653377
H128	H	0.456152	0.882107	0.445054
C129	C	0.465034	1.180013	0.589467
N130	N	0.514221	1.098377	0.593627
C131	C	0.215545	1.593898	0.216483
N132	N	0.166289	1.675561	0.269830
C133	C	1.541743	0.486414	-0.692708
N134	N	1.580435	0.494631	-0.780442
H135	H	1.528325	0.483676	0.134688
C136	C	0.438309	1.407882	0.205627
N137	N	0.476943	1.416164	0.254694
C138	C	1.666456	0.279552	0.016410
N139	N	1.754348	0.206169	0.012130
C140	C	1.145229	0.815077	-0.466922
N141	N	1.247530	0.770173	-0.478334
C142	C	0.273563	1.037434	0.786321
N143	N	0.228561	1.082349	0.877210
C144	C	1.145235	0.815065	-0.677710
N145	N	1.247539	0.770152	-0.768599
H146	H	0.623216	0.405014	0.188708
H147	H	0.255611	1.368922	0.771060
H148	H	0.472467	1.021934	0.571593
