data_functionalizedCrystal
_audit_creation_method	'MofGen! by Chris Wilmer'
_symmetry_space_group_name_H-M	'P1'
_symmetry_Int_Tables_number	1
_symmetry_cell_setting	triclinic
loop_
_symmetry_equiv_pos_as_xyz
  x,y,z
_cell_length_a	10.654550
_cell_length_b	17.019294
_cell_length_c	9.130313
_cell_angle_alpha	86.119786
_cell_angle_beta	89.996220
_cell_angle_gamma	83.938066
loop_
_atom_site_label
_atom_site_type_symbol
_atom_site_fract_x
_atom_site_fract_y
_atom_site_fract_z
O1	O	1.666099	0.110791	-0.135891
O2	O	1.300455	0.121346	-0.137198
O3	O	1.493478	0.001292	-0.122062
O4	O	1.473076	0.230845	-0.151027
O5	O	1.493475	0.001295	0.121536
O6	O	1.300452	0.121350	0.106400
O7	O	1.666096	0.110794	0.107708
Cu8	Cu	1.483274	0.116072	0.129297
Cu9	Cu	1.483277	0.116068	-0.158787
O10	O	1.473073	0.230848	0.092572
C11	C	1.253668	0.120573	-0.015298
C12	C	1.114261	0.118254	-0.014997
C13	C	1.033668	0.188940	-0.023937
C14	C	0.902681	0.186757	-0.023687
C15	C	0.932893	0.043195	-0.005561
C16	C	1.063877	0.045379	-0.005801
C17	C	1.016224	0.271825	-0.034408
C18	C	0.885237	0.269641	-0.034158
C19	C	1.492703	-0.028100	0.003443
C20	C	1.490383	-0.115683	0.014486
C21	C	1.489297	-0.156827	-0.113111
C22	C	1.487109	-0.239119	-0.102731
C23	C	1.486016	-0.280267	0.035247
C24	C	1.487098	-0.239117	0.162854
C25	C	1.489277	-0.156825	0.152472
C26	C	1.479429	-0.528735	0.073236
C27	C	1.477254	-0.611033	0.083608
C28	C	1.477263	-0.611029	-0.181978
C29	C	1.479449	-0.528736	-0.192347
C30	C	1.480524	-0.487593	-0.064741
C31	C	1.483784	-0.364384	0.045861
C32	C	1.482748	-0.403477	-0.075356
C33	C	1.712883	0.111567	-0.014195
C34	C	1.852290	0.113886	-0.014507
C35	C	1.473848	0.260240	-0.032937
C36	C	1.476168	0.347823	-0.043989
N37	N	1.483281	0.116074	0.331919
N38	N	1.483280	0.116060	-0.361408
C39	C	1.568773	0.062932	0.415271
C40	C	1.568770	0.062923	0.568609
C41	C	1.397778	0.169204	0.555229
C42	C	1.397777	0.169209	0.401894
C43	C	1.667498	0.001574	0.422997
C44	C	1.667495	0.001564	0.576335
H45	H	1.051467	0.298215	-0.142910
H46	H	0.843016	0.300869	-0.140052
H47	H	1.647005	-0.059057	0.389029
H48	H	0.839173	0.294691	0.067849
F49	F	1.306772	0.225759	0.313186
H50	H	1.490194	-0.123330	-0.225468
F51	F	1.306782	0.225751	0.629713
H52	H	1.758381	0.020786	0.373008
F53	F	1.793365	0.019224	0.628501
F54	F	1.149647	-0.029855	0.003744
F55	F	0.879260	-0.034360	0.004226
F56	F	1.053903	0.314199	0.093496
H57	H	1.476385	-0.644537	-0.285867
F58	F	1.480615	-0.484950	-0.339203
F59	F	1.485955	-0.282904	-0.238538
F60	F	1.476097	-0.654825	0.230470
H61	H	1.480330	-0.495248	0.177143
F62	F	1.485921	-0.282911	0.309701
F63	F	1.490431	-0.113037	0.288278
H64	H	1.483629	-0.369970	-0.187697
H65	H	1.637879	-0.055732	0.631114
F66	F	1.482615	-0.408184	0.192704
