data_functionalizedCrystal
_audit_creation_method	'MofGen! by Chris Wilmer'
_symmetry_space_group_name_H-M	'P1'
_symmetry_Int_Tables_number	1
_symmetry_cell_setting	triclinic
loop_
_symmetry_equiv_pos_as_xyz
  x,y,z
_cell_length_a	14.044191
_cell_length_b	19.188924
_cell_length_c	12.503572
_cell_angle_alpha	93.509187
_cell_angle_beta	86.162165
_cell_angle_gamma	88.166870
loop_
_atom_site_label
_atom_site_type_symbol
_atom_site_fract_x
_atom_site_fract_y
_atom_site_fract_z
O1	O	1.262484	0.164611	-0.089277
O2	O	0.986540	0.158532	-0.089291
O3	O	1.132478	0.060430	-0.089271
O4	O	1.116546	0.262713	-0.089297
O5	O	1.121502	0.067821	0.089369
O6	O	0.975565	0.165924	0.089350
O7	O	1.251508	0.172002	0.089363
Cu8	Cu	1.112535	0.169638	0.105668
Cu9	Cu	1.125514	0.160897	-0.105595
O10	O	1.105571	0.270104	0.089343
C11	C	0.945749	0.159569	0.000028
C12	C	0.840557	0.151638	0.000023
C13	C	0.590096	0.193386	0.000029
C14	C	0.647959	0.137151	0.000034
C15	C	0.755130	0.145213	0.000028
C16	C	0.482915	0.185325	0.000035
C17	C	1.126475	0.038082	0.000050
C18	C	1.124929	-0.039523	0.000053
C19	C	1.130191	-0.079997	-0.097324
C20	C	1.128726	-0.152915	-0.097332
C21	C	1.122018	-0.185356	0.000042
C22	C	1.116750	-0.144872	0.097432
C23	C	1.118206	-0.071955	0.097438
N24	N	1.169205	-0.298687	0.072518
N25	N	1.167825	-0.367955	0.072506
C26	C	1.117629	-0.405049	0.000032
N27	N	1.068879	-0.370259	-0.072447
N28	N	1.070264	-0.300985	-0.072439
C29	C	1.120438	-0.264421	0.000047
C30	C	1.121301	-0.524589	-0.097361
C31	C	1.119829	-0.597508	-0.097365
C32	C	1.107864	-0.589463	0.097402
C33	C	1.109325	-0.516546	0.097403
C34	C	1.116049	-0.484113	0.000019
C35	C	1.292300	0.170965	0.000042
C36	C	1.397492	0.178896	0.000040
C37	C	1.111574	0.292452	0.000020
C38	C	1.113120	0.370057	0.000010
N39	N	1.103412	0.175785	0.254259
N40	N	1.134644	0.154744	-0.254186
C41	C	1.089993	0.184835	0.473372
C42	C	1.148060	0.145696	0.526707
C43	C	1.140594	0.150731	0.648629
C44	C	1.097458	0.179801	0.351439
H45	H	0.617015	0.082947	-0.000034
C46	C	1.128685	-0.488910	-0.204477
H47	H	1.131594	-0.523461	-0.262475
H48	H	1.184751	-0.462518	-0.208523
H49	H	1.074248	-0.458747	-0.208524
C50	C	1.015244	0.235193	0.535373
H51	H	0.979779	0.259082	0.485879
H52	H	1.046618	0.268130	0.579253
H53	H	0.973199	0.209423	0.579235
C54	C	1.100477	-0.625139	0.204512
H55	H	1.100366	-0.674363	0.190564
H56	H	1.043009	-0.609651	0.244518
H57	H	1.153512	-0.613424	0.244530
H58	H	1.105049	-0.483591	0.176698
C59	C	1.222823	0.095344	0.464701
H60	H	1.218117	0.098533	0.389702
H61	H	1.211545	0.048867	0.483055
H62	H	1.284945	0.107586	0.483078
H63	H	1.135663	-0.053595	-0.176622
C64	C	0.631900	0.266601	0.000003
H65	H	0.699493	0.262482	-0.000011
H66	H	0.607188	0.293828	0.062290
H67	H	0.614830	0.288656	-0.062309
C68	C	1.134551	-0.197447	-0.204451
H69	H	1.138779	-0.167688	-0.262448
H70	H	1.078998	-0.224188	-0.208534
H71	H	1.189498	-0.227930	-0.208463
C72	C	1.109374	-0.180554	0.204541
H73	H	1.109270	-0.229778	0.190592
H74	H	1.051906	-0.165070	0.244551
H75	H	1.162409	-0.168834	0.244555
C76	C	1.112427	-0.027432	0.204557
H77	H	1.108227	-0.057193	0.262551
H78	H	1.057502	0.003067	0.208605
H79	H	1.168006	-0.000709	0.208607
H80	H	1.124109	-0.630461	-0.176665
