data_functionalizedCrystal
_audit_creation_method	'MofGen! by Chris Wilmer'
_symmetry_space_group_name_H-M	'P1'
_symmetry_Int_Tables_number	1
_symmetry_cell_setting	triclinic
loop_
_symmetry_equiv_pos_as_xyz
  x,y,z
_cell_length_a	19.077236
_cell_length_b	29.839131
_cell_length_c	19.077174
_cell_angle_alpha	92.262165
_cell_angle_beta	85.294282
_cell_angle_gamma	92.327558
loop_
_atom_site_label
_atom_site_type_symbol
_atom_site_fract_x
_atom_site_fract_y
_atom_site_fract_z
Zn1	Zn	1.093689	-0.162206	-0.441922
Zn2	Zn	1.088852	-0.234434	-0.324010
Zn3	Zn	0.971070	-0.162212	-0.319305
Zn4	Zn	0.975741	-0.240204	-0.437113
O5	O	1.032338	-0.199764	-0.380587
O6	O	1.191701	-0.169369	-0.430262
O7	O	1.069249	-0.222442	-0.224737
O8	O	0.987406	-0.099344	-0.335613
O9	O	1.188147	-0.222435	-0.343633
O10	O	1.077493	-0.099339	-0.425699
O11	O	0.982715	-0.169381	-0.221279
O12	O	0.873036	-0.174976	-0.330950
O13	O	0.995365	-0.232269	-0.536400
O14	O	0.876467	-0.232276	-0.417504
O15	O	1.082022	-0.174964	-0.539933
O16	O	1.073777	-0.298068	-0.338971
O17	O	0.990675	-0.302307	-0.422067
C18	C	0.849172	-0.204253	-0.373195
C19	C	0.770813	-0.206185	-0.370049
C20	C	0.735854	-0.179511	-0.413743
C21	C	0.662227	-0.181324	-0.410781
C22	C	0.623562	-0.209813	-0.364128
C23	C	0.658526	-0.236488	-0.320430
C24	C	0.732151	-0.234672	-0.323389
C25	C	0.403168	-0.218197	-0.350432
C26	C	0.329538	-0.220012	-0.347478
C27	C	0.333244	-0.164847	-0.437829
C28	C	0.406870	-0.163036	-0.440787
C29	C	0.441828	-0.189709	-0.397085
N30	N	0.548304	-0.211667	-0.361101
N31	N	0.517085	-0.187852	-0.400109
C32	C	1.032228	-0.316488	-0.380524
C33	C	1.032246	-0.366422	-0.380523
C34	C	1.079239	-0.676029	-0.427559
C35	C	1.079317	-0.863701	-0.427605
O36	O	1.119165	-0.887936	-0.467548
N37	N	1.032461	-0.887205	-0.380671
C38	C	0.985578	-0.863789	-0.333725
O39	O	0.945721	-0.888087	-0.293810
C40	C	0.985497	-0.676117	-0.333683
C41	C	1.032362	-0.652615	-0.380616
C42	C	1.126099	-0.652527	-0.474488
C43	C	1.126082	-0.605612	-0.474474
C44	C	1.079204	-0.582198	-0.427530
C45	C	1.032344	-0.605700	-0.380601
C46	C	0.938612	-0.652702	-0.286742
C47	C	0.938594	-0.605781	-0.286737
C48	C	0.985459	-0.582279	-0.333669
C49	C	0.985449	-0.535371	-0.333643
N50	N	1.032306	-0.511867	-0.380577
C51	C	1.079183	-0.535281	-0.427521
C52	C	0.985625	-0.962319	-0.333749
C53	C	0.985646	-1.009236	-0.333758
C54	C	1.079384	-1.009145	-0.427639
C55	C	1.079366	-0.962227	-0.427626
C56	C	1.032481	-0.938814	-0.380683
C57	C	1.079144	-0.436755	-0.427487
C58	C	1.079124	-0.389835	-0.427466
C59	C	0.985383	-0.389930	-0.333588
C60	C	0.985405	-0.436846	-0.333606
C61	C	1.032288	-0.460257	-0.380561
O62	O	0.945617	-0.511107	-0.293726
O63	O	1.119024	-0.510975	-0.467440
C64	C	1.079256	-0.722944	-0.427574
C65	C	1.032396	-0.746446	-0.380645
C66	C	0.985519	-0.723033	-0.333701
C67	C	1.032417	-0.793364	-0.380654
C68	C	1.079295	-0.816777	-0.427597
C69	C	1.126151	-0.793273	-0.474532
C70	C	1.126134	-0.746358	-0.474517
C71	C	0.938662	-0.746537	-0.286767
C72	C	0.938684	-0.793452	-0.286785
C73	C	0.985562	-0.816866	-0.333728
C74	C	1.216219	-0.195258	-0.388009
C75	C	1.294578	-0.193338	-0.391172
C76	C	1.039754	-0.204260	-0.564461
C77	C	1.042914	-0.206175	-0.642817
C78	C	1.032468	-0.082585	-0.380668
C79	C	1.032523	-0.032650	-0.380702
C80	C	0.999348	-0.179450	-0.677828
C81	C	1.002315	-0.181254	-0.751451
C82	C	1.048852	-0.209781	-0.790062
C83	C	1.092421	-0.236509	-0.755046
C84	C	1.089450	-0.234708	-0.681424
C85	C	1.062565	-0.218134	-1.010443
C86	C	1.065534	-0.219933	-1.084070
C87	C	0.975427	-0.164677	-1.080470
C88	C	0.972463	-0.162876	-1.006847
C89	C	1.016029	-0.189606	-0.971837
N90	N	1.051887	-0.211624	-0.865318
N91	N	1.012989	-0.187765	-0.896583
C92	C	1.024991	-0.195253	-0.197431
C93	C	1.021967	-0.193207	-0.119081
H94	H	0.633767	-0.159604	-0.446363
H95	H	0.961456	-0.156217	-0.646396
H96	H	1.098032	-0.239905	-0.981946
O97	O	0.766085	-0.260652	-0.281021
C98	C	0.748668	-0.306260	-0.295553
H99	H	0.730708	-0.310460	-0.351050
H100	H	0.796823	-0.327105	-0.291358
H101	H	0.704392	-0.318096	-0.256003
O102	O	1.171611	-0.675220	-0.520188
C103	C	1.158967	-0.665843	-0.589809
H104	H	1.131897	-0.632497	-0.590143
H105	H	1.211100	-0.663714	-0.623507
H106	H	1.123683	-0.693735	-0.612075
H107	H	1.164323	-0.812344	-0.512752
O108	O	1.124910	-0.939470	-0.473288
C109	C	1.166299	-0.970201	-0.514707
H110	H	1.137532	-1.004429	-0.515957
H111	H	1.176007	-0.957802	-0.570558
H112	H	1.218826	-0.973222	-0.491099
H113	H	0.304773	-0.143130	-0.473407
H114	H	0.627039	-0.259682	-0.282441
H115	H	0.900522	-0.812583	-0.248560
H116	H	0.431621	-0.239917	-0.314848
O117	O	0.940060	-1.031995	-0.288138
C118	C	0.898695	-1.001262	-0.246695
H119	H	0.897386	-0.968577	-0.275465
H120	H	0.842854	-1.016027	-0.236890
H121	H	0.922394	-0.994331	-0.194219
O122	O	0.444320	-0.135318	-0.486117
C123	C	0.397675	-0.112169	-0.524059
H124	H	0.344023	-0.111176	-0.493083
H125	H	0.419282	-0.076441	-0.532537
H126	H	0.392004	-0.130171	-0.577237
H127	H	1.124932	-0.256467	-0.652919
O128	O	0.292083	-0.247698	-0.302095
C129	C	0.338725	-0.270860	-0.264170
H130	H	0.391123	-0.251104	-0.263889
H131	H	0.315191	-0.274764	-0.207759
H132	H	0.347575	-0.305442	-0.290193
O133	O	1.124821	-1.031918	-0.473315
C134	C	1.086481	-1.061170	-0.517176
H135	H	1.031122	-1.048525	-0.519234
H136	H	1.114115	-1.062377	-0.572480
H137	H	1.083202	-1.096262	-0.495282
H138	H	0.934565	-0.139647	-0.975414
H139	H	1.117289	-0.370701	-0.465684
O140	O	1.124749	-0.459422	-0.473126
C141	C	1.166086	-0.428611	-0.514552
H142	H	1.167370	-0.394412	-0.485761
H143	H	1.221937	-0.440951	-0.524370
H144	H	1.142378	-0.425554	-0.567023
H145	H	0.900488	-0.727477	-0.248541
O146	O	1.171504	-0.582740	-0.520102
C147	C	1.133154	-0.557718	-0.563988
H148	H	1.078745	-0.551423	-0.536921
H149	H	1.162236	-0.524236	-0.574623
H150	H	1.127471	-0.577260	-0.615907
O151	O	0.940178	-0.939526	-0.288112
C152	C	0.978504	-0.910289	-0.244214
H153	H	1.032909	-0.902514	-0.271277
H154	H	0.949395	-0.877792	-0.233570
H155	H	0.984200	-0.926919	-0.192301
H156	H	0.900450	-0.671829	-0.248524
H157	H	0.900413	-0.586721	-0.248511
O158	O	0.959970	-0.155246	-0.785351
C159	C	0.918250	-0.129687	-0.735485
H160	H	0.945012	-0.126141	-0.684171
H161	H	0.911631	-0.094994	-0.756479
H162	H	0.864371	-0.147256	-0.725480
H163	H	0.947250	-0.455982	-0.295384
H164	H	1.130309	-0.259739	-0.786489
O165	O	0.939873	-0.367113	-0.288058
C166	C	0.949922	-0.320664	-0.298105
H167	H	0.975166	-0.314993	-0.353455
H168	H	0.896919	-0.304039	-0.291154
H169	H	0.985804	-0.305398	-0.257833
O170	O	0.773338	-0.151864	-0.459158
C171	C	0.758197	-0.163919	-0.528666
H172	H	0.704784	-0.182543	-0.527925
H173	H	0.756985	-0.132364	-0.560277
H174	H	0.800575	-0.186597	-0.554004
H175	H	0.939957	-0.142915	-1.108983
H176	H	1.164295	-0.727226	-0.512734
O177	O	1.110760	-0.247686	-1.121470
C178	C	1.148588	-0.270885	-1.074784
H179	H	1.117593	-0.271866	-1.021137
H180	H	1.156925	-0.306616	-1.096339
H181	H	1.201834	-0.252931	-1.069124
