data_functionalizedCrystal
_audit_creation_method	'MofGen! by Chris Wilmer'
_symmetry_space_group_name_H-M	'P1'
_symmetry_Int_Tables_number	1
_symmetry_cell_setting	triclinic
loop_
_symmetry_equiv_pos_as_xyz
  x,y,z
_cell_length_a	19.377625
_cell_length_b	20.875641
_cell_length_c	20.875643
_cell_angle_alpha	119.909987
_cell_angle_beta	104.468566
_cell_angle_gamma	54.401971
loop_
_atom_site_label
_atom_site_type_symbol
_atom_site_fract_x
_atom_site_fract_y
_atom_site_fract_z
Zr1	Zr	0.725428	0.682400	0.268073
O2	O	0.620080	0.810375	0.347767
O3	O	0.753782	0.550677	0.239485
O4	O	0.764368	0.674526	0.375325
O5	O	0.605627	0.694043	0.109502
O6	O	0.882668	0.672578	0.401793
O7	O	0.609494	0.686526	0.211927
O8	O	0.863732	0.451035	0.158799
O9	O	0.624564	0.915586	0.352496
O10	O	0.858922	0.604790	0.252068
O11	O	0.767750	0.611855	0.155877
O12	O	0.780214	0.757670	0.315812
O13	O	0.689042	0.764734	0.219621
Zr14	Zr	0.907937	0.691282	0.146931
Zr15	Zr	0.914104	0.679292	0.310286
Zr16	Zr	0.719261	0.694389	0.104718
Zr17	Zr	0.732579	0.850199	0.275615
Zr18	Zr	0.900786	0.523482	0.139389
O19	O	0.879583	0.823004	0.175519
O20	O	0.888352	0.805956	0.407788
O21	O	0.611311	0.827422	0.115498
O22	O	1.013285	0.563306	0.067237
O23	O	1.022054	0.546259	0.299506
O24	O	0.745013	0.567725	0.007216
O25	O	1.027738	0.679638	0.305502
O26	O	0.868997	0.699155	0.039679
O27	O	0.750697	0.701103	0.013211
O28	O	1.023871	0.687155	0.203077
O29	O	0.774536	0.913116	0.386050
O30	O	0.858829	0.460565	0.028954
O31	O	1.008801	0.458095	0.062508
O32	O	1.013703	0.448565	0.192353
O33	O	0.619662	0.925116	0.222651
O34	O	0.769634	0.922646	0.256205
O35	O	0.853151	0.616011	0.099192
O36	O	0.944323	0.608947	0.195383
O37	O	0.865615	0.761826	0.259127
O38	O	0.774443	0.768891	0.162936
C39	C	0.807738	0.476948	0.198068
C40	C	0.804702	0.405713	0.194866
C41	C	0.850864	0.368559	0.243571
C42	C	0.848014	0.301622	0.240556
C43	C	0.798995	0.271844	0.188837
C44	C	0.752832	0.309001	0.140127
C45	C	0.755688	0.375933	0.143139
C46	C	0.785355	0.072057	0.174440
C47	C	0.782501	0.005122	0.171433
C48	C	0.877685	-0.002254	0.271861
C49	C	0.880532	0.064684	0.274872
C50	C	0.834372	0.101832	0.226159
N51	N	0.796078	0.203425	0.185755
N52	N	0.837294	0.170245	0.229238
C53	C	0.580678	0.690727	0.154700
C54	C	0.500581	0.692046	0.136780
C55	C	0.247790	0.675645	0.359929
C56	C	0.172529	0.676880	0.343066
C57	C	0.168289	0.685162	0.230221
C58	C	0.243549	0.683933	0.247076
C59	C	0.283294	0.679173	0.311930
C60	C	0.279054	0.687461	0.199077
C61	C	0.354310	0.686227	0.215929
C62	C	0.394061	0.681465	0.280779
C63	C	0.358550	0.677940	0.328782
C64	C	0.239310	0.692214	0.134221
C65	C	0.274815	0.695741	0.086222
C66	C	0.350069	0.694514	0.103076
C67	C	0.389820	0.689752	0.167926
C68	C	0.385580	0.698039	0.055073
C69	C	0.460836	0.696806	0.071925
C70	C	0.465076	0.688519	0.184778
C71	C	1.052687	0.682954	0.260304
C72	C	1.132784	0.681635	0.278225
C73	C	0.824397	0.671844	0.411834
C74	C	0.827015	0.666754	0.481182
C75	C	0.825627	0.896733	0.216936
C76	C	0.828663	0.967968	0.220138
C77	C	0.787161	0.744162	0.547036
C78	C	0.789632	0.739375	0.612196
C79	C	0.831952	0.657178	0.611499
C80	C	0.871811	0.579763	0.545639
C81	C	0.869345	0.584552	0.480481
C82	C	0.843739	0.634299	0.802802
C83	C	0.846200	0.629516	0.867966
C84	C	0.764023	0.789128	0.934519
C85	C	0.761556	0.793910	0.869357
C86	C	0.801418	0.716495	0.803503
N87	N	0.834477	0.652282	0.678102
N88	N	0.798898	0.721392	0.736903
C89	C	0.808968	0.701837	1.003170
C90	C	0.806347	0.706925	0.933820
C91	C	1.043742	0.473062	0.250870
C92	C	1.120804	0.400507	0.265588
C93	C	0.800024	0.491945	-0.006264
C94	C	0.794370	0.425800	-0.078815
C95	C	1.036028	0.488058	0.046538
C96	C	1.110472	0.420594	-0.008092
C97	C	0.597337	0.885623	0.368466
C98	C	0.522894	0.953087	0.423096
C99	C	0.589623	0.900619	0.164134
C100	C	0.512561	0.973174	0.149416
C101	C	0.833342	0.881736	0.421268
C102	C	0.838996	0.947882	0.493819
C103	C	1.112415	0.364265	0.302096
C104	C	1.184816	0.296100	0.315940
C105	C	1.265606	0.264175	0.293270
C106	C	1.273993	0.300424	0.256761
C107	C	1.201593	0.368592	0.242922
C108	C	0.836292	0.396907	-0.142481
C109	C	0.830977	0.334766	-0.210656
C110	C	0.783743	0.301514	-0.215163
C111	C	0.741815	0.330413	-0.151490
C112	C	0.747126	0.392557	-0.083317
C113	C	1.193030	0.385224	0.016465
C114	C	1.262985	0.321842	-0.034857
C115	C	1.250381	0.293827	-0.110736
C116	C	1.167814	0.329203	-0.135294
C117	C	1.097860	0.392588	-0.083972
C118	C	0.440336	0.988465	0.398539
C119	C	0.370381	1.051868	0.449862
C120	C	0.382986	1.079887	0.525742
C121	C	0.465552	1.044506	0.550299
C122	C	0.535506	0.981109	0.498977
C123	C	0.520951	1.009423	0.112915
C124	C	0.448551	1.077604	0.099090
C125	C	0.367762	1.109532	0.121762
C126	C	0.359374	1.073280	0.158268
C127	C	0.431774	1.005104	0.172097
C128	C	0.886237	0.981114	0.498302
C129	C	0.891566	1.043256	0.566468
C130	C	0.849648	1.072169	0.630149
C131	C	0.802405	1.038931	0.625664
C132	C	0.797082	0.976785	0.557500
H133	H	0.747772	0.102292	0.134772
H134	H	0.768278	1.062482	0.677522
H135	H	0.326018	1.131508	0.567524
H136	H	1.307349	0.242214	-0.152518
Cl137	Cl	1.375563	0.260276	0.228262
H138	H	1.177971	0.266594	0.345667
H139	H	0.876198	0.571263	0.749190
H140	H	1.324552	0.208668	0.304542
H141	H	1.330209	0.293045	-0.014849
H142	H	0.475806	1.067327	0.612087
H143	H	1.208435	0.398092	0.213191
H144	H	0.880661	0.562578	0.867390
Cl145	Cl	0.682441	0.288600	-0.157167
Cl146	Cl	0.505473	0.701237	0.011580
Cl147	Cl	0.408512	0.671970	0.410321
Cl148	Cl	0.895680	0.438694	-0.136835
H149	H	0.865123	0.311244	-0.262493
Cl150	Cl	0.777076	0.223387	-0.300872
H151	H	1.046639	0.390256	0.320568
Cl152	Cl	1.151982	0.293973	-0.230689
H153	H	1.203309	0.408024	0.078248
Cl154	Cl	0.127902	0.672441	0.403416
H155	H	0.727097	0.860843	0.869933
Cl156	Cl	0.515038	0.682549	0.266317
H157	H	0.890776	0.392803	0.285689
Cl158	Cl	0.994074	0.437040	-0.114858
H159	H	0.758610	0.949734	0.553859
H160	H	0.752694	0.811096	0.547611
H161	H	0.885603	0.271370	0.280215
Cl162	Cl	0.459114	1.123161	0.053193
Cl163	Cl	0.694422	0.428866	-0.003282
H164	H	0.906273	0.512837	0.545077
Cl165	Cl	0.424467	0.953255	0.303150
H166	H	0.920446	0.088927	0.316985
Cl167	Cl	0.713916	0.886443	1.017308
Cl168	Cl	0.266593	1.096330	0.418974
H169	H	0.602726	0.952304	0.518981
Cl170	Cl	0.919458	0.487234	0.397694
Cl171	Cl	0.622506	0.969304	0.084410
H172	H	0.293586	1.099285	0.176725
Cl173	Cl	0.935714	-0.048960	0.333094
Cl174	Cl	0.276752	1.195239	0.104369
H175	H	0.455341	0.680457	0.294497
H176	H	0.424931	0.975592	0.201816
H177	H	0.757181	0.802409	0.665815
H178	H	0.920372	0.957583	0.446456
H179	H	0.718095	0.406185	0.103479
H180	H	0.930034	1.070313	0.570105
H181	H	0.742580	-0.019119	0.129317
Cl182	Cl	0.691221	0.271554	0.075099
Cl183	Cl	0.856346	1.150300	0.715836
Cl184	Cl	0.297751	0.669676	0.441468
Cl185	Cl	0.118321	0.691142	0.148691
Cl186	Cl	0.144705	0.693758	0.113036
H187	H	0.242447	0.699613	0.033416
H188	H	0.353214	0.701906	0.002265
