data_functionalizedCrystal
_audit_creation_method	'MofGen! by Chris Wilmer'
_symmetry_space_group_name_H-M	'P1'
_symmetry_Int_Tables_number	1
_symmetry_cell_setting	triclinic
loop_
_symmetry_equiv_pos_as_xyz
  x,y,z
_cell_length_a	14.971482
_cell_length_b	14.586319
_cell_length_c	14.971486
_cell_angle_alpha	90.004001
_cell_angle_beta	83.613368
_cell_angle_gamma	90.002951
loop_
_atom_site_label
_atom_site_type_symbol
_atom_site_fract_x
_atom_site_fract_y
_atom_site_fract_z
O1	O	1.186946	0.076229	0.116546
O2	O	1.520279	0.409562	0.449879
O3	O	1.853612	0.742896	0.783212
O4	O	0.926545	0.076233	0.130508
O5	O	1.259878	0.409567	0.463841
O6	O	1.593212	0.742900	0.797175
O7	O	1.063725	0.076225	-0.006673
O8	O	1.397058	0.409558	0.326660
O9	O	1.730391	0.742891	0.659993
O10	O	1.049766	0.076238	0.253727
O11	O	1.383099	0.409571	0.587060
O12	O	1.716433	0.742905	0.920394
O13	O	1.063715	-0.076256	-0.006675
O14	O	1.397048	0.257077	0.326658
O15	O	1.730382	0.590410	0.659991
O16	O	0.926535	-0.076247	0.130506
O17	O	1.259869	0.257086	0.463839
O18	O	1.593202	0.590419	0.797173
O19	O	1.186936	-0.076252	0.116544
O20	O	1.520269	0.257081	0.449877
O21	O	1.853603	0.590415	0.783210
Cu22	Cu	1.056735	-0.090172	0.123525
Cu23	Cu	1.390068	0.243161	0.456858
Cu24	Cu	1.723402	0.576494	0.790191
Cu25	Cu	1.056746	0.090154	0.123527
Cu26	Cu	1.390079	0.423487	0.456860
Cu27	Cu	1.723413	0.756821	0.790194
O28	O	1.049756	-0.076243	0.253725
O29	O	1.383090	0.257090	0.587058
O30	O	1.716423	0.590424	0.920392
C31	C	0.893215	-0.000006	0.129883
C32	C	1.226549	0.333327	0.463217
C33	C	1.559882	0.666660	0.796550
C34	C	0.793918	-0.000005	0.128014
C35	C	1.127252	0.333328	0.461347
C36	C	1.460585	0.666662	0.794680
C37	C	0.747268	-0.083123	0.127132
C38	C	1.080602	0.250210	0.460466
C39	C	1.413935	0.583543	0.793799
C40	C	0.653970	-0.083124	0.125361
C41	C	0.987303	0.250209	0.458695
C42	C	1.320637	0.583542	0.792028
C43	C	0.607322	-0.000006	0.124479
C44	C	0.940655	0.333327	0.457812
C45	C	1.273989	0.666661	0.791145
C46	C	0.653979	0.083119	0.125358
C47	C	0.987312	0.416452	0.458691
C48	C	1.320646	0.749785	0.792024
C49	C	0.747276	0.083119	0.127122
C50	C	1.080610	0.416452	0.460455
C51	C	1.413943	0.749785	0.793789
C52	C	0.459517	0.083113	0.121682
C53	C	0.792850	0.416446	0.455016
C54	C	1.126184	0.749779	0.788349
C55	C	0.366213	0.083113	0.119919
C56	C	0.699546	0.416446	0.453253
C57	C	1.032879	0.749779	0.786586
C58	C	0.366210	-0.083130	0.119922
C59	C	0.699544	0.250203	0.453255
C60	C	1.032877	0.583536	0.786588
C61	C	0.459508	-0.083130	0.121686
C62	C	0.792841	0.250203	0.455019
C63	C	1.126175	0.583536	0.788353
C64	C	0.506158	-0.000005	0.122567
C65	C	0.839491	0.333328	0.455900
C66	C	1.172825	0.666661	0.789233
N67	N	1.056733	-0.217004	0.123522
N68	N	1.390067	0.116329	0.456856
N69	N	1.723400	0.449663	0.790189
C70	C	1.117497	-0.452014	0.062799
C71	C	1.450830	-0.118681	0.396132
C72	C	1.784163	0.214652	0.729466
C73	C	1.117499	-0.547996	0.062797
C74	C	1.450833	-0.214662	0.396130
C75	C	1.784166	0.118671	0.729463
C76	C	0.995985	-0.547997	0.184249
C77	C	1.329318	-0.214664	0.517582
C78	C	1.662652	0.118669	0.850915
C79	C	0.995979	-0.452018	0.184246
C80	C	1.329312	-0.118684	0.517579
C81	C	1.662645	0.214649	0.850912
C82	C	1.056740	-0.404029	0.123522
C83	C	1.390073	-0.070696	0.456855
C84	C	1.723406	0.262638	0.790189
C85	C	1.056748	-0.595990	0.123523
C86	C	1.390082	-0.262656	0.456856
C87	C	1.723415	0.070677	0.790189
C88	C	1.056751	-0.700057	0.123521
C89	C	1.390084	-0.366723	0.456854
C90	C	1.723417	-0.033390	0.790187
C91	C	1.056736	-0.299955	0.123522
C92	C	1.390070	0.033378	0.456856
C93	C	1.723403	0.366712	0.790189
C94	C	1.220266	-0.000010	0.117168
C95	C	1.553599	0.333323	0.450502
C96	C	1.886932	0.666657	0.783835
C97	C	1.319563	-0.000006	0.119038
C98	C	1.652896	0.333328	0.452371
C99	C	1.986229	0.666661	0.785705
C100	C	1.063096	-0.000016	-0.039999
C101	C	1.396429	0.333318	0.293334
C102	C	1.729762	0.666651	0.626668
C103	C	1.061225	-0.000015	-0.139296
C104	C	1.394558	0.333319	0.194037
C105	C	1.727892	0.666652	0.527371
N106	N	1.056755	0.216986	0.123522
N107	N	1.390088	0.550319	0.456856
N108	N	1.723421	0.883652	0.790189
C109	C	1.141814	-0.000017	-0.196522
C110	C	1.475148	0.333317	0.136811
C111	C	1.808481	0.666650	0.470144
C112	C	1.140051	-0.000008	-0.289822
C113	C	1.473385	0.333326	0.043511
C114	C	1.806718	0.666659	0.376845
C115	C	1.057698	-0.000003	-0.325893
C116	C	1.391031	0.333331	0.007440
C117	C	1.724364	0.666664	0.340774
C118	C	0.977102	0.000002	-0.268659
C119	C	1.310436	0.333335	0.064674
C120	C	1.643769	0.666669	0.398007
C121	C	0.978866	-0.000001	-0.175362
C122	C	1.312200	0.333333	0.157972
C123	C	1.645533	0.666666	0.491305
C124	C	0.973431	0.000005	-0.463122
C125	C	1.306765	0.333339	-0.129789
C126	C	1.640098	0.666672	0.203545
C127	C	0.971667	0.000006	-0.556426
C128	C	1.305000	0.333340	-0.223093
C129	C	1.638333	0.666673	0.110241
C130	C	1.134616	-0.000001	-0.577582
C131	C	1.467949	0.333332	-0.244249
C132	C	1.801283	0.666665	0.089085
C133	C	1.136380	-0.000004	-0.484284
C134	C	1.469713	0.333329	-0.150951
C135	C	1.803047	0.666663	0.182382
C136	C	1.055784	-0.000001	-0.427057
C137	C	1.389117	0.333332	-0.093724
C138	C	1.722451	0.666666	0.239610
C139	C	1.050385	-0.000001	0.287051
C140	C	1.383719	0.333333	0.620384
C141	C	1.717052	0.666666	0.953717
C142	C	1.052256	0.000004	0.386348
C143	C	1.385589	0.333338	0.719681
C144	C	1.718923	0.666671	1.053014
H145	H	0.497496	0.150802	0.122400
H146	H	0.830830	0.484135	0.455733
H147	H	1.164163	0.817469	0.789066
O148	O	0.603715	-0.172804	0.124329
O149	O	0.937049	0.160529	0.457662
O150	O	1.270382	0.493863	0.790995
H151	H	0.569177	-0.176758	0.062570
H152	H	0.902510	0.156575	0.395904
H153	H	1.235843	0.489909	0.729237
O154	O	1.221545	-0.000009	-0.639305
O155	O	1.554878	0.333325	-0.305971
O156	O	1.888211	0.666658	0.027362
H157	H	1.279106	-0.000028	-0.598548
H158	H	1.612439	0.333305	-0.265215
H159	H	1.945772	0.666639	0.068119
H160	H	0.615992	0.150795	0.124632
H161	H	0.949325	0.484128	0.457966
H162	H	1.282658	0.817462	0.791299
H163	H	0.785257	0.150802	0.127841
H164	H	1.118591	0.484136	0.461175
H165	H	1.451924	0.817469	0.794508
O166	O	0.315896	0.172759	0.118958
O167	O	0.649230	0.506093	0.452291
O168	O	0.982563	0.839426	0.785625
H169	H	0.325898	0.212632	0.180206
H170	H	0.659232	0.545965	0.513539
H171	H	0.992565	0.879298	0.846873
H172	H	1.166971	-0.412944	0.013353
H173	H	1.500304	-0.079611	0.346686
H174	H	1.833637	0.253723	0.680019
O175	O	0.891942	-0.000002	-0.113639
O176	O	1.225275	0.333331	0.219695
O177	O	1.558608	0.666664	0.553028
H178	H	0.907003	0.000004	-0.042703
H179	H	1.240336	0.333337	0.290630
H180	H	1.573669	0.666671	0.623963
H181	H	0.904607	-0.000004	-0.585792
H182	H	1.237941	0.333329	-0.252458
H183	H	1.571274	0.666662	0.080875
H184	H	1.166972	-0.587063	0.013350
H185	H	1.500305	-0.253730	0.346683
H186	H	1.833639	0.079604	0.680016
O187	O	0.886505	0.000000	-0.401393
O188	O	1.219839	0.333333	-0.068059
O189	O	1.553172	0.666667	0.265274
H190	H	0.828943	-0.000009	-0.442147
H191	H	1.162276	0.333324	-0.108814
H192	H	1.495609	0.666658	0.224519
H193	H	0.910049	0.000012	-0.298036
H194	H	1.243382	0.333345	0.035298
H195	H	1.576715	0.666678	0.368631
H196	H	0.946516	-0.587079	0.233690
H197	H	1.279849	-0.253746	0.567023
H198	H	1.613182	0.079587	0.900356
O199	O	1.230642	-0.000012	-0.157623
O200	O	1.563975	0.333322	0.175710
O201	O	1.897308	0.666655	0.509043
H202	H	1.269375	-0.062154	-0.180616
H203	H	1.602708	0.271180	0.152717
H204	H	1.936042	0.604513	0.486051
H205	H	1.203439	-0.000015	-0.454919
H206	H	1.536773	0.333319	-0.121585
H207	H	1.870106	0.666652	0.211748
O208	O	0.930445	-0.400246	0.249738
O209	O	1.263778	-0.066912	0.583071
O210	O	1.597111	0.266421	0.916405
H211	H	0.941916	-0.418643	0.319489
H212	H	1.275249	-0.085310	0.652823
H213	H	1.608582	0.248024	0.986156
O214	O	0.797579	-0.172773	0.128096
O215	O	1.130913	0.160561	0.461429
O216	O	1.464246	0.493894	0.794762
H217	H	0.749463	-0.230569	0.127181
H218	H	1.082796	0.102764	0.460514
H219	H	1.416130	0.436097	0.793847
O220	O	0.509823	-0.172776	0.122667
O221	O	0.843156	0.160557	0.456001
O222	O	1.176490	0.493891	0.789334
H223	H	0.461712	-0.230578	0.121760
H224	H	0.795045	0.102755	0.455094
H225	H	1.128379	0.436088	0.788427
H226	H	0.328223	-0.150814	0.119205
H227	H	0.661557	0.182519	0.452538
H228	H	0.994890	0.515853	0.785872
H229	H	1.205675	-0.000011	-0.336413
H230	H	1.539009	0.333322	-0.003079
H231	H	1.872342	0.666655	0.330254
