data_functionalizedCrystal
_audit_creation_method	'MofGen! by Chris Wilmer'
_symmetry_space_group_name_H-M	'P1'
_symmetry_Int_Tables_number	1
_symmetry_cell_setting	triclinic
loop_
_symmetry_equiv_pos_as_xyz
  x,y,z
_cell_length_a	19.851628
_cell_length_b	14.560438
_cell_length_c	14.560438
_cell_angle_alpha	90.001334
_cell_angle_beta	60.001639
_cell_angle_gamma	59.993758
loop_
_atom_site_label
_atom_site_type_symbol
_atom_site_fract_x
_atom_site_fract_y
_atom_site_fract_z
Zr1	Zr	0.737385	0.884634	-0.120526
O2	O	0.877931	0.737958	-0.267178
O3	O	0.596841	0.929615	-0.075568
O4	O	0.737387	0.929586	-0.267174
O5	O	0.737384	0.737991	0.075569
O6	O	0.737386	1.080726	-0.267172
O7	O	0.737386	0.737987	-0.075572
O8	O	0.485976	1.080778	0.075576
O9	O	0.988794	0.737938	-0.267179
O10	O	0.654648	1.061572	-0.056394
O11	O	0.654647	0.948781	0.056399
O12	O	0.820121	0.948747	-0.169192
O13	O	0.820120	0.835955	-0.056399
Zr14	Zr	0.737381	1.125691	0.120529
Zr15	Zr	0.737384	1.125685	-0.120523
Zr16	Zr	0.737382	0.884640	0.120526
Zr17	Zr	0.914199	0.884603	-0.120528
Zr18	Zr	0.560567	1.125722	0.120531
O19	O	0.877925	1.080710	0.075571
O20	O	0.877929	1.080701	-0.267174
O21	O	0.877927	0.737966	0.075567
O22	O	0.596835	1.272367	0.267181
O23	O	0.596839	1.272359	-0.075564
O24	O	0.596837	0.929623	0.267177
O25	O	0.737382	1.272334	-0.075566
O26	O	0.737379	1.080739	0.267177
O27	O	0.737380	0.929599	0.267176
O28	O	0.737380	1.272338	0.075575
O29	O	0.988793	0.929542	-0.267177
O30	O	0.485973	1.080783	0.267180
O31	O	0.485972	1.272386	0.267182
O32	O	0.485974	1.272382	0.075578
O33	O	0.988792	0.737943	-0.075575
O34	O	0.988790	0.929547	-0.075573
O35	O	0.654645	1.061578	0.169195
O36	O	0.654645	1.174370	0.056402
O37	O	0.820119	1.061544	-0.056396
O38	O	0.820118	0.948752	0.056397
C39	C	0.516216	1.005201	0.000004
C40	C	0.441154	1.005214	0.000005
C41	C	0.737385	0.703644	-0.000002
C42	C	0.737386	0.601312	-0.000003
C43	C	0.259818	1.066673	-0.061505
C44	C	0.159662	1.111256	0.044551
C45	C	0.303748	1.005180	0.000005
C46	C	0.270155	0.960616	-0.106040
C47	C	0.171022	1.005148	-0.000003
C48	C	0.204535	1.049825	0.106124
C49	C	0.315081	0.899127	-0.044543
C50	C	0.214932	0.943683	0.061577
C51	C	0.380207	1.005201	0.000009
C52	C	0.094559	1.005129	0.000004
C53	C	0.737389	0.553233	-0.083269
C54	C	0.737383	0.457085	-0.083263
C55	C	0.737374	0.457100	0.083281
C56	C	0.737374	0.553251	0.083278
C57	C	0.958550	1.005124	-0.000001
C58	C	1.033611	1.005111	-0.000002
C59	C	0.737387	1.005155	-0.301518
C60	C	0.737388	1.005152	-0.403851
C61	C	0.737381	1.306681	0.000005
C62	C	0.737380	1.409013	0.000006
C63	C	0.823762	0.946259	-0.510806
C64	C	0.823757	0.946273	-0.606955
C65	C	0.650997	1.064073	-0.489179
C66	C	0.651003	1.064065	-0.393033
C67	C	0.737379	1.005170	0.301521
C68	C	0.737378	1.005173	0.403854
C69	C	0.516214	1.306719	0.000008
C70	C	0.441152	1.409065	0.000010
C71	C	0.516213	1.005208	0.301524
C72	C	0.441149	1.005224	0.403858
C73	C	0.516211	1.306727	0.301527
C74	C	0.441147	1.409075	0.403862
C75	C	0.958555	0.703598	-0.301524
C76	C	1.033619	0.601250	-0.403859
C77	C	0.958552	0.703606	-0.000005
C78	C	1.033614	0.601260	-0.000007
C79	C	0.958553	1.005117	-0.301521
C80	C	1.033616	1.005101	-0.403855
C81	C	0.405903	1.398248	-0.058878
C82	C	0.335383	1.494403	-0.058898
C83	C	0.300109	1.601374	-0.000024
C84	C	0.335365	1.612188	0.058865
C85	C	0.405888	1.516034	0.058879
C86	C	0.405898	1.064110	0.510803
C87	C	0.335378	1.064121	0.606966
C88	C	0.300106	1.005251	0.596181
C89	C	0.335364	0.946357	0.489224
C90	C	0.405888	0.946341	0.393064
C91	C	0.405896	1.516025	0.393043
C92	C	0.335375	1.612201	0.489188
C93	C	0.300102	1.601425	0.596152
C94	C	0.335359	1.494464	0.606969
C95	C	0.405883	1.398290	0.510825
C96	C	1.068878	0.494300	-0.393040
C97	C	1.139421	0.398124	-0.489185
C98	C	1.174698	0.408900	-0.596149
C99	C	1.139436	0.515861	-0.606966
C100	C	1.068900	0.612035	-0.510822
C101	C	1.068871	0.612077	0.058871
C102	C	1.139410	0.515921	0.058865
C103	C	1.174686	0.408951	-0.000013
C104	C	1.139427	0.398137	-0.058897
C105	C	1.068894	0.494291	-0.058897
C106	C	1.068866	1.063982	-0.393033
C107	C	1.139387	1.063990	-0.489178
C108	C	1.174661	1.005108	-0.596142
C109	C	1.139404	0.946225	-0.606961
C110	C	1.068880	0.946225	-0.510818
H111	H	0.279457	1.118750	-0.113431
O112	O	0.231685	1.005237	0.689679
C113	C	0.266167	0.958397	0.754079
H114	H	0.326169	0.966377	0.733026
H115	H	0.205939	1.005161	0.847354
H116	H	0.294276	0.865779	0.733936
O117	O	0.301099	1.484153	0.710939
C118	C	0.318350	1.536231	0.770064
H119	H	0.327158	1.601728	0.733319
H120	H	0.255690	1.578971	0.862593
H121	H	0.386151	1.470108	0.762094
O122	O	0.080397	1.218271	0.089664
C123	C	0.046093	1.265677	0.200835
H124	H	0.106597	1.219784	0.211613
H125	H	0.017343	1.358486	0.218758
H126	H	-0.013401	1.257096	0.262028
O127	O	0.231478	1.694739	0.000093
C128	C	0.149907	1.694540	0.046876
H129	H	0.149994	1.640178	0.103217
H130	H	0.083233	1.784242	0.098792
H131	H	0.150530	1.659039	-0.023549
O132	O	0.440244	1.526349	0.116007
C133	C	0.510031	1.418553	0.103439
H134	H	0.540909	1.354793	0.023909
H135	H	0.569346	1.419624	0.096730
H136	H	0.476274	1.394075	0.179512
H137	H	0.434606	1.524820	0.305956
O138	O	0.439998	1.294404	-0.115993
C139	C	0.364740	1.282082	-0.072694
H140	H	0.294185	1.368649	-0.029576
H141	H	0.375385	1.231506	-0.144359
H142	H	0.363794	1.236128	-0.009136
H143	H	0.580666	1.112036	-0.480385
H144	H	0.177419	1.087603	0.195844
O145	O	1.034632	0.716039	0.115903
C146	C	1.051883	0.775166	0.040310
H147	H	1.060652	0.738452	-0.037180
H148	H	0.989239	0.867712	0.083029
H149	H	1.119704	0.767145	0.013954
H150	H	1.168085	1.111938	-0.480347
O151	O	0.737205	0.410562	0.164308
C152	C	0.655149	0.490023	0.270910
H153	H	0.597787	0.555560	0.261292
H154	H	0.627607	0.445572	0.327459
H155	H	0.673701	0.533190	0.310180
H156	H	0.242676	1.679745	0.674430
O157	O	0.300947	0.889294	0.478958
C158	C	0.231151	0.901936	0.586772
H159	H	0.200341	0.981451	0.650492
H160	H	0.171792	0.908734	0.585741
H161	H	0.264879	0.825849	0.611264
O162	O	0.737262	0.410569	-0.164123
C163	C	0.655188	0.490011	-0.158827
H164	H	0.627828	0.578478	-0.116502
H165	H	0.673652	0.480709	-0.247587
H166	H	0.597719	0.475083	-0.108113
H167	H	0.195332	0.891679	0.113663
H168	H	0.434608	1.112049	0.519606
H169	H	0.434581	0.898392	0.305988
H170	H	0.297132	0.922942	-0.195717
H171	H	0.306635	1.699297	0.106798
O172	O	0.301205	1.121439	0.710770
C173	C	0.347472	1.173381	0.699657
H174	H	0.376527	1.185019	0.613849
H175	H	0.294567	1.258926	0.768609
H176	H	0.408734	1.118201	0.707526
H177	H	0.306686	1.485576	-0.106852
O178	O	0.737542	0.599803	0.164076
C179	C	0.819595	0.520351	0.158814
H180	H	0.876958	0.454802	0.070995
H181	H	0.847139	0.564808	0.177803
H182	H	0.801040	0.477198	0.223387
H183	H	0.306676	1.699284	0.480361
O184	O	1.243093	0.315437	-0.689504
C185	C	1.208624	0.251015	-0.689292
H186	H	1.127421	0.307490	-0.634929
H187	H	1.236337	0.212027	-0.778984
H188	H	1.234243	0.181437	-0.653794
H189	H	0.894102	0.898289	-0.519621
H190	H	1.040159	0.485504	-0.305953
O191	O	0.737263	0.600115	-0.164013
C192	C	0.655183	0.711678	-0.113056
H193	H	0.627825	0.744743	-0.022110
H194	H	0.673639	0.766705	-0.160883
H195	H	0.597717	0.713802	-0.114970
H196	H	0.894092	0.898318	-0.694040
H197	H	0.434575	1.311210	0.519650
O198	O	1.173525	0.294316	-0.478462
C199	C	1.127265	0.305440	-0.363434
H200	H	1.055780	0.391260	-0.312179
H201	H	1.115103	0.236490	-0.350026
H202	H	1.173503	0.297565	-0.335084
H203	H	1.040156	1.111931	-0.305946
O204	O	1.243053	1.005236	-0.689565
C205	C	1.208608	1.052031	-0.754009
H206	H	1.127404	1.108371	-0.697572
H207	H	1.236308	1.103959	-0.792947
H208	H	1.234258	0.981606	-0.823619
H209	H	1.168168	0.524622	-0.694067
H210	H	1.040193	0.699116	-0.519644
O211	O	1.173624	0.526302	0.116164
C212	C	1.156371	0.474235	0.198817
H213	H	1.147620	0.408686	0.174052
H214	H	1.219005	0.431560	0.205965
H215	H	1.088539	0.540355	0.283266
H216	H	1.232119	0.330665	-0.000004
H217	H	0.580663	1.112028	-0.305938
H218	H	1.168160	0.311028	-0.106834
H219	H	1.040190	0.485468	-0.106839
H220	H	1.168136	0.898286	-0.694065
H221	H	1.040188	0.898272	-0.519645
H222	H	0.381547	0.809470	-0.082250
