data_functionalizedCrystal
_audit_creation_method	'MofGen! by Chris Wilmer'
_symmetry_space_group_name_H-M	'P1'
_symmetry_Int_Tables_number	1
_symmetry_cell_setting	triclinic
loop_
_symmetry_equiv_pos_as_xyz
  x,y,z
_cell_length_a	14.519731
_cell_length_b	14.519731
_cell_length_c	13.596369
_cell_angle_alpha	90.005365
_cell_angle_beta	89.993633
_cell_angle_gamma	96.311147
loop_
_atom_site_label
_atom_site_type_symbol
_atom_site_fract_x
_atom_site_fract_y
_atom_site_fract_z
O1	O	1.223868	-0.120977	-0.081806
O2	O	1.473868	0.129023	0.168194
O3	O	1.723868	0.379023	0.418194
O4	O	1.973868	0.629023	0.668194
O5	O	0.955395	-0.135193	-0.081809
O6	O	1.205395	0.114807	0.168191
O7	O	1.455395	0.364807	0.418191
O8	O	1.705395	0.614807	0.668191
O9	O	1.096739	0.006152	-0.081787
O10	O	1.346739	0.256152	0.168213
O11	O	1.596739	0.506152	0.418213
O12	O	1.846739	0.756152	0.668213
O13	O	1.082523	-0.262321	-0.081827
O14	O	1.332523	-0.012321	0.168173
O15	O	1.582523	0.237679	0.418173
O16	O	1.832523	0.487679	0.668173
O17	O	1.096721	0.006143	0.081796
O18	O	1.346721	0.256143	0.331796
O19	O	1.596721	0.506143	0.581796
O20	O	1.846721	0.756143	0.831796
O21	O	0.955376	-0.135202	0.081774
O22	O	1.205376	0.114798	0.331774
O23	O	1.455376	0.364798	0.581774
O24	O	1.705376	0.614798	0.831774
O25	O	1.223849	-0.120986	0.081777
O26	O	1.473849	0.129014	0.331777
O27	O	1.723849	0.379014	0.581777
O28	O	1.973849	0.629014	0.831777
Zn29	Zn	1.089610	-0.128095	0.107748
Zn30	Zn	1.339610	0.121905	0.357748
Zn31	Zn	1.589610	0.371905	0.607748
Zn32	Zn	1.839610	0.621905	0.857748
Zn33	Zn	1.089634	-0.128083	-0.107779
Zn34	Zn	1.339634	0.121917	0.142221
Zn35	Zn	1.589634	0.371917	0.392221
Zn36	Zn	1.839634	0.621917	0.642221
O37	O	1.082505	-0.262330	0.081756
O38	O	1.332505	-0.012330	0.331756
O39	O	1.582505	0.237670	0.581756
O40	O	1.832505	0.487670	0.831756
C41	C	0.921026	-0.134531	-0.000017
C42	C	1.171026	0.115469	0.249983
C43	C	1.421026	0.365469	0.499983
C44	C	1.671026	0.615469	0.749983
C45	C	0.818645	-0.132535	-0.000017
C46	C	1.068645	0.117465	0.249983
C47	C	1.318645	0.367465	0.499983
C48	C	1.568645	0.617465	0.749983
C49	C	0.735501	-0.130913	-0.000021
C50	C	0.985501	0.119087	0.249979
C51	C	1.235501	0.369087	0.499979
C52	C	1.485501	0.619087	0.749979
C53	C	0.631192	-0.128887	-0.000021
C54	C	0.881192	0.121113	0.249979
C55	C	1.131192	0.371113	0.499979
C56	C	1.381192	0.621113	0.749979
C57	C	0.548053	-0.127278	-0.000021
C58	C	0.798053	0.122722	0.249979
C59	C	1.048053	0.372722	0.499979
C60	C	1.298053	0.622722	0.749979
C61	C	0.443738	-0.125252	-0.000023
C62	C	0.693738	0.124748	0.249977
C63	C	0.943738	0.374748	0.499977
C64	C	1.193738	0.624748	0.749977
C65	C	1.096064	0.040507	0.000007
C66	C	1.346064	0.290507	0.250007
C67	C	1.596064	0.540507	0.500007
C68	C	1.846064	0.790507	0.750007
C69	C	1.094068	0.142887	0.000016
C70	C	1.344068	0.392887	0.250016
C71	C	1.594068	0.642887	0.500016
C72	C	1.844068	0.892887	0.750016
C73	C	1.258218	-0.121648	-0.000016
C74	C	1.508218	0.128352	0.249984
C75	C	1.758218	0.378352	0.499984
C76	C	2.008218	0.628352	0.749984
C77	C	1.360598	-0.123644	-0.000022
C78	C	1.610598	0.126356	0.249978
C79	C	1.860598	0.376356	0.499978
C80	C	2.110598	0.626356	0.749978
C81	C	1.092446	0.226031	0.000021
C82	C	1.342446	0.476031	0.250021
C83	C	1.592446	0.726031	0.500021
C84	C	1.842446	0.976031	0.750021
C85	C	1.090419	0.330340	0.000022
C86	C	1.340419	0.580340	0.250022
C87	C	1.590419	0.830340	0.500022
C88	C	1.840419	1.080340	0.750022
C89	C	1.088811	0.413479	0.000022
C90	C	1.338811	0.663479	0.250022
C91	C	1.588811	0.913479	0.500022
C92	C	1.838811	1.163479	0.750022
C93	C	1.086785	0.517795	0.000025
C94	C	1.336785	0.767795	0.250025
C95	C	1.586785	1.017795	0.500025
C96	C	1.836785	1.267795	0.750025
N97	N	1.089600	-0.128103	0.254840
N98	N	1.339600	0.121897	0.504840
N99	N	1.589600	0.371897	0.754840
N100	N	1.839600	0.621897	1.004840
C101	C	1.083180	0.703315	-0.000020
C102	C	1.333180	0.953315	0.249980
C103	C	1.583180	1.203315	0.499980
C104	C	1.833180	1.453315	0.749980
C105	C	1.085176	0.600934	0.000025
C106	C	1.335176	0.850934	0.250025
C107	C	1.585176	1.100934	0.500025
C108	C	1.835176	1.350934	0.750025
C109	C	1.089604	-0.128105	0.343838
C110	C	1.339604	0.121895	0.593838
C111	C	1.589604	0.371895	0.843838
C112	C	1.839604	0.621895	1.093838
C113	C	1.089612	-0.128100	0.455489
C114	C	1.339612	0.121900	0.705489
C115	C	1.589612	0.371900	0.955489
C116	C	1.839612	0.621900	1.205489
C117	C	1.089624	-0.128090	0.544480
C118	C	1.339624	0.121910	0.794480
C119	C	1.589624	0.371910	1.044480
C120	C	1.839624	0.621910	1.294480
C121	C	1.089633	-0.128085	0.656138
C122	C	1.339633	0.121915	0.906138
C123	C	1.589633	0.371915	1.156138
C124	C	1.839633	0.621915	1.406138
N125	N	1.089645	-0.128076	0.745129
N126	N	1.339645	0.121924	0.995129
N127	N	1.589645	0.371924	1.245129
N128	N	1.839645	0.621924	1.495129
