data_functionalizedCrystal
_audit_creation_method	'MofGen! by Chris Wilmer'
_symmetry_space_group_name_H-M	'P1'
_symmetry_Int_Tables_number	1
_symmetry_cell_setting	triclinic
loop_
_symmetry_equiv_pos_as_xyz
  x,y,z
_cell_length_a	14.971486
_cell_length_b	11.792241
_cell_length_c	14.048226
_cell_angle_alpha	89.993434
_cell_angle_beta	89.998499
_cell_angle_gamma	83.903772
loop_
_atom_site_label
_atom_site_type_symbol
_atom_site_fract_x
_atom_site_fract_y
_atom_site_fract_z
O1	O	1.187540	0.147909	-0.079051
O2	O	0.927210	0.165622	-0.079077
O3	O	1.063692	-0.008446	-0.079057
O4	O	1.051058	0.321977	-0.079072
O5	O	1.063676	-0.008456	0.079264
O6	O	0.927194	0.165611	0.079244
O7	O	1.187523	0.147899	0.079270
Zn8	Zn	1.057356	0.156753	0.104394
Zn9	Zn	1.057378	0.156767	-0.104201
O10	O	1.051041	0.321966	0.079250
C11	C	0.893874	0.164824	0.000080
C12	C	0.794568	0.162451	0.000070
C13	C	0.737752	0.264710	0.000067
C14	C	0.644444	0.262473	0.000081
C15	C	0.607953	0.157975	0.000092
C16	C	0.664776	0.055707	0.000098
C17	C	0.758082	0.057946	0.000091
C18	C	0.470294	0.051049	0.000111
C19	C	0.376981	0.048810	0.000117
C20	C	0.356656	0.255577	0.000102
C21	C	0.449963	0.257815	0.000095
C22	C	0.506779	0.155547	0.000099
C23	C	1.062891	-0.050737	0.000103
C24	C	1.060515	-0.176735	0.000102
C25	C	1.056147	-0.407419	0.000086
C26	C	1.058574	-0.279050	0.000095
C27	C	1.220859	0.148696	0.000110
C28	C	1.320166	0.151070	0.000114
C29	C	1.051843	0.364257	0.000087
C30	C	1.054218	0.490256	0.000082
N31	N	1.057347	0.156744	0.246754
N32	N	1.057393	0.156768	-0.246562
C33	C	1.117801	0.079698	0.296582
C34	C	1.117807	0.079698	0.396239
C35	C	1.057363	0.156749	0.446068
C36	C	0.996903	0.233797	0.396234
C37	C	0.996894	0.233792	0.296578
C38	C	0.996929	0.233806	0.603948
C39	C	0.996940	0.233813	0.703611
C40	C	1.117843	0.079712	0.703609
C41	C	1.117833	0.079706	0.603953
C42	C	1.057374	0.156757	0.554126
H43	H	0.479670	0.342907	0.000077
H44	H	0.804341	-0.025325	0.000093
H45	H	0.598187	0.345744	0.000078
H46	H	0.310391	0.338847	0.000103
F47	F	0.338147	-0.062408	0.000153
H48	H	0.516553	-0.032229	0.000116
H49	H	1.167025	0.016959	0.256017
F50	F	0.625937	-0.055508	0.000116
F51	F	1.182147	-0.002303	0.449269
H52	H	1.167055	0.016971	0.563383
H53	H	0.947684	0.296530	0.436810
H54	H	1.167070	0.016974	0.744184
H55	H	0.947719	0.296555	0.744177
F56	F	0.932578	0.315810	0.550923
H57	H	0.947665	0.296528	0.256010
H58	H	0.767455	0.349805	0.000058
