data_functionalizedCrystal
_audit_creation_method	'MofGen! by Chris Wilmer'
_symmetry_space_group_name_H-M	'P1'
_symmetry_Int_Tables_number	1
_symmetry_cell_setting	triclinic
loop_
_symmetry_equiv_pos_as_xyz
  x,y,z
_cell_length_a	16.120530
_cell_length_b	15.297327
_cell_length_c	15.296720
_cell_angle_alpha	107.319222
_cell_angle_beta	97.285319
_cell_angle_gamma	97.322224
loop_
_atom_site_label
_atom_site_type_symbol
_atom_site_fract_x
_atom_site_fract_y
_atom_site_fract_z
Zn1	Zn	1.083362	-0.533176	-0.661647
Zn2	Zn	1.583362	-0.033176	-0.161647
Zn3	Zn	1.083269	-0.661792	-0.533035
Zn4	Zn	1.583269	-0.161792	-0.033035
Zn5	Zn	0.975419	-0.499135	-0.499009
Zn6	Zn	1.475419	0.000865	0.000991
Zn7	Zn	0.918250	-0.677674	-0.677540
Zn8	Zn	1.418250	-0.177674	-0.177540
O9	O	1.015075	-0.592944	-0.592808
O10	O	1.515075	-0.092944	-0.092808
O11	O	1.197586	-0.557837	-0.652175
O12	O	1.697586	-0.057837	-0.152175
O13	O	1.092850	-0.619322	-0.399981
O14	O	1.592850	-0.119322	0.100019
O15	O	1.013702	-0.375105	-0.499692
O16	O	1.513702	0.124895	0.000308
O17	O	1.197517	-0.652330	-0.557684
O18	O	1.697517	-0.152330	-0.057684
O19	O	1.093008	-0.400115	-0.619181
O20	O	1.593008	0.099885	-0.119181
O21	O	1.013612	-0.499819	-0.374982
O22	O	1.513612	0.000181	0.125018
O23	O	0.853600	-0.515219	-0.515103
O24	O	1.353600	-0.015219	-0.015103
O25	O	0.916266	-0.679399	-0.803973
O26	O	1.416266	-0.179399	-0.303973
O27	O	0.811598	-0.646391	-0.646270
O28	O	1.311598	-0.146391	-0.146270
O29	O	1.037573	-0.573237	-0.792296
O30	O	1.537573	-0.073237	-0.292296
O31	O	1.037415	-0.792444	-0.573095
O32	O	1.537415	-0.292444	-0.073095
O33	O	0.916176	-0.804113	-0.679263
O34	O	1.416176	-0.304113	-0.179263
C35	C	0.802979	-0.578836	-0.578720
C36	C	1.302979	-0.078836	-0.078720
C37	C	0.712235	-0.572825	-0.572718
C38	C	1.212235	-0.072825	-0.072718
C39	C	0.970600	-0.831613	-0.631618
C40	C	1.470600	-0.331613	-0.131618
C41	C	0.951643	-0.933727	-0.648256
C42	C	1.451643	-0.433727	-0.148256
C43	C	1.150846	-1.197179	-0.474225
C44	C	1.650846	-0.697179	0.025775
C45	C	1.168658	-1.101237	-0.458587
C46	C	1.668658	-0.601237	0.041413
C47	C	1.114406	-1.059355	-0.506003
C48	C	1.614406	-0.559355	-0.006003
C49	C	1.042339	-1.113424	-0.569059
C50	C	1.542339	-0.613424	-0.069059
C51	C	1.024521	-1.209373	-0.584693
C52	C	1.524521	-0.709373	-0.084693
C53	C	0.988081	-1.071550	-0.616471
C54	C	1.488081	-0.571550	-0.116471
C55	C	0.916013	-1.125618	-0.679527
C56	C	1.416013	-0.625618	-0.179527
C57	C	0.898200	-1.221558	-0.695158
C58	C	1.398200	-0.721558	-0.195158
C59	C	0.952452	-1.263441	-0.647742
C60	C	1.452452	-0.763441	-0.147742
C61	C	1.005899	-0.975600	-0.600838
C62	C	1.505899	-0.475600	-0.100838
C63	C	0.879573	-0.987794	-0.711306
C64	C	1.379573	-0.487794	-0.211306
C65	C	0.861761	-1.083736	-0.726943
C66	C	1.361761	-0.583736	-0.226943
C67	C	0.546085	-0.561832	-0.561765
C68	C	1.046085	-0.061832	-0.061765
C69	C	0.484881	-0.624135	-0.623929
C70	C	0.984881	-0.124135	-0.123929
C71	C	0.392429	-0.618018	-0.617835
C72	C	0.892429	-0.118018	-0.117835
C73	C	0.638546	-0.567948	-0.567858
C74	C	1.138546	-0.067948	-0.067858
C75	C	1.228000	-0.607109	-0.606952
C76	C	1.728000	-0.107109	-0.106952
C77	C	1.318735	-0.613145	-0.612979
C78	C	1.818735	-0.113145	-0.112979
C79	C	0.970553	-0.631887	-0.832395
C80	C	1.470553	-0.131887	-0.332395
C81	C	0.951580	-0.648482	-0.934493
C82	C	1.451580	-0.148482	-0.434493
C83	C	1.059742	-0.353348	-0.553868
C84	C	1.559742	0.146652	-0.053868
C85	C	1.078777	-0.251246	-0.537275
C86	C	1.578777	0.248754	-0.037275
C87	C	1.150737	-0.474177	-1.197974
C88	C	1.650737	0.025823	-0.697974
C89	C	1.168568	-0.458587	-1.102048
C90	C	1.668568	0.041413	-0.602048
C91	C	1.114322	-0.506059	-1.060155
C92	C	1.614322	-0.006059	-0.560155
C93	C	1.042243	-0.569125	-1.114196
C94	C	1.542243	-0.069125	-0.614196
C95	C	1.024414	-0.584722	-1.210132
C96	C	1.524414	-0.084722	-0.710132
C97	C	0.988000	-0.616604	-1.072313
C98	C	1.488000	-0.116604	-0.572313
C99	C	0.915921	-0.679670	-1.126355
C100	C	1.415921	-0.179670	-0.626355
C101	C	0.898095	-0.695263	-1.222281
C102	C	1.398095	-0.195263	-0.722281
C103	C	0.952340	-0.647791	-1.264174
C104	C	1.452340	-0.147791	-0.764174
C105	C	1.005829	-0.601007	-0.976377
C106	C	1.505829	-0.101007	-0.476377
C107	C	0.879506	-0.711552	-0.988536
C108	C	1.379506	-0.211552	-0.488536
C109	C	0.861675	-0.727142	-1.084461
C110	C	1.361675	-0.227142	-0.584461
C111	C	1.059484	-0.554090	-0.354145
C112	C	1.559484	-0.054090	0.145855
C113	C	1.078663	-0.537246	-0.252016
C114	C	1.578663	-0.037246	0.247984
H115	H	1.128913	-0.981235	-0.493267
H116	H	1.628913	-0.481235	0.006733
O117	O	0.783934	-0.795158	-1.142755
O118	O	1.283934	-0.295158	-0.642755
H119	H	0.787904	-0.865194	-1.136990
H120	H	1.287904	-0.365194	-0.636990
H121	H	1.064576	-0.931585	-0.549497
H122	H	1.564576	-0.431585	-0.049497
H123	H	0.529050	-0.503905	-0.503972
H124	H	1.029050	-0.003905	-0.003972
O125	O	1.083565	-0.532991	-0.918092
O126	O	1.583565	-0.032991	-0.418092
H127	H	1.079583	-0.462956	-0.923854
H128	H	1.579583	0.037044	-0.423854
H129	H	1.128845	-0.493362	-0.982047
H130	H	1.628845	0.006638	-0.482047
O131	O	1.246307	-0.390575	-1.043764
O132	O	1.746307	0.109425	-0.543764
H133	H	1.242329	-0.320538	-1.049522
H134	H	1.742329	0.179462	-0.549522
H135	H	1.194900	-0.435538	-1.232094
H136	H	1.694900	0.064462	-0.732094
O137	O	0.507441	-0.700879	-0.700485
O138	O	1.007441	-0.200879	-0.200485
H139	H	0.480662	-0.695901	-0.769009
H140	H	0.980662	-0.195901	-0.269009
H141	H	0.937826	-0.660481	-1.342284
H142	H	1.437826	-0.160481	-0.842284
O143	O	0.820354	-0.763281	-1.280573
O144	O	1.320354	-0.263281	-0.780573
H145	H	0.785622	-0.793665	-1.235328
H146	H	1.285622	-0.293665	-0.735328
O147	O	0.820986	-0.762756	-0.943364
O148	O	1.320986	-0.262756	-0.443364
H149	H	0.845486	-0.741307	-0.867577
H150	H	1.345486	-0.241307	-0.367577
H151	H	1.227335	-1.057218	-0.407247
H152	H	1.727335	-0.557218	0.092753
H153	H	0.839510	-1.265577	-0.746491
H154	H	1.339510	-0.765577	-0.246491
O155	O	0.784024	-1.142059	-0.794936
O156	O	1.284024	-0.642059	-0.294936
H157	H	0.803729	-1.195755	-0.851235
H158	H	1.303729	-0.695755	-0.351235
O159	O	1.209359	-1.242370	-0.423116
O160	O	1.709359	-0.742370	0.076884
H161	H	1.173421	-1.276123	-0.381066
H162	H	1.673421	-0.776123	0.118934
O163	O	0.933237	-1.366922	-0.664596
O164	O	1.433237	-0.866922	-0.164596
H165	H	0.986654	-1.399272	-0.691408
H166	H	1.486654	-0.899272	-0.191408
O167	O	0.821053	-0.942637	-0.762459
O168	O	1.321053	-0.442637	-0.262459
H169	H	0.845554	-0.866839	-0.741004
H170	H	1.345554	-0.366839	-0.241004
