data_functionalizedCrystal
_audit_creation_method	'MofGen! by Chris Wilmer'
_symmetry_space_group_name_H-M	'P1'
_symmetry_Int_Tables_number	1
_symmetry_cell_setting	triclinic
loop_
_symmetry_equiv_pos_as_xyz
  x,y,z
_cell_length_a	6.817900
_cell_length_b	13.923258
_cell_length_c	9.582889
_cell_angle_alpha	84.648570
_cell_angle_beta	111.207298
_cell_angle_gamma	81.871755
loop_
_atom_site_label
_atom_site_type_symbol
_atom_site_fract_x
_atom_site_fract_y
_atom_site_fract_z
V1	V	-4.008562	0.302632	-0.210212
O2	O	-3.955284	0.297055	0.006852
O3	O	-3.999768	0.300387	-0.413690
O4	O	-3.934173	0.434701	-0.208405
O5	O	-4.021333	0.161810	-0.199855
V6	V	-4.490425	0.285810	-0.184080
O7	O	-4.273460	0.339533	-0.267534
O8	O	-4.675724	0.248910	-0.126758
O9	O	-4.276012	0.288056	0.019397
O10	O	-4.661100	0.291388	-0.401144
O11	O	-4.595051	0.426633	-0.194438
O12	O	-4.341607	0.153742	-0.185888
C13	C	-3.855244	0.295567	-0.463249
C14	C	-3.929168	0.294611	-0.629603
C15	C	-4.167554	0.121540	-0.192912
C16	C	-4.126066	0.013574	-0.193036
C17	C	-4.050201	-0.184075	-0.193515
C18	C	-3.868165	-0.227494	-0.200774
C19	C	-3.825950	-0.337473	-0.201041
C20	C	-4.092425	-0.074087	-0.193248
C21	C	-3.771570	0.466897	-0.201385
C22	C	-3.792295	0.574863	-0.201254
C23	C	-4.083880	0.292873	0.068948
C24	C	-3.989194	0.293835	0.235302
H25	H	-3.744022	-0.182070	-0.206786
F26	F	-4.212459	-0.243444	-0.185665
