data_functionalizedCrystal
_audit_creation_method	'MofGen! by Chris Wilmer'
_symmetry_space_group_name_H-M	'P1'
_symmetry_Int_Tables_number	1
_symmetry_cell_setting	triclinic
loop_
_symmetry_equiv_pos_as_xyz
  x,y,z
_cell_length_a	29.839134
_cell_length_b	29.839131
_cell_length_c	14.908308
_cell_angle_alpha	93.265430
_cell_angle_beta	93.279186
_cell_angle_gamma	90.022274
loop_
_atom_site_label
_atom_site_type_symbol
_atom_site_fract_x
_atom_site_fract_y
_atom_site_fract_z
Zn1	Zn	0.672081	-0.193732	-0.510090
Zn2	Zn	0.676342	-0.264531	-0.359235
Zn3	Zn	0.601292	-0.189391	-0.359249
Zn4	Zn	0.596913	-0.268809	-0.510043
O5	O	0.636657	-0.229116	-0.434654
O6	O	0.735513	-0.203150	-0.490093
O7	O	0.670002	-0.250957	-0.232996
O8	O	0.610732	-0.127100	-0.379284
O9	O	0.738643	-0.255166	-0.379260
O10	O	0.662741	-0.130290	-0.490106
O11	O	0.614864	-0.195752	-0.233006
O12	O	0.537845	-0.199899	-0.379239
O13	O	0.603268	-0.262456	-0.636291
O14	O	0.534627	-0.258247	-0.490026
O15	O	0.658494	-0.207298	-0.636325
O16	O	0.665755	-0.327965	-0.379215
O17	O	0.607399	-0.331108	-0.490013
C18	C	0.519935	-0.229067	-0.434629
C19	C	0.470000	-0.229057	-0.434640
C20	C	0.636576	-0.345837	-0.434627
C21	C	0.636582	-0.395772	-0.434645
C22	C	0.111775	-0.202094	-0.492479
C23	C	0.299449	-0.202057	-0.492458
O24	O	0.322321	-0.179075	-0.541630
N25	N	0.324555	-0.229087	-0.434661
C26	C	0.302739	-0.256131	-0.376870
O27	O	0.328399	-0.279124	-0.327717
C28	C	0.115066	-0.256169	-0.376896
C29	C	0.089963	-0.229134	-0.434690
C30	C	0.086672	-0.175061	-0.550268
C31	C	0.039757	-0.175069	-0.550269
C32	C	0.017944	-0.202109	-0.492481
C33	C	0.043047	-0.229142	-0.434691
C34	C	0.093251	-0.283215	-0.319110
C35	C	0.046329	-0.283223	-0.319124
C36	C	0.021226	-0.256188	-0.376917
C37	C	-0.025681	-0.256190	-0.376904
N38	N	-0.050786	-0.229160	-0.434700
C39	C	-0.028974	-0.202119	-0.492489
C40	C	0.401270	-0.256108	-0.376859
C41	C	0.448188	-0.256097	-0.376852
C42	C	0.444895	-0.202025	-0.492441
C43	C	0.397976	-0.202033	-0.492443
C44	C	0.376164	-0.229078	-0.434656
C45	C	-0.127499	-0.202137	-0.492486
C46	C	-0.174419	-0.202146	-0.492480
C47	C	-0.171122	-0.256220	-0.376894
C48	C	-0.124206	-0.256210	-0.376897
C49	C	-0.102397	-0.229167	-0.434700
O50	O	-0.048583	-0.279164	-0.327765
O51	O	-0.054642	-0.179137	-0.541649
C52	C	0.158691	-0.202086	-0.492477
C53	C	0.183794	-0.229119	-0.434688
C54	C	0.161981	-0.256159	-0.376899
C55	C	0.230712	-0.229109	-0.434680
C56	C	0.252524	-0.202069	-0.492468
C57	C	0.227419	-0.175039	-0.550265
C58	C	0.180503	-0.175046	-0.550266
C59	C	0.187087	-0.283189	-0.319103
C60	C	0.234002	-0.283179	-0.319106
C61	C	0.255815	-0.256139	-0.376894
C62	C	0.606289	-0.754012	-0.492343
C63	C	0.606231	-0.566338	-0.492315
O64	O	0.580378	-0.543478	-0.541355
N65	N	0.636628	-0.541218	-0.434672
C66	C	0.667045	-0.563020	-0.377036
O67	O	0.692901	-0.537348	-0.328013
C68	C	0.667105	-0.750693	-0.377070
C69	C	0.636702	-0.775810	-0.434710
C70	C	0.575890	-0.779129	-0.549979
C71	C	0.575903	-0.826044	-0.549982
C72	C	0.606316	-0.847843	-0.492349
C73	C	0.636716	-0.822726	-0.434713
C74	C	0.697523	-0.772494	-0.319439
C75	C	0.697536	-0.819416	-0.319454
C76	C	0.667134	-0.844533	-0.377094
C77	C	0.667142	-0.891440	-0.377083
N78	N	0.636745	-0.916559	-0.434726
C79	C	0.606332	-0.894761	-0.492359
C80	C	0.667010	-0.464489	-0.377022
C81	C	0.666995	-0.417571	-0.377012
C82	C	0.606181	-0.420892	-0.492292
C83	C	0.606195	-0.467811	-0.492296
C84	C	0.636613	-0.489609	-0.434664
C85	C	0.606362	-0.993287	-0.492360
C86	C	0.606376	-1.040206	-0.492356
C87	C	0.667191	-1.036881	-0.377079
C88	C	0.667175	-0.989966	-0.377080
C89	C	0.636758	-0.968170	-0.434728
O90	O	0.692985	-0.914330	-0.328076
O91	O	0.580485	-0.920441	-0.541389
C92	C	0.606276	-0.707096	-0.492340
C93	C	0.636676	-0.681979	-0.434704
C94	C	0.667089	-0.703778	-0.377071
C95	C	0.636660	-0.635061	-0.434694
C96	C	0.606247	-0.613262	-0.492328
C97	C	0.575850	-0.638382	-0.549970
C98	C	0.575863	-0.685298	-0.549973
C99	C	0.697486	-0.678658	-0.319428
C100	C	0.697470	-0.631743	-0.319429
C101	C	0.667057	-0.609944	-0.377062
C102	C	0.753834	-0.229165	-0.434680
C103	C	0.803769	-0.229186	-0.434691
C104	C	0.629917	-0.235838	-0.669956
C105	C	0.627045	-0.238703	-0.770228
C106	C	0.636750	-0.111939	-0.434702
C107	C	0.636789	-0.062005	-0.434722
C108	C	0.679153	-0.186639	-0.958687
C109	C	0.676456	-0.189330	-1.052901
C110	C	0.618951	-0.246771	-1.052872
C111	C	0.621648	-0.244081	-0.958658
C112	C	0.651751	-0.214015	-0.911569
C113	C	0.654450	-0.211327	-0.817353
C114	C	0.596943	-0.268766	-0.817326
C115	C	0.594246	-0.271456	-0.911540
C116	C	0.643397	-0.222386	-0.200268
C117	C	0.646356	-0.219395	-0.099997
H118	H	-0.109748	-0.180116	-0.539555
H119	H	0.551124	-0.761385	-0.596916
N120	N	0.378995	-0.283724	-0.317804
N121	N	0.354462	-0.266238	-0.260369
H122	H	0.338733	-0.285740	-0.218655
N123	N	0.704454	-0.161374	-1.101030
N124	N	0.731566	-0.178692	-1.153598
H125	H	0.751342	-0.158948	-1.187590
N126	N	0.568943	-0.296731	-0.769209
N127	N	0.542069	-0.323572	-0.811268
H128	H	0.522295	-0.343324	-0.777287
H129	H	0.113682	-0.305230	-0.272048
H130	H	0.028573	-0.305248	-0.272068
N131	N	-0.098568	-0.283819	-0.317842
N132	N	-0.118051	-0.307956	-0.266242
H133	H	-0.099947	-0.327457	-0.224535
H134	H	0.678961	-0.186846	-0.779014
N135	N	0.588191	-0.277475	-1.100962
N136	N	0.591421	-0.318632	-1.090437
H137	H	0.569691	-0.340314	-1.124393
H138	H	0.551084	-0.620626	-0.596895
N139	N	0.709906	-0.155931	-0.910594
N140	N	0.734374	-0.131494	-0.952676
H141	H	0.756094	-0.109805	-0.918713
N142	N	0.473828	-0.283702	-0.317796
N143	N	0.470962	-0.278281	-0.234564
H144	H	0.489069	-0.297779	-0.192855
H145	H	0.691951	-1.054638	-0.330152
N146	N	0.575142	-0.493472	-0.551166
N147	N	0.547447	-0.518771	-0.519379
H148	H	0.525515	-0.536893	-0.560958
N149	N	-0.200054	-0.174525	-0.551521
N150	N	-0.180569	-0.150386	-0.603114
H151	H	-0.198671	-0.130879	-0.644813
N152	N	0.014126	-0.147444	-0.609300
N153	N	0.033615	-0.123302	-0.660881
H154	H	0.015516	-0.103789	-0.702572
N155	N	0.249704	-0.147424	-0.609308
N156	N	0.242090	-0.152848	-0.692542
H157	H	0.257831	-0.133349	-0.734244
H158	H	0.104427	-0.153042	-0.597331
H159	H	-0.188890	-0.278234	-0.329841
H160	H	0.581417	-0.403136	-0.539218
N161	N	0.563498	-0.302162	-0.959658
N162	N	0.561092	-0.304559	-1.043777
H163	H	0.539376	-0.326245	-1.077761
N164	N	0.154872	-0.147433	-0.609319
N165	N	0.157741	-0.152855	-0.692549
H166	H	0.139641	-0.133353	-0.734261
N167	N	0.372340	-0.174425	-0.551500
N168	N	0.375210	-0.179850	-0.634730
H169	H	0.357106	-0.160353	-0.676445
N170	N	0.467188	-0.174404	-0.551461
N171	N	0.509079	-0.174402	-0.551439
H172	H	0.524826	-0.154898	-0.593123
H173	H	0.254438	-0.305193	-0.272034
H174	H	0.691746	-0.397123	-0.330066
H175	H	0.691781	-0.482232	-0.330087
H176	H	0.169332	-0.305209	-0.272044
N177	N	0.728554	-0.700912	-0.260538
N178	N	0.727990	-0.693298	-0.177291
H179	H	0.749932	-0.709012	-0.135693
N180	N	0.575314	-1.065855	-0.551237
N181	N	0.548163	-1.046383	-0.602690
H182	H	0.526225	-1.064495	-0.644275
N183	N	0.728576	-0.746839	-0.260565
N184	N	0.756272	-0.721539	-0.292343
H185	H	0.778203	-0.703417	-0.250757
N186	N	0.575291	-0.971035	-0.551254
N187	N	0.548153	-0.993473	-0.602707
H188	H	0.526208	-0.977758	-0.644299
H189	H	0.551145	-0.846491	-0.596918
H190	H	0.722227	-0.611295	-0.272483
N191	N	0.728611	-0.841673	-0.260576
N192	N	0.755750	-0.819238	-0.209120
H193	H	0.777696	-0.834957	-0.167534
H194	H	0.551107	-0.705744	-0.596911
H195	H	0.691927	-0.969515	-0.330135
