data_functionalizedCrystal
_audit_creation_method	'MofGen! by Chris Wilmer'
_symmetry_space_group_name_H-M	'P1'
_symmetry_Int_Tables_number	1
_symmetry_cell_setting	triclinic
loop_
_symmetry_equiv_pos_as_xyz
  x,y,z
_cell_length_a	19.077105
_cell_length_b	21.295417
_cell_length_c	19.076919
_cell_angle_alpha	92.266620
_cell_angle_beta	90.076224
_cell_angle_gamma	87.726672
loop_
_atom_site_label
_atom_site_type_symbol
_atom_site_fract_x
_atom_site_fract_y
_atom_site_fract_z
Zn1	Zn	1.058236	-0.304534	-0.440387
Zn2	Zn	1.062864	-0.405747	-0.322870
Zn3	Zn	0.945454	-0.296102	-0.318181
Zn4	Zn	0.940686	-0.405368	-0.435623
O5	O	1.001810	-0.352938	-0.379265
O6	O	1.157181	-0.321649	-0.428754
O7	O	1.051222	-0.387832	-0.223917
O8	O	0.960474	-0.209134	-0.334424
O9	O	1.160581	-0.396009	-0.342415
O10	O	1.043334	-0.215330	-0.424208
O11	O	0.964962	-0.307276	-0.220472
O12	O	0.846490	-0.306908	-0.329804
O13	O	0.952346	-0.395362	-0.534586
O14	O	0.842987	-0.387185	-0.416088
O15	O	1.038710	-0.321280	-0.538086
O16	O	1.046598	-0.493783	-0.337795
O17	O	0.956834	-0.493504	-0.420634
C18	C	0.819242	-0.346091	-0.371921
C19	C	0.741139	-0.343178	-0.368795
C20	C	0.702642	-0.383663	-0.412179
C21	C	0.629255	-0.380918	-0.409246
C22	C	0.594366	-0.337689	-0.362924
C23	C	0.632868	-0.297199	-0.319538
C24	C	0.706253	-0.299942	-0.322476
C25	C	0.375080	-0.324994	-0.349333
C26	C	0.301690	-0.322256	-0.346397
C27	C	0.298082	-0.405974	-0.436106
C28	C	0.371470	-0.408715	-0.439037
C29	C	0.409965	-0.368223	-0.395653
N30	N	0.519353	-0.334883	-0.359923
N31	N	0.484976	-0.371027	-0.398658
C32	C	1.001719	-0.516485	-0.379223
C33	C	1.001744	-0.586454	-0.379231
C34	C	1.048522	-0.619448	-0.336144
C35	C	1.048554	-0.685192	-0.336161
C36	C	1.001796	-0.717939	-0.379257
C37	C	0.955015	-0.684937	-0.422352
C38	C	0.954989	-0.619195	-0.422339
N39	N	0.940111	-0.819089	-0.382141
N40	N	0.940138	-0.881541	-0.382149
C41	C	1.001873	-0.916018	-0.379300
N42	N	1.063583	-0.885683	-0.376429
N43	N	1.063555	-0.823224	-0.376417
C44	C	1.001820	-0.789226	-0.379276
C45	C	1.048690	-1.020300	-0.336230
C46	C	1.048724	-1.086046	-0.336252
C47	C	0.955178	-1.085789	-0.422439
C48	C	0.955151	-1.020045	-0.422421
C49	C	1.001906	-0.987304	-0.379313
C50	C	1.185090	-0.359812	-0.386639
C51	C	1.263193	-0.362741	-0.389782
C52	C	0.994480	-0.359220	-0.562545
C53	C	0.991356	-0.361897	-0.640648
C54	C	1.001919	-0.188754	-0.379324
C55	C	1.001966	-0.118788	-0.379349
C56	C	1.034851	-0.324586	-0.679164
C57	C	1.031907	-0.327098	-0.752550
C58	C	0.985472	-0.366925	-0.787418
C59	C	0.941972	-0.404238	-0.748896
C60	C	0.944913	-0.401722	-0.675512
C61	C	0.971853	-0.378584	-1.006698
C62	C	0.968917	-0.381099	-1.080087
C63	C	1.058852	-0.303958	-1.083736
C64	C	1.061791	-0.301448	-1.010350
C65	C	1.018289	-0.338758	-0.971835
N66	N	0.982464	-0.369496	-0.862429
N67	N	1.021294	-0.336183	-0.896824
C68	C	1.009152	-0.346637	-0.196700
C69	C	1.012412	-0.343787	-0.118604
H70	H	0.406414	-0.292027	-0.314002
C71	C	1.099438	-1.121983	-0.289494
C72	C	1.061555	-1.156801	-0.242849
C73	C	1.108265	-1.189938	-0.199802
H74	H	1.127331	-1.093164	-0.263753
H75	H	1.128923	-1.149671	-0.317680
H76	H	1.032082	-1.129115	-0.214666
H77	H	1.033664	-1.185630	-0.268571
H78	H	1.137750	-1.217627	-0.227988
H79	H	1.136156	-1.161115	-0.174065
H80	H	1.082568	-1.213571	-0.168152
C81	C	0.891600	-0.447580	-0.786663
C82	C	0.907562	-0.509820	-0.769390
C83	C	0.861169	-0.549766	-0.804159
H84	H	0.896034	-0.443821	-0.835894
H85	H	0.844864	-0.436221	-0.772723
H86	H	0.954287	-0.521176	-0.783334
H87	H	0.903123	-0.513599	-0.720166
H88	H	0.814433	-0.538406	-0.790219
H89	H	0.865607	-0.546001	-0.853388
H90	H	0.871989	-0.591999	-0.792439
C91	C	1.099370	-0.584018	-0.289327
C92	C	1.140357	-0.626991	-0.251612
C93	C	1.187214	-0.594375	-0.208487
H94	H	1.073815	-0.556346	-0.257544
H95	H	1.128918	-0.560421	-0.317446
H96	H	1.110813	-0.650577	-0.223495
H97	H	1.165927	-0.654664	-0.283378
H98	H	1.216762	-0.570778	-0.236606
H99	H	1.161653	-0.566704	-0.176708
H100	H	1.215034	-0.623527	-0.182897
H101	H	1.086649	-0.712061	-0.301075
C102	C	0.904444	-1.121447	-0.469158
C103	C	0.914468	-1.186084	-0.459939
C104	C	0.867740	-1.218954	-0.502962
H105	H	0.912752	-1.112720	-0.516815
H106	H	0.857631	-1.108631	-0.456929
H107	H	0.961269	-1.198895	-0.472173
H108	H	0.906154	-1.194830	-0.412292
H109	H	0.820928	-1.206138	-0.490733
H110	H	0.876052	-1.210222	-0.550616
H111	H	0.874531	-1.262813	-0.496708
H112	H	0.909487	-0.432098	-0.644152
C113	C	0.904231	-0.583454	-0.469234
C114	C	0.916690	-0.602366	-0.539386
C115	C	0.869939	-0.569460	-0.582604
H116	H	0.910862	-0.539603	-0.463145
H117	H	0.857430	-0.592165	-0.457057
H118	H	0.963480	-0.593650	-0.551558
H119	H	0.910054	-0.646213	-0.545497
H120	H	0.823138	-0.578172	-0.570428
H121	H	0.876574	-0.525611	-0.576509
H122	H	0.878381	-0.582292	-0.630206
H123	H	0.731044	-0.418867	-0.449897
C124	C	1.112264	-0.258293	-0.972444
C125	C	1.158979	-0.294161	-0.932110
C126	C	1.205479	-0.254424	-0.897181
H127	H	1.086603	-0.228879	-0.942699
H128	H	1.137790	-0.236428	-1.005860
H129	H	1.133455	-0.316016	-0.898698
H130	H	1.184656	-0.323574	-0.961838
H131	H	1.231006	-0.232559	-0.930597
H132	H	1.179812	-0.225012	-0.867440
H133	H	1.237185	-0.278755	-0.869816
C134	C	0.918560	-0.424317	-1.118075
C135	C	0.925311	-0.418544	-1.190586
C136	C	0.878941	-0.458348	-1.225603
H137	H	0.871805	-0.412954	-1.104234
H138	H	0.929291	-0.466602	-1.106491
H139	H	0.914575	-0.376268	-1.202165
H140	H	0.972055	-0.429911	-1.204448
H141	H	0.889673	-0.500633	-1.214018
H142	H	0.832190	-0.446982	-1.211756
H143	H	0.883520	-0.454441	-1.274805
C144	C	0.748145	-0.256092	-0.275333
C145	C	0.792066	-0.291700	-0.231921
C146	C	0.830674	-0.251325	-0.188492
H147	H	0.716942	-0.229940	-0.247259
H148	H	0.775756	-0.230708	-0.303401
H149	H	0.764457	-0.317074	-0.203857
H150	H	0.823283	-0.317851	-0.259976
H151	H	0.858285	-0.225941	-0.216560
H152	H	0.799466	-0.225175	-0.160423
H153	H	0.860483	-0.275479	-0.159037
C154	C	0.904277	-0.720600	-0.469066
C155	C	0.914298	-0.785236	-0.459842
C156	C	0.867566	-0.818107	-0.502860
H157	H	0.912585	-0.711877	-0.516724
H158	H	0.857466	-0.707781	-0.456836
H159	H	0.961098	-0.798051	-0.472076
H160	H	0.905985	-0.793978	-0.412193
H161	H	0.820755	-0.805288	-0.490630
H162	H	0.875878	-0.809379	-0.550516
H163	H	0.874354	-0.861965	-0.496602
H164	H	0.604455	-0.261999	-0.281825
H165	H	0.399871	-0.443918	-0.476755
H166	H	1.086764	-0.993641	-0.301131
C167	C	0.904276	-0.984330	-0.469217
C168	C	0.863320	-1.027076	-0.506950
C169	C	0.816439	-0.994198	-0.550061
H170	H	0.929812	-0.960700	-0.500991
H171	H	0.874710	-0.956666	-0.441088
H172	H	0.892883	-1.054729	-0.535077
H173	H	0.837769	-1.050707	-0.475195
H174	H	0.786873	-0.966534	-0.521932
H175	H	0.841981	-0.970569	-0.581830
H176	H	0.788641	-1.023195	-0.575663
H177	H	1.072666	-0.292156	-0.650780
C178	C	0.256161	-0.449855	-0.483180
C179	C	0.184425	-0.438192	-0.470709
C180	C	0.145787	-0.478598	-0.514071
H181	H	0.268492	-0.492254	-0.473332
H182	H	0.266274	-0.442768	-0.530906
H183	H	0.174317	-0.445285	-0.422994
H184	H	0.172074	-0.395802	-0.480561
H185	H	0.155900	-0.471511	-0.561797
H186	H	0.158123	-0.520994	-0.504220
H187	H	0.097110	-0.470687	-0.505620
H188	H	0.273285	-0.287047	-0.308681
H189	H	1.067327	-0.296717	-0.783907
H190	H	1.094268	-0.273581	-1.115103
H191	H	0.936440	-0.408974	-0.975347
H192	H	0.597915	-0.413886	-0.444573
