data_functionalizedCrystal
_audit_creation_method	'MofGen! by Chris Wilmer'
_symmetry_space_group_name_H-M	'P1'
_symmetry_Int_Tables_number	1
_symmetry_cell_setting	triclinic
loop_
_symmetry_equiv_pos_as_xyz
  x,y,z
_cell_length_a	14.971487
_cell_length_b	16.176319
_cell_length_c	14.971486
_cell_angle_alpha	90.000806
_cell_angle_beta	96.385734
_cell_angle_gamma	89.998757
loop_
_atom_site_label
_atom_site_type_symbol
_atom_site_fract_x
_atom_site_fract_y
_atom_site_fract_z
O1	O	-1.186949	0.068629	0.116560
O2	O	-0.686949	0.568629	0.616560
O3	O	-0.926549	0.068656	0.130518
O4	O	-0.426549	0.568656	0.630518
O5	O	-1.063728	0.068636	-0.006661
O6	O	-0.563728	0.568636	0.493339
O7	O	-1.049769	0.068649	0.253739
O8	O	-0.549769	0.568649	0.753739
O9	O	-1.063707	-0.068857	-0.006654
O10	O	-0.563707	0.431143	0.493346
O11	O	-0.926528	-0.068837	0.130525
O12	O	-0.426528	0.431163	0.630525
O13	O	-1.186928	-0.068865	0.116567
O14	O	-0.686928	0.431135	0.616567
Cu15	Cu	-1.056726	-0.081405	0.123547
Cu16	Cu	-0.556726	0.418595	0.623547
Cu17	Cu	-1.056751	0.081197	0.123538
Cu18	Cu	-0.556751	0.581197	0.623538
O19	O	-1.049749	-0.068844	0.253746
O20	O	-0.549749	0.431156	0.753746
C21	C	-0.893214	-0.000087	0.129897
C22	C	-0.393214	0.499913	0.629897
C23	C	-0.793917	-0.000076	0.128026
C24	C	-0.293917	0.499924	0.628026
C25	C	-0.736691	-0.000072	0.208615
C26	C	-0.236691	0.499928	0.708615
C27	C	-0.643392	-0.000083	0.206852
C28	C	-0.143392	0.499917	0.706852
C29	C	-0.607320	-0.000092	0.124499
C30	C	-0.107320	0.499908	0.624499
C31	C	-0.664552	-0.000098	0.043903
C32	C	-0.164552	0.499902	0.543903
C33	C	-0.757850	-0.000093	0.045668
C34	C	-0.257850	0.499907	0.545668
C35	C	-0.470090	-0.000106	0.040232
C36	C	0.029910	0.499894	0.540232
C37	C	-0.376786	-0.000109	0.038467
C38	C	0.123214	0.499891	0.538467
C39	C	-0.355632	-0.000095	0.201416
C40	C	0.144368	0.499905	0.701416
C41	C	-0.448929	-0.000091	0.203181
C42	C	0.051071	0.499909	0.703181
C43	C	-0.506156	-0.000096	0.122585
C44	C	-0.006156	0.499904	0.622585
N45	N	-1.056715	-0.195770	0.123553
N46	N	-0.556715	0.304230	0.623553
C47	C	-1.063094	-0.000110	-0.039982
C48	C	-0.563094	0.499890	0.460018
C49	C	-1.061223	-0.000110	-0.139279
C50	C	-0.561223	0.499890	0.360721
C51	C	-0.220263	-0.000115	0.117187
C52	C	0.279737	0.499885	0.617187
C53	C	-0.319560	-0.000105	0.119056
C54	C	0.180440	0.499895	0.619056
C55	C	-1.117519	-0.761162	0.062804
C56	C	-0.617519	-0.261162	0.562804
C57	C	-1.117515	-0.674615	0.062810
C58	C	-0.617515	-0.174615	0.562810
C59	C	-1.056756	-0.631346	0.123534
C60	C	-0.556756	-0.131346	0.623534
C61	C	-0.996002	-0.674628	0.184261
C62	C	-0.496002	-0.174628	0.684261
C63	C	-0.996011	-0.761173	0.184259
C64	C	-0.496011	-0.261173	0.684259
C65	C	-0.995966	-0.325600	0.184274
C66	C	-0.495966	0.174400	0.684274
C67	C	-0.995960	-0.239048	0.184270
C68	C	-0.495960	0.260952	0.684270
C69	C	-1.117470	-0.239041	0.062826
C70	C	-0.617470	0.260959	0.562826
C71	C	-1.117479	-0.325586	0.062823
C72	C	-0.617479	0.174414	0.562823
C73	C	-1.056729	-0.368861	0.123553
C74	C	-0.556729	0.131139	0.623553
C75	C	-1.056735	-0.462705	0.123547
C76	C	-0.556735	0.037295	0.623547
C77	C	-1.056745	-0.537503	0.123537
C78	C	-0.556745	-0.037503	0.623537
N79	N	-1.056768	0.195562	0.123525
N80	N	-0.556768	0.695562	0.623525
C81	C	-1.141812	-0.000119	-0.196504
C82	C	-0.641812	0.499881	0.303496
C83	C	-1.140049	-0.000110	-0.289804
C84	C	-0.640049	0.499890	0.210196
C85	C	-1.057696	-0.000098	-0.325876
C86	C	-0.557696	0.499902	0.174124
C87	C	-0.977100	-0.000087	-0.268644
C88	C	-0.477100	0.499913	0.231356
C89	C	-0.978864	-0.000089	-0.175346
C90	C	-0.478864	0.499911	0.324654
C91	C	-0.973429	-0.000083	-0.463106
C92	C	-0.473429	0.499917	0.036894
C93	C	-0.971665	-0.000082	-0.556411
C94	C	-0.471665	0.499918	-0.056411
C95	C	-1.134614	-0.000104	-0.577564
C96	C	-0.634614	0.499896	-0.077564
C97	C	-1.136378	-0.000107	-0.484266
C98	C	-0.636378	0.499893	0.015734
C99	C	-1.055782	-0.000097	-0.427040
C100	C	-0.555782	0.499903	0.072960
C101	C	-1.050383	-0.000096	0.287067
C102	C	-0.550383	0.499904	0.787067
C103	C	-1.052254	-0.000092	0.386364
C104	C	-0.552254	0.499908	0.886364
H105	H	-0.635175	-0.000117	-0.023150
H106	H	-0.135175	0.499883	0.476850
Cl107	Cl	-0.571455	-0.000073	0.308169
Cl108	Cl	-0.071455	0.499927	0.808169
Cl109	Cl	-1.193862	-0.379979	-0.013520
Cl110	Cl	-0.693862	0.120021	0.486480
H111	H	-0.347419	-0.000117	-0.028592
H112	H	0.152581	0.499883	0.471408
Cl113	Cl	-0.877548	-0.000075	-0.103405
Cl114	Cl	-0.377548	0.499925	0.396595
Cl115	Cl	-1.193890	-0.620209	-0.013525
Cl116	Cl	-0.693890	-0.120209	0.486475
Cl117	Cl	-0.872107	-0.000070	-0.391166
Cl118	Cl	-0.372107	0.499930	0.108834
Cl119	Cl	-0.782029	-0.000056	0.312151
Cl120	Cl	-0.282029	0.499944	0.812151
Cl121	Cl	-0.873570	-0.000062	-0.313992
Cl122	Cl	-0.373570	0.499938	0.186008
H123	H	-0.804443	-0.000096	-0.019956
H124	H	-0.304443	0.499904	0.480044
H125	H	-0.946499	-0.360827	0.233721
H126	H	-0.446499	0.139173	0.733721
Cl127	Cl	-0.919621	-0.620234	0.260605
Cl128	Cl	-0.419621	-0.120234	0.760605
H129	H	-1.200238	-0.000110	-0.624162
H130	H	-0.700238	0.499890	-0.124162
Cl131	Cl	-1.193847	-0.184634	-0.013520
Cl132	Cl	-0.693847	0.315366	0.486480
Cl133	Cl	-0.919571	-0.184653	0.260615
Cl134	Cl	-0.419571	0.315347	0.760615
H135	H	-0.904606	-0.000086	-0.585777
H136	H	-0.404606	0.499914	-0.085777
H137	H	-0.516682	-0.000111	-0.025398
H138	H	-0.016682	0.499889	0.474602
Cl139	Cl	-1.193903	-0.815548	-0.013543
Cl140	Cl	-0.693903	-0.315548	0.486457
Cl141	Cl	-0.919638	-0.815577	0.260601
Cl142	Cl	-0.419638	-0.315577	0.760601
Cl143	Cl	-1.245348	-0.000142	-0.151166
Cl144	Cl	-0.745348	0.499858	0.348834
H145	H	-1.205673	-0.000119	-0.336394
H146	H	-0.705673	0.499881	0.163606
H147	H	-0.478296	-0.000076	0.270240
H148	H	0.021704	0.499924	0.770240
Cl149	Cl	-0.283691	-0.000091	0.302737
Cl150	Cl	0.216309	0.499909	0.802737
Cl151	Cl	-1.239909	-0.000117	-0.438919
Cl152	Cl	-0.739909	0.499883	0.061081
