data_functionalizedCrystal
_audit_creation_method	'MofGen! by Chris Wilmer'
_symmetry_space_group_name_H-M	'P1'
_symmetry_Int_Tables_number	1
_symmetry_cell_setting	triclinic
loop_
_symmetry_equiv_pos_as_xyz
  x,y,z
_cell_length_a	17.640112
_cell_length_b	12.759393
_cell_length_c	12.759387
_cell_angle_alpha	90.029097
_cell_angle_beta	101.175911
_cell_angle_gamma	78.761228
loop_
_atom_site_label
_atom_site_type_symbol
_atom_site_fract_x
_atom_site_fract_y
_atom_site_fract_z
Zn1	Zn	1.208347	0.093190	-0.269872
Zn2	Zn	1.208268	0.268931	-0.094222
Zn3	Zn	1.076174	0.128796	-0.129665
Zn4	Zn	1.076164	0.304380	-0.305300
O5	O	1.142239	0.198824	-0.199765
O6	O	1.318937	0.086765	-0.216911
O7	O	1.190717	0.250408	0.048090
O8	O	1.093744	-0.022958	-0.148271
O9	O	1.318880	0.215882	-0.087862
O10	O	1.190851	-0.049118	-0.251279
O11	O	1.093668	0.147452	0.022050
O12	O	0.965572	0.181825	-0.182624
O13	O	1.093727	0.276300	-0.447613
O14	O	0.965565	0.310826	-0.311661
O15	O	1.190841	0.121139	-0.421585
O16	O	1.190707	0.420665	-0.122215
O17	O	1.093651	0.446709	-0.277293
C18	C	0.936891	0.254037	-0.254834
C19	C	0.849042	0.277682	-0.278417
C20	C	1.142191	0.471805	-0.199770
C21	C	1.142243	0.588567	-0.199788
C22	C	1.142292	0.198702	-0.473784
C23	C	1.142315	0.198649	-0.590554
C24	C	0.560029	0.019175	-0.020611
C25	C	0.477482	0.041415	-0.042785
C26	C	0.477529	0.175928	-0.176920
C27	C	0.560077	0.153696	-0.154761
C28	C	0.601321	0.075319	-0.076604
C29	C	0.601369	0.209841	-0.210754
C30	C	0.683911	0.187614	-0.188592
C31	C	0.725160	0.109243	-0.110436
C32	C	0.683863	0.053093	-0.054442
C33	C	0.560124	0.288223	-0.288905
C34	C	0.601416	0.344367	-0.344898
C35	C	0.683959	0.322135	-0.322742
C36	C	0.725209	0.243764	-0.244586
C37	C	0.725257	0.378286	-0.378736
C38	C	0.807799	0.356059	-0.356574
C39	C	0.807750	0.221538	-0.222424
C40	C	1.348388	0.143397	-0.144481
C41	C	1.436236	0.119778	-0.120923
C42	C	1.243384	0.561374	-0.038385
C43	C	1.293975	0.602632	0.042305
C44	C	1.294021	0.712341	0.042282
C45	C	1.243473	0.780795	-0.038442
C46	C	1.192882	0.739537	-0.119133
C47	C	1.192839	0.629824	-0.119099
C48	C	1.091746	0.766729	-0.280537
C49	C	1.091695	0.657022	-0.280512
C50	C	1.041198	0.835184	-0.361262
C51	C	0.990602	0.793927	-0.441950
C52	C	0.990557	0.684210	-0.441923
C53	C	1.041104	0.615763	-0.361203
C54	C	1.142308	0.924772	-0.199793
C55	C	1.142337	0.807988	-0.199847
C56	C	1.041265	0.091430	-0.617687
C57	C	0.990754	0.037795	-0.686111
C58	C	0.990777	0.037751	-0.795826
C59	C	1.041316	0.091349	-0.837119
C60	C	1.091826	0.144984	-0.768696
C61	C	1.091799	0.145020	-0.658979
C62	C	1.192872	0.252209	-0.741565
C63	C	1.192853	0.252248	-0.631848
C64	C	1.243410	0.305807	-0.782858
C65	C	1.293926	0.359437	-0.714433
C66	C	1.293901	0.359478	-0.604712
C67	C	1.243364	0.305882	-0.563425
C68	C	1.142231	0.198859	0.073201
C69	C	1.142361	0.198574	0.190012
H70	H	0.841333	0.157700	-0.158797
H71	H	1.243422	0.305774	-0.872196
C72	C	1.041057	0.495086	-0.361176
H73	H	1.003686	0.480314	-0.420790
H74	H	1.092046	0.456485	-0.365707
H75	H	1.027397	0.474010	-0.297016
C76	C	0.815955	0.084788	-0.086051
H77	H	0.834602	0.030076	-0.031480
H78	H	0.834657	0.061662	-0.148855
H79	H	0.834618	0.147544	-0.062751
H80	H	0.949605	-0.005841	-0.652478
C81	C	1.349514	0.418384	-0.759852
H82	H	1.379594	0.450333	-0.703390
H83	H	1.383968	0.368919	-0.793426
H84	H	1.319271	0.472283	-0.810752
C85	C	0.432063	-0.020356	0.018807
H86	H	0.468451	-0.070220	0.068520
H87	H	0.399843	0.028454	0.055998
H88	H	0.399883	-0.057426	-0.030107
C89	C	1.349573	0.527333	0.131096
H90	H	1.342298	0.456085	0.119562
H91	H	1.402679	0.530961	0.129907
H92	H	1.338032	0.548493	0.198599
C93	C	0.934908	0.638834	-0.530687
H94	H	0.904811	0.695318	-0.578758
H95	H	0.965109	0.587835	-0.568376
H96	H	0.900460	0.605372	-0.499685
C97	C	1.349667	0.757729	0.131041
H98	H	1.379762	0.701253	0.179124
H99	H	1.384105	0.791202	0.100040
H100	H	1.319457	0.808724	0.168732
H101	H	1.041323	0.091320	-0.926459
H102	H	1.335035	0.403150	-0.549006
C103	C	0.605406	-0.067044	0.065354
H104	H	0.660478	-0.072241	0.070525
H105	H	0.591854	-0.048109	0.132334
H106	H	0.591889	-0.133980	0.046219
C107	C	0.935008	0.869218	-0.530740
H108	H	0.904872	0.828936	-0.578796
H109	H	0.900607	0.921354	-0.499763
H110	H	0.965254	0.903804	-0.568455
C111	C	1.243329	0.305933	-0.442743
H112	H	1.205992	0.266341	-0.427956
H113	H	1.294330	0.274073	-0.404233
H114	H	1.229623	0.377428	-0.421594
H115	H	0.717446	-0.010745	0.009186
H116	H	0.567824	0.408184	-0.408531
H117	H	0.949646	-0.005922	-0.851538
C118	C	0.432156	0.262133	-0.262891
H119	H	0.377083	0.267325	-0.268077
H120	H	0.445677	0.329066	-0.243779
H121	H	0.445711	0.243172	-0.329870
C122	C	1.041246	0.091468	-0.497002
H123	H	1.078570	0.131080	-0.462165
H124	H	0.990232	0.123346	-0.485851
H125	H	1.054940	0.019992	-0.468529
C126	C	0.679883	0.464497	-0.464699
H127	H	0.624811	0.469691	-0.469880
H128	H	0.693406	0.531428	-0.445580
H129	H	0.693433	0.445544	-0.531682
C130	C	0.853223	0.417811	-0.418168
H131	H	0.816839	0.467665	-0.467896
H132	H	0.885407	0.454875	-0.369262
H133	H	0.885440	0.368988	-0.455362
C134	C	1.243331	0.440697	-0.038352
H135	H	1.280682	0.405838	0.021275
H136	H	1.192324	0.429667	-0.033810
H137	H	1.256973	0.412133	-0.102499
H138	H	0.492914	0.306317	-0.306947
H139	H	1.041243	0.924513	-0.361279
C140	C	1.243528	0.901471	-0.038471
H141	H	1.280896	0.916239	0.021147
H142	H	1.257180	0.922546	-0.102631
H143	H	1.192540	0.940078	-0.033927
