data_functionalizedCrystal
_audit_creation_method	'MofGen! by Chris Wilmer'
_symmetry_space_group_name_H-M	'P1'
_symmetry_Int_Tables_number	1
_symmetry_cell_setting	triclinic
loop_
_symmetry_equiv_pos_as_xyz
  x,y,z
_cell_length_a	16.120530
_cell_length_b	21.295417
_cell_length_c	21.295411
_cell_angle_alpha	89.971282
_cell_angle_beta	87.086784
_cell_angle_gamma	87.125778
loop_
_atom_site_label
_atom_site_type_symbol
_atom_site_fract_x
_atom_site_fract_y
_atom_site_fract_z
Zn1	Zn	1.274467	-0.299502	-0.404643
Zn2	Zn	1.274358	-0.404762	-0.299364
Zn3	Zn	1.135059	-0.294170	-0.294058
Zn4	Zn	1.134999	-0.399390	-0.399268
O5	O	1.204721	-0.349456	-0.349333
O6	O	1.391117	-0.317945	-0.395148
O7	O	1.255859	-0.390109	-0.210570
O8	O	1.153623	-0.206791	-0.308756
O9	O	1.391037	-0.395279	-0.317801
O10	O	1.256046	-0.210708	-0.390003
O11	O	1.153517	-0.308858	-0.206672
O12	O	1.018387	-0.303648	-0.303543
O13	O	1.153521	-0.386122	-0.488071
O14	O	1.018342	-0.380952	-0.380841
O15	O	1.255987	-0.312735	-0.492020
O16	O	1.255800	-0.492136	-0.312588
O17	O	1.153414	-0.488189	-0.385986
C18	C	0.988115	-0.341139	-0.341033
C19	C	0.895450	-0.337596	-0.337497
C20	C	1.204612	-0.513003	-0.349294
C21	C	1.204641	-0.582973	-0.349302
C22	C	0.725790	-0.331113	-0.331047
C23	C	0.684493	-0.367845	-0.367665
C24	C	0.590088	-0.364238	-0.364076
C25	C	0.820203	-0.334719	-0.334635
C26	C	1.258001	-0.617876	-0.311126
C27	C	1.258040	-0.683620	-0.311142
C28	C	1.204704	-0.714458	-0.349326
C29	C	1.151341	-0.679547	-0.387509
C30	C	1.151309	-0.613804	-0.387497
N31	N	1.131773	-0.814927	-0.351330
N32	N	1.131806	-0.877380	-0.351338
C33	C	1.204798	-0.912536	-0.349365
N34	N	1.277758	-0.882880	-0.347372
N35	N	1.277724	-0.820421	-0.347361
C36	C	1.204733	-0.785744	-0.349343
C37	C	1.258204	-1.018726	-0.311205
C38	C	1.258245	-1.084471	-0.311225
C39	C	1.151538	-1.080397	-0.387588
C40	C	1.151505	-1.014653	-0.387572
C41	C	1.204837	-0.983822	-0.349377
C42	C	1.422173	-0.357806	-0.357666
C43	C	1.514838	-0.361364	-0.361217
C44	C	1.204759	-0.349424	-0.513525
C45	C	1.204776	-0.349410	-0.583494
C46	C	1.204853	-0.185271	-0.349387
C47	C	1.204910	-0.115305	-0.349410
C48	C	1.258158	-0.391591	-1.084986
C49	C	1.258143	-0.391611	-1.019243
C50	C	1.204854	-0.349315	-0.984337
C51	C	1.151562	-0.307008	-1.015178
C52	C	1.151572	-0.306994	-1.080919
N53	N	1.198486	-0.293992	-0.880888
N54	N	1.198481	-0.294007	-0.818436
C55	C	1.204818	-0.349356	-0.786260
N56	N	1.211176	-0.404691	-0.818896
N57	N	1.211186	-0.404675	-0.881354
C58	C	1.204837	-0.349326	-0.913050
C59	C	1.258087	-0.391685	-0.684141
C60	C	1.258066	-0.391705	-0.618396
C61	C	1.151489	-0.307097	-0.614332
C62	C	1.151505	-0.307082	-0.680075
C63	C	1.204809	-0.349375	-0.714976
C64	C	1.204731	-0.349444	-0.185782
C65	C	1.204876	-0.349287	-0.115820
H66	H	0.720038	-0.402001	-0.401711
C67	C	1.092950	-0.260479	-0.976779
N68	N	1.048802	-0.225431	-0.947858
H69	H	0.690247	-0.296959	-0.297004
H70	H	1.108183	-0.272543	-1.106024
C71	C	1.092668	-0.713470	-0.429509
N72	N	1.048475	-0.739020	-0.461145
H73	H	1.301450	-0.426160	-0.593292
C74	C	1.316713	-0.438214	-0.722533
N75	N	1.360869	-0.473261	-0.751448
H76	H	1.108098	-0.272661	-0.585912
C77	C	1.092901	-0.260536	-0.713994
N78	N	1.048758	-0.225474	-0.739541
C79	C	1.316882	-0.984810	-0.269200
N80	N	1.361082	-0.959266	-0.237563
C81	C	1.316659	-0.583965	-0.269103
N82	N	1.360837	-0.558422	-0.237448
C83	C	1.316738	-0.722020	-0.269141
N84	N	1.360947	-0.750942	-0.237504
C85	C	1.092821	-0.976259	-0.429582
N86	N	1.048627	-0.947341	-0.461234
H87	H	1.107856	-0.585385	-0.418584
C88	C	1.316948	-1.122865	-0.269226
N89	N	1.361162	-1.151783	-0.237590
H90	H	1.108115	-1.105505	-0.418681
H91	H	1.301560	-0.426031	-1.113398
C92	C	1.316759	-0.438151	-0.985319
N93	N	1.360908	-0.473206	-0.959769
