data_functionalizedCrystal
_audit_creation_method	'MofGen! by Chris Wilmer'
_symmetry_space_group_name_H-M	'P1'
_symmetry_Int_Tables_number	1
_symmetry_cell_setting	triclinic
loop_
_symmetry_equiv_pos_as_xyz
  x,y,z
_cell_length_a	17.699083
_cell_length_b	17.699083
_cell_length_c	16.776229
_cell_angle_alpha	90.007545
_cell_angle_beta	90.001114
_cell_angle_gamma	83.283015
loop_
_atom_site_label
_atom_site_type_symbol
_atom_site_fract_x
_atom_site_fract_y
_atom_site_fract_z
O1	O	-1.004078	-0.095713	-0.066178
O2	O	-0.783700	-0.108165	-0.066204
O3	O	-0.900116	0.008250	-0.066183
O4	O	-0.887663	-0.212128	-0.066199
O5	O	-0.900100	0.008257	0.066393
O6	O	-0.783685	-0.108158	0.066372
O7	O	-1.004063	-0.095706	0.066398
Zn8	Zn	-0.893871	-0.101931	0.087435
Zn9	Zn	-0.893892	-0.101940	-0.087241
O10	O	-0.887648	-0.212121	0.066378
C11	C	-0.755495	-0.107716	0.000081
C12	C	-0.671477	-0.106377	0.000071
C13	C	-0.899662	0.036451	0.000105
C14	C	-0.898323	0.120469	0.000105
N15	N	-0.893863	-0.101924	0.206646
C16	C	-1.032268	-0.096156	0.000112
C17	C	-1.116286	-0.097494	0.000116
C18	C	-0.622856	-0.174710	0.000066
C19	C	-0.543913	-0.173448	0.000077
C20	C	-0.513592	-0.103852	0.000086
C21	C	-0.562219	-0.035513	0.000093
C22	C	-0.641161	-0.036776	0.000088
C23	C	-0.243856	-0.030418	0.000113
C24	C	-0.164908	-0.029160	0.000115
C25	C	-0.146608	-0.167090	0.000101
C26	C	-0.225550	-0.168353	0.000097
C27	C	-0.274170	-0.100015	0.000108
C28	C	-0.359769	-0.101384	0.000098
C29	C	-0.427995	-0.102481	0.000090
C30	C	-0.888102	-0.240322	0.000087
C31	C	-0.889440	-0.324340	0.000082
C32	C	-0.966656	0.169090	0.000114
C33	C	-0.965394	0.248033	0.000107
C34	C	-0.895798	0.278354	0.000096
C35	C	-0.827459	0.229727	0.000085
C36	C	-0.828722	0.150785	0.000086
C37	C	-0.822364	0.548090	0.000078
C38	C	-0.821106	0.627038	0.000078
C39	C	-0.959036	0.645338	0.000099
C40	C	-0.960299	0.566396	0.000100
C41	C	-0.891961	0.517776	0.000084
C42	C	-0.893330	0.432177	0.000090
C43	C	-0.894427	0.363951	0.000096
N44	N	-0.893906	-0.101941	-0.206452
C45	C	-0.945428	-0.050396	0.248372
C46	C	-0.945432	-0.050396	0.331824
C47	C	-0.893875	-0.101927	0.373549
C48	C	-0.842305	-0.153457	0.331817
C49	C	-0.842297	-0.153454	0.248366
C50	C	-0.842332	-0.153472	0.668364
C51	C	-0.842345	-0.153473	0.751820
C52	C	-0.945466	-0.050414	0.751822
C53	C	-0.945459	-0.050411	0.668372
C54	C	-0.893887	-0.101938	0.626647
C55	C	-0.893882	-0.101937	0.536158
C56	C	-0.893882	-0.101932	0.464036
H57	H	-0.647537	-0.231384	0.000058
H58	H	-0.140225	0.027517	0.000124
C59	C	-0.786281	-0.209486	0.203204
C60	C	-0.741144	-0.254630	0.257603
C61	C	-0.689536	-0.306261	0.216030
H62	H	-0.754753	-0.182384	0.170656
H63	H	-0.813423	-0.240999	0.170657
H64	H	-0.714003	-0.223121	0.290137
H65	H	-0.772651	-0.281748	0.290152
H66	H	-0.716679	-0.337774	0.183483
H67	H	-0.658014	-0.279153	0.183485
H68	H	-0.658910	-0.336902	0.252934
H69	H	-1.016971	0.541714	0.000113
C70	C	-1.001415	0.005661	0.797026
C71	C	-0.989293	0.080021	0.776721
C72	C	-1.040822	0.131694	0.818337
H73	H	-0.994088	-0.001611	0.852713
H74	H	-1.051924	-0.002449	0.783327
H75	H	-0.938795	0.088128	0.790425
H76	H	-0.996625	0.087317	0.721041
H77	H	-1.091332	0.123584	0.804639
H78	H	-1.033492	0.124415	0.874023
H79	H	-1.032609	0.182152	0.804561
C80	C	-0.296511	0.043858	0.000081
C81	C	-0.253058	0.105074	0.000067
C82	C	-0.301541	0.173511	0.000027
H83	H	-0.327704	0.046344	0.046301
H84	H	-0.327677	0.046275	-0.046170
H85	H	-0.221905	0.102658	0.046313
H86	H	-0.221867	0.102613	-0.046150
H87	H	-0.332707	0.175928	-0.046224
H88	H	-0.332731	0.175989	0.046248
H89	H	-0.272065	0.215055	0.000010
H90	H	-0.680748	0.018868	0.000091
H91	H	-1.021038	0.287618	0.000116
H92	H	-0.987419	-0.008438	0.365798
C93	C	-0.748192	0.495275	-0.000098
C94	C	-0.744880	0.449428	-0.068318
C95	C	-0.676555	0.400771	-0.068513
H96	H	-0.745734	0.464031	0.046078
H97	H	-0.706545	0.524618	-0.000145
H98	H	-0.786515	0.420087	-0.068264
H99	H	-0.747325	0.480651	-0.114506
H100	H	-0.634908	0.430114	-0.068559
H101	H	-0.674103	0.369532	-0.022333
H102	H	-0.674296	0.369663	-0.114802
C103	C	-0.786274	-0.209453	0.796979
C104	C	-0.741092	-0.254563	0.742578
C105	C	-0.689429	-0.306129	0.784149
H106	H	-0.813351	-0.241002	0.829526
H107	H	-0.754789	-0.182279	0.829526
H108	H	-0.772573	-0.281735	0.710045
H109	H	-0.713999	-0.223035	0.710029
H110	H	-0.657944	-0.278955	0.816696
H111	H	-0.716511	-0.337673	0.816695
H112	H	-0.658762	-0.336738	0.747244
H113	H	-1.014680	0.684934	0.000107
C114	C	-0.491164	-0.247666	-0.000097
C115	C	-0.504831	-0.289569	-0.068323
C116	C	-0.456248	-0.357941	-0.068514
H117	H	-0.500302	-0.276301	0.046076
H118	H	-0.439794	-0.236984	-0.000132
H119	H	-0.556189	-0.300253	-0.068280
H120	H	-0.495688	-0.260957	-0.114506
H121	H	-0.404877	-0.347259	-0.068550
H122	H	-0.465390	-0.386569	-0.022339
H123	H	-0.465509	-0.386377	-0.114808
H124	H	-0.764429	0.651721	0.000071
C125	C	-0.529156	0.039973	0.000063
C126	C	-0.449615	0.026456	0.000043
C127	C	-0.419133	0.095977	0.000003
H128	H	-0.545771	0.068164	0.046285
H129	H	-0.545811	0.068108	-0.046185
H130	H	-0.432967	-0.001667	0.046288
H131	H	-0.432979	-0.001723	-0.046175
H132	H	-0.435788	0.124112	-0.046246
H133	H	-0.435753	0.124162	0.046226
H134	H	-0.365162	0.086815	-0.000018
H135	H	-0.107012	-0.222734	0.000097
H136	H	-0.800322	-0.195412	0.365793
H137	H	-0.800342	-0.195428	0.634398
H138	H	-1.023330	0.144409	0.000128
H139	H	-0.773078	0.111198	0.000078
H140	H	-0.987414	-0.008437	0.214406
H141	H	-0.250232	-0.225025	0.000085
H142	H	-0.770792	0.254420	0.000071
H143	H	-0.987444	-0.008452	0.634402
