data_functionalizedCrystal
_audit_creation_method	'MofGen! by Chris Wilmer'
_symmetry_space_group_name_H-M	'P1'
_symmetry_Int_Tables_number	1
_symmetry_cell_setting	triclinic
loop_
_symmetry_equiv_pos_as_xyz
  x,y,z
_cell_length_a	14.519709
_cell_length_b	12.996460
_cell_length_c	11.792241
_cell_angle_alpha	90.006284
_cell_angle_beta	83.936780
_cell_angle_gamma	89.999966
loop_
_atom_site_label
_atom_site_type_symbol
_atom_site_fract_x
_atom_site_fract_y
_atom_site_fract_z
O1	O	1.224413	0.085433	0.148782
O2	O	1.474413	0.335433	0.398782
O3	O	1.724413	0.585433	0.648782
O4	O	1.974413	0.835433	0.898782
O5	O	0.956001	0.085465	0.166303
O6	O	1.206001	0.335465	0.416303
O7	O	1.456001	0.585465	0.666303
O8	O	1.706001	0.835465	0.916303
O9	O	1.096721	0.085441	-0.007664
O10	O	1.346721	0.335441	0.242336
O11	O	1.596721	0.585441	0.492336
O12	O	1.846721	0.835441	0.742336
O13	O	1.083693	0.085457	0.322749
O14	O	1.333693	0.335457	0.572749
O15	O	1.583693	0.585457	0.822749
O16	O	1.833693	0.835457	1.072749
O17	O	1.096706	-0.085693	-0.007674
O18	O	1.346706	0.164307	0.242326
O19	O	1.596706	0.414307	0.492326
O20	O	1.846706	0.664307	0.742326
O21	O	0.955986	-0.085669	0.166294
O22	O	1.205986	0.164331	0.416294
O23	O	1.455986	0.414331	0.666294
O24	O	1.705986	0.664331	0.916294
O25	O	1.224399	-0.085701	0.148773
O26	O	1.474399	0.164299	0.398773
O27	O	1.724399	0.414299	0.648773
O28	O	1.974399	0.664299	0.898773
Cu29	Cu	1.090191	-0.101311	0.157532
Cu30	Cu	1.340191	0.148689	0.407532
Cu31	Cu	1.590191	0.398689	0.657532
Cu32	Cu	1.840191	0.648689	0.907532
Cu33	Cu	1.090208	0.101075	0.157544
Cu34	Cu	1.340208	0.351075	0.407544
Cu35	Cu	1.590208	0.601075	0.657544
Cu36	Cu	1.840208	0.851075	0.907544
O37	O	1.083678	-0.085677	0.322740
O38	O	1.333678	0.164323	0.572740
O39	O	1.583678	0.414323	0.822740
O40	O	1.833678	0.664323	1.072740
C41	C	0.921630	-0.000098	0.165482
C42	C	1.171630	0.249902	0.415482
C43	C	1.421630	0.499902	0.665482
C44	C	1.671630	0.749902	0.915482
C45	C	0.819240	-0.000086	0.163035
C46	C	1.069240	0.249914	0.413035
C47	C	1.319240	0.499914	0.663035
C48	C	1.569240	0.749914	0.913035
N49	N	1.090185	-0.243658	0.157524
N50	N	1.340185	0.006342	0.407524
N51	N	1.590185	0.256342	0.657524
N52	N	1.840185	0.506342	0.907524
C53	C	0.444311	-0.000134	0.154027
C54	C	0.694311	0.249866	0.404027
C55	C	0.944311	0.499866	0.654027
C56	C	1.194311	0.749866	0.904027
C57	C	0.548628	-0.000120	0.156528
C58	C	0.798628	0.249880	0.406528
C59	C	1.048628	0.499880	0.656528
C60	C	1.298628	0.749880	0.906528
C61	C	0.631772	-0.000109	0.158531
C62	C	0.881772	0.249891	0.408531
C63	C	1.131772	0.499891	0.658531
C64	C	1.381772	0.749891	0.908531
C65	C	0.736096	-0.000098	0.161033
C66	C	0.986096	0.249902	0.411033
C67	C	1.236096	0.499902	0.661033
C68	C	1.486096	0.749902	0.911033
C69	C	1.090207	-0.663472	0.157545
C70	C	1.340207	-0.413472	0.407545
C71	C	1.590207	-0.163472	0.657545
C72	C	1.840207	0.086528	0.907545
C73	C	1.090198	-0.546667	0.157543
C74	C	1.340198	-0.296667	0.407543
C75	C	1.590198	-0.046667	0.657543
C76	C	1.840198	0.203333	0.907543
C77	C	1.090197	-0.453569	0.157535
C78	C	1.340197	-0.203569	0.407535
C79	C	1.590197	0.046431	0.657535
C80	C	1.840197	0.296431	0.907535
C81	C	1.090187	-0.336756	0.157531
C82	C	1.340187	-0.086756	0.407531
C83	C	1.590187	0.163244	0.657531
C84	C	1.840187	0.413244	0.907531
C85	C	1.258769	-0.000135	0.149594
C86	C	1.508769	0.249865	0.399594
C87	C	1.758769	0.499865	0.649594
C88	C	2.008769	0.749865	0.899594
C89	C	1.361159	-0.000141	0.152041
C90	C	1.611159	0.249859	0.402041
C91	C	1.861159	0.499859	0.652041
C92	C	2.111159	0.749859	0.902041
N93	N	1.090221	0.243422	0.157543
N94	N	1.340221	0.493422	0.407543
N95	N	1.590221	0.743422	0.657543
N96	N	1.840221	0.993422	0.907543
C97	C	1.095895	-0.000126	-0.049955
C98	C	1.345895	0.249874	0.200045
C99	C	1.595895	0.499874	0.450045
C100	C	1.845895	0.749874	0.700045
C101	C	1.093446	-0.000124	-0.175955
C102	C	1.343446	0.249876	0.074045
C103	C	1.593446	0.499876	0.324045
C104	C	1.843446	0.749876	0.574045
C105	C	1.088942	-0.000106	-0.406642
C106	C	1.338942	0.249894	-0.156642
C107	C	1.588942	0.499894	0.093358
C108	C	1.838942	0.749894	0.343358
C109	C	1.091444	-0.000116	-0.278271
C110	C	1.341444	0.249884	-0.028271
C111	C	1.591444	0.499884	0.221729
C112	C	1.841444	0.749884	0.471729
C113	C	1.084504	-0.000108	0.365031
C114	C	1.334504	0.249892	0.615031
C115	C	1.584504	0.499892	0.865031
C116	C	1.834504	0.749892	1.115031
C117	C	1.086954	-0.000103	0.491031
C118	C	1.336954	0.249897	0.741031
C119	C	1.586954	0.499897	0.991031
C120	C	1.836954	0.749897	1.241031
