data_functionalizedCrystal
_audit_creation_method	'MofGen! by Chris Wilmer'
_symmetry_space_group_name_H-M	'P1'
_symmetry_Int_Tables_number	1
_symmetry_cell_setting	triclinic
loop_
_symmetry_equiv_pos_as_xyz
  x,y,z
_cell_length_a	16.120484
_cell_length_b	16.625547
_cell_length_c	16.120297
_cell_angle_alpha	92.874036
_cell_angle_beta	95.614431
_cell_angle_gamma	92.925712
loop_
_atom_site_label
_atom_site_type_symbol
_atom_site_fract_x
_atom_site_fract_y
_atom_site_fract_z
Zn1	Zn	-0.356754	1.191152	-0.489547
Zn2	Zn	-0.489444	1.191051	-0.356858
Zn3	Zn	-0.349689	1.063517	-0.349783
Zn4	Zn	-0.496484	1.049081	-0.496569
O5	O	-0.423093	1.123700	-0.423189
O6	O	-0.374366	1.303970	-0.471968
O7	O	-0.465002	1.180132	-0.238958
O8	O	-0.233661	1.086532	-0.362424
O9	O	-0.471852	1.303895	-0.374481
O10	O	-0.238852	1.180306	-0.465108
O11	O	-0.362325	1.086434	-0.233760
O12	O	-0.369152	0.948771	-0.369233
O13	O	-0.483852	1.061928	-0.612599
O14	O	-0.477001	0.938165	-0.477076
O15	O	-0.381193	1.166307	-0.607440
O16	O	-0.607343	1.166134	-0.381290
O17	O	-0.612515	1.061829	-0.483935
C18	C	-0.423075	0.914212	-0.423149
C19	C	-0.423088	0.824590	-0.423152
C20	C	-0.640258	1.112425	-0.434160
C21	C	-0.733163	1.107674	-0.438882
C22	C	-0.423090	0.751807	-0.423163
C23	C	-0.423096	0.660498	-0.423184
C24	C	-0.423104	0.587720	-0.423206
C25	C	-0.423111	0.496404	-0.423226
C26	C	-0.903263	1.099003	-0.447519
C27	C	-0.942083	1.148542	-0.398873
C28	C	-1.036732	1.143717	-0.403679
C29	C	-0.808605	1.103826	-0.442715
C30	C	-0.205081	1.135041	-0.412193
C31	C	-0.112177	1.139873	-0.407508
C32	C	-0.434096	1.112518	-0.641194
C33	C	-0.438784	1.107753	-0.734095
C34	C	-0.423112	1.334006	-0.423230
C35	C	-0.423120	1.423626	-0.423248
C36	C	-0.447326	1.099025	-0.904184
C37	C	-0.398609	1.148547	-0.943033
C38	C	-0.403362	1.143691	-1.037677
C39	C	-0.442574	1.103880	-0.809532
C40	C	-0.412073	1.134888	-0.206029
C41	C	-0.407149	1.139822	-0.113117
H42	H	-0.904232	1.194576	-0.353615
C43	C	-0.508488	1.036823	-0.955275
N44	N	-0.554556	0.989973	-0.993767
H45	H	-0.941111	1.052971	-0.492772
C46	C	-0.337448	1.210759	-0.891942
N47	N	-0.291387	1.257618	-0.853457
