data_functionalizedCrystal
_audit_creation_method	'MofGen! by Chris Wilmer'
_symmetry_space_group_name_H-M	'P1'
_symmetry_Int_Tables_number	1
_symmetry_cell_setting	triclinic
loop_
_symmetry_equiv_pos_as_xyz
  x,y,z
_cell_length_a	16.959455
_cell_length_b	18.101397
_cell_length_c	18.101398
_cell_angle_alpha	90.020807
_cell_angle_beta	90.009167
_cell_angle_gamma	90.017413
loop_
_atom_site_label
_atom_site_type_symbol
_atom_site_fract_x
_atom_site_fract_y
_atom_site_fract_z
Zn1	Zn	1.208341	-0.294969	0.418698
Zn2	Zn	1.208275	-0.418794	0.294850
Zn3	Zn	1.076182	-0.294965	0.294873
Zn4	Zn	1.076134	-0.418767	0.418653
O5	O	1.142233	-0.356874	0.356768
O6	O	1.318943	-0.311408	0.402278
O7	O	1.190745	-0.402378	0.191220
O8	O	1.093761	-0.191332	0.311326
O9	O	1.318895	-0.402382	0.311288
O10	O	1.190858	-0.191336	0.402300
O11	O	1.093696	-0.311401	0.191237
O12	O	0.965564	-0.311374	0.311283
O13	O	1.093679	-0.402335	0.522292
O14	O	0.965529	-0.402331	0.402224
O15	O	1.190811	-0.311382	0.522324
O16	O	1.190698	-0.522424	0.311245
O17	O	1.093614	-0.522403	0.402202
C18	C	0.936867	-0.356849	0.356751
C19	C	0.849010	-0.356857	0.356762
C20	C	0.477528	-0.309474	0.309514
C21	C	0.477540	-0.404335	0.404065
C22	C	0.560086	-0.404324	0.404060
C23	C	0.601357	-0.356888	0.356781
C24	C	0.560082	-0.309463	0.309507
C25	C	0.601368	-0.451754	0.451328
C26	C	0.683919	-0.451746	0.451325
C27	C	0.725191	-0.404306	0.404049
C28	C	0.683911	-0.356878	0.356774
C29	C	0.725181	-0.309442	0.309495
C30	C	0.683903	-0.262010	0.262222
C31	C	0.601354	-0.262023	0.262231
C32	C	0.807739	-0.404293	0.404041
C33	C	0.807735	-0.309432	0.309487
C34	C	1.142165	-0.549284	0.356732
C35	C	1.142209	-0.631599	0.356742
C36	C	1.142310	-0.930689	0.356809
C37	C	1.203222	-0.899346	0.299428
C38	C	1.203433	-0.813728	0.299577
C39	C	1.142260	-0.782307	0.356775
C40	C	1.164827	-0.813329	0.434835
C41	C	1.165299	-0.898974	0.434523
C42	C	1.058667	-0.899191	0.336806
C43	C	1.059081	-0.813541	0.335063
C44	C	1.142230	-0.698447	0.356761
C45	C	1.142341	-1.014549	0.356829
C46	C	1.348401	-0.356899	0.356786
C47	C	1.436258	-0.356910	0.356793
C48	C	1.142247	-0.356856	0.549930
C49	C	1.142253	-0.356848	0.632244
C50	C	1.142322	-0.163712	0.356821
C51	C	1.142360	-0.081398	0.356843
C52	C	1.142245	-0.356879	0.931335
C53	C	1.203565	-0.299847	0.900031
C54	C	1.203388	-0.299613	0.814413
C55	C	1.142250	-0.356864	0.782953
C56	C	1.058971	-0.335664	0.814029
C57	C	1.059323	-0.335259	0.899674
C58	C	1.163477	-0.435249	0.899743
C59	C	1.165319	-0.434827	0.814093
C60	C	1.142248	-0.356856	0.699093
C61	C	1.142242	-0.356885	1.015195
C62	C	1.142222	-0.356903	1.164358
C63	C	1.142242	-0.356895	1.082044
H64	H	0.841345	-0.442913	0.442527
N65	N	1.184749	-0.926692	0.222534
H66	H	1.231143	-0.955573	0.202808
H67	H	1.173984	-0.883134	0.189176
H68	H	1.189340	-0.241544	0.793943
H69	H	0.567759	-0.490379	0.489815
H70	H	0.717521	-0.490367	0.489818
H71	H	1.265141	-0.312889	0.793403
N72	N	0.728413	-0.210847	0.211226
H73	H	0.762645	-0.240892	0.176849
H74	H	0.762636	-0.176582	0.241435
H75	H	1.123913	-0.479593	0.792675
H76	H	1.012081	-0.374991	0.920381
N77	N	1.242533	-0.460805	0.928349
H78	H	1.254994	-0.511184	0.907391
H79	H	1.240829	-0.463706	0.984044
H80	H	1.122876	-0.919706	0.478750
H81	H	1.189315	-0.792755	0.241697
H82	H	1.041327	-0.277970	0.919668
N83	N	1.284846	-0.927788	0.316749
H84	H	1.282538	-0.960887	0.361604
H85	H	1.321097	-0.884715	0.327019
N86	N	0.996812	-0.388973	0.787038
H87	H	1.022099	-0.427471	0.754327
H88	H	0.955560	-0.361125	0.758006
N89	N	1.285621	-0.317212	0.927332
H90	H	1.324048	-0.279963	0.906606
H91	H	1.301095	-0.368430	0.910609
N92	N	1.107868	-0.786368	0.492999
H93	H	1.081171	-0.830076	0.517017
H94	H	1.066833	-0.753695	0.469200
N95	N	0.998546	-0.926038	0.392160
H96	H	1.025315	-0.958446	0.430015
H97	H	0.956411	-0.955355	0.365765
H98	H	1.040655	-0.279001	0.792594
H99	H	1.265390	-0.793189	0.312812
H100	H	1.189688	-0.242112	0.921571
H101	H	1.118819	-0.477744	0.919993
N102	N	0.852247	-0.258260	0.258501
H103	H	0.813569	-0.228215	0.228560
H104	H	0.886482	-0.288345	0.224167
N105	N	0.556834	-0.210892	0.211225
H106	H	0.498278	-0.218108	0.218395
H107	H	0.571262	-0.222363	0.158321
N108	N	1.244910	-0.784862	0.457662
H109	H	1.266684	-0.751878	0.417558
H110	H	1.281764	-0.827935	0.465692
H111	H	1.226437	-0.918898	0.451468
H112	H	1.226605	-0.450814	0.793781
H113	H	1.038134	-0.920841	0.280872
H114	H	1.042064	-0.793272	0.277617
H115	H	0.443916	-0.270854	0.271028
H116	H	0.443933	-0.442959	0.442553
N117	N	0.995722	-0.785207	0.386352
H118	H	1.020150	-0.751576	0.424564
H119	H	0.969415	-0.828292	0.411825
