data_functionalizedCrystal
_audit_creation_method	'MofGen! by Chris Wilmer'
_symmetry_space_group_name_H-M	'P1'
_symmetry_Int_Tables_number	1
_symmetry_cell_setting	triclinic
loop_
_symmetry_equiv_pos_as_xyz
  x,y,z
_cell_length_a	14.908742
_cell_length_b	14.908520
_cell_length_c	14.909125
_cell_angle_alpha	96.676586
_cell_angle_beta	90.115993
_cell_angle_gamma	89.837416
loop_
_atom_site_label
_atom_site_type_symbol
_atom_site_fract_x
_atom_site_fract_y
_atom_site_fract_z
Zn1	Zn	1.379148	-0.464486	-0.457100
Zn2	Zn	1.362541	-0.606404	-0.315393
Zn3	Zn	1.220911	-0.447341	-0.314426
Zn4	Zn	1.221039	-0.607163	-0.474424
O5	O	1.295909	-0.531349	-0.390335
O6	O	1.502386	-0.490169	-0.431457
O7	O	1.336750	-0.577811	-0.189000
O8	O	1.248798	-0.323336	-0.325697
O9	O	1.490185	-0.594436	-0.327345
O10	O	1.365054	-0.335933	-0.430519
O11	O	1.232695	-0.460948	-0.188289
O12	O	1.095486	-0.461685	-0.342495
O13	O	1.249016	-0.595730	-0.598390
O14	O	1.095580	-0.579105	-0.460045
O15	O	1.365178	-0.490906	-0.585663
O16	O	1.336873	-0.732784	-0.344144
O17	O	1.232912	-0.733342	-0.460983
C18	C	1.063007	-0.518618	-0.403046
C19	C	0.963371	-0.513194	-0.408506
C20	C	0.829285	-0.451371	-0.470496
C21	C	0.922903	-0.456460	-0.465370
C22	C	0.910213	-0.564846	-0.356766
C23	C	0.816595	-0.559758	-0.361892
C24	C	0.776135	-0.503018	-0.418758
C25	C	0.682515	-0.497925	-0.423879
C26	C	0.669827	-0.606316	-0.315280
C27	C	0.763445	-0.611404	-0.310154
C28	C	1.283130	-0.765808	-0.404566
C29	C	1.277746	-0.866117	-0.410680
C30	C	1.376008	-1.053978	-0.300590
C31	C	1.370953	-1.148227	-0.306332
C32	C	1.262586	-1.148867	-0.427908
C33	C	1.267641	-1.054618	-0.422166
C34	C	1.324353	-1.007176	-0.358505
C35	C	1.329403	-0.912925	-0.352760
C36	C	1.221042	-0.913567	-0.474340
C37	C	1.215986	-1.007816	-0.480081
C38	C	1.529721	-0.544130	-0.377576
C39	C	1.629357	-0.549577	-0.372139
C40	C	1.308963	-0.545315	-0.625681
C41	C	1.314526	-0.551267	-0.725971
C42	C	1.308764	-0.295976	-0.376067
C43	C	1.314242	-0.195675	-0.369987
C44	C	1.282961	-0.517374	-0.155899
C45	C	1.277586	-0.511178	-0.055584
C46	C	1.376704	-0.620443	0.132362
C47	C	1.371656	-0.614624	0.226616
C48	C	1.262438	-0.493726	0.227180
C49	C	1.267486	-0.499545	0.132926
C50	C	1.324622	-0.562905	0.085520
C51	C	1.329674	-0.568718	-0.008736
C52	C	1.220452	-0.447826	-0.008171
C53	C	1.215404	-0.442007	0.086084
H54	H	0.649574	-0.451720	-0.470178
Br55	Br	1.442338	-0.692719	0.290185
H56	H	1.413017	-1.186330	-0.259173
H57	H	0.626541	-0.648372	-0.273153
Br58	Br	0.965140	-0.641857	-0.279610
Br59	Br	1.185642	-1.213268	-0.514313
Br60	Br	1.454259	-0.706413	0.068023
Br61	Br	0.774370	-0.374355	-0.547653
H62	H	1.215913	-0.442150	0.265793
H63	H	1.375578	-0.874299	-0.300921
H64	H	1.169816	-1.046456	-0.531914
Br65	Br	1.137880	-0.356010	0.150430
Br66	Br	1.407220	-0.654700	-0.073071
H67	H	1.178046	-0.400970	-0.046319
H68	H	0.966176	-0.414404	-0.507500
H69	H	1.422179	-1.015350	-0.248748
H70	H	1.178978	-0.875450	-0.521495
H71	H	0.796401	-0.657602	-0.263858
