data_functionalizedCrystal
_audit_creation_method	'MofGen! by Chris Wilmer'
_symmetry_space_group_name_H-M	'P1'
_symmetry_Int_Tables_number	1
_symmetry_cell_setting	triclinic
loop_
_symmetry_equiv_pos_as_xyz
  x,y,z
_cell_length_a	8.559649
_cell_length_b	8.597304
_cell_length_c	16.776229
_cell_angle_alpha	82.293521
_cell_angle_beta	89.992402
_cell_angle_gamma	77.624625
loop_
_atom_site_label
_atom_site_type_symbol
_atom_site_fract_x
_atom_site_fract_y
_atom_site_fract_z
O1	O	2.119303	-0.053140	-0.062636
O2	O	1.655364	0.027761	-0.068193
O3	O	1.896461	-0.242258	-0.049646
O4	O	1.878205	0.216879	-0.081183
O5	O	1.896429	-0.242269	0.082931
O6	O	1.655331	0.027750	0.064384
O7	O	2.119270	-0.053151	0.069942
Zn8	Zn	1.887295	-0.012702	0.088212
Zn9	Zn	1.887339	-0.012688	-0.086464
O10	O	1.878173	0.216868	0.051395
C11	C	1.595913	0.033886	-0.002326
C12	C	1.418819	0.052136	-0.003579
C13	C	1.894483	-0.300499	0.020641
C14	C	1.888618	-0.474020	0.032554
C15	C	2.178721	-0.059276	0.004072
C16	C	2.355815	-0.077525	0.005321
C17	C	1.880151	0.275109	-0.018894
C18	C	1.886016	0.448630	-0.030813
N19	N	1.887278	-0.012714	0.207424
N20	N	1.887369	-0.012690	-0.205675
C21	C	1.994069	-0.132239	0.257351
C22	C	1.994078	-0.132241	0.340804
C23	C	1.887302	-0.012711	0.374327
C24	C	1.780499	0.106820	0.324394
C25	C	1.780483	0.106814	0.240944
C26	C	1.780557	0.106844	0.660939
C27	C	1.780584	0.106843	0.744396
C28	C	1.994152	-0.132212	0.760800
C29	C	1.994136	-0.132217	0.677349
C30	C	1.887328	-0.012692	0.627424
C31	C	1.887318	-0.012693	0.536935
C32	C	1.887319	-0.012703	0.464813
H33	H	1.337275	0.177105	-0.012171
H34	H	1.888270	-0.484844	-0.094183
H35	H	2.081026	-0.229568	0.230063
F36	F	2.107736	-0.259454	0.393940
F37	F	1.462403	-0.240883	0.016542
H38	H	1.693627	0.204183	0.771688
F39	F	2.107823	-0.259427	0.813941
H40	H	2.081089	-0.229545	0.650058
F41	F	1.885644	-0.560971	0.115390
F42	F	1.666890	0.234053	0.607811
F43	F	1.666850	0.234028	0.360073
F44	F	1.666816	0.234026	0.187809
