data_functionalizedCrystal
_audit_creation_method	'MofGen! by Chris Wilmer'
_symmetry_space_group_name_H-M	'P1'
_symmetry_Int_Tables_number	1
_symmetry_cell_setting	triclinic
loop_
_symmetry_equiv_pos_as_xyz
  x,y,z
_cell_length_a	12.759395
_cell_length_b	12.645330
_cell_length_c	12.759387
_cell_angle_alpha	90.029414
_cell_angle_beta	90.020509
_cell_angle_gamma	90.019229
loop_
_atom_site_label
_atom_site_type_symbol
_atom_site_fract_x
_atom_site_fract_y
_atom_site_fract_z
Zn1	Zn	1.606247	-0.421940	0.594015
Zn2	Zn	1.606128	-0.599242	0.418340
Zn3	Zn	1.430545	-0.421998	0.418352
Zn4	Zn	1.430528	-0.599167	0.593979
O5	O	1.518362	-0.510587	0.506172
O6	O	1.753252	-0.445467	0.570722
O7	O	1.582794	-0.575786	0.271320
O8	O	1.453909	-0.273643	0.441674
O9	O	1.753165	-0.575730	0.441654
O10	O	1.582996	-0.273600	0.570733
O11	O	1.453794	-0.445565	0.271329
O12	O	1.283522	-0.445492	0.441639
O13	O	1.453880	-0.575601	0.741005
O14	O	1.283509	-0.575657	0.570672
O15	O	1.582980	-0.445394	0.741032
O16	O	1.582778	-0.747579	0.441619
O17	O	1.453765	-0.747524	0.570660
C18	C	1.245395	-0.510574	0.506153
C19	C	1.128618	-0.510594	0.506171
C20	C	1.128644	-0.646354	0.640315
C21	C	1.073796	-0.714242	0.707390
C22	C	0.964074	-0.714255	0.707403
C23	C	0.909198	-0.646370	0.640335
C24	C	0.964046	-0.578482	0.573260
C25	C	1.073770	-0.578478	0.573253
C26	C	0.964020	-0.442718	0.439123
C27	C	1.073742	-0.442709	0.439103
C28	C	0.909144	-0.374833	0.372056
C29	C	0.963992	-0.306948	0.304974
C30	C	1.073720	-0.306939	0.304963
C31	C	1.128590	-0.374820	0.372028
C32	C	1.518285	-0.786016	0.506157
C33	C	1.518349	-0.903846	0.506186
C34	C	1.437522	-1.071420	0.587616
C35	C	1.437108	-0.948860	0.587354
C36	C	1.488373	-0.948450	0.395464
C37	C	1.487880	-1.071049	0.395958
C38	C	1.629646	-1.070930	0.534579
C39	C	1.628964	-0.948323	0.537001
C40	C	1.792395	-0.510600	0.506190
C41	C	1.909172	-0.510606	0.506198
C42	C	1.518441	-0.510483	0.780205
C43	C	1.518475	-0.510438	0.896982
C44	C	1.518468	-0.234081	0.506209
C45	C	1.518513	-0.116251	0.506225
C46	C	1.518344	-0.510614	0.233204
C47	C	1.518513	-0.510359	0.116428
C48	C	1.652916	-0.374862	0.897029
C49	C	1.720151	-0.307058	0.951914
C50	C	1.720176	-0.307019	1.061636
C51	C	1.652958	-0.374790	1.116475
C52	C	1.585723	-0.442594	1.061591
C53	C	1.585707	-0.442627	0.951867
C54	C	1.451278	-0.578163	1.061543
C55	C	1.451256	-0.578209	0.951822
C56	C	1.384059	-0.645934	1.116383
C57	C	1.316828	-0.713745	1.061498
C58	C	1.316806	-0.713781	0.951770
C59	C	1.384021	-0.646013	0.896937
H60	H	0.819803	-0.374843	0.372076
Br61	Br	1.652905	-0.374929	0.748120
H62	H	1.545493	-0.919295	0.333165
H63	H	0.819857	-0.646378	0.640361
H64	H	1.652975	-0.374743	1.205816
H65	H	1.384081	-0.645893	1.205724
H66	H	1.774877	-0.251879	0.907251
Br67	Br	1.225544	-0.805798	0.877293
H68	H	0.919417	-0.769531	0.762026
Br69	Br	0.889514	-0.214817	0.213975
H70	H	1.384014	-0.646041	0.807596
H71	H	1.118371	-0.251648	0.250350
Br72	Br	1.666647	-0.899730	0.672817
H73	H	1.262098	-0.768912	1.106157
Br74	Br	1.277553	-0.646360	0.640283
Br75	Br	1.148273	-0.806373	0.798400
H76	H	1.455863	-0.918699	0.669454
Br77	Br	1.277499	-0.374820	0.372012
Br78	Br	1.811403	-0.214979	1.136127
Br79	Br	1.468486	-1.120431	0.724909
Br80	Br	1.301062	-1.122956	0.556736
H81	H	1.656990	-1.101767	0.613945
Br82	Br	1.299785	-0.900130	0.556054
Br83	Br	1.352477	-1.118883	0.355922
H84	H	1.692484	-0.917676	0.482037
Br85	Br	1.581921	-1.120492	0.291432
Br86	Br	1.354378	-0.897445	0.354701
H87	H	1.689986	-1.099922	0.475299
