data_functionalizedCrystal
_audit_creation_method	'MofGen! by Chris Wilmer'
_symmetry_space_group_name_H-M	'P1'
_symmetry_Int_Tables_number	1
_symmetry_cell_setting	triclinic
loop_
_symmetry_equiv_pos_as_xyz
  x,y,z
_cell_length_a	14.971486
_cell_length_b	7.540329
_cell_length_c	14.971486
_cell_angle_alpha	89.996600
_cell_angle_beta	96.385871
_cell_angle_gamma	89.996650
loop_
_atom_site_label
_atom_site_type_symbol
_atom_site_fract_x
_atom_site_fract_y
_atom_site_fract_z
O1	O	1.186941	0.147279	-0.116561
O2	O	0.926541	0.147328	-0.130520
O3	O	1.063720	0.147290	0.006660
O4	O	1.049762	0.147317	-0.253741
O5	O	1.063716	-0.147675	0.006661
O6	O	0.926536	-0.147637	-0.130519
O7	O	1.186936	-0.147686	-0.116560
Cu8	Cu	1.056736	-0.174594	-0.123539
Cu9	Cu	1.056741	0.174236	-0.123541
O10	O	1.049757	-0.147648	-0.253740
C11	C	0.893214	-0.000149	-0.129895
C12	C	0.793917	-0.000131	-0.128024
N13	N	1.056738	-0.419943	-0.123538
C14	C	0.736692	-0.000124	-0.208614
C15	C	0.643392	-0.000151	-0.206850
C16	C	0.607320	-0.000171	-0.124497
C17	C	0.664552	-0.000183	-0.043902
C18	C	0.757850	-0.000169	-0.045666
C19	C	0.470090	-0.000207	-0.040231
C20	C	0.376786	-0.000218	-0.038466
C21	C	0.355632	-0.000190	-0.201415
C22	C	0.448930	-0.000176	-0.203179
C23	C	0.506156	-0.000184	-0.122584
C24	C	1.220263	-0.000205	-0.117185
C25	C	1.319561	-0.000212	-0.119056
C26	C	1.063094	-0.000192	0.039985
C27	C	1.061223	-0.000190	0.139282
N28	N	1.056746	0.419585	-0.123535
C29	C	1.050384	-0.000162	-0.287065
C30	C	1.052254	-0.000152	-0.386362
C31	C	1.141812	-0.000207	0.196507
C32	C	1.140049	-0.000188	0.289807
C33	C	1.057696	-0.000167	0.325879
C34	C	0.977101	-0.000145	0.268646
C35	C	0.978865	-0.000151	0.175349
C36	C	0.973430	-0.000138	0.463109
C37	C	0.971665	-0.000136	0.556413
C38	C	1.134614	-0.000176	0.577567
C39	C	1.136378	-0.000181	0.484269
C40	C	1.055782	-0.000163	0.427043
H41	H	0.766054	-0.000107	-0.275675
N42	N	1.221543	-0.000182	0.639286
H43	H	1.273980	-0.000210	0.602277
H44	H	1.224353	-0.109527	0.678461
H45	H	0.516682	-0.000217	0.025399
H46	H	0.347419	-0.000237	0.028593
H47	H	0.635175	-0.000224	0.023152
N48	N	0.581669	-0.000345	-0.293771
H49	H	0.618678	-0.000384	-0.346209
H50	H	0.542440	0.108929	-0.296655
N51	N	0.487840	-0.000120	-0.292000
H52	H	0.437432	-0.000115	-0.342790
H53	H	0.526100	-0.109455	-0.296286
N54	N	1.226973	-0.000221	0.351525
H55	H	1.229864	-0.109561	0.390712
H56	H	1.229829	0.109199	0.390642
N57	N	0.293916	-0.000175	-0.288346
H58	H	0.229338	-0.000194	-0.274736
H59	H	0.305613	-0.109507	-0.324237
H60	H	0.804443	-0.000173	0.019958
N61	N	1.230637	-0.000247	0.157604
H62	H	1.281422	-0.000252	0.208017
H63	H	1.234922	0.109095	0.119349
N64	N	0.888277	-0.000138	0.307551
H65	H	0.837491	-0.000127	0.257139
H66	H	0.883995	0.109207	0.345798
N67	N	0.882844	-0.000098	0.595323
H68	H	0.832054	-0.000070	0.544916
H69	H	0.878579	0.109254	0.633569
N70	N	0.886503	-0.000107	0.401383
H71	H	0.834064	-0.000098	0.438390
H72	H	0.883685	-0.109456	0.362217
N73	N	0.891944	-0.000122	0.113622
H74	H	0.839505	-0.000110	0.150629
H75	H	0.889122	-0.109467	0.074453
H76	H	1.203437	-0.000212	0.454903
