data_functionalizedCrystal
_audit_creation_method	'MofGen! by Chris Wilmer'
_symmetry_space_group_name_H-M	'P1'
_symmetry_Int_Tables_number	1
_symmetry_cell_setting	triclinic
loop_
_symmetry_equiv_pos_as_xyz
  x,y,z
_cell_length_a	8.559649
_cell_length_b	12.837942
_cell_length_c	7.681481
_cell_angle_alpha	83.650030
_cell_angle_beta	94.913240
_cell_angle_gamma	82.303802
loop_
_atom_site_label
_atom_site_type_symbol
_atom_site_fract_x
_atom_site_fract_y
_atom_site_fract_z
O1	O	2.101390	-0.023863	-0.146400
O2	O	1.644239	0.029032	-0.146410
O3	O	1.862678	-0.147512	-0.146394
O4	O	1.882950	0.152681	-0.146416
O5	O	1.889558	-0.169285	0.146465
O6	O	1.671118	0.007259	0.146450
O7	O	2.128269	-0.045636	0.146459
Zn8	Zn	1.903962	-0.022646	0.192952
Zn9	Zn	1.868546	0.006042	-0.192903
O10	O	1.909830	0.130908	0.146444
C11	C	1.598759	0.022154	0.000019
C12	C	1.423195	0.034086	0.000015
C13	C	1.869269	-0.196474	0.000034
C14	C	1.848843	-0.309925	0.000031
C15	C	2.094400	-0.570430	-0.000001
C16	C	2.075215	-0.677028	-0.000004
C17	C	1.791288	-0.629721	0.000008
C18	C	1.810473	-0.523122	0.000012
C19	C	1.962034	-0.493482	0.000010
C20	C	1.981219	-0.386882	0.000026
C21	C	1.697292	-0.339576	0.000025
C22	C	1.678107	-0.446174	0.000022
C23	C	2.173749	-0.038758	0.000027
C24	C	2.349311	-0.050689	0.000019
C25	C	1.903238	0.179870	0.000011
C26	C	1.923664	0.293322	0.000003
N27	N	1.928143	-0.042226	0.456288
N28	N	1.844376	0.025613	-0.456239
H29	H	1.352129	0.115800	0.000000
N30	N	1.443427	-0.158926	0.000050
H31	H	1.369185	-0.213803	0.000055
H32	H	1.502114	-0.159583	-0.108512
H33	H	1.758867	0.094856	0.468558
N34	N	2.217978	-0.760024	-0.000019
H35	H	2.316897	-0.725066	-0.000020
H36	H	2.226173	-0.813358	0.108547
N37	N	2.041440	-0.133945	0.555896
H38	H	2.038706	-0.131717	0.686633
H39	H	2.009062	-0.202751	0.523775
H40	H	2.217808	-0.546298	0.000015
N41	N	2.144683	-0.354911	0.000035
H42	H	2.193438	-0.375724	-0.108533
H43	H	2.136628	-0.275708	0.000113
N44	N	1.627828	-0.661699	-0.000009
H45	H	1.635767	-0.740905	-0.000020
H46	H	1.579154	-0.640821	0.108562
N47	N	1.514642	-0.478142	0.000029
H48	H	1.490375	-0.513237	-0.108535
H49	H	1.510436	-0.529354	0.108663
N50	N	1.554513	-0.256582	0.000046
H51	H	1.589660	-0.184553	0.000052
H52	H	1.479196	-0.256807	-0.108518
