data_functionalizedCrystal
_audit_creation_method	'MofGen! by Chris Wilmer'
_symmetry_space_group_name_H-M	'P1'
_symmetry_Int_Tables_number	1
_symmetry_cell_setting	triclinic
loop_
_symmetry_equiv_pos_as_xyz
  x,y,z
_cell_length_a	16.109302
_cell_length_b	8.559649
_cell_length_c	14.586319
_cell_angle_alpha	89.997976
_cell_angle_beta	89.994552
_cell_angle_gamma	76.620223
loop_
_atom_site_label
_atom_site_type_symbol
_atom_site_fract_x
_atom_site_fract_y
_atom_site_fract_z
O1	O	1.090045	0.205395	-0.076277
O2	O	1.590045	0.705395	0.423723
O3	O	0.846355	0.230954	-0.076269
O4	O	1.346355	0.730954	0.423731
O5	O	0.989669	-0.014439	-0.076272
O6	O	1.489669	0.485561	0.423728
O7	O	0.946730	0.450787	-0.076273
O8	O	1.446730	0.950787	0.423727
O9	O	0.989660	-0.014442	0.076208
O10	O	1.489660	0.485558	0.576208
O11	O	0.846346	0.230950	0.076212
O12	O	1.346346	0.730950	0.576212
O13	O	1.090036	0.205391	0.076204
O14	O	1.590036	0.705391	0.576204
Cu15	Cu	0.968190	0.218170	0.090131
Cu16	Cu	1.468190	0.718170	0.590131
Cu17	Cu	0.968201	0.218175	-0.090195
Cu18	Cu	1.468201	0.718175	0.409805
O19	O	0.946722	0.450784	0.076208
O20	O	1.446722	0.950784	0.576208
C21	C	0.815441	0.229917	-0.000027
C22	C	1.315441	0.729917	0.499973
C23	C	0.723344	0.226812	-0.000025
C24	C	1.223344	0.726812	0.499975
C25	C	0.992919	-0.073972	-0.000034
C26	C	1.492919	0.426028	0.499966
C27	C	1.002605	-0.251357	-0.000039
C28	C	1.502605	0.248643	0.499961
C29	C	0.511456	0.219631	0.083084
C30	C	1.011456	0.719631	0.583084
C31	C	0.424923	0.216697	0.083080
C32	C	0.924923	0.716697	0.583080
C33	C	0.424942	0.216709	-0.083163
C34	C	0.924942	0.716709	0.416837
C35	C	0.511475	0.219632	-0.083158
C36	C	1.011475	0.719632	0.416842
C37	C	0.554728	0.221101	-0.000033
C38	C	1.054728	0.721101	0.499967
C39	C	0.381662	0.215244	-0.000040
C40	C	0.881662	0.715244	0.499960
C41	C	0.287839	0.212063	-0.000044
C42	C	0.787839	0.712063	0.499956
C43	C	0.648558	0.224280	-0.000028
C44	C	1.148558	0.724280	0.499972
C45	C	1.120949	0.206428	-0.000039
C46	C	1.620949	0.706428	0.499961
C47	C	1.213047	0.209533	-0.000048
C48	C	1.713047	0.709533	0.499952
C49	C	0.943472	0.510317	-0.000033
C50	C	1.443472	1.010317	0.499967
C51	C	0.933786	0.687702	-0.000033
C52	C	1.433786	1.187702	0.499967
N53	N	0.968189	0.218166	0.216963
N54	N	1.468189	0.718166	0.716963
N55	N	0.968209	0.218166	-0.217027
N56	N	1.468209	0.718166	0.282973
C57	C	1.031665	0.109543	0.451967
C58	C	1.531665	0.609543	0.951967
C59	C	1.031668	0.109539	0.547949
C60	C	1.531668	0.609539	1.047949
C61	C	0.904727	0.326795	0.547961
C62	C	1.404727	0.826795	1.047961
C63	C	0.904721	0.326790	0.451982
C64	C	1.404721	0.826790	0.951982
C65	C	0.968195	0.218166	0.403987
C66	C	1.468195	0.718166	0.903987
C67	C	0.968203	0.218167	0.595948
C68	C	1.468203	0.718167	1.095948
C69	C	0.968206	0.218163	0.700015
C70	C	1.468206	0.718163	1.200015
C71	C	0.968192	0.218166	0.299914
C72	C	1.468192	0.718166	0.799914
H73	H	0.546670	0.220827	0.150770
H74	H	1.046670	0.720827	0.650770
Br75	Br	1.117806	-0.037891	0.613063
Br76	Br	1.617806	0.462109	1.113063
Br77	Br	1.113167	-0.390583	-0.000026
Br78	Br	1.613167	0.109417	0.499974
H79	H	0.867457	-0.228767	-0.000028
H80	H	1.367457	0.271233	0.499972
Br81	Br	0.366242	0.214667	-0.195971
Br82	Br	0.866242	0.714667	0.304029
Br83	Br	0.818572	0.474204	0.386858
Br84	Br	1.318572	0.974204	0.886858
Br85	Br	0.570211	0.221607	-0.195967
Br86	Br	1.070211	0.721607	0.304033
Br87	Br	0.366198	0.214700	0.195886
Br88	Br	0.866198	0.714700	0.695886
H89	H	0.853049	0.415236	0.587048
H90	H	1.353049	0.915236	1.087048
H91	H	1.083349	0.021092	0.412893
H92	H	1.583349	0.521092	0.912893
