data_functionalizedCrystal
_audit_creation_method	'MofGen! by Chris Wilmer'
_symmetry_space_group_name_H-M	'P1'
_symmetry_Int_Tables_number	1
_symmetry_cell_setting	triclinic
loop_
_symmetry_equiv_pos_as_xyz
  x,y,z
_cell_length_a	12.759401
_cell_length_b	15.299816
_cell_length_c	12.759393
_cell_angle_alpha	80.349878
_cell_angle_beta	90.019684
_cell_angle_gamma	80.349644
loop_
_atom_site_label
_atom_site_type_symbol
_atom_site_fract_x
_atom_site_fract_y
_atom_site_fract_z
Zn1	Zn	1.678549	-0.359024	0.666436
Zn2	Zn	1.708818	-0.509867	0.521184
Zn3	Zn	1.502860	-0.359068	0.490781
Zn4	Zn	1.533199	-0.509795	0.696807
O5	O	1.605856	-0.434439	0.593802
O6	O	1.829588	-0.379045	0.647182
O7	O	1.681467	-0.489912	0.370140
O8	O	1.500801	-0.232854	0.488648
O9	O	1.851826	-0.489869	0.540466
O10	O	1.629879	-0.232821	0.617701
O11	O	1.530151	-0.379121	0.347803
O12	O	1.359861	-0.379051	0.518097
O13	O	1.552510	-0.489746	0.839790
O14	O	1.382151	-0.489789	0.669464
O15	O	1.659298	-0.378975	0.817476
O16	O	1.710886	-0.636066	0.569915
O17	O	1.581860	-0.636013	0.698945
C18	C	1.332885	-0.434418	0.593778
C19	C	1.216111	-0.434431	0.593797
C20	C	1.149596	-0.376693	0.515089
C21	C	1.039876	-0.376714	0.515106
C22	C	1.063196	-0.492213	0.672550
C23	C	1.172915	-0.492196	0.672527
C24	C	1.136131	-0.310008	0.424192
C25	C	1.026412	-0.310029	0.424210
C26	C	1.652978	-0.668764	0.641048
C27	C	1.673233	-0.769010	0.661295
C28	C	1.461780	-1.051952	0.449450
C29	C	1.442744	-0.957766	0.430430
C30	C	1.500365	-0.910572	0.488144
C31	C	1.577024	-0.957573	0.564883
C32	C	1.596056	-1.051768	0.583911
C33	C	1.634641	-0.910389	0.622605
C34	C	1.711301	-0.957390	0.699344
C35	C	1.730330	-1.051575	0.718368
C36	C	1.672709	-1.098769	0.660654
C37	C	1.615609	-0.816194	0.603577
C38	C	1.749886	-0.816011	0.738037
C39	C	1.768922	-0.910196	0.757058
C40	C	1.879894	-0.434460	0.593827
C41	C	1.996673	-0.434469	0.593838
C42	C	1.605912	-0.434348	0.867817
C43	C	1.605935	-0.434309	0.984586
C44	C	1.558579	-0.199198	0.546395
C45	C	1.538433	-0.098953	0.526193
C46	C	1.605849	-0.434464	0.320840
C47	C	1.605978	-0.434249	0.204020
C48	C	1.661548	-0.376625	1.027830
C49	C	1.661566	-0.376592	1.137548
C50	C	1.550358	-0.491936	1.160769
C51	C	1.550334	-0.491963	1.051053
C52	C	1.725757	-0.310035	1.014425
C53	C	1.725775	-0.310002	1.124142
H54	H	0.997363	-0.334973	0.351898
F55	F	1.491127	-0.553345	1.005031
F56	F	1.811213	-0.765789	0.799467
H57	H	1.380327	-0.919501	0.367951
H58	H	1.808071	-0.335075	0.985441
F59	F	1.837054	-0.334445	1.168003
H60	H	1.688208	-1.175463	0.676132
F61	F	1.491186	-0.553291	1.231516
H62	H	1.553192	-0.777934	0.541095
H63	H	1.156828	-0.243682	0.440090
H64	H	1.227070	-0.539220	0.736611
H65	H	1.683298	-0.243637	1.144802
F66	F	1.850506	-0.960229	0.838728
H67	H	1.028012	-0.539244	0.736650
F68	F	1.678921	-0.218743	0.957110
F69	F	0.969126	-0.218766	0.434476
H70	H	1.169613	-0.328626	0.346534
H71	H	1.792747	-1.089841	0.780858
H72	H	1.484862	-0.833882	0.472652
H73	H	1.414868	-1.090385	0.402473
