data_functionalizedCrystal
_audit_creation_method	'MofGen! by Chris Wilmer'
_symmetry_space_group_name_H-M	'P1'
_symmetry_Int_Tables_number	1
_symmetry_cell_setting	triclinic
loop_
_symmetry_equiv_pos_as_xyz
  x,y,z
_cell_length_a	12.811438
_cell_length_b	12.837942
_cell_length_c	15.186229
_cell_angle_alpha	89.996774
_cell_angle_beta	84.565184
_cell_angle_gamma	89.411773
loop_
_atom_site_label
_atom_site_type_symbol
_atom_site_fract_x
_atom_site_fract_y
_atom_site_fract_z
O1	O	1.406645	0.139685	-0.185553
O2	O	1.102580	0.154873	-0.161274
O3	O	1.247870	-0.003653	-0.172870
O4	O	1.261355	0.298211	-0.173958
O5	O	1.247859	-0.003655	-0.026412
O6	O	1.102569	0.154871	-0.014816
O7	O	1.406634	0.139683	-0.039095
Zn8	Zn	1.254600	0.147277	-0.003702
Zn9	Zn	1.254614	0.147280	-0.196667
O10	O	1.261344	0.298209	-0.027499
C11	C	1.063385	0.154021	-0.084916
C12	C	0.946612	0.151472	-0.075592
C13	C	0.782020	0.147879	0.017379
C14	C	0.891739	0.150274	0.008622
C15	C	0.891759	0.150278	-0.151055
C16	C	0.782041	0.147882	-0.142298
C17	C	0.727175	0.146681	-0.058078
C18	C	0.617455	0.144278	-0.049322
C19	C	0.617477	0.144289	-0.208999
C20	C	0.727195	0.146685	-0.217756
C21	C	1.243309	-0.042294	-0.099278
C22	C	1.229723	-0.157430	-0.098194
C23	C	1.393053	-0.397684	-0.111254
C24	C	1.380293	-0.505864	-0.110237
C25	C	1.191443	-0.481974	-0.095148
C26	C	1.204203	-0.373794	-0.096166
C27	C	1.305012	-0.331652	-0.104218
C28	C	1.317771	-0.223469	-0.105229
C29	C	1.128922	-0.199582	-0.090147
C30	C	1.116162	-0.307762	-0.089129
C31	C	1.445829	0.140535	-0.115455
C32	C	1.562602	0.143084	-0.124785
C33	C	1.265905	0.336850	-0.101094
C34	C	1.279491	0.451986	-0.102183
N35	N	1.254597	0.147274	0.127991
N36	N	1.254624	0.147274	-0.328361
C37	C	1.318959	0.077102	0.348577
C38	C	1.318962	0.077100	0.440766
C39	C	1.190255	0.217449	0.451047
C40	C	1.190248	0.217446	0.358860
C41	C	1.254605	0.147273	0.307627
C42	C	1.254616	0.147274	0.492003
C43	C	1.254619	0.147272	0.591959
C44	C	1.254601	0.147274	0.207664
H45	H	0.936389	0.151253	0.070068
Cl46	Cl	1.399861	-0.011118	0.284173
Cl47	Cl	1.109357	0.305665	0.515458
H48	H	1.399854	-0.189160	-0.111782
Cl49	Cl	1.399864	-0.011121	0.492244
Cl50	Cl	1.109334	0.305663	0.307375
H51	H	1.475135	-0.363372	-0.117802
Cl52	Cl	0.713043	0.146346	0.123252
Cl53	Cl	1.018235	-0.116564	-0.081289
Cl54	Cl	0.548482	0.142763	0.056553
H55	H	0.936449	0.151265	-0.219623
Cl56	Cl	0.796179	0.148191	-0.323626
H57	H	1.451986	-0.559624	-0.115969
Cl58	Cl	0.548521	0.142818	-0.303865
Cl59	Cl	0.989438	-0.360751	-0.079015
Cl60	Cl	1.064723	-0.534971	-0.085053
