data_functionalizedCrystal
_audit_creation_method	'MofGen! by Chris Wilmer'
_symmetry_space_group_name_H-M	'P1'
_symmetry_Int_Tables_number	1
_symmetry_cell_setting	triclinic
loop_
_symmetry_equiv_pos_as_xyz
  x,y,z
_cell_length_a	16.625548
_cell_length_b	17.077402
_cell_length_c	17.077396
_cell_angle_alpha	90.029784
_cell_angle_beta	89.980422
_cell_angle_gamma	89.976049
loop_
_atom_site_label
_atom_site_type_symbol
_atom_site_fract_x
_atom_site_fract_y
_atom_site_fract_z
Zn1	Zn	1.232670	0.312486	-0.443837
Zn2	Zn	1.232575	0.443761	-0.312568
Zn3	Zn	1.097834	0.312515	-0.312585
Zn4	Zn	1.097802	0.443716	-0.443792
O5	O	1.165220	0.378119	-0.378196
O6	O	1.345490	0.329906	-0.426436
O7	O	1.214675	0.426382	-0.202723
O8	O	1.115774	0.202664	-0.330022
O9	O	1.345420	0.426353	-0.329993
O10	O	1.214838	0.202643	-0.426452
O11	O	1.115682	0.329956	-0.202736
O12	O	0.984998	0.329913	-0.329978
O13	O	1.115718	0.426277	-0.553645
O14	O	0.984973	0.426306	-0.426375
O15	O	1.214806	0.329863	-0.553678
O16	O	1.214643	0.553602	-0.329949
O17	O	1.115626	0.553569	-0.426358
C18	C	0.955729	0.378108	-0.378174
C19	C	0.866108	0.378122	-0.378183
C20	C	1.165142	0.582067	-0.378164
C21	C	1.165183	0.669317	-0.378177
C22	C	1.165269	0.378062	-0.582940
C23	C	1.165290	0.378037	-0.670190
C24	C	0.537933	0.378127	-0.378216
C25	C	0.629241	0.378124	-0.378205
C26	C	0.702018	0.378125	-0.378199
C27	C	0.793332	0.378121	-0.378188
C28	C	1.375529	0.378131	-0.378218
C29	C	1.465150	0.378136	-0.378228
C30	C	1.165320	0.173375	-0.378244
C31	C	1.165363	0.086125	-0.378265
C32	C	1.216794	0.710298	-0.328031
C33	C	1.216833	0.792279	-0.328051
C34	C	1.165257	0.833276	-0.378214
C35	C	1.113644	0.792290	-0.428366
C36	C	1.113609	0.710311	-0.428349
C37	C	1.113719	0.963160	-0.428395
C38	C	1.113752	1.045144	-0.428411
C39	C	1.216943	1.045128	-0.328097
C40	C	1.216908	0.963149	-0.328080
C41	C	1.165293	0.922167	-0.378232
C42	C	1.216887	0.327830	-0.711199
C43	C	1.216896	0.327804	-0.793179
C44	C	1.165313	0.377989	-0.834149
C45	C	1.113710	0.428199	-0.793135
C46	C	1.113697	0.428220	-0.711156
C47	C	1.113743	0.428151	-0.964005
C48	C	1.113757	0.428131	-1.045989
C49	C	1.216942	0.327735	-1.046028
C50	C	1.216929	0.327757	-0.964049
C51	C	1.165327	0.377967	-0.923040
C52	C	1.165218	0.378120	-0.174248
C53	C	1.165353	0.377924	-0.086998
H54	H	1.258790	0.676923	-0.287179
H55	H	1.071653	0.825676	-0.469213
C56	C	1.056933	0.918082	-0.483558
N57	N	1.014157	0.884130	-0.525100
C58	C	1.056981	0.483389	-0.918897
N59	N	1.014233	0.524996	-0.884922
H60	H	1.071769	1.078522	-0.469273
C61	C	1.057007	0.483333	-1.091055
N62	N	1.014262	0.524910	-1.124998
H63	H	1.071707	0.469058	-0.826499
H64	H	1.258860	0.825642	-0.287216
C65	C	1.056833	0.665232	-0.483514
N66	N	1.014070	0.631279	-0.525069
H67	H	1.258894	0.286965	-0.677847
C68	C	1.273658	0.272573	-0.838285
N69	N	1.316414	0.230971	-0.872259
H70	H	1.071674	0.469096	-0.677767
H71	H	1.258956	0.286850	-1.079422
H72	H	1.258901	0.929768	-0.287230
H73	H	1.258972	1.078498	-0.287265
H74	H	1.258937	0.286895	-0.930694
