data_functionalizedCrystal
_audit_creation_method	'MofGen! by Chris Wilmer'
_symmetry_space_group_name_H-M	'P1'
_symmetry_Int_Tables_number	1
_symmetry_cell_setting	triclinic
loop_
_symmetry_equiv_pos_as_xyz
  x,y,z
_cell_length_a	14.853567
_cell_length_b	11.792241
_cell_length_c	10.268362
_cell_angle_alpha	89.994782
_cell_angle_beta	89.997710
_cell_angle_gamma	83.914173
loop_
_atom_site_label
_atom_site_type_symbol
_atom_site_fract_x
_atom_site_fract_y
_atom_site_fract_z
O1	O	1.196943	0.148182	-0.108211
O2	O	0.934552	0.165834	-0.108233
O3	O	1.072115	-0.008201	-0.108212
O4	O	1.059380	0.322218	-0.108232
O5	O	1.072101	-0.008208	0.108388
O6	O	0.934538	0.165828	0.108367
O7	O	1.196929	0.148176	0.108390
Cu8	Cu	1.065732	0.157002	0.128156
Cu9	Cu	1.065749	0.157009	-0.127999
O10	O	1.059366	0.322212	0.108369
C11	C	0.900953	0.165032	0.000064
C12	C	0.800860	0.162635	0.000056
C13	C	0.387884	0.049122	0.000092
C14	C	0.367408	0.255880	0.000078
C15	C	0.461451	0.258134	0.000074
C16	C	0.518715	0.155880	0.000077
C17	C	0.481936	0.051372	0.000083
C18	C	0.498237	0.362640	0.000054
C19	C	0.592285	0.364898	0.000048
C20	C	0.649550	0.262642	0.000060
C21	C	0.612766	0.158131	0.000068
C22	C	0.670030	0.055877	0.000071
C23	C	0.633248	-0.048637	0.000089
C24	C	0.539201	-0.050883	0.000095
C25	C	0.743596	0.264889	0.000053
C26	C	0.764081	0.058127	0.000063
C27	C	1.071308	-0.050491	0.000087
C28	C	1.068913	-0.176489	0.000086
C29	C	1.064511	-0.407174	0.000064
C30	C	1.066957	-0.278804	0.000076
C31	C	1.230527	0.148979	0.000089
C32	C	1.330621	0.151376	0.000089
C33	C	1.060173	0.364501	0.000066
C34	C	1.062567	0.490500	0.000059
N35	N	1.065727	0.156996	0.308322
C36	C	1.065738	0.157010	0.573992
C37	C	1.065729	0.157005	0.426154
N38	N	1.065752	0.157010	0.691835
H39	H	0.622224	0.449998	0.000034
C40	C	0.435244	0.475109	0.000049
C41	C	0.367763	0.501982	-0.112415
C42	C	0.304763	0.614455	-0.112417
C43	C	0.309244	0.700055	0.000046
C44	C	0.376727	0.673184	0.112519
C45	C	0.439727	0.560711	0.112520
H46	H	0.364444	0.438614	-0.195674
H47	H	0.254807	0.634346	-0.195678
H48	H	0.262607	0.783314	0.000044
H49	H	0.380047	0.736552	0.195778
H50	H	0.489683	0.540820	0.195781
H51	H	0.773540	0.349982	0.000041
C52	C	0.696244	-0.161113	0.000089
C53	C	0.763724	-0.187989	0.112553
C54	C	0.826724	-0.300462	0.112552
C55	C	0.822244	-0.386059	0.000086
C56	C	0.754761	-0.359185	-0.112387
C57	C	0.691761	-0.246712	-0.112386
H58	H	0.767043	-0.124624	0.195815
H59	H	0.876679	-0.320355	0.195812
H60	H	0.868881	-0.469318	0.000084
H61	H	0.751442	-0.422550	-0.195649
H62	H	0.641806	-0.226819	-0.195647
C63	C	0.304419	0.368353	0.000073
C64	C	0.236948	0.395238	-0.112400
C65	C	0.173953	0.507715	-0.112402
C66	C	0.178430	0.593308	0.000069
C67	C	0.245905	0.566425	0.112550
C68	C	0.308899	0.453948	0.112553
H69	H	0.233631	0.331875	-0.195665
H70	H	0.124004	0.527615	-0.195669
H71	H	0.131798	0.676570	0.000067
H72	H	0.249221	0.629788	0.195816
H73	H	0.358848	0.434048	0.195819
H74	H	0.509244	-0.135972	0.000141
H75	H	0.810700	-0.025142	0.000070
H76	H	0.357932	-0.035970	0.000111
