data_functionalizedCrystal
_audit_creation_method	'MofGen! by Chris Wilmer'
_symmetry_space_group_name_H-M	'P1'
_symmetry_Int_Tables_number	1
_symmetry_cell_setting	triclinic
loop_
_symmetry_equiv_pos_as_xyz
  x,y,z
_cell_length_a	14.908506
_cell_length_b	18.215407
_cell_length_c	18.215399
_cell_angle_alpha	90.017368
_cell_angle_beta	86.729363
_cell_angle_gamma	93.317222
loop_
_atom_site_label
_atom_site_type_symbol
_atom_site_fract_x
_atom_site_fract_y
_atom_site_fract_z
Zn1	Zn	-0.359230	1.108178	0.432979
Zn2	Zn	-0.510099	1.100992	0.317016
Zn3	Zn	-0.359252	0.985110	0.309933
Zn4	Zn	-0.510041	0.977985	0.440043
O5	O	-0.434655	1.043066	0.374993
O6	O	-0.379258	1.210209	0.417605
O7	O	-0.490122	1.085594	0.213094
O8	O	-0.233004	1.007425	0.320335
O9	O	-0.490101	1.204929	0.332407
O10	O	-0.232988	1.097843	0.410737
O11	O	-0.379295	1.000456	0.207890
O12	O	-0.379239	0.881181	0.327185
O13	O	-0.490002	0.995281	0.542089
O14	O	-0.490023	0.875946	0.422776
O15	O	-0.379202	1.090934	0.536899
O16	O	-0.636336	1.078685	0.339256
O17	O	-0.636293	0.988312	0.429644
C18	C	-0.434628	0.851861	0.374979
C19	C	-0.434638	0.770062	0.374991
C20	C	-0.377041	0.584611	0.419434
C21	C	-0.377048	0.507751	0.419437
C22	C	-0.492296	0.502273	0.330566
C23	C	-0.492283	0.579131	0.330560
C24	C	-0.434656	0.620298	0.374998
C25	C	-0.434677	0.466580	0.375007
C26	C	-0.434686	0.383246	0.375010
C27	C	-0.434646	0.703637	0.374994
C28	C	-0.669049	1.031966	0.386001
C29	C	-0.769323	1.027284	0.390735
C30	C	-0.910666	0.973597	0.444423
C31	C	-0.816449	0.977994	0.439980
C32	C	-0.816421	1.072182	0.345931
C33	C	-0.910637	1.067785	0.350374
C34	C	-0.957756	1.018490	0.399621
C35	C	-1.051975	1.014090	0.404059
C36	C	-1.051945	1.108281	0.310014
C37	C	-0.957728	1.112678	0.305572
C38	C	-0.199347	1.054230	0.363958
C39	C	-0.099072	1.058988	0.359255
C40	C	-0.434593	1.043114	0.566943
C41	C	-0.434567	1.043134	0.648741
C42	C	-0.434684	1.235018	0.375008
C43	C	-0.434696	1.316816	0.375014
C44	C	-0.434652	1.043064	0.183787
C45	C	-0.434425	1.043198	0.101977
C46	C	-0.376819	1.092960	0.834231
C47	C	-0.376793	1.092970	0.911089
C48	C	-0.492175	0.993367	0.916482
C49	C	-0.492196	0.993354	0.839625
C50	C	-0.434519	1.043155	0.798502
C51	C	-0.434472	1.043178	0.952216
C52	C	-0.434444	1.043188	1.035548
C53	C	-0.434546	1.043144	0.715164
H54	H	-1.090338	0.973953	0.444161
H55	H	-1.090296	1.144836	0.273533
H56	H	-0.778044	1.112322	0.305841
H57	H	-0.539214	0.468745	0.294387
Cl58	Cl	-0.304592	0.636361	0.475295
Cl59	Cl	-0.304260	1.155592	0.956002
Cl60	Cl	-0.304612	0.462891	0.475300
H61	H	-0.949031	0.933460	0.484523
Cl62	Cl	-0.564734	0.930732	0.794705
H63	H	-0.329853	1.133509	0.800750
H64	H	-0.778110	0.941439	0.476463
Cl65	Cl	-0.564711	0.623998	0.274685
H66	H	-0.919353	1.152815	0.265478
H67	H	-0.539135	0.952823	0.949974
