data_functionalizedCrystal
_audit_creation_method	'MofGen! by Chris Wilmer'
_symmetry_space_group_name_H-M	'P1'
_symmetry_Int_Tables_number	1
_symmetry_cell_setting	triclinic
loop_
_symmetry_equiv_pos_as_xyz
  x,y,z
_cell_length_a	12.759401
_cell_length_b	16.959454
_cell_length_c	12.759393
_cell_angle_alpha	90.029921
_cell_angle_beta	90.018705
_cell_angle_gamma	90.020236
loop_
_atom_site_label
_atom_site_type_symbol
_atom_site_fract_x
_atom_site_fract_y
_atom_site_fract_z
Zn1	Zn	1.606218	-0.314638	0.593988
Zn2	Zn	1.606096	-0.446838	0.418310
Zn3	Zn	1.430520	-0.314677	0.418327
Zn4	Zn	1.430492	-0.446778	0.593952
O5	O	1.518331	-0.380733	0.506144
O6	O	1.753223	-0.332182	0.570692
O7	O	1.582765	-0.429347	0.271291
O8	O	1.453889	-0.204061	0.441651
O9	O	1.753133	-0.429309	0.441622
O10	O	1.582974	-0.204032	0.570708
O11	O	1.453770	-0.332250	0.271304
O12	O	1.283495	-0.332193	0.441616
O13	O	1.453843	-0.429208	0.740978
O14	O	1.283475	-0.429247	0.570647
O15	O	1.582948	-0.332125	0.741004
O16	O	1.582739	-0.557441	0.441588
O17	O	1.453724	-0.557397	0.570631
C18	C	1.245364	-0.380718	0.506130
C19	C	1.128587	-0.380731	0.506149
C20	C	1.073743	-0.431348	0.573224
C21	C	0.964018	-0.431358	0.573235
C22	C	0.963994	-0.330132	0.439087
C23	C	1.073716	-0.330118	0.439082
C24	C	1.128614	-0.481961	0.640291
C25	C	1.073769	-0.532582	0.707370
C26	C	0.964045	-0.532592	0.707382
C27	C	0.909166	-0.481981	0.640313
C28	C	1.518243	-0.586099	0.506126
C29	C	1.518302	-0.673956	0.506154
C30	C	1.451251	-1.045439	0.573330
C31	C	1.585705	-1.045424	0.439066
C32	C	1.585668	-0.962878	0.439056
C33	C	1.518421	-0.921609	0.506183
C34	C	1.451210	-0.962885	0.573320
C35	C	1.652870	-0.921595	0.371913
C36	C	1.652835	-0.839044	0.371900
C37	C	1.585592	-0.797773	0.439033
C38	C	1.518380	-0.839055	0.506173
C39	C	1.451132	-0.797786	0.573300
C40	C	1.383924	-0.839066	0.640447
C41	C	1.383967	-0.921614	0.640453
C42	C	1.585549	-0.715225	0.439027
C43	C	1.451091	-0.715232	0.573291
C44	C	1.792365	-0.380748	0.506159
C45	C	1.909141	-0.380754	0.506165
C46	C	1.518406	-0.380656	0.780178
C47	C	1.518438	-0.380623	0.896954
C48	C	1.518448	-0.174565	0.506185
C49	C	1.518498	-0.086708	0.506203
C50	C	1.518318	-0.380752	0.233177
C51	C	1.518489	-0.380562	0.116401
C52	C	1.451314	-0.330026	1.061547
C53	C	1.451291	-0.330054	0.951823
C54	C	1.585620	-0.431161	0.951816
C55	C	1.585648	-0.431129	1.061538
C56	C	1.384155	-0.279460	1.116410
C57	C	1.316974	-0.228920	1.061556
C58	C	1.316951	-0.228949	0.951832
C59	C	1.384108	-0.279516	0.896962
H60	H	0.919303	-0.288927	0.384483
C61	C	0.903718	-0.588266	0.781173
H62	H	0.952115	-0.618407	0.821108
H63	H	0.860944	-0.558075	0.827023
H64	H	0.860888	-0.622678	0.740904
H65	H	0.819821	-0.481986	0.640337
H66	H	1.118372	-0.288896	0.384471
C67	C	1.243062	-0.173357	0.891491
H68	H	1.252669	-0.180611	0.818286
H69	H	1.172470	-0.184918	0.909464
H70	H	1.258477	-0.120242	0.909487
H71	H	1.262303	-0.187745	1.106239
C72	C	1.309957	-0.793668	0.714286
H73	H	1.269933	-0.830071	0.754275
H74	H	1.350111	-0.761418	0.760085
H75	H	1.264181	-0.761513	0.674044
C76	C	1.384077	-0.279550	0.776268
H77	H	1.334446	-0.242213	0.751455
H78	H	1.451875	-0.265895	0.751447
H79	H	1.365864	-0.330568	0.751443
H80	H	1.217957	-0.481960	0.640287
C81	C	1.310036	-0.967023	0.714294
H82	H	1.319683	-1.022096	0.704673
H83	H	1.325358	-0.953460	0.784900
H84	H	1.239445	-0.953537	0.698842
C85	C	1.659476	-0.486787	0.891461
H86	H	1.649830	-0.479574	0.818258
H87	H	1.730080	-0.475223	0.909445
H88	H	1.644064	-0.539892	0.909434
C89	C	1.377119	-0.669842	0.647133
H90	H	1.337098	-0.706251	0.687116
H91	H	1.417267	-0.637594	0.692938
H92	H	1.331340	-0.637687	0.606895
C93	C	1.659544	-0.486713	1.121881
H94	H	1.699529	-0.516840	1.073493
H95	H	1.705343	-0.456460	1.164688
H96	H	1.619346	-0.521143	1.164677
C97	C	1.726769	-0.793643	0.298053
H98	H	1.766829	-0.830046	0.258083
H99	H	1.686596	-0.761479	0.252238
H100	H	1.772513	-0.761404	0.338291
C101	C	1.659676	-1.090817	0.365238
H102	H	1.650079	-1.145893	0.374865
H103	H	1.644343	-1.077331	0.294630
H104	H	1.730253	-1.077244	0.380690
C105	C	1.726848	-0.966991	0.298095
H106	H	1.717259	-1.022065	0.307732
H107	H	1.711518	-0.953514	0.227483
H108	H	1.797423	-0.953410	0.313548
H109	H	1.118459	-0.573784	0.761982
H110	H	1.396535	-1.079052	0.628001
H111	H	1.640264	-0.681619	0.384352
H112	H	1.384166	-0.279433	1.205753
