data_functionalizedCrystal
_audit_creation_method	'MofGen! by Chris Wilmer'
_symmetry_space_group_name_H-M	'P1'
_symmetry_Int_Tables_number	1
_symmetry_cell_setting	triclinic
loop_
_symmetry_equiv_pos_as_xyz
  x,y,z
_cell_length_a	18.215407
_cell_length_b	21.295417
_cell_length_c	18.215399
_cell_angle_alpha	89.968895
_cell_angle_beta	89.982632
_cell_angle_gamma	90.027146
loop_
_atom_site_label
_atom_site_type_symbol
_atom_site_fract_x
_atom_site_fract_y
_atom_site_fract_z
Zn1	Zn	1.125047	-0.250659	-0.416051
Zn2	Zn	1.124945	-0.355930	-0.292978
Zn3	Zn	1.001980	-0.250674	-0.293004
Zn4	Zn	1.001935	-0.355889	-0.416008
O5	O	1.063477	-0.303288	-0.354510
O6	O	1.228018	-0.264634	-0.399733
O7	O	1.108610	-0.341991	-0.189997
O8	O	1.018366	-0.162582	-0.309355
O9	O	1.227943	-0.341976	-0.309311
O10	O	1.108783	-0.162571	-0.399758
O11	O	1.018267	-0.264659	-0.190016
O12	O	0.898990	-0.264620	-0.309314
O13	O	1.018290	-0.341907	-0.518998
O14	O	0.898957	-0.341921	-0.399684
O15	O	1.108740	-0.264594	-0.519030
O16	O	1.108567	-0.444014	-0.309270
O17	O	1.018192	-0.443984	-0.399660
C18	C	0.872271	-0.303268	-0.354498
C19	C	0.790472	-0.303275	-0.354510
C20	C	0.602316	-0.263086	-0.401666
C21	C	0.525457	-0.263092	-0.401669
C22	C	0.525390	-0.343507	-0.307368
C23	C	0.602247	-0.343498	-0.307362
C24	C	0.640708	-0.303289	-0.354515
C25	C	0.486992	-0.303303	-0.354524
C26	C	0.403659	-0.303309	-0.354526
C27	C	0.724047	-0.303281	-0.354512
C28	C	1.063383	-0.466839	-0.354473
C29	C	1.063410	-0.536808	-0.354482
C30	C	1.110464	-0.569611	-0.401588
C31	C	1.110490	-0.635354	-0.401606
C32	C	1.063470	-0.668290	-0.354505
C33	C	1.016408	-0.635478	-0.307396
C34	C	1.016378	-0.569737	-0.307384
N35	N	1.057911	-0.771552	-0.290099
N36	N	1.057944	-0.834004	-0.290112
C37	C	1.063556	-0.866365	-0.354538
N38	N	1.069149	-0.833915	-0.418952
N39	N	1.069120	-0.771458	-0.418938
C40	C	1.063497	-0.739575	-0.354513
C41	C	1.110640	-0.970454	-0.401668
C42	C	1.110661	-1.036198	-0.401687
C43	C	1.016583	-1.036321	-0.307470
C44	C	1.016558	-0.970579	-0.307458
C45	C	1.063591	-0.937649	-0.354555
C46	C	1.255430	-0.303308	-0.354524
C47	C	1.337229	-0.303316	-0.354530
C48	C	1.063522	-0.303244	-0.546463
C49	C	1.063541	-0.303226	-0.628262
C50	C	1.063591	-0.139098	-0.354564
C51	C	1.063640	-0.069129	-0.354587
C52	C	1.110655	-0.262932	-0.816474
C53	C	1.110664	-0.262913	-0.893333
C54	C	1.016479	-0.343423	-0.893289
C55	C	1.016467	-0.343438	-0.816431
C56	C	1.063559	-0.303193	-0.778026
C57	C	1.063580	-0.303160	-0.931742
C58	C	1.063589	-0.303140	-1.015076
C59	C	1.063549	-0.303211	-0.694687
C60	C	1.063475	-0.303286	-0.163304
C61	C	1.063598	-0.303127	-0.081506
H62	H	1.148758	-0.542802	-0.439940
C63	C	1.162366	-0.934229	-0.453486
N64	N	1.201325	-0.906946	-0.492518
C65	C	0.964679	-0.387688	-0.935542
N66	N	0.925661	-0.421030	-0.967366
H67	H	0.494066	-0.376245	-0.268978
C68	C	0.964850	-1.072547	-0.255668
N69	N	0.925879	-1.099836	-0.216654
C70	C	0.644620	-0.218849	-0.453530
N71	N	0.676482	-0.185526	-0.492593
H72	H	1.149013	-0.230128	-0.924634
C73	C	0.644482	-0.387726	-0.255490
N74	N	0.676292	-0.421036	-0.216420
C75	C	0.483229	-0.218867	-0.453540
N76	N	0.451423	-0.185556	-0.492613
C77	C	1.162257	-0.671445	-0.453426
N78	N	1.201250	-0.698627	-0.492455
H79	H	0.978122	-0.662299	-0.269047
C80	C	0.964653	-0.387728	-0.774136
N81	N	0.925626	-0.421085	-0.742279
C82	C	1.162429	-1.072282	-0.453507
N83	N	1.201425	-1.099461	-0.492536
H84	H	0.978246	-0.943868	-0.269096
C85	C	0.964610	-0.533652	-0.255564
N86	N	0.925618	-0.506472	-0.216533
H87	H	1.148999	-0.230160	-0.785207
