data_functionalizedCrystal
_audit_creation_method	'MofGen! by Chris Wilmer'
_symmetry_space_group_name_H-M	'P1'
_symmetry_Int_Tables_number	1
_symmetry_cell_setting	triclinic
loop_
_symmetry_equiv_pos_as_xyz
  x,y,z
_cell_length_a	14.044191
_cell_length_b	13.448316
_cell_length_c	14.971486
_cell_angle_alpha	89.993189
_cell_angle_beta	91.597047
_cell_angle_gamma	90.004141
loop_
_atom_site_label
_atom_site_type_symbol
_atom_site_fract_x
_atom_site_fract_y
_atom_site_fract_z
O1	O	-1.257956	-0.082644	0.215694
O2	O	-0.757956	0.417356	0.715694
O3	O	-0.981977	-0.082657	0.207905
O4	O	-0.481977	0.417343	0.707905
O5	O	-1.127363	-0.082643	0.082182
O6	O	-0.627363	0.417357	0.582182
O7	O	-1.112570	-0.082658	0.341417
O8	O	-0.612570	0.417342	0.841417
O9	O	-1.127345	0.082740	0.082172
O10	O	-0.627345	0.582740	0.582172
O11	O	-0.981959	0.082727	0.207895
O12	O	-0.481959	0.582727	0.707895
O13	O	-1.257937	0.082739	0.215684
O14	O	-0.757937	0.582739	0.715684
Cu15	Cu	-1.119947	0.097834	0.211789
Cu16	Cu	-0.619947	0.597834	0.711789
Cu17	Cu	-1.119968	-0.097752	0.211800
Cu18	Cu	-0.619968	0.402248	0.711800
O19	O	-1.112551	0.082726	0.341407
O20	O	-0.612551	0.582726	0.841407
C21	C	-0.946650	0.000033	0.204493
C22	C	-0.446650	0.500033	0.704493
C23	C	-0.841412	0.000029	0.194329
C24	C	-0.341412	0.500029	0.694329
C25	C	-1.293265	0.000047	0.219096
C26	C	-0.793265	0.500047	0.719096
C27	C	-1.398502	0.000045	0.229260
C28	C	-0.898502	0.500045	0.729260
C29	C	-1.126693	0.000048	0.048800
C30	C	-0.626693	0.500048	0.548800
C31	C	-1.124710	0.000047	-0.050653
C32	C	-0.624710	0.500047	0.449347
C33	C	-0.591187	0.000036	0.247831
C34	C	-0.091187	0.500036	0.747831
C35	C	-0.648734	0.000038	0.175762
C36	C	-0.148734	0.500038	0.675762
C37	C	-0.755950	0.000033	0.186095
C38	C	-0.255950	0.500033	0.686095
C39	C	-0.483960	0.000041	0.237499
C40	C	0.016040	0.500041	0.737499
N41	N	-1.119938	0.235398	0.211780
N42	N	-0.619938	0.735398	0.711780
N43	N	-1.119984	-0.235316	0.211802
N44	N	-0.619984	0.264684	0.711802
C45	C	-1.184335	0.287445	0.156137
C46	C	-0.684335	0.787445	0.656137
C47	C	-1.184341	0.391548	0.156137
C48	C	-0.684341	0.891548	0.656137
C49	C	-1.119954	0.443603	0.211785
C50	C	-0.619954	0.943603	0.711785
C51	C	-1.055550	0.391549	0.267431
C52	C	-0.555550	0.891549	0.767431
C53	C	-1.055540	0.287448	0.267426
C54	C	-0.555540	0.787448	0.767426
C55	C	-1.055576	0.608529	0.267439
C56	C	-0.555576	1.108529	0.767439
C57	C	-1.055587	0.712638	0.267446
C58	C	-0.555587	1.212638	0.767446
C59	C	-1.184377	0.712629	0.156150
C60	C	-0.684377	1.212629	0.656150
C61	C	-1.184368	0.608528	0.156145
C62	C	-0.684368	1.108528	0.656145
C63	C	-1.119965	0.556481	0.211792
C64	C	-0.619965	1.056481	0.711792
C65	C	-1.210121	0.000052	-0.101148
C66	C	-0.710121	0.500052	0.398852
C67	C	-1.208252	0.000042	-0.194594
C68	C	-0.708252	0.500042	0.305406
C69	C	-1.120972	0.000034	-0.237545
C70	C	-0.620972	0.500034	0.262455
C71	C	-1.035555	0.000027	-0.187043
C72	C	-0.535555	0.500027	0.312957
C73	C	-1.037425	0.000030	-0.093598
C74	C	-0.537425	0.500030	0.406402
C75	C	-1.031664	0.000023	-0.381812
C76	C	-0.531664	0.500023	0.118188
C77	C	-1.029794	0.000022	-0.475263
C78	C	-0.529794	0.500022	0.024737
C79	C	-1.202492	0.000035	-0.482808
C80	C	-0.702492	0.500035	0.017192
C81	C	-1.204361	0.000038	-0.389364
C82	C	-0.704361	0.500038	0.110636
C83	C	-1.118944	0.000032	-0.338868
C84	C	-0.618944	0.500032	0.161132
C85	C	-1.113222	0.000032	0.374788
C86	C	-0.613222	0.500032	0.874788
C87	C	-1.115205	0.000026	0.474242
C88	C	-0.615205	0.500026	0.974242
H89	H	-0.617480	-0.000028	0.106302
H90	H	-0.117480	0.499972	0.606302
Cl91	Cl	-0.974637	0.778070	0.337405
Cl92	Cl	-0.474637	1.278070	0.837405
Cl93	Cl	-0.974577	0.222019	0.337378
Cl94	Cl	-0.474577	0.722019	0.837378
H95	H	-1.003129	0.566156	0.312750
H96	H	-0.503129	1.066156	0.812750
H97	H	-1.236777	0.433924	0.110827
H98	H	-0.736777	0.933924	0.610827
H99	H	-1.236801	0.566145	0.110836
H100	H	-0.736801	1.066145	0.610836
H101	H	-0.622439	0.000029	0.317285
H102	H	-0.122439	0.500029	0.817285
H103	H	-1.236816	0.755012	0.110840
H104	H	-0.736816	1.255012	0.610840
Cl105	Cl	-0.974600	0.456987	0.337386
Cl106	Cl	-0.474600	0.956987	0.837386
Cl107	Cl	-1.319850	0.000072	-0.047163
Cl108	Cl	-0.819850	0.500072	0.452837
Cl109	Cl	-1.265289	0.222015	0.086179
Cl110	Cl	-0.765289	0.722015	0.586179
Cl111	Cl	-0.925831	0.000005	-0.241038
Cl112	Cl	-0.425831	0.500005	0.258962
Cl113	Cl	-0.930047	0.000020	-0.030118
Cl114	Cl	-0.430047	0.500020	0.469882
H115	H	-1.277802	0.000048	-0.235704
H116	H	-0.777802	0.500048	0.264296
H117	H	-1.275432	0.000051	-0.354396
H118	H	-0.775432	0.500051	0.145604
H119	H	-1.272042	0.000037	-0.523926
H120	H	-0.772042	0.500037	-0.023926
Cl121	Cl	-0.920069	0.000013	-0.529257
Cl122	Cl	-0.420069	0.500013	-0.029257
H123	H	-0.962108	0.000016	-0.340701
H124	H	-0.462108	0.500016	0.159299
