data_functionalizedCrystal
_audit_creation_method	'MofGen! by Chris Wilmer'
_symmetry_space_group_name_H-M	'P1'
_symmetry_Int_Tables_number	1
_symmetry_cell_setting	triclinic
loop_
_symmetry_equiv_pos_as_xyz
  x,y,z
_cell_length_a	11.792254
_cell_length_b	10.723024
_cell_length_c	9.198806
_cell_angle_alpha	90.003648
_cell_angle_beta	89.996642
_cell_angle_gamma	95.666766
loop_
_atom_site_label
_atom_site_type_symbol
_atom_site_fract_x
_atom_site_fract_y
_atom_site_fract_z
O1	O	0.159191	-1.656774	-0.120884
O2	O	0.492525	-1.323441	0.212450
O3	O	0.825858	-0.990108	0.545783
O4	O	0.174429	-1.293583	-0.120889
O5	O	0.507762	-0.960249	0.212445
O6	O	0.841096	-0.626916	0.545778
O7	O	0.001660	-1.483984	-0.120876
O8	O	0.334993	-1.150651	0.212457
O9	O	0.668327	-0.817317	0.545791
O10	O	0.331960	-1.466373	-0.120897
O11	O	0.665294	-1.133040	0.212437
O12	O	0.998627	-0.799706	0.545770
O13	O	0.001659	-1.483969	0.120909
O14	O	0.334993	-1.150635	0.454242
O15	O	0.668326	-0.817302	0.787576
O16	O	0.174429	-1.293567	0.120896
O17	O	0.507762	-0.960234	0.454230
O18	O	0.841095	-0.626901	0.787563
O19	O	0.159191	-1.656759	0.120901
O20	O	0.492524	-1.323426	0.454235
O21	O	0.825857	-0.990093	0.787568
Cu22	Cu	0.166810	-1.475162	0.142976
Cu23	Cu	0.500143	-1.141829	0.476309
Cu24	Cu	0.833476	-0.808495	0.809642
Cu25	Cu	0.166810	-1.475180	-0.142963
Cu26	Cu	0.500144	-1.141847	0.190370
Cu27	Cu	0.833477	-0.808513	0.523703
O28	O	0.331960	-1.466358	0.120888
O29	O	0.665293	-1.133025	0.454222
O30	O	0.998627	-0.799691	0.787555
C31	C	0.173320	-1.247078	0.000003
C32	C	0.506653	-0.913745	0.333336
C33	C	0.839987	-0.580412	0.666670
C34	C	0.170002	-1.108533	0.000001
C35	C	0.503336	-0.775199	0.333335
C36	C	0.836669	-0.441866	0.666668
C37	C	-0.040634	-1.482867	0.000016
C38	C	0.292700	-1.149534	0.333350
C39	C	0.626033	-0.816200	0.666683
C40	C	-0.166654	-1.479546	0.000015
C41	C	0.166680	-1.146213	0.333348
C42	C	0.500013	-0.812880	0.666681
C43	C	0.160300	-1.703264	0.000006
C44	C	0.493633	-1.369930	0.333339
C45	C	0.826967	-1.036597	0.666673
C46	C	0.163618	-1.841809	-0.000002
C47	C	0.496951	-1.508476	0.333332
C48	C	0.830284	-1.175143	0.666665
C49	C	-0.268996	-1.476849	0.000010
C50	C	0.064337	-1.143515	0.333343
C51	C	0.397670	-0.810182	0.666676
C52	C	-0.397390	-1.473475	-0.000004
C53	C	-0.064057	-1.140142	0.333329
C54	C	0.269276	-0.806808	0.666663
C55	C	0.374253	-1.467475	-0.000007
C56	C	0.707587	-1.134142	0.333326
C57	C	1.040920	-0.800808	0.666660
C58	C	0.500274	-1.470795	-0.000015
C59	C	0.833607	-1.137462	0.333318
C60	C	1.166940	-0.804129	0.666652
N61	N	0.166809	-1.475158	0.344090
N62	N	0.500142	-1.141825	0.677423
N63	N	0.833475	-0.808492	1.010756
C64	C	0.266675	-1.033299	-0.000006
C65	C	0.600008	-0.699966	0.333328
C66	C	0.933341	-0.366632	0.666661
C67	C	0.263248	-0.890105	-0.000007
C68	C	0.596581	-0.556771	0.333326
C69	C	0.929915	-0.223438	0.666659
N70	N	0.166802	-1.475193	-0.344077
N71	N	0.500136	-1.141860	-0.010744
N72	N	0.833469	-0.808527	0.322590
C73	C	0.093948	-1.555103	0.416292
C74	C	0.427281	-1.221770	0.749625
C75	C	0.760615	-0.888437	1.082959
C76	C	0.093944	-1.555123	0.583704
C77	C	0.427277	-1.221789	0.917038
C78	C	0.760611	-0.888456	1.250371
H79	H	0.351977	-1.074900	-0.000003
H80	H	0.685310	-0.741566	0.333331
H81	H	1.018643	-0.408233	0.666664
H82	H	0.229189	-1.406750	0.593841
H83	H	0.562522	-1.073417	0.927175
H84	H	0.895856	-0.740083	1.260508
H85	H	0.346007	-0.825457	-0.000019
H86	H	0.679341	-0.492124	0.333314
H87	H	1.012674	-0.158790	0.666647
H88	H	0.031569	-1.623572	0.645795
H89	H	0.364902	-1.290238	0.979129
H90	H	0.698236	-0.956905	1.312462
O91	O	0.249455	-1.384517	0.426350
O92	O	0.582788	-1.051184	0.759683
O93	O	0.916122	-0.717850	1.093016
H94	H	0.201303	-1.323441	0.495727
H95	H	0.534636	-0.990107	0.829060
H96	H	0.867969	-0.656774	1.162393
O97	O	0.053981	-0.927425	0.000021
O98	O	0.387314	-0.594091	0.333355
O99	O	0.720648	-0.260758	0.666688
H100	H	0.050527	-0.987424	-0.098517
H101	H	0.383861	-0.654091	0.234816
H102	H	0.717194	-0.320758	0.568150
O103	O	0.057006	-1.053437	0.000020
O104	O	0.390339	-0.720103	0.333353
O105	O	0.723672	-0.386770	0.666686
H106	H	-0.013289	-1.130329	0.000039
H107	H	0.320045	-0.796996	0.333372
H108	H	0.653378	-0.463662	0.666705
O109	O	0.011284	-1.645718	0.334022
O110	O	0.344617	-1.312385	0.667356
O111	O	0.677950	-0.979051	1.000689
H112	H	0.024247	-1.631469	0.215440
H113	H	0.357580	-1.298136	0.548774
H114	H	0.690914	-0.964803	0.882107
