data_functionalizedCrystal
_audit_creation_method	'MofGen! by Chris Wilmer'
_symmetry_space_group_name_H-M	'P1'
_symmetry_Int_Tables_number	1
_symmetry_cell_setting	triclinic
loop_
_symmetry_equiv_pos_as_xyz
  x,y,z
_cell_length_a	19.077105
_cell_length_b	18.050590
_cell_length_c	19.076919
_cell_angle_alpha	87.729485
_cell_angle_beta	89.923776
_cell_angle_gamma	87.714864
loop_
_atom_site_label
_atom_site_type_symbol
_atom_site_fract_x
_atom_site_fract_y
_atom_site_fract_z
Zn1	Zn	1.058306	-0.359282	0.440410
Zn2	Zn	1.558306	0.140718	0.940410
Zn3	Zn	1.062957	-0.478691	0.322901
Zn4	Zn	1.562957	0.021309	0.822901
Zn5	Zn	0.945523	-0.349334	0.318204
Zn6	Zn	1.445523	0.150666	0.818204
Zn7	Zn	0.940779	-0.478243	0.435654
Zn8	Zn	1.440779	0.021757	0.935654
O9	O	1.001891	-0.416388	0.379292
O10	O	1.501891	0.083612	0.879292
O11	O	1.157255	-0.379473	0.428779
O12	O	1.657255	0.120527	0.928779
O13	O	1.051311	-0.457555	0.223947
O14	O	1.551311	0.042445	0.723947
O15	O	0.960522	-0.246732	0.334440
O16	O	1.460522	0.253268	0.834440
O17	O	1.160673	-0.467202	0.342445
O18	O	1.660673	0.032798	0.842445
O19	O	1.043383	-0.254041	0.424224
O20	O	1.543383	0.245959	0.924224
O21	O	0.965032	-0.362517	0.220496
O22	O	1.465032	0.137483	0.720496
O23	O	0.846561	-0.362083	0.329827
O24	O	1.346561	0.137917	0.829827
O25	O	0.952437	-0.466439	0.534616
O26	O	1.452437	0.033561	1.034616
O27	O	0.843076	-0.456792	0.416117
O28	O	1.343076	0.043208	0.916117
O29	O	1.038784	-0.379039	0.538111
O30	O	1.538784	0.120961	1.038111
O31	O	1.046712	-0.582553	0.337833
O32	O	1.546712	-0.082553	0.837833
O33	O	0.956948	-0.582224	0.420672
O34	O	1.456948	-0.082224	0.920672
C35	C	0.819322	-0.408310	0.371947
C36	C	1.319322	0.091690	0.871947
C37	C	0.741218	-0.404873	0.368821
C38	C	1.241218	0.095127	0.868821
C39	C	1.001838	-0.609336	0.379262
C40	C	1.501838	-0.109336	0.879262
C41	C	1.001879	-0.691884	0.379275
C42	C	1.501879	-0.191884	0.879275
C43	C	0.702731	-0.452637	0.412209
C44	C	1.202731	0.047363	0.912209
C45	C	0.629343	-0.449397	0.409275
C46	C	1.129343	0.050603	0.909275
C47	C	0.594444	-0.398397	0.362950
C48	C	1.094444	0.101603	0.862950
C49	C	0.632936	-0.350628	0.319561
C50	C	1.132936	0.149372	0.819561
C51	C	0.706322	-0.353864	0.322498
C52	C	1.206322	0.146136	0.822498
C53	C	0.375155	-0.383420	0.349358
C54	C	0.875155	0.116580	0.849358
C55	C	0.301764	-0.380189	0.346422
C56	C	0.801764	0.119811	0.846422
C57	C	0.298176	-0.478958	0.436137
C58	C	0.798176	0.021042	0.936137
C59	C	0.371564	-0.482193	0.439068
C60	C	0.871564	0.017807	0.939068
C61	C	0.410049	-0.434421	0.395681
C62	C	0.910049	0.065579	0.895681
N63	N	0.519430	-0.395087	0.359949
N64	N	1.019430	0.104913	0.859949
N65	N	0.485062	-0.437728	0.398687
N66	N	0.985062	0.062272	0.898687
C67	C	1.050788	-0.891494	0.334297
C68	C	1.550788	-0.391494	0.834297
C69	C	1.065373	-0.944195	0.399117
C70	C	1.565373	-0.444195	0.899117
C71	C	1.001918	-0.843017	0.379305
C72	C	1.501918	-0.343017	0.879305
C73	C	0.987403	-0.937403	0.314516
C74	C	1.487403	-0.437403	0.814516
C75	C	1.001957	-0.989005	0.379328
C76	C	1.501957	-0.489005	0.879328
C77	C	1.016535	-0.894634	0.444160
C78	C	1.516535	-0.394634	0.944160
C79	C	0.938536	-0.887835	0.359515
C80	C	1.438536	-0.387835	0.859515
C81	C	0.953096	-0.940514	0.424378
C82	C	1.453096	-0.440514	0.924378
C83	C	1.001897	-0.758918	0.379291
C84	C	1.501897	-0.258918	0.879291
C85	C	1.001977	-1.073103	0.379349
C86	C	1.501977	-0.573103	0.879349
C87	C	1.185173	-0.424497	0.386667
C88	C	1.685173	0.075503	0.886667
C89	C	1.263277	-0.427953	0.389809
C90	C	1.763277	0.072047	0.889809
C91	C	0.994562	-0.423799	0.562572
C92	C	1.494562	0.076201	1.062572
C93	C	0.991439	-0.426957	0.640675
C94	C	1.491439	0.073043	1.140675
C95	C	1.001963	-0.222687	0.379339
C96	C	1.501963	0.277313	0.879339
C97	C	1.001993	-0.140143	0.379358
C98	C	1.501993	0.359857	0.879358
C99	C	1.009232	-0.408953	0.196727
C100	C	1.509232	0.091047	0.696727
C101	C	1.012491	-0.405592	0.118630
C102	C	1.512491	0.094408	0.618630
C103	C	1.034926	-0.382938	0.679189
C104	C	1.534926	0.117062	1.179189
C105	C	1.031983	-0.385902	0.752575
C106	C	1.531983	0.114098	1.252575
C107	C	0.985556	-0.432890	0.787446
C108	C	1.485556	0.067110	1.287446
C109	C	0.942065	-0.476910	0.748927
C110	C	1.442065	0.023090	1.248927
C111	C	0.945005	-0.473941	0.675542
C112	C	1.445005	0.026059	1.175542
C113	C	0.971940	-0.446644	1.006726
C114	C	1.471940	0.053356	1.506726
C115	C	0.969005	-0.449611	1.080116
C116	C	1.469005	0.050389	1.580116
C117	C	1.058922	-0.358602	1.083759
C118	C	1.558922	0.141398	1.583759
C119	C	1.061860	-0.355641	1.010373
C120	C	1.561860	0.144359	1.510373
C121	C	1.018367	-0.399658	0.971860
C122	C	1.518367	0.100342	1.471860
N123	N	0.982549	-0.435922	0.862458
N124	N	1.482549	0.064078	1.362458
N125	N	1.021371	-0.396621	0.896850
N126	N	1.521371	0.103379	1.396850
H127	H	0.731140	-0.494169	0.449929
H128	H	1.231140	0.005831	0.949929
C129	C	1.112923	-0.303951	0.972016
C130	C	1.612923	0.196049	1.472016
H131	H	1.108449	-0.308492	0.922795
H132	H	1.608449	0.191508	1.422795
H133	H	1.102176	-0.254085	0.983641
H134	H	1.602176	0.245915	1.483641
H135	H	1.159654	-0.317398	0.985942
H136	H	1.659654	0.182602	1.485942
C137	C	0.263376	-0.324082	0.295467
C138	C	0.763376	0.175918	0.795467
H139	H	0.296806	-0.296089	0.270053
H140	H	0.796806	0.203911	0.770053
H141	H	0.235961	-0.349935	0.263654
H142	H	0.735961	0.150065	0.763654
H143	H	0.233684	-0.291599	0.321265
H144	H	0.733684	0.208401	0.821265
C145	C	0.594549	-0.294532	0.268602
C146	C	1.094549	0.205468	0.768602
H147	H	0.545331	-0.299450	0.273060
H148	H	1.045331	0.200550	0.773060
H149	H	0.606173	-0.245599	0.279449
H150	H	1.106173	0.254401	0.779449
H151	H	0.608455	-0.303950	0.221851
H152	H	1.108455	0.196050	0.721851
H153	H	1.067396	-0.350060	0.783929
H154	H	1.567396	0.149940	1.283929
H155	H	0.936534	-0.482497	0.975379
H156	H	1.436534	0.017503	1.475379
C157	C	0.417481	-0.330886	0.301622
C158	C	0.917481	0.169114	0.801622
H159	H	0.386184	-0.300059	0.273606
H160	H	0.886184	0.199941	0.773606
H161	H	0.445049	-0.300919	0.329694
H162	H	0.945049	0.199081	0.829694
H163	H	0.447317	-0.359277	0.272102
H164	H	0.947317	0.140723	0.772102
H165	H	1.092127	-0.869968	0.296277
H166	H	1.592127	-0.369968	0.796277
H167	H	0.904261	-0.515165	0.777324
H168	H	1.404261	-0.015165	1.277324
C169	C	0.917930	-0.501292	1.118476
C170	C	1.417930	-0.001292	1.618476
H171	H	0.922415	-0.496759	1.167697
H172	H	1.422415	0.003241	1.667697
H173	H	0.871203	-0.487844	1.104553
H174	H	1.371203	0.012156	1.604553
H175	H	0.928674	-0.551162	1.106853
H176	H	1.428674	-0.051162	1.606853
C177	C	1.137799	-0.977491	0.421751
C178	C	1.637799	-0.477491	0.921751
H179	H	1.132926	-1.007961	0.463090
H180	H	1.632926	-0.507961	0.963090
H181	H	1.156931	-1.006472	0.385335
H182	H	1.656931	-0.506472	0.885335
H183	H	1.168223	-0.938575	0.430802
H184	H	1.668223	-0.438575	0.930802
H185	H	0.911783	-0.961907	0.462496
H186	H	1.411783	-0.461907	0.962496
C187	C	0.748658	-0.301323	0.274774
C188	C	1.248658	0.198677	0.774774
H189	H	0.717364	-0.270489	0.246760
H190	H	1.217364	0.229511	0.746760
H191	H	0.776221	-0.271363	0.302858
H192	H	1.276221	0.228637	0.802858
H193	H	0.778499	-0.329704	0.245250
H194	H	1.278499	0.170296	0.745250
H195	H	0.975109	-0.956301	0.259716
H196	H	1.475109	-0.456301	0.759716
H197	H	0.909587	-0.509778	0.644185
H198	H	1.409587	-0.009778	1.144185
H199	H	0.598010	-0.488293	0.444605
H200	H	1.098010	0.011707	0.944605
H201	H	1.028773	-0.875827	0.499005
H202	H	1.528773	-0.375827	0.999005
H203	H	1.094331	-0.322764	1.115124
H204	H	1.594331	0.177236	1.615124
H205	H	0.884936	-0.863176	0.342744
H206	H	1.384936	-0.363176	0.842744
C207	C	1.085992	-0.331248	0.640837
C208	C	1.585992	0.168752	1.140837
H209	H	1.111463	-0.305451	0.674287
H210	H	1.611463	0.194549	1.174287
H211	H	1.117747	-0.359847	0.613434
H212	H	1.617747	0.140153	1.113434
H213	H	1.060263	-0.296541	0.611137
H214	H	1.560263	0.203459	1.111137
H215	H	0.266833	-0.517850	0.471461
H216	H	0.766833	-0.017850	0.971461
C217	C	0.409948	-0.538288	0.490030
C218	C	0.909948	-0.038288	0.990030
H219	H	0.376515	-0.566267	0.515455
H220	H	0.876515	-0.066267	1.015455
H221	H	0.439641	-0.570775	0.464242
H222	H	0.939641	-0.070775	0.964242
H223	H	0.437361	-0.512425	0.521843
H224	H	0.937361	-0.012425	1.021843
