data_functionalizedCrystal
_audit_creation_method	'MofGen! by Chris Wilmer'
_symmetry_space_group_name_H-M	'P1'
_symmetry_Int_Tables_number	1
_symmetry_cell_setting	triclinic
loop_
_symmetry_equiv_pos_as_xyz
  x,y,z
_cell_length_a	8.559649
_cell_length_b	15.944551
_cell_length_c	7.681481
_cell_angle_alpha	84.256492
_cell_angle_beta	94.913240
_cell_angle_gamma	76.638701
loop_
_atom_site_label
_atom_site_type_symbol
_atom_site_fract_x
_atom_site_fract_y
_atom_site_fract_z
O1	O	2.105021	-0.019570	-0.146399
O2	O	1.639821	0.023810	-0.146411
O3	O	1.885126	-0.120976	-0.146389
O4	O	1.859716	0.125215	-0.146421
O5	O	1.915319	-0.138833	0.146471
O6	O	1.670014	0.005953	0.146450
O7	O	2.135214	-0.037427	0.146461
Zn8	Zn	1.907408	-0.018572	0.192953
Zn9	Zn	1.867627	0.004955	-0.192903
O10	O	1.889909	0.107359	0.146439
C11	C	1.595387	0.018169	0.000018
C12	C	1.418008	0.027954	0.000014
C13	C	1.899168	-0.161130	0.000042
C14	C	1.896006	-0.254172	0.000042
C15	C	1.736394	-0.458726	0.000014
C16	C	1.825398	-0.533331	0.144414
C17	C	1.890284	-0.424528	0.000029
C18	C	1.795667	-0.515712	-0.144323
C19	C	1.884744	-0.589082	0.000008
C20	C	1.979342	-0.497915	0.144548
C21	C	1.949576	-0.480280	-0.144319
C22	C	2.038696	-0.554877	0.000116
C23	C	1.893471	-0.329732	0.000042
C24	C	1.881571	-0.683878	0.000007
C25	C	2.179647	-0.031786	0.000028
C26	C	2.357025	-0.041570	0.000021
C27	C	1.875866	0.147513	0.000005
C28	C	1.879027	0.240556	-0.000008
N29	N	1.934569	-0.034630	0.456290
N30	N	1.840479	0.021005	-0.456240
H31	H	1.440515	-0.108579	0.000021
O32	O	2.011894	-0.452380	-0.290136
C33	C	1.914698	-0.460709	-0.442087
H34	H	1.787996	-0.461176	-0.407495
H35	H	1.907800	-0.403645	-0.546870
H36	H	1.969702	-0.524037	-0.494769
H37	H	1.717971	-0.524143	-0.266411
O38	O	1.583935	-0.409294	0.000254
C39	C	1.474267	-0.463056	0.001882
H40	H	1.541026	-0.532200	0.058056
H41	H	1.375259	-0.437735	0.087109
H42	H	1.417837	-0.462705	-0.138199
O43	O	2.191171	-0.604283	-0.000135
C44	C	2.199853	-0.646903	-0.152503
H45	H	2.099664	-0.609652	-0.258520
H46	H	2.322267	-0.649847	-0.202796
H47	H	2.184652	-0.715673	-0.119404
O48	O	1.726086	0.088784	0.453860
C49	C	1.800890	0.141493	0.347231
H50	H	1.923034	0.101590	0.319776
H51	H	1.720947	0.166954	0.217524
H52	H	1.819175	0.198558	0.418167
H53	H	1.334507	0.094969	-0.000004
H54	H	2.030633	-0.091415	0.531504
O55	O	1.762500	-0.561115	0.289918
C56	C	1.603147	-0.511383	0.289429
H57	H	1.551577	-0.482176	0.148911
H58	H	1.525407	-0.554778	0.343972
H59	H	1.603599	-0.456984	0.375005
H60	H	2.056976	-0.489573	0.266760
