data_functionalizedCrystal
_audit_creation_method	'MofGen! by Chris Wilmer'
_symmetry_space_group_name_H-M	'P1'
_symmetry_Int_Tables_number	1
_symmetry_cell_setting	triclinic
loop_
_symmetry_equiv_pos_as_xyz
  x,y,z
_cell_length_a	14.971506
_cell_length_b	14.048226
_cell_length_c	14.971507
_cell_angle_alpha	89.990763
_cell_angle_beta	96.377475
_cell_angle_gamma	90.001638
loop_
_atom_site_label
_atom_site_type_symbol
_atom_site_fract_x
_atom_site_fract_y
_atom_site_fract_z
O1	O	1.186938	0.079172	-0.116651
O2	O	0.926541	0.079173	-0.130591
O3	O	1.063709	0.079161	0.006577
O4	O	1.049770	0.079184	-0.253819
O5	O	1.063706	-0.079160	0.006589
O6	O	0.926538	-0.079148	-0.130580
O7	O	1.186935	-0.079149	-0.116640
Zn8	Zn	1.056736	-0.104286	-0.123608
Zn9	Zn	1.056740	0.104309	-0.123623
O10	O	1.049767	-0.079137	-0.253808
C11	C	0.893215	0.000012	-0.129959
C12	C	0.793919	0.000012	-0.128081
C13	C	0.355642	0.000029	-0.201498
C14	C	0.448942	0.000033	-0.203256
C15	C	0.506156	0.000021	-0.122664
C16	C	0.470065	0.000015	-0.040310
C17	C	0.376767	0.000018	-0.038553
C18	C	0.664529	0.000008	-0.043976
C19	C	0.757834	0.000003	-0.045733
C20	C	0.736704	0.000023	-0.208679
C21	C	0.643406	0.000025	-0.206922
C22	C	0.607321	0.000017	-0.124568
C23	C	1.063081	-0.000001	0.039907
C24	C	1.061203	-0.000003	0.139204
C25	C	1.220261	0.000013	-0.117272
C26	C	1.319557	0.000020	-0.119150
N27	N	1.056743	0.246670	-0.123626
N28	N	1.056740	-0.246646	-0.123597
C29	C	1.117594	0.296483	-0.063008
C30	C	1.117598	0.396141	-0.063005
C31	C	1.056745	0.445984	-0.123617
C32	C	0.995891	0.396164	-0.184242
C33	C	0.995893	0.296508	-0.184249
C34	C	0.995891	0.603878	-0.184223
C35	C	0.995889	0.703541	-0.184216
C36	C	1.117597	0.703511	-0.062980
C37	C	1.117598	0.603855	-0.062986
C38	C	1.056743	0.554042	-0.123610
C39	C	1.134619	-0.000034	0.577481
C40	C	1.136377	-0.000034	0.484180
C41	C	1.055785	-0.000027	0.426966
C42	C	0.973431	-0.000029	0.463057
C43	C	0.971674	-0.000036	0.556355
C44	C	0.977098	-0.000012	0.268594
C45	C	0.978855	-0.000003	0.175288
C46	C	1.141801	-0.000010	0.196418
C47	C	1.140044	-0.000017	0.289717
C48	C	1.057689	-0.000018	0.325801
C49	C	1.050395	0.000009	0.712862
C50	C	1.052271	-0.000034	0.613565
H51	H	0.516657	0.000012	0.025309
H52	H	0.478317	0.000049	-0.270311
H53	H	0.804416	0.000002	0.019892
F54	F	0.582516	0.000032	-0.292697
F55	F	0.931128	0.243495	-0.248770
H56	H	1.208857	0.000079	0.167035
F57	F	0.775108	0.000023	-0.296328
F58	F	0.626128	-0.000004	0.043675
F59	F	1.220397	-0.000035	0.638365
F60	F	0.884028	-0.000041	0.594758
F61	F	1.182364	0.449155	0.001510
H62	H	0.309064	0.000031	-0.267125
H63	H	0.913230	-0.000003	0.128706
F64	F	1.224023	-0.000016	0.445781
F65	F	0.338364	0.000009	0.049093
H66	H	1.167144	0.563273	-0.013627
F67	F	1.182359	0.243445	0.001509
H68	H	1.167148	0.744074	-0.013618
F69	F	1.225818	-0.000018	0.350607
H70	H	0.910036	-0.000026	0.297969
H71	H	0.946337	0.744118	-0.233573
F72	F	0.931124	0.550868	-0.248750
H73	H	0.946347	0.436752	-0.233598
F74	F	0.887659	-0.000026	0.402163
