data_functionalizedCrystal
_audit_creation_method	'MofGen! by Chris Wilmer'
_symmetry_space_group_name_H-M	'P1'
_symmetry_Int_Tables_number	1
_symmetry_cell_setting	triclinic
loop_
_symmetry_equiv_pos_as_xyz
  x,y,z
_cell_length_a	25.639243
_cell_length_b	16.625545
_cell_length_c	16.625539
_cell_angle_alpha	89.974232
_cell_angle_beta	90.023150
_cell_angle_gamma	89.970326
loop_
_atom_site_label
_atom_site_type_symbol
_atom_site_fract_x
_atom_site_fract_y
_atom_site_fract_z
Zn1	Zn	0.799305	0.320942	0.455979
Zn2	Zn	0.799235	0.455785	0.321152
Zn3	Zn	0.711870	0.320976	0.321154
Zn4	Zn	0.711844	0.455742	0.455936
O5	O	0.755564	0.388361	0.388555
O6	O	0.872461	0.338832	0.438112
O7	O	0.787628	0.437934	0.208320
O8	O	0.723509	0.208139	0.339057
O9	O	0.872410	0.437901	0.339055
O10	O	0.787746	0.208114	0.438113
O11	O	0.723441	0.338891	0.208321
O12	O	0.638702	0.338850	0.339015
O13	O	0.723464	0.437828	0.568774
O14	O	0.638682	0.437862	0.438039
O15	O	0.787721	0.338791	0.568806
O16	O	0.787603	0.568611	0.339013
O17	O	0.723397	0.568580	0.438038
C18	C	0.619721	0.388356	0.388523
C19	C	0.561607	0.388373	0.388529
C20	C	0.201265	0.336857	0.440220
C21	C	0.146661	0.336856	0.440225
O22	O	0.118442	0.293041	0.484135
N23	N	0.119325	0.388359	0.388577
C24	C	0.146596	0.439859	0.336916
O25	O	0.118330	0.483666	0.292985
C26	C	0.201199	0.439855	0.336907
C27	C	0.228532	0.388355	0.388564
C28	C	0.228598	0.285361	0.491872
C29	C	0.283199	0.285363	0.491868
C30	C	0.310466	0.336861	0.440212
C31	C	0.283133	0.388357	0.388560
C32	C	0.228469	0.491351	0.285242
C33	C	0.283076	0.491343	0.285237
C34	C	0.310409	0.439843	0.336894
C35	C	0.365000	0.439858	0.336900
N36	N	0.392337	0.388355	0.388547
C37	C	0.365069	0.336857	0.440203
C38	C	0.031925	0.439863	0.336936
C39	C	-0.022677	0.439872	0.336948
C40	C	-0.022609	0.336867	0.440257
C41	C	0.031995	0.336863	0.440248
C42	C	0.059261	0.388361	0.388584
C43	C	0.479734	0.336866	0.440191
C44	C	0.534340	0.336874	0.440185
C45	C	0.534266	0.439875	0.336874
C46	C	0.479666	0.439870	0.336883
C47	C	0.452401	0.388358	0.388544
O48	O	0.393254	0.483649	0.293010
O49	O	0.393342	0.293051	0.484119
C50	C	0.755504	0.597852	0.388538
C51	C	0.755526	0.687473	0.388558
C52	C	0.755545	0.760256	0.388577
C53	C	0.755574	0.851564	0.388599
C54	C	0.755600	0.924340	0.388612
C55	C	0.755628	1.015655	0.388632
C56	C	0.891937	0.388367	0.388588
C57	C	0.950051	0.388370	0.388602
C58	C	0.755598	0.388301	0.598864
C59	C	0.755612	0.388276	0.688485
C60	C	0.755634	1.178052	0.388600
C61	C	0.755654	1.088431	0.388645
C62	C	0.755560	0.388363	0.179064
C63	C	0.755647	0.388161	0.089444
C64	C	0.755636	0.388185	1.016661
C65	C	0.755628	0.388213	0.925353
C66	C	0.755624	0.388231	0.852576
C67	C	0.755616	0.388257	0.761262
H68	H	-0.044819	0.294932	0.482316
H69	H	0.556477	0.481806	0.294818
Cl70	Cl	0.568698	0.272129	0.505132
H71	H	0.054246	0.294926	0.482310
H72	H	0.305449	0.243425	0.533931
H73	H	0.206403	0.243420	0.533937
H74	H	-0.044928	0.481817	0.294893
Cl75	Cl	0.066197	0.504614	0.271985
Cl76	Cl	0.317350	0.556088	0.220285
Cl77	Cl	0.194120	0.556082	0.220281
H78	H	0.457542	0.294918	0.482257
H79	H	0.457410	0.481815	0.294829
