data_functionalizedCrystal
_audit_creation_method	'MofGen! by Chris Wilmer'
_symmetry_space_group_name_H-M	'P1'
_symmetry_Int_Tables_number	1
_symmetry_cell_setting	triclinic
loop_
_symmetry_equiv_pos_as_xyz
  x,y,z
_cell_length_a	21.295417
_cell_length_b	12.759401
_cell_length_c	12.759393
_cell_angle_alpha	89.981504
_cell_angle_beta	89.960830
_cell_angle_gamma	90.030668
loop_
_atom_site_label
_atom_site_type_symbol
_atom_site_fract_x
_atom_site_fract_y
_atom_site_fract_z
Zn1	Zn	-0.250569	1.606140	-0.593926
Zn2	Zn	-0.355853	1.605986	-0.418223
Zn3	Zn	-0.250602	1.430442	-0.418265
Zn4	Zn	-0.355805	1.430382	-0.593864
O5	O	-0.303208	1.518237	-0.506069
O6	O	-0.264542	1.753141	-0.570626
O7	O	-0.341926	1.582660	-0.271207
O8	O	-0.162509	1.453838	-0.441611
O9	O	-0.341894	1.753027	-0.441538
O10	O	-0.162484	1.582923	-0.570668
O11	O	-0.264598	1.453689	-0.271238
O12	O	-0.264551	1.283413	-0.441551
O13	O	-0.341811	1.453736	-0.740893
O14	O	-0.341843	1.283369	-0.570562
O15	O	-0.264495	1.582865	-0.740939
O16	O	-0.443936	1.582602	-0.441478
O17	O	-0.443901	1.453587	-0.570521
C18	C	-0.303196	1.245270	-0.506055
C19	C	-0.303206	1.128493	-0.506074
C20	C	-0.343516	1.073636	-0.573139
C21	C	-0.343524	0.963912	-0.573151
C22	C	-0.262910	0.963912	-0.439022
C23	C	-0.262899	1.073635	-0.439017
C24	C	-0.390061	1.073635	-0.650574
C25	C	-0.390069	0.963911	-0.650585
C26	C	-0.466759	1.518100	-0.506011
C27	C	-0.536727	1.518137	-0.506021
C28	C	-0.569592	1.585375	-0.438898
C29	C	-0.635334	1.585424	-0.438921
C30	C	-0.668210	1.518217	-0.506058
C31	C	-0.635338	1.450974	-0.573195
C32	C	-0.569596	1.450934	-0.573177
N33	N	-0.771475	1.426309	-0.514062
N34	N	-0.833927	1.426350	-0.514073
C35	C	-0.866284	1.518334	-0.506118
N36	N	-0.833832	1.610278	-0.498130
N37	N	-0.771375	1.610236	-0.498114
C38	C	-0.739495	1.518253	-0.506085
C39	C	-0.970434	1.585631	-0.439016
C40	C	-1.036178	1.585682	-0.439047
C41	C	-1.036180	1.451223	-0.573315
C42	C	-0.970438	1.451181	-0.573289
C43	C	-0.937569	1.518384	-0.506134
C44	C	-0.139017	1.518404	-0.506151
C45	C	-0.069049	1.518475	-0.506185
C46	C	-0.303220	1.792271	-0.506084
C47	C	-0.303225	1.909047	-0.506091
C48	C	-0.303144	1.518311	-0.780103
C49	C	-0.303117	1.518342	-0.896880
C50	C	-0.262855	1.585589	-0.951767
C51	C	-0.262832	1.585614	-1.061491
C52	C	-0.343339	1.451143	-1.061431
C53	C	-0.343358	1.451113	-0.951709
C54	C	-0.216376	1.663228	-0.951803
C55	C	-0.216353	1.663253	-1.061527
C56	C	-0.303225	1.518225	-0.233102
C57	C	-0.303075	1.518397	-0.116326
H58	H	-0.436347	1.107628	-0.621279
C59	C	-0.218550	1.133974	-0.365250
N60	N	-0.185143	1.179421	-0.309685
C61	C	-0.239969	1.767618	-0.905811
N62	N	-0.257735	1.846247	-0.871170
C63	C	-0.934286	1.377234	-0.647153
N64	N	-0.907056	1.321546	-0.702803
C65	C	-0.455913	0.923623	-0.620933
N66	N	-0.505505	0.893279	-0.598597
C67	C	-0.153767	1.624001	-1.107543
N68	N	-0.106625	1.594448	-1.142204
H69	H	-0.230093	0.919233	-0.384428
C70	C	-0.387601	1.377194	-1.121753
N71	N	-0.420941	1.321493	-1.167187
C72	C	-0.366551	0.917987	-0.755082
N73	N	-0.348833	0.883395	-0.833784
C74	C	-0.150519	1.633842	-0.911613
N75	N	-0.100918	1.611705	-0.881343
H76	H	-0.229411	1.744618	-1.091302
H77	H	-0.377059	1.103449	-0.731984
H78	H	-0.662097	1.640181	-0.384261
C79	C	-0.533439	1.659289	-0.365014
N80	N	-0.506209	1.714957	-0.309359
C81	C	-1.072329	1.659653	-0.365201
N82	N	-1.099558	1.715367	-0.309576
H83	H	-0.376142	1.396351	-0.907024
C84	C	-0.671502	1.377042	-0.647041
N85	N	-0.698741	1.321355	-0.702666
H86	H	-0.542838	1.396180	-0.627838
H87	H	-1.062947	1.396506	-0.627983
C88	C	-0.934276	1.659571	-0.365161
N89	N	-0.907043	1.715266	-0.309535
