data_functionalizedCrystal
_audit_creation_method	'MofGen! by Chris Wilmer'
_symmetry_space_group_name_H-M	'P1'
_symmetry_Int_Tables_number	1
_symmetry_cell_setting	triclinic
loop_
_symmetry_equiv_pos_as_xyz
  x,y,z
_cell_length_a	19.188924
_cell_length_b	16.109295
_cell_length_c	18.266242
_cell_angle_alpha	90.006012
_cell_angle_beta	89.992796
_cell_angle_gamma	96.699425
loop_
_atom_site_label
_atom_site_type_symbol
_atom_site_fract_x
_atom_site_fract_y
_atom_site_fract_z
O1	O	0.089726	-1.102840	-0.060834
O2	O	0.100899	-0.860740	-0.060847
O3	O	-0.006327	-0.988780	-0.060832
O4	O	0.196952	-0.974801	-0.060850
O5	O	-0.006330	-0.988758	0.060930
O6	O	0.100896	-0.860718	0.060915
O7	O	0.089723	-1.102818	0.060928
Zn8	Zn	0.095309	-0.981765	0.080253
Zn9	Zn	0.095313	-0.981794	-0.080173
O10	O	0.196949	-0.974779	0.060912
C11	C	0.100446	-0.829756	0.000032
C12	C	0.099091	-0.737465	0.000028
C13	C	-0.032341	-0.988317	0.000050
C14	C	-0.109849	-0.986961	0.000052
C15	C	0.159565	-0.514990	0.000030
C16	C	0.158287	-0.428273	0.000035
C17	C	0.031069	-0.448573	0.000043
C18	C	0.032348	-0.535288	0.000043
C19	C	0.096598	-0.568493	0.000033
C20	C	0.094041	-0.395062	0.000037
C21	C	0.092654	-0.301041	0.000042
C22	C	0.097985	-0.662521	0.000030
C23	C	-0.146247	-0.986340	-0.066321
C24	C	-0.219073	-0.985054	-0.066327
C25	C	-0.255499	-0.984406	0.000044
C26	C	-0.219091	-0.985022	0.066426
C27	C	-0.146266	-0.986300	0.066429
N28	N	-0.375059	-1.029704	0.049445
N29	N	-0.444240	-1.028492	0.049437
C30	C	-0.474917	-0.980555	0.000037
N31	N	-0.433801	-0.933886	-0.049366
N32	N	-0.364614	-0.935102	-0.049360
C33	C	-0.334466	-0.983020	0.000047
C34	C	-0.590282	-0.978538	-0.066346
C35	C	-0.663108	-0.977247	-0.066349
C36	C	-0.663126	-0.977224	0.066405
C37	C	-0.590300	-0.978507	0.066406
C38	C	-0.553883	-0.979168	0.000028
C39	C	0.222963	-0.975242	0.000029
C40	C	0.300471	-0.976598	0.000022
C41	C	0.090181	-0.133802	0.000046
C42	C	0.091548	-0.226091	0.000043
N43	N	0.095306	-0.981752	0.189740
N44	N	0.095311	-0.981814	-0.189660
C45	C	0.137668	-1.032012	0.228042
C46	C	0.137666	-1.032026	0.304687
C47	C	0.095310	-0.981764	0.343027
C48	C	0.052939	-0.931500	0.304716
C49	C	0.052937	-0.931494	0.228073
N50	N	0.093421	-0.908950	0.463376
N51	N	0.093427	-0.908958	0.536184
C52	C	0.095313	-0.981780	0.573950
N53	N	0.097206	-1.054595	0.536156
N54	N	0.097203	-1.054586	0.463342
C55	C	0.095307	-0.981765	0.426134
C56	C	0.137675	-1.032060	0.695358
C57	C	0.137668	-1.032076	0.772005
C58	C	0.052945	-0.931542	0.772033
C59	C	0.052948	-0.931534	0.695388
C60	C	0.095317	-0.981792	0.657055
H61	H	0.211882	-0.542023	0.000027
F62	F	-0.257859	-0.984327	0.137062
F63	F	-0.551521	-0.979237	-0.136990
F64	F	-0.701888	-0.976530	0.137042
F65	F	-0.037307	-0.413225	0.000050
H66	H	0.018455	-0.890603	0.664202
F67	F	0.182755	-1.085577	0.812768
H68	H	-0.116630	-0.986802	0.120480
H69	H	0.172174	-1.072984	0.664146
H70	H	-0.248714	-0.984543	-0.120377
H71	H	0.018457	-0.890618	0.803249
H72	H	0.209561	-0.384713	0.000033
H73	H	-0.018930	-0.578853	0.000048
F74	F	-0.107493	-0.987039	-0.136966
F75	F	0.182772	-1.085488	0.187250
F76	F	-0.701846	-0.976580	-0.136996
F77	F	0.182755	-1.085523	0.345459
H78	H	-0.560664	-0.979019	0.120454
H79	H	0.018452	-0.890577	0.335938
F80	F	0.007851	-0.877993	0.187308
