data_functionalizedCrystal
_audit_creation_method	'MofGen! by Chris Wilmer'
_symmetry_space_group_name_H-M	'P1'
_symmetry_Int_Tables_number	1
_symmetry_cell_setting	triclinic
loop_
_symmetry_equiv_pos_as_xyz
  x,y,z
_cell_length_a	16.974897
_cell_length_b	16.974813
_cell_length_c	14.048226
_cell_angle_alpha	86.339005
_cell_angle_beta	86.341962
_cell_angle_gamma	83.164002
loop_
_atom_site_label
_atom_site_type_symbol
_atom_site_fract_x
_atom_site_fract_y
_atom_site_fract_z
O1	O	1.049029	0.100839	-0.167657
O2	O	1.382362	0.434172	0.165676
O3	O	1.715695	0.767505	0.499009
O4	O	0.818811	0.113662	-0.150930
O5	O	1.152144	0.446995	0.182403
O6	O	1.485477	0.780329	0.515737
O7	O	0.940337	-0.007860	-0.150915
O8	O	1.273671	0.325473	0.182418
O9	O	1.607004	0.658807	0.515751
O10	O	0.927502	0.222361	-0.167672
O11	O	1.260835	0.555694	0.165662
O12	O	1.594169	0.889027	0.498995
O13	O	0.940323	-0.007867	0.007408
O14	O	1.273656	0.325466	0.340741
O15	O	1.606989	0.658799	0.674074
O16	O	0.818796	0.113655	0.007393
O17	O	1.152129	0.446988	0.340726
O18	O	1.485463	0.780321	0.674060
O19	O	1.049014	0.100831	-0.009334
O20	O	1.382347	0.434165	0.323999
O21	O	1.715681	0.767498	0.657332
Zn22	Zn	0.933903	0.107242	0.024167
Zn23	Zn	1.267236	0.440575	0.357500
Zn24	Zn	1.600569	0.773909	0.690833
Zn25	Zn	0.933922	0.107251	-0.184431
Zn26	Zn	1.267255	0.440585	0.148903
Zn27	Zn	1.600589	0.773918	0.482236
O28	O	0.927488	0.222353	-0.009349
O29	O	1.260821	0.555687	0.323985
O30	O	1.594154	0.889020	0.657318
C31	C	0.789346	0.113168	-0.069464
C32	C	1.122679	0.446502	0.263869
C33	C	1.456013	0.779835	0.597203
C34	C	0.701572	0.111699	-0.062597
C35	C	1.034905	0.445032	0.270737
C36	C	1.368238	0.778366	0.604070
C37	C	0.660336	0.111015	-0.145665
C38	C	0.993669	0.444348	0.187668
C39	C	1.327002	0.777681	0.521001
C40	C	0.577861	0.109647	-0.139199
C41	C	0.911194	0.442980	0.194134
C42	C	1.244528	0.776313	0.527467
C43	C	0.536624	0.108958	-0.049664
C44	C	0.869958	0.442291	0.283670
C45	C	1.203291	0.775624	0.617003
C46	C	0.577866	0.109645	0.033411
C47	C	0.911199	0.442978	0.366744
C48	C	1.244532	0.776311	0.700078
C49	C	0.660338	0.111018	0.026944
C50	C	0.993672	0.444352	0.360277
C51	C	1.327005	0.777685	0.693611
C52	C	0.289967	0.104855	-0.021068
C53	C	0.623300	0.438188	0.312265
C54	C	0.956634	0.771521	0.645598
C55	C	0.207489	0.103479	-0.014607
C56	C	0.540822	0.436812	0.318726
C57	C	0.874156	0.770145	0.652059
C58	C	0.207490	0.103482	-0.187219
C59	C	0.540823	0.436816	0.146115
C60	C	0.874157	0.770149	0.479448
C61	C	0.289965	0.104851	-0.193677
C62	C	0.623298	0.438184	0.139656
C63	C	0.956631	0.771518	0.472989
C64	C	0.331198	0.105542	-0.110603
C65	C	0.664532	0.438876	0.222730
C66	C	0.997865	0.772209	0.556064
N67	N	0.452322	0.107557	-0.043052
N68	N	0.785655	0.440890	0.290281
N69	N	1.118989	0.774224	0.623614
N70	N	0.415498	0.106949	-0.117216
N71	N	0.748832	0.440282	0.216118
N72	N	1.082165	0.773615	0.549451
C73	C	0.939842	-0.037322	-0.069448
C74	C	1.273175	0.296012	0.263885
C75	C	1.606508	0.629345	0.597219
C76	C	0.938377	-0.125097	-0.062576
C77	C	1.271710	0.208236	0.270757
C78	C	1.605044	0.541570	0.604091
C79	C	0.937699	-0.166326	-0.145649
C80	C	1.271032	0.167007	0.187684
C81	C	1.604365	0.500341	0.521018
C82	C	0.936317	-0.248800	-0.139189
C83	C	1.269651	0.084534	0.194145
C84	C	1.602984	0.417867	0.527478
C85	C	0.935620	-0.290044	-0.049655
C86	C	1.268953	0.043289	0.283678
C87	C	1.602287	0.376623	0.617012
C88	C	0.936296	-0.248809	0.033424
C89	C	1.269629	0.084524	0.366758
C90	C	1.602963	0.417858	0.700091
C91	C	0.937672	-0.166336	0.026964
C92	C	1.271005	0.166997	0.360297
C93	C	1.604338	0.500331	0.693630
C94	C	0.931500	-0.536702	-0.021078
C95	C	1.264833	-0.203368	0.312255
C96	C	1.598166	0.129965	0.645589
C97	C	0.930126	-0.619181	-0.014624
C98	C	1.263460	-0.285847	0.318710
C99	C	1.596793	0.047486	0.652043
C100	C	0.930146	-0.619165	-0.187237
C101	C	1.263479	-0.285832	0.146096
C102	C	1.596813	0.047501	0.479429
C103	C	0.931527	-0.536692	-0.193690
C104	C	1.264860	-0.203358	0.139643
C105	C	1.598193	0.129975	0.472976
C106	C	0.932198	-0.495463	-0.110611
C107	C	1.265532	-0.162130	0.222722
C108	C	1.598865	0.171203	0.556056
N109	N	0.934211	-0.374346	-0.043050
N110	N	1.267544	-0.041012	0.290284
N111	N	1.600877	0.292321	0.623617
N112	N	0.933602	-0.411162	-0.117217
N113	N	1.266935	-0.077829	0.216117
N114	N	1.600269	0.255504	0.549450
C115	C	1.078479	0.101325	-0.090802
C116	C	1.411812	0.434658	0.242531
C117	C	1.745146	0.767992	0.575864
C118	C	1.166253	0.102794	-0.097676
C119	C	1.499586	0.436128	0.235657
C120	C	1.832920	0.769461	0.568991
C121	C	0.927983	0.251815	-0.090818
C122	C	1.261317	0.585148	0.242515
C123	C	1.594650	0.918482	0.575848
C124	C	0.929448	0.339590	-0.097697
C125	C	1.262781	0.672924	0.235637
C126	C	1.596115	1.006257	0.568970
N127	N	0.933895	0.107235	0.166528
N128	N	1.267229	0.440568	0.499862
N129	N	1.600562	0.773902	0.833195
N130	N	0.933936	0.107252	-0.326793
N131	N	1.267269	0.440585	0.006541
N132	N	1.600602	0.773919	0.339874
C133	C	0.987724	0.053447	0.216350
C134	C	1.321058	0.386781	0.549683
C135	C	1.654391	0.720114	0.883017
C136	C	0.987730	0.053447	0.316007
C137	C	1.321063	0.386780	0.649340
C138	C	1.654396	0.720113	0.982674
C139	C	0.933909	0.107239	0.365841
C140	C	1.267243	0.440572	0.699174
C141	C	1.600576	0.773905	1.032507
C142	C	0.880075	0.161029	0.316012
C143	C	1.213408	0.494362	0.649346
C144	C	1.546741	0.827696	0.982679
C145	C	0.880066	0.161025	0.216357
C146	C	1.213400	0.494358	0.549691
C147	C	1.546733	0.827692	0.883024
C148	C	0.880098	0.161035	0.523724
C149	C	1.213431	0.494368	0.857058
C150	C	1.546764	0.827701	1.190391
C151	C	0.880107	0.161040	0.623386
C152	C	1.213440	0.494373	0.956719
C153	C	1.546774	0.827706	1.290053
C154	C	0.987761	0.053456	0.623374
C155	C	1.321094	0.386790	0.956707
C156	C	1.654428	0.720123	1.290041
C157	C	0.987752	0.053453	0.523719
C158	C	1.321086	0.386786	0.857053
C159	C	1.654419	0.720119	1.190386
C160	C	0.933919	0.107244	0.473898
C161	C	1.267252	0.440577	0.807231
C162	C	1.600585	0.773911	1.140564
H163	H	0.544284	0.109088	0.106313
H164	H	0.877617	0.442422	0.439646
H165	H	1.210950	0.775755	0.772979
Cl166	Cl	0.712177	0.111882	0.131378
Cl167	Cl	1.045511	0.445216	0.464711
Cl168	Cl	1.378844	0.778549	0.798044
Cl169	Cl	0.932332	-0.484881	0.083367
Cl170	Cl	1.265665	-0.151548	0.416700
Cl171	Cl	1.598998	0.181786	0.750034
H172	H	0.935768	-0.282365	-0.206836
H173	H	1.269102	0.050968	0.126497
H174	H	1.602435	0.384302	0.459831
H175	H	0.929598	-0.652742	-0.254876
H176	H	1.262931	-0.319409	0.078458
H177	H	1.596264	0.013925	0.411791
Cl178	Cl	0.812390	0.228644	0.153726
Cl179	Cl	1.145723	0.561978	0.487059
Cl180	Cl	1.479056	0.895311	0.820393
H181	H	1.031581	0.009655	0.483144
H182	H	1.364914	0.342989	0.816478
H183	H	1.698247	0.676322	1.149811
H184	H	0.935723	-0.282396	0.106325
H185	H	1.269057	0.050937	0.439658
H186	H	1.602390	0.384271	0.772992
Cl187	Cl	0.938523	-0.114505	0.131403
Cl188	Cl	1.271857	0.218828	0.464736
Cl189	Cl	1.605190	0.552161	0.798070
Cl190	Cl	0.929255	-0.671030	0.097941
Cl191	Cl	1.262588	-0.337697	0.431275
Cl192	Cl	1.595921	-0.004364	0.764608
H193	H	1.031554	0.009647	0.175782
H194	H	1.364888	0.342981	0.509115
H195	H	1.698221	0.676314	0.842448
H196	H	0.932095	-0.503116	-0.266598
H197	H	1.265429	-0.169783	0.066735
H198	H	1.598762	0.163550	0.400068
Cl199	Cl	0.938581	-0.114485	-0.258212
Cl200	Cl	1.271914	0.218848	0.075121
Cl201	Cl	1.605247	0.552182	0.408455
H202	H	0.693905	0.111573	-0.218575
H203	H	1.027238	0.444907	0.114759
H204	H	1.360572	0.778240	0.448092
H205	H	0.323530	0.105412	0.046577
H206	H	0.656864	0.438745	0.379911
H207	H	0.990197	0.772079	0.713244
H208	H	1.031594	0.009658	0.663945
H209	H	1.364927	0.342991	0.997278
H210	H	1.698261	0.676324	1.330611
H211	H	1.031561	0.009648	0.356571
H212	H	1.364894	0.342982	0.689905
H213	H	1.698227	0.676315	1.023238
H214	H	0.836280	0.204842	0.663955
H215	H	1.169613	0.538175	0.997289
H216	H	1.502947	0.871508	1.330622
Cl217	Cl	0.812417	0.228658	0.461096
Cl218	Cl	1.145750	0.561992	0.794429
Cl219	Cl	1.479084	0.895325	1.127762
Cl220	Cl	0.341800	0.105713	-0.306241
Cl221	Cl	0.675133	0.439046	0.027092
Cl222	Cl	1.008466	0.772379	0.360426
H223	H	0.836249	0.204825	0.356593
H224	H	1.169583	0.538158	0.689926
H225	H	1.502916	0.871491	1.023260
H226	H	0.173908	0.102922	-0.254853
H227	H	0.507242	0.436255	0.078480
H228	H	0.840575	0.769588	0.411814
Cl229	Cl	0.526025	0.108787	-0.243634
Cl230	Cl	0.859358	0.442120	0.089699
Cl231	Cl	1.192692	0.775454	0.423033
H232	H	0.173913	0.102940	0.058306
H233	H	0.507247	0.436273	0.391639
H234	H	0.840580	0.769607	0.724972
