data_functionalizedCrystal
_audit_creation_method	'MofGen! by Chris Wilmer'
_symmetry_space_group_name_H-M	'P1'
_symmetry_Int_Tables_number	1
_symmetry_cell_setting	triclinic
loop_
_symmetry_equiv_pos_as_xyz
  x,y,z
_cell_length_a	8.634740
_cell_length_b	8.559649
_cell_length_c	7.681481
_cell_angle_alpha	85.069100
_cell_angle_beta	83.381072
_cell_angle_gamma	94.825514
loop_
_atom_site_label
_atom_site_type_symbol
_atom_site_fract_x
_atom_site_fract_y
_atom_site_fract_z
O1	O	1.969395	-0.524281	0.146407
O2	O	1.525523	-0.481379	0.146413
O3	O	1.786565	-0.276248	0.146408
O4	O	1.708353	-0.729412	0.146412
O5	O	1.818702	-0.250933	-0.146451
O6	O	1.557661	-0.456064	-0.146446
O7	O	2.001533	-0.498966	-0.146451
Zn8	Zn	1.784699	-0.473495	-0.192946
Zn9	Zn	1.742356	-0.506849	0.192908
O10	O	1.740491	-0.704096	-0.146446
C11	C	1.485293	-0.459002	-0.000016
C12	C	1.317541	-0.430024	-0.000013
C13	C	1.808560	-0.204973	-0.000018
C14	C	1.826202	-0.030310	-0.000009
C15	C	2.041763	-0.521342	-0.000019
C16	C	2.209513	-0.550321	-0.000010
N17	N	1.813609	-0.450733	-0.456281
C18	C	1.718495	-0.775371	-0.000016
C19	C	1.700852	-0.950036	-0.000014
N20	N	1.713461	-0.529601	0.456242
H21	H	2.245363	-0.675481	-0.000020
H22	H	1.580038	-0.014932	-0.000018
O23	O	1.970404	0.046911	0.000219
C24	C	2.035027	-0.007699	0.151920
H25	H	1.977721	-0.130555	0.202499
H26	H	2.013155	0.075823	0.258118
C27	C	2.282959	0.136674	0.043727
C28	C	2.212584	-0.014226	0.105841
H29	H	2.392485	0.132654	0.015308
H30	H	2.239420	0.173472	-0.058474
H31	H	2.264716	0.206260	0.132236
H32	H	2.230811	-0.083803	0.017326
H33	H	2.256130	-0.051035	0.208027
O34	O	1.591447	-0.625751	-0.454330
C35	C	1.502638	-0.695644	-0.575047
H36	H	1.578855	-0.695658	-0.706501
H37	H	1.398213	-0.625783	-0.594610
C38	C	1.350120	-0.866324	-0.341460
C39	C	1.443735	-0.866354	-0.502909
H40	H	1.313779	-0.971623	-0.296961
H41	H	1.409948	-0.819233	-0.260129
H42	H	1.263112	-0.808098	-0.357784
H43	H	1.530751	-0.924561	-0.486579
H44	H	1.383920	-0.913459	-0.584236
H45	H	1.915854	-0.370241	-0.531489
H46	H	2.281682	-0.304859	0.000032
