data_functionalizedCrystal
_audit_creation_method	'MofGen! by Chris Wilmer'
_symmetry_space_group_name_H-M	'P1'
_symmetry_Int_Tables_number	1
_symmetry_cell_setting	triclinic
loop_
_symmetry_equiv_pos_as_xyz
  x,y,z
_cell_length_a	15.944557
_cell_length_b	19.188924
_cell_length_c	14.421503
_cell_angle_alpha	89.999530
_cell_angle_beta	89.991071
_cell_angle_gamma	96.678333
loop_
_atom_site_label
_atom_site_type_symbol
_atom_site_fract_x
_atom_site_fract_y
_atom_site_fract_z
O1	O	-1.114168	0.090064	-0.077076
O2	O	-0.869577	0.101162	-0.077087
O3	O	-0.998934	-0.006024	-0.077070
O4	O	-0.984811	0.197251	-0.077093
O5	O	-0.998949	-0.006018	0.077153
O6	O	-0.869593	0.101169	0.077136
O7	O	-1.114183	0.090071	0.077147
Cu8	Cu	-0.991889	0.095621	0.091224
Cu9	Cu	-0.991871	0.095612	-0.091163
O10	O	-0.984827	0.197258	0.077131
C11	C	-0.838293	0.100704	0.000023
C12	C	-0.745052	0.099320	0.000019
C13	C	-0.474687	0.028744	0.000042
C14	C	-0.525148	0.062771	0.076080
C15	C	-0.409429	0.094386	0.000042
C16	C	-0.525113	0.062781	-0.075973
C17	C	-0.574332	0.096807	0.000029
C18	C	-0.458661	0.128395	0.076142
C19	C	-0.458623	0.128396	-0.075978
C20	C	-0.509051	0.162471	0.000078
C21	C	-0.314433	0.092990	0.000050
C22	C	-0.669326	0.098208	0.000028
C23	C	-0.998485	-0.032033	0.000042
C24	C	-0.997115	-0.109542	0.000045
C25	C	-0.996467	-0.145946	-0.084023
C26	C	-0.995168	-0.218772	-0.084030
C27	C	-0.994534	-0.255193	0.000035
C28	C	-0.995177	-0.218779	0.084114
C29	C	-0.996468	-0.145954	0.084118
N30	N	-1.040313	-0.374734	0.062605
N31	N	-1.039089	-0.443916	0.062595
C32	C	-0.990643	-0.474612	0.000026
N33	N	-0.943479	-0.433515	-0.062546
N34	N	-0.944707	-0.364327	-0.062539
C35	C	-0.993134	-0.334160	0.000039
C36	C	-0.988585	-0.589983	-0.084055
C37	C	-0.987281	-0.662810	-0.084059
C38	C	-0.987298	-0.662816	0.084088
C39	C	-0.988594	-0.589990	0.084089
C40	C	-0.989242	-0.553578	0.000015
C41	C	-0.145469	0.090520	0.000039
C42	C	-0.238714	0.091875	0.000051
C43	C	-0.985275	0.223266	0.000016
C44	C	-0.986645	0.300775	0.000007
N45	N	-0.991909	0.095626	0.219505
N46	N	-0.991858	0.095602	-0.219445
C47	C	-1.051736	0.046052	0.469141
C48	C	-0.975888	0.032488	0.530937
C49	C	-0.991890	0.095618	0.408666
C50	C	-1.067720	0.109141	0.530965
C51	C	-0.991879	0.095608	0.591388
C52	C	-0.916004	0.082022	0.469101
C53	C	-1.007886	0.158703	0.469123
C54	C	-0.931983	0.145165	0.530891
C55	C	-0.991898	0.095621	0.303405
C56	C	-0.991862	0.095605	0.696647
H57	H	-0.429754	0.156099	0.140497
H58	H	-0.986775	-0.692469	0.152535
N59	N	-0.561576	0.027992	0.156729
N60	N	-0.553853	-0.035284	0.170285
H61	H	-0.579577	-0.059850	0.227241
H62	H	-0.962347	-0.020866	0.558089
N63	N	-0.868433	0.197747	0.564716
N64	N	-0.888691	0.246542	0.614289
H65	H	-0.843809	0.283676	0.638182
H66	H	-1.021450	0.212040	0.441951
N67	N	-0.528206	0.233449	0.000127
N68	N	-0.503670	0.273521	0.065469
H69	H	-0.517197	0.323650	0.065506
H70	H	-0.989129	-0.560350	0.152546
H71	H	-0.554128	0.035045	-0.140254
N72	N	-1.148163	0.123510	0.565070
N73	N	-1.160834	0.126318	0.650454
H74	H	-1.217648	0.136462	0.674540
N75	N	-0.455307	-0.042173	0.000120
N76	N	-0.480731	-0.082633	-0.064498
H77	H	-0.467042	-0.132717	-0.064441
N78	N	-0.986630	-0.699984	-0.169948
N79	N	-1.045971	-0.698277	-0.226224
H80	H	-1.045514	-0.724530	-0.286888
N81	N	-0.422178	0.163136	-0.156638
N82	N	-0.443652	0.140739	-0.235535
H83	H	-0.417913	0.165270	-0.292509
N84	N	-0.994546	-0.255980	0.169985
N85	N	-1.053890	-0.254282	0.226280
H86	H	-1.053442	-0.280554	0.286930
N87	N	-0.835533	0.067593	0.435148
N88	N	-0.822560	0.065246	0.349784
H89	H	-0.765729	0.055055	0.325802
H90	H	-0.996992	-0.116304	-0.152482
N91	N	-1.115160	-0.006547	0.435102
N92	N	-1.173750	0.010533	0.385538
H93	H	-1.218540	-0.026615	0.361495
N94	N	-0.994503	-0.255958	-0.169915
N95	N	-0.995078	-0.223438	-0.244971
H96	H	-0.994609	-0.249698	-0.305629
H97	H	-0.996992	-0.116313	0.152578
H98	H	-0.989108	-0.560334	-0.152513
