data_functionalizedCrystal
_audit_creation_method	'MofGen! by Chris Wilmer'
_symmetry_space_group_name_H-M	'P1'
_symmetry_Int_Tables_number	1
_symmetry_cell_setting	triclinic
loop_
_symmetry_equiv_pos_as_xyz
  x,y,z
_cell_length_a	12.759401
_cell_length_b	11.169416
_cell_length_c	11.169409
_cell_angle_alpha	89.969184
_cell_angle_beta	89.979157
_cell_angle_gamma	90.010767
loop_
_atom_site_label
_atom_site_type_symbol
_atom_site_fract_x
_atom_site_fract_y
_atom_site_fract_z
Zn1	Zn	1.606310	-0.477697	-0.678564
Zn2	Zn	1.606211	-0.678437	-0.477886
Zn3	Zn	1.430605	-0.477768	-0.477897
Zn4	Zn	1.430614	-0.678338	-0.678530
O5	O	1.518435	-0.578060	-0.578219
O6	O	1.753318	-0.504337	-0.651953
O7	O	1.582872	-0.651889	-0.309938
O8	O	1.453951	-0.309809	-0.504535
O9	O	1.753245	-0.651820	-0.504516
O10	O	1.583040	-0.309757	-0.651964
O11	O	1.453855	-0.504459	-0.309946
O12	O	1.283586	-0.504363	-0.504502
O13	O	1.453966	-0.651651	-0.846484
O14	O	1.283592	-0.651721	-0.651906
O15	O	1.583049	-0.504241	-0.846509
O16	O	1.582880	-0.846374	-0.504483
O17	O	1.453870	-0.846301	-0.651895
C18	C	1.245468	-0.578040	-0.578202
C19	C	1.128691	-0.578060	-0.578223
C20	C	1.518394	-0.889885	-0.578210
C21	C	1.518472	-1.023285	-0.578246
C22	C	1.073868	-0.501404	-0.655112
C23	C	0.964144	-0.501416	-0.655120
C24	C	0.964076	-0.654750	-0.501347
C25	C	1.073798	-0.654731	-0.501334
C26	C	0.814216	-0.359948	-0.698258
C27	C	0.759389	-0.283303	-0.775166
C28	C	0.795048	-0.265004	-0.892300
C29	C	0.885533	-0.323368	-0.932550
C30	C	0.940354	-0.400022	-0.855649
C31	C	0.904696	-0.418298	-0.738498
C32	C	1.223728	-0.796201	-0.458209
C33	C	1.278552	-0.872862	-0.381313
C34	C	1.242895	-0.891173	-0.264176
C35	C	1.152406	-0.832830	-0.223931
C36	C	1.097583	-0.756169	-0.300827
C37	C	1.133248	-0.737856	-0.417962
C38	C	1.792469	-0.578082	-0.578237
C39	C	1.909245	-0.578091	-0.578244
C40	C	1.518519	-0.577927	-0.891262
C41	C	1.518555	-0.577871	-1.024662
C42	C	1.518506	-0.265018	-0.578255
C43	C	1.518536	-0.131618	-0.578270
C44	C	1.518412	-0.578106	-0.266394
C45	C	1.518579	-0.577825	-0.132995
H46	H	1.014029	-0.447535	-0.888417
H47	H	0.919369	-0.717174	-0.438748
C48	C	0.998050	-0.691977	-0.256555
C49	C	0.958822	-0.712108	-0.127705
C50	C	0.859293	-0.647915	-0.083435
C51	C	0.798992	-0.563590	-0.168014
C52	C	0.838219	-0.543455	-0.296871
C53	C	0.937748	-0.607648	-0.341142
H54	H	1.003462	-0.774534	-0.065088
H55	H	0.830255	-0.662820	0.011954
H56	H	0.725314	-0.516070	-0.135242
H57	H	0.793580	-0.481029	-0.359489
H58	H	0.966786	-0.592742	-0.436531
H59	H	1.118559	-0.438969	-0.717717
C60	C	1.262955	-0.776056	-0.587065
C61	C	1.202658	-0.691728	-0.671645
C62	C	1.241885	-0.671589	-0.800501
C63	C	1.341409	-0.735778	-0.844776
C64	C	1.401712	-0.820111	-0.760194
C65	C	1.362485	-0.840250	-0.631338
H66	H	1.128979	-0.644207	-0.638872
H67	H	1.197244	-0.609160	-0.863114
H68	H	1.370446	-0.720870	-0.940162
H69	H	1.475390	-0.867632	-0.792967
H70	H	1.407126	-0.902679	-0.568726
H71	H	0.914553	-0.308473	-1.027937
H72	H	1.123369	-0.847746	-0.128551
H73	H	1.287522	-0.953631	-0.201582
H74	H	1.352243	-0.920351	-0.414085
H75	H	0.750400	-0.202597	-0.954918
H76	H	0.785181	-0.374827	-0.602874
H77	H	0.685715	-0.235783	-0.742383
