data_functionalizedCrystal
_audit_creation_method	'MofGen! by Chris Wilmer'
_symmetry_space_group_name_H-M	'P1'
_symmetry_Int_Tables_number	1
_symmetry_cell_setting	triclinic
loop_
_symmetry_equiv_pos_as_xyz
  x,y,z
_cell_length_a	16.625548
_cell_length_b	19.120786
_cell_length_c	16.625539
_cell_angle_alpha	87.528626
_cell_angle_beta	89.979432
_cell_angle_gamma	92.466188
loop_
_atom_site_label
_atom_site_type_symbol
_atom_site_fract_x
_atom_site_fract_y
_atom_site_fract_z
Zn1	Zn	1.218970	-0.279609	-0.442197
Zn2	Zn	1.552303	0.053724	-0.108863
Zn3	Zn	1.885637	0.387057	0.224470
Zn4	Zn	1.213114	-0.397074	-0.301603
Zn5	Zn	1.546447	-0.063741	0.031730
Zn6	Zn	1.879780	0.269593	0.365064
Zn7	Zn	1.084131	-0.279636	-0.307376
Zn8	Zn	1.417464	0.053697	0.025957
Zn9	Zn	1.750797	0.387030	0.359291
Zn10	Zn	1.078345	-0.397034	-0.436395
Zn11	Zn	1.411678	-0.063700	-0.103062
Zn12	Zn	1.745011	0.269633	0.230272
O13	O	1.148640	-0.338338	-0.371893
O14	O	1.481973	-0.005005	-0.038559
O15	O	1.815306	0.328328	0.294774
O16	O	1.331025	-0.295197	-0.423559
O17	O	1.664359	0.038136	-0.090225
O18	O	1.997692	0.371470	0.243108
O19	O	1.195974	-0.381524	-0.189535
O20	O	1.529308	-0.048190	0.143798
O21	O	1.862641	0.285143	0.477132
O22	O	1.106890	-0.181342	-0.330104
O23	O	1.440223	0.151991	0.003229
O24	O	1.773556	0.485325	0.336563
O25	O	1.326723	-0.381498	-0.320265
O26	O	1.660056	-0.048164	0.013068
O27	O	1.993389	0.285169	0.346401
O28	O	1.205956	-0.181323	-0.429156
O29	O	1.539289	0.152011	-0.095823
O30	O	1.872622	0.485344	0.237510
O31	O	1.101211	-0.295243	-0.193776
O32	O	1.434544	0.038091	0.139557
O33	O	1.767878	0.371424	0.472890
O34	O	0.970531	-0.295204	-0.324478
O35	O	1.303864	0.038130	0.008855
O36	O	1.637198	0.371463	0.342188
O37	O	1.097028	-0.381429	-0.549998
O38	O	1.430362	-0.048096	-0.216665
O39	O	1.763695	0.285238	0.116668
O40	O	0.966280	-0.381455	-0.419268
O41	O	1.299613	-0.048122	-0.085935
O42	O	1.632947	0.285212	0.247399
O43	O	1.200345	-0.295158	-0.554261
O44	O	1.533679	0.038175	-0.220928
O45	O	1.867012	0.371509	0.112406
O46	O	1.190364	-0.495359	-0.314640
O47	O	1.523697	-0.162026	0.018694
O48	O	1.857030	0.171308	0.352027
O49	O	1.091350	-0.495329	-0.413671
O50	O	1.424683	-0.161996	-0.080337
O51	O	1.758016	0.171337	0.252996
C52	C	0.939149	-0.338328	-0.371871
C53	C	1.272483	-0.004995	-0.038537
C54	C	1.605816	0.328338	0.294796
C55	C	0.849528	-0.338341	-0.371879
C56	C	1.182861	-0.005008	-0.038546
C57	C	1.516194	0.328326	0.294787
C58	C	1.139615	-0.520830	-0.362917
C59	C	1.472948	-0.187497	-0.029583
C60	C	1.806282	0.145837	0.303750
C61	C	1.135828	-0.598901	-0.359104
C62	C	1.469161	-0.265567	-0.025770
C63	C	1.802495	0.067766	0.307563
C64	C	0.521352	-0.338345	-0.371914
C65	C	0.854685	-0.005012	-0.038580
C66	C	1.188018	0.328321	0.294753
C67	C	0.612660	-0.338342	-0.371902
C68	C	0.945994	-0.005009	-0.038568
C69	C	1.279327	0.328324	0.294765
C70	C	0.685437	-0.338344	-0.371896
C71	C	1.018770	-0.005010	-0.038563
C72	C	1.352103	0.328323	0.294771
C73	C	0.776751	-0.338340	-0.371885
C74	C	1.110085	-0.005006	-0.038552
C75	C	1.443418	0.328327	0.294781
C76	C	1.185589	-0.635508	-0.408925
C77	C	1.518922	-0.302174	-0.075592
C78	C	1.852256	0.031159	0.257741
C79	C	1.182027	-0.708863	-0.405344
C80	C	1.515361	-0.375530	-0.072011
C81	C	1.848694	-0.042197	0.261323
C82	C	1.128709	-0.745611	-0.351936
C83	C	1.462042	-0.412277	-0.018603
C84	C	1.795375	-0.078944	0.314730
C85	C	1.078942	-0.708998	-0.302113
C86	C	1.412276	-0.375665	0.031221
C87	C	1.745609	-0.042332	0.364554
C88	C	1.082500	-0.635644	-0.305699
C89	C	1.415834	-0.302311	0.027635
C90	C	1.749167	0.031023	0.360968
C91	C	1.115383	-0.967097	-0.338531
C92	C	1.448717	-0.633763	-0.005198
C93	C	1.782050	-0.300430	0.328136
C94	C	1.111831	-1.040456	-0.334947
C95	C	1.445164	-0.707123	-0.001614
C96	C	1.778498	-0.373790	0.331720
C97	C	1.214915	-1.040316	-0.438180
C98	C	1.548249	-0.706983	-0.104847
C99	C	1.881582	-0.373650	0.228487
C100	C	1.218472	-0.966960	-0.441758
C101	C	1.551805	-0.633627	-0.108424
C102	C	1.885139	-0.300294	0.224909
C103	C	1.168703	-0.930355	-0.391937
C104	C	1.502036	-0.597021	-0.058604
C105	C	1.835370	-0.263688	0.274730
C106	C	1.125069	-0.820592	-0.348273
C107	C	1.458402	-0.487259	-0.014939
C108	C	1.791735	-0.153925	0.318394
C109	C	1.172339	-0.855375	-0.395605
C110	C	1.505673	-0.522041	-0.062272
C111	C	1.839006	-0.188708	0.271061
C112	C	1.358948	-0.338349	-0.371915
C113	C	1.692281	-0.005016	-0.038582
C114	C	2.025615	0.328318	0.294751
C115	C	1.448569	-0.338353	-0.371925
C116	C	1.781902	-0.005020	-0.038591
C117	C	2.115236	0.328313	0.294742
C118	C	1.148695	-0.338286	-0.582204
C119	C	1.482028	-0.004953	-0.248871
C120	C	1.815361	0.328381	0.084462
C121	C	1.148718	-0.338264	-0.671826
C122	C	1.482051	-0.004930	-0.338493
C123	C	1.815385	0.328403	-0.005160
C124	C	1.157722	-0.155134	-0.380921
C125	C	1.491055	0.178199	-0.047588
C126	C	1.824388	0.511533	0.285745
C127	C	1.161592	-0.077063	-0.384769
C128	C	1.494925	0.256270	-0.051435
C129	C	1.828258	0.589603	0.281898
C130	C	1.148759	-0.338185	-1.000006
C131	C	1.482092	-0.004852	-0.666673
C132	C	1.815426	0.328482	-0.333339
C133	C	1.148745	-0.338209	-0.908696
C134	C	1.482079	-0.004876	-0.575363
C135	C	1.815412	0.328458	-0.242030
C136	C	1.148739	-0.338225	-0.835919
C137	C	1.482072	-0.004892	-0.502586
C138	C	1.815406	0.328442	-0.169253
C139	C	1.148724	-0.338248	-0.744604
C140	C	1.482058	-0.004915	-0.411270
C141	C	1.815391	0.328419	-0.077937
C142	C	1.148634	-0.338340	-0.162402
C143	C	1.481967	-0.005006	0.170932
C144	C	1.815300	0.328327	0.504265
C145	C	1.148776	-0.338164	-0.072790
C146	C	1.482110	-0.004831	0.260544
C147	C	1.815443	0.328503	0.593877
H148	H	1.229010	-0.605593	-0.452412
H149	H	1.562344	-0.272260	-0.119079
H150	H	1.895677	0.061074	0.214255
H151	H	1.222554	-0.738666	-0.445908
H152	H	1.555887	-0.405332	-0.112575
H153	H	1.889221	-0.071999	0.220759
H154	H	1.041979	-0.605839	-0.265130
H155	H	1.375312	-0.272506	0.068204
H156	H	1.708646	0.060828	0.401537
Cl157	Cl	1.277475	-1.086339	-0.500811
Cl158	Cl	1.610808	-0.753006	-0.167478
Cl159	Cl	1.944141	-0.419672	0.165856
Cl160	Cl	1.052809	-0.921088	-0.275906
Cl161	Cl	1.386142	-0.587754	0.057428
Cl162	Cl	1.719475	-0.254421	0.390761
Cl163	Cl	1.285503	-0.920769	-0.508903
Cl164	Cl	1.618836	-0.587436	-0.175569
Cl165	Cl	1.952170	-0.254103	0.157764
H166	H	1.215749	-0.825453	-0.439093
H167	H	1.549082	-0.492120	-0.105760
H168	H	1.882415	-0.158786	0.227574
H169	H	1.068408	-1.070374	-0.291455
H170	H	1.401742	-0.737041	0.041878
H171	H	1.735075	-0.403707	0.375211
H172	H	1.035526	-0.738924	-0.258630
H173	H	1.368859	-0.405590	0.074703
H174	H	1.702192	-0.072257	0.408036
Cl175	Cl	1.058037	-0.866794	-0.281138
Cl176	Cl	1.391370	-0.533461	0.052195
Cl177	Cl	1.724703	-0.200128	0.385528
