data_functionalizedCrystal
_audit_creation_method	'MofGen! by Chris Wilmer'
_symmetry_space_group_name_H-M	'P1'
_symmetry_Int_Tables_number	1
_symmetry_cell_setting	triclinic
loop_
_symmetry_equiv_pos_as_xyz
  x,y,z
_cell_length_a	12.759401
_cell_length_b	19.805405
_cell_length_c	12.759393
_cell_angle_alpha	89.962372
_cell_angle_beta	89.981504
_cell_angle_gamma	90.026572
loop_
_atom_site_label
_atom_site_type_symbol
_atom_site_fract_x
_atom_site_fract_y
_atom_site_fract_z
Zn1	Zn	1.606170	-0.269420	-0.593937
Zn2	Zn	1.606028	-0.382625	-0.418239
Zn3	Zn	1.430472	-0.269456	-0.418276
Zn4	Zn	1.430425	-0.382573	-0.593880
O5	O	1.518274	-0.326019	-0.506083
O6	O	1.753172	-0.284444	-0.570638
O7	O	1.582701	-0.367650	-0.271222
O8	O	1.453858	-0.174735	-0.441618
O9	O	1.753068	-0.367615	-0.441553
O10	O	1.582942	-0.174708	-0.570675
O11	O	1.453720	-0.284505	-0.271250
O12	O	1.283445	-0.284454	-0.441563
O13	O	1.453777	-0.367527	-0.740909
O14	O	1.283410	-0.367561	-0.570578
O15	O	1.582896	-0.284394	-0.740951
O16	O	1.582655	-0.477335	-0.441498
O17	O	1.453640	-0.477297	-0.570541
C18	C	1.245306	-0.326006	-0.506069
C19	C	1.128530	-0.326017	-0.506088
C20	C	1.073677	-0.369360	-0.573155
C21	C	0.963953	-0.369369	-0.573166
C22	C	0.963944	-0.282689	-0.439034
C23	C	1.073666	-0.282678	-0.439029
C24	C	1.073681	-0.419406	-0.650592
C25	C	0.963957	-0.419414	-0.650603
C26	C	1.518155	-0.501875	-0.506032
C27	C	1.518201	-0.577107	-0.506046
C28	C	1.585444	-0.612448	-0.438923
C29	C	1.585489	-0.683137	-0.438946
C30	C	1.518284	-0.718482	-0.506088
C31	C	1.451038	-0.683136	-0.573217
C32	C	1.450999	-0.612449	-0.573199
C33	C	1.451193	-0.968209	-0.573295
C34	C	1.451234	-1.038901	-0.573306
C35	C	1.585683	-1.038897	-0.439043
C36	C	1.585644	-0.968210	-0.439024
C37	C	1.518402	-0.932870	-0.506157
C38	C	1.518356	-0.856221	-0.506133
C39	C	1.518324	-0.795129	-0.506108
C40	C	1.792307	-0.326032	-0.506098
C41	C	1.909084	-0.326037	-0.506104
C42	C	1.518347	-0.325950	-0.780117
C43	C	1.518379	-0.325921	-0.896893
C44	C	1.518421	-0.149476	-0.506157
C45	C	1.518484	-0.074244	-0.506189
C46	C	1.585620	-0.282630	-0.951779
C47	C	1.585645	-0.282605	-1.061503
C48	C	1.451184	-0.369170	-1.061446
C49	C	1.451154	-0.369190	-0.951724
C50	C	1.663254	-0.232655	-0.951812
C51	C	1.663279	-0.232630	-1.061537
C52	C	1.518261	-0.326038	-0.233116
C53	C	1.518433	-0.325876	-0.116340
H54	H	1.640166	-0.583675	-0.384245
C55	C	1.659452	-0.722010	-0.365107
H56	H	1.699460	-0.690835	-0.325108
H57	H	1.705227	-0.749539	-0.405337
H58	H	1.619292	-0.749630	-0.319302
C59	C	1.623929	-0.165363	-1.107557
H60	H	1.625262	-0.167648	-1.181917
H61	H	1.667987	-0.129639	-1.084610
H62	H	1.554230	-0.157317	-1.084550
C63	C	1.134006	-0.234995	-0.365269
H64	H	1.207210	-0.241189	-0.374876
H65	H	1.115995	-0.244840	-0.294648
H66	H	1.116048	-0.189531	-0.380795
H67	H	1.396450	-0.404396	-1.106103
H68	H	1.641502	-0.180237	-0.922065
H69	H	1.107680	-0.469175	-0.621299
H70	H	1.396509	-1.067677	-0.627989
C71	C	1.767633	-0.258031	-0.905820
H72	H	1.814138	-0.269314	-0.961265
H73	H	1.755106	-0.296857	-0.863891
H74	H	1.798061	-0.223568	-0.863941
H75	H	1.744645	-0.246670	-1.091313
C76	C	1.659572	-0.929333	-0.365173
H77	H	1.699635	-0.960506	-0.325207
H78	H	1.619397	-0.901801	-0.319354
H79	H	1.705314	-0.901716	-0.405407
C80	C	1.659656	-1.077773	-0.365204
H81	H	1.650065	-1.124934	-0.374834
H82	H	1.644308	-1.066234	-0.294598
H83	H	1.730236	-1.066141	-0.380641
C84	C	0.918029	-0.394139	-0.755097
H85	H	0.973502	-0.382881	-0.801626
H86	H	0.876139	-0.355313	-0.742728
H87	H	0.876120	-0.428637	-0.785409
C88	C	0.903595	-0.235021	-0.365272
H89	H	0.951981	-0.209202	-0.325333
H90	H	0.860758	-0.260878	-0.319424
H91	H	0.860828	-0.205562	-0.405559
C92	C	1.113964	-0.400517	-0.760560
H93	H	1.056073	-0.392749	-0.805788
H94	H	1.155318	-0.436409	-0.787490
H95	H	1.155341	-0.360726	-0.756241
H96	H	0.934145	-0.471823	-0.628662
C97	C	1.377211	-0.929343	-0.647120
H98	H	1.337183	-0.960520	-0.687095
H99	H	1.417347	-0.901719	-0.692932
H100	H	1.331440	-0.901818	-0.606868
C101	C	1.377111	-0.722014	-0.647069
H102	H	1.386755	-0.769174	-0.637459
H103	H	1.392438	-0.710386	-0.717671
H104	H	1.306520	-0.710472	-0.631619
H105	H	1.396396	-0.404440	-0.907040
C106	C	1.377033	-0.573573	-0.647035
H107	H	1.337008	-0.604746	-0.687020
H108	H	1.417187	-0.545954	-0.692837
H109	H	1.331257	-0.546042	-0.606797
