data_functionalizedCrystal
_audit_creation_method	'MofGen! by Chris Wilmer'
_symmetry_space_group_name_H-M	'P1'
_symmetry_Int_Tables_number	1
_symmetry_cell_setting	triclinic
loop_
_symmetry_equiv_pos_as_xyz
  x,y,z
_cell_length_a	21.395362
_cell_length_b	12.759394
_cell_length_c	21.395355
_cell_angle_alpha	89.985423
_cell_angle_beta	89.956060
_cell_angle_gamma	90.030716
loop_
_atom_site_label
_atom_site_type_symbol
_atom_site_fract_x
_atom_site_fract_y
_atom_site_fract_z
Zn1	Zn	0.957929	-0.417943	-0.354603
Zn2	Zn	0.957860	-0.593608	-0.249833
Zn3	Zn	0.853143	-0.417992	-0.249804
Zn4	Zn	0.853142	-0.593629	-0.354537
O5	O	0.905518	-0.505793	-0.302194
O6	O	1.045597	-0.441216	-0.340744
O7	O	0.943941	-0.570323	-0.162151
O8	O	0.867073	-0.270964	-0.263721
O9	O	1.045547	-0.570276	-0.263770
O10	O	0.944058	-0.270928	-0.340717
O11	O	0.867006	-0.441299	-0.162130
O12	O	0.765465	-0.441320	-0.263658
O13	O	0.867070	-0.570313	-0.442224
O14	O	0.765464	-0.570360	-0.340605
O15	O	0.944056	-0.441237	-0.442272
O16	O	0.943940	-0.740632	-0.263706
O17	O	0.867003	-0.740647	-0.340632
C18	C	0.742731	-0.505848	-0.302121
C19	C	0.673089	-0.505897	-0.302105
C20	C	0.640392	-0.573178	-0.342112
C21	C	0.574957	-0.573152	-0.342139
C22	C	0.542221	-0.505857	-0.302150
C23	C	0.574927	-0.438564	-0.262141
C24	C	0.640361	-0.438584	-0.262118
C25	C	0.438495	-0.497393	-0.245744
C26	C	0.373062	-0.497380	-0.245766
C27	C	0.340401	-0.505788	-0.302219
C28	C	0.373180	-0.514231	-0.358653
C29	C	0.438614	-0.514252	-0.358631
C30	C	0.471269	-0.505827	-0.302170
C31	C	0.236751	-0.573044	-0.342259
C32	C	0.171314	-0.573011	-0.342288
C33	C	0.171285	-0.438429	-0.262284
C34	C	0.236720	-0.438456	-0.262260
C35	C	0.269449	-0.505770	-0.302247
C36	C	0.905481	-0.778760	-0.302179
C37	C	0.905522	-0.895537	-0.302193
C38	C	0.985696	-0.895467	-0.222150
C39	C	1.025799	-0.950293	-0.182136
C40	C	1.025836	-1.060015	-0.182153
C41	C	0.985766	-1.114913	-0.222190
C42	C	0.945663	-1.060087	-0.262204
C43	C	0.945629	-0.950363	-0.262182
C44	C	0.865493	-1.060157	-0.342250
C45	C	0.865453	-0.950435	-0.342230
C46	C	0.825424	-1.115055	-0.382286
C47	C	0.785317	-1.060229	-0.422298
C48	C	0.785281	-0.950501	-0.422279
C49	C	0.825349	-0.895609	-0.382244
C50	C	1.068942	-0.505738	-0.302267
C51	C	1.138583	-0.505714	-0.302299
C52	C	0.905570	-0.505772	-0.465618
C53	C	0.905593	-0.505762	-0.535259
C54	C	0.905573	-0.231759	-0.302223
C55	C	0.905597	-0.114983	-0.302235
C56	C	0.945678	-0.438550	-0.567998
C57	C	0.945677	-0.438505	-0.633433
C58	C	0.905597	-0.505691	-0.666127
C59	C	0.865505	-0.572908	-0.633380
C60	C	0.865502	-0.572944	-0.567946
C61	C	0.900637	-0.600292	-0.769795
C62	C	0.900644	-0.600258	-0.835228
C63	C	0.905601	-0.505580	-0.867948
C64	C	0.910565	-0.410933	-0.835227
C65	C	0.910563	-0.410968	-0.769793
C66	C	0.905595	-0.505659	-0.737080
C67	C	0.945688	-0.438313	-0.971640
C68	C	0.945682	-0.438266	-1.037076
C69	C	0.865513	-0.572679	-1.037022
C70	C	0.865515	-0.572716	-0.971586
C71	C	0.905606	-0.505535	-0.938899
C72	C	0.905503	-0.505738	-0.139407
C73	C	0.905602	-0.505451	-0.069766
H74	H	0.465083	-0.490542	-0.199770
H75	H	1.058494	-1.104654	-0.149573
Cl76	Cl	0.331861	-0.486765	-0.174821
H77	H	0.144633	-0.383631	-0.229726
Cl78	Cl	0.734954	-1.129248	-0.472629
H79	H	0.667036	-0.627988	-0.374673
H80	H	0.985805	-1.204254	-0.222206
Cl81	Cl	0.894423	-0.719331	-0.728668
H82	H	0.752627	-0.905868	-0.454866
H83	H	0.548329	-0.627939	-0.374720
Cl84	Cl	0.815117	-0.657367	-0.674480
Cl85	Cl	0.825205	-1.252990	-0.382043
Cl86	Cl	0.479820	-0.524858	-0.429573
H87	H	0.346588	-0.521076	-0.404623
Cl88	Cl	0.825490	-0.757673	-0.382399
Cl89	Cl	0.996073	-0.354087	-0.526909
H90	H	0.978318	-0.383766	-0.660095
Cl91	Cl	0.815106	-0.657448	-0.526786
H92	H	0.548269	-0.383770	-0.229582
H93	H	1.058425	-0.905585	-0.149540
H94	H	0.914603	-0.333904	-0.743154
H95	H	0.914603	-0.333837	-0.861866
H96	H	0.263400	-0.627850	-0.374822
Cl97	Cl	0.996083	-0.353852	-0.930545
Cl98	Cl	0.130208	-0.657594	-0.392590
Cl99	Cl	0.996090	-0.353778	-1.078235
H100	H	0.832874	-0.627372	-1.063640
H101	H	0.263343	-0.383675	-0.229680
H102	H	0.832877	-0.627454	-0.944930
H103	H	0.985662	-0.806126	-0.222124
H104	H	0.666983	-0.383793	-0.229540
H105	H	0.896606	-0.677326	-0.861864
