data_functionalizedCrystal
_audit_creation_method	'MofGen! by Chris Wilmer'
_symmetry_space_group_name_H-M	'P1'
_symmetry_Int_Tables_number	1
_symmetry_cell_setting	triclinic
loop_
_symmetry_equiv_pos_as_xyz
  x,y,z
_cell_length_a	19.188930
_cell_length_b	19.188924
_cell_length_c	17.666332
_cell_angle_alpha	89.991448
_cell_angle_beta	89.976766
_cell_angle_gamma	83.143372
loop_
_atom_site_label
_atom_site_type_symbol
_atom_site_fract_x
_atom_site_fract_y
_atom_site_fract_z
O1	O	0.926147	0.087169	-0.063195
O2	O	0.722836	0.098903	-0.063144
O3	O	0.830361	-0.008620	-0.063162
O4	O	0.818622	0.194692	-0.063177
O5	O	0.830343	-0.008625	0.062735
O6	O	0.722817	0.098898	0.062753
O7	O	0.926129	0.087163	0.062702
Cu8	Cu	0.824471	0.093030	0.074223
Cu9	Cu	0.824493	0.093037	-0.074665
O10	O	0.818603	0.194687	0.062720
C11	C	0.696815	0.098521	-0.000189
C12	C	0.619311	0.097380	-0.000169
C13	C	0.829973	-0.034634	-0.000213
C14	C	0.828834	-0.112138	-0.000210
C15	C	0.574386	0.160471	-0.000185
C16	C	0.501562	0.159399	-0.000193
C17	C	0.473667	0.095233	-0.000200
C18	C	0.518602	0.032134	-0.000180
C19	C	0.591424	0.033207	-0.000164
N20	N	0.365694	0.046188	-0.043075
N21	N	0.296516	0.045172	-0.043092
C22	C	0.254258	0.091995	-0.000246
N23	N	0.283791	0.139882	0.042607
N24	N	0.352976	0.140899	0.042620
C25	C	0.394704	0.094062	-0.000217
C26	C	0.130368	0.153928	-0.000271
C27	C	0.057543	0.152854	-0.000274
C28	C	0.074585	0.025586	-0.000268
C29	C	0.147409	0.026663	-0.000257
C30	C	0.175295	0.090835	-0.000262
C31	C	0.828313	-0.148534	-0.068837
C32	C	0.827233	-0.221357	-0.068842
C33	C	0.826688	-0.257783	-0.000217
C34	C	0.827205	-0.221378	0.068418
C35	C	0.828278	-0.148556	0.068421
N36	N	0.864728	-0.377448	0.050849
N37	N	0.863710	-0.446627	0.050841
C38	C	0.823454	-0.477192	-0.000224
N39	N	0.784262	-0.435967	-0.051292
N40	N	0.785283	-0.366783	-0.051286
C41	C	0.825524	-0.336746	-0.000214
C42	C	0.821761	-0.592550	-0.068861
C43	C	0.820676	-0.665374	-0.068864
C44	C	0.820656	-0.665394	0.068399
C45	C	0.821734	-0.592571	0.068399
C46	C	0.822289	-0.556154	-0.000233
C47	C	0.952149	0.087546	-0.000255
C48	C	1.029654	0.088687	-0.000280
C49	C	0.818992	0.220700	-0.000231
C50	C	0.820131	0.298205	-0.000238
N51	N	0.824461	0.093025	0.178942
N52	N	0.824509	0.093036	-0.179384
C53	C	0.872088	0.045437	0.218544
C54	C	0.872092	0.045433	0.297791
C55	C	0.824475	0.093030	0.337434
C56	C	0.776839	0.140622	0.297823
C57	C	0.776831	0.140619	0.218577
N58	N	0.815398	0.154838	0.461850
N59	N	0.815409	0.154838	0.537130
C60	C	0.824494	0.093040	0.576198
N61	N	0.833581	0.031239	0.537142
N62	N	0.833573	0.031240	0.461855
C63	C	0.824478	0.093038	0.423363
C64	C	0.872128	0.045444	0.701729
C65	C	0.872128	0.045440	0.780978
C66	C	0.776878	0.140634	0.781009
C67	C	0.776875	0.140633	0.701761
C68	C	0.824504	0.093038	0.662126
H69	H	0.597086	0.212725	-0.000191
Br70	Br	0.036736	-0.061498	-0.000265
H71	H	0.738067	0.179375	0.330104
H72	H	0.183988	-0.024713	-0.000248
Br73	Br	0.819910	-0.714821	0.161534
Br74	Br	0.652399	-0.052423	-0.000140
Br75	Br	0.826522	-0.270762	-0.161985
Br76	Br	0.712189	0.205207	0.164827
H77	H	0.910909	0.006688	0.669457
H78	H	0.826760	-0.251040	0.124293
Br79	Br	0.936723	-0.019156	0.164753
H80	H	0.910910	0.006684	0.813223
Br81	Br	0.168219	0.241017	-0.000272
H82	H	0.828700	-0.118922	0.124307
H83	H	0.020965	0.204232	-0.000283
H84	H	0.828763	-0.118888	-0.124722
Br85	Br	0.440579	0.245029	-0.000211
Br86	Br	0.822438	-0.543173	0.161540
Br87	Br	0.936734	-0.019157	0.351546
H88	H	0.738104	0.179386	0.813285
Br89	Br	0.822511	-0.543122	-0.162001
H90	H	0.495885	-0.020111	-0.000196
Br91	Br	0.819961	-0.714769	-0.162008
Br92	Br	0.712237	0.205221	0.648010
