data_functionalizedCrystal
_audit_creation_method	'MofGen! by Chris Wilmer'
_symmetry_space_group_name_H-M	'P1'
_symmetry_Int_Tables_number	1
_symmetry_cell_setting	triclinic
loop_
_symmetry_equiv_pos_as_xyz
  x,y,z
_cell_length_a	21.395364
_cell_length_b	14.908579
_cell_length_c	21.395356
_cell_angle_alpha	86.726266
_cell_angle_beta	89.976444
_cell_angle_gamma	86.682172
loop_
_atom_site_label
_atom_site_type_symbol
_atom_site_fract_x
_atom_site_fract_y
_atom_site_fract_z
Zn1	Zn	0.943485	0.359284	-0.368672
Zn2	Zn	1.443485	0.859284	0.131328
Zn3	Zn	0.937356	0.510148	-0.269946
Zn4	Zn	1.437356	1.010148	0.230054
Zn5	Zn	0.838701	0.359297	-0.263910
Zn6	Zn	1.338701	0.859297	0.236090
Zn7	Zn	0.832639	0.510090	-0.374684
Zn8	Zn	1.332639	1.010090	0.125316
O9	O	0.888045	0.434704	-0.319303
O10	O	1.388045	0.934704	0.180697
O11	O	1.030349	0.379315	-0.355586
O12	O	1.530349	0.879315	0.144414
O13	O	0.924242	0.490167	-0.181469
O14	O	1.424242	0.990167	0.318531
O15	O	0.857703	0.233050	-0.272764
O16	O	1.357703	0.733050	0.227236
O17	O	1.025846	0.490155	-0.283053
O18	O	1.525846	0.990155	0.216947
O19	O	0.934688	0.233041	-0.349733
O20	O	1.434688	0.733041	0.150267
O21	O	0.851761	0.379337	-0.177034
O22	O	1.351761	0.879337	0.322966
O23	O	0.750220	0.379281	-0.278594
O24	O	1.250220	0.879281	0.221406
O25	O	0.847370	0.490055	-0.461563
O26	O	1.347370	0.990055	0.038437
O27	O	0.745766	0.490068	-0.359979
O28	O	1.245766	0.990068	0.140021
O29	O	0.928809	0.379258	-0.457146
O30	O	1.428809	0.879258	0.042854
O31	O	0.918363	0.636385	-0.288882
O32	O	1.418363	1.136385	0.211118
O33	O	0.841427	0.636342	-0.365833
O34	O	1.341427	1.136342	0.134167
C35	C	0.725259	0.434670	-0.319284
C36	C	1.225259	0.934670	0.180716
C37	C	0.655618	0.434677	-0.319292
C38	C	1.155618	0.934677	0.180708
C39	C	0.878589	0.669097	-0.328679
C40	C	1.378589	1.169097	0.171321
C41	C	0.874601	0.769372	-0.332710
C42	C	1.374601	1.269372	0.167290
C43	C	0.156159	0.377127	-0.357151
C44	C	0.656159	0.877127	0.142849
C45	C	0.221595	0.377120	-0.357150
C46	C	0.721595	0.877120	0.142850
C47	C	0.251977	0.434732	-0.319318
C48	C	0.751977	0.934732	0.180682
C49	C	0.216918	0.492372	-0.281496
C50	C	0.716918	0.992372	0.218504
C51	C	0.151483	0.492383	-0.281502
C52	C	0.651483	0.992383	0.218498
C53	C	0.355335	0.441731	-0.263132
C54	C	0.855335	0.941731	0.236868
C55	C	0.420768	0.441713	-0.263124
C56	C	0.920768	0.941713	0.236876
C57	C	0.453799	0.434702	-0.319300
C58	C	0.953799	0.934702	0.180700
C59	C	0.421389	0.427690	-0.375484
C60	C	0.921389	0.927690	0.124516
C61	C	0.355954	0.427701	-0.375490
C62	C	0.855954	0.927701	0.124510
C63	C	0.322930	0.434727	-0.319308
C64	C	0.822930	0.934727	0.180692
C65	C	0.559803	0.377063	-0.357123
C66	C	1.059803	0.877063	0.142877
C67	C	0.625240	0.377063	-0.357124
C68	C	1.125240	0.877063	0.142876
C69	C	0.620562	0.492310	-0.281463
C70	C	1.120562	0.992310	0.218537
C71	C	0.555126	0.492315	-0.281468
C72	C	1.055126	0.992315	0.218532
C73	C	0.524751	0.434687	-0.319297
C74	C	1.024751	0.934687	0.180703
C75	C	0.947303	0.957781	-0.260223
C76	C	1.447303	1.457781	0.239777
C77	C	0.943558	1.051998	-0.264009
C78	C	1.443558	1.551998	0.235991
C79	C	0.863370	1.052023	-0.344072
C80	C	1.363370	1.552023	0.155928
C81	C	0.867115	0.957807	-0.340286
C82	C	1.367115	1.457807	0.159714
C83	C	0.909082	0.910689	-0.298359
C84	C	1.409082	1.410689	0.201641
C85	C	0.912823	0.816471	-0.294570
C86	C	1.412823	1.316471	0.205430
C87	C	0.832639	0.816498	-0.374636
C88	C	1.332639	1.316498	0.125364
C89	C	0.828894	0.910714	-0.378422
C90	C	1.328894	1.410714	0.121578
C91	C	1.051467	0.434740	-0.319322
C92	C	1.551467	0.934740	0.180678
C93	C	1.121108	0.434755	-0.319331
C94	C	1.621108	0.934755	0.180669
C95	C	0.888097	0.434649	-0.482724
C96	C	1.388097	0.934649	0.017276
C97	C	0.888119	0.434625	-0.552364
C98	C	1.388119	0.934625	-0.052364
C99	C	0.897551	1.199396	-0.309913
C100	C	1.397551	1.699396	0.190087
C101	C	0.901592	1.099122	-0.305931
C102	C	1.401592	1.599122	0.194069
C103	C	0.850389	0.376909	-0.582758
C104	C	1.350389	0.876909	-0.082758
C105	C	0.850387	0.376892	-0.648193
C106	C	1.350387	0.876892	-0.148193
C107	C	0.888127	0.434582	-0.683231
C108	C	1.388127	0.934582	-0.183231
C109	C	0.925860	0.492309	-0.652830
C110	C	1.425860	0.992309	-0.152830
C111	C	0.925856	0.492330	-0.587397
C112	C	1.425856	0.992330	-0.087397
C113	C	0.944296	0.441681	-0.787202
C114	C	1.444296	0.941681	-0.287202
C115	C	0.944301	0.441653	-0.852634
C116	C	1.444301	0.941653	-0.352634
C117	C	0.888140	0.434521	-0.885050
C118	C	1.388140	0.934521	-0.385050
C119	C	0.831973	0.427398	-0.852024
C120	C	1.331973	0.927398	-0.352024
C121	C	0.831968	0.427419	-0.786591
C122	C	1.331968	0.927419	-0.286591
C123	C	0.888136	0.434565	-0.754183
C124	C	1.388136	0.934565	-0.254183
C125	C	0.850405	0.376784	-0.986395
C126	C	1.350405	0.876784	-0.486395
C127	C	0.850403	0.376774	-1.051831
C128	C	1.350403	0.876774	-0.551831
C129	C	0.925881	0.492185	-1.056467
C130	C	1.425881	0.992185	-0.556467
C131	C	0.925878	0.492200	-0.991032
C132	C	1.425878	0.992200	-0.491032
C133	C	0.888141	0.434495	-0.956000
C134	C	1.388141	0.934495	-0.456000
C135	C	0.888033	0.434695	-0.156515
C136	C	1.388033	0.934695	0.343485
C137	C	0.888142	0.434465	-0.086865
C138	C	1.388142	0.934465	0.413135
H139	H	0.131431	0.330205	-0.387957
H140	H	0.631431	0.830205	0.112043
O141	O	0.663046	0.314894	-0.397914
O142	O	1.163046	0.814894	0.102086
H143	H	0.649880	0.330441	-0.447695
H144	H	1.149880	0.830441	0.052305
H145	H	0.645298	0.539226	-0.250664
H146	H	1.145298	1.039226	0.249336
H147	H	0.819674	0.329778	-1.076576
H148	H	1.319674	0.829778	-0.576576
O149	O	0.771390	0.419736	-0.750975
O150	O	1.271390	0.919736	-0.250975
H151	H	0.762551	0.480174	-0.723570
H152	H	1.262551	0.980174	-0.223570
H153	H	0.990033	0.447481	-0.760815
H154	H	1.490033	0.947481	-0.260815
H155	H	0.946993	0.778108	-0.260430
H156	H	1.446993	1.278108	0.239570
O157	O	0.818111	1.102844	-0.389295
O158	O	1.318111	1.602844	0.110705
H159	H	0.769659	1.084825	-0.377780
H160	H	1.269659	1.584825	0.122220
O161	O	0.966589	0.554409	-1.094247
O162	O	1.466589	1.054409	-0.594247
H163	H	0.960257	0.544696	-1.144854
H164	H	1.460257	1.044696	-0.644854
H165	H	0.794727	0.949090	-0.412559
H166	H	1.294727	1.449090	0.087441
H167	H	0.956583	0.539328	-0.562651
H168	H	1.456583	1.039328	-0.062651
H169	H	0.956603	0.539197	-0.966285
H170	H	1.456603	1.039197	-0.466285
O171	O	0.791412	0.765708	-0.415775
O172	O	1.291412	1.265708	0.084225
H173	H	0.801068	0.692277	-0.406103
H174	H	1.301068	1.192277	0.093897
H175	H	0.974682	1.090337	-0.232956
H176	H	1.474682	1.590337	0.267044
H177	H	0.329568	0.421994	-0.421237
H178	H	0.829568	0.921994	0.078763
H179	H	0.328446	0.447444	-0.217384
H180	H	0.828446	0.947444	0.282616
H181	H	0.250139	0.330188	-0.387947
H182	H	0.750139	0.830188	0.112053
H183	H	0.526587	0.539239	-0.250668
H184	H	1.026587	1.039239	0.249332
O185	O	0.992563	0.906952	-0.215005
O186	O	1.492563	1.406952	0.284995
H187	H	1.018514	0.955528	-0.189123
H188	H	1.518514	1.455528	0.310877
O189	O	0.966566	0.554537	-0.690613
O190	O	1.466566	1.054537	-0.190613
H191	H	1.000084	0.514159	-0.718818
H192	H	1.500084	1.014159	-0.218818
H193	H	0.535070	0.330139	-0.387925
H194	H	1.035070	0.830139	0.112075
O195	O	0.457002	0.420135	-0.436081
O196	O	0.957002	0.920135	0.063919
H197	H	0.507947	0.421318	-0.426642
H198	H	1.007947	0.921318	0.073358
O199	O	0.455724	0.449280	-0.202531
O200	O	0.955724	0.949280	0.297469
H201	H	0.421764	0.454177	-0.163471
H202	H	0.921764	0.954177	0.336529
O203	O	0.249684	0.554503	-0.240684
O204	O	0.749684	1.054503	0.259316
H205	H	0.277670	0.600443	-0.270508
H206	H	0.777670	1.100443	0.229492
O207	O	0.113672	0.554531	-0.240701
O208	O	0.613672	1.054531	0.259299
H209	H	0.145789	0.594589	-0.214389
H210	H	0.645789	1.094589	0.285611
H211	H	0.819658	0.329924	-0.554239
H212	H	1.319658	0.829924	-0.054239
O213	O	0.809698	0.314632	-0.680987
O214	O	1.309698	0.814632	-0.180987
H215	H	0.783460	0.274506	-0.645633
H216	H	1.283460	0.774506	-0.145633
O217	O	0.771391	0.419713	-0.886975
O218	O	1.271391	0.919713	-0.386975
H219	H	0.780825	0.420908	-0.938023
H220	H	1.280825	0.920908	-0.438023
O221	O	0.809700	0.314558	-0.948603
O222	O	1.309700	0.814558	-0.448603
H223	H	0.783455	0.274431	-0.980734
H224	H	1.283455	0.774431	-0.480734
H225	H	0.990036	0.447448	-0.879518
H226	H	1.490036	0.947448	-0.379518
