data_functionalizedCrystal
_audit_creation_method	'MofGen! by Chris Wilmer'
_symmetry_space_group_name_H-M	'P1'
_symmetry_Int_Tables_number	1
_symmetry_cell_setting	triclinic
loop_
_symmetry_equiv_pos_as_xyz
  x,y,z
_cell_length_a	25.639239
_cell_length_b	25.639242
_cell_length_c	12.759393
_cell_angle_alpha	90.032150
_cell_angle_beta	89.964658
_cell_angle_gamma	89.966656
loop_
_atom_site_label
_atom_site_type_symbol
_atom_site_fract_x
_atom_site_fract_y
_atom_site_fract_z
Zn1	Zn	-0.208203	-0.799271	-0.594308
Zn2	Zn	0.291797	-0.299271	-0.094308
Zn3	Zn	-0.295647	-0.799181	-0.418611
Zn4	Zn	0.204353	-0.299181	0.081389
Zn5	Zn	-0.208220	-0.711834	-0.418607
Zn6	Zn	0.291780	-0.211834	0.081393
Zn7	Zn	-0.295601	-0.711792	-0.594212
Zn8	Zn	0.204399	-0.211792	-0.094212
O9	O	-0.251918	-0.755519	-0.506434
O10	O	0.248082	-0.255519	-0.006434
O11	O	-0.219815	-0.872424	-0.571043
O12	O	0.280185	-0.372424	-0.071043
O13	O	-0.284076	-0.787574	-0.271589
O14	O	0.215924	-0.287574	0.228411
O15	O	-0.135052	-0.723487	-0.441952
O16	O	0.364948	-0.223487	0.058048
O17	O	-0.284060	-0.872358	-0.441959
O18	O	0.215940	-0.372358	0.058041
O19	O	-0.135040	-0.787727	-0.571039
O20	O	0.364960	-0.287727	-0.071039
O21	O	-0.219843	-0.723400	-0.271586
O22	O	0.280157	-0.223400	0.228414
O23	O	-0.219799	-0.638663	-0.441860
O24	O	0.280201	-0.138663	0.058140
O25	O	-0.283982	-0.723417	-0.741246
O26	O	0.216018	-0.223417	-0.241246
O27	O	-0.283998	-0.638633	-0.570876
O28	O	0.216002	-0.138633	-0.070876
O29	O	-0.219771	-0.787687	-0.741316
O30	O	0.280229	-0.287687	-0.241316
O31	O	-0.368806	-0.787534	-0.441867
O32	O	0.131194	-0.287534	0.058133
O33	O	-0.368773	-0.723330	-0.570880
O34	O	0.131227	-0.223330	-0.070880
C35	C	-0.251895	-0.619677	-0.506358
C36	C	0.248105	-0.119677	-0.006358
C37	C	-0.251898	-0.561563	-0.506350
C38	C	0.248102	-0.061563	-0.006350
C39	C	-0.218432	-0.310376	-0.439345
C40	C	0.281568	0.189624	0.060655
C41	C	-0.218427	-0.364981	-0.439335
C42	C	0.281573	0.135019	0.060665
O43	O	-0.189943	-0.393223	-0.382320
O44	O	0.310057	0.106777	0.117680
N45	N	-0.251904	-0.392289	-0.506393
N46	N	0.248096	0.107711	-0.006393
C47	C	-0.285384	-0.364990	-0.573473
C48	C	0.214616	0.135010	-0.073473
O49	O	-0.313857	-0.393232	-0.630510
O50	O	0.186143	0.106768	-0.130510
C51	C	-0.285385	-0.310387	-0.573487
C52	C	0.214615	0.189613	-0.073487
C53	C	-0.251910	-0.283081	-0.506418
C54	C	0.248090	0.216919	-0.006418
C55	C	-0.184959	-0.283071	-0.372282
C56	C	0.315041	0.216929	0.127718
C57	C	-0.184964	-0.228470	-0.372291
C58	C	0.315036	0.271530	0.127709
C59	C	-0.218443	-0.201175	-0.439363
C60	C	0.281557	0.298825	0.060637
C61	C	-0.251915	-0.228481	-0.506427
C62	C	0.248085	0.271519	-0.006427
C63	C	-0.318862	-0.283089	-0.640572
C64	C	0.181138	0.216911	-0.140572
C65	C	-0.318860	-0.228482	-0.640581
C66	C	0.181140	0.271518	-0.140581
C67	C	-0.285385	-0.201176	-0.573511
C68	C	0.214615	0.298824	-0.073511
C69	C	-0.285399	-0.146585	-0.573508
C70	C	0.214601	0.353415	-0.073508
N71	N	-0.251922	-0.119277	-0.506450
N72	N	0.248078	0.380723	-0.006450
C73	C	-0.218444	-0.146572	-0.439378
C74	C	0.281556	0.353428	0.060622
C75	C	-0.285377	-0.479661	-0.573438
C76	C	0.214623	0.020339	-0.073438
C77	C	-0.285379	-0.534263	-0.573419
C78	C	0.214621	-0.034263	-0.073419
C79	C	-0.218421	-0.534250	-0.439283
C80	C	0.281579	-0.034250	0.060717
C81	C	-0.218423	-0.479647	-0.439297
C82	C	0.281577	0.020353	0.060703
C83	C	-0.251900	-0.452352	-0.506380
C84	C	0.248100	0.047648	-0.006380
C85	C	-0.218458	-0.031907	-0.439401
C86	C	0.281542	0.468093	0.060599
C87	C	-0.218468	0.022698	-0.439413
C88	C	0.281532	0.522698	0.060587
C89	C	-0.285423	0.022681	-0.573553
C90	C	0.214577	0.522681	-0.073553
C91	C	-0.285416	-0.031920	-0.573538
C92	C	0.214584	0.468080	-0.073538
C93	C	-0.251929	-0.059212	-0.506458
C94	C	0.248071	0.440788	-0.006458
O95	O	-0.313867	-0.118308	-0.630497
O96	O	0.186133	0.381692	-0.130497
O97	O	-0.189970	-0.118324	-0.382359
O98	O	0.310030	0.381676	0.117641
C99	C	-0.387760	-0.755431	-0.506386
C100	C	0.112240	-0.255431	-0.006386
C101	C	-0.445874	-0.755442	-0.506401
C102	C	0.054126	-0.255442	-0.006401
C103	C	-0.806243	-0.789038	-0.439372
C104	C	-0.306243	-0.289038	0.060628
C105	C	-0.860847	-0.789058	-0.439386
C106	C	-0.360847	-0.289058	0.060614
O107	O	-0.889088	-0.817531	-0.382342
O108	O	-0.389088	-0.317531	0.117658
N109	N	-0.888157	-0.755611	-0.506504
N110	N	-0.388157	-0.255611	-0.006504
C111	C	-0.860860	-0.722146	-0.573620
C112	C	-0.360860	-0.222146	-0.073620
O113	O	-0.889103	-0.693699	-0.630712
O114	O	-0.389103	-0.193699	-0.130712
C115	C	-0.806256	-0.722129	-0.573611
C116	C	-0.306256	-0.222129	-0.073611
C117	C	-0.778949	-0.755574	-0.506481
C118	C	-0.278949	-0.255574	-0.006481
C119	C	-0.778935	-0.822480	-0.372248
C120	C	-0.278935	-0.322480	0.127752
C121	C	-0.724335	-0.822459	-0.372232
C122	C	-0.224335	-0.322459	0.127768
C123	C	-0.697041	-0.788995	-0.439341
C124	C	-0.197041	-0.288995	0.060659
C125	C	-0.724349	-0.755553	-0.506465
C126	C	-0.224349	-0.255553	-0.006465
C127	C	-0.778960	-0.688666	-0.640732
C128	C	-0.278960	-0.188666	-0.140732
C129	C	-0.724353	-0.688652	-0.640717
C130	C	-0.224353	-0.188652	-0.140717
C131	C	-0.697046	-0.722097	-0.573587
C132	C	-0.197046	-0.222097	-0.073587
C133	C	-0.642455	-0.722068	-0.573559
C134	C	-0.142455	-0.222068	-0.073559
N135	N	-0.615145	-0.755514	-0.506441
N136	N	-0.115145	-0.255514	-0.006441
C137	C	-0.642438	-0.788978	-0.439332
C138	C	-0.142438	-0.288978	0.060668
C139	C	-0.975530	-0.722185	-0.573637
C140	C	-0.475530	-0.222185	-0.073637
C141	C	-1.030133	-0.722200	-0.573642
C142	C	-0.530133	-0.222200	-0.073642
C143	C	-1.030116	-0.789112	-0.439408
C144	C	-0.530116	-0.289112	0.060592
C145	C	-0.975513	-0.789095	-0.439398
C146	C	-0.475513	-0.289095	0.060602
C147	C	-0.948220	-0.755632	-0.506518
C148	C	-0.448220	-0.255632	-0.006518
C149	C	-0.527773	-0.788931	-0.439304
C150	C	-0.027773	-0.288931	0.060696
C151	C	-0.473168	-0.788906	-0.439292
C152	C	0.026832	-0.288906	0.060708
C153	C	-0.473189	-0.721995	-0.573529
C154	C	0.026811	-0.221995	-0.073529
C155	C	-0.527790	-0.722018	-0.573538
C156	C	-0.027790	-0.222018	-0.073538
C157	C	-0.555080	-0.755491	-0.506422
C158	C	-0.055080	-0.255491	-0.006422
O159	O	-0.614179	-0.693611	-0.630576
O160	O	-0.114179	-0.193611	-0.130576
O161	O	-0.614188	-0.817425	-0.382260
O162	O	-0.114188	-0.317425	0.117740
C163	C	-0.115545	-0.755622	-0.506506
C164	C	0.384455	-0.255622	-0.006506
C165	C	-0.057431	-0.755666	-0.506536
C166	C	0.442569	-0.255666	-0.006536
C167	C	-0.251869	-0.755557	-0.780468
C168	C	0.248131	-0.255557	-0.280468
C169	C	-0.251848	-0.755574	-0.897245
C170	C	0.248152	-0.255574	-0.397245
C171	C	-0.251940	0.108108	-0.506497
C172	C	0.248060	0.608108	-0.006497
C173	C	-0.251947	0.049994	-0.506485
C174	C	0.248053	0.549994	-0.006485
C175	C	-0.285256	-0.789003	-1.061844
C176	C	0.214744	-0.289003	-0.561844
C177	C	-0.285280	-0.788990	-0.952120
C178	C	0.214720	-0.288990	-0.452120
C179	C	-0.218393	-0.722164	-0.952100
C180	C	0.281607	-0.222164	-0.452100
C181	C	-0.218372	-0.722175	-1.061822
C182	C	0.281628	-0.222175	-0.561822
C183	C	-0.346975	-0.807609	-0.802156
C184	C	0.153025	-0.307609	-0.302156
C185	C	-0.380424	-0.841023	-0.747305
C186	C	0.119576	-0.341023	-0.247305
C187	C	-0.388454	-0.892037	-0.782950
C188	C	0.111546	-0.392037	-0.282950
C189	C	-0.363027	-0.909647	-0.873444
C190	C	0.136973	-0.409647	-0.373444
C191	C	-0.329574	-0.876236	-0.928290
C192	C	0.170426	-0.376236	-0.428290
C193	C	-0.321554	-0.825215	-0.892646
C194	C	0.178446	-0.325215	-0.392646
C195	C	-0.156676	-0.703561	-1.211788
C196	C	0.343324	-0.203561	-0.711788
C197	C	-0.123220	-0.670152	-1.266635
C198	C	0.376780	-0.170152	-0.766635
C199	C	-0.115185	-0.619137	-1.230992
C200	C	0.384815	-0.119137	-0.730992
C201	C	-0.140603	-0.601529	-1.140494
C202	C	0.359397	-0.101529	-0.640494
C203	C	-0.174059	-0.634938	-1.085647
C204	C	0.325941	-0.134938	-0.585647
C205	C	-0.182095	-0.685952	-1.121297
C206	C	0.317905	-0.185952	-0.621297
C207	C	-0.251929	-0.755512	-0.233467
C208	C	0.248071	-0.255512	0.266533
C209	C	-0.251802	-0.755597	-0.116691
C210	C	0.248198	-0.255597	0.383309
H211	H	-0.346121	-0.206262	-0.695213
H212	H	0.153879	0.293738	-0.195213
Cl213	Cl	-0.073120	-0.577140	-1.299938
Cl214	Cl	0.426880	-0.077140	-0.799938
Cl215	Cl	-0.327284	-0.831017	-1.130818
Cl216	Cl	0.172716	-0.331017	-0.630818
Cl217	Cl	-0.941226	-0.680109	-0.658016
Cl218	Cl	-0.441226	-0.180109	-0.158016
H219	H	-0.702104	-0.849695	-0.317572
H220	H	-0.202104	-0.349695	0.182428
H221	H	-0.312678	-0.054153	-0.628143
H222	H	0.187322	0.445847	-0.128143
H223	H	-0.801152	-0.849734	-0.317599
H224	H	-0.301152	-0.349734	0.182401
Cl225	Cl	-1.064438	-0.831181	-0.355040
Cl226	Cl	-0.564438	-0.331181	0.144960
H227	H	-0.953282	-0.816329	-0.384736
H228	H	-0.453282	-0.316329	0.115264
Cl229	Cl	-0.438868	-0.679931	-0.657896
Cl230	Cl	0.061132	-0.179931	-0.157896
H231	H	-0.450936	-0.816140	-0.384623
H232	H	0.049064	-0.316140	0.115377
Cl233	Cl	-0.327515	0.057005	-0.657855
Cl234	Cl	0.172485	0.557005	-0.157855
Cl235	Cl	-0.690046	-0.646582	-0.725103
Cl236	Cl	-0.190046	-0.146582	-0.225103
H237	H	-0.194756	-0.620597	-1.011959
H238	H	0.305244	-0.120597	-0.511959
H239	H	-0.550025	-0.694786	-0.628204
H240	H	-0.050025	-0.194786	-0.128204
H241	H	-0.163212	-0.745103	-1.240811
H242	H	0.336788	-0.245103	-0.740811
H243	H	-1.052362	-0.694960	-0.628296
H244	H	-0.552362	-0.194960	-0.128296
Cl245	Cl	-0.176333	-0.568574	-0.354963
Cl246	Cl	0.323667	-0.068574	0.145037
Cl247	Cl	-0.813276	-0.646624	-0.725142
Cl248	Cl	-0.313276	-0.146624	-0.225142
Cl249	Cl	-0.176337	-0.445326	-0.354980
Cl250	Cl	0.323663	0.054674	0.145020
Cl251	Cl	-0.430501	-0.934043	-0.713988
Cl252	Cl	0.069499	-0.434043	-0.213988
Cl253	Cl	-0.297610	-0.898369	-1.042046
Cl254	Cl	0.202390	-0.398369	-0.542046
Cl255	Cl	-0.373117	-0.973785	-0.918242
Cl256	Cl	0.126883	-0.473785	-0.418242
Cl257	Cl	-0.091259	-0.692291	-1.380396
Cl258	Cl	0.408741	-0.192291	-0.880396
Cl259	Cl	-0.412388	-0.818885	-0.633545
Cl260	Cl	0.087612	-0.318885	-0.133545
Cl261	Cl	-0.142865	-0.317375	-0.287952
Cl262	Cl	0.357135	0.182625	0.212048
H263	H	-0.340446	-0.766068	-0.773132
H264	H	0.159554	-0.266068	-0.273132
Cl265	Cl	-0.327472	-0.445353	-0.657771
Cl266	Cl	0.172528	0.054647	-0.157771
Cl267	Cl	-0.176382	0.057022	-0.355090
Cl268	Cl	0.323618	0.557022	0.144910
Cl269	Cl	-0.176361	-0.066209	-0.355069
Cl270	Cl	0.323639	0.433791	0.144931
H271	H	-0.191175	-0.694954	-0.907412
H272	H	0.308825	-0.194954	-0.407412
Cl273	Cl	-0.130500	-0.537396	-1.095676
Cl274	Cl	0.369500	-0.037396	-0.595676
Cl275	Cl	-0.142873	-0.194152	-0.287982
Cl276	Cl	0.357127	0.305848	0.212018
H277	H	-0.346121	-0.305311	-0.695187
H278	H	0.153879	0.194689	-0.195187
H279	H	-0.312643	-0.556490	-0.628023
H280	H	0.187357	-0.056490	-0.128023
H281	H	-0.549987	-0.816189	-0.384654
H282	H	-0.049987	-0.316189	0.115346
