data_functionalizedCrystal
_audit_creation_method	'MofGen! by Chris Wilmer'
_symmetry_space_group_name_H-M	'P1'
_symmetry_Int_Tables_number	1
_symmetry_cell_setting	triclinic
loop_
_symmetry_equiv_pos_as_xyz
  x,y,z
_cell_length_a	10.967926
_cell_length_b	10.489716
_cell_length_c	10.065875
_cell_angle_alpha	98.882384
_cell_angle_beta	93.120479
_cell_angle_gamma	84.621228
loop_
_atom_site_label
_atom_site_type_symbol
_atom_site_fract_x
_atom_site_fract_y
_atom_site_fract_z
O1	O	1.614796	0.222518	0.266313
O2	O	1.264783	0.226162	0.183990
O3	O	1.447770	0.039042	0.227024
O4	O	1.431809	0.409639	0.223279
O5	O	1.412878	0.074873	0.445807
O6	O	1.229891	0.261993	0.402773
O7	O	1.579904	0.258350	0.485096
Zn8	Zn	1.399357	0.265860	0.478671
Zn9	Zn	1.445329	0.218651	0.190415
O10	O	1.396917	0.445470	0.442062
C11	C	1.202518	0.241105	0.282840
C12	C	1.068972	0.232232	0.251429
C13	C	0.991357	0.246838	0.350761
C14	C	0.853330	0.237669	0.318299
C15	C	1.429125	0.009379	0.336129
C16	C	1.425540	-0.132390	0.335273
C17	C	1.537751	-0.225814	0.361678
C18	C	1.495658	-0.323085	0.239863
C19	C	1.461231	-0.287724	0.455560
C20	C	1.383508	-0.227809	0.213381
C21	C	1.349082	-0.192425	0.429178
C22	C	1.306911	-0.289655	0.307318
C23	C	1.642169	0.243406	0.386243
C24	C	1.775717	0.252277	0.417645
C25	C	1.415562	0.475132	0.332954
C26	C	1.419149	0.616899	0.333801
N27	N	1.367992	0.298079	0.675400
N28	N	1.476704	0.186423	-0.006312
C29	C	1.434408	0.229853	0.758798
C30	C	1.410278	0.254659	0.910291
H31	H	1.033235	0.212936	0.142355
C32	C	0.805598	0.212208	0.172866
C33	C	0.722079	0.315380	0.146089
C34	C	0.678094	0.291980	0.012130
H35	H	0.765869	0.134286	0.158314
H36	H	0.872151	0.204295	0.114705
H37	H	0.655537	0.323279	0.204232
H38	H	0.761779	0.393314	0.160611
H39	H	0.744646	0.284067	-0.046031
H40	H	0.638371	0.214056	-0.002410
H41	H	0.621430	0.361983	-0.006059
C42	C	1.533905	0.127300	0.704476
C43	C	1.507724	0.006460	0.732911
C44	C	1.599349	-0.088035	0.682863
H45	H	1.610853	0.148279	0.745835
H46	H	1.536854	0.124175	0.609864
H47	H	1.504788	0.009587	0.827505
H48	H	1.430792	-0.014559	0.691552
H49	H	1.602298	-0.091160	0.588251
H50	H	1.676291	-0.067044	0.724226
H51	H	1.581591	-0.170037	0.702138
H52	H	1.335542	0.331436	0.951036
H53	H	1.027095	0.266125	0.459836
H54	H	1.293261	0.374850	0.716152
H55	H	0.811447	0.271567	0.526728
C56	C	1.667967	-0.188060	0.391844
C57	C	1.744234	-0.254987	0.292308
C58	C	1.864185	-0.220204	0.320019
H59	H	1.696315	-0.209640	0.477110
H60	H	1.669254	-0.097478	0.392871
H61	H	1.742952	-0.345549	0.291296
H62	H	1.715925	-0.233417	0.207033
H63	H	1.865472	-0.129623	0.321045
H64	H	1.892521	-0.241786	0.405286
H65	H	1.915945	-0.265600	0.252483
H66	H	1.350724	-0.201249	0.110950
H67	H	1.209241	-0.317792	0.284286
H68	H	1.557571	-0.379723	0.159808
H69	H	1.287209	-0.135762	0.509247
H70	H	1.494081	-0.314467	0.557899
H71	H	1.551431	0.109637	0.952941
