data_functionalizedCrystal
_audit_creation_method	'MofGen! by Chris Wilmer'
_symmetry_space_group_name_H-M	'P1'
_symmetry_Int_Tables_number	1
_symmetry_cell_setting	triclinic
loop_
_symmetry_equiv_pos_as_xyz
  x,y,z
_cell_length_a	21.295420
_cell_length_b	21.295417
_cell_length_c	21.295411
_cell_angle_alpha	89.978356
_cell_angle_beta	90.024592
_cell_angle_gamma	89.973711
loop_
_atom_site_label
_atom_site_type_symbol
_atom_site_fract_x
_atom_site_fract_y
_atom_site_fract_z
Zn1	Zn	0.962355	0.250752	0.355912
Zn2	Zn	1.462355	0.750752	0.855912
Zn3	Zn	0.962258	0.356004	0.250637
Zn4	Zn	1.462258	0.856004	0.750637
Zn5	Zn	0.857079	0.250744	0.250657
Zn6	Zn	1.357079	0.750744	0.750657
Zn7	Zn	0.857048	0.355979	0.355869
Zn8	Zn	1.357048	0.855979	0.855869
O9	O	0.909685	0.303370	0.303269
O10	O	1.409685	0.803370	0.803269
O11	O	1.050432	0.264727	0.341957
O12	O	1.550432	0.764727	0.841957
O13	O	0.948277	0.342048	0.162550
O14	O	1.448277	0.842048	0.662550
O15	O	0.871097	0.162656	0.264645
O16	O	1.371097	0.662656	0.764645
O17	O	1.050360	0.342055	0.264612
O18	O	1.550360	0.842055	0.764612
O19	O	0.948444	0.162661	0.341976
O20	O	1.448444	0.662661	0.841976
O21	O	0.871003	0.264714	0.162565
O22	O	1.371003	0.764714	0.662565
O23	O	0.768985	0.264691	0.264604
O24	O	1.268985	0.764691	0.764604
O25	O	0.871045	0.342014	0.443964
O26	O	1.371045	0.842014	0.943964
O27	O	0.768963	0.342006	0.341903
O28	O	1.268963	0.842006	0.841903
O29	O	0.948414	0.264703	0.443996
O30	O	1.448414	0.764703	0.943996
O31	O	0.948248	0.444090	0.264570
O32	O	1.448248	0.944090	0.764570
O33	O	0.870951	0.444072	0.341884
O34	O	1.370951	0.944072	0.841884
C35	C	0.746133	0.303346	0.303251
C36	C	1.246133	0.803346	0.803251
C37	C	0.676165	0.303351	0.303258
C38	C	1.176165	0.803351	0.803258
C39	C	0.176744	0.263200	0.343617
C40	C	0.676744	0.763200	0.843617
C41	C	0.242486	0.263195	0.343617
C42	C	0.742486	0.763195	0.843617
C43	C	0.275326	0.303389	0.303283
C44	C	0.775326	0.803389	0.803283
C45	C	0.242417	0.343602	0.262958
C46	C	0.742417	0.843602	0.762958
C47	C	0.176676	0.343610	0.262964
C48	C	0.676676	0.843610	0.762964
N49	N	0.378516	0.308125	0.248164
N50	N	0.878516	0.808125	0.748164
N51	N	0.440967	0.308113	0.248160
N52	N	0.940967	0.808113	0.748160
C53	C	0.473400	0.303368	0.303265
C54	C	0.973400	0.803368	0.803265
N55	N	0.441023	0.298623	0.358375
N56	N	0.941023	0.798623	0.858375
N57	N	0.378566	0.298631	0.358377
N58	N	0.878566	0.798631	0.858377
C59	C	0.346611	0.303385	0.303273
C60	C	0.846611	0.803385	0.803273
C61	C	0.577587	0.263156	0.343591
C62	C	1.077587	0.763156	0.843591
C63	C	0.643330	0.263156	0.343592
C64	C	1.143330	0.763156	0.843592
C65	C	0.643260	0.343559	0.262927
C66	C	1.143260	0.843559	0.762927
C67	C	0.577517	0.343562	0.262932
C68	C	1.077517	0.843562	0.762932
C69	C	0.544685	0.303358	0.303263
C70	C	1.044685	0.803358	0.803263
C71	C	0.909602	0.466921	0.303234
C72	C	1.409602	0.966921	0.803234
C73	C	0.909625	0.536890	0.303240
C74	C	1.409625	1.036890	0.803240
C75	C	0.909737	0.303357	0.467459
C76	C	1.409737	0.803357	0.967459
C77	C	0.909759	0.303351	0.537427
C78	C	1.409759	0.803351	1.037427
C79	C	1.073875	0.303394	0.303287
C80	C	1.573875	0.803394	0.803287
C81	C	1.143843	0.303405	0.303295
C82	C	1.643843	0.803405	0.803295
C83	C	0.909785	0.139180	0.303318
C84	C	1.409785	0.639180	0.803318
C85	C	0.909827	0.069211	0.303338
C86	C	1.409827	0.569211	0.803338
C87	C	0.949909	0.569745	0.263024
C88	C	1.449909	1.069745	0.763024
C89	C	0.949939	0.635487	0.263038
C90	C	1.449939	1.135487	0.763038
C91	C	0.909672	0.668372	0.303262
C92	C	1.409672	1.168372	0.803262
C93	C	0.869385	0.635509	0.343485
C94	C	1.369385	1.135509	0.843485
C95	C	0.869361	0.569768	0.343474
C96	C	1.369361	1.069768	0.843474
N97	N	0.854605	0.771635	0.308055
N98	N	1.354605	1.271635	0.808055
N99	N	0.854630	0.834086	0.308061
N100	N	1.354630	1.334086	0.808061
C101	C	0.909743	0.866447	0.303298
C102	C	1.409743	1.366447	0.803298
N103	N	0.964832	0.833997	0.298515
N104	N	1.464832	1.333997	0.798515
N105	N	0.964807	0.771540	0.298505
N106	N	1.464807	1.271540	0.798505
C107	C	0.909694	0.739657	0.303278
C108	C	1.409694	1.239657	0.803278
C109	C	0.950063	0.970587	0.263095
C110	C	1.450063	1.470587	0.763095
C111	C	0.950093	1.036331	0.263114
C112	C	1.450093	1.536331	0.763114
C113	C	0.869534	1.036352	0.343557
C114	C	1.369534	1.536352	0.843557
C115	C	0.869509	0.970609	0.343542
C116	C	1.369509	1.470609	0.843542
C117	C	0.909773	0.937731	0.303308
C118	C	1.409773	1.437731	0.803308
C119	C	0.909669	0.303338	0.139717
C120	C	1.409669	0.803338	0.639717
C121	C	0.909769	0.303166	0.069749
C122	C	1.409769	0.803166	0.569749
C123	C	0.950044	0.263094	0.570311
C124	C	1.450044	0.763094	1.070311
C125	C	0.950043	0.263066	0.636054
C126	C	1.450043	0.763066	1.136054
C127	C	0.909764	0.303308	0.668910
C128	C	1.409764	0.803308	1.168910
C129	C	0.869472	0.343568	0.636018
C130	C	1.369472	0.843568	1.136018
C131	C	0.869470	0.343589	0.570276
C132	C	1.369470	0.843589	1.070276
N133	N	0.904908	0.358375	0.772125
N134	N	1.404908	0.858375	1.272125
N135	N	0.904914	0.358353	0.834577
N136	N	1.404914	0.858353	1.334577
C137	C	0.909768	0.303244	0.866985
C138	C	1.409768	0.803244	1.366985
N139	N	0.914629	0.248157	0.834582
N140	N	1.414629	0.748157	1.334582
N141	N	0.914626	0.248180	0.772125
N142	N	1.414626	0.748180	1.272125
C143	C	0.909762	0.303288	0.740195
C144	C	1.409762	0.803288	1.240195
C145	C	0.950054	0.262953	0.971154
C146	C	1.450054	0.762953	1.471154
C147	C	0.950048	0.262925	1.036898
C148	C	1.450048	0.762925	1.536898
C149	C	0.869481	0.343432	1.036861
C150	C	1.369481	0.843432	1.536861
C151	C	0.869483	0.343455	0.971118
C152	C	1.369483	0.843455	1.471118
C153	C	0.909773	0.303216	0.938269
C154	C	1.409773	0.803216	1.438269
H155	H	0.550853	0.230419	0.376430
H156	H	1.050853	0.730419	0.876430
Br157	Br	0.814810	0.398094	0.926486
Br158	Br	1.314810	0.898094	1.426486
H159	H	0.982850	0.230328	0.543570
H160	H	1.482850	0.730328	1.043570
Br161	Br	0.687983	0.208594	0.398327
Br162	Br	1.187983	0.708594	0.898327
Br163	Br	0.814808	0.398038	1.081444
Br164	Br	1.314808	0.898038	1.581444
H165	H	0.269279	0.230453	0.376452
H166	H	0.769279	0.730453	0.876452
H167	H	0.149888	0.376351	0.230128
H168	H	0.649888	0.876351	0.730128
Br169	Br	0.687820	0.398116	0.208195
Br170	Br	1.187820	0.898116	0.708195
Br171	Br	0.132188	0.208641	0.398356
Br172	Br	0.632188	0.708641	0.898356
Br173	Br	0.286983	0.398155	0.208224
Br174	Br	0.786983	0.898155	0.708224
H175	H	0.982902	1.063080	0.230367
H176	H	1.482902	1.563080	0.730367
Br177	Br	1.004614	0.680086	0.208456
Br178	Br	1.504614	1.180086	0.708456
H179	H	0.982846	0.230281	0.662833
H180	H	1.482846	0.730281	1.162833
H181	H	0.836601	0.662288	0.376237
H182	H	1.336601	1.162288	0.876237
H183	H	0.836675	0.376330	0.662773
H184	H	1.336675	0.876330	1.162773
Br185	Br	0.814893	1.080974	0.398154
Br186	Br	1.314893	1.580974	0.898154
Br187	Br	0.532863	0.398120	0.208196
Br188	Br	1.032863	0.898120	0.708196
H189	H	0.836663	0.376371	0.543503
H190	H	1.336663	0.876371	1.043503
H191	H	0.982852	0.230139	1.063671
H192	H	1.482852	0.730139	1.563671
H193	H	0.982695	0.542977	0.230265
H194	H	1.482695	1.042977	0.730265
Br195	Br	0.814686	0.525175	0.398058
Br196	Br	1.314686	1.025175	0.898058
H197	H	0.982856	0.230185	0.944407
H198	H	1.482856	0.730185	1.444407
H199	H	0.982850	0.943817	0.230336
H200	H	1.482850	1.443817	0.730336
Br201	Br	0.814833	0.926017	0.398122
Br202	Br	1.314833	1.426017	0.898122
