data_functionalizedCrystal
_audit_creation_method	'MofGen! by Chris Wilmer'
_symmetry_space_group_name_H-M	'P1'
_symmetry_Int_Tables_number	1
_symmetry_cell_setting	triclinic
loop_
_symmetry_equiv_pos_as_xyz
  x,y,z
_cell_length_a	19.121102
_cell_length_b	16.959454
_cell_length_c	19.121605
_cell_angle_alpha	92.462434
_cell_angle_beta	94.993760
_cell_angle_gamma	87.574559
loop_
_atom_site_label
_atom_site_type_symbol
_atom_site_fract_x
_atom_site_fract_y
_atom_site_fract_z
Zn1	Zn	1.092651	-0.345938	0.443704
Zn2	Zn	1.087563	-0.483526	0.326045
Zn3	Zn	0.969976	-0.345951	0.321040
Zn4	Zn	0.974962	-0.472661	0.438659
O5	O	1.031288	-0.412019	0.382362
O6	O	1.190440	-0.368731	0.432303
O7	O	1.067748	-0.469828	0.226917
O8	O	0.986291	-0.235339	0.337328
O9	O	1.186702	-0.469816	0.345859
O10	O	1.076420	-0.235330	0.427449
O11	O	0.981358	-0.368752	0.223239
O12	O	0.872173	-0.358218	0.332435
O13	O	0.994790	-0.451299	0.537792
O14	O	0.875837	-0.451311	0.418850
O15	O	1.081255	-0.358196	0.541499
O16	O	1.072583	-0.592694	0.340967
O17	O	0.989856	-0.584712	0.423704
C18	C	1.031228	-0.617383	0.382347
C19	C	1.031268	-0.705241	0.382367
C20	C	0.848474	-0.403587	0.374552
C21	C	0.770266	-0.399999	0.371228
C22	C	0.988277	-1.072594	0.425441
C23	C	1.074498	-1.080846	0.339363
C24	C	1.074473	-0.998299	0.339355
C25	C	1.031349	-0.952896	0.382390
C26	C	0.988249	-0.990040	0.425433
C27	C	1.117567	-0.961150	0.296309
C28	C	1.117543	-0.878598	0.296299
C29	C	1.074422	-0.833193	0.339338
C30	C	1.031321	-0.870342	0.382383
C31	C	0.988196	-0.824939	0.425418
C32	C	0.945099	-0.862085	0.468467
C33	C	0.945128	-0.944635	0.468472
C34	C	1.074393	-0.750644	0.339332
C35	C	0.988169	-0.742384	0.425410
C36	C	0.735447	-0.446861	0.414587
C37	C	0.661963	-0.443479	0.411467
C38	C	0.623299	-0.393237	0.364984
C39	C	0.658124	-0.346370	0.321623
C40	C	0.731607	-0.349749	0.324747
C41	C	0.401331	-0.380602	0.353307
C42	C	0.327843	-0.377229	0.350185
C43	C	0.331687	-0.474337	0.440029
C44	C	0.405172	-0.477715	0.443146
C45	C	0.439990	-0.430844	0.399789
C46	C	0.548186	-0.389780	0.361792
C47	C	0.515102	-0.434298	0.402984
C48	C	1.214815	-0.420484	0.390202
C49	C	1.293024	-0.424091	0.393543
C50	C	1.039146	-0.403534	0.565890
C51	C	1.042495	-0.399918	0.644099
C52	C	1.031367	-0.205853	0.382393
C53	C	1.031401	-0.117997	0.382406
C54	C	1.023500	-0.420415	0.199549
C55	C	1.020288	-0.423815	0.121346
C56	C	1.063730	-0.377042	1.086531
C57	C	1.060579	-0.380443	1.013046
C58	C	1.013982	-0.430613	0.974376
C59	C	0.970538	-0.477390	1.009196
C60	C	0.973693	-0.473993	1.082681
C61	C	1.002207	-0.443299	0.752404
C62	C	0.999053	-0.446691	0.678914
C63	C	1.089095	-0.349744	0.682769
C64	C	1.092243	-0.346348	0.756254
C65	C	1.048802	-0.393129	0.791068
C66	C	1.010758	-0.434088	0.899262
C67	C	1.052030	-0.389657	0.866181
H68	H	0.909983	-0.825109	0.503503
H69	H	1.152636	-0.848358	0.261247
H70	H	0.436647	-0.518629	0.480996
C71	C	1.107802	-0.329779	0.975198
C72	C	1.151088	-0.378544	0.934925
C73	C	1.194597	-0.331893	0.900052
H74	H	1.079724	-0.295428	0.945343
H75	H	1.136043	-0.299413	1.008721
H76	H	1.122851	-0.408897	0.901407
H77	H	1.179181	-0.412895	0.964764
H78	H	1.222837	-0.301526	0.933575
H79	H	1.166513	-0.297543	0.870201
H80	H	1.223976	-0.364973	0.872728
C81	C	0.777390	-0.501305	0.465172
C82	C	0.762529	-0.480157	0.534058
C83	C	0.801158	-0.530285	0.580680
H84	H	0.764921	-0.554346	0.454378
H85	H	0.826150	-0.496599	0.460872
H86	H	0.713779	-0.484870	0.538356
H87	H	0.775000	-0.427124	0.544874
H88	H	0.849918	-0.525579	0.576379
H89	H	0.788686	-0.583324	0.569879
H90	H	0.791085	-0.515939	0.627424
H91	H	0.626638	-0.305458	0.283779
H92	H	0.633616	-0.481640	0.446774
H93	H	0.910039	-0.974888	0.503519
C94	C	0.293756	-0.525125	0.487075
C95	C	0.221128	-0.511401	0.474406
C96	C	0.186165	-0.558165	0.517742
H97	H	0.305256	-0.579275	0.477251
H98	H	0.307799	-0.511994	0.534894
H99	H	0.207091	-0.524537	0.426598
H100	H	0.209607	-0.457260	0.484234
H101	H	0.200207	-0.545034	0.565561
H102	H	0.197670	-0.612312	0.507915
H103	H	0.136883	-0.548854	0.509157
H104	H	0.516698	-0.348875	0.323944
C105	C	0.285989	-0.322596	0.299695
C106	C	0.332209	-0.282255	0.262405
C107	C	0.293679	-0.231918	0.215897
H108	H	0.255991	-0.352795	0.267708
H109	H	0.258505	-0.285602	0.325433
H110	H	0.359682	-0.319244	0.236669
H111	H	0.362208	-0.252041	0.294374
H112	H	0.266195	-0.194925	0.241635
H113	H	0.263683	-0.262124	0.183915
H114	H	0.325033	-0.204536	0.190595
H115	H	0.429671	-0.342443	0.317996
C116	C	0.769283	-0.298842	0.277584
C117	C	0.719697	-0.254137	0.236192
C118	C	0.754377	-0.207238	0.192731
H119	H	0.799118	-0.264454	0.305692
H120	H	0.796602	-0.331748	0.248061
H121	H	0.692389	-0.221233	0.265712
H122	H	0.689859	-0.288505	0.208070
H123	H	0.781696	-0.240144	0.163207
H124	H	0.784211	-0.172855	0.220844
H125	H	0.720737	-0.176905	0.164636
C126	C	0.926490	-0.524640	1.120571
C127	C	0.883234	-0.475856	1.160861
C128	C	0.839750	-0.522489	1.195781
H129	H	0.898221	-0.555017	1.087096
H130	H	0.954606	-0.558982	1.150418
H131	H	0.855120	-0.441528	1.131017
H132	H	0.911483	-0.445479	1.194348
H133	H	0.867867	-0.556831	1.225628
H134	H	0.811486	-0.552864	1.162302
H135	H	0.810400	-0.489396	1.223127
C136	C	0.557168	-0.488719	0.453495
C137	C	0.601323	-0.443896	0.500445
C138	C	0.640098	-0.494005	0.546977
H139	H	0.525994	-0.516169	0.478943
H140	H	0.584707	-0.525659	0.427760
H141	H	0.573787	-0.406970	0.526177
H142	H	0.632511	-0.416448	0.475017
H143	H	0.667637	-0.530946	0.521242
H144	H	0.608918	-0.521453	0.572419
H145	H	0.670066	-0.463601	0.578833
C146	C	1.164285	-1.010581	0.249587
C147	C	1.155066	-1.090824	0.258791
C148	C	1.198067	-1.136388	0.215735
H149	H	1.151970	-0.998843	0.201857
H150	H	1.212029	-0.998802	0.261878
H151	H	1.107332	-1.102598	0.246496
H152	H	1.167386	-1.102587	0.306512
H153	H	1.245811	-1.124609	0.228026
H154	H	1.185748	-1.124643	0.168008
H155	H	1.191822	-1.190837	0.221979
H156	H	1.109479	-0.720402	0.304279
C157	C	1.114277	-0.322445	1.128420
C158	C	1.098235	-0.244361	1.109888
C159	C	1.144793	-0.194045	1.148452
H160	H	1.109981	-0.327011	1.177184
H161	H	1.161042	-0.336709	1.118374
H162	H	1.051482	-0.230101	1.119940
H163	H	1.102536	-0.239769	1.061131
H164	H	1.191558	-0.208309	1.138406
H165	H	1.140493	-0.198618	1.197215
H166	H	1.133919	-0.141061	1.135880
C167	C	1.136229	-0.299052	0.644842
C168	C	1.123509	-0.312777	0.572211
C169	C	1.166926	-0.266101	0.537252
H170	H	1.126514	-0.244886	0.656372
H171	H	1.184031	-0.312260	0.658859
H172	H	1.075719	-0.299564	0.558200
H173	H	1.133228	-0.366934	0.560660
H174	H	1.214727	-0.279308	0.551269
H175	H	1.157207	-0.211937	0.548788
H176	H	1.158306	-0.275412	0.487969
H177	H	1.130190	-0.305498	0.787734
C178	C	0.941509	-1.113067	0.472101
C179	C	0.950749	-1.195079	0.462890
C180	C	0.907671	-1.232388	0.505855
H181	H	0.953745	-1.097892	0.519849
H182	H	0.893778	-1.097927	0.459735
H183	H	0.998469	-1.210213	0.475261
H184	H	0.938509	-1.210277	0.415151
H185	H	0.859940	-1.217248	0.493489
H186	H	0.919910	-1.217207	0.553601
H187	H	0.913929	-1.288037	0.499607
C188	C	0.948463	-0.501273	0.637055
C189	C	0.911118	-0.541544	0.683272
C190	C	0.864528	-0.591846	0.644738
H191	H	0.916516	-0.471056	0.607071
H192	H	0.974145	-0.538309	0.609556
H193	H	0.885438	-0.504513	0.710759
H194	H	0.943047	-0.571776	0.713257
H195	H	0.890209	-0.628882	0.617239
H196	H	0.832585	-0.561623	0.614755
H197	H	0.839188	-0.619181	0.676090
H198	H	0.966833	-0.481390	0.780740
H199	H	0.932601	-0.518243	0.977706
H200	H	1.089971	-0.348812	0.897669
H201	H	0.953054	-0.705421	0.460457
C202	C	0.960159	-0.488652	0.857402
C203	C	0.922802	-0.528911	0.903616
C204	C	0.876201	-0.579199	0.865079
H205	H	0.928220	-0.458426	0.827417
H206	H	0.985834	-0.525695	0.829903
H207	H	0.897129	-0.491873	0.931103
H208	H	0.954723	-0.559152	0.933602
H209	H	0.901875	-0.616242	0.837580
H210	H	0.844266	-0.548967	0.835096
H211	H	0.850853	-0.606526	0.896430
H212	H	1.109603	-1.117818	0.304322
