data_functionalizedCrystal
_audit_creation_method	'MofGen! by Chris Wilmer'
_symmetry_space_group_name_H-M	'P1'
_symmetry_Int_Tables_number	1
_symmetry_cell_setting	triclinic
loop_
_symmetry_equiv_pos_as_xyz
  x,y,z
_cell_length_a	19.077068
_cell_length_b	21.395364
_cell_length_c	21.395355
_cell_angle_alpha	89.975448
_cell_angle_beta	92.279051
_cell_angle_gamma	92.341988
loop_
_atom_site_label
_atom_site_type_symbol
_atom_site_fract_x
_atom_site_fract_y
_atom_site_fract_z
Zn1	Zn	-0.280007	0.947860	-0.364266
Zn2	Zn	0.053326	1.281193	-0.030933
Zn3	Zn	0.386659	1.614526	0.302401
Zn4	Zn	-0.397689	0.943560	-0.263693
Zn5	Zn	-0.064356	1.276893	0.069640
Zn6	Zn	0.268978	1.610226	0.402973
Zn7	Zn	-0.280038	0.843074	-0.259504
Zn8	Zn	0.053295	1.176407	0.073829
Zn9	Zn	0.386629	1.509740	0.407163
Zn10	Zn	-0.397702	0.838841	-0.368434
Zn11	Zn	-0.064368	1.172174	-0.035101
Zn12	Zn	0.268965	1.505508	0.298233
O13	O	-0.338859	0.893333	-0.313974
O14	O	-0.005526	1.226667	0.019359
O15	O	0.327808	1.560000	0.352692
O16	O	-0.295600	1.034968	-0.350934
O17	O	0.037734	1.368301	-0.017601
O18	O	0.371067	1.701635	0.315733
O19	O	-0.382090	0.930202	-0.175460
O20	O	-0.048757	1.263535	0.157873
O21	O	0.284577	1.596868	0.491207
O22	O	-0.181541	0.860545	-0.269903
O23	O	0.151792	1.193878	0.063430
O24	O	0.485126	1.527211	0.396763
O25	O	-0.382060	1.031809	-0.277044
O26	O	-0.048727	1.365142	0.056290
O27	O	0.284606	1.698475	0.389623
O28	O	-0.181518	0.937531	-0.346872
O29	O	0.151815	1.270864	-0.013538
O30	O	0.485148	1.604197	0.319795
O31	O	-0.295652	0.856375	-0.172382
O32	O	0.037681	1.189708	0.160951
O33	O	0.371014	1.523042	0.494285
O34	O	-0.295665	0.754834	-0.273945
O35	O	0.037669	1.088167	0.059389
O36	O	0.371002	1.421500	0.392722
O37	O	-0.382082	0.853331	-0.455559
O38	O	-0.048748	1.186664	-0.122225
O39	O	0.284585	1.519997	0.211108
O40	O	-0.382112	0.751724	-0.353975
O41	O	-0.048778	1.085057	-0.020642
O42	O	0.284555	1.418390	0.312691
O43	O	-0.295612	0.933426	-0.452497
O44	O	0.037721	1.266760	-0.119163
O45	O	0.371055	1.600093	0.214170
O46	O	-0.496184	0.926097	-0.281085
O47	O	-0.162850	1.259431	0.052248
O48	O	0.170483	1.592764	0.385582
O49	O	-0.496193	0.849161	-0.358038
O50	O	-0.162860	1.182494	-0.024704
O51	O	0.170474	1.515828	0.308629
C52	C	-0.338893	0.730545	-0.313958
C53	C	-0.005560	1.063878	0.019375
C54	C	0.327773	1.397211	0.352709
C55	C	-0.338925	0.660902	-0.313966
C56	C	-0.005592	0.994236	0.019367
C57	C	0.327742	1.327569	0.352700
C58	C	-0.293979	0.629854	-0.352506
C59	C	0.039355	0.963187	-0.019172
C60	C	0.372688	1.296521	0.314161
C61	C	-0.293960	0.564419	-0.352507
C62	C	0.039373	0.897752	-0.019174
C63	C	0.372707	1.231086	0.314159
C64	C	-0.338900	0.530035	-0.313977
C65	C	-0.005567	0.863368	0.019356
C66	C	0.327767	1.196701	0.352690
C67	C	-0.383849	0.561091	-0.275430
C68	C	-0.050516	0.894424	0.057903
C69	C	0.282817	1.227758	0.391237
C70	C	-0.383862	0.626525	-0.275425
C71	C	-0.050528	0.959858	0.057909
C72	C	0.282805	1.293191	0.391242
C73	C	-0.402285	0.424047	-0.311204
C74	C	-0.068951	0.757380	0.022129
C75	C	0.264382	1.090714	0.355463
C76	C	-0.402273	0.358614	-0.311214
C77	C	-0.068940	0.691948	0.022120
C78	C	0.264393	1.025281	0.355453
C79	C	-0.338861	0.328215	-0.313990
C80	C	-0.005528	0.661549	0.019344
C81	C	0.327805	0.994882	0.352677
C82	C	-0.275458	0.363257	-0.316769
C83	C	0.057875	0.696591	0.016565
C84	C	0.391208	1.029924	0.349898
C85	C	-0.275471	0.428691	-0.316763
C86	C	0.057862	0.762024	0.016570
C87	C	0.391196	1.095358	0.349903
C88	C	-0.338891	0.459083	-0.313978
C89	C	-0.005558	0.792416	0.019355
C90	C	0.327775	1.125749	0.352689
C91	C	-0.293891	0.226215	-0.352533
C92	C	0.039442	0.559549	-0.019199
C93	C	0.372776	0.892882	0.314134
C94	C	-0.293871	0.160780	-0.352530
C95	C	0.039462	0.494113	-0.019197
C96	C	0.372796	0.827446	0.314137
C97	C	-0.383767	0.157452	-0.275456
C98	C	-0.050433	0.490786	0.057877
C99	C	0.282900	0.824119	0.391211
C100	C	-0.383780	0.222887	-0.275455
C101	C	-0.050447	0.556221	0.057878
C102	C	0.282886	0.889554	0.391211
C103	C	-0.338843	0.257265	-0.313997
C104	C	-0.005510	0.590598	0.019336
C105	C	0.327823	0.923931	0.352670
C106	C	-0.521726	0.886720	-0.320482
C107	C	-0.188393	1.220054	0.012851
C108	C	0.144940	1.553387	0.346185
C109	C	-0.599958	0.883948	-0.323287
C110	C	-0.266624	1.217282	0.010047
C111	C	0.066709	1.550615	0.343380
C112	C	-0.636683	0.922734	-0.284573
C113	C	-0.303350	1.256067	0.048761
C114	C	0.029984	1.589401	0.382094
C115	C	-0.710190	0.920131	-0.287215
C116	C	-0.376856	1.253464	0.046119
C117	C	-0.043523	1.586797	0.379452
C118	C	-0.746970	0.878738	-0.328568
C119	C	-0.413637	1.212072	0.004766
C120	C	-0.080303	1.545405	0.338099
C121	C	-0.710240	0.839951	-0.367286
C122	C	-0.376906	1.173284	-0.033953
C123	C	-0.043573	1.506618	0.299381
C124	C	-0.636734	0.842558	-0.364647
C125	C	-0.303401	1.175891	-0.031314
C126	C	0.029932	1.509225	0.302020
C127	C	-0.966810	0.866646	-0.340756
C128	C	-0.633477	1.199979	-0.007423
C129	C	-0.300144	1.533312	0.325910
C130	C	-1.040321	0.864040	-0.343391
C131	C	-0.706988	1.197374	-0.010058
C132	C	-0.373654	1.530707	0.323276
C133	C	-1.040266	0.944221	-0.263320
C134	C	-0.706933	1.277555	0.070013
C135	C	-0.373599	1.610888	0.403346
C136	C	-0.966759	0.946822	-0.260682
C137	C	-0.633426	1.280155	0.072651
C138	C	-0.300092	1.613488	0.405985
C139	C	-0.930035	0.908037	-0.299403
C140	C	-0.596702	1.241370	0.033931
C141	C	-0.263369	1.574704	0.367264
N142	N	-0.822106	0.876075	-0.331268
N143	N	-0.488772	1.209408	0.002066
N144	N	-0.155439	1.542741	0.335399
N145	N	-0.854901	0.910704	-0.296705
N146	N	-0.521568	1.244037	0.036628
N147	N	-0.188234	1.577371	0.369961
C148	C	-0.155278	0.899990	-0.307455
C149	C	0.178056	1.233323	0.025878
C150	C	0.511389	1.566656	0.359211
C151	C	-0.077046	0.902826	-0.304677
C152	C	0.256287	1.236159	0.028656
C153	C	0.589621	1.569493	0.361990
C154	C	-0.338845	0.893386	-0.477397
C155	C	-0.005511	1.226719	-0.144064
C156	C	0.327822	1.560053	0.189269
C157	C	-0.338839	0.893408	-0.547038
C158	C	-0.005505	1.226742	-0.213705
C159	C	0.327828	1.560075	0.119628
C160	C	-0.338825	1.056758	-0.313991
C161	C	-0.005492	1.390091	0.019342
C162	C	0.327841	1.723425	0.352675
C163	C	-0.338811	1.126400	-0.313998
C164	C	-0.005477	1.459733	0.019335
C165	C	0.327856	1.793066	0.352668
C166	C	-0.293812	0.935113	-0.578158
C167	C	0.039521	1.268446	-0.244825
C168	C	0.372855	1.601779	0.088509
C169	C	-0.293782	0.935113	-0.643592
C170	C	0.039552	1.268446	-0.310259
C171	C	0.372885	1.601779	0.023074
C172	C	-0.338791	0.893415	-0.677905
C173	C	-0.005457	1.226748	-0.344572
C174	C	0.327876	1.560082	-0.011238
C175	C	-0.383821	0.851703	-0.646778
C176	C	-0.050487	1.185036	-0.313444
C177	C	0.282846	1.518370	0.019889
C178	C	-0.383844	0.851700	-0.581344
C179	C	-0.050511	1.185033	-0.248011
C180	C	0.282822	1.518366	0.085322
C181	C	-0.402166	0.886176	-0.783835
C182	C	-0.068833	1.219509	-0.450502
C183	C	0.264500	1.552842	-0.117168
C184	C	-0.402143	0.886183	-0.849267
C185	C	-0.068810	1.219517	-0.515934
C186	C	0.264523	1.552850	-0.182600
C187	C	-0.338716	0.893422	-0.879723
C188	C	-0.005383	1.226755	-0.546390
C189	C	0.327950	1.560088	-0.213056
C190	C	-0.275310	0.900665	-0.844739
C191	C	0.058023	1.233998	-0.511406
C192	C	0.391357	1.567332	-0.178072
C193	C	-0.275334	0.900662	-0.779306
C194	C	0.057999	1.233995	-0.445972
C195	C	0.391333	1.567329	-0.112639
C196	C	-0.338769	0.893414	-0.748857
C197	C	-0.005436	1.226747	-0.415523
C198	C	0.327897	1.560080	-0.082190
C199	C	-0.293653	0.935128	-0.981794
C200	C	0.039680	1.268462	-0.648461
C201	C	0.373014	1.601795	-0.315127
C202	C	-0.293622	0.935124	-1.047230
C203	C	0.039712	1.268457	-0.713896
C204	C	0.373045	1.601791	-0.380563
C205	C	-0.383667	0.851717	-1.050414
C206	C	-0.050333	1.185051	-0.717081
C207	C	0.283000	1.518384	-0.383747
C208	C	-0.383692	0.851718	-0.984979
C209	C	-0.050358	1.185052	-0.651646
C210	C	0.282975	1.518385	-0.318313
C211	C	-0.338686	0.893427	-0.950673
C212	C	-0.005353	1.226760	-0.617340
C213	C	0.327981	1.560094	-0.284007
C214	C	-0.338822	0.893319	-0.151186
C215	C	-0.005489	1.226652	0.182148
C216	C	0.327844	1.559986	0.515481
C217	C	-0.338630	0.893425	-0.081538
C218	C	-0.005297	1.226758	0.251796
C219	C	0.328036	1.560092	0.585129
H220	H	-0.257266	0.135501	-0.383912
H221	H	0.076067	0.468835	-0.050579
H222	H	0.409400	0.802168	0.282754
H223	H	-0.256951	0.969084	-1.072566
H224	H	0.076382	1.302417	-0.739232
H225	H	0.409715	1.635750	-0.405899
Br226	Br	-0.444743	0.795118	-1.096974
Br227	Br	-0.111409	1.128452	-0.763640
Br228	Br	0.221924	1.461785	-0.430307
Br229	Br	-0.189429	0.476246	-0.320533
Br230	Br	0.143904	0.809579	0.012800
Br231	Br	0.477237	1.142913	0.346134
Br232	Br	-0.444804	0.795118	-0.942742
Br233	Br	-0.111471	1.128451	-0.609409
Br234	Br	0.221863	1.461784	-0.276076
Br235	Br	-0.916848	1.003008	-0.204566
Br236	Br	-0.583515	1.336341	0.128767
Br237	Br	-0.250181	1.669674	0.462101
Br238	Br	-1.090109	0.996858	-0.210777
Br239	Br	-0.756776	1.330191	0.122556
Br240	Br	-0.423442	1.663524	0.455890
Br241	Br	-0.444956	0.795096	-0.539107
Br242	Br	-0.111622	1.128429	-0.205774
Br243	Br	0.221711	1.461762	0.127559
Br244	Br	-0.232903	0.272875	-0.404834
Br245	Br	0.100430	0.606208	-0.071501
Br246	Br	0.433764	0.939541	0.261833
Br247	Br	-0.488194	0.876362	-0.896739
Br248	Br	-0.154861	1.209695	-0.563406
Br249	Br	0.178473	1.543028	-0.230072
H250	H	-1.070265	0.830341	-0.377077
H251	H	-0.736932	1.163674	-0.043743
H252	H	-0.403599	1.497008	0.289590
Br253	Br	-0.760155	0.783780	-0.423414
Br254	Br	-0.426821	1.117113	-0.090081
Br255	Br	-0.093488	1.450447	0.243252
Br256	Br	-0.916980	0.814009	-0.393306
Br257	Br	-0.583647	1.147342	-0.059973
Br258	Br	-0.250313	1.480676	0.273360
H259	H	-0.606833	0.810975	-0.396173
H260	H	-0.273500	1.144309	-0.062839
H261	H	0.059833	1.477642	0.270494
H262	H	-0.257164	0.969074	-0.550230
H263	H	0.076169	1.302408	-0.216897
H264	H	0.409503	1.635741	0.116437
Br265	Br	-0.444751	0.110795	-0.223157
Br266	Br	-0.111417	0.444129	0.110177
Br267	Br	0.221916	0.777462	0.443510
H268	H	-0.740088	0.951714	-0.255689
H269	H	-0.406755	1.285047	0.077644
H270	H	-0.073421	1.618380	0.410978
Br271	Br	-0.232652	0.991700	-0.685835
Br272	Br	0.100681	1.325034	-0.352502
Br273	Br	0.434014	1.658367	-0.019169
H274	H	-0.223662	0.906560	-0.869535
H275	H	0.109672	1.239893	-0.536201
H276	H	0.443005	1.573227	-0.202868
H277	H	-0.453803	0.880115	-0.759043
H278	H	-0.120470	1.213448	-0.425710
H279	H	0.212864	1.546781	-0.092376
H280	H	-0.420383	0.248167	-0.244075
H281	H	-0.087050	0.581500	0.089258
H282	H	0.246283	0.914834	0.422592
Br283	Br	-0.189288	0.910489	-0.731829
Br284	Br	0.144046	1.243822	-0.398495
Br285	Br	0.477379	1.577155	-0.065162
Br286	Br	-0.444862	0.668665	-0.223114
Br287	Br	-0.111528	1.001998	0.110219
Br288	Br	0.221805	1.335332	0.443553
H289	H	-0.257356	0.539135	-0.383890
H290	H	0.075977	0.872468	-0.050556
H291	H	0.409311	1.205801	0.282777
Br292	Br	-0.586774	0.978907	-0.228442
Br293	Br	-0.253441	1.312240	0.104891
Br294	Br	0.079893	1.645573	0.438225
Br295	Br	-0.444900	0.795108	-0.693343
Br296	Br	-0.111566	1.128442	-0.360009
Br297	Br	0.221767	1.461775	-0.026676
Br298	Br	-0.232993	0.676506	-0.404812
Br299	Br	0.100340	1.009840	-0.071479
Br300	Br	0.433673	1.343173	0.261855
Br301	Br	-0.189393	0.322011	-0.320537
Br302	Br	0.143941	0.655344	0.012796
Br303	Br	0.477274	0.988677	0.346130
H304	H	-0.453900	0.330088	-0.308954
H305	H	-0.120566	0.663422	0.024379
H306	H	0.212767	0.996755	0.357713
Br307	Br	-0.444835	0.514429	-0.223133
Br308	Br	-0.111501	0.847762	0.110200
Br309	Br	0.221832	1.181095	0.443534
Br310	Br	-0.488351	0.465296	-0.307425
Br311	Br	-0.155017	0.798629	0.025908
Br312	Br	0.178316	1.131962	0.359242
Br313	Br	-0.232573	0.991729	-0.935232
Br314	Br	0.100760	1.325063	-0.601899
Br315	Br	0.434093	1.658396	-0.268565
