data_functionalizedCrystal
_audit_creation_method	'MofGen! by Chris Wilmer'
_symmetry_space_group_name_H-M	'P1'
_symmetry_Int_Tables_number	1
_symmetry_cell_setting	triclinic
loop_
_symmetry_equiv_pos_as_xyz
  x,y,z
_cell_length_a	15.944551
_cell_length_b	15.944551
_cell_length_c	10.268362
_cell_angle_alpha	90.002299
_cell_angle_beta	90.000122
_cell_angle_gamma	83.498738
loop_
_atom_site_label
_atom_site_type_symbol
_atom_site_fract_x
_atom_site_fract_y
_atom_site_fract_z
O1	O	1.114525	0.108328	0.108167
O2	O	0.869975	0.121684	0.108200
O3	O	0.998928	-0.007269	0.108171
O4	O	0.985572	0.237281	0.108196
O5	O	0.998916	-0.007264	-0.108430
O6	O	0.869963	0.121688	-0.108401
O7	O	1.114512	0.108332	-0.108433
Cu8	Cu	0.992236	0.115011	-0.128194
Cu9	Cu	0.992251	0.115006	0.127961
O10	O	0.985559	0.237285	-0.108404
C11	C	0.838675	0.121132	-0.000096
C12	C	0.745429	0.119470	-0.000084
C13	C	0.530572	0.035565	-0.000118
C14	C	0.469558	0.074525	0.106682
C15	C	0.574703	0.116462	-0.000100
C16	C	0.469568	0.074549	-0.106870
C17	C	0.409790	0.113551	-0.000121
C18	C	0.514917	0.155445	0.106788
C19	C	0.514934	0.155457	-0.106859
C20	C	0.453937	0.194476	-0.000034
C21	C	0.669705	0.118137	-0.000087
C22	C	0.314789	0.111883	-0.000124
C23	C	0.998367	-0.038561	-0.000129
C24	C	0.996705	-0.131807	-0.000130
C25	C	0.912801	-0.346663	-0.000101
C26	C	0.951757	-0.407678	-0.106903
C27	C	0.993698	-0.302533	-0.000120
C28	C	0.951788	-0.407666	0.106648
C29	C	0.990787	-0.467445	-0.000104
C30	C	1.032676	-0.362319	-0.107010
C31	C	1.032696	-0.362301	0.106637
C32	C	1.071711	-0.423298	-0.000192
C33	C	0.995372	-0.207530	-0.000130
C34	C	0.989119	-0.562446	-0.000103
C35	C	1.145813	0.108885	-0.000134
C36	C	1.239059	0.110547	-0.000138
C37	C	0.986120	0.268577	-0.000101
C38	C	0.987782	0.361823	-0.000092
N39	N	0.992232	0.115014	-0.308360
C40	C	0.992238	0.115014	-0.426203
C41	C	0.992249	0.115007	-0.574040
N42	N	0.992262	0.114996	0.308127
H43	H	0.420779	0.261683	0.000033
O44	O	0.541604	0.200749	-0.226449
H45	H	0.611044	0.202089	-0.224820
H46	H	0.917536	-0.427785	-0.197187
H47	H	1.138919	-0.456457	-0.000261
O48	O	0.574655	-0.053394	-0.000002
H49	H	0.615170	-0.063047	0.087835
H50	H	0.845652	-0.313356	-0.000198
O51	O	1.077951	-0.335849	-0.226755
H52	H	1.078796	-0.266339	-0.225848
H53	H	0.449453	0.040307	0.196966
H54	H	0.449477	0.040320	-0.197157
O55	O	1.077989	-0.335624	0.226226
H56	H	1.044282	-0.353571	0.314756
H57	H	0.917567	-0.427745	0.196948
H58	H	0.534910	0.189633	0.197177
