data_functionalizedCrystal
_audit_creation_method	'MofGen! by Chris Wilmer'
_symmetry_space_group_name_H-M	'P1'
_symmetry_Int_Tables_number	1
_symmetry_cell_setting	triclinic
loop_
_symmetry_equiv_pos_as_xyz
  x,y,z
_cell_length_a	25.639239
_cell_length_b	21.395362
_cell_length_c	21.395355
_cell_angle_alpha	90.043940
_cell_angle_beta	89.980666
_cell_angle_gamma	89.945436
loop_
_atom_site_label
_atom_site_type_symbol
_atom_site_fract_x
_atom_site_fract_y
_atom_site_fract_z
Zn1	Zn	-0.207990	-0.957825	-0.354582
Zn2	Zn	-0.295409	-0.957713	-0.249803
Zn3	Zn	-0.208014	-0.853040	-0.249783
Zn4	Zn	-0.295420	-0.852994	-0.354508
O5	O	-0.251708	-0.905393	-0.302169
O6	O	-0.219571	-1.045488	-0.340722
O7	O	-0.283822	-0.943800	-0.162122
O8	O	-0.134846	-0.867006	-0.263708
O9	O	-0.283798	-1.045405	-0.263742
O10	O	-0.134828	-0.943991	-0.340703
O11	O	-0.219613	-0.866897	-0.162108
O12	O	-0.219623	-0.765356	-0.263636
O13	O	-0.283817	-0.866928	-0.442196
O14	O	-0.283840	-0.765322	-0.340576
O15	O	-0.219582	-0.943947	-0.442250
O16	O	-0.368576	-0.943756	-0.263669
O17	O	-0.368584	-0.866820	-0.340596
C18	C	-0.251736	-0.742605	-0.302096
C19	C	-0.251760	-0.672964	-0.302080
C20	C	-0.387551	-0.905288	-0.302140
C21	C	-0.445665	-0.905300	-0.302149
C22	C	-0.251698	-0.905445	-0.465592
C23	C	-0.251693	-0.905467	-0.535234
C24	C	-0.806011	-0.945558	-0.262182
C25	C	-0.860616	-0.945582	-0.262190
O26	O	-0.888838	-0.979702	-0.228177
N27	N	-0.887947	-0.905503	-0.302211
C28	C	-0.860672	-0.865401	-0.342230
O29	O	-0.888934	-0.831313	-0.376271
C30	C	-0.806069	-0.865381	-0.342224
C31	C	-0.778740	-0.905458	-0.302196
C32	C	-0.778682	-0.985633	-0.222158
C33	C	-0.724082	-0.985608	-0.222149
C34	C	-0.696810	-0.945508	-0.262164
C35	C	-0.724139	-0.905433	-0.302187
C36	C	-0.778794	-0.825282	-0.382246
C37	C	-0.724187	-0.825266	-0.382237
C38	C	-0.696858	-0.865343	-0.342209
C39	C	-0.642267	-0.865308	-0.342193
N40	N	-0.614935	-0.905387	-0.302173
C41	C	-0.642207	-0.945487	-0.262158
C42	C	-0.975343	-0.865448	-0.342239
C43	C	-1.029945	-0.865465	-0.342242
C44	C	-1.029885	-0.945648	-0.262204
C45	C	-0.975281	-0.945627	-0.262198
C46	C	-0.948011	-0.905528	-0.302219
C47	C	-0.527542	-0.945430	-0.262142
C48	C	-0.472937	-0.945400	-0.262134
C49	C	-0.473002	-0.865220	-0.342175
C50	C	-0.527602	-0.865248	-0.342180
C51	C	-0.554871	-0.905358	-0.302162
O52	O	-0.614010	-0.831207	-0.376190
O53	O	-0.613939	-0.979575	-0.228128
C54	C	-0.115335	-0.905516	-0.302212
C55	C	-0.057221	-0.905568	-0.302230
C56	C	-0.251681	-1.068816	-0.302242
C57	C	-0.251669	-1.138458	-0.302274
C58	C	-0.285243	-0.640250	-0.342083
C59	C	-0.285230	-0.574814	-0.342111
C60	C	-0.251740	-0.542096	-0.302125
C61	C	-0.218252	-0.574818	-0.262119
C62	C	-0.218262	-0.640252	-0.262097
C63	C	-0.247528	-0.438372	-0.245720
C64	C	-0.247522	-0.372939	-0.245741
C65	C	-0.251706	-0.340275	-0.302194
C66	C	-0.255908	-0.373052	-0.358627
C67	C	-0.255918	-0.438486	-0.358605
C68	C	-0.251725	-0.471143	-0.302145
C69	C	-0.285176	-0.236608	-0.342231
C70	C	-0.285160	-0.171172	-0.342260
C71	C	-0.218185	-0.171176	-0.262262
C72	C	-0.218198	-0.236612	-0.262239
C73	C	-0.251697	-0.269324	-0.302222
C74	C	-0.218245	-0.945569	-0.567976
C75	C	-0.218222	-0.945568	-0.633412
C76	C	-0.251658	-0.905472	-0.666102
C77	C	-0.285108	-0.865362	-0.633352
C78	C	-0.285126	-0.865360	-0.567917
C79	C	-0.298736	-0.900488	-0.769765
C80	C	-0.298719	-0.900495	-0.835198
C81	C	-0.251602	-0.905476	-0.867923
C82	C	-0.204501	-0.910463	-0.835207
C83	C	-0.204519	-0.910461	-0.769773
C84	C	-0.251642	-0.905470	-0.737054
C85	C	-0.218127	-0.945579	-0.971618
C86	C	-0.218103	-0.945574	-1.037055
C87	C	-0.284994	-0.865371	-1.036993
C88	C	-0.285013	-0.865373	-0.971558
C89	C	-0.251580	-0.905480	-0.938874
C90	C	-0.251681	-0.905377	-0.139381
C91	C	-0.251538	-0.905476	-0.069741
H92	H	-0.450687	-0.978036	-0.229537
H93	H	-0.190984	-0.548174	-0.229563
H94	H	-0.312450	-0.263244	-0.374791
C95	C	-0.442998	-0.821119	-0.386195
H96	H	-0.467092	-0.797251	-0.410035
H97	H	-0.421663	-0.845074	-0.413515
H98	H	-0.421734	-0.793818	-0.362191
C99	C	-1.059890	-0.989756	-0.218186
H100	H	-1.096323	-0.984028	-0.223928
H101	H	-1.050969	-0.980602	-0.176076
H102	H	-1.050897	-1.031849	-0.227408
C103	C	-0.181344	-0.989683	-0.935663
H104	H	-0.161413	-1.013559	-0.964538
H105	H	-0.201343	-1.016967	-0.910156
H106	H	-0.158575	-0.965727	-0.910122
H107	H	-0.549855	-0.832616	-0.374776
C108	C	-0.152713	-0.915938	-0.733784
H109	H	-0.159475	-0.915227	-0.690128
H110	H	-0.130723	-0.881875	-0.744482
H111	H	-0.135985	-0.954101	-0.744533
H112	H	-0.166134	-0.914520	-0.861850
C113	C	-0.181466	-0.989680	-0.532028
H114	H	-0.161539	-1.013559	-0.560903
H115	H	-0.201467	-1.016960	-0.506519
H116	H	-0.158692	-0.965728	-0.506487
H117	H	-0.549738	-0.978093	-0.229556
C118	C	-0.808675	-1.029737	-0.178131
H119	H	-0.845111	-1.024018	-0.183860
H120	H	-0.799743	-1.020575	-0.136026
H121	H	-0.799678	-1.071831	-0.187350
H122	H	-0.312519	-0.666880	-0.374642
C123	C	-0.322031	-0.538821	-0.386152
H124	H	-0.341975	-0.567675	-0.409971
H125	H	-0.302032	-0.513371	-0.413491
H126	H	-0.344789	-0.513220	-0.362171
H127	H	-0.701834	-1.018244	-0.189557
H128	H	-1.052192	-0.832824	-0.374831
H129	H	-0.953033	-0.978262	-0.229605
C130	C	-0.321888	-0.821257	-0.669305
H131	H	-0.341809	-0.797369	-0.640430
H132	H	-0.344658	-0.845204	-0.694848
H133	H	-0.301881	-0.793975	-0.694811
C134	C	-0.321929	-0.821255	-0.531899
H135	H	-0.341842	-0.797377	-0.560738
H136	H	-0.301945	-0.793973	-0.506348
H137	H	-0.344714	-0.845212	-0.506397
H138	H	-0.953142	-0.832790	-0.374827
H139	H	-0.312424	-0.144537	-0.374839
H140	H	-0.190982	-0.978222	-0.660076
C141	C	-0.181308	-0.989688	-1.073072
H142	H	-0.161405	-1.013577	-1.044232
H143	H	-0.158522	-0.965746	-1.098580
H144	H	-0.201303	-1.016970	-1.098618
C145	C	-0.181433	-0.676242	-0.218091
H146	H	-0.186234	-0.719897	-0.223806
H147	H	-0.189028	-0.665460	-0.175980
H148	H	-0.146311	-0.665578	-0.227347
C149	C	-0.350567	-0.895009	-0.733771
H150	H	-0.343832	-0.895716	-0.690116
H151	H	-0.372551	-0.929073	-0.744519
H152	H	-0.367288	-0.856847	-0.744467
C153	C	-0.808844	-0.781201	-0.426281
H154	H	-0.784775	-0.757326	-0.450113
H155	H	-0.830186	-0.753916	-0.402292
H156	H	-0.830106	-0.805170	-0.453617
C157	C	-0.321776	-0.821270	-1.072945
H158	H	-0.316978	-0.827018	-1.116605
H159	H	-0.314139	-0.779178	-1.062192
H160	H	-0.356908	-0.830417	-1.062226
C161	C	-0.181372	-0.272602	-0.218231
H162	H	-0.186172	-0.316257	-0.223948
H163	H	-0.188969	-0.261822	-0.176121
H164	H	-0.146251	-0.261936	-0.227486
H165	H	-0.259338	-0.465171	-0.404555
C166	C	-0.181340	-0.135194	-0.218285
H167	H	-0.186129	-0.091537	-0.224027
H168	H	-0.146226	-0.145980	-0.227533
H169	H	-0.188940	-0.145855	-0.176163
C170	C	-0.321811	-0.821265	-0.935539
H171	H	-0.341723	-0.797388	-0.964379
H172	H	-0.301822	-0.793984	-0.909993
H173	H	-0.344597	-0.845215	-0.910032
C174	C	-0.260509	-0.337131	-0.420729
H175	H	-0.259895	-0.293467	-0.412664
H176	H	-0.292365	-0.347831	-0.440692
H177	H	-0.232097	-0.347927	-0.447141
H178	H	-0.337072	-0.896438	-0.861831
H179	H	-0.701986	-0.792613	-0.414829
C180	C	-0.242899	-0.336890	-0.183668
H181	H	-0.240399	-0.365713	-0.150044
H182	H	-0.272852	-0.311317	-0.178099
H183	H	-0.212586	-0.311407	-0.184562
H184	H	-0.244119	-0.464961	-0.199746
