data_functionalizedCrystal
_audit_creation_method	'MofGen! by Chris Wilmer'
_symmetry_space_group_name_H-M	'P1'
_symmetry_Int_Tables_number	1
_symmetry_cell_setting	triclinic
loop_
_symmetry_equiv_pos_as_xyz
  x,y,z
_cell_length_a	21.295418
_cell_length_b	21.295418
_cell_length_c	16.959447
_cell_angle_alpha	89.972529
_cell_angle_beta	89.962187
_cell_angle_gamma	90.044200
loop_
_atom_site_label
_atom_site_type_symbol
_atom_site_fract_x
_atom_site_fract_y
_atom_site_fract_z
Zn1	Zn	0.962328	-0.250353	-0.447333
Zn2	Zn	1.295662	0.082980	-0.114000
Zn3	Zn	1.628995	0.416314	0.219333
Zn4	Zn	0.962245	-0.355623	-0.315153
Zn5	Zn	1.295579	-0.022290	0.018180
Zn6	Zn	1.628912	0.311043	0.351513
Zn7	Zn	0.857062	-0.250401	-0.315124
Zn8	Zn	1.190396	0.082932	0.018209
Zn9	Zn	1.523729	0.416266	0.351543
Zn10	Zn	0.857025	-0.355618	-0.447245
Zn11	Zn	1.190358	-0.022284	-0.113912
Zn12	Zn	1.523691	0.311049	0.219422
O13	O	0.909665	-0.302999	-0.381214
O14	O	1.242999	0.030335	-0.047881
O15	O	1.576332	0.363668	0.285453
O16	O	1.050407	-0.264300	-0.429849
O17	O	1.383740	0.069033	-0.096515
O18	O	1.717073	0.402367	0.236818
O19	O	0.948274	-0.341688	-0.204538
O20	O	1.281607	-0.008355	0.128795
O21	O	1.614940	0.324979	0.462128
O22	O	0.871076	-0.162305	-0.332687
O23	O	1.204410	0.171028	0.000647
O24	O	1.537743	0.504361	0.333980
O25	O	1.050346	-0.341641	-0.332736
O26	O	1.383679	-0.008308	0.000597
O27	O	1.717013	0.325025	0.333930
O28	O	0.948415	-0.162270	-0.429820
O29	O	1.281748	0.171063	-0.096487
O30	O	1.615082	0.504397	0.236846
O31	O	0.870996	-0.264381	-0.204517
O32	O	1.204329	0.068952	0.128816
O33	O	1.537663	0.402285	0.462150
O34	O	0.768968	-0.264376	-0.332601
O35	O	1.102301	0.068958	0.000732
O36	O	1.435635	0.402291	0.334066
O37	O	0.871012	-0.341631	-0.557868
O38	O	1.204346	-0.008298	-0.224534
O39	O	1.537679	0.325035	0.108799
O40	O	0.768940	-0.341678	-0.429670
O41	O	1.102274	-0.008345	-0.096336
O42	O	1.435607	0.324989	0.236997
O43	O	0.948378	-0.264294	-0.557933
O44	O	1.281712	0.069039	-0.224599
O45	O	1.615045	0.402372	0.108734
O46	O	0.948237	-0.443712	-0.332651
O47	O	1.281571	-0.110379	0.000683
O48	O	1.614904	0.222955	0.334016
O49	O	0.870932	-0.443708	-0.429698
O50	O	1.204265	-0.110374	-0.096365
O51	O	1.537599	0.222959	0.236969
C52	C	0.746114	-0.303032	-0.381123
C53	C	1.079447	0.030301	-0.047790
C54	C	1.412780	0.363635	0.285544
C55	C	0.676145	-0.303061	-0.381103
C56	C	1.009479	0.030272	-0.047769
C57	C	1.342812	0.363605	0.285564
C58	C	0.909589	-0.466550	-0.381185
C59	C	1.242922	-0.133217	-0.047852
C60	C	1.576255	0.200116	0.285482
C61	C	0.909614	-0.536518	-0.381199
C62	C	1.242947	-0.203185	-0.047866
C63	C	1.576280	0.130148	0.285468
C64	C	0.950014	-1.035905	-0.431893
C65	C	1.283347	-0.702571	-0.098559
C66	C	1.616680	-0.369238	0.234774
C67	C	0.949995	-0.970162	-0.431880
C68	C	1.283329	-0.636829	-0.098547
C69	C	1.616662	-0.303496	0.234786
C70	C	0.909751	-0.937358	-0.381263
C71	C	1.243084	-0.604025	-0.047930
C72	C	1.576418	-0.270691	0.285403
C73	C	0.869534	-0.970301	-0.330641
C74	C	1.202867	-0.636968	0.002693
C75	C	1.536200	-0.303635	0.336026
C76	C	0.869558	-1.036043	-0.330649
C77	C	1.202891	-0.702709	0.002684
C78	C	1.536224	-0.369376	0.336018
N79	N	0.854614	-0.834204	-0.375099
N80	N	1.187947	-0.500870	-0.041766
N81	N	1.521281	-0.167537	0.291568
N82	N	0.854593	-0.771752	-0.375096
N83	N	1.187926	-0.438419	-0.041762
N84	N	1.521260	-0.105085	0.291571
C85	C	0.909677	-0.739283	-0.381234
C86	C	1.243010	-0.405950	-0.047900
C87	C	1.576344	-0.072617	0.285433
N88	N	0.964784	-0.771625	-0.387391
N89	N	1.298117	-0.438292	-0.054057
N90	N	1.631451	-0.104958	0.279276
N91	N	0.964804	-0.834082	-0.387398
N92	N	1.298138	-0.500749	-0.054065
N93	N	1.631471	-0.167415	0.279268
C94	C	0.909721	-0.866072	-0.381248
C95	C	1.243054	-0.532739	-0.047915
C96	C	1.576387	-0.199406	0.285419
C97	C	0.949875	-0.635062	-0.431836
C98	C	1.283208	-0.301729	-0.098502
C99	C	1.616542	0.031605	0.234831
C100	C	0.949858	-0.569318	-0.431818
C101	C	1.283191	-0.235985	-0.098484
C102	C	1.616524	0.097348	0.234849
C103	C	0.869390	-0.569459	-0.330582
C104	C	1.202724	-0.236125	0.002751
C105	C	1.536057	0.097208	0.336085
C106	C	0.869413	-0.635201	-0.330596
C107	C	1.202747	-0.301868	0.002737
C108	C	1.536080	0.031466	0.336071
C109	C	0.909655	-0.667999	-0.381227
C110	C	1.242988	-0.334666	-0.047894
C111	C	1.576321	-0.001332	0.285440
C112	C	0.643281	-0.343366	-0.431571
C113	C	0.976614	-0.010032	-0.098238
C114	C	1.309948	0.323301	0.235096
C115	C	0.577538	-0.343350	-0.431606
C116	C	0.910872	-0.010017	-0.098273
C117	C	1.244205	0.323316	0.235060
C118	C	0.544663	-0.303037	-0.381160
C119	C	0.877996	0.030297	-0.047826
C120	C	1.211330	0.363630	0.285507
C121	C	0.577535	-0.262724	-0.330688
C122	C	0.910869	0.070609	0.002645
C123	C	1.244202	0.403942	0.335979
C124	C	0.643277	-0.262737	-0.330660
C125	C	0.976610	0.070597	0.002674
C126	C	1.309943	0.403930	0.336007
N127	N	0.441392	-0.298119	-0.312025
N128	N	0.774726	0.035214	0.021308
N129	N	1.108059	0.368547	0.354641
N130	N	0.378941	-0.298111	-0.312054
N131	N	0.712274	0.035222	0.021279
N132	N	1.045608	0.368555	0.354612
C133	C	0.346588	-0.302997	-0.381243
C134	C	0.679922	0.030337	-0.047910
C135	C	1.013255	0.363670	0.285423
N136	N	0.379046	-0.307902	-0.450404
N137	N	0.712380	0.025431	-0.117070
N138	N	1.045713	0.358764	0.216263
N139	N	0.441503	-0.307914	-0.450373
N140	N	0.774837	0.025420	-0.117040
N141	N	1.108170	0.358753	0.216293
C142	C	0.473378	-0.303019	-0.381185
C143	C	0.806711	0.030315	-0.047852
C144	C	1.140044	0.363648	0.285481
C145	C	0.242438	-0.343286	-0.431754
C146	C	0.575772	-0.009953	-0.098421
C147	C	0.909105	0.323380	0.234912
C148	C	0.176695	-0.343267	-0.431791
C149	C	0.510028	-0.009933	-0.098458
C150	C	0.843361	0.323400	0.234876
C151	C	0.176693	-0.262644	-0.330866
C152	C	0.510026	0.070689	0.002468
C153	C	0.843359	0.404023	0.335801
C154	C	0.242435	-0.262661	-0.330836
C155	C	0.575769	0.070673	0.002497
C156	C	0.909102	0.404006	0.335831
C157	C	0.275304	-0.302985	-0.381279
C158	C	0.608637	0.030348	-0.047946
C159	C	0.941971	0.363681	0.285388
C160	C	1.073855	-0.302966	-0.381306
C161	C	1.407189	0.030367	-0.047972
C162	C	1.740522	0.363701	0.285361
C163	C	1.143824	-0.302952	-0.381345
C164	C	1.477157	0.030381	-0.048012
C165	C	1.810490	0.363715	0.285322
C166	C	0.909700	-0.302957	-0.587382
C167	C	1.243034	0.030376	-0.254049
C168	C	1.576367	0.363710	0.079284
C169	C	0.909716	-0.302939	-0.675239
C170	C	1.243049	0.030394	-0.341906
C171	C	1.576382	0.363728	-0.008572
C172	C	0.909759	-0.138808	-0.381260
C173	C	1.243092	0.194525	-0.047927
C174	C	1.576426	0.527858	0.285406
C175	C	0.909799	-0.068840	-0.381280
C176	C	1.243132	0.264493	-0.047947
C177	C	1.576466	0.597826	0.285387
C178	C	0.869442	-0.343197	-0.716481
C179	C	1.202776	-0.009864	-0.383147
C180	C	1.536109	0.323469	-0.049814
C181	C	0.949999	-0.262660	-0.716551
C182	C	1.283332	0.070673	-0.383218
C183	C	1.616666	0.404007	-0.049884
C184	C	0.950012	-0.262639	-0.799097
C185	C	1.283346	0.070694	-0.465763
C186	C	1.616679	0.404027	-0.132430
C187	C	0.909739	-0.302898	-0.840338
C188	C	1.243072	0.030436	-0.507005
C189	C	1.576406	0.363769	-0.173672
C190	C	0.869453	-0.343176	-0.799034
C191	C	1.202786	-0.009843	-0.465701
C192	C	1.536120	0.323490	-0.132368
C193	C	0.990293	-0.222357	-0.840407
C194	C	1.323626	0.110977	-0.507074
C195	C	1.656960	0.444310	-0.173741
C196	C	0.990307	-0.222334	-0.922958
C197	C	1.323641	0.110999	-0.589625
C198	C	1.656974	0.444333	-0.256292
C199	C	0.950037	-0.262596	-0.964201
C200	C	1.283370	0.070737	-0.630868
C201	C	1.616704	0.404071	-0.297535
C202	C	0.909750	-0.302877	-0.922892
C203	C	1.243083	0.030456	-0.589559
C204	C	1.576416	0.363790	-0.256225
C205	C	0.869477	-0.343135	-0.964134
C206	C	1.202810	-0.009802	-0.630800
C207	C	1.536143	0.323532	-0.297467
C208	C	0.829192	-0.383420	-0.922826
C209	C	1.162525	-0.050086	-0.589492
C210	C	1.495859	0.283247	-0.256159
C211	C	0.829183	-0.383438	-0.840277
C212	C	1.162516	-0.050105	-0.506944
C213	C	1.495849	0.283228	-0.173611
C214	C	0.950046	-0.262577	-1.046750
C215	C	1.283380	0.070756	-0.713417
C216	C	1.616713	0.404089	-0.380083
C217	C	0.869487	-0.343114	-1.046687
C218	C	1.202820	-0.009781	-0.713354
C219	C	1.536154	0.323552	-0.380021
C220	C	0.909666	-0.302995	-0.175848
C221	C	1.243000	0.030338	0.157486
C222	C	1.576333	0.363672	0.490819
C223	C	0.909773	-0.302836	-0.087992
C224	C	1.243107	0.030498	0.245342
C225	C	1.576440	0.363831	0.578675
H226	H	0.982787	-1.062605	-0.473114
H227	H	1.316120	-0.729271	-0.139781
H228	H	1.649453	-0.395938	0.193552
H229	H	0.982841	-0.229773	-1.080379
H230	H	1.316174	0.103560	-0.747046
H231	H	1.649507	0.436893	-0.413712
H232	H	0.149926	-0.229817	-0.289795
H233	H	0.483260	0.103516	0.043539
H234	H	0.816593	0.436849	0.376872
F235	F	0.786328	-0.426260	-0.966728
F236	F	1.119662	-0.092927	-0.633394
F237	F	1.452995	0.240406	-0.300061
H238	H	0.550764	-0.229900	-0.289615
H239	H	0.884097	0.103433	0.043718
H240	H	1.217431	0.436767	0.377051
H241	H	0.836645	-0.375998	-0.682844
H242	H	1.169979	-0.042664	-0.349511
H243	H	1.503312	0.290669	-0.016177
H244	H	0.982744	-0.943341	-0.473097
H245	H	1.316077	-0.610008	-0.139763
H246	H	1.649411	-0.276675	0.193570
F247	F	0.826705	-0.935388	-0.276768
F248	F	1.160038	-0.602054	0.056566
F249	F	1.493371	-0.268721	0.389899
F250	F	0.992665	-0.534266	-0.485686
F251	F	1.325998	-0.200933	-0.152353
F252	F	1.659332	0.132401	0.180981
H253	H	0.982785	-0.229881	-0.682967
H254	H	1.316118	0.103452	-0.349634
H255	H	1.649451	0.436786	-0.016300
F256	F	0.678258	-0.386281	-0.485260
F257	F	1.011592	-0.052948	-0.151926
F258	F	1.344925	0.280386	0.181407
F259	F	0.826563	-0.534550	-0.276705
F260	F	1.159897	-0.201217	0.056628
F261	F	1.493230	0.132117	0.389961
F262	F	0.678255	-0.219837	-0.276942
F263	F	1.011588	0.113496	0.056391
F264	F	1.344921	0.446830	0.389724
F265	F	0.786309	-0.426305	-0.796310
F266	F	1.119642	-0.092971	-0.462976
F267	F	1.452976	0.240362	-0.129643
F268	F	0.542554	-0.386249	-0.485324
F269	F	0.875888	-0.052916	-0.151990
F270	F	1.209221	0.280417	0.181343
F271	F	0.826753	-1.071096	-0.276778
F272	F	1.160087	-0.737763	0.056555
F273	F	1.493420	-0.404429	0.389889
H274	H	0.836664	-0.662018	-0.289385
H275	H	1.169997	-0.328684	0.043949
H276	H	1.503330	0.004649	0.377282
F277	F	0.992708	-0.669970	-0.485714
F278	F	1.326042	-0.336637	-0.152380
F279	F	1.659375	-0.003304	0.180953
H280	H	0.269201	-0.376118	-0.472832
H281	H	0.602535	-0.042785	-0.139499
H282	H	0.935868	0.290549	0.193834
H283	H	0.149937	-0.376086	-0.472893
H284	H	0.483271	-0.042753	-0.139560
H285	H	0.816604	0.290581	0.193773
H286	H	0.269194	-0.229844	-0.289735
H287	H	0.602527	0.103490	0.043598
H288	H	0.935861	0.436823	0.376931
H289	H	1.023079	-0.189579	-0.806822
H290	H	1.356412	0.143755	-0.473489
H291	H	1.689746	0.477088	-0.140156
H292	H	0.836694	-0.375900	-1.080260
H293	H	1.170027	-0.042567	-0.746927
H294	H	1.503360	0.290766	-0.413594
F295	F	1.033192	-0.179471	-0.966914
F296	F	1.366526	0.153862	-0.633580
F297	F	1.699859	0.487195	-0.300247
