data_functionalizedCrystal
_audit_creation_method	'MofGen! by Chris Wilmer'
_symmetry_space_group_name_H-M	'P1'
_symmetry_Int_Tables_number	1
_symmetry_cell_setting	triclinic
loop_
_symmetry_equiv_pos_as_xyz
  x,y,z
_cell_length_a	16.120530
_cell_length_b	12.594516
_cell_length_c	16.120256
_cell_angle_alpha	87.128506
_cell_angle_beta	90.128265
_cell_angle_gamma	92.887010
loop_
_atom_site_label
_atom_site_type_symbol
_atom_site_fract_x
_atom_site_fract_y
_atom_site_fract_z
Zn1	Zn	1.247485	0.539266	-0.534546
Zn2	Zn	1.497485	0.789266	-0.284546
Zn3	Zn	1.747485	1.039266	-0.034546
Zn4	Zn	1.997485	1.289266	0.215454
Zn5	Zn	1.254449	0.708702	-0.395481
Zn6	Zn	1.504449	0.958702	-0.145481
Zn7	Zn	1.754449	1.208702	0.104519
Zn8	Zn	2.004449	1.458702	0.354519
Zn9	Zn	1.115473	0.521274	-0.388464
Zn10	Zn	1.365473	0.771274	-0.138464
Zn11	Zn	1.615473	1.021274	0.111536
Zn12	Zn	1.865473	1.271274	0.361536
Zn13	Zn	1.108406	0.707727	-0.527451
Zn14	Zn	1.358406	0.957727	-0.277451
Zn15	Zn	1.608406	1.207727	-0.027451
Zn16	Zn	1.858406	1.457727	0.222549
O17	O	1.181453	0.619242	-0.461485
O18	O	1.431453	0.869242	-0.211485
O19	O	1.681453	1.119242	0.038515
O20	O	1.931453	1.369242	0.288515
O21	O	1.364775	0.569679	-0.522005
O22	O	1.614775	0.819679	-0.272005
O23	O	1.864775	1.069679	-0.022005
O24	O	2.114775	1.319679	0.227995
O25	O	1.241887	0.676718	-0.278185
O26	O	1.491887	0.926718	-0.028185
O27	O	1.741887	1.176718	0.221815
O28	O	1.991887	1.426718	0.471815
O29	O	1.133028	0.374720	-0.407875
O30	O	1.383028	0.624720	-0.157875
O31	O	1.633028	0.874720	0.092125
O32	O	1.883028	1.124720	0.342125
O33	O	1.369892	0.694163	-0.419834
O34	O	1.619892	0.944163	-0.169834
O35	O	1.869892	1.194163	0.080166
O36	O	2.119892	1.444163	0.330166
O37	O	1.230016	0.387938	-0.515200
O38	O	1.480016	0.637938	-0.265200
O39	O	1.730016	0.887938	-0.015200
O40	O	1.980016	1.137938	0.234800
O41	O	1.139782	0.539015	-0.273029
O42	O	1.389782	0.789015	-0.023029
O43	O	1.639782	1.039015	0.226971
O44	O	1.889782	1.289015	0.476971
O45	O	0.998169	0.538070	-0.400995
O46	O	1.248169	0.788070	-0.150995
O47	O	1.498169	1.038070	0.099005
O48	O	1.748169	1.288070	0.349005
O49	O	1.120982	0.692502	-0.644758
O50	O	1.370982	0.942502	-0.394758
O51	O	1.620982	1.192502	-0.144758
O52	O	1.870982	1.442502	0.105242
O53	O	0.992976	0.675056	-0.503108
O54	O	1.242976	0.925056	-0.253108
O55	O	1.492976	1.175056	-0.003108
O56	O	1.742976	1.425056	0.246892
O57	O	1.223163	0.568734	-0.649970
O58	O	1.473163	0.818734	-0.399970
O59	O	1.723163	1.068734	-0.149970
O60	O	1.973163	1.318734	0.100030
O61	O	1.235033	0.857513	-0.412955
O62	O	1.485033	1.107513	-0.162955
O63	O	1.735033	1.357513	0.087045
O64	O	1.985033	1.607513	0.337045
O65	O	1.127736	0.856797	-0.509912
O66	O	1.377736	1.106797	-0.259912
O67	O	1.627736	1.356797	-0.009912
O68	O	1.877736	1.606797	0.240088
C69	C	0.965400	0.604505	-0.450521
C70	C	1.215400	0.854505	-0.200521
C71	C	1.465400	1.104505	0.049479
C72	C	1.715400	1.354505	0.299479
C73	C	0.872970	0.598228	-0.445850
C74	C	1.122970	0.848228	-0.195850
C75	C	1.372970	1.098228	0.054150
C76	C	1.622970	1.348228	0.304150
C77	C	0.703740	0.586742	-0.437329
C78	C	0.953740	0.836742	-0.187329
C79	C	1.203740	1.086742	0.062671
C80	C	1.453740	1.336742	0.312671
C81	C	0.660004	0.651824	-0.485703
C82	C	0.910004	0.901824	-0.235703
C83	C	1.160004	1.151824	0.014297
C84	C	1.410004	1.401824	0.264297
C85	C	0.565838	0.645434	-0.480962
C86	C	0.815838	0.895434	-0.230962
C87	C	1.065838	1.145434	0.019038
C88	C	1.315838	1.395434	0.269038
C89	C	0.797914	0.593131	-0.442069
C90	C	1.047914	0.843131	-0.192069
C91	C	1.297914	1.093131	0.057931
C92	C	1.547914	1.343131	0.307931
C93	C	1.181395	0.895777	-0.461444
C94	C	1.431395	1.145777	-0.211444
C95	C	1.681395	1.395777	0.038556
C96	C	1.931395	1.645777	0.288556
C97	C	1.181445	1.014086	-0.461458
C98	C	1.431445	1.264086	-0.211458
C99	C	1.681445	1.514086	0.038542
C100	C	1.931445	1.764086	0.288542
C101	C	1.239860	1.083698	-0.408779
C102	C	1.489860	1.333698	-0.158779
C103	C	1.739860	1.583698	0.091221
C104	C	1.989860	1.833698	0.341221
C105	C	1.256326	1.160454	-0.485700
C106	C	1.506326	1.410454	-0.235700
C107	C	1.756326	1.660454	0.014300
C108	C	2.006326	1.910454	0.264300
C109	C	1.165064	1.148137	-0.384572
C110	C	1.415064	1.398137	-0.134572
C111	C	1.665064	1.648137	0.115428
C112	C	1.915064	1.898137	0.365428
C113	C	1.197948	1.089289	-0.538421
C114	C	1.447948	1.339289	-0.288421
C115	C	1.697948	1.589289	-0.038421
C116	C	1.947948	1.839289	0.211579
C117	C	1.106653	1.076960	-0.437240
C118	C	1.356653	1.326960	-0.187240
C119	C	1.606653	1.576960	0.062760
C120	C	1.856653	1.826960	0.312760
C121	C	1.123088	1.153686	-0.514212
C122	C	1.373088	1.403686	-0.264212
C123	C	1.623088	1.653686	-0.014212
C124	C	1.873088	1.903686	0.235788
C125	C	1.398350	0.634037	-0.472494
C126	C	1.648350	0.884037	-0.222494
C127	C	1.898350	1.134037	0.027506
C128	C	2.148350	1.384037	0.277506
C129	C	1.490779	0.640342	-0.477185
C130	C	1.740779	0.890342	-0.227185
C131	C	1.990779	1.140342	0.022815
C132	C	2.240779	1.390342	0.272815
C133	C	1.170507	0.632516	-0.678380
C134	C	1.420507	0.882516	-0.428380
C135	C	1.670507	1.132516	-0.178380
C136	C	1.920507	1.382516	0.071620
C137	C	1.165842	0.638172	-0.770807
C138	C	1.415842	0.888172	-0.520807
C139	C	1.665842	1.138172	-0.270807
C140	C	1.915842	1.388172	-0.020807
C141	C	1.181515	1.341628	-0.461524
C142	C	1.431515	1.591628	-0.211524
C143	C	1.681515	1.841628	0.038476
C144	C	1.931515	2.091628	0.288476
C145	C	1.181493	1.223318	-0.461482
C146	C	1.431493	1.473318	-0.211482
C147	C	1.681493	1.723318	0.038518
C148	C	1.931493	1.973318	0.288518
C149	C	1.205777	0.589716	-0.983793
C150	C	1.455777	0.839716	-0.733793
C151	C	1.705777	1.089716	-0.483793
C152	C	1.955777	1.339716	-0.233793
C153	C	1.157298	0.648454	-0.940027
C154	C	1.407298	0.898454	-0.690027
C155	C	1.657298	1.148454	-0.440027
C156	C	1.907298	1.398454	-0.190027
C157	C	1.162054	0.642732	-0.845865
C158	C	1.412054	0.892732	-0.595865
C159	C	1.662054	1.142732	-0.345865
C160	C	1.912054	1.392732	-0.095865
C161	C	1.201023	0.595437	-1.077964
C162	C	1.451023	0.845437	-0.827964
C163	C	1.701023	1.095437	-0.577964
C164	C	1.951023	1.345437	-0.327964
C165	C	1.192405	0.605946	-0.245437
C166	C	1.442405	0.855946	0.004563
C167	C	1.692405	1.105946	0.254563
C168	C	1.942405	1.355946	0.504563
C169	C	1.197230	0.600001	-0.153018
C170	C	1.447230	0.850001	0.096982
C171	C	1.697230	1.100001	0.346982
C172	C	1.947230	1.350001	0.596982
H173	H	0.670465	0.526229	-0.392356
H174	H	0.920465	0.776229	-0.142356
H175	H	1.170465	1.026229	0.107644
H176	H	1.420465	1.276229	0.357644
Cl177	Cl	1.354012	1.216732	-0.517365
Cl178	Cl	1.604012	1.466732	-0.267365
Cl179	Cl	1.854012	1.716732	-0.017365
Cl180	Cl	2.104012	1.966732	0.232635
H181	H	1.250850	0.535137	-0.950546
H182	H	1.500850	0.785137	-0.700546
H183	H	1.750850	1.035137	-0.450546
H184	H	2.000850	1.285137	-0.200546
Cl185	Cl	1.046846	1.200857	-0.583088
Cl186	Cl	1.296846	1.450857	-0.333088
Cl187	Cl	1.546846	1.700857	-0.083088
Cl188	Cl	1.796846	1.950857	0.166912
Cl189	Cl	0.711378	0.745254	-0.555148
Cl190	Cl	0.961378	0.995254	-0.305148
Cl191	Cl	1.211378	1.245254	-0.055148
Cl192	Cl	1.461378	1.495254	0.194852
Cl193	Cl	1.219497	1.049290	-0.638858
Cl194	Cl	1.469497	1.299290	-0.388858
Cl195	Cl	1.719497	1.549290	-0.138858
Cl196	Cl	1.969497	1.799290	0.111142
H197	H	1.289272	1.052962	-0.364281
H198	H	1.539272	1.302962	-0.114281
H199	H	1.789272	1.552962	0.135719
H200	H	2.039272	1.802962	0.385719
H201	H	1.043402	1.040471	-0.416719
H202	H	1.293402	1.290471	-0.166719
H203	H	1.543402	1.540471	0.083281
H204	H	1.793402	1.790471	0.333281
H205	H	1.151189	1.174187	-0.319541
H206	H	1.401189	1.424187	-0.069541
H207	H	1.651189	1.674187	0.180459
H208	H	1.901189	1.924187	0.430459
H209	H	1.112218	0.703032	-0.973276
H210	H	1.362218	0.953032	-0.723276
H211	H	1.612218	1.203032	-0.473276
H212	H	1.862218	1.453032	-0.223276
