data_functionalizedCrystal
_audit_creation_method	'MofGen! by Chris Wilmer'
_symmetry_space_group_name_H-M	'P1'
_symmetry_Int_Tables_number	1
_symmetry_cell_setting	triclinic
loop_
_symmetry_equiv_pos_as_xyz
  x,y,z
_cell_length_a	14.908571
_cell_length_b	12.594516
_cell_length_c	14.908775
_cell_angle_alpha	93.304156
_cell_angle_beta	90.190472
_cell_angle_gamma	86.712497
loop_
_atom_site_label
_atom_site_type_symbol
_atom_site_fract_x
_atom_site_fract_y
_atom_site_fract_z
Zn1	Zn	1.345213	-0.475666	0.587618
Zn2	Zn	1.353833	-0.664438	0.437269
Zn3	Zn	1.203558	-0.476814	0.428615
Zn4	Zn	1.194833	-0.643939	0.578921
O5	O	1.274359	-0.565214	0.508106
O6	O	1.472181	-0.508806	0.574936
O7	O	1.341158	-0.648609	0.310296
O8	O	1.222393	-0.327718	0.449725
O9	O	1.478515	-0.647496	0.464475
O10	O	1.326466	-0.326875	0.566544
O11	O	1.230752	-0.510762	0.303937
O12	O	1.076576	-0.490884	0.441291
O13	O	1.207521	-0.612557	0.705900
O14	O	1.070165	-0.613670	0.551721
O15	O	1.318005	-0.488929	0.712290
O16	O	1.332697	-0.810663	0.456042
O17	O	1.215880	-0.795602	0.560113
C18	C	1.040745	-0.550178	0.494624
C19	C	0.940803	-0.543769	0.488877
C20	C	0.746383	-0.659806	0.592915
C21	C	0.652478	-0.653788	0.587519
C22	C	0.659086	-0.525709	0.472694
C23	C	0.752991	-0.531728	0.478090
C24	C	0.796636	-0.598780	0.538201
C25	C	0.890543	-0.604803	0.543593
C26	C	0.897149	-0.476719	0.428773
C27	C	0.803244	-0.470701	0.423377
C28	C	1.274301	-0.841752	0.508094
C29	C	1.274356	-0.960059	0.508123
C30	C	1.210816	-1.021162	0.564685
C31	C	1.193663	-1.096495	0.481377
C32	C	1.291590	-1.095529	0.591450
C33	C	1.257162	-1.033835	0.424770
C34	C	1.355125	-1.032861	0.534900
C35	C	1.338006	-1.108168	0.451537
C36	C	1.508885	-0.580310	0.521641
C37	C	1.608826	-0.586743	0.527409
C38	C	1.260828	-0.548328	0.742632
C39	C	1.255062	-0.541133	0.842574
C40	C	1.274441	-0.287597	0.508139
C41	C	1.274476	-0.169293	0.508153
C42	C	1.189459	-0.459224	0.980125
C43	C	1.194873	-0.465983	0.886222
C44	C	1.309843	-0.609526	0.892837
C45	C	1.304428	-0.602767	0.986741
C46	C	1.244234	-0.527615	1.030381
C47	C	1.238815	-0.520862	1.124287
C48	C	1.353789	-0.664399	1.130900
C49	C	1.359203	-0.671158	1.036997
C50	C	1.287830	-0.582058	1.274491
C51	C	1.293596	-0.589256	1.174550
H52	H	0.611565	-0.703480	0.632073
H53	H	1.391794	-1.145913	0.403659
H54	H	1.423356	-1.004763	0.557563
H55	H	1.306119	-1.122776	0.661906
H56	H	1.189801	-0.459669	1.159818
O57	O	0.945832	-0.417392	0.375530
C58	C	0.942471	-0.289670	0.261112
C59	C	0.887230	-0.356812	0.321341
H60	H	0.895114	-0.240656	0.217298
H61	H	0.989112	-0.344611	0.216491
H62	H	0.984090	-0.233977	0.305012
H63	H	0.845558	-0.412511	0.277510
H64	H	0.840646	-0.301808	0.365967
O65	O	1.130965	-0.386139	1.022383
C66	C	1.017451	-0.244533	1.005912
C67	C	1.083673	-0.327235	0.957944
H68	H	0.979185	-0.196902	0.953834
H69	H	1.056168	-0.188295	1.052237
H70	H	0.967929	-0.287235	1.047184
H71	H	1.133211	-0.284624	0.916625
H72	H	1.044898	-0.383469	0.911673
O73	O	0.616731	-0.460406	0.414410
C74	C	0.590592	-0.280552	0.369353
C75	C	0.638586	-0.354394	0.435430
H76	H	0.608259	-0.194829	0.386312
H77	H	0.514830	-0.286618	0.374891
H78	H	0.613208	-0.305565	0.297887
H79	H	0.616044	-0.329431	0.506924
H80	H	0.714340	-0.348319	0.429813
H81	H	1.125414	-1.124592	0.458752
H82	H	1.242554	-1.006712	0.354290
H83	H	1.150272	-0.410290	0.845306
O84	O	1.368239	-0.682488	0.850292
C85	C	1.427578	-0.756448	0.708556
C86	C	1.361389	-0.673789	0.756622
H87	H	1.422075	-0.749428	0.632817
H88	H	1.410706	-0.839961	0.726020
H89	H	1.499007	-0.741099	0.731260
H90	H	1.289937	-0.689039	0.733945
H91	H	1.378338	-0.590304	0.739158
H92	H	1.408214	-0.732342	1.001451
O93	O	1.406976	-0.730715	1.179858
C94	C	1.449568	-0.783945	1.327451
C95	C	1.389297	-0.708769	1.272118
H96	H	1.435283	-0.766244	1.402053
H97	H	1.523153	-0.771229	1.313236
H98	H	1.434844	-0.870080	1.308017
H99	H	1.403942	-0.622606	1.291520
H100	H	1.315730	-0.721578	1.286339
H101	H	0.926077	-0.659402	0.592537
H102	H	0.781919	-0.714409	0.641855
H103	H	0.767696	-0.416107	0.374438
O104	O	1.146498	-0.975946	0.621546
C105	C	0.988736	-0.957040	0.657571
C106	C	1.061482	-1.008298	0.593102
H107	H	0.919986	-0.983194	0.634609
H108	H	0.989633	-0.866593	0.657503
H109	H	1.002747	-0.983445	0.728378
H110	H	1.047520	-0.981977	0.522265
H111	H	1.060567	-1.098737	0.593248
