data_functionalizedCrystal
_audit_creation_method	'MofGen! by Chris Wilmer'
_symmetry_space_group_name_H-M	'P1'
_symmetry_Int_Tables_number	1
_symmetry_cell_setting	triclinic
loop_
_symmetry_equiv_pos_as_xyz
  x,y,z
_cell_length_a	17.699083
_cell_length_b	10.723023
_cell_length_c	16.776229
_cell_angle_alpha	90.000369
_cell_angle_beta	89.998901
_cell_angle_gamma	83.875281
loop_
_atom_site_label
_atom_site_type_symbol
_atom_site_fract_x
_atom_site_fract_y
_atom_site_fract_z
O1	O	1.005074	0.157786	-0.066175
O2	O	1.505074	0.657786	0.433825
O3	O	0.784825	0.178316	-0.066201
O4	O	1.284825	0.678316	0.433799
O5	O	0.900030	-0.013612	-0.066184
O6	O	1.400030	0.486388	0.433816
O7	O	0.889869	0.349714	-0.066191
O8	O	1.389869	0.849714	0.433809
O9	O	0.900014	-0.013602	0.066393
O10	O	1.400014	0.486398	0.566393
O11	O	0.784808	0.178326	0.066376
O12	O	1.284808	0.678326	0.566376
O13	O	1.005057	0.157796	0.066402
O14	O	1.505057	0.657796	0.566402
Zn15	Zn	0.894930	0.168063	0.087438
Zn16	Zn	1.394930	0.668063	0.587438
Zn17	Zn	0.894952	0.168049	-0.087237
Zn18	Zn	1.394952	0.668049	0.412763
O19	O	0.889852	0.349725	0.066385
O20	O	1.389852	0.849725	0.566385
C21	C	0.756615	0.177585	0.000084
C22	C	1.256615	0.677585	0.500084
C23	C	0.672583	0.175379	0.000075
C24	C	1.172583	0.675379	0.500075
C25	C	0.624673	0.288036	0.000072
C26	C	1.124673	0.788036	0.500072
C27	C	0.545716	0.285955	0.000083
C28	C	1.045716	0.785955	0.500083
C29	C	0.514672	0.171215	0.000090
C30	C	1.014672	0.671215	0.500090
C31	C	0.562589	0.058549	0.000094
C32	C	1.062589	0.558549	0.500094
C33	C	0.641544	0.060631	0.000089
C34	C	1.141544	0.560631	0.500089
C35	C	0.244173	0.050148	0.000114
C36	C	0.744173	0.550148	0.500114
C37	C	0.165212	0.048075	0.000116
C38	C	0.665212	0.548075	0.500116
C39	C	0.148345	0.275473	0.000107
C40	C	0.648345	0.775473	0.500107
C41	C	0.227300	0.277555	0.000103
C42	C	0.727300	0.777555	0.500103
C43	C	0.275210	0.164889	0.000111
C44	C	0.775210	0.664889	0.500111
C45	C	0.360823	0.167147	0.000102
C46	C	0.860823	0.667147	0.500102
C47	C	0.429060	0.168956	0.000094
C48	C	0.929060	0.668956	0.500094
C49	C	0.899283	-0.060094	0.000104
C50	C	1.399283	0.439906	0.500104
C51	C	0.897071	-0.198611	0.000101
C52	C	1.397071	0.301389	0.500101
C53	C	0.896093	-0.260365	-0.068579
C54	C	1.396093	0.239635	0.431421
C55	C	0.893807	-0.403529	-0.068584
C56	C	1.393807	0.096471	0.431416
C57	C	1.033267	0.158527	0.000115
C58	C	1.533267	0.658527	0.500115
C59	C	1.117299	0.160734	0.000120
C60	C	1.617299	0.660734	0.500120
C61	C	0.890600	0.396206	0.000096
C62	C	1.390600	0.896206	0.500096
C63	C	0.892812	0.534723	0.000094
C64	C	1.392812	1.034723	0.500094
N65	N	0.894921	0.168071	0.206650
N66	N	1.394921	0.668071	0.706650
N67	N	0.894968	0.168031	-0.206448
N68	N	1.394968	0.668031	0.293552
C69	C	0.945987	0.083076	0.751822
C70	C	1.445987	0.583076	1.251822
C71	C	0.945984	0.083085	0.668370
C72	C	1.445984	0.583085	1.168370
C73	C	0.894956	0.168044	0.626649
C74	C	1.394956	0.668044	1.126649
C75	C	0.843935	0.253008	0.668385
C76	C	1.343935	0.753008	1.168385
C77	C	0.843943	0.253004	0.751836
C78	C	1.343943	0.753004	1.251836
C79	C	0.843903	0.253027	0.331838
C80	C	1.343903	0.753027	0.831838
C81	C	0.843897	0.253021	0.248381
C82	C	1.343897	0.753021	0.748381
C83	C	0.945943	0.083107	0.248372
C84	C	1.445943	0.583107	0.748372
C85	C	0.945951	0.083103	0.331822
C86	C	1.445951	0.583103	0.831822
C87	C	0.894933	0.168071	0.373551
C88	C	1.394933	0.668071	0.873551
C89	C	0.894938	0.168062	0.464039
C90	C	1.394938	0.668062	0.964039
C91	C	0.894947	0.168048	0.536162
C92	C	1.394947	0.668048	1.036162
H93	H	0.506710	0.377693	0.000080
H94	H	1.006710	0.877693	0.500080
H95	H	0.896946	-0.207245	-0.127375
H96	H	1.396946	0.292755	0.372625
O97	O	0.794306	0.335571	0.792251
O98	O	1.294306	0.835571	1.292251
C99	C	0.749277	0.410578	0.737535
C100	C	1.249277	0.910578	1.237535
H101	H	0.748153	0.359423	0.678048
H102	H	1.248153	0.859423	1.178048
H103	H	0.688938	0.429736	0.761655
H104	H	1.188938	0.929736	1.261655
H105	H	0.774326	0.503226	0.728659
H106	H	1.274326	1.003226	1.228659
H107	H	0.896210	-0.251728	0.058897
H108	H	1.396210	0.248272	0.558897
O109	O	0.654700	0.399606	0.000100
O110	O	1.154700	0.899606	0.500100
C111	C	0.595478	0.498593	0.000082
C112	C	1.095478	0.998593	0.500082
H113	H	0.541671	0.463775	0.025186
H114	H	1.041671	0.963775	0.525186
H115	H	0.612391	0.578720	0.038569
H116	H	1.112391	1.078720	0.538569
H117	H	0.584485	0.533327	-0.063522
H118	H	1.084485	1.033327	0.436478
H119	H	0.109327	0.367211	0.000104
H120	H	0.609327	0.867211	0.500104
H121	H	0.892970	-0.456636	-0.127383
H122	H	1.392970	0.043364	0.372617
H123	H	0.283172	-0.041591	0.000122
H124	H	0.783172	0.458409	0.500122
H125	H	0.802343	0.322210	0.214414
H126	H	1.302343	0.822210	0.714414
O127	O	0.794271	0.335606	0.372242
O128	O	1.294271	0.835606	0.872242
C129	C	0.749246	0.410609	0.317521
C130	C	1.249246	0.910609	0.817521
H131	H	0.748120	0.359444	0.258037
H132	H	1.248120	0.859444	0.758037
H133	H	0.688907	0.429780	0.341639
H134	H	1.188907	0.929780	0.841639
H135	H	0.774301	0.503250	0.308637
H136	H	1.274301	1.003250	0.808637
O137	O	0.893707	-0.402050	0.070298
O138	O	1.393707	0.097950	0.570298
C139	C	0.827749	-0.419410	0.114267
C140	C	1.327749	0.080590	0.614267
H141	H	0.804430	-0.509172	0.093791
H142	H	1.304430	-0.009172	0.593791
H143	H	0.842383	-0.426950	0.180388
H144	H	1.342383	0.073050	0.680388
H145	H	0.783100	-0.336148	0.104179
H146	H	1.283100	0.163852	0.604179
H147	H	0.537306	-0.034875	0.000111
H148	H	1.037306	0.465125	0.500111
H149	H	0.139939	-0.045366	0.000123
H150	H	0.639939	0.454634	0.500123
H151	H	0.987536	0.013888	0.785785
H152	H	1.487536	0.513888	1.285785
H153	H	0.987528	0.013909	0.634393
H154	H	1.487528	0.513909	1.134393
O155	O	0.995593	0.000528	0.372225
O156	O	1.495593	0.500528	0.872225
C157	C	1.040612	-0.074475	0.317497
C158	C	1.540612	0.425525	0.817497
H159	H	1.041725	-0.023318	0.258010
H160	H	1.541725	0.476682	0.758010
H161	H	1.100956	-0.093633	0.341602
H162	H	1.600956	0.406367	0.841602
H163	H	1.015562	-0.167123	0.308626
H164	H	1.515562	0.332877	0.808626
H165	H	0.802390	0.322190	0.634411
H166	H	1.302390	0.822190	1.134411
H167	H	0.680552	-0.031107	0.000091
H168	H	1.180552	0.468893	0.500091
O169	O	0.995454	0.000648	0.207712
O170	O	1.495454	0.500648	0.707712
C171	C	0.984483	0.018819	0.125109
C172	C	1.484483	0.518819	0.625109
H173	H	0.956752	0.118109	0.113703
H174	H	1.456752	0.618109	0.613703
H175	H	1.041713	0.004728	0.093373
H176	H	1.541713	0.504728	0.593373
H177	H	0.946115	-0.051684	0.101458
H178	H	1.446115	0.448316	0.601458
H179	H	0.252572	0.370988	0.000093
H180	H	0.752572	0.870988	0.500093
