data_functionalizedCrystal
_audit_creation_method	'MofGen! by Chris Wilmer'
_symmetry_space_group_name_H-M	'P1'
_symmetry_Int_Tables_number	1
_symmetry_cell_setting	triclinic
loop_
_symmetry_equiv_pos_as_xyz
  x,y,z
_cell_length_a	13.262390
_cell_length_b	19.188924
_cell_length_c	12.376457
_cell_angle_alpha	101.235232
_cell_angle_beta	63.168449
_cell_angle_gamma	83.812011
loop_
_atom_site_label
_atom_site_type_symbol
_atom_site_fract_x
_atom_site_fract_y
_atom_site_fract_z
O1	O	1.512328	0.014816	-0.558985
O2	O	1.185081	0.039301	-0.458374
O3	O	1.358149	-0.074964	-0.511570
O4	O	1.339260	0.129080	-0.505789
O5	O	1.314898	-0.046435	-0.310264
O6	O	1.141829	0.067830	-0.257067
O7	O	1.469077	0.043345	-0.357679
Zn8	Zn	1.298586	0.060117	-0.275411
Zn9	Zn	1.355572	0.022529	-0.540641
O10	O	1.296008	0.157609	-0.304483
C11	C	1.121588	0.054817	-0.344849
C12	C	0.996838	0.058537	-0.306494
C13	C	0.739506	0.006806	-0.637326
C14	C	0.856716	0.003307	-0.673364
C15	C	0.891753	0.017114	-0.581649
C16	C	0.809567	0.034421	-0.453891
C17	C	0.692346	0.037915	-0.417849
C18	C	0.844593	0.048223	-0.362173
C19	C	0.762407	0.065529	-0.234414
C20	C	0.645199	0.069023	-0.198379
C21	C	0.610162	0.055216	-0.290093
C22	C	0.961814	0.044729	-0.398214
C23	C	0.914654	0.075838	-0.178738
C24	C	0.797444	0.079337	-0.142700
C25	C	1.335913	-0.086687	-0.410728
C26	C	1.334079	-0.164119	-0.410161
C27	C	1.356800	-0.216036	-0.519631
C28	C	1.355064	-0.288793	-0.519105
C29	C	1.330628	-0.309631	-0.409112
C30	C	1.307898	-0.257703	-0.299626
C31	C	1.309623	-0.184947	-0.300151
N32	N	1.374322	-0.420106	-0.346271
N33	N	1.372687	-0.489223	-0.345781
C34	C	1.325425	-0.528839	-0.407523
N35	N	1.279878	-0.496732	-0.469797
N36	N	1.281519	-0.427611	-0.470292
C37	C	1.328753	-0.388521	-0.408530
C38	C	1.346263	-0.659647	-0.516430
C39	C	1.344519	-0.732404	-0.515898
C40	C	1.297363	-0.701313	-0.296418
C41	C	1.299097	-0.628558	-0.296950
C42	C	1.323553	-0.607730	-0.406961
C43	C	1.532570	0.027828	-0.471207
C44	C	1.657322	0.024107	-0.509570
C45	C	1.318246	0.169331	-0.405328
C46	C	1.320081	0.246763	-0.405902
N47	N	1.259703	0.085769	-0.094402
N48	N	1.394464	-0.003130	-0.721654
C49	C	1.484724	-0.062690	0.191418
C50	C	1.511932	-0.080644	0.064716
C51	C	1.448877	-0.039043	0.024930
C52	C	1.358609	0.020516	0.111860
C53	C	1.331405	0.038475	0.238573
C54	C	1.295557	0.062123	0.072085
C55	C	1.205290	0.121682	0.159015
C56	C	1.178089	0.139638	0.285715
C57	C	1.241144	0.098036	0.325501
C58	C	1.322762	0.044164	-0.054629
C59	C	1.169443	0.145330	-0.007474
C60	C	1.142235	0.163283	0.119229
H61	H	1.028718	0.030640	-0.502236
H62	H	1.471034	-0.053663	-0.078238
H63	H	0.730512	0.093427	-0.038676
H64	H	1.291116	-0.142674	-0.211003
C65	C	0.442149	0.112209	-0.294296
C66	C	0.481335	0.059019	-0.250519
H67	H	0.362623	0.114540	-0.269883
H68	H	0.451125	0.158215	-0.259193
H69	H	0.486116	0.099934	-0.383506
H70	H	0.437373	0.071296	-0.161307
H71	H	0.472349	0.013003	-0.285616
C72	C	1.373367	-0.414131	-0.615747
C73	C	1.380046	-0.345873	-0.639443
H74	H	1.388784	-0.449367	-0.690038
H75	H	1.428908	-0.427662	-0.590712
H76	H	1.297869	-0.411658	-0.550433
H77	H	1.455547	-0.348346	-0.704752
H78	H	1.324502	-0.332340	-0.664495
C79	C	1.289295	-0.140526	-0.617757
C80	C	1.383531	-0.193173	-0.640546
H81	H	1.305761	-0.126417	-0.692404
H82	H	1.222149	-0.160280	-0.592723
H83	H	1.276080	-0.099171	-0.552700
H84	H	1.396741	-0.234530	-0.705597
H85	H	1.450697	-0.173420	-0.665598
C86	C	1.073389	0.084301	-0.136526
C87	C	0.953152	0.091018	-0.077913
H88	H	1.097158	0.093674	-0.074284
H89	H	1.111047	0.036295	-0.190201
H90	H	1.093500	0.118389	-0.184826
H91	H	0.933042	0.056926	-0.029620
H92	H	0.915481	0.139030	-0.024216
H93	H	1.218989	0.112652	0.428673
H94	H	1.287998	-0.274674	-0.210067
H95	H	1.280604	-0.586286	-0.207811
C96	C	1.397664	-0.084920	-0.113974
C97	C	1.421960	-0.021322	-0.150122
H98	H	1.458902	-0.125356	-0.172919
H99	H	1.390458	-0.080144	-0.032811
H100	H	1.327160	-0.092395	-0.111698
H101	H	1.492460	-0.013844	-0.152389
H102	H	1.429179	-0.026098	-0.231307
C103	C	1.392686	-0.697682	-0.733316
C104	C	1.373126	-0.636745	-0.637344
H105	H	1.409261	-0.683542	-0.807959
H106	H	1.456547	-0.733415	-0.748694
H107	H	1.325503	-0.717407	-0.708388
H108	H	1.440312	-0.617023	-0.662268
H109	H	1.309258	-0.600999	-0.621967
H110	H	0.710968	-0.004441	-0.711986
C111	C	1.175165	0.221162	-0.142329
C112	C	1.100125	0.191064	-0.051192
H113	H	1.132376	0.249391	-0.169329
H114	H	1.211194	0.251390	-0.107252
H115	H	1.232806	0.183112	-0.212226
H116	H	1.042489	0.229115	0.018709
H117	H	1.064077	0.160834	-0.086267
H118	H	1.277459	-0.718278	-0.206857
C119	C	0.958631	0.204823	0.308804
C120	C	1.043020	0.228752	0.214793
H121	H	0.897386	0.245242	0.367805
H122	H	0.928965	0.170396	0.271768
H123	H	0.992311	0.182613	0.350611
H124	H	1.009342	0.250958	0.172980
H125	H	1.072688	0.263192	0.251832
C126	C	1.273361	-0.820454	-0.612968
C127	C	1.369497	-0.789471	-0.636241
H128	H	1.288783	-0.855682	-0.687269
H129	H	1.258560	-0.843277	-0.547396
H130	H	1.207545	-0.783415	-0.588474
H131	H	1.435312	-0.826510	-0.660726
H132	H	1.384313	-0.766648	-0.701834
H133	H	0.923625	-0.010787	-0.777385
H134	H	1.585428	-0.129136	-0.006058
C135	C	1.638988	-0.164492	0.132104
C136	C	1.554020	-0.108419	0.235154
H137	H	1.681772	-0.192723	0.159107
H138	H	1.602944	-0.194717	0.097041
H139	H	1.689883	-0.144062	0.070286
H140	H	1.503119	-0.128849	0.296969
H141	H	1.590064	-0.078189	0.270237
H142	H	0.987192	0.014265	-0.611000
C143	C	0.444583	0.088171	-0.045683
C144	C	0.554861	0.088028	-0.057948
H145	H	0.388817	0.099897	0.041013
H146	H	0.426286	0.123403	-0.082156
H147	H	0.443854	0.041304	-0.087574
H148	H	0.555592	0.134897	-0.016064
H149	H	0.573163	0.052794	-0.021459
C150	C	0.994479	0.181184	0.475284
C151	C	1.078873	0.205108	0.381270
H152	H	0.933231	0.221604	0.534276
H153	H	0.964816	0.146753	0.438249
H154	H	1.028152	0.158979	0.517101
H155	H	1.045201	0.227308	0.339447
H156	H	1.108537	0.239551	0.418308
