data_functionalizedCrystal
_audit_creation_method	'MofGen! by Chris Wilmer'
_symmetry_space_group_name_H-M	'P1'
_symmetry_Int_Tables_number	1
_symmetry_cell_setting	triclinic
loop_
_symmetry_equiv_pos_as_xyz
  x,y,z
_cell_length_a	12.759401
_cell_length_b	18.101395
_cell_length_c	12.759393
_cell_angle_alpha	90.033445
_cell_angle_beta	90.019437
_cell_angle_gamma	90.031116
loop_
_atom_site_label
_atom_site_type_symbol
_atom_site_fract_x
_atom_site_fract_y
_atom_site_fract_z
Zn1	Zn	1.606136	-0.294786	0.593994
Zn2	Zn	1.605980	-0.418647	0.418308
Zn3	Zn	1.430438	-0.294824	0.418330
Zn4	Zn	1.430376	-0.418590	0.593947
O5	O	1.518232	-0.356712	0.506145
O6	O	1.753136	-0.311224	0.570699
O7	O	1.582654	-0.402262	0.271290
O8	O	1.453835	-0.191186	0.441662
O9	O	1.753021	-0.402225	0.441624
O10	O	1.582920	-0.191158	0.570721
O11	O	1.453684	-0.311290	0.271306
O12	O	1.283408	-0.311234	0.441616
O13	O	1.453730	-0.402127	0.740974
O14	O	1.283363	-0.402164	0.570641
O15	O	1.582860	-0.311169	0.741009
O16	O	1.582594	-0.522273	0.441578
O17	O	1.453579	-0.522230	0.570619
C18	C	1.245265	-0.356698	0.506126
C19	C	1.128488	-0.356709	0.506143
C20	C	0.963905	-0.404141	0.573239
C21	C	1.073629	-0.404131	0.573222
C22	C	1.073617	-0.309299	0.439070
C23	C	0.963895	-0.309313	0.439082
C24	C	0.909052	-0.451560	0.640329
C25	C	0.963915	-0.498971	0.707401
C26	C	1.073639	-0.498962	0.707384
C27	C	1.128500	-0.451541	0.640295
C28	C	1.518092	-0.549122	0.506114
C29	C	1.518128	-0.631436	0.506136
C30	C	1.518358	-0.930527	0.506192
C31	C	1.437374	-0.899206	0.587583
C32	C	1.436989	-0.813589	0.587329
C33	C	1.518244	-0.782145	0.506165
C34	C	1.488263	-0.813305	0.395440
C35	C	1.487741	-0.898950	0.395927
C36	C	1.629501	-0.898869	0.534553
C37	C	1.628847	-0.813218	0.536981
C38	C	1.518181	-0.698285	0.506143
C39	C	1.518418	-1.014387	0.506207
C40	C	1.792265	-0.356727	0.506164
C41	C	1.909042	-0.356733	0.506173
C42	C	1.518306	-0.356637	0.780178
C43	C	1.518337	-0.356605	0.896955
C44	C	1.518402	-0.163550	0.506199
C45	C	1.518474	-0.081236	0.506222
C46	C	1.518219	-0.356733	0.233178
C47	C	1.518392	-0.356556	0.116401
C48	C	1.585584	-0.309239	0.951837
C49	C	1.585609	-0.309212	1.061561
C50	C	1.451137	-0.403925	1.061512
C51	C	1.451108	-0.403947	0.951790
C52	C	1.652814	-0.261897	0.897002
C53	C	1.720068	-0.214527	0.951884
C54	C	1.720093	-0.214500	1.061608
C55	C	1.652864	-0.261843	1.116450
H56	H	1.455746	-0.792518	0.669430
O57	O	1.652890	-0.261806	1.234797
H58	H	1.573668	-0.246819	1.263721
H59	H	1.774796	-0.175977	0.907224
H60	H	1.652803	-0.261915	0.807659
H61	H	1.774846	-0.175924	1.106290
H62	H	1.545393	-0.792939	0.333144
O63	O	1.378632	-0.454988	1.120656
H64	H	1.389957	-0.447018	1.206173
O65	O	1.246847	-0.451537	0.640264
H66	H	1.275826	-0.395694	0.661622
O67	O	1.381783	-0.784985	0.363044
H68	H	1.361459	-0.807395	0.284633
H69	H	1.455945	-0.919748	0.669951
H70	H	1.396333	-0.442506	0.907104
O71	O	0.904792	-0.550143	0.779754
H72	H	0.854848	-0.517072	0.833330
O73	O	1.132819	-0.550093	0.779722
H74	H	1.076239	-0.583062	0.826379
H75	H	0.819709	-0.451572	0.640353
O76	O	1.562464	-0.926408	0.312850
H77	H	1.598805	-0.878513	0.272500
O78	O	1.658802	-0.786234	0.644919
H79	H	1.737053	-0.808438	0.666121
H80	H	1.355493	-0.920794	0.569034
H81	H	1.689837	-0.919123	0.475273
O82	O	1.132776	-0.258151	0.366713
H83	H	1.182798	-0.220499	0.413823
O84	O	0.904694	-0.258190	0.366750
H85	H	0.925766	-0.200074	0.384905
O86	O	1.327875	-0.786526	0.562419
H87	H	1.275179	-0.834612	0.550499
O88	O	1.380125	-0.925511	0.364114
H89	H	1.328944	-0.877184	0.348532
H90	H	1.656833	-0.920411	0.613917
H91	H	1.692377	-0.791809	0.482021
