data_functionalizedCrystal
_audit_creation_method	'MofGen! by Chris Wilmer'
_symmetry_space_group_name_H-M	'P1'
_symmetry_Int_Tables_number	1
_symmetry_cell_setting	triclinic
loop_
_symmetry_equiv_pos_as_xyz
  x,y,z
_cell_length_a	14.908779
_cell_length_b	13.032721
_cell_length_c	13.033109
_cell_angle_alpha	74.856674
_cell_angle_beta	93.504272
_cell_angle_gamma	93.510971
loop_
_atom_site_label
_atom_site_type_symbol
_atom_site_fract_x
_atom_site_fract_y
_atom_site_fract_z
Zn1	Zn	-1.378216	0.580799	-0.572348
Zn2	Zn	-1.044882	0.914132	-0.239015
Zn3	Zn	-0.711549	1.247465	0.094318
Zn4	Zn	-1.344550	0.733884	-0.419292
Zn5	Zn	-1.011216	1.067217	-0.085959
Zn6	Zn	-0.677883	1.400550	0.247375
Zn7	Zn	-1.212513	0.548467	-0.404607
Zn8	Zn	-0.879180	0.881800	-0.071273
Zn9	Zn	-0.545847	1.215133	0.262060
Zn10	Zn	-1.212483	0.748533	-0.604684
Zn11	Zn	-0.879149	1.081866	-0.271351
Zn12	Zn	-0.545816	1.415199	0.061983
O13	O	-1.286940	0.652920	-0.500233
O14	O	-0.953607	0.986254	-0.166899
O15	O	-0.620274	1.319587	0.166434
O16	O	-1.498367	0.608506	-0.544658
O17	O	-1.165034	0.941840	-0.211325
O18	O	-0.831701	1.275173	0.122008
O19	O	-1.312958	0.689626	-0.269556
O20	O	-0.979625	1.022959	0.063777
O21	O	-0.646291	1.356293	0.397111
O22	O	-1.248596	0.404961	-0.407179
O23	O	-0.915263	0.738294	-0.073846
O24	O	-0.581930	1.071627	0.259487
O25	O	-1.473633	0.720977	-0.432208
O26	O	-1.140299	1.054311	-0.098875
O27	O	-0.806966	1.387644	0.234458
O28	O	-1.370337	0.428715	-0.530419
O29	O	-1.037004	0.762048	-0.197085
O30	O	-0.703671	1.095382	0.136248
O31	O	-1.215952	0.553401	-0.258767
O32	O	-0.882618	0.886734	0.074567
O33	O	-0.549285	1.220067	0.407900
O34	O	-1.087892	0.567605	-0.438534
O35	O	-0.754559	0.900938	-0.105201
O36	O	-0.421225	1.234272	0.228133
O37	O	-1.248544	0.745944	-0.748182
O38	O	-0.915211	1.079277	-0.414849
O39	O	-0.581878	1.412611	-0.081516
O40	O	-1.087869	0.714593	-0.585530
O41	O	-0.754536	1.047926	-0.252197
O42	O	-0.421203	1.381259	0.081137
O43	O	-1.370308	0.622711	-0.724426
O44	O	-1.036974	0.956044	-0.391092
O45	O	-0.703641	1.289377	-0.057759
O46	O	-1.312928	0.883622	-0.463563
O47	O	-0.979595	1.216955	-0.130230
O48	O	-0.646262	1.550289	0.203104
O49	O	-1.215899	0.894384	-0.599770
O50	O	-0.882566	1.227718	-0.266436
O51	O	-0.549233	1.561051	0.066897
C52	C	-1.055569	0.639181	-0.513948
C53	C	-0.722235	0.972514	-0.180615
C54	C	-0.388902	1.305848	0.152719
C55	C	-0.956587	0.633332	-0.519844
C56	C	-0.623254	0.966665	-0.186511
C57	C	-0.289920	1.299999	0.146823
C58	C	-1.260784	0.927329	-0.536790
C59	C	-0.927450	1.260662	-0.203457
C60	C	-0.594117	1.593996	0.129876
C61	C	-1.249679	1.044732	-0.552460
C62	C	-0.916345	1.378065	-0.219127
C63	C	-0.583012	1.711399	0.114206
C64	C	-0.744830	0.739244	-0.413598
C65	C	-0.411497	1.072578	-0.080265
C66	C	-0.078164	1.405911	0.253069
C67	C	-0.651827	0.733752	-0.419135
C68	C	-0.318494	1.067085	-0.085802
C69	C	0.014839	1.400418	0.247532
C70	C	-0.677577	0.616861	-0.536460
C71	C	-0.344243	0.950194	-0.203127
C72	C	-0.010910	1.283527	0.130207
C73	C	-0.770579	0.622353	-0.530923
C74	C	-0.437246	0.955687	-0.197590
C75	C	-0.103913	1.289020	0.135743
C76	C	-0.804203	0.683546	-0.469489
C77	C	-0.470869	1.016879	-0.136155
C78	C	-0.137536	1.350213	0.197178
C79	C	-0.897207	0.689032	-0.463946
C80	C	-0.563874	1.022365	-0.130613
C81	C	-0.230541	1.355699	0.202720
C82	C	-0.922955	0.572148	-0.581277
C83	C	-0.589621	0.905481	-0.247944
C84	C	-0.256288	1.238814	0.085390
C85	C	-0.829952	0.566655	-0.586814
C86	C	-0.496618	0.899988	-0.253481
C87	C	-0.163285	1.233322	0.079853
C88	C	-1.313178	0.689568	-0.775695
C89	C	-0.979844	1.022901	-0.442362
C90	C	-0.646511	1.356235	-0.109029
C91	C	-1.324359	0.705185	-0.893081
C92	C	-0.991025	1.038518	-0.559748
C93	C	-0.657692	1.371852	-0.226414
C94	C	-0.519215	0.666706	-0.486456
C95	C	-0.185882	1.000040	-0.153122
C96	C	0.147451	1.333373	0.180211
C97	C	-0.618197	0.672561	-0.480563
C98	C	-0.284863	1.005894	-0.147229
C99	C	0.048470	1.339227	0.186104
C100	C	-1.313226	0.377445	-0.463554
C101	C	-0.979892	0.710778	-0.130221
C102	C	-0.646559	1.044111	0.203113
C103	C	-1.324427	0.260053	-0.447924
C104	C	-0.991093	0.593387	-0.114590
C105	C	-0.657760	0.926720	0.218743
C106	C	-1.292788	1.091723	-0.492099
C107	C	-0.959455	1.425057	-0.158766
C108	C	-0.626121	1.758390	0.174568
C109	C	-1.281311	1.213065	-0.508293
C110	C	-0.947978	1.546398	-0.174960
C111	C	-0.614645	1.879732	0.158373
C112	C	-1.281347	0.644746	-0.940077
C113	C	-0.948013	0.978079	-0.606744
C114	C	-0.614680	1.311413	-0.273410
C115	C	-1.292902	0.660885	-1.061401
C116	C	-0.959568	0.994219	-0.728068
C117	C	-0.626235	1.327552	-0.394734
C118	C	-1.260863	0.616342	-0.225829
C119	C	-0.927530	0.949676	0.107505
C120	C	-0.594197	1.283009	0.440838
C121	C	-1.249883	0.600438	-0.108394
C122	C	-0.916550	0.933771	0.224940
C123	C	-0.583217	1.267105	0.558273
H124	H	-0.924581	0.738856	-0.413921
H125	H	-0.591248	1.072189	-0.080588
H126	H	-0.257914	1.405522	0.252746
Br127	Br	-1.205722	0.538570	-0.857441
Br128	Br	-0.872389	0.871903	-0.524107
Br129	Br	-0.539056	1.205236	-0.190774
Br130	Br	-1.174007	1.127395	-0.658588
Br131	Br	-0.840674	1.460729	-0.325255
Br132	Br	-0.507341	1.794062	0.008078
H133	H	-1.204499	0.536743	-1.058814
H134	H	-0.871166	0.870076	-0.725481
H135	H	-0.537833	1.203409	-0.392148
H136	H	-1.369838	1.210457	-0.384256
H137	H	-1.036505	1.543790	-0.050923
H138	H	-0.703171	1.877124	0.282410
Br139	Br	-1.368534	0.767061	-1.144033
Br140	Br	-1.035200	1.100395	-0.810700
Br141	Br	-0.701867	1.433728	-0.477366
Br142	Br	-1.003537	0.496536	-0.657118
Br143	Br	-0.670204	0.829869	-0.323784
Br144	Br	-0.336870	1.163202	0.009549
Br145	Br	-1.399988	0.811356	-0.975716
Br146	Br	-1.066654	1.144690	-0.642383
Br147	Br	-0.733321	1.478023	-0.309050
H148	H	-0.603489	0.779109	-0.373625
H149	H	-0.270155	1.112442	-0.040291
H150	H	0.063178	1.445776	0.293042
Br151	Br	-0.790467	0.822282	-0.330220
Br152	Br	-0.457133	1.155616	0.003113
Br153	Br	-0.123800	1.488949	0.336447
H154	H	-0.650184	0.567051	-0.586487
H155	H	-0.316850	0.900384	-0.253153
H156	H	0.016483	1.233717	0.080180
H157	H	-0.802563	0.516837	-0.636835
H158	H	-0.469229	0.850171	-0.303502
H159	H	-0.135896	1.183504	0.029831
H160	H	-1.235908	1.262664	-0.571968
H161	H	-0.902575	1.595997	-0.238635
H162	H	-0.569242	1.929331	0.094699
Br163	Br	-1.368477	1.009063	-0.385989
Br164	Br	-1.035144	1.342397	-0.052656
Br165	Br	-0.701810	1.675730	0.280678
