data_functionalizedCrystal
_audit_creation_method	'MofGen! by Chris Wilmer'
_symmetry_space_group_name_H-M	'P1'
_symmetry_Int_Tables_number	1
_symmetry_cell_setting	triclinic
loop_
_symmetry_equiv_pos_as_xyz
  x,y,z
_cell_length_a	19.288867
_cell_length_b	19.288855
_cell_length_c	17.766277
_cell_angle_alpha	89.992874
_cell_angle_beta	89.995769
_cell_angle_gamma	83.134656
loop_
_atom_site_label
_atom_site_type_symbol
_atom_site_fract_x
_atom_site_fract_y
_atom_site_fract_z
O1	O	-0.921346	-0.086654	0.062572
O2	O	-0.719085	-0.098342	0.062580
O3	O	-0.826063	0.008633	0.062566
O4	O	-0.814367	-0.193629	0.062586
O5	O	-0.826051	0.008635	-0.062623
O6	O	-0.719073	-0.098339	-0.062609
O7	O	-0.921334	-0.086652	-0.062616
Cu8	Cu	-0.820202	-0.092495	-0.074043
Cu9	Cu	-0.820216	-0.092498	0.074007
O10	O	-0.814355	-0.193626	-0.062602
C11	C	-0.693202	-0.097964	-0.000013
C12	C	-0.616099	-0.096835	-0.000011
C13	C	-0.825682	0.034511	-0.000029
C14	C	-0.824556	0.111615	-0.000032
N15	N	-0.820198	-0.092493	-0.178174
C16	C	-0.947216	-0.087029	-0.000021
C17	C	-1.024320	-0.088159	-0.000019
C18	C	-0.060540	-0.088700	0.068220
C19	C	-0.132988	-0.089757	0.068223
C20	C	-0.169210	-0.090287	-0.000017
C21	C	-0.132981	-0.089743	-0.068265
C22	C	-0.060536	-0.088678	-0.068266
C23	C	-0.278531	-0.132654	-0.052294
C24	C	-0.350974	-0.133722	-0.052290
C25	C	-0.392655	-0.093566	-0.000017
C26	C	-0.361883	-0.052351	0.052265
C27	C	-0.289438	-0.051287	0.052264
C28	C	-0.247765	-0.091441	-0.000024
C29	C	-0.507432	-0.095252	0.068230
C30	C	-0.579882	-0.096305	0.068230
C31	C	-0.579873	-0.096298	-0.068260
C32	C	-0.507425	-0.095238	-0.068258
C33	C	-0.471209	-0.094719	-0.000011
C34	C	-0.824036	0.147824	0.068208
C35	C	-0.822968	0.220270	0.068213
C36	C	-0.822433	0.256506	-0.000026
C37	C	-0.822949	0.220287	-0.068275
C38	C	-0.824010	0.147842	-0.068278
C39	C	-0.861431	0.376738	-0.052303
C40	C	-0.860374	0.449183	-0.052297
C41	C	-0.819157	0.479952	-0.000019
C42	C	-0.779006	0.438268	0.052266
C43	C	-0.780068	0.365822	0.052263
C44	C	-0.821282	0.335061	-0.000030
C45	C	-0.817479	0.594715	0.068231
C46	C	-0.816406	0.667162	0.068234
C47	C	-0.816394	0.667179	-0.068256
C48	C	-0.817459	0.594733	-0.068257
C49	C	-0.818005	0.558506	-0.000011
C50	C	-0.814738	0.780496	-0.000008
C51	C	-0.815870	0.703393	-0.000006
C52	C	-0.867598	-0.045140	-0.782468
C53	C	-0.867599	-0.045142	-0.703667
C54	C	-0.820216	-0.092492	-0.664262
C55	C	-0.772842	-0.139856	-0.703666
C56	C	-0.772847	-0.139858	-0.782467
C57	C	-0.756924	-0.101761	-0.539428
C58	C	-0.756918	-0.101755	-0.460629
C59	C	-0.820201	-0.092491	-0.421216
C60	C	-0.883493	-0.083218	-0.460612
C61	C	-0.883498	-0.083220	-0.539412
C62	C	-0.820206	-0.092496	-0.578817
C63	C	-0.867577	-0.045135	-0.296376
C64	C	-0.867579	-0.045141	-0.217572
C65	C	-0.772817	-0.139852	-0.217574
C66	C	-0.772821	-0.139849	-0.296375
C67	C	-0.820200	-0.092487	-0.335772
N68	N	-0.820226	-0.092495	0.178137
H69	H	-0.031058	-0.088274	0.123792
H70	H	-0.824430	0.118360	-0.123849
H71	H	-0.906178	-0.006576	-0.814543
C72	C	-0.904537	0.495028	-0.109808
H73	H	-0.929226	0.466328	-0.140952
H74	H	-0.936843	0.527668	-0.083926
H75	H	-0.874781	0.519363	-0.140038
H76	H	-0.815953	0.696681	-0.123818
H77	H	-0.906175	-0.006578	-0.671586
H78	H	-0.734264	-0.178411	-0.671579
H79	H	-0.609364	-0.096727	-0.123822
C80	C	-0.687304	-0.111976	-0.417297
H81	H	-0.696363	-0.110646	-0.364722
H82	H	-0.662417	-0.155855	-0.430215
H83	H	-0.660188	-0.075726	-0.430214
C84	C	-0.172838	-0.090360	0.143288
H85	H	-0.140892	-0.089904	0.183933
H86	H	-0.206529	-0.050283	0.146131
H87	H	-0.195667	-0.131280	0.146117
H88	H	-0.477944	-0.094827	0.123801
C89	C	-0.906772	0.342900	-0.109814
H90	H	-0.930538	0.378100	-0.140943
H91	H	-0.877853	0.310714	-0.140048
H92	H	-0.939905	0.319018	-0.083924
C93	C	-0.255588	-0.005951	0.109763
H94	H	-0.206473	-0.011074	0.102276
H95	H	-0.273855	0.041617	0.103181
H96	H	-0.265543	-0.020436	0.159308
C97	C	-0.735904	0.319970	0.109766
H98	H	-0.742445	0.272419	0.102278
H99	H	-0.687988	0.325446	0.103191
H100	H	-0.750044	0.333750	0.159310
C101	C	-0.619725	-0.096901	0.143297
H102	H	-0.587776	-0.096445	0.183939
H103	H	-0.653411	-0.056819	0.146138
H104	H	-0.642559	-0.137817	0.146130
H105	H	-0.477934	-0.094800	-0.123826
H106	H	-0.822541	0.249757	0.123784
C107	C	-0.733664	0.472103	0.109774
H108	H	-0.738774	0.521218	0.102284
H109	H	-0.748146	0.462142	0.159314
H110	H	-0.686094	0.453832	0.103190
H111	H	-0.824479	0.118332	0.123779
H112	H	-0.031045	-0.088241	-0.123836
H113	H	-0.162478	-0.090173	-0.123827
H114	H	-0.935032	-0.075672	-0.571485
C115	C	-0.407723	-0.008177	0.109769
H116	H	-0.455277	-0.014706	0.102278
H117	H	-0.393937	-0.022311	0.159310
H118	H	-0.402244	0.039742	0.103182
C119	C	-0.818071	0.554862	0.143297
H120	H	-0.817598	0.586804	0.183941
H121	H	-0.858982	0.532026	0.146133
H122	H	-0.777985	0.521174	0.146133
H123	H	-0.822511	0.249795	-0.123835
C124	C	-0.953109	-0.073040	-0.417269
H125	H	-0.944044	-0.074378	-0.364696
H126	H	-0.978024	-0.029171	-0.430180
H127	H	-0.980200	-0.109307	-0.430181
C128	C	-0.919696	0.006954	-0.339718
H129	H	-0.912908	0.000177	-0.392292
H130	H	-0.966026	-0.000471	-0.326799
H131	H	-0.912296	0.053294	-0.326810
C132	C	-0.815832	0.706992	0.143302
H133	H	-0.816314	0.675039	0.183943
H134	H	-0.774921	0.729826	0.146145
H135	H	-0.855918	0.740680	0.146134
H136	H	-0.906158	-0.006581	-0.185497
H137	H	-0.817888	0.565252	-0.123825
C138	C	-0.384819	-0.179040	-0.109811
H139	H	-0.349624	-0.202788	-0.140957
H140	H	-0.408705	-0.212179	-0.083942
H141	H	-0.417004	-0.150101	-0.140039
H142	H	-0.734240	-0.178409	-0.185491
H143	H	-0.244600	-0.165351	-0.094869
C144	C	-0.720707	-0.191936	-0.339711
H145	H	-0.692484	-0.220134	-0.304960
H146	H	-0.745602	-0.220786	-0.370443
H147	H	-0.691873	-0.167020	-0.370459
C148	C	-0.687311	-0.112064	-0.582774
H149	H	-0.649619	-0.117610	-0.548028
H150	H	-0.685851	-0.152537	-0.613463
H151	H	-0.683516	-0.072425	-0.613565
C152	C	-0.720727	-0.191942	-0.825802
H153	H	-0.692503	-0.220140	-0.791052
H154	H	-0.745615	-0.220792	-0.856541
H155	H	-0.691895	-0.167018	-0.856543
