data_functionalizedCrystal
_audit_creation_method	'MofGen! by Chris Wilmer'
_symmetry_space_group_name_H-M	'P1'
_symmetry_Int_Tables_number	1
_symmetry_cell_setting	triclinic
loop_
_symmetry_equiv_pos_as_xyz
  x,y,z
_cell_length_a	12.759401
_cell_length_b	29.839131
_cell_length_c	12.759393
_cell_angle_alpha	90.044470
_cell_angle_beta	90.019676
_cell_angle_gamma	90.035655
loop_
_atom_site_label
_atom_site_type_symbol
_atom_site_fract_x
_atom_site_fract_y
_atom_site_fract_z
Zn1	Zn	1.606116	-0.178827	0.593883
Zn2	Zn	1.605945	-0.253964	0.418160
Zn3	Zn	1.430415	-0.178849	0.418222
Zn4	Zn	1.430344	-0.253931	0.593801
O5	O	1.518205	-0.216392	0.506016
O6	O	1.753115	-0.188798	0.570581
O7	O	1.582618	-0.244023	0.271147
O8	O	1.453824	-0.115979	0.441584
O9	O	1.752988	-0.244001	0.441478
O10	O	1.582911	-0.115962	0.570641
O11	O	1.453657	-0.188836	0.271192
O12	O	1.283385	-0.188804	0.441504
O13	O	1.453703	-0.243945	0.740833
O14	O	1.283333	-0.243967	0.570502
O15	O	1.582842	-0.188766	0.740893
O16	O	1.582549	-0.316826	0.441399
O17	O	1.453536	-0.316802	0.570442
C18	C	1.245238	-0.216385	0.506001
C19	C	1.128461	-0.216392	0.506020
C20	C	1.073665	-0.187700	0.573347
C21	C	0.963941	-0.187705	0.573354
C22	C	0.963818	-0.245097	0.438704
C23	C	1.073540	-0.245090	0.438692
C24	C	1.518045	-0.333115	0.505928
C25	C	1.518072	-0.383049	0.505925
C26	C	1.585406	-0.692649	0.573312
C27	C	1.585520	-0.880322	0.573375
O28	O	1.642612	-0.904550	0.630605
N29	N	1.518384	-0.903834	0.506133
C30	C	1.451209	-0.880425	0.438875
O31	O	1.394100	-0.904730	0.381690
C32	C	1.451090	-0.692753	0.438818
C33	C	1.518239	-0.669244	0.506057
C34	C	1.652548	-0.669140	0.640547
C35	C	1.652523	-0.622224	0.640526
C36	C	1.585356	-0.598818	0.573271
C37	C	1.518214	-0.622328	0.506037
C38	C	1.383911	-0.669345	0.371566
C39	C	1.383885	-0.622424	0.371559
C40	C	1.451034	-0.598914	0.438799
C41	C	1.451021	-0.552007	0.438761
N42	N	1.518158	-0.528495	0.506003
C43	C	1.585325	-0.551901	0.573259
C44	C	1.451277	-0.978956	0.438908
C45	C	1.451308	-1.025874	0.438921
C46	C	1.585618	-1.025768	0.573423
C47	C	1.585592	-0.978849	0.573404
C48	C	1.518414	-0.955444	0.506150
C49	C	1.585268	-0.453375	0.573210
C50	C	1.585240	-0.406455	0.573180
C51	C	1.450926	-0.406566	0.438682
C52	C	1.450958	-0.453481	0.438707
C53	C	1.518132	-0.476885	0.505980
O54	O	1.393950	-0.527750	0.381570
O55	O	1.642409	-0.527588	0.630451
C56	C	1.585431	-0.739565	0.573333
C57	C	1.518289	-0.763075	0.506098
C58	C	1.451122	-0.739669	0.438843
C59	C	1.518320	-0.809992	0.506111
C60	C	1.585487	-0.833398	0.573366
C61	C	1.652624	-0.809886	0.640608
C62	C	1.652598	-0.762971	0.640588
C63	C	1.383985	-0.763181	0.371600
C64	C	1.384017	-0.810096	0.371626
C65	C	1.451184	-0.833502	0.438881
C66	C	1.792238	-0.216401	0.506032
C67	C	1.909015	-0.216404	0.506038
C68	C	1.518284	-0.216349	0.780050
C69	C	1.518317	-0.216331	0.896827
C70	C	1.518395	-0.099214	0.506128
C71	C	1.518475	-0.049280	0.506176
C72	C	1.518187	-0.216403	0.233049
C73	C	1.518357	-0.216295	0.116273
C74	C	1.585565	-0.187595	0.951721
C75	C	1.585583	-0.187575	1.061446
C76	C	1.451102	-0.245032	1.061370
C77	C	1.451080	-0.245049	0.951648
H78	H	1.118379	-0.164331	0.628167
C79	C	1.377143	-0.276620	1.121684
N80	N	1.321435	-0.300412	1.167112
C81	C	1.377095	-0.276661	0.891260
N82	N	1.321369	-0.300470	0.845776
H83	H	0.919332	-0.164340	0.628178
C84	C	1.726469	-0.737116	0.714556
N85	N	1.782112	-0.717645	0.770273
H86	H	0.919088	-0.268463	0.383889
H87	H	1.118156	-0.268455	0.383860
C88	C	1.659114	-0.380597	0.647149
N89	N	1.714755	-0.361123	0.702861
H90	H	1.639960	-0.472424	0.627996
H91	H	1.707198	-0.603085	0.695281
C92	C	1.659455	-0.952993	0.647376
N93	N	1.715091	-0.933520	0.703097
H94	H	1.707244	-0.688192	0.695320
C95	C	1.659497	-1.051523	0.647410
N96	N	1.715133	-1.070923	0.703141
C97	C	1.377448	-1.051729	0.364944
N98	N	1.321808	-1.071202	0.309227
H99	H	1.396571	-0.959903	0.384139
C100	C	1.310034	-0.695195	0.297603
N101	N	1.254382	-0.714665	0.241893
C102	C	1.309984	-0.596682	0.297571
N103	N	1.254323	-0.577293	0.241841
C104	C	1.659563	-0.155964	1.121825
N105	N	1.715289	-0.132153	1.167302
H106	H	1.396288	-0.472624	0.383947
C107	C	1.377041	-0.380810	0.364710
N108	N	1.321384	-0.361410	0.308999
H109	H	1.707317	-0.828951	0.695366
H110	H	1.329338	-0.829234	0.316861
H111	H	1.329288	-0.744128	0.316834
H112	H	1.640311	-0.164209	0.907089
