data_functionalizedCrystal
_audit_creation_method	'MofGen! by Chris Wilmer'
_symmetry_space_group_name_H-M	'P1'
_symmetry_Int_Tables_number	1
_symmetry_cell_setting	triclinic
loop_
_symmetry_equiv_pos_as_xyz
  x,y,z
_cell_length_a	14.853567
_cell_length_b	15.538191
_cell_length_c	13.330367
_cell_angle_alpha	89.997411
_cell_angle_beta	89.995418
_cell_angle_gamma	65.453512
loop_
_atom_site_label
_atom_site_type_symbol
_atom_site_fract_x
_atom_site_fract_y
_atom_site_fract_z
O1	O	1.155993	0.122934	-0.083347
O2	O	0.888724	0.137579	-0.083363
O3	O	1.074385	-0.006805	-0.083356
O4	O	0.970332	0.267318	-0.083353
O5	O	1.074366	-0.006808	0.083491
O6	O	0.888705	0.137575	0.083484
O7	O	1.155974	0.122931	0.083501
Cu8	Cu	1.022338	0.130253	0.098727
Cu9	Cu	1.022360	0.130257	-0.098589
O10	O	0.970313	0.267314	0.083494
C11	C	0.855344	0.136913	0.000058
C12	C	0.755913	0.134925	0.000052
C13	C	0.374309	0.040753	0.000073
C14	C	0.296691	0.212284	0.000074
C15	C	0.390111	0.214153	0.000071
C16	C	0.475634	0.129321	0.000068
C17	C	0.467738	0.042620	0.000067
C18	C	0.398015	0.300853	0.000061
C19	C	0.491439	0.302726	0.000057
C20	C	0.576964	0.217893	0.000061
C21	C	0.569064	0.131188	0.000061
C22	C	0.654587	0.046356	0.000058
C23	C	0.646689	-0.040350	0.000066
C24	C	0.553264	-0.042213	0.000071
C25	C	0.670390	0.219757	0.000056
C26	C	0.748017	0.048223	0.000052
C27	C	1.085262	-0.041888	0.000065
C28	C	1.117689	-0.146419	0.000057
C29	C	0.795529	-0.434631	0.000058
C30	C	0.826023	-0.532857	0.000063
C31	C	0.997541	-0.555076	0.000073
C32	C	0.967062	-0.456850	0.000064
C33	C	0.866055	-0.396635	0.000058
C34	C	1.037588	-0.418853	0.000063
C35	C	1.007111	-0.320636	0.000059
C36	C	0.906108	-0.260415	0.000056
C37	C	0.835578	-0.298417	0.000054
C38	C	1.138594	-0.479070	0.000076
C39	C	1.209120	-0.441073	0.000075
C40	C	1.178644	-0.342854	0.000064
C41	C	1.077641	-0.282633	0.000061
C42	C	1.249174	-0.304852	0.000066
C43	C	1.218697	-0.206634	0.000062
C44	C	1.047164	-0.184416	0.000057
C45	C	1.189354	0.123596	0.000077
C46	C	1.288785	0.125584	0.000077
C47	C	0.959436	0.302397	0.000071
C48	C	0.927009	0.406929	0.000072
N49	N	1.022329	0.130250	0.237508
N50	N	1.022379	0.130252	-0.237371
C51	C	0.940155	0.194165	0.710128
C52	C	1.104592	0.066341	0.710102
C53	C	1.104583	0.066338	0.605084
C54	C	1.022359	0.130251	0.552583
C55	C	0.940145	0.194166	0.605100
C56	C	1.186800	0.002431	0.552559
C57	C	1.186794	0.002426	0.447534
C58	C	1.104567	0.066335	0.395031
C59	C	1.022349	0.130251	0.447555
C60	C	0.940125	0.194164	0.395054
C61	C	0.857903	0.258077	0.447576
C62	C	0.857917	0.258074	0.552597
C63	C	1.104552	0.066337	0.290009
C64	C	0.940114	0.194165	0.290026
H65	H	0.546823	-0.112805	0.000101
H66	H	0.367873	-0.029842	0.000084
C67	C	0.202622	0.305590	0.000080
H68	H	0.145851	0.292061	0.000089
H69	H	0.201984	0.341143	-0.058100
H70	H	0.201986	0.341129	0.058274
C71	C	0.500121	0.398097	0.000062
H72	H	0.435806	0.448351	0.000073
H73	H	0.534957	0.402398	-0.058118
H74	H	0.534947	0.402385	0.058256
H75	H	1.171539	0.014310	0.752852
C76	C	0.936058	-0.118169	0.000044
H77	H	0.928013	-0.054234	0.000036
H78	H	0.905799	-0.129696	0.058223
H79	H	0.905824	-0.129700	-0.058151
C80	C	0.679080	0.315121	0.000043
H81	H	0.614765	0.365375	0.000047
H82	H	0.713916	0.319411	-0.058141
H83	H	0.713905	0.319418	0.058233
H84	H	0.817649	-0.020858	0.000053
H85	H	1.079781	-0.604116	0.000081
H86	H	0.881296	-0.180440	0.000059
H87	H	0.716334	-0.109420	0.000056
C88	C	0.849671	0.264470	0.232278
H89	H	0.861436	0.255318	0.162208
H90	H	0.838888	0.327331	0.249491
H91	H	0.792890	0.254122	0.249498
H92	H	1.163405	-0.559044	0.000070
H93	H	1.291360	-0.490113	0.000084
C94	C	0.849720	0.264466	0.767896
H95	H	0.861499	0.255319	0.837963
H96	H	0.792937	0.254127	0.750693
H97	H	0.838942	0.327331	0.750681
H98	H	0.790958	0.310118	0.404817
H99	H	1.171499	0.014305	0.247251
C100	C	0.767489	0.328378	0.610372
H101	H	0.779279	0.319230	0.680438
H102	H	0.710702	0.318043	0.593181
H103	H	0.756713	0.391242	0.593154
H104	H	1.331414	-0.353893	0.000081
H105	H	1.276126	-0.175697	0.000063
H106	H	0.753328	-0.249386	0.000042
H107	H	1.253747	-0.049600	0.595308
H108	H	1.253743	-0.049615	0.404777
H109	H	0.328377	0.369919	0.000054
H110	H	0.713279	-0.385600	0.000046
C111	C	0.748437	-0.574650	0.000049
H112	H	0.683919	-0.524718	0.000035
H113	H	0.756749	-0.612505	0.058229
H114	H	0.756772	-0.612499	-0.058145
