data_functionalizedCrystal
_audit_creation_method	'MofGen! by Chris Wilmer'
_symmetry_space_group_name_H-M	'P1'
_symmetry_Int_Tables_number	1
_symmetry_cell_setting	triclinic
loop_
_symmetry_equiv_pos_as_xyz
  x,y,z
_cell_length_a	6.394989
_cell_length_b	11.026607
_cell_length_c	10.065875
_cell_angle_alpha	100.697662
_cell_angle_beta	80.951547
_cell_angle_gamma	97.541864
loop_
_atom_site_label
_atom_site_type_symbol
_atom_site_fract_x
_atom_site_fract_y
_atom_site_fract_z
O1	O	-0.855566	-1.641000	-0.113474
O2	O	-0.755391	-1.286163	-0.113478
O3	O	-0.503308	-1.468618	-0.113477
O4	O	-1.107649	-1.458545	-0.113475
O5	O	-0.551624	-1.433830	0.113511
O6	O	-0.803707	-1.251375	0.113510
O7	O	-0.903882	-1.606212	0.113514
Zn8	Zn	-0.861465	-1.423270	0.149552
Zn9	Zn	-0.797807	-1.469105	-0.149516
O10	O	-1.155965	-1.423757	0.113513
C11	C	-0.761068	-1.223275	0.000015
C12	C	-0.705977	-1.087719	0.000013
C13	C	-0.898204	-1.669100	0.000018
C14	C	-0.953293	-1.804658	0.000011
N15	N	-0.904912	-1.391998	0.353657
C16	C	-0.448894	-1.449233	0.000012
C17	C	-0.210370	-1.443147	0.000011
N18	N	-0.754347	-1.500386	-0.353621
C19	C	-0.858092	-1.016240	0.000013
C20	C	-0.801156	-0.876135	0.000011
C21	C	-0.812908	-1.458216	0.421436
C22	C	-0.846365	-1.434158	0.578603
H23	H	-0.628756	-0.833618	-0.000024
N24	N	-0.983507	-1.335456	0.655848
H25	H	-1.106468	-1.374648	0.715128
H26	H	-1.040154	-1.294601	0.588937
N27	N	-1.042047	-1.293301	0.430906
H28	H	-1.165008	-1.332493	0.490187
H29	H	-1.098694	-1.252446	0.363996
N30	N	-0.675716	-1.556879	0.344168
H31	H	-0.763559	-1.621316	0.284856
H32	H	-0.618908	-1.597674	0.411063
H33	H	-1.125689	-0.847177	0.000020
N34	N	-0.477638	-1.031390	0.000025
H35	H	-0.430073	-0.991943	-0.084118
H36	H	-0.384098	-1.098398	0.000079
N37	N	-1.086441	-1.072554	0.000023
H38	H	-1.094746	-1.164658	0.000025
H39	H	-1.140740	-1.058174	-0.084126
N40	N	-0.617179	-1.599075	0.569134
H41	H	-0.705045	-1.663511	0.509834
H42	H	-0.560399	-1.639865	0.636044
