data_functionalizedCrystal
_audit_creation_method	'MofGen! by Chris Wilmer'
_symmetry_space_group_name_H-M	'P1'
_symmetry_Int_Tables_number	1
_symmetry_cell_setting	triclinic
loop_
_symmetry_equiv_pos_as_xyz
  x,y,z
_cell_length_a	12.827893
_cell_length_b	12.827892
_cell_length_c	12.827885
_cell_angle_alpha	90.029786
_cell_angle_beta	89.983682
_cell_angle_gamma	89.981825
loop_
_atom_site_label
_atom_site_type_symbol
_atom_site_fract_x
_atom_site_fract_y
_atom_site_fract_z
Zn1	Zn	1.597670	0.415905	-0.590766
Zn2	Zn	1.931003	0.749238	-0.257433
Zn3	Zn	2.264336	1.082572	0.075900
Zn4	Zn	1.597564	0.590682	-0.416027
Zn5	Zn	1.930897	0.924016	-0.082693
Zn6	Zn	2.264230	1.257349	0.250640
Zn7	Zn	1.422911	0.415964	-0.416049
Zn8	Zn	1.756244	0.749298	-0.082716
Zn9	Zn	2.089578	1.082631	0.250618
Zn10	Zn	1.422896	0.590613	-0.590736
Zn11	Zn	1.756230	0.923946	-0.257402
Zn12	Zn	2.089563	1.257280	0.075931
O13	O	1.510260	0.503291	-0.503394
O14	O	1.843593	0.836624	-0.170061
O15	O	2.176927	1.169958	0.163272
O16	O	1.743892	0.439094	-0.567590
O17	O	2.077225	0.772427	-0.234257
O18	O	2.410558	1.105760	0.099076
O19	O	1.574357	0.567559	-0.269793
O20	O	1.907691	0.900893	0.063540
O21	O	2.241024	1.234226	0.396873
O22	O	1.446144	0.269720	-0.439248
O23	O	1.779477	0.603054	-0.105914
O24	O	2.112810	0.936387	0.227419
O25	O	1.743814	0.567502	-0.439210
O26	O	2.077147	0.900835	-0.105876
O27	O	2.410480	1.234168	0.227457
O28	O	1.574538	0.269677	-0.567612
O29	O	1.907871	0.603010	-0.234279
O30	O	2.241205	0.936343	0.099055
O31	O	1.446041	0.439195	-0.269810
O32	O	1.779374	0.772528	0.063523
O33	O	2.112708	1.105862	0.396857
O34	O	1.276673	0.439128	-0.439218
O35	O	1.610006	0.772461	-0.105885
O36	O	1.943340	1.105794	0.227449
O37	O	1.446118	0.567384	-0.736976
O38	O	1.779452	0.900717	-0.403642
O39	O	2.112785	1.234050	-0.070309
O40	O	1.276662	0.567441	-0.567560
O41	O	1.609996	0.900775	-0.234226
O42	O	1.943329	1.234108	0.099107
O43	O	1.574524	0.439026	-0.736998
O44	O	1.907857	0.772360	-0.403665
O45	O	2.241190	1.105693	-0.070332
O46	O	1.574343	0.736909	-0.439180
O47	O	1.907677	1.070242	-0.105847
O48	O	2.241010	1.403576	0.227487
O49	O	1.446016	0.736858	-0.567538
O50	O	1.779349	1.070192	-0.234205
O51	O	2.112682	1.403525	0.099129
C52	C	1.238750	0.503284	-0.503388
C53	C	1.572084	0.836618	-0.170055
C54	C	1.905417	1.169951	0.163278
C55	C	1.122597	0.503307	-0.503411
C56	C	1.455930	0.836640	-0.170077
C57	C	1.789264	1.169973	0.163256
C58	C	1.510195	0.774801	-0.503376
C59	C	1.843528	1.108134	-0.170043
C60	C	2.176861	1.441468	0.163291
C61	C	1.510262	0.890954	-0.503403
C62	C	1.843596	1.224287	-0.170070
C63	C	2.176929	1.557621	0.163264
C64	C	1.510331	0.503191	-0.775965
C65	C	1.843665	0.836524	-0.442631
C66	C	2.176998	1.169857	-0.109298
C67	C	1.510362	0.503148	-0.892118
C68	C	1.843695	0.836481	-0.558785
C69	C	2.177028	1.169815	-0.225451
C70	C	1.782830	0.503299	-0.503401
C71	C	2.116164	0.836632	-0.170068
C72	C	2.449497	1.169965	0.163266
C73	C	1.898983	0.503302	-0.503404
C74	C	2.232317	0.836635	-0.170070
C75	C	2.565650	1.169969	0.163263
C76	C	1.950807	0.439770	-0.566925
C77	C	2.284140	0.773103	-0.233592
C78	C	2.617473	1.106436	0.099742
C79	C	2.070857	0.439771	-0.566929
C80	C	2.404190	0.773105	-0.233596
C81	C	2.737524	1.106438	0.099737
C82	C	1.510354	0.230721	-0.503436
C83	C	1.843688	0.564054	-0.170102
C84	C	2.177021	0.897388	0.163231
C85	C	1.510394	0.114568	-0.503453
C86	C	1.843728	0.447901	-0.170120
C87	C	2.177061	0.781234	0.163213
C88	C	1.573838	0.942729	-0.439958
C89	C	1.907172	1.276063	-0.106625
C90	C	2.240505	1.609396	0.226709
C91	C	1.573910	1.062780	-0.439984
C92	C	1.907243	1.396113	-0.106651
C93	C	2.240576	1.729446	0.226682
C94	C	1.573907	0.439620	-0.943914
C95	C	1.907241	0.772954	-0.610580
C96	C	2.240574	1.106287	-0.277247
C97	C	1.573940	0.439575	-1.063964
C98	C	1.907274	0.772908	-0.730631
C99	C	2.240607	1.106241	-0.397298
C100	C	1.510249	0.503316	-0.231884
C101	C	1.843583	0.836649	0.101449
C102	C	2.176916	1.169982	0.434782
C103	C	1.510422	0.503064	-0.115732
C104	C	1.843755	0.836397	0.217601
C105	C	2.177088	1.169731	0.550935
H106	H	1.906298	0.385380	-0.621309
H107	H	2.239631	0.718713	-0.287976
H108	H	2.572964	1.052047	0.045358
O109	O	1.438321	0.575145	-0.951099
O110	O	1.771654	0.908478	-0.617766
O111	O	2.104988	1.241811	-0.284433
H112	H	1.391760	0.621681	-0.894896
H113	H	1.725094	0.955014	-0.561563
H114	H	2.058427	1.288348	-0.228229
O115	O	1.957934	0.575353	-0.431366
O116	O	2.291267	0.908687	-0.098033
O117	O	2.624600	1.242020	0.235301
H118	H	1.901711	0.621896	-0.384838
H119	H	2.235044	0.955229	-0.051504
H120	H	2.568377	1.288563	0.281829
H121	H	2.078037	0.557700	-0.449023
H122	H	2.411371	0.891033	-0.115690
H123	H	2.744704	1.224366	0.217644
O124	O	2.129876	0.367716	-0.638973
O125	O	2.463210	0.701050	-0.305640
O126	O	2.796543	1.034383	0.027694
H127	H	2.214906	0.379030	-0.627676
H128	H	2.548240	0.712363	-0.294343
H129	H	2.881573	1.045696	0.038991
O130	O	1.645895	0.883734	-0.367997
O131	O	1.979228	1.217067	-0.034664
O132	O	2.312562	1.550400	0.298669
H133	H	1.634538	0.798699	-0.379276
H134	H	1.967872	1.132032	-0.045943
H135	H	2.301205	1.465366	0.287391
H136	H	1.628348	0.385190	-1.108507
H137	H	1.961681	0.718523	-0.775174
H138	H	2.295014	1.051856	-0.441841
H139	H	1.455890	0.935504	-0.557744
H140	H	1.789223	1.268837	-0.224411
H141	H	2.122557	1.602171	0.108922
H142	H	1.628336	1.107305	-0.385664
H143	H	1.961670	1.440639	-0.052331
H144	H	2.295003	1.773972	0.281003
H145	H	1.455957	1.070050	-0.557770
H146	H	1.789291	1.403383	-0.224437
H147	H	2.122624	1.736717	0.108896
O148	O	1.645953	0.367622	-0.884941
O149	O	1.979287	0.700955	-0.551608
O150	O	2.312620	1.034288	-0.218275
H151	H	1.634630	0.378965	-0.799903
H152	H	1.967963	0.712298	-0.466570
H153	H	2.301297	1.045631	-0.133236
O154	O	1.438332	0.575109	-1.056758
O155	O	1.771666	0.908442	-0.723425
O156	O	2.104999	1.241775	-0.390092
H157	H	1.485101	0.628257	-1.007013
H158	H	1.818434	0.961590	-0.673680
H159	H	2.151767	1.294923	-0.340346
