data_functionalizedCrystal
_audit_creation_method	'MofGen! by Chris Wilmer'
_symmetry_space_group_name_H-M	'P1'
_symmetry_Int_Tables_number	1
_symmetry_cell_setting	triclinic
loop_
_symmetry_equiv_pos_as_xyz
  x,y,z
_cell_length_a	18.101398
_cell_length_b	21.395361
_cell_length_c	21.395356
_cell_angle_alpha	90.030681
_cell_angle_beta	89.971090
_cell_angle_gamma	89.974026
loop_
_atom_site_label
_atom_site_type_symbol
_atom_site_fract_x
_atom_site_fract_y
_atom_site_fract_z
Zn1	Zn	1.132157	0.249534	-0.354337
Zn2	Zn	1.632157	0.749534	0.145663
Zn3	Zn	1.132043	0.354310	-0.249554
Zn4	Zn	1.632043	0.854310	0.250446
Zn5	Zn	1.008306	0.249542	-0.249564
Zn6	Zn	1.508306	0.749542	0.250436
Zn7	Zn	1.008267	0.354269	-0.354285
Zn8	Zn	1.508267	0.854269	0.145715
O9	O	1.070193	0.301913	-0.301935
O10	O	1.570193	0.801913	0.198065
O11	O	1.235774	0.263446	-0.340455
O12	O	1.735774	0.763446	0.159545
O13	O	1.115598	0.340433	-0.161878
O14	O	1.615598	0.840433	0.338122
O15	O	1.024798	0.161863	-0.263489
O16	O	1.524798	0.661863	0.236511
O17	O	1.235691	0.340425	-0.263472
O18	O	1.735691	0.840425	0.236528
O19	O	1.115791	0.161857	-0.340465
O20	O	1.615791	0.661857	0.159535
O21	O	1.024688	0.263460	-0.161885
O22	O	1.524688	0.763460	0.338115
O23	O	0.904668	0.263420	-0.263438
O24	O	1.404668	0.763420	0.236562
O25	O	1.024733	0.340354	-0.441970
O26	O	1.524733	0.840354	0.058030
O27	O	0.904639	0.340362	-0.340376
O28	O	1.404639	0.840362	0.159624
O29	O	1.115754	0.263406	-0.442008
O30	O	1.615754	0.763406	0.057992
O31	O	1.115561	0.441982	-0.263421
O32	O	1.615561	0.941982	0.236579
O33	O	1.024623	0.441952	-0.340366
O34	O	1.524623	0.941952	0.159634
C35	C	1.070095	0.464701	-0.301900
C36	C	1.570095	0.964701	0.198100
C37	C	1.070121	0.534342	-0.301906
C38	C	1.570121	1.034342	0.198094
C39	C	0.877783	0.301888	-0.301902
C40	C	1.377783	0.801888	0.198098
C41	C	0.795469	0.301892	-0.301903
C42	C	1.295469	0.801892	0.198097
C43	C	1.070251	0.301875	-0.465358
C44	C	1.570251	0.801875	0.034642
C45	C	1.070276	0.301858	-0.535000
C46	C	1.570276	0.801858	-0.035000
C47	C	0.496378	0.301931	-0.301956
C48	C	0.996378	0.801931	0.198044
C49	C	0.527696	0.253279	-0.253785
C50	C	1.027696	0.753279	0.246215
C51	C	0.613314	0.253410	-0.253579
C52	C	1.113314	0.753410	0.246421
C53	C	0.644760	0.301911	-0.301930
C54	C	1.144760	0.801911	0.198070
C55	C	0.613641	0.367912	-0.283884
C56	C	1.113641	0.867912	0.216116
C57	C	0.527996	0.367642	-0.283549
C58	C	1.027996	0.867642	0.216451
C59	C	0.527998	0.285157	-0.368286
C60	C	1.027998	0.785157	0.131714
C61	C	0.613649	0.283687	-0.367925
C62	C	1.113649	0.783687	0.132075
C63	C	0.728620	0.301904	-0.301916
C64	C	1.228620	0.801904	0.198084
C65	C	0.412518	0.301943	-0.301968
C66	C	0.912518	0.801943	0.198032
C67	C	1.263355	0.301939	-0.301968
C68	C	1.763355	0.801939	0.198032
C69	C	1.345669	0.301951	-0.301982
C70	C	1.845669	0.801951	0.198018
C71	C	1.070311	0.138490	-0.301984
C72	C	1.570311	0.638490	0.198016
C73	C	1.070362	0.068849	-0.302005
C74	C	1.570362	0.568849	0.197995
C75	C	1.117515	0.567051	-0.261882
C76	C	1.617515	1.067051	0.238118
C77	C	1.117549	0.632486	-0.261896
C78	C	1.617549	1.132486	0.238104
C79	C	1.070177	0.665211	-0.301928
C80	C	1.570177	1.165211	0.198072
C81	C	1.022780	0.632495	-0.341960
C82	C	1.522780	1.132495	0.158040
C83	C	1.022752	0.567060	-0.341949
C84	C	1.522752	1.067060	0.158051
C85	C	1.003496	0.768920	-0.306832
C86	C	1.503496	1.268920	0.193168
C87	C	1.003523	0.834353	-0.306839
C88	C	1.503523	1.334353	0.193161
C89	C	1.070263	0.867031	-0.301965
C90	C	1.570263	1.367031	0.198035
C91	C	1.136979	0.834268	-0.297071
C92	C	1.636979	1.334268	0.202929
C93	C	1.136951	0.768834	-0.297060
C94	C	1.636951	1.268834	0.202940
C95	C	1.070202	0.736163	-0.301944
C96	C	1.570202	1.236163	0.198056
C97	C	1.117698	0.970692	-0.261953
C98	C	1.617698	1.470692	0.238047
C99	C	1.117734	1.036129	-0.261972
C100	C	1.617734	1.536129	0.238028
C101	C	1.022958	1.036136	-0.342032
C102	C	1.522958	1.536136	0.157968
C103	C	1.022929	0.970701	-0.342017
C104	C	1.522929	1.470701	0.157983
C105	C	1.070298	0.937983	-0.301974
C106	C	1.570298	1.437983	0.198026
C107	C	1.022952	0.261774	-0.567707
C108	C	1.522952	0.761774	-0.067707
C109	C	1.022950	0.261762	-0.633142
C110	C	1.522950	0.761762	-0.133142
C111	C	1.070284	0.301828	-0.665868
C112	C	1.570284	0.801828	-0.165868
C113	C	1.117612	0.341920	-0.633153
C114	C	1.617612	0.841920	-0.133153
C115	C	1.117608	0.341935	-0.567719
C116	C	1.617608	0.841935	-0.067719
C117	C	1.137009	0.306759	-0.769559
C118	C	1.637009	0.806759	-0.269559
C119	C	1.137014	0.306740	-0.834992
C120	C	1.637014	0.806740	-0.334992
C121	C	1.070297	0.301786	-0.867689
C122	C	1.570297	0.801786	-0.367689
C123	C	1.003571	0.296839	-0.834945
C124	C	1.503571	0.796839	-0.334945
C125	C	1.003567	0.296853	-0.769510
C126	C	1.503567	0.796853	-0.269510
C127	C	1.070294	0.301817	-0.736821
C128	C	1.570294	0.801817	-0.236821
C129	C	1.022966	0.261687	-0.971349
C130	C	1.522966	0.761687	-0.471349
C131	C	1.022962	0.261680	-1.036785
C132	C	1.522962	0.761680	-0.536785
C133	C	1.117631	0.341835	-1.036795
C134	C	1.617631	0.841835	-0.536795
C135	C	1.117628	0.341845	-0.971360
C136	C	1.617628	0.841845	-0.471360
C137	C	1.070297	0.301768	-0.938640
C138	C	1.570297	0.801768	-0.438640
C139	C	1.070178	0.301907	-0.139148
C140	C	1.570178	0.801907	0.360852
C141	C	1.070296	0.301747	-0.069507
C142	C	1.570296	0.801747	0.430493
H143	H	0.507126	0.204188	-0.264973
H144	H	1.007126	0.704188	0.235027
N145	N	0.640503	0.386064	-0.223709
N146	N	1.140503	0.886064	0.276291
N147	N	0.682556	0.350506	-0.194011
N148	N	1.182556	0.850506	0.305989
H149	H	0.701526	0.363322	-0.151511
H150	H	1.201526	0.863322	0.348489
H151	H	0.949144	0.742320	-0.310804
H152	H	1.449144	1.242320	0.189196
N153	N	0.974566	1.069564	-0.382916
N154	N	1.474566	1.569564	0.117084
N155	N	0.927406	1.106126	-0.360835
N156	N	1.427406	1.606126	0.139165
H157	H	0.893228	1.129738	-0.389711
H158	H	1.393228	1.629738	0.110289
H159	H	0.984409	0.229142	-0.541071
H160	H	1.484409	0.729142	-0.041071
H161	H	0.506428	0.237867	-0.384693
H162	H	1.006428	0.737867	0.115307
N163	N	1.165896	0.533622	-0.220986
N164	N	1.665896	1.033622	0.279014
N165	N	1.213057	0.497053	-0.243053
N166	N	1.713057	0.997053	0.256947
H167	H	1.247222	0.473439	-0.214168
H168	H	1.747222	0.973439	0.285832
N169	N	1.165962	0.665896	-0.221002
N170	N	1.665962	1.165896	0.278998
N171	N	1.208248	0.636676	-0.185252
N172	N	1.708248	1.136676	0.314748
H173	H	1.242437	0.660270	-0.156368
H174	H	1.742437	1.160270	0.343632
N175	N	0.935383	0.867825	-0.311830
N176	N	1.435383	1.367825	0.188170
N177	N	0.916016	0.904379	-0.269269
N178	N	1.416016	1.404379	0.230731
H179	H	0.867890	0.928018	-0.272794
H180	H	1.367890	1.428018	0.227206
H181	H	0.984211	0.659143	-0.374555
H182	H	1.484211	1.159143	0.125445
H183	H	1.191343	0.310787	-0.742943
H184	H	1.691343	0.810787	-0.242943
H185	H	0.507745	0.320593	-0.404178
H186	H	1.007745	0.820593	0.095822
H187	H	0.634355	0.204468	-0.264892
H188	H	1.134355	0.704468	0.235108
N189	N	0.639172	0.222761	-0.385007
N190	N	1.139172	0.722761	0.114993
N191	N	0.677096	0.215574	-0.433321
N192	N	1.177096	0.715574	0.066679
H193	H	0.695123	0.172545	-0.445385
H194	H	1.195123	0.672545	0.054615
H195	H	0.984334	0.944068	-0.374606
H196	H	1.484334	1.444068	0.125394
N197	N	0.974631	0.220720	-1.070195
N198	N	1.474631	0.720720	-0.570195
N199	N	1.000726	0.180792	-1.106728
N200	N	1.500726	0.680792	-0.606728
H201	H	0.966593	0.151861	-1.130324
H202	H	1.466593	0.651861	-0.630324
N203	N	0.500649	0.267012	-0.192484
N204	N	1.000649	0.767012	0.307516
N205	N	0.463132	0.227387	-0.163603
N206	N	0.963132	0.727387	0.336397
H207	H	0.444026	0.237086	-0.120309
H208	H	0.944026	0.737086	0.379691
H209	H	0.984158	0.540429	-0.374542
H210	H	1.484158	1.040429	0.125458
H211	H	0.633763	0.264499	-0.204429
H212	H	1.133763	0.764499	0.295571
N213	N	0.640458	0.324938	-0.415351
N214	N	1.140458	0.824938	0.084649
N215	N	0.683120	0.368635	-0.401220
N216	N	1.183120	0.868635	0.098780
H217	H	0.702034	0.397787	-0.434710
H218	H	1.202034	0.897787	0.065290
N219	N	0.974601	0.220812	-0.666551
N220	N	1.474601	0.720812	-0.166551
N221	N	0.932345	0.185035	-0.637330
N222	N	1.432345	0.685035	-0.137330
H223	H	0.898199	0.156114	-0.660923
H224	H	1.398199	0.656114	-0.160923
H225	H	0.949237	0.292826	-0.742852
H226	H	1.449237	0.792826	-0.242852
H227	H	1.156152	0.374543	-0.659803
H228	H	1.656152	0.874543	-0.159803
N229	N	1.166150	1.069530	-0.221078
N230	N	1.666150	1.569530	0.278922
N231	N	1.161265	1.062266	-0.163259
N232	N	1.661265	1.562266	0.336741
H233	H	1.195461	1.085855	-0.134376
H234	H	1.695461	1.585855	0.365624
N235	N	1.165980	0.382772	-1.070206
N236	N	1.665980	0.882772	-0.570206
N237	N	1.161022	0.440587	-1.062874
N238	N	1.661022	0.940587	-0.562874
H239	H	1.195168	0.469503	-1.086473
H240	H	1.695168	0.969503	-0.586473
H241	H	0.949244	0.292800	-0.861565
H242	H	1.449244	0.792800	-0.361565
N243	N	1.205100	0.735377	-0.292061
N244	N	1.705100	1.235377	0.207939
N245	N	1.264688	0.764554	-0.287707
N246	N	1.764688	1.264554	0.212293
H247	H	1.312820	0.740926	-0.284178
H248	H	1.812820	1.240926	0.215822
H249	H	1.191326	0.860873	-0.293102
H250	H	1.691326	1.360873	0.206898
H251	H	0.984425	0.229054	-0.944707
H252	H	1.484425	0.729054	-0.444707
N253	N	1.166086	0.937276	-0.221049
N254	N	1.666086	1.437276	0.278951
N255	N	1.208405	0.966492	-0.185318
N256	N	1.708405	1.466492	0.314682
H257	H	1.242579	0.942894	-0.156429
H258	H	1.742579	1.442894	0.343571
H259	H	1.156166	0.374485	-0.944729
H260	H	1.656166	0.874485	-0.444729
H261	H	1.191346	0.310765	-0.861648
H262	H	1.691346	0.810765	-0.361648
H263	H	0.507979	0.381868	-0.235058
H264	H	1.007979	0.881868	0.264942
H265	H	0.507277	0.405118	-0.317104
H266	H	1.007277	0.905118	0.182896
H267	H	1.156148	0.374576	-0.541089
H268	H	1.656148	0.874576	-0.041089
H269	H	0.634009	0.405133	-0.317871
H270	H	1.134009	0.905133	0.182129
