data_functionalizedCrystal
_audit_creation_method	'MofGen! by Chris Wilmer'
_symmetry_space_group_name_H-M	'P1'
_symmetry_Int_Tables_number	1
_symmetry_cell_setting	triclinic
loop_
_symmetry_equiv_pos_as_xyz
  x,y,z
_cell_length_a	16.109318
_cell_length_b	15.995292
_cell_length_c	15.186229
_cell_angle_alpha	89.999448
_cell_angle_beta	90.000224
_cell_angle_gamma	83.468590
loop_
_atom_site_label
_atom_site_type_symbol
_atom_site_fract_x
_atom_site_fract_y
_atom_site_fract_z
O1	O	1.103128	0.107696	-0.073149
O2	O	1.603128	0.607696	0.426851
O3	O	0.861069	0.121075	-0.073166
O4	O	1.361069	0.621075	0.426834
O5	O	0.988741	-0.007507	-0.073158
O6	O	1.488741	0.492493	0.426842
O7	O	0.975457	0.236278	-0.073157
O8	O	1.475457	0.736278	0.426843
O9	O	0.988732	-0.007509	0.073299
O10	O	1.488732	0.492491	0.573299
O11	O	0.861061	0.121073	0.073291
O12	O	1.361061	0.621073	0.573291
O13	O	1.103120	0.107694	0.073308
O14	O	1.603120	0.607694	0.573308
Zn15	Zn	0.982089	0.114383	0.096553
Zn16	Zn	1.482089	0.614383	0.596553
Zn17	Zn	0.982100	0.114386	-0.096411
Zn18	Zn	1.482100	0.614386	0.403589
O19	O	0.975448	0.236276	0.073301
O20	O	1.475448	0.736276	0.573301
C21	C	0.830090	0.120530	0.000060
C22	C	1.330090	0.620530	0.500060
C23	C	0.737796	0.118897	0.000054
C24	C	1.237796	0.618897	0.500054
C25	C	0.438726	0.113626	-0.079765
C26	C	0.938726	0.613626	0.420235
C27	C	0.525448	0.115154	-0.079770
C28	C	1.025448	0.615154	0.420230
C29	C	0.525457	0.115141	0.079906
C30	C	1.025457	0.615141	0.579906
C31	C	0.438738	0.113606	0.079910
C32	C	0.938738	0.613606	0.579910
C33	C	0.395374	0.112853	0.000072
C34	C	0.895374	0.612853	0.500072
C35	C	0.568815	0.115916	0.000062
C36	C	1.068815	0.615916	0.500062
C37	C	0.662842	0.117573	0.000057
C38	C	1.162842	0.617573	0.500057
C39	C	0.301341	0.111195	0.000077
C40	C	0.801341	0.611195	0.500077
C41	C	0.988196	-0.038703	0.000068
C42	C	1.488196	0.461297	0.500068
C43	C	0.986575	-0.131656	0.000061
C44	C	1.486575	0.368344	0.500061
C45	C	0.980616	-0.469393	0.000069
C46	C	1.480616	0.030607	0.500069
C47	C	1.072766	-0.446100	0.000403
C48	C	1.572766	0.053900	0.500403
C49	C	1.074517	-0.349425	0.000069
C50	C	1.574517	0.150575	0.500069
C51	C	0.983573	-0.301838	0.000066
C52	C	1.483573	0.198162	0.500066
C53	C	0.937507	-0.330928	-0.083569
C54	C	1.437507	0.169072	0.416431
C55	C	0.936398	-0.427718	-0.083636
C56	C	1.436398	0.072282	0.416364
C57	C	0.934506	-0.427577	0.082913
C58	C	1.434506	0.072423	0.582913
C59	C	0.937921	-0.331085	0.084015
C60	C	1.437921	0.168915	0.584015
C61	C	0.985239	-0.207142	0.000061
C62	C	1.485239	0.292858	0.500061
C63	C	0.978947	-0.564088	0.000068
C64	C	1.478947	-0.064088	0.500068
C65	C	1.134099	0.108240	0.000080
C66	C	1.634099	0.608240	0.500080
C67	C	1.226393	0.109872	0.000081
C68	C	1.726393	0.609872	0.500081
C69	C	0.975993	0.267472	0.000072
C70	C	1.475993	0.767472	0.500072
C71	C	0.977614	0.360425	0.000073
C72	C	1.477614	0.860425	0.500073
N73	N	0.982087	0.114381	0.228246
N74	N	1.482087	0.614381	0.728246
N75	N	0.982108	0.114381	-0.228103
N76	N	1.482108	0.614381	0.271897
C77	C	1.038639	0.057464	0.453972
C78	C	1.538639	0.557464	0.953972
C79	C	1.038642	0.057462	0.546162
C80	C	1.538642	0.557462	1.046162
C81	C	0.925550	0.171301	0.546164
C82	C	1.425550	0.671301	1.046164
C83	C	0.925544	0.171298	0.453976
C84	C	1.425544	0.671298	0.953976
C85	C	0.982093	0.114381	0.407882
C86	C	1.482093	0.614381	0.907882
C87	C	0.982102	0.114382	0.592260
C88	C	1.482102	0.614382	1.092260
C89	C	0.982104	0.114380	0.692216
C90	C	1.482104	0.614380	1.192216
C91	C	0.982090	0.114381	0.307920
C92	C	1.482090	0.614381	0.807920
H93	H	0.403422	0.113012	-0.144774
H94	H	0.903422	0.613012	0.355226
O95	O	0.572209	0.115981	-0.165880
O96	O	1.072209	0.615981	0.334120
H97	H	0.604307	0.173709	-0.169696
H98	H	1.104307	0.673709	0.330304
H99	H	0.969503	-0.310873	-0.145807
H100	H	1.469503	0.189127	0.354193
O101	O	0.391969	0.112779	0.166023
O102	O	0.891969	0.612779	0.666023
H103	H	0.436688	0.113574	0.221539
H104	H	0.936688	0.613574	0.721539
H105	H	0.560774	0.115756	0.144907
H106	H	1.060774	0.615756	0.644907
O107	O	0.864552	0.232685	0.404250
O108	O	1.364552	0.732685	0.904250
H109	H	0.875132	0.297968	0.421925
H110	H	1.375132	0.797968	0.921925
O111	O	0.864571	0.232695	0.595885
O112	O	1.364571	0.732695	1.095885
H113	H	0.875150	0.297971	0.578177
H114	H	1.375150	0.797971	1.078177
H115	H	1.110595	-0.330408	0.060021
H116	H	1.610595	0.169592	0.560021
O117	O	1.119813	-0.483169	0.079863
O118	O	1.619813	0.016831	0.579863
H119	H	1.078027	-0.518601	0.119965
H120	H	1.578027	-0.018601	0.619965
O121	O	1.119566	-0.484534	-0.078594
O122	O	1.619566	0.015466	0.421406
H123	H	1.077479	-0.520152	-0.118095
H124	H	1.577479	-0.020152	0.381905
O125	O	0.848859	-0.288702	-0.087708
O126	O	1.348859	0.211298	0.412292
H127	H	0.849490	-0.219442	-0.090646
H128	H	1.349490	0.280558	0.409354
O129	O	1.099605	-0.003942	0.404249
O130	O	1.599605	0.496058	0.904249
H131	H	1.140011	0.031302	0.362239
H132	H	1.640011	0.531302	0.862239
O133	O	1.122583	-0.325041	-0.079483
O134	O	1.622583	0.174959	0.420517
H135	H	1.144659	-0.382332	-0.117871
H136	H	1.644659	0.117668	0.382129
H137	H	0.968308	-0.454541	-0.146152
H138	H	1.468308	0.045459	0.353848
H139	H	0.868833	-0.442254	-0.087428
H140	H	1.368833	0.057746	0.412572
H141	H	0.963523	-0.455673	0.146308
H142	H	1.463523	0.044327	0.646308
O143	O	0.982338	-0.306498	0.165980
O144	O	1.482338	0.193502	0.665980
H145	H	1.036700	-0.273580	0.147017
H146	H	1.536700	0.226420	0.647017
O147	O	0.849999	-0.287380	0.090728
O148	O	1.349999	0.212620	0.590728
H149	H	0.837406	-0.243944	0.034075
H150	H	1.337406	0.256056	0.534075
O151	O	0.844662	-0.446097	0.083673
O152	O	1.344662	0.053903	0.583673
H153	H	0.832865	-0.484890	0.025368
H154	H	1.332865	0.015110	0.525368
H155	H	1.084686	0.011115	0.583685
H156	H	1.584686	0.511115	1.083685
