data_functionalizedCrystal
_audit_creation_method	'MofGen! by Chris Wilmer'
_symmetry_space_group_name_H-M	'P1'
_symmetry_Int_Tables_number	1
_symmetry_cell_setting	triclinic
loop_
_symmetry_equiv_pos_as_xyz
  x,y,z
_cell_length_a	15.944551
_cell_length_b	27.731996
_cell_length_c	26.210047
_cell_angle_alpha	90.025731
_cell_angle_beta	90.016388
_cell_angle_gamma	83.060063
loop_
_atom_site_label
_atom_site_type_symbol
_atom_site_fract_x
_atom_site_fract_y
_atom_site_fract_z
O1	O	1.113707	0.062351	0.042383
O2	O	0.869054	0.070037	0.042396
O3	O	0.999001	-0.004171	0.042378
O4	O	0.983759	0.136560	0.042401
O5	O	0.998954	-0.004192	-0.042480
O6	O	0.869007	0.070016	-0.042462
O7	O	1.113660	0.062330	-0.042475
Cu8	Cu	0.991329	0.066171	-0.050217
Cu9	Cu	0.991385	0.066196	0.050138
O10	O	0.983712	0.136539	-0.042457
C11	C	0.837741	0.069708	-0.000031
C12	C	0.744507	0.068751	-0.000027
C13	C	0.998665	-0.022191	-0.000053
C14	C	0.997722	-0.075851	-0.000058
C15	C	0.530298	0.020467	-0.000044
C16	C	0.469001	0.042899	0.041799
C17	C	0.573805	0.067021	-0.000033
C18	C	0.468976	0.042889	-0.041865
C19	C	0.408915	0.065345	-0.000041
C20	C	0.513735	0.089465	0.041845
C21	C	0.513718	0.089449	-0.041856
C22	C	0.452437	0.111915	-0.000003
C23	C	0.668794	0.067984	-0.000028
C24	C	0.313926	0.064385	-0.000043
C25	C	0.991814	-0.408581	0.046223
C26	C	0.988232	-0.610255	0.046233
O27	O	0.987755	-0.636318	0.085572
N28	N	0.987762	-0.635486	-0.000023
C29	C	0.988181	-0.610294	-0.046284
O30	O	0.987690	-0.636381	-0.085627
C31	C	0.991757	-0.408621	-0.046293
C32	C	0.992236	-0.383394	-0.000034
C33	C	0.992292	-0.383354	0.092478
C34	C	0.993192	-0.332939	0.092476
C35	C	0.993614	-0.307751	0.046218
C36	C	0.993135	-0.332979	-0.000037
C37	C	0.992170	-0.383430	-0.092554
C38	C	0.993062	-0.333008	-0.092552
C39	C	0.993541	-0.307781	-0.046293
C40	C	0.994457	-0.257376	-0.046297
N41	N	0.994928	-0.232145	-0.000042
C42	C	0.994506	-0.257333	0.046216
C43	C	0.986306	-0.716176	-0.046276
C44	C	0.985414	-0.766594	-0.046274
C45	C	0.985463	-0.766551	0.046243
C46	C	0.986362	-0.716133	0.046240
C47	C	0.986776	-0.690945	-0.000021
C48	C	0.996396	-0.151458	0.046207
C49	C	0.997300	-0.101039	0.046200
C50	C	0.997246	-0.101085	-0.046317
C51	C	0.996347	-0.151500	-0.046310
C52	C	0.995919	-0.176685	-0.000045
O53	O	0.994926	-0.231281	-0.085616
O54	O	0.994978	-0.231236	0.085553
C55	C	0.990914	-0.458997	0.046226
C56	C	0.990436	-0.484224	-0.000029
C57	C	0.990858	-0.459036	-0.046286
C58	C	0.989544	-0.534642	-0.000027
C59	C	0.989122	-0.559830	0.046231
C60	C	0.989592	-0.534599	0.092487
C61	C	0.990492	-0.484184	0.092484
C62	C	0.990387	-0.484266	-0.092542
C63	C	0.989488	-0.534682	-0.092536
C64	C	0.989066	-0.559869	-0.046278
C65	C	1.144973	0.062660	-0.000047
C66	C	1.238206	0.063616	-0.000048
C67	C	0.984049	0.154558	-0.000025
C68	C	0.984992	0.208218	-0.000017
N69	N	0.991296	0.066154	-0.120801
C70	C	0.940821	0.036838	-0.526780
C71	C	0.940784	0.036826	-0.313122
O72	O	0.897818	0.011861	-0.285513
N73	N	0.991328	0.066161	-0.286385
C74	C	1.041888	0.095498	-0.313065
O75	O	1.084883	0.120445	-0.285421
C76	C	1.041929	0.095507	-0.526723
C77	C	0.991376	0.066174	-0.553457
C78	C	0.890273	0.007507	-0.553515
C79	C	0.890280	0.007512	-0.606926
C80	C	0.940834	0.036849	-0.633603
C81	C	0.991382	0.066180	-0.606869
C82	C	1.092493	0.124842	-0.553403
C83	C	1.092500	0.124841	-0.606820
C84	C	1.041947	0.095508	-0.633555
C85	C	1.041943	0.095521	-0.686957
N86	N	0.991400	0.066187	-0.713694
C87	C	0.940845	0.036850	-0.687017
C88	C	1.041861	0.095492	-0.200892
C89	C	1.041850	0.095490	-0.147478
C90	C	0.940748	0.036817	-0.147538
C91	C	0.940755	0.036822	-0.200953
C92	C	0.991318	0.066157	-0.227629
C93	C	0.940862	0.036864	-0.799185
C94	C	0.940870	0.036874	-0.852601
C95	C	1.041975	0.095545	-0.852537
C96	C	1.041964	0.095537	-0.799125
C97	C	0.991405	0.066193	-0.772451
O98	O	1.084894	0.120469	-0.714598
O99	O	0.897870	0.011899	-0.714671
C100	C	0.940815	0.036833	-0.473369
C101	C	0.991363	0.066164	-0.446634
C102	C	1.041918	0.095500	-0.473311
C103	C	0.991352	0.066162	-0.393220
C104	C	0.940798	0.036826	-0.366543
C105	C	0.890255	0.007491	-0.393280
C106	C	0.890261	0.007496	-0.446692
C107	C	1.092461	0.124835	-0.446574
C108	C	1.092450	0.124828	-0.393163
C109	C	1.041895	0.095491	-0.366486
N110	N	0.991424	0.066210	0.120722
H111	H	0.564149	-0.018169	0.000001
O112	O	0.445397	0.019343	0.083955
C113	C	0.485463	-0.028849	0.083807
H114	H	0.503841	-0.040077	0.043090
H115	H	0.440358	-0.054064	0.099606
H116	H	0.544585	-0.031376	0.108604
O117	O	0.445277	0.019313	-0.084014
C118	C	0.405069	-0.020978	-0.069001
H119	H	0.426045	-0.032432	-0.028761
H120	H	0.422991	-0.052408	-0.096483
H121	H	0.333659	-0.010674	-0.069620
O122	O	0.537385	0.112839	-0.084104
C123	C	0.514840	0.088163	-0.128136
H124	H	0.508606	0.048757	-0.118118
H125	H	0.565736	0.089337	-0.158497
H126	H	0.451948	0.106443	-0.143400
H127	H	0.849088	-0.016394	-0.371551
O128	O	0.989319	-0.559057	0.137437
C129	C	1.062308	-0.552199	0.165591
H130	H	1.113419	-0.542182	0.138530
H131	H	1.086140	-0.587186	0.186575
H132	H	1.046387	-0.521682	0.194432
H133	H	0.993579	-0.312403	0.130144
H134	H	1.083038	0.119382	-0.222607
H135	H	0.997692	-0.080501	0.083871
O136	O	0.997526	-0.076652	-0.091280
C137	C	0.924495	-0.083496	-0.119399
H138	H	0.899607	-0.118278	-0.106249
H139	H	0.940785	-0.086456	-0.161721
H140	H	0.874040	-0.051288	-0.112966
H141	H	0.533479	0.109150	0.077259
H142	H	0.996044	-0.171957	0.083881
H143	H	0.899692	0.012969	-0.777473
O144	O	0.991924	-0.407745	0.137463
C145	C	0.992514	-0.374656	0.178281
H146	H	1.019740	-0.340725	0.164707
H147	H	1.033076	-0.392271	0.210633
H148	H	0.925207	-0.364216	0.192511
H149	H	0.990732	-0.463764	-0.130211
H150	H	0.899700	0.012987	-0.874366
O151	O	1.090996	0.123921	-0.121454
C152	C	1.148713	0.094467	-0.090568
H153	H	1.123053	0.058591	-0.082587
H154	H	1.157804	0.113903	-0.052996
H155	H	1.211950	0.087090	-0.111143
H156	H	0.985120	-0.787068	0.083908
O157	O	1.141638	0.153338	-0.367275
C158	C	1.186241	0.179238	-0.402282
H159	H	1.191402	0.159231	-0.440367
H160	H	1.252251	0.182254	-0.386838
H161	H	1.151139	0.217170	-0.407947
H162	H	0.418760	0.150591	0.000027
O163	O	0.986782	-0.691700	0.091221
C164	C	0.986243	-0.724751	0.132046
H165	H	0.959000	-0.758695	0.118484
H166	H	0.945723	-0.707106	0.164402
H167	H	1.053569	-0.735179	0.146264
O168	O	0.984922	-0.791020	-0.091256
C169	C	0.985505	-0.757972	-0.132081
H170	H	0.959549	-0.720026	-0.118515
H171	H	0.944433	-0.769480	-0.164431
H172	H	1.053004	-0.757687	-0.146309
O173	O	1.141498	0.153367	-0.632789
C174	C	1.089852	0.186346	-0.663669
H175	H	1.027731	0.171285	-0.671697
H176	H	1.123553	0.191747	-0.701217
H177	H	1.076508	0.222675	-0.643063
H178	H	0.986648	-0.695673	-0.083950
O179	O	0.841061	-0.020929	-0.472681
C180	C	0.783368	0.008521	-0.503586
H181	H	0.773833	0.046983	-0.487475
H182	H	0.720307	-0.006951	-0.504209
H183	H	0.809312	0.009344	-0.544062
O184	O	0.991663	-0.407850	-0.137536
C185	C	0.992241	-0.374798	-0.178357
H186	H	0.966292	-0.336853	-0.164786
H187	H	0.951160	-0.386301	-0.210706
H188	H	1.059737	-0.374514	-0.192590
H189	H	1.083116	0.119429	-0.777357
H190	H	0.993387	-0.312502	-0.130224
O191	O	0.995786	-0.176058	-0.091210
C192	C	0.922482	-0.199736	-0.093983
H193	H	0.898097	-0.205441	-0.053820
H194	H	0.938211	-0.236432	-0.113555
H195	H	0.871863	-0.176482	-0.116815
O196	O	0.990787	-0.459704	0.137441
C197	C	0.917811	-0.466568	0.165573
H198	H	0.866700	-0.476601	0.138493
H199	H	0.893967	-0.431577	0.186574
H200	H	0.933755	-0.497075	0.194399
H201	H	0.989105	-0.555218	-0.130208
H202	H	1.083133	0.119431	-0.874267
O203	O	0.841159	-0.021031	-0.632815
C204	C	0.796527	-0.046915	-0.597809
H205	H	0.831330	-0.049720	-0.559728
H206	H	0.791832	-0.084929	-0.613260
H207	H	0.730330	-0.027027	-0.592134
H208	H	0.899590	0.012936	-0.222717
H209	H	0.899582	0.012932	-0.125808
O210	O	0.841279	-0.021042	-0.527580
C211	C	0.892901	-0.054006	-0.496671
H212	H	0.959814	-0.059183	-0.512746
H213	H	0.866527	-0.090423	-0.496094
H214	H	0.894106	-0.039070	-0.456182
H215	H	1.133660	0.148727	-0.531645
O216	O	1.141450	0.153362	-0.472541
C217	C	1.089799	0.186340	-0.503420
H218	H	1.027682	0.171275	-0.511449
H219	H	1.123499	0.191744	-0.540967
H220	H	1.076448	0.222667	-0.482812
