data_functionalizedCrystal
_audit_creation_method	'MofGen! by Chris Wilmer'
_symmetry_space_group_name_H-M	'P1'
_symmetry_Int_Tables_number	1
_symmetry_cell_setting	triclinic
loop_
_symmetry_equiv_pos_as_xyz
  x,y,z
_cell_length_a	14.519709
_cell_length_b	12.996460
_cell_length_c	14.519709
_cell_angle_alpha	90.001234
_cell_angle_beta	96.319855
_cell_angle_gamma	89.999398
loop_
_atom_site_label
_atom_site_type_symbol
_atom_site_fract_x
_atom_site_fract_y
_atom_site_fract_z
O1	O	-1.223870	0.085435	0.120885
O2	O	-0.723870	0.585435	0.620885
O3	O	-0.955394	0.085467	0.135121
O4	O	-0.455394	0.585467	0.635121
O5	O	-1.096750	0.085441	-0.006235
O6	O	-0.596750	0.585441	0.493765
O7	O	-1.082514	0.085461	0.262242
O8	O	-0.582514	0.585461	0.762242
O9	O	-1.096732	-0.085693	-0.006227
O10	O	-0.596732	0.414307	0.493773
O11	O	-0.955375	-0.085667	0.135130
O12	O	-0.455375	0.414333	0.635130
O13	O	-1.223852	-0.085699	0.120893
O14	O	-0.723852	0.414301	0.620893
Cu15	Cu	-1.089612	-0.101309	0.128012
Cu16	Cu	-0.589612	0.398691	0.628012
Cu17	Cu	-1.089634	0.101077	0.128002
Cu18	Cu	-0.589634	0.601077	0.628002
O19	O	-1.082496	-0.085673	0.262250
O20	O	-0.582496	0.414327	0.762250
C21	C	-0.921025	-0.000096	0.134462
C22	C	-0.421025	0.499904	0.634462
C23	C	-0.818643	-0.000084	0.132474
C24	C	-0.318643	0.499916	0.632474
C25	C	-1.096078	-0.000126	-0.040591
C26	C	-0.596078	0.499874	0.459409
C27	C	-1.094090	-0.000126	-0.142972
C28	C	-0.594090	0.499874	0.357028
C29	C	-1.258221	-0.000134	0.121553
C30	C	-0.758221	0.499866	0.621553
C31	C	-1.360602	-0.000139	0.123541
C32	C	-0.860602	0.499861	0.623541
N33	N	-1.089604	-0.243656	0.128018
N34	N	-0.589604	0.256344	0.628018
C35	C	-0.443748	-0.000132	0.125154
C36	C	0.056252	0.499868	0.625154
C37	C	-0.548056	-0.000118	0.127187
C38	C	-0.048056	0.499882	0.627187
C39	C	-0.631192	-0.000107	0.128814
C40	C	-0.131192	0.499893	0.628814
C41	C	-0.735507	-0.000095	0.130847
C42	C	-0.235507	0.499905	0.630847
C43	C	-1.089608	-0.336762	0.128021
C44	C	-0.589608	0.163238	0.628021
C45	C	-1.089616	-0.453567	0.128015
C46	C	-0.589616	0.046433	0.628015
C47	C	-1.089628	-0.546665	0.128004
C48	C	-0.589628	-0.046665	0.628004
C49	C	-1.089638	-0.663478	0.127999
C50	C	-0.589638	-0.163478	0.627999
N51	N	-1.089649	0.243424	0.127989
N52	N	-0.589649	0.743424	0.627989
C53	C	-1.086770	-0.000099	-0.517868
C54	C	-0.586770	0.499901	-0.017868
C55	C	-1.088803	-0.000107	-0.413560
C56	C	-0.588803	0.499893	0.086440
C57	C	-1.090430	-0.000114	-0.330423
C58	C	-0.590430	0.499886	0.169577
C59	C	-1.092463	-0.000120	-0.226109
C60	C	-0.592463	0.499880	0.273891
C61	C	-1.083168	-0.000103	0.296606
C62	C	-0.583168	0.499897	0.796606
C63	C	-1.085156	-0.000096	0.398987
C64	C	-0.585156	0.499904	0.898987
