data_functionalizedCrystal
_audit_creation_method	'MofGen! by Chris Wilmer'
_symmetry_space_group_name_H-M	'P1'
_symmetry_Int_Tables_number	1
_symmetry_cell_setting	triclinic
loop_
_symmetry_equiv_pos_as_xyz
  x,y,z
_cell_length_a	17.038272
_cell_length_b	27.732048
_cell_length_c	16.098538
_cell_angle_alpha	92.695138
_cell_angle_beta	87.069734
_cell_angle_gamma	86.877106
loop_
_atom_site_label
_atom_site_type_symbol
_atom_site_fract_x
_atom_site_fract_y
_atom_site_fract_z
O1	O	1.039664	0.102899	-0.069167
O2	O	0.812054	0.101233	-0.069192
O3	O	0.932928	0.031993	-0.069163
O4	O	0.918791	0.172139	-0.069196
O5	O	0.925867	0.036021	0.069348
O6	O	0.804994	0.105261	0.069320
O7	O	1.032604	0.106927	0.069344
Zn8	Zn	0.917678	0.106733	0.091323
Zn9	Zn	0.926980	0.101427	-0.091171
O10	O	0.911730	0.176167	0.069315
C11	C	0.779414	0.101731	0.000061
C12	C	0.692674	0.097211	0.000053
C13	C	0.929100	0.015987	0.000095
C14	C	0.928206	-0.037709	0.000102
C15	C	0.642076	0.138713	0.000043
C16	C	0.560575	0.134463	0.000056
C17	C	0.529672	0.088710	0.000072
C18	C	0.580276	0.047205	0.000083
C19	C	0.661776	0.051455	0.000077
C20	C	0.284088	0.073694	0.000098
C21	C	0.202582	0.069446	0.000102
C22	C	0.182886	0.156706	0.000076
C23	C	0.264389	0.160952	0.000064
C24	C	0.314985	0.119446	0.000080
C25	C	0.446365	0.084365	0.000082
C26	C	0.398290	0.123792	0.000076
C27	C	0.994011	-0.373515	0.000066
C28	C	0.990696	-0.575327	0.000054
O29	O	1.050870	-0.603831	0.000024
N30	N	0.919023	-0.597729	0.000047
C31	C	0.848173	-0.569676	0.000038
O32	O	0.787135	-0.593361	0.000023
C33	C	0.851490	-0.367865	0.000044
C34	C	0.923167	-0.345465	0.000059
C35	C	1.065683	-0.351115	0.000080
C36	C	1.066511	-0.300665	0.000088
C37	C	0.995667	-0.272615	0.000081
C38	C	0.923995	-0.295015	0.000067
C39	C	0.780641	-0.339813	0.000029
C40	C	0.781477	-0.289357	0.000028
C41	C	0.853155	-0.266957	0.000043
C42	C	0.853979	-0.216515	0.000067
N43	N	0.925652	-0.194113	0.000074
C44	C	0.996496	-0.222163	0.000081
C45	C	0.846437	-0.675629	0.000036
C46	C	0.845608	-0.726081	0.000036
C47	C	0.988131	-0.731729	0.000051
C48	C	0.988959	-0.681276	0.000057
C49	C	0.918111	-0.653227	0.000043
C50	C	0.998229	-0.116214	0.000098
C51	C	0.999051	-0.065759	0.000109
C52	C	0.856528	-0.060116	0.000090
C53	C	0.855706	-0.110566	0.000083
C54	C	0.926563	-0.138614	0.000084
O55	O	0.793838	-0.187981	0.000088
O56	O	1.057527	-0.198469	0.000077
C57	C	0.993184	-0.423965	0.000059
C58	C	0.921512	-0.446365	0.000044
C59	C	0.850668	-0.418315	0.000037
C60	C	0.920682	-0.496818	0.000044
C61	C	0.991526	-0.524868	0.000051
C62	C	1.063200	-0.502465	0.000058
C63	C	1.064028	-0.452015	0.000065
C64	C	0.778994	-0.440718	0.000030
C65	C	0.778172	-0.491168	0.000024
C66	C	0.849016	-0.519218	0.000031
C67	C	1.065245	0.106428	0.000089
C68	C	1.151985	0.110949	0.000092
C69	C	0.915558	0.192173	0.000055
C70	C	0.916452	0.245869	0.000043
N71	N	0.911335	0.110355	0.215871
N72	N	0.933330	0.097802	-0.215719
C73	C	0.962657	0.080979	0.259468
C74	C	0.958226	0.083517	0.346656
C75	C	0.902478	0.115434	0.390245
C76	C	0.851150	0.144812	0.346642
C77	C	0.855577	0.142270	0.259456
C78	C	0.886429	0.124638	0.653492
C79	C	0.882008	0.127178	0.740684
C80	C	0.989084	0.065882	0.740692
C81	C	0.993509	0.063346	0.653504
C82	C	0.942179	0.092721	0.609908
C83	C	0.897950	0.118031	0.479365
C84	C	0.946704	0.090122	0.520790
H85	H	0.519381	0.168259	0.000048
H86	H	0.667230	0.175970	0.000030
C87	C	0.765618	-0.781602	-0.071176
C88	C	0.766818	-0.750701	0.000028
H89	H	0.716977	-0.796801	-0.071180
H90	H	0.771368	-0.763437	-0.119467
H91	H	0.807691	-0.805530	-0.071161
H92	H	0.724749	-0.726771	0.000010
H93	H	0.761061	-0.768867	0.048332
H94	H	0.836608	0.153170	0.776170
H95	H	0.141682	0.190497	0.000064
H96	H	1.000016	0.059596	0.382153
H97	H	0.722274	-0.358042	0.000011
H98	H	1.123376	-0.373948	0.000083
H99	H	0.555109	0.009952	0.000108
C100	C	1.188053	-0.524883	-0.071136
C101	C	1.141075	-0.533303	0.000062
H102	H	1.236128	-0.543921	-0.071132
H103	H	1.161095	-0.533388	-0.119431
H104	H	1.198806	-0.491629	-0.071121
H105	H	1.130317	-0.566556	0.000044
H106	H	1.168039	-0.524801	0.048370
H107	H	0.325275	0.039897	0.000111
C108	C	0.236729	0.246777	0.000054
C109	C	0.298353	0.211246	0.000055
H110	H	0.257699	0.277826	0.000051
H111	H	0.207808	0.241902	-0.048243
H112	H	0.202895	0.244706	0.048361
H113	H	0.332185	0.213315	-0.048256
H114	H	0.327287	0.216123	0.048356
H115	H	1.055928	-0.139045	0.000095
C116	C	0.700853	-0.382772	-0.071175
C117	C	0.701114	-0.409891	0.000025
H118	H	0.652767	-0.363745	-0.071176
H119	H	0.743645	-0.362206	-0.071162
H120	H	0.705959	-0.403974	-0.119474
H121	H	0.696014	-0.388688	0.048325
H122	H	0.658311	-0.430459	0.000020
C123	C	0.474014	-0.001462	0.000090
C124	C	0.412396	0.034073	0.000089
H125	H	0.453039	-0.032510	0.000100
H126	H	0.507845	0.000606	-0.048211
H127	H	0.502940	0.003414	0.048393
H128	H	0.383473	0.029199	-0.048217
H129	H	0.378551	0.032003	0.048396
C130	C	1.139849	-0.076417	0.000116
C131	C	1.077844	-0.041138	0.000118
H132	H	1.188491	-0.061218	0.000115
H133	H	1.134100	-0.094577	0.048413
H134	H	1.139014	-0.097378	-0.048192
H135	H	1.078676	-0.020179	0.048429
H136	H	1.083595	-0.022970	-0.048183
H137	H	0.723782	-0.266522	0.000016
C138	C	0.705476	-0.675125	0.000034
C139	C	0.768552	-0.644801	0.000033
H140	H	0.657393	-0.656093	0.000041
H141	H	0.710579	-0.696319	-0.048267
H142	H	0.705671	-0.693522	0.048338
H143	H	0.768360	-0.626406	-0.048274
H144	H	0.763447	-0.623599	0.048339
C145	C	1.076208	-0.629884	-0.071138
C146	C	1.067747	-0.656654	0.000065
H147	H	1.124849	-0.614684	-0.071130
H148	H	1.075384	-0.650851	-0.119430
H149	H	1.034133	-0.605957	-0.071135
H150	H	1.109819	-0.680585	0.000059
H151	H	1.068578	-0.635686	0.048369
C152	C	0.714163	0.168345	0.373502
C153	C	0.789866	0.179893	0.394557
H154	H	0.676330	0.190002	0.403087
H155	H	0.709457	0.171040	0.315345
H156	H	0.705357	0.136165	0.387809
H157	H	0.798674	0.212073	0.380244
H158	H	0.794575	0.177203	0.452727
C159	C	1.207301	-0.311331	0.000093
C160	C	1.145303	-0.276048	0.000094
H161	H	1.255946	-0.296135	0.000090
H162	H	1.201549	-0.329489	0.048392
H163	H	1.206461	-0.332293	-0.048212
H164	H	1.146139	-0.255088	0.048402
H165	H	1.151056	-0.257882	-0.048210
H166	H	0.702973	0.017659	0.000084
C167	C	0.197896	-0.008314	-0.071072
C168	C	0.168611	0.019151	0.000121
H169	H	0.176925	-0.039362	-0.071057
H170	H	0.182950	0.007511	-0.119370
H171	H	0.253675	-0.011722	-0.071060
H172	H	0.112832	0.022563	0.000107
H173	H	0.183553	0.003323	0.048432
C174	C	1.104648	0.054092	0.554959
C175	C	1.054426	0.028121	0.605371
H176	H	1.142152	0.032303	0.525182
H177	H	1.074684	0.071344	0.516700
H178	H	1.131178	0.076235	0.588813
H179	H	1.027892	0.005979	0.571517
H180	H	1.084394	0.010860	0.643635
C181	C	0.482130	0.177114	-0.071158
C182	C	0.432253	0.174084	0.000053
H183	H	0.503097	0.208163	-0.071176
H184	H	0.523922	0.153006	-0.071142
H185	H	0.453191	0.172234	-0.119449
H186	H	0.461194	0.178960	0.048345
H187	H	0.390456	0.198199	0.000045
C188	C	0.715566	-0.059589	0.000062
C189	C	0.778658	-0.029277	0.000077
H190	H	0.667493	-0.040549	0.000053
H191	H	0.720671	-0.080785	-0.048236
H192	H	0.715738	-0.077984	0.048368
H193	H	0.778489	-0.010884	-0.048233
H194	H	0.773551	-0.008073	0.048379
C195	C	1.073495	-0.793809	-0.071161
C196	C	1.066007	-0.762567	0.000048
H197	H	1.121573	-0.812845	-0.071169
H198	H	1.030691	-0.814365	-0.071153
H199	H	1.073312	-0.775402	-0.119454
H200	H	1.066185	-0.780974	0.048341
H201	H	1.108823	-0.742008	0.000048
C202	C	0.775726	-0.166090	-0.071137
C203	C	0.776921	-0.135194	0.000074
H204	H	0.727089	-0.181294	-0.071143
H205	H	0.781469	-0.147921	-0.119423
H206	H	0.817805	-0.190015	-0.071129
H207	H	0.734845	-0.111267	0.000063
H208	H	0.771170	-0.153365	0.048373
C209	C	1.001855	0.003692	0.838760
C210	C	1.045495	0.033589	0.788616
H211	H	1.036682	-0.016248	0.868342
H212	H	0.968030	0.023066	0.877193
H213	H	0.971268	-0.016024	0.804750
H214	H	1.076078	0.053307	0.822628
H215	H	1.079334	0.014213	0.750179
H216	H	0.844636	0.148557	0.618003
C217	C	1.151280	-0.400624	-0.071126
C218	C	1.142818	-0.427396	0.000074
H219	H	1.199923	-0.385426	-0.071117
H220	H	1.150453	-0.421588	-0.119419
H221	H	1.109208	-0.376694	-0.071119
H222	H	1.184887	-0.451329	0.000065
H223	H	1.143652	-0.406430	0.048381
H224	H	0.719799	-0.509401	0.000019
H225	H	1.008056	0.054990	0.223984
H226	H	0.813784	0.166191	0.223960
C227	C	0.969396	0.022203	0.422807
C228	C	1.007965	0.055020	0.472898
H229	H	1.007214	0.000530	0.393238
H230	H	0.935348	0.004485	0.456847
H231	H	0.939478	0.039340	0.384356
H232	H	1.037878	0.037883	0.511353
H233	H	1.042027	0.072740	0.438855
H234	H	0.852559	0.144019	0.514863
