data_functionalizedCrystal
_audit_creation_method	'MofGen! by Chris Wilmer'
_symmetry_space_group_name_H-M	'P1'
_symmetry_Int_Tables_number	1
_symmetry_cell_setting	triclinic
loop_
_symmetry_equiv_pos_as_xyz
  x,y,z
_cell_length_a	16.992694
_cell_length_b	16.992695
_cell_length_c	16.053802
_cell_angle_alpha	92.741074
_cell_angle_beta	87.249047
_cell_angle_gamma	90.668223
loop_
_atom_site_label
_atom_site_type_symbol
_atom_site_fract_x
_atom_site_fract_y
_atom_site_fract_z
O1	O	1.053959	0.163815	-0.069325
O2	O	1.553959	0.663815	0.430675
O3	O	0.825560	0.161983	-0.069350
O4	O	1.325560	0.661983	0.430650
O5	O	0.938844	0.048699	-0.069331
O6	O	1.438844	0.548699	0.430669
O7	O	0.940676	0.277099	-0.069344
O8	O	1.440676	0.777099	0.430656
O9	O	0.932607	0.054907	0.069527
O10	O	1.432607	0.554907	0.569527
O11	O	0.819323	0.168191	0.069508
O12	O	1.319323	0.668191	0.569508
O13	O	1.047722	0.170023	0.069533
O14	O	1.547722	0.670023	0.569533
Zn15	Zn	0.932532	0.170093	0.091567
Zn16	Zn	1.432532	0.670093	0.591567
Zn17	Zn	0.940750	0.161913	-0.091384
Zn18	Zn	1.440750	0.661913	0.408616
O19	O	0.934438	0.283307	0.069514
O20	O	1.434438	0.783307	0.569514
C21	C	0.793082	0.162731	0.000076
C22	C	1.293082	0.662731	0.500076
C23	C	0.705597	0.155702	0.000067
C24	C	1.205597	0.655702	0.500067
C25	C	0.659607	0.223520	0.000064
C26	C	1.159607	0.723520	0.500064
C27	C	0.577405	0.216911	0.000076
C28	C	1.077405	0.716911	0.500076
C29	C	0.541197	0.142484	0.000085
C30	C	1.041197	0.642484	0.500085
C31	C	0.587193	0.074661	0.000091
C32	C	1.087193	0.574661	0.500091
C33	C	0.669393	0.081270	0.000085
C34	C	1.169393	0.581270	0.500085
C35	C	0.295881	0.115090	0.000109
C36	C	0.795881	0.615090	0.500109
C37	C	0.213676	0.108486	0.000112
C38	C	0.713676	0.608486	0.500112
C39	C	0.203893	0.250737	0.000099
C40	C	0.703893	0.750737	0.500099
C41	C	0.286095	0.257339	0.000088
C42	C	0.786095	0.757339	0.500088
C43	C	0.332084	0.189517	0.000098
C44	C	0.832084	0.689517	0.500098
N45	N	0.457174	0.135727	0.000094
N46	N	0.957174	0.635727	0.500094
N47	N	0.416105	0.196275	0.000094
N48	N	0.916105	0.696275	0.500094
C49	C	0.933370	0.022443	0.000098
C50	C	1.433370	0.522443	0.500098
C51	C	0.926341	-0.065042	0.000097
C52	C	1.426341	0.434958	0.500097
C53	C	0.994158	-0.111032	0.000105
C54	C	1.494158	0.388968	0.500105
C55	C	0.987550	-0.193233	0.000096
C56	C	1.487550	0.306767	0.500096
C57	C	0.913123	-0.229442	0.000086
C58	C	1.413123	0.270558	0.500086
C59	C	0.845300	-0.183446	0.000075
C60	C	1.345300	0.316554	0.500075
C61	C	0.851910	-0.101246	0.000078
C62	C	1.351910	0.398754	0.500078
C63	C	0.885729	-0.474757	0.000071
C64	C	1.385729	0.025243	0.500071
C65	C	0.879124	-0.556962	0.000071
C66	C	1.379124	-0.056962	0.500071
C67	C	1.021375	-0.566745	0.000091
C68	C	1.521375	-0.066745	0.500091
C69	C	1.027978	-0.484543	0.000099
C70	C	1.527978	0.015457	0.500099
C71	C	0.960155	-0.438554	0.000083
C72	C	1.460155	0.061446	0.500083
N73	N	0.906366	-0.313465	0.000079
N74	N	1.406366	0.186535	0.500079
N75	N	0.966913	-0.354533	0.000084
N76	N	1.466913	0.145467	0.500084
C77	C	1.080201	0.169275	0.000105
C78	C	1.580201	0.669275	0.500105
C79	C	1.167685	0.176304	0.000109
C80	C	1.667685	0.676304	0.500109
C81	C	0.939913	0.309563	0.000084
C82	C	1.439913	0.809563	0.500084
C83	C	0.946942	0.397047	0.000079
C84	C	1.446942	0.897047	0.500079
N85	N	0.926930	0.175675	0.216427
N86	N	1.426930	0.675675	0.716427
N87	N	0.946358	0.156325	-0.216243
N88	N	1.446358	0.656325	0.283757
C89	C	0.975152	0.127492	0.260129
C90	C	1.475152	0.627492	0.760129
C91	C	0.971241	0.131404	0.347535
C92	C	1.471241	0.631404	0.847535
C93	C	0.919110	0.183504	0.391237
C94	C	1.419110	0.683504	0.891237
C95	C	0.870883	0.231689	0.347529
C96	C	1.370883	0.731689	0.847529
C97	C	0.874791	0.227772	0.260125
C98	C	1.374791	0.727772	0.760125
C99	C	0.902039	0.200593	0.652644
C100	C	1.402039	0.700593	1.152644
C101	C	0.898136	0.204508	0.740055
C102	C	1.398136	0.704508	1.240055
C103	C	0.998493	0.104222	0.740054
C104	C	1.498493	0.604222	1.240054
C105	C	1.002400	0.100313	0.652648
C106	C	1.502400	0.600313	1.152648
C107	C	0.954169	0.148494	0.608948
C108	C	1.454169	0.648494	1.108948
N109	N	0.915113	0.187507	0.480580
N110	N	1.415113	0.687507	0.980580
N111	N	0.958163	0.144487	0.519606
N112	N	1.458163	0.644487	1.019606
H113	H	0.706838	0.026046	0.000087
H114	H	1.206838	0.526046	0.500087
Br115	Br	0.358285	0.023045	0.000125
Br116	Br	0.858285	0.523045	0.500125
Br117	Br	0.538054	-0.026348	0.000111
Br118	Br	1.038054	0.473652	0.500111
H119	H	1.054765	-0.081557	0.000119
H120	H	1.554765	0.418443	0.500119
Br121	Br	0.164535	0.007472	0.000142
Br122	Br	0.664535	0.507472	0.500142
H123	H	1.010506	0.092170	0.383116
H124	H	1.510506	0.592170	0.883116
H125	H	1.042774	-0.230676	0.000105
H126	H	1.542774	0.269324	0.500105
Br127	Br	0.744291	-0.232586	0.000046
Br128	Br	1.244291	0.267414	0.500046
H129	H	0.796685	-0.063801	0.000071
H130	H	1.296685	0.436199	0.500071
H131	H	0.835522	0.267007	0.224543
H132	H	1.335522	0.767007	0.724543
H133	H	0.689081	0.284126	0.000056
H134	H	1.189081	0.784126	0.500056
Br135	Br	1.045910	0.056787	0.200827
Br136	Br	1.545910	0.556787	0.700827
Br137	Br	0.793683	-0.412354	0.000045
Br138	Br	1.293683	0.087646	0.500045
H139	H	1.088584	-0.455068	0.000108
H140	H	1.588584	0.044932	0.500108
Br141	Br	0.800127	0.302392	0.406836
Br142	Br	1.300127	0.802392	0.906836
H143	H	0.539963	0.272136	0.000072
H144	H	1.039963	0.772136	0.500072
Br145	Br	1.113414	-0.629162	0.000111
Br146	Br	1.613414	-0.129162	0.500111
Br147	Br	0.827385	0.275225	0.799360
Br148	Br	1.327385	0.775225	1.299360
H149	H	1.044848	0.057889	0.617067
H150	H	1.544848	0.557889	1.117067
Br151	Br	0.836587	0.265982	0.593341
Br152	Br	1.336587	0.765982	1.093341
Br153	Br	0.335230	0.358351	0.000066
Br154	Br	0.835230	0.858351	0.500066
Br155	Br	0.778109	-0.606102	0.000065
Br156	Br	1.278109	-0.106102	0.500065
H157	H	0.166440	0.305954	0.000092
H158	H	0.666440	0.805954	0.500092
Br159	Br	1.063944	0.038834	0.799365
Br160	Br	1.563944	0.538834	1.299365
