data_functionalizedCrystal
_audit_creation_method	'MofGen! by Chris Wilmer'
_symmetry_space_group_name_H-M	'P1'
_symmetry_Int_Tables_number	1
_symmetry_cell_setting	triclinic
loop_
_symmetry_equiv_pos_as_xyz
  x,y,z
_cell_length_a	19.288864
_cell_length_b	11.792241
_cell_length_c	18.366186
_cell_angle_alpha	89.993644
_cell_angle_beta	89.977106
_cell_angle_gamma	83.664831
loop_
_atom_site_label
_atom_site_type_symbol
_atom_site_fract_x
_atom_site_fract_y
_atom_site_fract_z
O1	O	0.922157	0.141582	-0.060784
O2	O	0.720005	0.160681	-0.060734
O3	O	0.825987	-0.014113	-0.060755
O4	O	0.816175	0.316377	-0.060763
O5	O	0.825968	-0.014122	0.060345
O6	O	0.719987	0.160673	0.060365
O7	O	0.922139	0.141574	0.060316
Zn8	Zn	0.821060	0.151122	0.079568
Zn9	Zn	0.821084	0.151133	-0.079986
O10	O	0.816157	0.316368	0.060337
C11	C	0.694116	0.160063	-0.000178
C12	C	0.617002	0.158218	-0.000159
C13	C	0.572888	0.260779	-0.000173
C14	C	0.500431	0.259046	-0.000181
C15	C	0.472091	0.154746	-0.000189
C16	C	0.516215	0.052171	-0.000171
C17	C	0.588670	0.053907	-0.000156
C18	C	0.363370	0.072757	-0.042638
C19	C	0.290915	0.071025	-0.042658
C20	C	0.248615	0.149387	-0.000233
C21	C	0.278777	0.229500	0.042202
C22	C	0.351232	0.231236	0.042217
C23	C	0.393526	0.152852	-0.000205
C24	C	0.125935	0.250076	-0.000255
C25	C	0.053477	0.248339	-0.000258
C26	C	0.069262	0.041460	-0.000256
C27	C	0.141718	0.043201	-0.000246
C28	C	0.170050	0.147512	-0.000248
C29	C	0.825361	-0.056399	-0.000205
C30	C	0.823517	-0.182385	-0.000206
C31	C	0.820125	-0.413045	-0.000217
C32	C	0.822009	-0.284689	-0.000211
C33	C	0.948028	0.142192	-0.000242
C34	C	1.025142	0.144037	-0.000266
C35	C	0.816783	0.358654	-0.000214
C36	C	0.818627	0.484640	-0.000219
N37	N	0.821049	0.151113	0.188459
N38	N	0.821101	0.151133	-0.188877
C39	C	0.867993	0.073752	0.226550
C40	C	0.867997	0.073747	0.302778
C41	C	0.821064	0.151123	0.340912
C42	C	0.774111	0.228490	0.302811
C43	C	0.774103	0.228485	0.226585
C44	C	0.812353	0.254534	0.461671
C45	C	0.812366	0.254540	0.537896
C46	C	0.821084	0.151137	0.576019
C47	C	0.829804	0.047723	0.537908
C48	C	0.829796	0.047719	0.461682
C49	C	0.821067	0.151136	0.423566
C50	C	0.868036	0.073764	0.696765
C51	C	0.868035	0.073757	0.772994
C52	C	0.774152	0.228510	0.773026
C53	C	0.774149	0.228507	0.696799
C54	C	0.821095	0.151135	0.658673
H55	H	0.149004	0.335012	-0.000246
C56	C	0.232256	0.315708	0.088867
H57	H	0.184785	0.303198	0.082787
H58	H	0.238410	0.391081	0.073948
H59	H	0.244864	0.306015	0.138659
H60	H	0.017560	0.331860	-0.000265
H61	H	0.493136	-0.032752	-0.000188
H62	H	0.735896	0.291488	0.333864
H63	H	0.906217	0.010749	0.195510
H64	H	0.906259	0.010760	0.665722
H65	H	0.836895	-0.036484	0.430655
H66	H	0.805242	0.338743	0.430637
C67	C	0.919639	-0.011346	0.344690
H68	H	0.912917	-0.000264	0.395548
H69	H	0.966036	0.000793	0.332172
H70	H	0.911814	-0.087071	0.332214
H71	H	0.046188	-0.043463	-0.000309
C72	C	0.190245	-0.069618	-0.000242
H73	H	0.162992	-0.131986	-0.000254
H74	H	0.218817	-0.073248	0.041993
H75	H	0.218859	-0.073234	-0.042472
C76	C	0.604053	0.375513	-0.000172
H77	H	0.653524	0.361862	-0.000167
H78	H	0.588912	0.417732	0.042053
H79	H	0.588960	0.417723	-0.042413
C80	C	0.722467	0.313594	0.184683
H81	H	0.694517	0.359681	0.218309
H82	H	0.693402	0.272888	0.154962
H83	H	0.747632	0.360739	0.154934
C84	C	0.802775	0.368285	0.579814
H85	H	0.804037	0.353481	0.630672
H86	H	0.759119	0.408932	0.567343
H87	H	0.839265	0.412611	0.567296
C88	C	0.839389	-0.066026	0.579833
H89	H	0.838135	-0.051218	0.630689
H90	H	0.883040	-0.106687	0.567326
H91	H	0.802892	-0.110342	0.567359
H92	H	0.266364	0.005797	-0.077214
H93	H	0.906261	0.010755	0.804009
H94	H	0.735925	0.291506	0.665783
C95	C	0.451897	0.371868	-0.000207
H96	H	0.479148	0.434238	-0.000213
H97	H	0.423275	0.375500	0.042013
H98	H	0.423335	0.375474	-0.042453
C99	C	0.409893	-0.013438	-0.089315
H100	H	0.381554	-0.061383	-0.114599
H101	H	0.441641	-0.058594	-0.058729
H102	H	0.435178	0.026498	-0.123426
H103	H	0.624588	-0.029614	-0.000145
C104	C	0.384412	0.319342	0.088896
H105	H	0.433620	0.309153	0.082823
H106	H	0.373272	0.309080	0.138679
H107	H	0.366820	0.394154	0.073972
C108	C	0.722526	0.313621	0.814964
H109	H	0.729256	0.302550	0.865818
H110	H	0.676126	0.301490	0.802497
H111	H	0.730356	0.389341	0.802461
