data_functionalizedCrystal
_audit_creation_method	'MofGen! by Chris Wilmer'
_symmetry_space_group_name_H-M	'P1'
_symmetry_Int_Tables_number	1
_symmetry_cell_setting	triclinic
loop_
_symmetry_equiv_pos_as_xyz
  x,y,z
_cell_length_a	14.908571
_cell_length_b	14.908520
_cell_length_c	14.908308
_cell_angle_alpha	83.639235
_cell_angle_beta	89.824947
_cell_angle_gamma	90.205961
loop_
_atom_site_label
_atom_site_type_symbol
_atom_site_fract_x
_atom_site_fract_y
_atom_site_fract_z
Zn1	Zn	-1.316651	0.470613	-0.613065
Zn2	Zn	-1.316549	0.613252	-0.470429
Zn3	Zn	-1.176020	0.453291	-0.453125
Zn4	Zn	-1.157642	0.612180	-0.612023
O5	O	-1.241715	0.537334	-0.537161
O6	O	-1.441995	0.497231	-0.601822
O7	O	-1.305556	0.585232	-0.341941
O8	O	-1.202409	0.329399	-0.467536
O9	O	-1.441920	0.602028	-0.497029
O10	O	-1.305730	0.342124	-0.585043
O11	O	-1.202310	0.467710	-0.329228
O12	O	-1.048225	0.466671	-0.466525
O13	O	-1.171086	0.600202	-0.738354
O14	O	-1.034722	0.583406	-0.583267
O15	O	-1.287909	0.496192	-0.739120
O16	O	-1.287736	0.739300	-0.496018
O17	O	-1.170987	0.738513	-0.600046
C18	C	-1.008970	0.523043	-0.522906
C19	C	-0.909397	0.516953	-0.516830
C20	C	-1.227379	0.771629	-0.549818
C21	C	-1.221326	0.871868	-0.555268
C22	C	-1.227459	0.550010	-0.772372
C23	C	-1.221383	0.555411	-0.872606
C24	C	-1.475370	0.551681	-0.551472
C25	C	-1.574939	0.557795	-0.557571
C26	C	-0.708277	0.627234	-0.626831
C27	C	-0.614720	0.621514	-0.621125
C28	C	-0.628723	0.499789	-0.499719
C29	C	-0.722281	0.505509	-0.505424
C30	C	-0.762054	0.569235	-0.568981
C31	C	-0.855613	0.574958	-0.574682
C32	C	-0.869615	0.453230	-0.453280
C33	C	-0.776058	0.447510	-0.447575
C34	C	-1.256131	0.302127	-0.524476
C35	C	-1.262274	0.201896	-0.519070
C36	C	-1.331634	1.060998	-0.457284
C37	C	-1.325950	1.155181	-0.462402
C38	C	-1.204279	1.154420	-0.570626
C39	C	-1.209963	1.060237	-0.565508
C40	C	-1.273642	1.013529	-0.508834
C41	C	-1.279321	0.919343	-0.503712
C42	C	-1.157655	0.918584	-0.611940
C43	C	-1.151970	1.012768	-0.617058
C44	C	-1.331614	0.457236	-1.061752
C45	C	-1.325908	0.462308	-1.155930
C46	C	-1.204264	0.570623	-1.155141
C47	C	-1.209969	0.565551	-1.060963
C48	C	-1.273647	0.508856	-1.014272
C49	C	-1.279356	0.503789	-0.920093
C50	C	-1.157708	0.612099	-0.919305
C51	C	-1.152002	0.617171	-1.013483
C52	C	-1.255972	0.524646	-0.302864
C53	C	-1.262236	0.519001	-0.202628
H54	H	-0.887995	0.626848	-0.626432
H55	H	-0.596323	0.447902	-0.447979
H56	H	-1.373175	1.193828	-0.420427
H57	H	-1.152440	1.192467	-0.616773
H58	H	-1.100127	1.050810	-0.663202
O59	O	-1.101412	0.872336	-0.661989
C60	C	-1.056201	0.726900	-0.702022
C61	C	-1.119965	0.779165	-0.645314
H62	H	-1.071165	0.651561	-0.688545
H63	H	-1.066348	0.750189	-0.776731
H64	H	-0.983830	0.740262	-0.682721
H65	H	-1.192360	0.765828	-0.664536
H66	H	-1.109739	0.755868	-0.570618
H67	H	-1.331207	0.457627	-0.882079
H68	H	-1.152420	0.616780	-1.193173
O69	O	-1.393561	0.402304	-1.016366
C70	C	-1.521658	0.391873	-0.916743
C71	C	-1.451567	0.454187	-0.968110
H72	H	-1.568563	0.433793	-0.877700
H73	H	-1.562181	0.355871	-0.966823
H74	H	-1.486074	0.339803	-0.867626
H75	H	-1.487079	0.506308	-1.017227
H76	H	-1.411049	0.490123	-0.917978
O77	O	-1.382313	0.412135	-1.201917
C78	C	-1.503533	0.304124	-1.192753
C79	C	-1.439723	0.360915	-1.140564
H80	H	-1.549952	0.262684	-1.143170
H81	H	-1.545233	0.350732	-1.241923
H82	H	-1.462603	0.256864	-1.231809
H83	H	-1.480583	0.408182	-1.101456
H84	H	-1.398020	0.314254	-1.091448
O85	O	-1.090227	0.672225	-1.058985
C86	C	-1.027487	0.728000	-1.203716
C87	C	-1.097502	0.665628	-1.152302
H88	H	-1.033332	0.722674	-1.279170
H89	H	-1.039886	0.800705	-1.190157
H90	H	-0.957357	0.706746	-1.179867
H91	H	-1.167659	0.686801	-1.176121
H92	H	-1.085024	0.592937	-1.165862
H93	H	-0.740661	0.679126	-0.678577
H94	H	-0.570938	0.668742	-0.668234
H95	H	-1.110509	0.654134	-0.880636
H96	H	-0.743661	0.395624	-0.395831
O97	O	-0.921987	0.396927	-0.397175
C98	C	-1.072322	0.351838	-0.352109
C99	C	-1.013118	0.415633	-0.415719
H100	H	-1.146014	0.366951	-0.367066
H101	H	-1.057475	0.278864	-0.363011
H102	H	-1.057298	0.362510	-0.279104
H103	H	-1.028108	0.405041	-0.488747
H104	H	-1.027976	0.488584	-0.404738
H105	H	-1.383478	1.022967	-0.411132
O106	O	-1.341253	0.874112	-0.448645
C107	C	-1.461299	0.884808	-0.341804
C108	C	-1.391215	0.936142	-0.404145
H109	H	-1.501699	0.934936	-0.305794
H110	H	-1.508318	0.845785	-0.383675
H111	H	-1.425715	0.835682	-0.289740
H112	H	-1.426723	0.985313	-0.456220
H113	H	-1.344201	0.975105	-0.362215
