data_functionalizedCrystal
_audit_creation_method	'MofGen! by Chris Wilmer'
_symmetry_space_group_name_H-M	'P1'
_symmetry_Int_Tables_number	1
_symmetry_cell_setting	triclinic
loop_
_symmetry_equiv_pos_as_xyz
  x,y,z
_cell_length_a	15.944551
_cell_length_b	16.956984
_cell_length_c	16.053802
_cell_angle_alpha	87.610701
_cell_angle_beta	87.429376
_cell_angle_gamma	100.223922
loop_
_atom_site_label
_atom_site_type_symbol
_atom_site_fract_x
_atom_site_fract_y
_atom_site_fract_z
O1	O	-0.031032	1.061405	-0.069430
O2	O	-0.060522	0.829249	-0.069429
O3	O	0.076939	0.951667	-0.069435
O4	O	-0.168493	0.938987	-0.069425
O5	O	0.069402	0.944929	0.069425
O6	O	-0.068059	0.822511	0.069430
O7	O	-0.038569	1.054667	0.069429
Zn8	Zn	-0.054510	0.937519	0.091477
Zn9	Zn	-0.044580	0.946397	-0.091477
O10	O	-0.176030	0.932249	0.069435
C11	C	-0.065801	0.796172	0.000001
C12	C	-0.070290	0.707651	0.000001
C13	C	0.004776	0.675563	-0.000000
C14	C	0.000553	0.592388	-0.000006
C15	C	-0.078738	0.541303	-0.000005
C16	C	-0.153809	0.573396	-0.000006
C17	C	-0.149585	0.656570	-0.000006
C18	C	-0.099647	0.291532	-0.000010
C19	C	-0.103866	0.208353	-0.000007
C20	C	0.050497	0.227351	-0.000009
C21	C	0.054714	0.310525	-0.000004
C22	C	-0.020358	0.342611	-0.000010
N23	N	-0.083057	0.456285	-0.000008
N24	N	-0.016038	0.427628	-0.000012
C25	C	-0.203518	0.936144	0.000006
C26	C	-0.296655	0.937722	0.000010
C27	C	-0.505975	1.017375	-0.000004
C28	C	-0.573278	0.977065	0.068462
C29	C	-0.467182	0.940577	0.000002
C30	C	-0.565834	0.983690	-0.068442
C31	C	-0.631902	0.943341	-0.000009
C32	C	-0.533261	0.900243	0.068525
C33	C	-0.525807	0.906882	-0.068441
C34	C	-0.593097	0.866516	0.000041
C35	C	-0.372291	0.938987	0.000009
C36	C	-0.726793	0.944925	-0.000010
C37	C	0.104428	0.947772	-0.000008
C38	C	0.197565	0.946194	-0.000017
C39	C	-0.033290	1.087744	-0.000003
C40	C	-0.028800	1.176265	-0.000008
N41	N	-0.061287	0.931466	0.216337
N42	N	-0.037797	0.952456	-0.216337
C43	C	-0.002815	0.983574	0.260029
C44	C	-0.007563	0.979347	0.347436
C45	C	-0.070786	0.923015	0.391149
C46	C	-0.129261	0.870902	0.347452
C47	C	-0.124509	0.875125	0.260046
C48	C	-0.091519	0.904566	0.652560
C49	C	-0.096268	0.900348	0.739971
C50	C	0.025431	1.008793	0.739949
C51	C	0.030174	1.013015	0.652542
C52	C	-0.028297	0.960898	0.608852
N53	N	-0.075642	0.918695	0.480493
N54	N	-0.023437	0.965215	0.519510
H55	H	-0.168438	0.166760	-0.000002
H56	H	-0.580524	1.018995	-0.126321
C57	C	-0.643258	0.781467	-0.000089
C58	C	-0.690135	0.772929	-0.071872
C59	C	-0.736342	0.694592	-0.072024
H60	H	-0.681152	0.771065	0.048049
H61	H	-0.604905	0.744519	0.000347
H62	H	-0.728485	0.809867	-0.072300
H63	H	-0.652263	0.783315	-0.120021
H64	H	-0.697988	0.657643	-0.071588
H65	H	-0.774230	0.684197	-0.023883
H66	H	-0.768147	0.688786	-0.120731
C67	C	0.065722	1.044793	0.212505
C68	C	0.027101	1.096048	0.162300
C69	C	0.090222	1.152442	0.118511
H70	H	0.100574	1.017814	0.178365
H71	H	0.099882	1.075270	0.251004
H72	H	-0.007044	1.065575	0.123806
H73	H	-0.007745	1.123046	0.196419
H74	H	0.124381	1.182919	0.157009
H75	H	0.125070	1.125456	0.084376
H76	H	0.064026	1.187230	0.084448
C77	C	0.082038	0.557517	-0.000180
C78	C	0.088019	0.513813	-0.071634
C79	C	0.163082	0.481690	-0.071831
H80	H	0.081056	0.523061	0.048184
H81	H	0.129888	0.599837	-0.000223
H82	H	0.040181	0.471499	-0.071584
H83	H	0.089016	0.548251	-0.120010
H84	H	0.210932	0.524009	-0.071874
H85	H	0.162092	0.447237	-0.023464
H86	H	0.167153	0.452039	-0.120316
C87	C	0.089002	1.065235	0.787432
C88	C	0.134782	1.020331	0.837608
C89	C	0.193364	1.072297	0.881353
H90	H	0.059317	1.096798	0.821588
H91	H	0.127385	1.099376	0.748908
H92	H	0.096405	0.986204	0.876128
H93	H	0.164485	0.988770	0.803472
H94	H	0.231746	1.106438	0.842828
H95	H	0.163671	1.103858	0.915504
H96	H	0.224438	1.041838	0.915396
H97	H	-0.504792	0.877237	-0.126326
C98	C	0.131905	0.192361	-0.000055
C99	C	0.111241	0.108589	-0.000076
C100	C	0.186217	0.076330	-0.000133
H101	H	0.161742	0.207456	0.048353
H102	H	0.166941	0.212201	-0.048500
H103	H	0.076220	0.088756	0.048364
H104	H	0.081416	0.093471	-0.048480
H105	H	0.221252	0.096171	-0.048579
H106	H	0.216048	0.091432	0.048275
H107	H	0.172207	0.019489	-0.000156
C108	C	-0.198028	0.809781	0.394800
C109	C	-0.278525	0.823722	0.373510
C110	C	-0.341896	0.767426	0.417099
H111	H	-0.192611	0.814668	0.453127
H112	H	-0.191837	0.757243	0.380470
H113	H	-0.284715	0.876246	0.387847
H114	H	-0.283970	0.818828	0.315191
H115	H	-0.335704	0.714888	0.402769
H116	H	-0.336470	0.772317	0.475424
H117	H	-0.396520	0.776872	0.402655
H118	H	0.040050	1.021777	0.383009
H119	H	0.081656	1.058884	0.616952
C120	C	-0.164941	0.839093	0.787284
C121	C	-0.215115	0.794337	0.730315
C122	C	-0.278371	0.737896	0.773868
H123	H	-0.199879	0.866028	0.821376
H124	H	-0.138874	0.804218	0.821372
H125	H	-0.241181	0.829206	0.696241
H126	H	-0.180201	0.767384	0.696221
H127	H	-0.252303	0.703022	0.807957
H128	H	-0.313302	0.764837	0.807959
H129	H	-0.312416	0.707517	0.735222
H130	H	-0.468243	1.081118	0.000063
H131	H	-0.218369	0.531796	-0.000010
C132	C	-0.188021	0.818685	0.212499
C133	C	-0.233774	0.863583	0.162287
C134	C	-0.292280	0.811614	0.118468
H135	H	-0.226435	0.784513	0.250954
H136	H	-0.158253	0.787155	0.178366
H137	H	-0.263541	0.895100	0.196418
H138	H	-0.195383	0.897753	0.123817
H139	H	-0.262511	0.780084	0.084335
H140	H	-0.330688	0.777445	0.156929
H141	H	-0.323324	0.842070	0.084388
H142	H	-0.210712	0.682694	-0.000001
C143	C	0.090833	0.731054	0.000168
C144	C	0.093903	0.775878	0.071618
C145	C	0.173171	0.826993	0.071805
H146	H	0.098400	0.766317	-0.048198
H147	H	0.134957	0.700053	0.000210
H148	H	0.049792	0.806876	0.071570
H149	H	0.086351	0.740636	0.119997
H150	H	0.217295	0.795992	0.071846
H151	H	0.180732	0.862251	0.023435
H152	H	0.175268	0.857407	0.120286
H153	H	-0.139131	0.862132	0.616994
H154	H	-0.518671	0.864975	0.126470
H155	H	0.119280	0.352114	-0.000002
H156	H	-0.160775	0.317646	-0.000019
H157	H	-0.594270	1.006738	0.126345
