data_functionalizedCrystal
_audit_creation_method	'MofGen! by Chris Wilmer'
_symmetry_space_group_name_H-M	'P1'
_symmetry_Int_Tables_number	1
_symmetry_cell_setting	triclinic
loop_
_symmetry_equiv_pos_as_xyz
  x,y,z
_cell_length_a	19.805407
_cell_length_b	16.959453
_cell_length_c	19.805399
_cell_angle_alpha	89.973285
_cell_angle_beta	89.975799
_cell_angle_gamma	90.019234
loop_
_atom_site_label
_atom_site_type_symbol
_atom_site_fract_x
_atom_site_fract_y
_atom_site_fract_z
Zn1	Zn	1.034766	-0.314716	-0.382807
Zn2	Zn	1.034693	-0.446898	-0.269621
Zn3	Zn	0.921581	-0.314736	-0.269623
Zn4	Zn	0.921557	-0.446854	-0.382758
O5	O	0.978149	-0.380801	-0.326202
O6	O	1.129473	-0.332260	-0.367812
O7	O	1.019668	-0.429393	-0.174904
O8	O	0.936635	-0.204122	-0.284658
O9	O	1.129420	-0.429374	-0.284655
O10	O	1.019792	-0.204107	-0.367814
O11	O	0.936565	-0.332294	-0.174906
O12	O	0.826861	-0.332252	-0.284611
O13	O	0.936595	-0.429299	-0.477481
O14	O	0.826843	-0.429319	-0.367731
O15	O	1.019769	-0.332217	-0.477517
O16	O	1.019645	-0.557503	-0.284607
O17	O	0.936524	-0.557471	-0.367729
C18	C	0.802293	-0.380783	-0.326166
C19	C	0.727061	-0.380795	-0.326167
C20	C	0.265279	-0.431439	-0.369458
C21	C	0.335967	-0.431437	-0.369444
C22	C	0.371299	-0.380820	-0.326229
C23	C	0.335940	-0.330206	-0.283020
C24	C	0.265252	-0.330212	-0.283032
C25	C	0.621013	-0.330182	-0.282972
C26	C	0.691705	-0.330179	-0.282966
C27	C	0.691728	-0.431407	-0.369385
C28	C	0.621041	-0.431413	-0.369396
C29	C	0.585687	-0.380803	-0.326186
C30	C	0.509038	-0.380806	-0.326201
C31	C	0.447947	-0.380812	-0.326217
C32	C	0.978093	-0.586167	-0.326177
C33	C	0.978131	-0.674024	-0.326190
C34	C	1.021504	-1.045433	-0.369583
C35	C	0.934983	-1.045566	-0.282922
C36	C	0.934958	-0.963020	-0.282906
C37	C	0.978206	-0.921677	-0.326231
C38	C	1.021479	-0.962880	-0.369571
C39	C	0.891681	-0.921811	-0.239572
C40	C	0.891653	-0.839260	-0.239555
C41	C	0.934905	-0.797915	-0.282877
C42	C	0.978181	-0.839123	-0.326218
C43	C	1.021429	-0.797780	-0.369542
C44	C	1.064708	-0.838987	-0.412881
C45	C	1.064731	-0.921535	-0.412892
C46	C	0.934882	-0.715367	-0.282865
C47	C	1.021404	-0.715227	-0.369530
C48	C	1.154692	-0.380819	-0.326239
C49	C	1.229924	-0.380827	-0.326255
C50	C	0.978187	-0.380751	-0.502745
C51	C	0.978203	-0.380730	-0.577977
C52	C	0.978224	-0.174633	-0.326242
C53	C	0.978256	-0.086776	-0.326259
C54	C	1.021513	-0.330177	-0.613341
C55	C	1.021520	-0.330154	-0.684030
C56	C	0.978220	-0.380689	-0.719353
C57	C	0.934906	-0.431244	-0.683984
C58	C	0.934896	-0.431262	-0.613297
C59	C	0.934944	-0.431170	-0.969057
C60	C	0.934958	-0.431150	-1.039749
C61	C	1.021568	-0.330062	-1.039790
C62	C	1.021558	-0.330080	-0.969103
C63	C	0.978241	-0.380632	-0.933740
C64	C	0.978234	-0.380656	-0.857092
C65	C	0.978231	-0.380670	-0.796000
C66	C	0.978150	-0.380794	-0.150346
C67	C	0.978265	-0.380592	-0.075115
H68	H	0.592276	-0.472628	-0.404589
H69	H	0.720521	-0.472619	-0.404568
O70	O	0.729818	-0.275596	-0.236341
H71	H	0.693359	-0.240414	-0.206287
H72	H	0.899770	-1.079232	-0.247652
O73	O	1.111359	-0.794394	-0.459605
H74	H	1.081034	-0.756780	-0.494003
H75	H	1.056789	-0.288991	-0.712820
H76	H	0.592236	-0.288975	-0.247785
O77	O	0.845050	-0.966408	-0.192839
H78	H	0.810615	-1.004038	-0.223099
O79	O	0.888213	-0.670920	-0.236125
H80	H	0.858146	-0.713536	-0.206000
H81	H	0.236467	-0.288997	-0.247852
O82	O	0.374043	-0.275608	-0.236408
H83	H	0.429136	-0.284099	-0.243663
O84	O	0.227199	-0.486090	-0.416044
H85	H	0.240800	-0.472659	-0.469192
O86	O	0.888190	-0.485670	-0.930941
H87	H	0.899754	-0.547712	-0.944489
H88	H	1.056624	-0.681570	-0.404807
O89	O	1.111397	-0.965976	-0.459645
H90	H	1.104139	-1.030323	-0.452382
O91	O	0.888197	-0.485747	-0.722077
H92	H	0.895483	-0.477246	-0.777172
O93	O	1.068177	-1.089868	-0.416333
H94	H	1.060928	-1.154216	-0.409070
H95	H	1.056775	-0.289028	-0.584586
O96	O	0.374103	-0.486018	-0.416048
H97	H	0.337659	-0.521207	-0.446108
O98	O	0.844988	-0.794816	-0.192804
H99	H	0.814926	-0.837434	-0.162675
O100	O	1.068260	-0.275577	-0.931002
H101	H	1.098375	-0.240415	-0.967470
H102	H	1.056836	-0.288897	-1.068591
H103	H	0.899695	-0.472303	-1.068508
O104	O	0.888174	-0.485776	-0.575149
H105	H	0.858067	-0.520914	-0.611585
