data_functionalizedCrystal
_audit_creation_method	'MofGen! by Chris Wilmer'
_symmetry_space_group_name_H-M	'P1'
_symmetry_Int_Tables_number	1
_symmetry_cell_setting	triclinic
loop_
_symmetry_equiv_pos_as_xyz
  x,y,z
_cell_length_a	18.627054
_cell_length_b	18.627468
_cell_length_c	18.627244
_cell_angle_alpha	90.002740
_cell_angle_beta	120.002881
_cell_angle_gamma	60.000256
loop_
_atom_site_label
_atom_site_type_symbol
_atom_site_fract_x
_atom_site_fract_y
_atom_site_fract_z
O1	O	-0.633189	-0.492534	-0.021341
O2	O	-0.486192	-0.388127	0.021268
O3	O	-0.633194	-0.388133	-0.125738
O4	O	-0.486188	-0.492528	0.125665
O5	O	-0.513786	-0.507530	-0.125737
O6	O	-0.366785	-0.507524	0.021269
O7	O	-0.513782	-0.611931	-0.021340
Cu8	Cu	-0.429381	-0.570629	-0.000036
Cu9	Cu	-0.570594	-0.429429	-0.000037
O10	O	-0.366781	-0.611925	0.125666
C11	C	-0.355988	-0.387028	0.030958
C12	C	-0.406387	-0.431325	0.024865
C13	C	-0.398782	-0.300629	0.031563
C14	C	-0.225986	-0.387033	0.030952
C15	C	-0.137387	-0.431337	0.024852
C16	C	-0.268978	-0.300635	0.031557
C17	C	-0.355983	-0.257031	0.030952
C18	C	-0.406377	-0.162334	0.024854
C19	C	-0.268982	-0.430435	0.031563
C20	C	-0.773995	-0.257039	-0.387041
C21	C	-0.862600	-0.162345	-0.431343
C22	C	-0.730999	-0.300638	-0.300642
C23	C	-0.643987	-0.387035	-0.387038
C24	C	-0.593587	-0.431334	-0.431337
C25	C	-0.601189	-0.430437	-0.300639
C26	C	-0.643989	-0.387034	-0.257038
C27	C	-0.593591	-0.431331	-0.162340
C28	C	-0.730997	-0.300640	-0.430444
C29	C	-0.643975	-0.743041	-0.031045
C30	C	-0.593574	-0.837736	-0.024949
C31	C	-0.601180	-0.699436	-0.031649
C32	C	-0.773982	-0.613046	-0.031046
C33	C	-0.862585	-0.568750	-0.024952
C34	C	-0.730989	-0.569639	-0.031650
C35	C	-0.643981	-0.613039	-0.031041
C36	C	-0.593586	-0.568736	-0.024941
C37	C	-0.730984	-0.699443	-0.031655
O38	O	0.104409	-0.611949	-0.021351
O39	O	-0.104386	-0.507539	0.021255
O40	O	-0.104397	-0.507550	-0.125750
O41	O	0.104419	-0.611938	0.125654
O42	O	-0.104392	-0.388152	-0.125755
O43	O	-0.104381	-0.388141	0.021250
O44	O	0.104414	-0.492551	-0.021357
Cu45	Cu	0.000017	-0.429444	-0.000054
Cu46	Cu	0.000011	-0.570646	-0.000047
O47	O	0.104424	-0.492540	0.125648
O48	O	-0.513771	0.125660	-0.021354
O49	O	-0.366775	-0.125735	0.021251
O50	O	-0.513782	0.021256	-0.125753
O51	O	-0.366765	-0.021331	0.125650
O52	O	-0.633185	0.021260	-0.125747
O53	O	-0.486178	-0.125731	0.021257
O54	O	-0.633174	0.125665	-0.021348
Cu55	Cu	-0.570578	-0.000033	-0.000045
Cu56	Cu	-0.429371	-0.000038	-0.000052
O57	O	-0.486167	-0.021326	0.125656
O58	O	-0.486177	-0.492538	-0.611931
O59	O	-0.633189	-0.388138	-0.507541
O60	O	-0.486185	-0.388134	-0.507531
O61	O	-0.633181	-0.492542	-0.611940
O62	O	-0.366780	-0.507529	-0.388126
O63	O	-0.513784	-0.507533	-0.388135
O64	O	-0.366772	-0.611933	-0.492525
Cu65	Cu	-0.429375	-0.570635	-0.429427
Cu66	Cu	-0.570585	-0.429436	-0.570638
O67	O	-0.513776	-0.611937	-0.492534
O68	O	-1.104415	0.125646	-0.492543
O69	O	-0.895604	-0.125746	-0.388144
O70	O	-0.895609	0.021255	-0.388139
O71	O	-1.104409	-0.021355	-0.492549
O72	O	-0.895610	0.021257	-0.507541
O73	O	-0.895605	-0.125744	-0.507547
O74	O	-1.104416	0.125648	-0.611946
Cu75	Cu	-1.000011	-0.000048	-0.570649
Cu76	Cu	-1.000009	-0.000050	-0.429441
O77	O	-1.104411	-0.021353	-0.611952
C78	C	-0.225973	-0.743026	0.386966
C79	C	-0.137369	-0.837719	0.431265
C80	C	-0.268968	-0.699427	0.430372
C81	C	-0.355982	-0.613028	0.256966
C82	C	-0.406383	-0.568728	0.162267
C83	C	-0.398779	-0.569627	0.300569
C84	C	-0.355978	-0.613032	0.386968
C85	C	-0.406374	-0.568736	0.431270
C86	C	-0.268972	-0.699424	0.300566
C87	C	-0.356012	-0.257060	-0.387057
C88	C	-0.406407	-0.162366	-0.431359
C89	C	-0.398815	-0.300660	-0.430460
C90	C	-0.226007	-0.387054	-0.257053
C91	C	-0.137400	-0.431351	-0.162355
C92	C	-0.269007	-0.430457	-0.300653
C93	C	-0.356019	-0.387055	-0.387053
C94	C	-0.406423	-0.431354	-0.431352
C95	C	-0.269000	-0.300659	-0.300657
C96	C	0.356047	-0.613037	0.386953
C97	C	0.406451	-0.568739	0.431252
C98	C	0.398842	-0.699432	0.430359
C99	C	0.226034	-0.613037	0.256952
C100	C	0.137427	-0.568739	0.162253
C101	C	0.269027	-0.699432	0.300555
C102	C	0.356038	-0.743032	0.386955
C103	C	0.406433	-0.837725	0.431257
C104	C	0.269035	-0.569635	0.300553
C105	C	-0.773982	0.030913	-0.387042
C106	C	-0.862583	0.024812	-0.431337
C107	C	-0.730987	0.031510	-0.430448
C108	C	-0.643981	0.030932	-0.257047
C109	C	-0.593584	0.024851	-0.162352
C110	C	-0.601183	0.031529	-0.300651
C111	C	-0.643980	0.030907	-0.387048
C112	C	-0.593583	0.024800	-0.431350
C113	C	-0.730988	0.031535	-0.300645
O114	O	-0.633225	0.125629	-0.611956
O115	O	-0.486214	-0.125767	-0.507562
O116	O	-0.633207	0.021225	-0.507549
O117	O	-0.486232	-0.021362	-0.611970
O118	O	-0.513794	0.021226	-0.388148
O119	O	-0.366800	-0.125765	-0.388161
O120	O	-0.513812	0.125630	-0.492555
Cu121	Cu	-0.429403	-0.000068	-0.429456
Cu122	Cu	-0.570623	-0.000069	-0.570662
O123	O	-0.366818	-0.021361	-0.492569
C124	C	-0.355968	-0.030980	0.386952
C125	C	-0.406364	-0.024876	0.431254
C126	C	-0.268963	-0.031581	0.430351
C127	C	-0.355968	-0.031002	0.256950
C128	C	-0.406366	-0.024921	0.162255
C129	C	-0.268963	-0.031603	0.300547
C130	C	-0.225969	-0.030981	0.386944
C131	C	-0.137370	-0.024877	0.431238
C132	C	-0.398765	-0.031602	0.300555
H133	H	-0.232984	-0.265638	0.032538
H134	H	-0.232978	-0.032553	0.501341
H135	H	-0.766980	0.032485	-0.501439
O136	O	-0.225897	-0.259031	-0.258846
C137	C	-0.125421	-0.306065	-0.234522
H138	H	-0.096206	-0.377413	-0.229865
H139	H	-0.123711	-0.275292	-0.286049
C140	C	-0.093325	-0.215001	-0.150359
C141	C	-0.057439	-0.302634	-0.144632
H142	H	-0.051390	-0.212882	-0.094912
H143	H	-0.161018	-0.183310	-0.166748
H144	H	-0.091898	-0.189367	-0.193301
H145	H	-0.058878	-0.328263	-0.101698
H146	H	0.010256	-0.334329	-0.128233
O147	O	0.225933	-0.484912	0.258732
C148	C	0.125457	-0.431474	0.234407
H149	H	0.096245	-0.473608	0.229763
H150	H	0.123745	-0.398974	0.285926
C151	C	0.093354	-0.308333	0.150220
C152	C	0.057472	-0.360083	0.144508
H153	H	0.051418	-0.264293	0.094768
H154	H	0.161048	-0.344334	0.166610
H155	H	0.091926	-0.281259	0.193156
H156	H	0.058913	-0.387164	0.101581
H157	H	-0.010223	-0.324084	0.128109
H158	H	0.233034	-0.734433	0.265546
O159	O	-0.517572	-0.741145	-0.032690
C160	C	-0.437428	-0.745519	0.042654
H161	H	-0.469844	-0.691306	0.068584
H162	H	-0.386167	-0.812287	0.095478
C163	C	-0.335528	-0.799925	-0.013276
C164	C	-0.375342	-0.733334	0.018568
H165	H	-0.297227	-0.792413	-0.028131
H166	H	-0.389520	-0.796981	-0.064035
H167	H	-0.292817	-0.855559	0.030750
H168	H	-0.418062	-0.677703	-0.025460
H169	H	-0.321355	-0.736269	0.069320
H170	H	-0.233006	-0.501423	0.032540
O171	O	-0.773906	-0.484915	-0.032932
C172	C	-0.803028	-0.431469	-0.109080
H173	H	-0.756240	-0.473596	-0.133644
H174	H	-0.887044	-0.398983	-0.162318
C175	C	-0.842016	-0.308326	-0.056993
C176	C	-0.784544	-0.360065	-0.087158
H177	H	-0.830620	-0.264277	-0.043473
H178	H	-0.822400	-0.344331	-0.005692
H179	H	-0.912025	-0.281262	-0.101363
H180	H	-0.714537	-0.387136	-0.042785
H181	H	-0.804148	-0.324062	-0.138452
O182	O	-0.517555	0.032545	-0.258879
C183	C	-0.437420	-0.042771	-0.254532
H184	H	-0.451025	-0.096397	-0.260184
H185	H	-0.433798	-0.025436	-0.310795
C186	C	-0.319690	-0.010155	-0.159205
C187	C	-0.336395	-0.076021	-0.166140
H188	H	-0.257372	-0.030664	-0.104683
H189	H	-0.373679	0.040589	-0.162136
H190	H	-0.316677	0.004285	-0.206096
H191	H	-0.339420	-0.090452	-0.119256
H192	H	-0.282404	-0.126768	-0.163199
O193	O	-0.482369	-0.032652	0.258841
C194	C	-0.562530	0.042699	0.254429
H195	H	-0.530134	0.068651	0.308633
H196	H	-0.613778	0.095501	0.187649
C197	C	-0.664418	-0.013246	0.200026
C198	C	-0.624629	0.018623	0.266605
H199	H	-0.702727	-0.028096	0.207533
H200	H	-0.610414	-0.064011	0.202995
H201	H	-0.707118	0.030761	0.144382
H202	H	-0.581920	-0.025388	0.322246
H203	H	-0.678627	0.069380	0.263646
O204	O	-0.517550	-0.515069	-0.258884
C205	C	-0.437413	-0.519828	-0.254476
H206	H	-0.469841	-0.461503	-0.308717
H207	H	-0.386219	-0.518194	-0.187718
C208	C	-0.335400	-0.677654	-0.199950
C209	C	-0.375228	-0.606022	-0.266575
H210	H	-0.297037	-0.730824	-0.207409
H211	H	-0.389388	-0.674449	-0.202916
H212	H	-0.292744	-0.676281	-0.144325
H213	H	-0.417892	-0.607390	-0.322197
H214	H	-0.321245	-0.609230	-0.263618
O215	O	-0.773892	-0.258759	-0.515084
C216	C	-0.774264	-0.183022	-0.519854
H217	H	-0.770169	-0.161207	-0.461524
H218	H	-0.705887	-0.198573	-0.518237
C219	C	-0.877597	-0.135547	-0.677688
C220	C	-0.872576	-0.108748	-0.606049
H221	H	-0.938238	-0.089732	-0.730858
H222	H	-0.877344	-0.186574	-0.674474
H223	H	-0.820611	-0.148506	-0.676328
H224	H	-0.929555	-0.095800	-0.607404
H225	H	-0.872841	-0.057717	-0.609265
H226	H	-0.468840	-0.265649	-0.501446
O227	O	-0.226113	-0.515175	-0.259027
C228	C	-0.197007	-0.568626	-0.306060
H229	H	-0.243783	-0.526498	-0.377409
H230	H	-0.112986	-0.601137	-0.275275
C231	C	-0.158074	-0.691745	-0.215010
C232	C	-0.215532	-0.640004	-0.302644
H233	H	-0.169496	-0.735777	-0.212900
H234	H	-0.177679	-0.655736	-0.183321
H235	H	-0.088062	-0.718829	-0.189366
H236	H	-0.285543	-0.612913	-0.328283
H237	H	-0.195939	-0.676010	-0.334338
O238	O	-0.225988	-0.741064	0.515116
C239	C	-0.196954	-0.693965	0.568512
H240	H	-0.186298	-0.652397	0.535248
H241	H	-0.258517	-0.649304	0.578451
C242	C	-0.109557	-0.810050	0.699200
C243	C	-0.096461	-0.759001	0.658349
H244	H	-0.047572	-0.850166	0.754618
H245	H	-0.129121	-0.841781	0.663228
H246	H	-0.160863	-0.772823	0.707474
H247	H	-0.045166	-0.796227	0.650065
H248	H	-0.076887	-0.727278	0.694322
H249	H	-0.766958	-0.734457	-0.032627
O250	O	-0.225924	-0.741153	0.258877
C251	C	-0.125421	-0.765539	0.305927
H252	H	-0.117044	-0.721669	0.347544
H253	H	-0.070817	-0.837058	0.350539
C254	C	-0.111001	-0.808709	0.189726
C255	C	-0.100715	-0.754822	0.240835
H256	H	-0.095758	-0.802102	0.149575
H257	H	-0.178710	-0.792283	0.158028
H258	H	-0.065497	-0.868303	0.226912
H259	H	-0.146227	-0.695228	0.203650
H260	H	-0.033012	-0.771237	0.272525
O261	O	0.482505	-0.741247	0.514984
C262	C	0.562629	-0.745613	0.519755
H263	H	0.548949	-0.739907	0.452495
H264	H	0.566326	-0.689393	0.540763
C265	C	0.680440	-0.841041	0.670058
C266	C	0.663642	-0.834041	0.587449
H267	H	0.742751	-0.895585	0.711817
H268	H	0.626459	-0.838097	0.666845
H269	H	0.683515	-0.794186	0.687552
H270	H	0.660555	-0.880889	0.569952
H271	H	0.717625	-0.836995	0.590661
O272	O	-0.482203	-0.484894	0.258837
C273	C	-0.459548	-0.431439	0.234449
H274	H	-0.374061	-0.464673	0.278321
H275	H	-0.486458	-0.421452	0.162927
C276	C	-0.618924	-0.300826	0.191276
C277	C	-0.513929	-0.341641	0.245165
H278	H	-0.652472	-0.245433	0.197882
H279	H	-0.634190	-0.336839	0.207703
H280	H	-0.641335	-0.292511	0.131679
H281	H	-0.491518	-0.349965	0.304761
H282	H	-0.498660	-0.305627	0.228749
H283	H	-0.766972	0.032516	-0.265639
H284	H	-0.232986	-0.032583	0.265535
H285	H	-0.468788	-0.265627	0.032551
H286	H	-0.766990	-0.265631	-0.265641
