data_functionalizedCrystal
_audit_creation_method	'MofGen! by Chris Wilmer'
_symmetry_space_group_name_H-M	'P1'
_symmetry_Int_Tables_number	1
_symmetry_cell_setting	triclinic
loop_
_symmetry_equiv_pos_as_xyz
  x,y,z
_cell_length_a	14.853567
_cell_length_b	11.792241
_cell_length_c	13.930277
_cell_angle_alpha	89.995317
_cell_angle_beta	89.995755
_cell_angle_gamma	83.914173
loop_
_atom_site_label
_atom_site_type_symbol
_atom_site_fract_x
_atom_site_fract_y
_atom_site_fract_z
O1	O	1.196945	0.148181	-0.079765
O2	O	0.934554	0.165833	-0.079782
O3	O	1.072117	-0.008203	-0.079766
O4	O	1.059382	0.322217	-0.079780
O5	O	1.072098	-0.008206	0.079896
O6	O	0.934535	0.165829	0.079880
O7	O	1.196926	0.148177	0.079897
Zn8	Zn	1.065728	0.157003	0.105238
Zn9	Zn	1.065753	0.157008	-0.105123
O10	O	1.059363	0.322213	0.079881
C11	C	0.900953	0.165032	0.000047
C12	C	0.800860	0.162635	0.000041
C13	C	1.071308	-0.050491	0.000064
C14	C	1.068913	-0.176489	0.000063
C15	C	0.387884	0.049122	0.000068
C16	C	0.367408	0.255880	0.000058
C17	C	0.461451	0.258134	0.000055
C18	C	0.518715	0.155880	0.000056
C19	C	0.481936	0.051372	0.000062
C20	C	0.498237	0.362640	0.000040
C21	C	0.592285	0.364898	0.000035
C22	C	0.649550	0.262642	0.000044
C23	C	0.612766	0.158131	0.000050
C24	C	0.670030	0.055877	0.000052
C25	C	0.633248	-0.048637	0.000065
C26	C	0.539201	-0.050883	0.000070
C27	C	0.743596	0.264889	0.000039
C28	C	0.764081	0.058127	0.000046
C29	C	1.064511	-0.407174	0.000047
C30	C	1.066957	-0.278804	0.000056
C31	C	1.230527	0.148979	0.000066
C32	C	1.330621	0.151376	0.000066
C33	C	1.060173	0.364501	0.000049
C34	C	1.062567	0.490500	0.000044
N35	N	1.065717	0.156999	0.248804
N36	N	1.065771	0.157003	-0.248689
C37	C	1.004838	0.234041	0.701067
C38	C	1.126693	0.079966	0.701050
C39	C	1.126682	0.079963	0.600554
C40	C	1.065749	0.157000	0.550310
C41	C	1.004827	0.234042	0.600562
C42	C	1.187610	0.002930	0.550295
C43	C	1.187602	0.002925	0.449793
C44	C	1.126664	0.079958	0.399547
C45	C	1.065738	0.157001	0.449805
C46	C	1.004805	0.234039	0.399561
C47	C	0.943875	0.311078	0.449817
C48	C	0.943889	0.311075	0.550316
C49	C	1.126650	0.079961	0.299048
C50	C	1.004794	0.234040	0.299056
H51	H	0.810700	-0.025142	0.000052
C52	C	0.783707	0.378231	-0.000022
C53	C	0.878325	0.358319	-0.000045
C54	C	0.915303	0.462709	-0.000112
H55	H	0.764183	0.420429	0.055637
H56	H	0.764141	0.420347	-0.055726
H57	H	0.897882	0.316221	0.055653
H58	H	0.897873	0.316139	-0.055700
H59	H	0.895738	0.504825	-0.055816
H60	H	0.895773	0.504899	0.055547
H61	H	0.979505	0.449213	-0.000137
C62	C	1.192697	-0.003800	0.755654
C63	C	1.144336	-0.073398	0.813350
C64	C	1.205107	-0.150591	0.863661
H65	H	1.230449	0.036983	0.794927
H66	H	1.228966	-0.049754	0.711366
H67	H	1.108082	-0.027450	0.857632
H68	H	1.106587	-0.114206	0.774101
H69	H	1.241376	-0.196545	0.819374
H70	H	1.242855	-0.109798	0.902928
H71	H	1.172303	-0.197829	0.902807
C72	C	0.877848	0.394669	0.605054
C73	C	0.890922	0.378202	0.703820
C74	C	0.830114	0.455200	0.754277
H75	H	0.817578	0.382283	0.588719
H76	H	0.888014	0.470464	0.588629
H77	H	0.880748	0.302424	0.720238
H78	H	0.951179	0.390597	0.720183
H79	H	0.840280	0.530995	0.737852
H80	H	0.769848	0.442808	0.737934
H81	H	0.838981	0.444045	0.821294
C82	C	0.938597	0.317812	0.244682
C83	C	0.885259	0.385291	0.310207
C84	C	0.824277	0.462483	0.260154
H85	H	0.900785	0.277030	0.205481
H86	H	0.971229	0.365201	0.205492
H87	H	0.852629	0.337907	0.349381
H88	H	0.923047	0.426097	0.349411
H89	H	0.856910	0.509872	0.220964
H90	H	0.786472	0.421692	0.220954
H91	H	0.788086	0.508283	0.304605
H92	H	1.237224	-0.059786	0.591207
H93	H	0.451606	0.445889	0.000028
C94	C	1.253786	-0.080849	0.395408
C95	C	1.307134	-0.148332	0.460921
C96	C	1.368101	-0.225529	0.410855
H97	H	1.291592	-0.040071	0.356184
H98	H	1.221142	-0.128235	0.356238
H99	H	1.339776	-0.100952	0.500074
H100	H	1.269353	-0.189135	0.500147
H101	H	1.335458	-0.272915	0.371686
H102	H	1.405901	-0.184741	0.371633
H103	H	1.404300	-0.271332	0.455298
C104	C	1.192923	-0.003473	0.244448
C105	C	1.248403	0.057142	0.186767
C106	C	1.309484	-0.019678	0.136472
H107	H	1.160393	-0.050847	0.205167
H108	H	1.229268	-0.049319	0.288746
H109	H	1.212062	0.102967	0.142474
H110	H	1.280953	0.104511	0.226024
H111	H	1.345829	-0.065524	0.180770
H112	H	1.276947	-0.067048	0.097197
H113	H	1.347140	0.021437	0.097337
C114	C	0.695575	-0.159530	0.000114
C115	C	0.785807	-0.135179	0.000123
C116	C	0.843251	-0.237302	0.000179
H117	H	0.684488	-0.202461	-0.055543
H118	H	0.684431	-0.202386	0.055819
H119	H	0.796947	-0.092342	-0.055577
H120	H	0.796922	-0.092265	0.055776
H121	H	0.832107	-0.280157	0.055885
H122	H	0.832156	-0.280225	-0.055479
H123	H	0.904479	-0.220794	0.000194
C124	C	0.499091	-0.164230	0.000028
C125	C	0.404474	-0.144312	0.000003
C126	C	0.367490	-0.248698	-0.000052
H127	H	0.518605	-0.206430	0.055692
H128	H	0.518662	-0.206347	-0.055671
H129	H	0.384911	-0.102213	0.055696
H130	H	0.384934	-0.102130	-0.055657
H131	H	0.387061	-0.290815	-0.055751
H132	H	0.387011	-0.290890	0.055612
H133	H	0.303289	-0.235197	-0.000078
H134	H	0.357932	-0.035970	0.000082
H135	H	0.320779	0.339131	0.000048
H136	H	0.622224	0.449998	0.000025
H137	H	0.894266	0.373808	0.408897
H138	H	0.955226	0.296762	0.741988
