data_functionalizedCrystal
_audit_creation_method	'MofGen! by Chris Wilmer'
_symmetry_space_group_name_H-M	'P1'
_symmetry_Int_Tables_number	1
_symmetry_cell_setting	triclinic
loop_
_symmetry_equiv_pos_as_xyz
  x,y,z
_cell_length_a	16.959454
_cell_length_b	19.077105
_cell_length_c	19.076919
_cell_angle_alpha	90.076224
_cell_angle_beta	87.724511
_cell_angle_gamma	92.283412
loop_
_atom_site_label
_atom_site_type_symbol
_atom_site_fract_x
_atom_site_fract_y
_atom_site_fract_z
Zn1	Zn	-0.382399	-1.058295	0.440440
Zn2	Zn	-0.509490	-1.062944	0.322940
Zn3	Zn	-0.371810	-0.945513	0.318233
Zn4	Zn	-0.509013	-0.940765	0.435693
O5	O	-0.443178	-1.001879	0.379326
O6	O	-0.403889	-1.157244	0.428810
O7	O	-0.486995	-1.051298	0.223984
O8	O	-0.262606	-0.960515	0.334460
O9	O	-0.497262	-1.160659	0.342484
O10	O	-0.270386	-1.043376	0.424245
O11	O	-0.385842	-0.965022	0.220526
O12	O	-0.385379	-0.846551	0.329857
O13	O	-0.496450	-0.952424	0.534654
O14	O	-0.486182	-0.843063	0.416155
O15	O	-0.403426	-1.038773	0.538142
O16	O	-0.620035	-1.046695	0.337881
O17	O	-0.619685	-0.956931	0.420720
C18	C	-0.434581	-0.819311	0.371980
C19	C	-0.430922	-0.741206	0.368854
C20	C	-0.648541	-1.001821	0.379312
C21	C	-0.736400	-1.001859	0.379332
C22	C	-0.451066	-0.994550	0.562607
C23	C	-0.454427	-0.991427	0.640710
C24	C	-1.107727	-0.955205	0.422458
C25	C	-1.108038	-1.048747	0.336274
C26	C	-1.025491	-1.048723	0.336266
C27	C	-0.984058	-1.001938	0.379355
C28	C	-1.025172	-0.955178	0.422451
C29	C	-0.984370	-1.095477	0.293166
C30	C	-0.901818	-1.095454	0.293156
C31	C	-0.860383	-1.048672	0.336249
C32	C	-0.901503	-1.001911	0.379347
C33	C	-0.860069	-0.955126	0.422436
C34	C	-0.901187	-0.908367	0.465538
C35	C	-0.983737	-0.908396	0.465543
C36	C	-0.777834	-1.048644	0.336244
C37	C	-0.777514	-0.955099	0.422428
C38	C	-0.237015	-1.001956	0.379357
C39	C	-0.149160	-1.001989	0.379370
C40	C	-0.451810	-1.185161	0.386702
C41	C	-0.455488	-1.263265	0.389844
C42	C	-0.481759	-0.702718	0.412246
C43	C	-0.478312	-0.629330	0.409312
C44	C	-0.424030	-0.594433	0.362983
C45	C	-0.373188	-0.632926	0.319590
C46	C	-0.376632	-0.706312	0.322528
C47	C	-0.408090	-0.375144	0.349389
C48	C	-0.404651	-0.301753	0.346453
C49	C	-0.509774	-0.298162	0.436177
C50	C	-0.513217	-0.371550	0.439107
C51	C	-0.462372	-0.410037	0.395717
N52	N	-0.420507	-0.519419	0.359981
N53	N	-0.465892	-0.485049	0.398723
C54	C	-0.435266	-1.009220	0.196760
C55	C	-0.431688	-1.012479	0.118663
C56	C	-0.407577	-1.034915	0.679220
C57	C	-0.410731	-1.031972	0.752606
C58	C	-0.460742	-0.985544	0.787481
C59	C	-0.507595	-0.942052	0.748966
C60	C	-0.504435	-0.944992	0.675581
C61	C	-0.475381	-0.971927	1.006763
C62	C	-0.478539	-0.968992	1.080153
C63	C	-0.381674	-1.058911	1.083788
C64	C	-0.378523	-1.061850	1.010402
C65	C	-0.425372	-1.018355	0.971893
N66	N	-0.463970	-0.982536	0.862493
N67	N	-0.422140	-1.021360	0.896882
H68	H	-0.743785	-0.917003	0.457519
F69	F	-0.360894	-1.078282	0.793589
H70	H	-0.867443	-0.870272	0.500618
H71	H	-0.513541	-0.936521	0.975418
H72	H	-0.542578	-0.909572	0.644227
H73	H	-1.141209	-0.917137	0.457553
F74	F	-0.346879	-0.264614	0.297137
H75	H	-0.868345	-1.133528	0.258061
F76	F	-1.027503	-0.858635	0.511411
F77	F	-0.322523	-0.747274	0.276346
F78	F	-0.325295	-1.111265	0.973291
F79	F	-0.331815	-1.105197	1.124777
H80	H	-1.141778	-1.086833	0.301189
H81	H	-1.018111	-1.133562	0.258080
H82	H	-0.366855	-1.072724	0.650831
F83	F	-0.531766	-0.919572	1.117268
F84	F	-0.734076	-1.098398	0.290368
H85	H	-0.525964	-0.731126	0.449970
F86	F	-0.560817	-0.892637	0.786084
H87	H	-0.557420	-0.399959	0.476832
F88	F	-0.532420	-0.588371	0.455495
H89	H	-0.366694	-0.406472	0.314052
F90	F	-0.563885	-0.257197	0.482351
H91	H	-0.328988	-0.604506	0.281870
