data_functionalizedCrystal
_audit_creation_method	'MofGen! by Chris Wilmer'
_symmetry_space_group_name_H-M	'P1'
_symmetry_Int_Tables_number	1
_symmetry_cell_setting	triclinic
loop_
_symmetry_equiv_pos_as_xyz
  x,y,z
_cell_length_a	12.594517
_cell_length_b	12.594516
_cell_length_c	12.594509
_cell_angle_alpha	89.973801
_cell_angle_beta	89.978673
_cell_angle_gamma	90.015853
loop_
_atom_site_label
_atom_site_type_symbol
_atom_site_fract_x
_atom_site_fract_y
_atom_site_fract_z
Zn1	Zn	1.627267	-0.423716	-0.601875
Zn2	Zn	1.627158	-0.601726	-0.423903
Zn3	Zn	1.449271	-0.423761	-0.423904
Zn4	Zn	1.449253	-0.601652	-0.601833
O5	O	1.538237	-0.512714	-0.512879
O6	O	1.776198	-0.447341	-0.578284
O7	O	1.603522	-0.578169	-0.274957
O8	O	1.472936	-0.274809	-0.447530
O9	O	1.776118	-0.578124	-0.447528
O10	O	1.603709	-0.274776	-0.578285
O11	O	1.472830	-0.447419	-0.274958
O12	O	1.300323	-0.447347	-0.447489
O13	O	1.472905	-0.577998	-0.750784
O14	O	1.300310	-0.578042	-0.578213
O15	O	1.603691	-0.447269	-0.750815
O16	O	1.603505	-0.750662	-0.447488
O17	O	1.472799	-0.750608	-0.578212
C18	C	1.261696	-0.512692	-0.512847
C19	C	1.143391	-0.512709	-0.512859
C20	C	1.074114	-0.441526	-0.441894
C21	C	1.003303	-0.538615	-0.415718
C22	C	1.003403	-0.415668	-0.539054
C23	C	1.074138	-0.609849	-0.486632
C24	C	1.074244	-0.486836	-0.610013
C25	C	1.003465	-0.583991	-0.583874
C26	C	1.538167	-0.789255	-0.512868
C27	C	1.538235	-0.907560	-0.512899
C28	C	1.467137	-0.976822	-0.583950
C29	C	1.441204	-1.047688	-0.486827
C30	C	1.564265	-1.047494	-0.610039
C31	C	1.512250	-0.976867	-0.415725
C32	C	1.635357	-0.976667	-0.539002
C33	C	1.609460	-1.047500	-0.441812
C34	C	1.815858	-0.512736	-0.512911
C35	C	1.934163	-0.512745	-0.512924
C36	C	1.538308	-0.512620	-0.790500
C37	C	1.538339	-0.512581	-0.908805
C38	C	1.538336	-0.235093	-0.512912
C39	C	1.538378	-0.116787	-0.512927
C40	C	1.467227	-0.583644	-0.978042
C41	C	1.564347	-0.609650	-1.048833
C42	C	1.441294	-0.486510	-1.048813
C43	C	1.635510	-0.538638	-0.978038
C44	C	1.512391	-0.415453	-0.978012
C45	C	1.609579	-0.441422	-1.048772
C46	C	1.538227	-0.512730	-0.236338
C47	C	1.538403	-0.512470	-0.118033
H48	H	1.105135	-0.381389	-0.381807
H49	H	1.717406	-0.945451	-0.561104
O50	O	1.343364	-1.084962	-0.460315
C51	C	1.350816	-1.146588	-0.367129
H52	H	1.424710	-1.122379	-0.320827
H53	H	1.277359	-1.133032	-0.315991
H54	H	1.356404	-1.234182	-0.389215
H55	H	0.972639	-0.644273	-0.643914
H56	H	0.972144	-0.560522	-0.333584
H57	H	1.105429	-0.464899	-0.692122
O58	O	1.111219	-0.707726	-0.460087
C59	C	1.223161	-0.706520	-0.460357
H60	H	1.252464	-0.621683	-0.448649
H61	H	1.254022	-0.758681	-0.393121
H62	H	1.253517	-0.738221	-0.539517
O63	O	1.395434	-0.939740	-0.655650
C64	C	1.448223	-0.878048	-0.732780
H65	H	1.535418	-0.902080	-0.736147
H66	H	1.410029	-0.891727	-0.813677
H67	H	1.441909	-0.790455	-0.710889
O68	O	0.966460	-0.317667	-0.565337
C69	C	1.002434	-0.242865	-0.490255
H70	H	1.076931	-0.274339	-0.449635
H71	H	1.021545	-0.164887	-0.532108
H72	H	0.937916	-0.228881	-0.428309
H73	H	1.586329	-0.691742	-1.079941
H74	H	1.586224	-1.078518	-0.692178
O75	O	1.681129	-1.084429	-0.370001
C76	C	1.628567	-1.147507	-0.293842
H77	H	1.551158	-1.178783	-0.328783
H78	H	1.681489	-1.217162	-0.270625
H79	H	1.610552	-1.097583	-0.220535
O80	O	1.485907	-0.939841	-0.317780
C81	C	1.486130	-0.827898	-0.318953
H82	H	1.474226	-0.798558	-0.403757
H83	H	1.418996	-0.797082	-0.266642
H84	H	1.565347	-0.797534	-0.287409
H85	H	1.407136	-0.643833	-0.946986
O86	O	1.486015	-0.317632	-0.940732
C87	C	1.393868	-0.325390	-0.877593
H88	H	1.385522	-0.410037	-0.846593
H89	H	1.400256	-0.268200	-0.807751
H90	H	1.321317	-0.304206	-0.927378
O91	O	1.681283	-0.369543	-1.085636
C92	C	1.628535	-0.292379	-1.147243
H93	H	1.541292	-0.289198	-1.123311
H94	H	1.666626	-0.211448	-1.133364
H95	H	1.635033	-0.314093	-1.234871
O96	O	1.733404	-0.565040	-0.940937
C97	C	1.732182	-0.564799	-0.828995
H98	H	1.647350	-0.576643	-0.799689
H99	H	1.784393	-0.631963	-0.798092
H100	H	1.763816	-0.485598	-0.798684
H101	H	1.359198	-0.464506	-1.079902
