data_functionalizedCrystal
_audit_creation_method	'MofGen! by Chris Wilmer'
_symmetry_space_group_name_H-M	'P1'
_symmetry_Int_Tables_number	1
_symmetry_cell_setting	triclinic
loop_
_symmetry_equiv_pos_as_xyz
  x,y,z
_cell_length_a	19.077399
_cell_length_b	19.076808
_cell_length_c	19.076919
_cell_angle_alpha	90.121640
_cell_angle_beta	85.520477
_cell_angle_gamma	94.711600
loop_
_atom_site_label
_atom_site_type_symbol
_atom_site_fract_x
_atom_site_fract_y
_atom_site_fract_z
Zn1	Zn	1.051946	-0.251860	0.345653
Zn2	Zn	1.052243	-0.364642	0.223412
Zn3	Zn	0.938800	-0.251879	0.232507
Zn4	Zn	0.929292	-0.374453	0.345601
O5	O	0.993070	-0.310709	0.286793
O6	O	1.150792	-0.262707	0.325653
O7	O	1.041298	-0.345586	0.126129
O8	O	0.957663	-0.153379	0.251345
O9	O	1.151011	-0.345568	0.235843
O10	O	1.040791	-0.153365	0.334473
O11	O	0.957951	-0.262740	0.132812
O12	O	0.838731	-0.272253	0.251294
O13	O	0.941459	-0.362289	0.444096
O14	O	0.831746	-0.362307	0.334383
O15	O	1.031572	-0.272220	0.444135
O16	O	1.032079	-0.464441	0.235791
O17	O	0.941748	-0.471649	0.325563
C18	C	0.809619	-0.318347	0.293820
C19	C	0.731137	-0.321633	0.296842
C20	C	0.697881	-0.276225	0.255078
C21	C	0.624138	-0.279318	0.257917
C22	C	0.583652	-0.327816	0.302524
C23	C	0.616913	-0.373229	0.344290
C24	C	0.690654	-0.370139	0.341447
C25	C	0.362721	-0.342096	0.315656
C26	C	0.288974	-0.345181	0.318497
C27	C	0.296205	-0.251271	0.232123
C28	C	0.369947	-0.248182	0.229287
C29	C	0.403201	-0.293597	0.271050
N30	N	0.508275	-0.330977	0.305429
N31	N	0.478577	-0.290439	0.268141
C32	C	0.985932	-0.493584	0.279699
C33	C	0.982943	-0.571818	0.276685
C34	C	1.024783	-0.608507	0.318588
C35	C	1.021971	-0.682015	0.315757
C36	C	0.977321	-0.718833	0.271021
C37	C	0.935476	-0.682139	0.229117
C38	C	0.938285	-0.608632	0.231951
C39	C	0.964280	-0.938683	0.257901
C40	C	0.961475	-1.012195	0.255068
C41	C	1.047969	-1.012066	0.341710
C42	C	1.050777	-0.938558	0.344538
C43	C	1.008930	-0.901870	0.302637
N44	N	0.974447	-0.793971	0.268125
N45	N	1.011800	-0.826734	0.305537
C46	C	1.177237	-0.303041	0.279739
C47	C	1.255718	-0.299773	0.276733
C48	C	0.985422	-0.318347	0.470367
C49	C	0.982163	-0.321602	0.548595
C50	C	1.000254	-0.127119	0.293929
C51	C	1.003316	-0.048884	0.296971
C52	C	1.000731	-0.303048	0.103934
C53	C	1.004135	-0.299589	0.025709
C54	C	1.027546	-0.276239	0.585368
C55	C	1.024475	-0.279295	0.658872
C56	C	0.976024	-0.327717	0.695601
C57	C	0.930636	-0.373082	0.658823
C58	C	0.933704	-0.370022	0.585321
C59	C	0.961815	-0.341894	0.915428
C60	C	0.958751	-0.344952	0.988936
C61	C	1.052590	-0.251163	0.988980
C62	C	1.055657	-0.248111	0.915475
C63	C	1.010266	-0.293473	0.878704
N64	N	0.972885	-0.330844	0.770734
N65	N	1.013402	-0.290343	0.803573
H66	H	0.269121	-0.214297	0.198122
H67	H	0.730840	-0.236727	0.218760
H68	H	0.891183	-0.412506	0.688734
C69	C	0.638692	-0.186174	0.172267
C70	C	0.587584	-0.229400	0.212014
H71	H	0.616123	-0.155353	0.143930
H72	H	0.667379	-0.214469	0.142997
H73	H	0.667227	-0.159375	0.202920
H74	H	0.559051	-0.256202	0.181360
H75	H	0.558885	-0.201101	0.241286
H76	H	0.717730	-0.407115	0.375455
C77	C	0.617178	-0.465737	0.429387
C78	C	0.572413	-0.426534	0.393330
H79	H	0.589706	-0.498646	0.459663
H80	H	0.646017	-0.435027	0.456430
H81	H	0.646163	-0.490135	0.396521
H82	H	0.543431	-0.402132	0.426196
H83	H	0.543562	-0.457249	0.366286
H84	H	0.896741	-0.406954	0.555382
H85	H	1.061144	-0.578534	0.355014
H86	H	0.925113	-1.042170	0.218638
H87	H	0.899119	-0.712122	0.192694
H88	H	0.402906	-0.208695	0.192958
C89	C	0.847040	-0.919741	0.228951
C90	C	0.918289	-0.898366	0.211832
H91	H	0.818648	-0.894852	0.200502
H92	H	0.835157	-0.910077	0.277084
H93	H	0.838992	-0.968790	0.220864
H94	H	0.926338	-0.849317	0.219924
H95	H	0.930175	-0.908025	0.163688
H96	H	0.919294	-0.384385	1.018839
C97	C	1.080982	-0.919383	0.463305
C98	C	1.099858	-0.898092	0.393715
H99	H	1.111284	-0.894398	0.493662
H100	H	1.085297	-0.968406	0.467609
H101	H	1.033564	-0.909771	0.475842
H102	H	1.147275	-0.907709	0.381176
H103	H	1.095550	-0.849058	0.389408
H104	H	0.924864	-0.378841	0.885497
H105	H	0.256012	-0.384674	0.354826
C106	C	0.441561	-0.433718	0.318417
C107	C	0.399270	-0.392007	0.361568
H108	H	0.464124	-0.464533	0.346765
H109	H	0.476222	-0.404396	0.291448
H110	H	0.413012	-0.460524	0.287780
H111	H	0.427820	-0.365197	0.392201
H112	H	0.364605	-0.421333	0.388548
C113	C	1.107773	-0.674503	0.401655
C114	C	1.067979	-0.722343	0.361802
H115	H	1.136184	-0.699400	0.430075
H116	H	1.076968	-0.648260	0.430847
H117	H	1.137165	-0.643411	0.371069
H118	H	1.038583	-0.753432	0.392388
H119	H	1.098788	-0.748598	0.332607
H120	H	0.904214	-0.578760	0.197831
C121	C	1.082065	-1.124690	0.375843
C122	C	1.093959	-1.052396	0.387773
H123	H	1.110454	-1.149586	0.404287
H124	H	1.093951	-1.134342	0.327708
H125	H	1.033723	-1.139172	0.387455
H126	H	1.142299	-1.037912	0.376155
H127	H	1.082077	-1.042739	0.435919
C128	C	1.119987	-0.183836	0.592802
C129	C	1.080804	-0.223009	0.544999
H130	H	1.152862	-0.150970	0.567880
H131	H	1.144598	-0.214572	0.619244
H132	H	1.089071	-0.159391	0.623696
H133	H	1.111720	-0.247459	0.514108
H134	H	1.056191	-0.192269	0.518546
H135	H	1.061433	-0.242357	0.688809
H136	H	1.095113	-0.208682	0.885575
H137	H	1.089544	-0.214231	1.018927
