data_functionalizedCrystal
_audit_creation_method	'MofGen! by Chris Wilmer'
_symmetry_space_group_name_H-M	'P1'
_symmetry_Int_Tables_number	1
_symmetry_cell_setting	triclinic
loop_
_symmetry_equiv_pos_as_xyz
  x,y,z
_cell_length_a	18.215407
_cell_length_b	14.908579
_cell_length_c	18.215399
_cell_angle_alpha	86.728464
_cell_angle_beta	89.983115
_cell_angle_gamma	86.680628
loop_
_atom_site_label
_atom_site_type_symbol
_atom_site_fract_x
_atom_site_fract_y
_atom_site_fract_z
Zn1	Zn	1.108164	0.359226	-0.432986
Zn2	Zn	1.608164	0.859226	0.067014
Zn3	Zn	1.100974	0.510095	-0.317026
Zn4	Zn	1.600974	1.010095	0.182974
Zn5	Zn	0.985096	0.359248	-0.309940
Zn6	Zn	1.485096	0.859248	0.190060
Zn7	Zn	0.977965	0.510036	-0.440053
Zn8	Zn	1.477965	1.010036	0.059947
O9	O	1.043050	0.434651	-0.375001
O10	O	1.543050	0.934651	0.124999
O11	O	1.210194	0.379254	-0.417612
O12	O	1.710194	0.879254	0.082388
O13	O	1.085577	0.490119	-0.213103
O14	O	1.585577	0.990119	0.286897
O15	O	1.007415	0.233001	-0.320339
O16	O	1.507415	0.733001	0.179661
O17	O	1.204911	0.490097	-0.332416
O18	O	1.704911	0.990097	0.167584
O19	O	1.097832	0.232984	-0.410741
O20	O	1.597832	0.732984	0.089259
O21	O	1.000443	0.379293	-0.207897
O22	O	1.500443	0.879293	0.292103
O23	O	0.881167	0.379235	-0.327192
O24	O	1.381167	0.879235	0.172808
O25	O	0.995261	0.489997	-0.542098
O26	O	1.495261	0.989997	-0.042098
O27	O	0.875928	0.490019	-0.422785
O28	O	1.375928	0.990019	0.077215
O29	O	1.090918	0.379197	-0.536906
O30	O	1.590918	0.879197	-0.036906
O31	O	1.078663	0.636332	-0.339268
O32	O	1.578663	1.136332	0.160732
O33	O	0.988289	0.636289	-0.429656
O34	O	1.488289	1.136289	0.070344
C35	C	0.851845	0.434624	-0.374987
C36	C	1.351845	0.934624	0.125013
C37	C	0.770046	0.434634	-0.374999
C38	C	1.270046	0.934634	0.125001
C39	C	0.584596	0.377036	-0.419441
C40	C	1.084596	0.877036	0.080559
C41	C	0.507737	0.377044	-0.419444
C42	C	1.007737	0.877044	0.080556
C43	C	0.502255	0.492292	-0.330576
C44	C	1.002255	0.992292	0.169424
C45	C	0.579113	0.492279	-0.330569
C46	C	1.079113	0.992279	0.169431
C47	C	0.620281	0.434652	-0.375006
C48	C	1.120281	0.934652	0.124994
C49	C	0.466564	0.434673	-0.375015
C50	C	0.966564	0.934673	0.124985
C51	C	0.383230	0.434682	-0.375018
C52	C	0.883230	0.934682	0.124982
C53	C	0.703621	0.434642	-0.375003
C54	C	1.203621	0.934642	0.124997
C55	C	1.031942	0.669044	-0.386014
C56	C	1.531942	1.169044	0.113986
C57	C	1.027257	0.769318	-0.390750
C58	C	1.527257	1.269318	0.109250
C59	C	1.112657	0.957729	-0.305604
C60	C	1.612657	1.457729	0.194396
C61	C	1.108258	1.051945	-0.310052
C62	C	1.608258	1.551945	0.189948
C63	C	1.014064	1.051970	-0.404095
C64	C	1.514064	1.551970	0.095905
C65	C	1.018463	0.957753	-0.399648
C66	C	1.518463	1.457753	0.100352
C67	C	1.067761	0.910636	-0.350400
C68	C	1.567761	1.410636	0.149600
C69	C	1.072156	0.816418	-0.345949
C70	C	1.572156	1.316418	0.154051
C71	C	0.977966	0.816444	-0.439996
C72	C	1.477966	1.316444	0.060004
C73	C	0.973567	0.910661	-0.444444
C74	C	1.473567	1.410661	0.055556
C75	C	1.235001	0.434680	-0.375016
C76	C	1.735001	0.934680	0.124984
C77	C	1.316800	0.434692	-0.375022
C78	C	1.816800	0.934692	0.124978
C79	C	1.043096	0.434588	-0.566951
C80	C	1.543096	0.934588	-0.066951
C81	C	1.043116	0.434560	-0.648749
C82	C	1.543116	0.934560	-0.148749
C83	C	1.054216	1.199343	-0.363971
C84	C	1.554216	1.699343	0.136029
C85	C	1.058962	1.099069	-0.359295
C86	C	1.558962	1.599069	0.140705
C87	C	1.092955	0.376789	-0.911101
C88	C	1.592955	0.876789	-0.411101
C89	C	1.092945	0.376813	-0.834243
C90	C	1.592945	0.876813	-0.334243
C91	C	0.993343	0.492201	-0.839640
C92	C	1.493343	0.992201	-0.339640
C93	C	0.993357	0.492180	-0.916496
C94	C	1.493357	0.992180	-0.416496
C95	C	1.043162	0.434469	-0.952224
C96	C	1.543162	0.934469	-0.452224
C97	C	1.043138	0.434514	-0.798510
C98	C	1.543138	0.934514	-0.298510
C99	C	1.043127	0.434541	-0.715178
C100	C	1.543127	0.934541	-0.215178
C101	C	1.043174	0.434443	-1.035562
C102	C	1.543174	0.934443	-0.535562
C103	C	1.043049	0.434650	-0.183795
C104	C	1.543049	0.934650	0.316205
C105	C	1.043184	0.434423	-0.101986
C106	C	1.543184	0.934423	0.398014
H107	H	0.618113	0.330110	-0.455622
H108	H	1.118113	0.830110	0.044378
C109	C	0.938576	0.555635	-0.961735
C110	C	1.438576	1.055635	-0.461735
N111	N	0.897318	0.603428	-0.995809
N112	N	1.397318	1.103428	-0.495809
C113	C	1.147718	0.313356	-0.789010
C114	C	1.647718	0.813356	-0.289010
N115	N	1.188974	0.265556	-0.754941
N116	N	1.688974	0.765556	-0.254941
H117	H	0.608168	0.539198	-0.294382
H118	H	1.108168	1.039198	0.205618
C119	C	0.456962	0.555683	-0.281703
C120	C	0.956962	1.055683	0.218297
N121	N	0.422849	0.603434	-0.244893
N122	N	0.922849	1.103434	0.255107
C123	C	1.166882	0.905898	-0.251430
C124	C	1.666882	1.405898	0.248570
N125	N	1.207727	0.866860	-0.210626
N126	N	1.707727	1.366860	0.289374
H127	H	0.952792	0.539186	-0.810540
H128	H	1.452792	1.039186	-0.310540
C129	C	1.126383	0.764590	-0.291776
C130	C	1.626383	1.264590	0.208224
N131	N	1.167231	0.725556	-0.250973
N132	N	1.667231	1.225556	0.249027
C133	C	0.468486	0.313664	-0.468327
C134	C	0.968486	0.813664	0.031673
N135	N	0.438923	0.265924	-0.505149
N136	N	0.938923	0.765924	-0.005149
H137	H	1.133509	0.329796	-0.940188
H138	H	1.633509	0.829796	-0.440188
H139	H	1.144819	1.090284	-0.273576
H140	H	1.644819	1.590284	0.226424
H141	H	0.973933	1.090349	-0.444195
H142	H	1.473933	1.590349	0.055805
C143	C	0.919338	0.962500	-0.498609
C144	C	1.419338	1.462500	0.001391
N145	N	0.878489	1.001545	-0.539405
N146	N	1.378489	1.501545	-0.039405
C147	C	0.928576	0.764635	-0.489275
C148	C	1.428576	1.264635	0.010725
N149	N	0.891376	0.725611	-0.526389
N150	N	1.391376	1.225611	-0.026389
