data_functionalizedCrystal
_audit_creation_method	'MofGen! by Chris Wilmer'
_symmetry_space_group_name_H-M	'P1'
_symmetry_Int_Tables_number	1
_symmetry_cell_setting	triclinic
loop_
_symmetry_equiv_pos_as_xyz
  x,y,z
_cell_length_a	16.959455
_cell_length_b	25.639240
_cell_length_c	16.959447
_cell_angle_alpha	89.961015
_cell_angle_beta	89.975979
_cell_angle_gamma	90.029777
loop_
_atom_site_label
_atom_site_type_symbol
_atom_site_fract_x
_atom_site_fract_y
_atom_site_fract_z
Zn1	Zn	1.208343	-0.208189	-0.446982
Zn2	Zn	1.708343	0.291811	0.053018
Zn3	Zn	1.208227	-0.295627	-0.314780
Zn4	Zn	1.708227	0.204373	0.185220
Zn5	Zn	1.076163	-0.208203	-0.314805
Zn6	Zn	1.576163	0.291797	0.185195
Zn7	Zn	1.076106	-0.295590	-0.446905
Zn8	Zn	1.576106	0.204410	0.053095
O9	O	1.142210	-0.251902	-0.380868
O10	O	1.642210	0.248098	0.119132
O11	O	1.318938	-0.219797	-0.429467
O12	O	1.818938	0.280203	0.070533
O13	O	1.190684	-0.284052	-0.204173
O14	O	1.690684	0.215948	0.295827
O15	O	1.093768	-0.135036	-0.332381
O16	O	1.593768	0.364964	0.167619
O17	O	1.318854	-0.284038	-0.332339
O18	O	1.818854	0.215962	0.167661
O19	O	1.190880	-0.135025	-0.429491
O20	O	1.690880	0.364975	0.070509
O21	O	1.093657	-0.219822	-0.204191
O22	O	1.593657	0.280178	0.295809
O23	O	0.965544	-0.219786	-0.332307
O24	O	1.465544	0.280214	0.167693
O25	O	1.093673	-0.283975	-0.557526
O26	O	1.593673	0.216025	-0.057526
O27	O	0.965503	-0.283989	-0.429360
O28	O	1.465503	0.216011	0.070640
O29	O	1.190826	-0.219761	-0.557582
O30	O	1.690826	0.280239	-0.057582
O31	O	1.190630	-0.368788	-0.332264
O32	O	1.690630	0.131212	0.167736
O33	O	1.093561	-0.368760	-0.429336
O34	O	1.593561	0.131240	0.070664
C35	C	0.936843	-0.251885	-0.380828
C36	C	1.436843	0.248115	0.119172
C37	C	0.848987	-0.251891	-0.380830
C38	C	1.348987	0.248109	0.119170
C39	C	1.142098	-0.387745	-0.380806
C40	C	1.642098	0.112255	0.119194
C41	C	1.142123	-0.445859	-0.380806
C42	C	1.642123	0.054141	0.119194
C43	C	0.477457	-0.285319	-0.330268
C44	C	0.977457	0.214681	0.169732
C45	C	0.477566	-0.218529	-0.431564
C46	C	0.977566	0.281471	0.068436
C47	C	0.560112	-0.218520	-0.431545
C48	C	1.060112	0.281480	0.068455
C49	C	0.601334	-0.251912	-0.380887
C50	C	1.101334	0.248088	0.119113
C51	C	0.560010	-0.285313	-0.330249
C52	C	1.060010	0.214687	0.169751
C53	C	0.601442	-0.185124	-0.482189
C54	C	1.101442	0.314876	0.017811
C55	C	0.683993	-0.185114	-0.482172
C56	C	1.183993	0.314886	0.017828
C57	C	0.725216	-0.218504	-0.431510
C58	C	1.225216	0.281496	0.068490
C59	C	0.683887	-0.251906	-0.380868
C60	C	1.183887	0.248094	0.119132
C61	C	0.725110	-0.285298	-0.330210
C62	C	1.225110	0.214702	0.169790
C63	C	0.683782	-0.318697	-0.279564
C64	C	1.183782	0.181303	0.220436
C65	C	0.601234	-0.318703	-0.279586
C66	C	1.101234	0.181297	0.220414
C67	C	0.807765	-0.218498	-0.431488
C68	C	1.307765	0.281502	0.068512
C69	C	0.807663	-0.285291	-0.330191
C70	C	1.307663	0.214709	0.169809
C71	C	1.192801	-0.806178	-0.431524
C72	C	1.692801	-0.306178	0.068476
C73	C	1.192824	-0.860782	-0.431540
C74	C	1.692824	-0.360782	0.068460
O75	O	1.235780	-0.888982	-0.474599
O76	O	1.735780	-0.388982	0.025401
N77	N	1.142319	-0.888141	-0.380944
N78	N	1.642319	-0.388141	0.119056
C79	C	1.091782	-0.860893	-0.330335
C80	C	1.591782	-0.360893	0.169665
O81	O	1.048825	-0.889178	-0.287301
O82	O	1.548825	-0.389178	0.212699
C83	C	1.091755	-0.806290	-0.330323
C84	C	1.591755	-0.306290	0.169677
C85	C	1.142269	-0.778934	-0.380917
C86	C	1.642269	-0.278934	0.119083
C87	C	1.243310	-0.778822	-0.482114
C88	C	1.743310	-0.278822	0.017886
C89	C	1.243288	-0.724221	-0.482097
C90	C	1.743288	-0.224221	0.017903
C91	C	1.192756	-0.696977	-0.431490
C92	C	1.692756	-0.196977	0.068510
C93	C	1.142247	-0.724333	-0.380900
C94	C	1.642247	-0.224333	0.119100
C95	C	1.041215	-0.779043	-0.279719
C96	C	1.541215	-0.279043	0.220281
C97	C	1.041192	-0.724436	-0.279712
C98	C	1.541192	-0.224436	0.220288
C99	C	1.091706	-0.697080	-0.330305
C100	C	1.591706	-0.197080	0.169695
C101	C	1.091693	-0.642488	-0.330275
C102	C	1.591693	-0.142488	0.169725
N103	N	1.142198	-0.615129	-0.380871
N104	N	1.642198	-0.115129	0.119129
C105	C	1.192729	-0.642374	-0.431478
C106	C	1.692729	-0.142374	0.068522
C107	C	1.091841	-0.975564	-0.330364
C108	C	1.591841	-0.475564	0.169636
C109	C	1.091871	-1.030166	-0.330371
C110	C	1.591871	-0.530166	0.169629
C111	C	1.192913	-1.030051	-0.431577
C112	C	1.692913	-0.530051	0.068423
C113	C	1.192886	-0.975448	-0.431566
C114	C	1.692886	-0.475448	0.068434
C115	C	1.142346	-0.948205	-0.380960
C116	C	1.642346	-0.448205	0.119040
C117	C	1.192679	-0.527708	-0.431437
C118	C	1.692679	-0.027708	0.068563
C119	C	1.192654	-0.473103	-0.431413
C120	C	1.692654	0.026897	0.068587
C121	C	1.091610	-0.473223	-0.330210
C122	C	1.591610	0.026777	0.169790
C123	C	1.091638	-0.527823	-0.330231
C124	C	1.591638	-0.027823	0.169769
C125	C	1.142174	-0.555065	-0.380851
C126	C	1.642174	-0.055065	0.119149
O127	O	1.048757	-0.614255	-0.287241
O128	O	1.548757	-0.114255	0.212759
O129	O	1.235672	-0.614082	-0.474512
O130	O	1.735672	-0.114082	0.025488
C131	C	1.348378	-0.251920	-0.380908
C132	C	1.848378	0.248080	0.119092
C133	C	1.436235	-0.251927	-0.380926
C134	C	1.936235	0.248073	0.119074
C135	C	1.142256	-0.251862	-0.587036
C136	C	1.642256	0.248138	-0.087036
C137	C	1.142275	-0.251845	-0.674893
C138	C	1.642275	0.248155	-0.174893
C139	C	1.142343	-0.115529	-0.380947
C140	C	1.642343	0.384471	0.119053
C141	C	1.142400	-0.057415	-0.380981
C142	C	1.642400	0.442585	0.119019
C143	C	1.192803	-0.285278	-0.716159
C144	C	1.692803	0.214722	-0.216159
C145	C	1.091761	-0.218399	-0.716181
C146	C	1.591761	0.281601	-0.216181
C147	C	1.091775	-0.218383	-0.798726
C148	C	1.591775	0.281617	-0.298726
C149	C	1.142302	-0.251816	-0.839993
C150	C	1.642302	0.248184	-0.339993
C151	C	1.192817	-0.285265	-0.798713
C152	C	1.692817	0.214735	-0.298713
C153	C	1.041256	-0.184940	-0.840013
C154	C	1.541256	0.315060	-0.340013
C155	C	1.041267	-0.184923	-0.922564
C156	C	1.541267	0.315077	-0.422564
C157	C	1.091799	-0.218354	-0.963831
C158	C	1.591799	0.281646	-0.463831
C159	C	1.142316	-0.251803	-0.922546
C160	C	1.642316	0.248197	-0.422546
C161	C	1.192844	-0.285236	-0.963812
C162	C	1.692844	0.214764	-0.463812
C163	C	1.243365	-0.318683	-0.922529
C164	C	1.743365	0.181317	-0.422529
C165	C	1.243349	-0.318695	-0.839980
C166	C	1.743349	0.181305	-0.339980
C167	C	1.091815	-0.218342	-1.046380
C168	C	1.591815	0.281658	-0.546380
C169	C	1.192857	-0.285223	-1.046366
C170	C	1.692857	0.214777	-0.546366
C171	C	1.142209	-0.251905	-0.175502
C172	C	1.642209	0.248095	0.324498
C173	C	1.142343	-0.251775	-0.087646
C174	C	1.642343	0.248225	0.412354
H175	H	0.841220	-0.312482	-0.288936
H176	H	1.341220	0.187518	0.211064
H177	H	1.050619	-0.191182	-0.682577
H178	H	1.550619	0.308818	-0.182577
C179	C	0.432219	-0.181791	-0.487273
C180	C	0.932219	0.318209	0.012727
N181	N	0.398060	-0.154115	-0.529228
N182	N	0.898060	0.345885	-0.029228
C183	C	0.555768	-0.355442	-0.223885
C184	C	1.055768	0.144558	0.276115
N185	N	0.521519	-0.383115	-0.181933
N186	N	1.021519	0.116885	0.318067
H187	H	0.717356	-0.345888	-0.238323
H188	H	1.217356	0.154112	0.261677
H189	H	0.443804	-0.312511	-0.289031
H190	H	0.943804	0.187489	0.210969
H191	H	0.567873	-0.157941	-0.523437
H192	H	1.067873	0.342059	-0.023437
H193	H	1.284502	-0.345906	-0.956138
H194	H	1.784502	0.154094	-0.456138
C195	C	1.298912	-0.355487	-0.794562
C196	C	1.798912	0.144513	-0.294562
N197	N	1.340758	-0.383201	-0.760350
N198	N	1.840758	0.116799	-0.260350
H199	H	1.000129	-0.157688	-0.956170
H200	H	1.500129	0.342312	-0.456170
H201	H	1.233939	-0.312508	-0.682542
H202	H	1.733939	0.187492	-0.182542
H203	H	1.234007	-0.312446	-1.079959
H204	H	1.734007	0.187554	-0.579959
H205	H	0.717635	-0.157918	-0.523411
H206	H	1.217635	0.342082	-0.023411
H207	H	1.050511	-0.550098	-0.289027
H208	H	1.550511	-0.050098	0.210973
H209	H	1.284418	-0.701951	-0.523296
H210	H	1.784418	-0.201951	-0.023296
C211	C	0.853221	-0.181762	-0.487195
C212	C	1.353221	0.318238	0.012805
N213	N	0.887458	-0.154089	-0.529156
N214	N	1.387458	0.345911	-0.029156
C215	C	0.985691	-0.148158	-0.794615
C216	C	1.485691	0.351842	-0.294615
N217	N	0.943844	-0.120449	-0.760418
N218	N	1.443844	0.379551	-0.260418
C219	C	1.248493	-1.060030	-0.487253
C220	C	1.748493	-0.560030	0.012747
N221	N	1.290353	-1.082612	-0.529185
N222	N	1.790353	-0.582612	-0.029185
H223	H	1.233792	-0.450831	-0.472612
H224	H	1.733792	0.049169	0.027388
C225	C	1.036025	-0.443244	-0.274548
C226	C	1.536025	0.056756	0.225452
N227	N	0.994152	-0.420662	-0.232628
N228	N	1.494152	0.079338	0.267372
C229	C	1.248277	-0.557666	-0.487117
C230	C	1.748277	-0.057666	0.012883
N231	N	1.290159	-0.580230	-0.529050
N232	N	1.790159	-0.080230	-0.029050
C233	C	1.036244	-0.181553	-1.091787
C234	C	1.536244	0.318447	-0.591787
N235	N	0.994387	-0.153840	-1.125988
N236	N	1.494387	0.346160	-0.625988
H237	H	1.284459	-0.800998	-0.523329
H238	H	1.784459	-0.300998	-0.023329
C239	C	1.036308	-1.060252	-0.274708
C240	C	1.536308	-0.560252	0.225292
N241	N	0.994452	-1.082911	-0.232784
N242	N	1.494452	-0.582911	0.267216
H243	H	1.234018	-0.953178	-0.472764
H244	H	1.734018	-0.453178	0.027236
C245	C	1.036243	-0.945601	-0.274686
C246	C	1.536243	-0.445601	0.225314
N247	N	0.994364	-0.923036	-0.232752
N248	N	1.494364	-0.423036	0.267248
H249	H	1.000081	-0.801307	-0.238520
H250	H	1.500081	-0.301307	0.261480
C251	C	0.985594	-0.694472	-0.224038
C252	C	1.485594	-0.194472	0.275962
N253	N	0.943719	-0.671904	-0.182103
N254	N	1.443719	-0.171904	0.317897
