data_functionalizedCrystal
_audit_creation_method	'MofGen! by Chris Wilmer'
_symmetry_space_group_name_H-M	'P1'
_symmetry_Int_Tables_number	1
_symmetry_cell_setting	triclinic
loop_
_symmetry_equiv_pos_as_xyz
  x,y,z
_cell_length_a	19.805407
_cell_length_b	12.594516
_cell_length_c	19.805399
_cell_angle_alpha	90.020797
_cell_angle_beta	90.019573
_cell_angle_gamma	90.016053
loop_
_atom_site_label
_atom_site_type_symbol
_atom_site_fract_x
_atom_site_fract_y
_atom_site_fract_z
Zn1	Zn	1.034784	-0.423767	0.382752
Zn2	Zn	1.034720	-0.601760	0.269577
Zn3	Zn	0.921599	-0.423796	0.269576
Zn4	Zn	0.921583	-0.601704	0.382723
O5	O	0.978172	-0.512757	0.326157
O6	O	1.129492	-0.447389	0.367751
O7	O	1.019694	-0.578189	0.174860
O8	O	0.936647	-0.274846	0.284601
O9	O	1.129445	-0.578160	0.284602
O10	O	1.019804	-0.274825	0.367750
O11	O	0.936584	-0.447439	0.174860
O12	O	0.826880	-0.447385	0.284573
O13	O	0.936620	-0.578064	0.477444
O14	O	0.826869	-0.578092	0.367702
O15	O	1.019788	-0.447335	0.477464
O16	O	1.019678	-0.750698	0.284574
O17	O	0.936557	-0.750657	0.367703
C18	C	0.802316	-0.512736	0.326135
C19	C	0.727084	-0.512753	0.326142
C20	C	0.691751	-0.580915	0.369357
C21	C	0.621063	-0.580917	0.369366
C22	C	0.585708	-0.512762	0.326157
C23	C	0.621045	-0.444592	0.282940
C24	C	0.691733	-0.444586	0.282934
C25	C	0.335972	-0.444615	0.282962
C26	C	0.265280	-0.444629	0.282970
C27	C	0.265302	-0.580947	0.369394
C28	C	0.335989	-0.580941	0.369389
C29	C	0.371321	-0.512768	0.326175
C30	C	0.447969	-0.512765	0.326166
C31	C	0.509061	-0.512769	0.326162
C32	C	0.978127	-0.789298	0.326150
C33	C	0.978170	-0.907603	0.326170
C34	C	0.932956	-0.976872	0.371352
C35	C	0.916467	-1.047728	0.309590
C36	C	0.994721	-1.047546	0.387943
C37	C	0.961649	-0.976901	0.264375
C38	C	1.039931	-0.976712	0.342770
C39	C	1.023465	-1.047536	0.280965
C40	C	1.154714	-0.512778	0.326179
C41	C	1.229946	-0.512787	0.326189
C42	C	0.978209	-0.512690	0.502700
C43	C	0.978226	-0.512661	0.577932
C44	C	0.978235	-0.235136	0.326178
C45	C	0.978261	-0.116830	0.326188
C46	C	0.978173	-0.512747	0.150301
C47	C	0.978288	-0.512475	0.075069
C48	C	1.021533	-0.444587	0.613288
C49	C	1.021539	-0.444556	0.683976
C50	C	0.978242	-0.512605	0.719307
C51	C	0.934931	-0.580683	0.683947
C52	C	0.934921	-0.580707	0.613259
C53	C	0.934969	-0.580583	0.969020
C54	C	0.934984	-0.580556	1.039712
C55	C	1.021588	-0.444432	1.039737
C56	C	1.021578	-0.444457	0.969050
C57	C	0.978264	-0.512530	0.933695
C58	C	0.978256	-0.512561	0.857046
C59	C	0.978253	-0.512580	0.795955
H60	H	0.592298	-0.636423	0.404556
C61	C	0.328909	-0.715682	0.454826
C62	C	0.374850	-0.655856	0.416888
H63	H	0.352901	-0.761924	0.484154
H64	H	0.301323	-0.756340	0.425296
H65	H	0.301353	-0.669351	0.480765
H66	H	0.402403	-0.702186	0.390946
H67	H	0.402448	-0.615194	0.446422
C68	C	0.843909	-0.595369	0.889515
C69	C	0.887363	-0.655405	0.930156
H70	H	0.814516	-0.641563	0.865521
H71	H	0.869695	-0.554851	0.858364
H72	H	0.818036	-0.548989	0.917100
H73	H	0.913240	-0.701780	0.902570
H74	H	0.861574	-0.695941	0.961311
C75	C	0.848990	-1.020736	0.454202
C76	C	0.881250	-0.934975	0.422856
H77	H	0.817066	-0.994867	0.485992
H78	H	0.881567	-1.063198	0.476766
H79	H	0.826450	-1.062296	0.421103
H80	H	0.903795	-0.893419	0.455954
H81	H	0.848668	-0.892495	0.400292
C82	C	0.628129	-0.309837	0.197513
C83	C	0.582186	-0.369671	0.235443
H84	H	0.604139	-0.263581	0.168192
H85	H	0.655681	-0.356154	0.171572
H86	H	0.655718	-0.269184	0.227052
H87	H	0.554600	-0.410330	0.205904
H88	H	0.554622	-0.323348	0.261386
H89	H	1.056853	-0.389000	1.068531
H90	H	1.061740	-1.078369	0.242720
H91	H	0.864280	-1.078946	0.295564
H92	H	0.947627	-0.945998	0.212128
C93	C	0.849320	-0.715238	0.676817
C94	C	0.887336	-0.655485	0.722780
H95	H	0.819935	-0.761415	0.700791
H96	H	0.878796	-0.755962	0.649249
H97	H	0.823437	-0.668857	0.649245
H98	H	0.913223	-0.701865	0.750349
H99	H	0.857856	-0.614757	0.750359
C100	C	0.771197	-0.429607	0.191903
C101	C	0.730577	-0.369665	0.235430
H102	H	0.795180	-0.383349	0.162580
H103	H	0.743603	-0.475918	0.165965
H104	H	0.802363	-0.470194	0.217646
H105	H	0.699407	-0.329084	0.209688
H106	H	0.758172	-0.323336	0.261371
H107	H	1.056806	-0.389126	0.712760
H108	H	0.236527	-0.636453	0.404584
H109	H	0.236496	-0.389122	0.247783
H110	H	1.092106	-0.945498	0.356826
C111	C	0.849359	-0.715104	1.032591
C112	C	0.887383	-0.655353	1.078550
H113	H	0.819972	-0.761273	1.056570
H114	H	0.878830	-0.755837	1.005024
H115	H	0.823478	-0.668721	1.005019
H116	H	0.913267	-0.701736	1.106119
H117	H	0.857908	-0.614617	1.106129
C118	C	0.925483	-0.723896	0.533742
C119	C	0.887323	-0.655538	0.574386
H120	H	0.896095	-0.770086	0.509740
H121	H	0.954958	-0.764604	0.561321
H122	H	0.951266	-0.683354	0.502592
H123	H	0.861543	-0.696080	0.605540
H124	H	0.857835	-0.614825	0.546805
H125	H	0.720532	-0.636419	0.404541
H126	H	1.008682	-1.078577	0.440176
H127	H	1.056837	-0.389047	0.940287
H128	H	0.364730	-0.389113	0.247769
H129	H	1.056792	-0.389176	0.584526
