data_functionalizedCrystal
_audit_creation_method	'MofGen! by Chris Wilmer'
_symmetry_space_group_name_H-M	'P1'
_symmetry_Int_Tables_number	1
_symmetry_cell_setting	triclinic
loop_
_symmetry_equiv_pos_as_xyz
  x,y,z
_cell_length_a	13.032831
_cell_length_b	16.625545
_cell_length_c	13.032268
_cell_angle_alpha	97.146561
_cell_angle_beta	89.113023
_cell_angle_gamma	97.171393
loop_
_atom_site_label
_atom_site_type_symbol
_atom_site_fract_x
_atom_site_fract_y
_atom_site_fract_z
Zn1	Zn	1.498407	0.544521	0.780800
Zn2	Zn	1.831740	0.877854	1.114134
Zn3	Zn	2.165074	1.211187	1.447467
Zn4	Zn	1.520133	0.664651	0.608813
Zn5	Zn	1.853467	0.997985	0.942146
Zn6	Zn	2.186800	1.331318	1.275479
Zn7	Zn	1.348270	0.510838	0.587043
Zn8	Zn	1.681603	0.844172	0.920377
Zn9	Zn	2.014936	1.177505	1.253710
Zn10	Zn	1.326382	0.660292	0.758938
Zn11	Zn	1.659715	0.993625	1.092271
Zn12	Zn	1.993049	1.326959	1.425605
O13	O	1.423298	0.595076	0.683899
O14	O	1.756631	0.928409	1.017232
O15	O	2.089965	1.261742	1.350565
O16	O	1.645207	0.576377	0.776246
O17	O	1.978541	0.909710	1.109579
O18	O	2.311874	1.243044	1.442912
O19	O	1.515588	0.631976	0.462009
O20	O	1.848921	0.965309	0.795342
O21	O	2.182255	1.298643	1.128676
O22	O	1.368253	0.402484	0.612785
O23	O	1.701587	0.735818	0.946118
O24	O	2.034920	1.069151	1.279451
O25	O	1.661170	0.664636	0.649887
O26	O	1.994503	0.997970	0.983220
O27	O	2.327836	1.331303	1.316554
O28	O	1.478558	0.427231	0.755137
O29	O	1.811892	0.760564	1.088470
O30	O	2.145225	1.093897	1.421804
O31	O	1.389321	0.518970	0.446015
O32	O	1.722654	0.852303	0.779349
O33	O	2.055987	1.185637	1.112682
O34	O	1.201448	0.514743	0.591586
O35	O	1.534781	0.848076	0.924919
O36	O	1.868114	1.181410	1.258252
O37	O	1.330949	0.657206	0.905754
O38	O	1.664282	0.990540	1.239087
O39	O	1.997615	1.323873	1.572421
O40	O	1.185367	0.624546	0.717876
O41	O	1.518700	0.957879	1.051209
O42	O	1.852034	1.291213	1.384543
O43	O	1.457335	0.572150	0.921816
O44	O	1.790668	0.905483	1.255150
O45	O	2.124001	1.238816	1.588483
O46	O	1.494364	0.776895	0.628688
O47	O	1.827697	1.110228	0.962022
O48	O	2.161031	1.443562	1.295355
O49	O	1.352016	0.773692	0.738985
O50	O	1.685349	1.107026	1.072318
O51	O	2.018682	1.440359	1.405651
C52	C	1.156091	0.565517	0.649997
C53	C	1.489424	0.898850	0.983330
C54	C	1.822757	1.232184	1.316664
C55	C	1.041775	0.552893	0.635518
C56	C	1.375109	0.886227	0.968851
C57	C	1.708442	1.219560	1.302185
C58	C	0.982893	0.601664	0.691455
C59	C	1.316226	0.934998	1.024789
C60	C	1.649559	1.268331	1.358122
C61	C	0.864742	0.588618	0.676492
C62	C	1.198075	0.921951	1.009825
C63	C	1.531408	1.255285	1.343159
C64	C	1.423197	0.804552	0.683852
C65	C	1.756531	1.137885	1.017186
C66	C	2.089864	1.471219	1.350519
C67	C	1.423244	0.894180	0.683879
C68	C	1.756578	1.227514	1.017212
C69	C	2.089911	1.560847	1.350546
C70	C	1.423397	1.222385	0.684023
C71	C	1.756730	1.555718	1.017356
C72	C	2.090063	1.889052	1.350690
C73	C	1.423351	1.131068	0.683985
C74	C	1.756684	1.464402	1.017319
C75	C	2.090017	1.797735	1.350652
C76	C	1.423320	1.058285	0.683950
C77	C	1.756653	1.391619	1.017284
C78	C	2.089986	1.724952	1.350617
C79	C	1.423275	0.966963	0.683914
C80	C	1.756608	1.300297	1.017247
C81	C	2.089942	1.633630	1.350581
C82	C	1.691548	0.624750	0.717933
C83	C	2.024882	0.958084	1.051267
C84	C	2.358215	1.291417	1.384600
C85	C	1.805861	0.637396	0.732437
C86	C	2.139194	0.970729	1.065770
C87	C	2.472527	1.304062	1.399104
C88	C	1.389277	0.617949	0.952144
C89	C	1.722610	0.951282	1.285478
C90	C	2.055943	1.284616	1.618811
C91	C	1.374779	0.627696	1.066455
C92	C	1.708112	0.961030	1.399788
C93	C	2.041445	1.294363	1.733121
C94	C	1.423414	1.384786	0.683982
C95	C	1.756747	1.718120	1.017315
C96	C	2.090080	2.051453	1.350649
C97	C	1.423437	1.295174	0.684046
C98	C	1.756770	1.628507	1.017379
C99	C	2.090103	1.961840	1.350712
C100	C	1.457246	0.572239	0.416704
C101	C	1.790579	0.905573	0.750037
C102	C	2.123913	1.238906	1.083371
C103	C	1.471943	0.562287	0.302419
C104	C	1.805276	0.895620	0.635753
C105	C	2.138610	1.228954	0.969086
C106	C	1.430849	0.589958	1.125365
C107	C	1.764182	0.923291	1.458698
C108	C	2.097515	1.256624	1.792032
C109	C	1.415866	0.600031	1.243511
C110	C	1.749199	0.933364	1.576844
C111	C	2.082532	1.266698	1.910178
H112	H	1.489940	0.550187	1.088333
H113	H	1.823274	0.883521	1.421666
H114	H	2.156607	1.216854	1.755000
O115	O	1.337575	0.652707	1.292551
O116	O	1.670909	0.986040	1.625884
O117	O	2.004242	1.319373	1.959218
H118	H	1.298775	0.678813	1.231425
H119	H	1.632109	1.012147	1.564759
H120	H	1.965442	1.345480	1.898092
O121	O	1.550232	0.509610	1.253382
O122	O	1.883566	0.842943	1.586715
O123	O	2.216899	1.176276	1.920048
H124	H	1.589021	0.483495	1.314508
H125	H	1.922355	0.816829	1.647841
H126	H	2.255688	1.150162	1.981175
O127	O	0.992705	0.484800	0.557386
O128	O	1.326038	0.818133	0.890719
O129	O	1.659371	1.151466	1.224052
H130	H	0.907606	0.485248	0.557880
H131	H	1.240939	0.818581	0.891213
H132	H	1.574273	1.151915	1.224547
H133	H	0.842913	0.688808	0.791415
H134	H	1.176247	1.022142	1.124748
H135	H	1.509580	1.355475	1.458082
H136	H	1.315677	0.667457	1.103485
H137	H	1.649010	1.000791	1.436819
H138	H	1.982343	1.334124	1.770152
H139	H	0.827686	0.537199	0.617524
H140	H	1.161020	0.870532	0.950858
H141	H	1.494353	1.203865	1.284191
O142	O	1.031963	0.669753	0.769595
O143	O	1.365296	1.003086	1.102928
O144	O	1.698629	1.336420	1.436261
H145	H	1.117062	0.669309	0.769094
H146	H	1.450395	1.002642	1.102427
H147	H	1.783729	1.335975	1.435760
