data_functionalizedCrystal
_audit_creation_method	'MofGen! by Chris Wilmer'
_symmetry_space_group_name_H-M	'P1'
_symmetry_Int_Tables_number	1
_symmetry_cell_setting	triclinic
loop_
_symmetry_equiv_pos_as_xyz
  x,y,z
_cell_length_a	42.784839
_cell_length_b	42.784841
_cell_length_c	42.784893
_cell_angle_alpha	90.002418
_cell_angle_beta	59.997780
_cell_angle_gamma	119.999863
loop_
_atom_site_label
_atom_site_type_symbol
_atom_site_fract_x
_atom_site_fract_y
_atom_site_fract_z
O1	O	0.275695	-0.214412	-0.009300
O2	O	0.211692	-0.168961	0.009253
O3	O	0.275692	-0.168961	-0.054750
O4	O	0.211694	-0.214412	0.054702
O5	O	0.223708	-0.220945	-0.054749
O6	O	0.159708	-0.220945	0.009253
O7	O	0.223710	-0.266397	-0.009300
Cu8	Cu	0.186962	-0.248417	-0.000023
Cu9	Cu	0.248440	-0.186940	-0.000024
O10	O	0.159710	-0.266396	0.054703
C11	C	0.051021	-0.022778	0.028112
C12	C	0.013142	-0.041761	0.028375
C13	C	0.051018	-0.079378	0.028116
C14	C	0.013139	-0.098275	0.028379
C15	C	-0.005578	-0.079377	0.028112
C16	C	0.069652	-0.041762	0.028379
C17	C	0.152948	0.113708	0.017863
C18	C	0.173786	0.152360	0.014965
C19	C	0.155902	0.171750	0.013509
C20	C	0.178499	0.213661	0.010359
C21	C	0.117177	0.152485	0.014953
C22	C	0.096339	0.113835	0.017857
C23	C	0.114226	0.094447	0.019312
C24	C	-0.131813	-0.113936	0.017859
C25	C	-0.167567	-0.131750	0.014961
C26	C	-0.185502	-0.169024	0.013506
C27	C	-0.224264	-0.188340	0.010358
C28	C	-0.167685	-0.188485	0.014954
C29	C	-0.131938	-0.170675	0.017859
C30	C	-0.114002	-0.133396	0.019309
C31	C	0.152939	-0.113943	0.017877
C32	C	0.173778	-0.131757	0.014977
C33	C	0.155892	-0.169032	0.013523
C34	C	0.178486	-0.188349	0.010377
C35	C	0.117170	-0.188491	0.014967
C36	C	0.096334	-0.170675	0.017865
C37	C	0.114220	-0.133401	0.019323
C38	C	0.091629	0.052537	0.022456
C39	C	0.073617	0.019131	0.024964
C40	C	0.073613	-0.098693	0.024971
C41	C	0.091623	-0.114089	0.022466
C42	C	-0.044339	-0.098690	0.024964
C43	C	-0.075237	-0.114084	0.022456
O44	O	-0.327856	-0.266388	-0.009322
O45	O	-0.236954	-0.220935	0.009228
O46	O	-0.236950	-0.220939	-0.054773
O47	O	-0.327860	-0.266385	0.054680
O48	O	-0.236948	-0.168954	-0.054776
O49	O	-0.236952	-0.168950	0.009225
O50	O	-0.327854	-0.214403	-0.009325
Cu51	Cu	-0.282403	-0.186930	-0.000050
Cu52	Cu	-0.282405	-0.248408	-0.000046
O53	O	-0.327858	-0.214400	0.054676
C54	C	0.384390	-0.079141	-0.361606
C55	C	0.422270	-0.041526	-0.380503
C56	C	0.384390	-0.079141	-0.305008
C57	C	0.422270	-0.041526	-0.323990
C58	C	0.440988	-0.022543	-0.361606
C59	C	0.365758	-0.098038	-0.323991
C60	C	0.282465	-0.170819	-0.396168
C61	C	0.261627	-0.188759	-0.413983
C62	C	0.279513	-0.169420	-0.451257
C63	C	0.256917	-0.188867	-0.470572
C64	C	0.318239	-0.132140	-0.470717
C65	C	0.339076	-0.114205	-0.452905
C66	C	0.321187	-0.133546	-0.415628
C67	C	0.567227	0.113942	-0.453282
C68	C	0.602981	0.152594	-0.471222
C69	C	0.620916	0.171985	-0.451883
C70	C	0.659678	0.213894	-0.471328
C71	C	0.603097	0.152719	-0.414603
C72	C	0.567349	0.114068	-0.396667
C73	C	0.549414	0.094682	-0.416011
C74	C	0.282465	-0.170819	-0.168522
C75	C	0.261624	-0.188757	-0.129868
C76	C	0.279510	-0.169418	-0.110479
C77	C	0.256914	-0.188865	-0.068568
C78	C	0.318233	-0.132140	-0.129742
C79	C	0.339070	-0.114203	-0.168394
C80	C	0.321184	-0.133548	-0.187782
C81	C	0.343783	-0.114094	-0.396315
C82	C	0.361794	-0.098590	-0.380920
C83	C	0.361794	-0.098590	-0.263099
C84	C	0.343783	-0.114094	-0.229693
C85	C	0.479750	0.019366	-0.381054
C86	C	0.510649	0.052771	-0.396557
C87	C	0.440758	-0.356212	-0.028193
C88	C	0.422041	-0.393827	-0.028459
C89	C	0.384158	-0.356213	-0.028190
C90	C	0.365526	-0.393828	-0.028456
C91	C	0.384160	-0.412810	-0.028193
C92	C	0.422038	-0.337315	-0.028456
C93	C	0.567000	-0.264532	-0.017949
C94	C	0.602755	-0.246591	-0.015053
C95	C	0.620692	-0.265931	-0.013601
C96	C	0.659455	-0.246483	-0.010453
C97	C	0.602873	-0.303210	-0.015048
C98	C	0.567125	-0.321146	-0.017949
C99	C	0.549188	-0.301805	-0.019399
C100	C	0.339356	-0.549295	-0.017951
C101	C	0.318645	-0.587947	-0.015055
C102	C	0.279915	-0.607338	-0.013597
C103	C	0.257452	-0.649247	-0.010452
C104	C	0.261899	-0.588073	-0.015042
C105	C	0.282613	-0.549422	-0.017945
C106	C	0.321343	-0.530035	-0.019397
C107	C	0.339344	-0.264537	-0.017936
C108	C	0.318628	-0.246599	-0.015032
C109	C	0.279898	-0.265939	-0.013577
C110	C	0.257433	-0.246493	-0.010426
C111	C	0.261884	-0.303217	-0.015022
C112	C	0.282601	-0.321153	-0.017924
C113	C	0.321334	-0.301808	-0.019385
C114	C	0.510421	-0.321258	-0.022542
C115	C	0.479522	-0.336762	-0.025048
C116	C	0.361696	-0.336765	-0.025041
C117	C	0.343793	-0.321261	-0.022532
C118	C	0.361701	-0.454719	-0.025047
C119	C	0.343799	-0.488125	-0.022541
O120	O	0.223728	0.336934	-0.009323
O121	O	0.159726	0.227482	0.009227
O122	O	0.223729	0.291478	-0.054775
O123	O	0.159725	0.272938	0.054678
O124	O	0.275711	0.291477	-0.054771
O125	O	0.211707	0.227481	0.009230
O126	O	0.275710	0.336932	-0.009320
Cu127	Cu	0.248455	0.282206	-0.000045
Cu128	Cu	0.186981	0.282208	-0.000049
O129	O	0.211707	0.272936	0.054681
O130	O	0.763271	0.337164	-0.496871
O131	O	0.672367	0.227713	-0.451422
O132	O	0.672365	0.291711	-0.451418
O133	O	0.763273	0.273165	-0.496876
O134	O	0.672366	0.291712	-0.503402
O135	O	0.672368	0.227714	-0.503407
O136	O	0.763272	0.337165	-0.548856
Cu137	Cu	0.717820	0.282440	-0.530878
Cu138	Cu	0.717819	0.282438	-0.469400
O139	O	0.763275	0.273167	-0.548860
O140	O	0.211690	-0.214417	-0.548617
O141	O	0.275691	-0.168962	-0.503167
O142	O	0.211689	-0.168964	-0.503163
O143	O	0.275692	-0.214415	-0.548621
O144	O	0.159706	-0.220947	-0.451179
O145	O	0.223708	-0.220945	-0.451183
O146	O	0.159707	-0.266400	-0.496633
Cu147	Cu	0.186961	-0.248419	-0.469161
Cu148	Cu	0.248437	-0.186943	-0.530639
O149	O	0.223709	-0.266398	-0.496637
C150	C	-0.005343	-0.412572	0.361558
C151	C	0.013375	-0.393590	0.380456
C152	C	0.051255	-0.355974	0.304961
C153	C	0.069887	-0.337077	0.323944
C154	C	0.051254	-0.355974	0.361560
C155	C	0.013375	-0.393589	0.323943
C156	C	-0.131582	-0.549057	0.396116
C157	C	-0.167336	-0.587709	0.413930
C158	C	-0.185271	-0.607098	0.451205
C159	C	-0.224034	-0.649009	0.470519
C160	C	-0.167452	-0.587833	0.470666
C161	C	-0.131705	-0.549184	0.452854
C162	C	-0.113770	-0.529796	0.415578
C163	C	0.096061	-0.321414	0.453239
C164	C	0.116773	-0.303600	0.471179
C165	C	0.155502	-0.266327	0.451842
C166	C	0.177965	-0.247011	0.471288
C167	C	0.173517	-0.246866	0.414562
C168	C	0.152802	-0.264677	0.396625
C169	C	0.114073	-0.301955	0.415968
C170	C	0.096064	-0.321412	0.168474
C171	C	0.116779	-0.303599	0.129820
C172	C	0.155508	-0.266324	0.110432
C173	C	0.177972	-0.247009	0.068521
C174	C	0.173522	-0.246865	0.129696
C175	C	0.152807	-0.264680	0.168348
C176	C	0.114075	-0.301953	0.187735
C177	C	-0.075004	-0.487887	0.396265
C178	C	-0.044106	-0.454481	0.380871
C179	C	0.073715	-0.336660	0.263052
C180	C	0.091618	-0.321265	0.229646
C181	C	0.073714	-0.336661	0.381009
C182	C	0.091616	-0.321267	0.396513
C183	C	0.051046	-0.022794	-0.361634
C184	C	0.069679	-0.041778	-0.380530
C185	C	-0.005555	-0.079390	-0.305034
C186	C	0.013163	-0.098288	-0.324016
C187	C	0.051045	-0.079393	-0.361631
C188	C	0.013164	-0.041775	-0.324018
C189	C	0.095858	0.113693	-0.396200
C190	C	0.116571	0.152344	-0.414015
C191	C	0.155302	0.171732	-0.451290
C192	C	0.177767	0.213642	-0.470607
C193	C	0.173317	0.152465	-0.470750
C194	C	0.152600	0.113815	-0.452936
C195	C	0.113869	0.094429	-0.415659
C196	C	0.152973	-0.113959	-0.453306
C197	C	0.173810	-0.131775	-0.471245
C198	C	0.155926	-0.169048	-0.451906
C199	C	0.178519	-0.188366	-0.471350
C200	C	0.117198	-0.188507	-0.414626
C201	C	0.096358	-0.170694	-0.396690
C202	C	0.114251	-0.133416	-0.416035
C203	C	-0.131801	-0.113944	-0.168548
C204	C	-0.167554	-0.131755	-0.129895
C205	C	-0.185491	-0.169029	-0.110504
C206	C	-0.224255	-0.188343	-0.068593
C207	C	-0.167671	-0.188490	-0.129767
C208	C	-0.131918	-0.170677	-0.168418
C209	C	-0.113988	-0.133404	-0.187808
C210	C	0.091411	0.052521	-0.396344
C211	C	0.073508	0.019115	-0.380949
C212	C	-0.044320	-0.098701	-0.263125
C213	C	-0.075220	-0.114094	-0.229719
C214	C	0.073641	-0.098707	-0.381079
C215	C	0.091652	-0.114103	-0.396582
C216	C	-0.615853	-0.356193	0.361535
C217	C	-0.634487	-0.393808	0.380433
C218	C	-0.559253	-0.356195	0.304938
C219	C	-0.577972	-0.393810	0.323921
C220	C	-0.615854	-0.412792	0.361537
C221	C	-0.577972	-0.337297	0.323920
C222	C	-0.660661	-0.264512	0.396093
C223	C	-0.681373	-0.246571	0.413906
C224	C	-0.720104	-0.265909	0.451181
C225	C	-0.742568	-0.246461	0.470495
C226	C	-0.738120	-0.303189	0.470643
C227	C	-0.717405	-0.321125	0.452831
C228	C	-0.678674	-0.301785	0.415554
C229	C	-0.717784	-0.549275	0.453218
C230	C	-0.738622	-0.587926	0.471159
C231	C	-0.720740	-0.607319	0.451822
C232	C	-0.743333	-0.649227	0.471268
C233	C	-0.682012	-0.588055	0.414542
C234	C	-0.661170	-0.549403	0.396604
C235	C	-0.679063	-0.530016	0.415946
C236	C	-0.433006	-0.264522	0.168449
C237	C	-0.397253	-0.246585	0.129796
C238	C	-0.379317	-0.265926	0.110407
C239	C	-0.340553	-0.246480	0.068496
C240	C	-0.397138	-0.303204	0.129672
C241	C	-0.432891	-0.321139	0.168324
C242	C	-0.450820	-0.301793	0.187711
C243	C	-0.656216	-0.321238	0.396242
C244	C	-0.638314	-0.336743	0.380848
C245	C	-0.520488	-0.336748	0.263028
C246	C	-0.489588	-0.321245	0.229622
C247	C	-0.638451	-0.454700	0.380987
C248	C	-0.656463	-0.488106	0.396492
C249	C	0.440756	0.310302	-0.361620
C250	C	0.422038	0.310564	-0.380518
C251	C	0.384160	0.310312	-0.305026
C252	C	0.365528	0.310574	-0.324010
C253	C	0.384159	0.310303	-0.361624
C254	C	0.422038	0.310573	-0.324006
C255	C	0.566989	0.300046	-0.396172
C256	C	0.602741	0.297145	-0.413984
C257	C	0.620675	0.295684	-0.451257
C258	C	0.659436	0.292531	-0.470569
C259	C	0.602857	0.297127	-0.470719
C260	C	0.567111	0.300033	-0.452909
C261	C	0.549177	0.301493	-0.415634
C262	C	0.339351	0.300042	-0.453303
C263	C	0.318640	0.297142	-0.471244
C264	C	0.279912	0.295690	-0.451908
C265	C	0.257449	0.292541	-0.471354
C266	C	0.261899	0.297143	-0.414629
C267	C	0.282613	0.300049	-0.396692
C268	C	0.321341	0.301496	-0.416033
C269	C	0.339354	0.300088	-0.168540
C270	C	0.318640	0.297192	-0.129888
C271	C	0.279912	0.295742	-0.110501
C272	C	0.257450	0.292601	-0.068591
C273	C	0.261898	0.297184	-0.129766
C274	C	0.282612	0.300078	-0.168417
C275	C	0.321344	0.301533	-0.187802
C276	C	0.510413	0.304640	-0.396323
C277	C	0.479516	0.307151	-0.380931
C278	C	0.361701	0.307173	-0.263117
C279	C	0.343799	0.304671	-0.229712
C280	C	0.361700	0.307154	-0.381073
C281	C	0.343798	0.304644	-0.396578
O282	O	0.275503	0.336913	-0.548651
O283	O	0.211494	0.227461	-0.503201
O284	O	0.275490	0.291455	-0.503192
O285	O	0.211507	0.272919	-0.548659
O286	O	0.223502	0.291457	-0.451211
O287	O	0.159506	0.227463	-0.451219
O288	O	0.223515	0.336915	-0.496669
Cu289	Cu	0.186764	0.282189	-0.469197
Cu290	Cu	0.248246	0.282187	-0.530672
O291	O	0.159519	0.272921	-0.496677
C292	C	0.051032	0.254111	0.361530
C293	C	0.013154	0.253851	0.380425
C294	C	0.051031	0.254102	0.304932
C295	C	0.013153	0.253842	0.323913
C296	C	-0.005564	0.254113	0.361527
C297	C	0.069663	0.253840	0.323916
C298	C	0.152954	0.264360	0.396096
C299	C	0.173791	0.267260	0.413911
C300	C	0.155906	0.268721	0.451185
C301	C	0.178502	0.271871	0.470501
C302	C	0.117182	0.267279	0.470643
C303	C	0.096345	0.264374	0.452830
C304	C	0.114233	0.262915	0.415555
C305	C	-0.131796	0.264379	0.453195
C306	C	-0.167548	0.267281	0.471133
C307	C	-0.185483	0.268734	0.451793
C308	C	-0.224243	0.271886	0.471236
C309	C	-0.167664	0.267282	0.414515
C310	C	-0.131919	0.264374	0.396581
C311	C	-0.113984	0.262925	0.415925
C312	C	0.152952	0.264325	0.168451
C313	C	0.173792	0.267221	0.129798
C314	C	0.155907	0.268673	0.110407
C315	C	0.178502	0.271814	0.068498
C316	C	0.117186	0.267232	0.129669
C317	C	0.096350	0.264339	0.168320
C318	C	0.114234	0.262881	0.187709
C319	C	0.091638	0.259769	0.396240
C320	C	0.073627	0.257260	0.380845
C321	C	0.073626	0.257242	0.263024
C322	C	0.091636	0.259743	0.229619
C323	C	-0.044324	0.257264	0.380973
C324	C	-0.075221	0.259775	0.396474
H325	H	0.102606	-0.218843	0.013783
O326	O	0.170088	0.095073	-0.471778
C327	C	0.180611	0.081443	-0.451084
H328	H	0.159808	0.078508	-0.419758
H329	H	0.173373	0.052329	-0.453277
H330	H	0.217160	0.102470	-0.463484
H331	H	0.552629	0.098160	-0.469035
H332	H	-0.002293	-0.408830	0.308704
O333	O	-0.114577	0.263032	0.360346
C334	C	-0.099181	0.296625	0.335418
H335	H	-0.092078	0.320408	0.348462
H336	H	-0.067580	0.305756	0.306725
H337	H	-0.125433	0.290875	0.330909
O338	O	0.329121	0.311018	-0.305824
C339	C	0.294232	0.278229	-0.303931
H340	H	0.300153	0.254880	-0.306392
H341	H	0.261674	0.267514	-0.275445
H342	H	0.292655	0.285777	-0.328427
H343	H	0.101900	0.168027	-0.398169
H344	H	-0.182070	-0.115902	0.013781
O345	O	0.377005	0.301547	-0.187345
C346	C	0.410009	0.333734	-0.186662
H347	H	0.393838	0.342594	-0.161486
H348	H	0.430576	0.326241	-0.183437
H349	H	0.432300	0.358392	-0.214509
O350	O	-0.379650	-0.321954	0.110845
C351	C	-0.334791	-0.301179	0.097194
H352	H	-0.328705	-0.282068	0.114966
H353	H	-0.326221	-0.321955	0.099633
H354	H	-0.313172	-0.282717	0.065946
O355	O	0.211472	-0.112832	-0.507429
C356	C	0.244392	-0.079133	-0.508176
H357	H	0.236632	-0.082387	-0.478230
H358	H	0.277916	-0.073926	-0.528750
H359	H	0.245247	-0.053836	-0.518151
O360	O	-0.005480	-0.023542	-0.305897
C361	C	0.019190	0.013804	-0.330725
H362	H	0.038366	0.014976	-0.361651
H363	H	-0.004165	0.021775	-0.326199
H364	H	0.043319	0.034859	-0.324402
H365	H	0.230368	0.295965	-0.398887
O366	O	0.170397	0.262935	0.187223
C367	C	0.209037	0.264822	0.161937
H368	H	0.223197	0.278908	0.131180
H369	H	0.234471	0.282419	0.168264
H370	H	0.200688	0.234665	0.165920
O371	O	0.170252	-0.245836	0.187115
C372	C	0.143657	-0.269547	0.225390
H373	H	0.124055	-0.300777	0.227536
H374	H	0.165561	-0.264973	0.235160
H375	H	0.119849	-0.262066	0.244425
H376	H	0.167522	0.263171	0.365746
H377	H	-0.382753	-0.216236	0.114110
H378	H	0.437935	-0.026287	-0.411409
O379	O	0.099231	-0.322566	0.507382
C380	C	0.060603	-0.359282	0.520608
H381	H	0.061756	-0.368080	0.495103
H382	H	0.058413	-0.380749	0.538805
H383	H	0.030406	-0.358707	0.538609
H384	H	0.102633	-0.218858	-0.398880
H385	H	-0.117212	-0.083598	-0.184336
O386	O	-0.184822	-0.112803	-0.111245
C387	C	-0.161320	-0.076083	-0.136645
H388	H	-0.144689	-0.076121	-0.167364
H389	H	-0.185162	-0.068168	-0.130406
H390	H	-0.135107	-0.054268	-0.132704
H391	H	-0.182293	-0.218837	0.013775
H392	H	0.370892	-0.533512	-0.019136
H393	H	0.552400	-0.248780	-0.019131
H394	H	0.205320	0.268435	0.398066
O395	O	0.620330	-0.321986	-0.013706
C396	C	0.635796	-0.331510	-0.047297
H397	H	0.642830	-0.311429	-0.071082
H398	H	0.667449	-0.328497	-0.056428
H399	H	0.609615	-0.362305	-0.041543
H400	H	0.552621	-0.351498	-0.019128
H401	H	0.064523	-0.351759	0.184259
H402	H	0.267941	0.301250	-0.184099
H403	H	0.100165	-0.026535	-0.411435
O404	O	0.211361	-0.112914	0.013623
C405	C	0.204298	-0.133606	0.044840
H406	H	0.175910	-0.164932	0.055364
H407	H	0.235606	-0.131411	0.035409
H408	H	0.195667	-0.121207	0.068991
H409	H	0.064825	-0.186540	-0.366338
H410	H	0.100149	0.253421	0.308676
O411	O	-0.185050	0.268759	0.395718
C412	C	-0.181564	0.303323	0.392314
H413	H	-0.153858	0.325433	0.394521
H414	H	-0.173906	0.314394	0.363421
H415	H	-0.214107	0.298089	0.416245
O416	O	0.058753	-0.189598	0.019216
C417	C	0.067427	-0.199116	-0.014385
H418	H	0.097538	-0.199957	-0.027454
H419	H	0.037567	-0.228394	-0.007090
H420	H	0.074189	-0.176695	-0.035783
O421	O	-0.663803	-0.210343	0.394981
C422	C	-0.620685	-0.185412	0.385465
H423	H	-0.606774	-0.202452	0.384627
H424	H	-0.598701	-0.162850	0.356185
H425	H	-0.621712	-0.170774	0.407886
H426	H	-0.117197	0.263199	0.468949
H427	H	-0.002524	-0.026519	0.028802
O428	O	0.170377	-0.077727	-0.472057
C429	C	0.180808	-0.053639	-0.451285
H430	H	0.185562	-0.066656	-0.432176
H431	H	0.212588	-0.024292	-0.472062
H432	H	0.152710	-0.050489	-0.432819
H433	H	0.437704	-0.306410	-0.028878
O434	O	0.376980	-0.245795	-0.019372
C435	C	0.391397	-0.269622	-0.022236
H436	H	0.377448	-0.291980	-0.034653
H437	H	0.429049	-0.251584	-0.041777
H438	H	0.379352	-0.284569	0.007404
O439	O	0.549637	0.301531	-0.359989
C440	C	0.582517	0.333709	-0.359174
H441	H	0.609276	0.355893	-0.389118
H442	H	0.567095	0.346660	-0.338650
H443	H	0.597767	0.324594	-0.349093
H444	H	0.205322	0.268398	0.114116
H445	H	0.064526	-0.351765	0.468991
O446	O	0.211104	-0.210641	0.395833
C447	C	0.203978	-0.186551	0.416600
H448	H	0.175515	-0.204482	0.447896
H449	H	0.235231	-0.164736	0.414513
H450	H	0.195428	-0.170955	0.404185
O451	O	-0.184639	-0.606472	0.395043
C452	C	-0.181129	-0.637531	0.391550
H453	H	-0.178480	-0.646285	0.414819
H454	H	-0.211679	-0.662723	0.394784
H455	H	-0.150390	-0.628703	0.362222
H456	H	-0.117201	-0.533500	0.468702
O457	O	-0.776252	-0.606587	0.507361
C458	C	-0.787568	-0.581185	0.520586
H459	H	-0.772011	-0.556833	0.495081
H460	H	-0.825044	-0.597192	0.538782
H461	H	-0.774800	-0.568989	0.538589
O462	O	0.620218	0.171307	-0.507405
C463	C	0.587262	0.170525	-0.508148
H464	H	0.560574	0.166024	-0.478202
H465	H	0.602627	0.198839	-0.528724
H466	H	0.571938	0.146081	-0.518120
O467	O	0.440771	0.311052	-0.417384
C468	C	0.478291	0.311231	-0.430067
H469	H	0.475288	0.298876	-0.404325
H470	H	0.480673	0.293098	-0.449526
H471	H	0.509250	0.341864	-0.446607
O472	O	0.211102	-0.210632	0.110867
C473	C	0.203987	-0.186542	0.097212
H474	H	0.167106	-0.199559	0.114984
H475	H	0.222331	-0.157196	0.099647
H476	H	0.216771	-0.183391	0.065965
H477	H	0.333296	-0.216247	-0.013853
O478	O	-0.114677	-0.189642	-0.187077
C479	C	-0.138167	-0.226357	-0.161674
H480	H	-0.172472	-0.235156	-0.137325
H481	H	-0.141430	-0.247825	-0.177682
H482	H	-0.119594	-0.225777	-0.149473
H483	H	0.064816	0.263199	0.468675
H484	H	0.064321	0.097912	-0.365848
H485	H	0.230362	0.296001	-0.113978
H486	H	0.102623	0.268466	0.500992
O487	O	0.377007	0.301509	-0.472072
C488	C	0.411490	0.336079	-0.475489
H489	H	0.396895	0.347476	-0.452254
H490	H	0.433387	0.330726	-0.472139
H491	H	0.432072	0.357990	-0.504837
O492	O	-0.184782	0.268714	0.507333
C493	C	-0.161292	0.266805	0.520560
H494	H	-0.126992	0.276748	0.495057
H495	H	-0.158017	0.286090	0.538752
H496	H	-0.179871	0.236036	0.538568
H497	H	-0.667447	-0.603843	0.398798
O498	O	0.440793	0.311100	-0.305884
C499	C	0.478298	0.311256	-0.330709
H500	H	0.491220	0.322999	-0.361636
H501	H	0.505100	0.330090	-0.326186
H502	H	0.468901	0.280805	-0.324381
H503	H	0.230097	-0.219111	-0.398135
H504	H	0.267896	-0.186572	-0.365817
H505	H	0.333309	0.296016	-0.114204
H506	H	0.267945	0.301232	-0.366341
H507	H	0.064821	0.263164	0.184001
H508	H	0.370607	-0.083853	-0.468752
H509	H	0.332799	-0.116397	-0.501067
H510	H	-0.629638	-0.533721	0.366252
H511	H	-0.002510	0.253416	0.308669
O512	O	-0.450137	-0.357345	0.186984
C513	C	-0.426650	-0.370575	0.161581
H514	H	-0.392342	-0.345073	0.137234
H515	H	-0.423394	-0.388784	0.177591
H516	H	-0.445221	-0.388564	0.149377
O517	O	0.620485	0.171589	-0.395809
C518	C	0.617000	0.202666	-0.392411
H519	H	0.589293	0.197069	-0.394619
H520	H	0.609344	0.206088	-0.363521
H521	H	0.649543	0.229972	-0.416345
O522	O	-0.114397	-0.077749	0.019329
C523	C	-0.117902	-0.077837	0.053900
H524	H	-0.120655	-0.103826	0.065294
H525	H	-0.087303	-0.050585	0.048548
H526	H	-0.148583	-0.079170	0.075814
H527	H	0.617241	0.295963	-0.398133
H528	H	-0.002512	0.253428	0.411332
H529	H	0.437709	-0.409066	-0.028885
O530	O	0.265161	-0.189561	-0.187417
C531	C	0.291852	-0.165734	-0.225660
H532	H	0.326625	-0.143375	-0.234068
H533	H	0.293358	-0.183773	-0.245274
H534	H	0.277157	-0.150790	-0.228563
H535	H	0.617258	-0.216240	-0.013873
O536	O	0.211368	0.171019	0.013612
C537	C	0.202696	0.152833	0.047214
H538	H	0.172584	0.121883	0.060286
H539	H	0.232556	0.153413	0.039919
H540	H	0.195938	0.168497	0.068609
H541	H	0.617463	0.295940	-0.501068
O542	O	0.440904	-0.023399	-0.305754
C543	C	0.416230	-0.048223	-0.268405
H544	H	0.397069	-0.079149	-0.267233
H545	H	0.439582	-0.043685	-0.260424
H546	H	0.392089	-0.041908	-0.247355
H547	H	0.333315	-0.603629	-0.013877
H548	H	0.335269	-0.128941	-0.308748
H549	H	-0.182279	-0.218843	-0.113977
O550	O	-0.114671	-0.189625	0.019245
C551	C	-0.138173	-0.226348	0.017349
H552	H	-0.154804	-0.226314	0.003261
H553	H	-0.114331	-0.234265	-0.000251
H554	H	-0.164386	-0.248160	0.047505
O555	O	0.099813	0.171346	0.013589
C556	C	0.089362	0.184987	0.044804
H557	H	0.110125	0.187820	0.055336
H558	H	0.096712	0.214152	0.035366
H559	H	0.052799	0.164022	0.068949
O560	O	0.549844	0.301414	-0.471860
C561	C	0.573343	0.299512	-0.508581
H562	H	0.589973	0.285424	-0.508544
H563	H	0.549501	0.281909	-0.516495
H564	H	0.599558	0.329665	-0.530397
O565	O	0.224020	-0.224973	-0.111217
C566	C	0.212696	-0.238194	-0.136615
H567	H	0.243452	-0.221531	-0.167334
H568	H	0.198535	-0.269952	-0.130373
H569	H	0.186946	-0.233789	-0.132676
H570	H	0.230365	-0.603862	-0.013858
O571	O	0.336182	0.295715	-0.507446
C572	C	0.374810	0.297626	-0.520671
H573	H	0.373656	0.287676	-0.495166
H574	H	0.377002	0.278348	-0.538870
H575	H	0.405007	0.328397	-0.538671
H576	H	0.552845	0.098385	-0.366316
H577	H	0.230346	-0.318966	-0.013835
O578	O	0.265045	-0.530772	-0.019326
C579	C	0.226426	-0.556169	-0.017429
H580	H	0.212374	-0.586887	-0.003343
H581	H	0.200908	-0.549929	0.000174
H582	H	0.234767	-0.552227	-0.047584
H583	H	-0.562304	-0.409050	0.308680
H584	H	0.335043	-0.409068	-0.028878
O585	O	-0.450351	-0.245675	0.187255
C586	C	-0.417479	-0.211986	0.186569
H587	H	-0.383444	-0.202982	0.161391
H588	H	-0.421749	-0.188196	0.183345
H589	H	-0.420663	-0.217540	0.214414
H590	H	0.064808	0.098152	0.019035
O591	O	0.099883	0.268697	0.110782
C592	C	0.131039	0.303262	0.079710
H593	H	0.165670	0.314656	0.071067
H594	H	0.129032	0.297903	0.054465
H595	H	0.123610	0.325179	0.088471
O596	O	0.376688	-0.077996	-0.187051
C597	C	0.387999	-0.064767	-0.161648
H598	H	0.372459	-0.090269	-0.137303
H599	H	0.425475	-0.046554	-0.177657
H600	H	0.375208	-0.046781	-0.149441
H601	H	0.100131	-0.026521	0.028807
O602	O	-0.005506	-0.135150	0.028902
C603	C	0.019161	-0.147830	0.029063
H604	H	0.038335	-0.129828	0.040814
H605	H	-0.004197	-0.179155	0.047894
H606	H	0.043290	-0.144758	-0.001388
H607	H	0.267931	-0.351506	-0.019101
O608	O	-0.184838	-0.606701	0.506846
C609	C	-0.181354	-0.637779	0.506759
H610	H	-0.153649	-0.632184	0.476844
H611	H	-0.173695	-0.641197	0.527992
H612	H	-0.213898	-0.665086	0.515372
H613	H	0.167506	-0.083593	0.019063
H614	H	0.332793	-0.116391	-0.113952
H615	H	0.100368	-0.306171	0.308703
H616	H	-0.002298	-0.408829	0.411365
O617	O	0.170306	-0.245718	0.360433
C618	C	0.171814	-0.212028	0.359686
H619	H	0.171855	-0.203127	0.384788
H620	H	0.203153	-0.188187	0.331683
H621	H	0.141655	-0.217525	0.361984
O622	O	0.170396	0.094929	0.019228
C623	C	0.213504	0.113040	-0.014367
H624	H	0.227522	0.144026	-0.027441
H625	H	0.235429	0.112346	-0.007061
H626	H	0.212421	0.097395	-0.035765
H627	H	-0.732353	-0.533492	0.468971
O628	O	0.099212	-0.322548	0.111170
C629	C	0.060591	-0.359269	0.136568
H630	H	0.046539	-0.359234	0.167287
H631	H	0.035074	-0.367183	0.130329
H632	H	0.068931	-0.381084	0.132625
H633	H	-0.116983	-0.533275	0.365765
H634	H	-0.002509	-0.129196	-0.308775
O635	O	-0.670881	-0.411948	0.417290
C636	C	-0.683395	-0.387117	0.429970
H637	H	-0.669980	-0.364364	0.404224
H638	H	-0.720988	-0.404195	0.449401
H639	H	-0.669337	-0.372715	0.446539
H640	H	-0.562326	-0.306401	0.308670
O641	O	0.210981	0.171331	-0.506931
C642	C	0.245458	0.202410	-0.506846
H643	H	0.237651	0.196817	-0.476931
H644	H	0.277767	0.205827	-0.528078
H645	H	0.248833	0.229717	-0.515460
H646	H	-0.629125	-0.248761	0.365741
H647	H	-0.769653	-0.318930	0.500992
H648	H	-0.732075	-0.351477	0.468678
