data_functionalizedCrystal
_audit_creation_method	'MofGen! by Chris Wilmer'
_symmetry_space_group_name_H-M	'P1'
_symmetry_Int_Tables_number	1
_symmetry_cell_setting	triclinic
loop_
_symmetry_equiv_pos_as_xyz
  x,y,z
_cell_length_a	15.944557
_cell_length_b	15.944551
_cell_length_c	13.596369
_cell_angle_alpha	90.001122
_cell_angle_beta	90.000882
_cell_angle_gamma	96.499947
loop_
_atom_site_label
_atom_site_type_symbol
_atom_site_fract_x
_atom_site_fract_y
_atom_site_fract_z
O1	O	-1.114516	0.108360	0.081738
O2	O	-0.869967	0.121710	0.081748
O3	O	-0.998920	-0.007240	0.081749
O4	O	-0.985564	0.237310	0.081738
O5	O	-0.998918	-0.007248	-0.081834
O6	O	-0.869965	0.121702	-0.081835
O7	O	-1.114514	0.108352	-0.081845
Zn8	Zn	-0.992239	0.115026	-0.107812
Zn9	Zn	-0.992242	0.115036	0.107716
O10	O	-0.985562	0.237302	-0.081845
C11	C	-0.838672	0.121151	-0.000042
C12	C	-0.745427	0.119487	-0.000038
C13	C	-0.474796	0.034581	-0.000049
C14	C	-0.525376	0.075508	-0.080708
C15	C	-0.409785	0.113551	-0.000061
C16	C	-0.525359	0.075537	0.080572
C17	C	-0.574697	0.116463	-0.000048
C18	C	-0.459137	0.154457	-0.080785
C19	C	-0.459116	0.154474	0.080567
C20	C	-0.509664	0.195460	-0.000111
C21	C	-0.314783	0.111871	-0.000069
C22	C	-0.669696	0.118149	-0.000046
C23	C	-0.145811	0.108900	-0.000057
C24	C	-0.239061	0.110530	-0.000069
C25	C	-0.998364	-0.038538	-0.000039
C26	C	-0.996702	-0.131784	-0.000028
C27	C	-0.986117	0.268600	-0.000055
C28	C	-0.987779	0.361846	-0.000059
C29	C	-1.071684	0.576704	-0.000048
C30	C	-1.032720	0.637716	-0.080702
C31	C	-0.990787	0.532572	-0.000051
C32	C	-1.032703	0.637709	0.080578
C33	C	-0.993697	0.697485	-0.000038
C34	C	-0.951801	0.592355	-0.080772
C35	C	-0.951796	0.592342	0.080581
C36	C	-0.912773	0.653336	-0.000093
C37	C	-0.989112	0.437569	-0.000059
C38	C	-0.995366	0.792486	-0.000037
N39	N	-0.992245	0.115038	0.254807
N40	N	-0.992244	0.115018	-0.254904
C41	C	-0.992240	0.115028	0.656098
C42	C	-0.992238	0.115033	0.544447
C43	C	-0.992242	0.115033	0.455456
C44	C	-0.992241	0.115038	0.343798
H45	H	-0.459142	-0.033432	-0.000125
N46	N	-0.420985	0.198598	-0.171212
H47	H	-0.357818	0.197184	-0.170674
H48	H	-0.445760	0.168978	-0.232004
N49	N	-1.160623	0.532576	-0.000143
H50	H	-1.202098	0.575986	-0.000814
H51	H	-1.169384	0.495681	-0.060482
N52	N	-0.906515	0.565885	-0.171198
H53	H	-0.855966	0.537171	-0.150745
H54	H	-0.946192	0.525472	-0.211274
H55	H	-1.066935	0.657820	-0.148892
N56	N	-0.530176	0.285622	-0.000174
H57	H	-0.564524	0.295837	-0.060531
H58	H	-0.563643	0.296127	0.060785
H59	H	-0.430171	0.187800	0.148757
N60	N	-0.563669	0.031351	0.170892
H61	H	-0.517682	0.009690	0.211568
H62	H	-0.593181	0.072387	0.211229
N63	N	-1.078037	0.664313	0.170906
H64	H	-1.038273	0.704363	0.211326
H65	H	-1.128241	0.693473	0.150257
N66	N	-0.823753	0.697259	-0.000138
H67	H	-0.793314	0.680781	-0.061083
H68	H	-0.825422	0.760388	0.000479
H69	H	-0.554306	0.042153	-0.148895
N70	N	-0.906510	0.565673	0.170905
H71	H	-0.937125	0.581978	0.231800
H72	H	-0.905260	0.502492	0.169791
