data_functionalizedCrystal
_audit_creation_method	'MofGen! by Chris Wilmer'
_symmetry_space_group_name_H-M	'P1'
_symmetry_Int_Tables_number	1
_symmetry_cell_setting	triclinic
loop_
_symmetry_equiv_pos_as_xyz
  x,y,z
_cell_length_a	19.077105
_cell_length_b	13.897448
_cell_length_c	19.076919
_cell_angle_alpha	92.272955
_cell_angle_beta	90.076224
_cell_angle_gamma	87.714101
loop_
_atom_site_label
_atom_site_type_symbol
_atom_site_fract_x
_atom_site_fract_y
_atom_site_fract_z
Zn1	Zn	1.058310	-0.466652	-0.440425
Zn2	Zn	1.062963	-0.621745	-0.322920
Zn3	Zn	0.945527	-0.453730	-0.318218
Zn4	Zn	0.940785	-0.621164	-0.435673
O5	O	1.001896	-0.540823	-0.379309
O6	O	1.157260	-0.492877	-0.428794
O7	O	1.051317	-0.594293	-0.223965
O8	O	0.960525	-0.320466	-0.334450
O9	O	1.160678	-0.606823	-0.342464
O10	O	1.043386	-0.329960	-0.424235
O11	O	0.965037	-0.470854	-0.220510
O12	O	0.846566	-0.470290	-0.329842
O13	O	0.952443	-0.605832	-0.534635
O14	O	0.843082	-0.593302	-0.416136
O15	O	1.038788	-0.492313	-0.538126
O16	O	1.046719	-0.756647	-0.337856
O17	O	0.956955	-0.756219	-0.420695
C18	C	0.819327	-0.530331	-0.371963
C19	C	0.741223	-0.525867	-0.368837
C20	C	1.001846	-0.791433	-0.379287
C21	C	1.001888	-0.898650	-0.379303
C22	C	0.702736	-0.587905	-0.412227
C23	C	0.629349	-0.583698	-0.409293
C24	C	0.594449	-0.517456	-0.362966
C25	C	0.632940	-0.455412	-0.319575
C26	C	0.706327	-0.459615	-0.322513
C27	C	0.375160	-0.498004	-0.349373
C28	C	0.301769	-0.493807	-0.346437
C29	C	0.298182	-0.622092	-0.436157
C30	C	0.371570	-0.626293	-0.439087
C31	C	0.410055	-0.564245	-0.395699
N32	N	0.519435	-0.513157	-0.359965
N33	N	0.485067	-0.568541	-0.398704
C34	C	1.001960	-1.094952	-0.379350
C35	C	1.001918	-0.985716	-0.379326
C36	C	1.185178	-0.551356	-0.386684
C37	C	1.263282	-0.555845	-0.389826
C38	C	0.994568	-0.550449	-0.562589
C39	C	0.991445	-0.554551	-0.640692
C40	C	1.001966	-0.289236	-0.379348
C41	C	1.001995	-0.182024	-0.379364
C42	C	1.034931	-0.497377	-0.679204
C43	C	1.031988	-0.501227	-0.752590
C44	C	0.985562	-0.562257	-0.787463
C45	C	0.942071	-0.619432	-0.748946
C46	C	0.945011	-0.615576	-0.675561
C47	C	0.971945	-0.580121	-1.006744
C48	C	0.969010	-0.583975	-1.080134
C49	C	1.058926	-0.465768	-1.083773
C50	C	1.061865	-0.461922	-1.010387
C51	C	1.018372	-0.519094	-0.971877
N52	N	0.982554	-0.566196	-0.862475
N53	N	1.021376	-0.515149	-0.896866
C54	C	1.009237	-0.531167	-0.196743
C55	C	1.012496	-0.526801	-0.118646
H56	H	0.598016	-0.634216	-0.444625
C57	C	0.594556	-0.382544	-0.268617
H58	H	0.627989	-0.346192	-0.243201
H59	H	0.567141	-0.416124	-0.236806
H60	H	0.564865	-0.340347	-0.294410
H61	H	0.731147	-0.641849	-0.449949
H62	H	0.266840	-0.672607	-0.471482
H63	H	0.399980	-0.680236	-0.476810
C64	C	0.263380	-0.420933	-0.295480
H65	H	0.296810	-0.384574	-0.270065
H66	H	0.235965	-0.454512	-0.263668
H67	H	0.233688	-0.378742	-0.321277
H68	H	0.936540	-0.626689	-0.975398
C69	C	0.417485	-0.429770	-0.301636
H70	H	0.386187	-0.389730	-0.273618
H71	H	0.445053	-0.390847	-0.329706
H72	H	0.447321	-0.466645	-0.272116
H73	H	0.737661	-0.409092	-0.287184
C74	C	1.085996	-0.430240	-0.640850
H75	H	1.111467	-0.396733	-0.674299
H76	H	1.117752	-0.467386	-0.613449
H77	H	1.060267	-0.385161	-0.611149
H78	H	0.931203	-0.633674	-1.108525
C79	C	1.079826	-0.438341	-0.794950
H80	H	1.107902	-0.401453	-0.763671
H81	H	1.051814	-0.396269	-0.822501
H82	H	1.109286	-0.478512	-0.824805
C83	C	1.112933	-0.394790	-0.972032
H84	H	1.138408	-0.361286	-1.005479
H85	H	1.144685	-0.431947	-0.944634
H86	H	1.087210	-0.349709	-0.942328
C87	C	1.106759	-0.402878	-1.126136
H88	H	1.098357	-0.413906	-1.174836
H89	H	1.154450	-0.419072	-1.116010
H90	H	1.096967	-0.336843	-1.113704
H91	H	0.904268	-0.669120	-0.777345
C92	C	0.897194	-0.678492	-0.633199
H93	H	0.869133	-0.715404	-0.664477
H94	H	0.867730	-0.638350	-0.603335
H95	H	0.925228	-0.720558	-0.605658
