data_functionalizedCrystal
_audit_creation_method	'MofGen! by Chris Wilmer'
_symmetry_space_group_name_H-M	'P1'
_symmetry_Int_Tables_number	1
_symmetry_cell_setting	triclinic
loop_
_symmetry_equiv_pos_as_xyz
  x,y,z
_cell_length_a	10.685980
_cell_length_b	15.298853
_cell_length_c	10.686551
_cell_angle_alpha	104.744409
_cell_angle_beta	98.408259
_cell_angle_gamma	83.927177
loop_
_atom_site_label
_atom_site_type_symbol
_atom_site_fract_x
_atom_site_fract_y
_atom_site_fract_z
Zn1	Zn	2.041253	-0.202204	0.821277
Zn2	Zn	2.061577	-0.365634	0.572298
Zn3	Zn	1.818326	-0.227312	0.587101
Zn4	Zn	1.865681	-0.365546	0.768228
O5	O	1.946709	-0.290174	0.687226
O6	O	2.219228	-0.213412	0.804256
O7	O	2.017997	-0.357830	0.394261
O8	O	1.819573	-0.097734	0.646561
O9	O	2.234160	-0.333483	0.621332
O10	O	1.983357	-0.079287	0.818610
O11	O	1.839281	-0.256206	0.405136
O12	O	1.649329	-0.256121	0.595122
O13	O	1.900284	-0.333334	0.955266
O14	O	1.684121	-0.357681	0.728195
O15	O	2.029276	-0.213327	0.994241
O16	O	2.063916	-0.491870	0.569892
O17	O	1.919992	-0.491806	0.713841
C18	C	1.621277	-0.309616	0.657509
C19	C	1.482062	-0.317954	0.644821
C20	C	1.999334	-0.524569	0.634535
C21	C	2.021964	-0.624834	0.612047
C22	C	2.107592	-0.671931	0.526612
C23	C	2.128865	-0.766135	0.505490
C24	C	2.064505	-0.813252	0.569792
C25	C	1.978868	-0.766156	0.655222
C26	C	1.957600	-0.671942	0.676354
C27	C	1.914513	-0.813263	0.719534
C28	C	1.828877	-0.766167	0.804964
C29	C	1.807612	-0.671962	0.826092
C30	C	1.871972	-0.624845	0.761789
C31	C	1.935781	-0.907476	0.698402
C32	C	1.785790	-0.907487	0.848144
C33	C	1.764517	-0.813284	0.869267
C34	C	2.273413	-0.270656	0.717060
C35	C	2.412635	-0.262339	0.729774
C36	C	1.967795	-0.270520	1.022731
C37	C	1.976781	-0.262144	1.165703
C38	C	1.893916	-0.054860	0.740154
C39	C	1.871418	0.045416	0.762709
C40	C	1.925763	-0.309683	0.353048
C41	C	1.916963	-0.317789	0.210156
H42	H	2.005509	-0.945812	0.628846
H43	H	1.694791	-0.774926	0.938825
C44	C	1.476204	-0.189393	0.841153
C45	C	1.434643	-0.088483	0.852342
C46	C	1.498222	-0.015536	0.963723
C47	C	1.603362	-0.043498	1.063915
C48	C	1.644928	-0.144413	1.052730
C49	C	1.581350	-0.217361	0.941349
H50	H	1.356807	-0.067779	0.778170
H51	H	1.467451	0.059168	0.972002
H52	H	1.650426	0.010501	1.146366
H53	H	1.722764	-0.165118	1.126901
H54	H	1.612121	-0.292065	0.933069
C55	C	1.418488	-0.390904	0.533436
C56	C	1.313349	-0.362942	0.433241
C57	C	1.249774	-0.435891	0.321859
C58	C	1.291339	-0.536800	0.310671
C59	C	1.396483	-0.564767	0.410869
C60	C	1.460057	-0.491818	0.522252
H61	H	1.282576	-0.288239	0.441520
H62	H	1.171939	-0.415188	0.247685
H63	H	1.244277	-0.590801	0.228219
H64	H	1.427256	-0.639470	0.402590
H65	H	1.537892	-0.512521	0.596425
C66	C	2.087915	-0.916879	0.546505
C67	C	2.059707	-0.977872	0.408275
C68	C	2.083126	-1.081505	0.384956
C69	C	2.134753	-1.124144	0.499867
C70	C	2.162964	-1.063150	0.638107
C71	C	2.139545	-0.959517	0.661426
H72	H	2.021487	-0.946309	0.323202
H73	H	2.062242	-1.126657	0.282620
H74	H	2.152089	-1.200860	0.482605
H75	H	2.201184	-1.094714	0.723180
H76	H	2.160429	-0.914366	0.763761
C77	C	1.838486	-0.390807	1.113815
C78	C	1.725637	-0.362939	1.021257
C79	C	1.647159	-0.435958	0.924906
C80	C	1.681529	-0.536845	0.921114
C81	C	1.794384	-0.564719	1.013675
C82	C	1.872862	-0.491700	1.110026
H83	H	1.700189	-0.288251	1.024061
H84	H	1.563616	-0.415324	0.856387
H85	H	1.623435	-0.590898	0.849790
H86	H	1.819832	-0.639406	1.010871
H87	H	1.956404	-0.512334	1.178545
H88	H	2.198590	-0.804473	0.435932
H89	H	2.159994	-0.633561	0.474272
H90	H	1.854657	-0.548137	0.778983
H91	H	2.034877	-0.208096	1.237031
H92	H	1.737893	-0.633615	0.895665
H93	H	1.733386	-0.945849	0.900508
