data_functionalizedCrystal
_audit_creation_method	'MofGen! by Chris Wilmer'
_symmetry_space_group_name_H-M	'P1'
_symmetry_Int_Tables_number	1
_symmetry_cell_setting	triclinic
loop_
_symmetry_equiv_pos_as_xyz
  x,y,z
_cell_length_a	33.428889
_cell_length_b	33.428139
_cell_length_c	33.424847
_cell_angle_alpha	60.004234
_cell_angle_beta	60.008465
_cell_angle_gamma	59.994972
loop_
_atom_site_label
_atom_site_type_symbol
_atom_site_fract_x
_atom_site_fract_y
_atom_site_fract_z
O1	O	0.055565	-0.584504	0.488714
O2	O	0.020982	-0.455083	0.393778
O3	O	0.102943	-0.536959	0.393689
O4	O	-0.026396	-0.502628	0.488803
O5	O	0.130140	-0.509767	0.420792
O6	O	0.048179	-0.427891	0.420881
O7	O	0.082762	-0.557312	0.515817
Cu8	Cu	0.067954	-0.490119	0.470823
Cu9	Cu	0.035790	-0.522276	0.438771
O10	O	0.000801	-0.475436	0.515906
N11	N	0.090577	-0.467504	0.493370
N12	N	0.013171	-0.544895	0.416225
C13	C	0.143377	-0.280390	0.546067
C14	C	0.143515	-0.414755	0.680369
C15	C	0.143392	-0.414735	0.546069
C16	C	0.277766	-0.414702	0.545966
C17	C	0.158177	-0.324719	0.560828
C18	C	0.158255	-0.399967	0.636038
C19	C	0.233434	-0.399936	0.560773
C20	C	0.158186	-0.399955	0.560829
C21	C	0.124540	-0.223964	0.527278
C22	C	0.124565	-0.433545	0.527281
C23	C	0.177014	-0.381145	0.579617
C24	C	0.359814	-0.400540	0.502735
C25	C	0.411105	-0.417624	0.485606
C26	C	0.411136	-0.500620	0.517255
C27	C	0.359845	-0.483534	0.534385
C28	C	0.136887	-0.198305	0.476855
C29	C	0.119761	-0.147011	0.459777
C30	C	0.077945	-0.147038	0.543547
C31	C	0.095072	-0.198332	0.560625
C32	C	0.074134	-0.421169	0.539710
C33	C	0.057023	-0.438269	0.522625
C34	C	0.140770	-0.480120	0.480694
C35	C	0.157883	-0.463020	0.497773
C36	C	0.074339	-0.421208	0.762475
C37	C	0.057288	-0.438323	0.813768
C38	C	0.141075	-0.480183	0.813699
C39	C	0.158125	-0.463069	0.762404
C40	C	0.124756	-0.433580	0.736794
C41	C	0.334186	-0.433494	0.527123
C42	C	-0.173769	-0.597444	0.363037
C43	C	-0.039302	-0.597595	0.228856
C44	C	-0.039496	-0.597587	0.363300
C45	C	-0.039512	-0.731889	0.363237
C46	C	-0.129442	-0.612265	0.348329
C47	C	-0.054138	-0.612351	0.273187
C48	C	-0.054257	-0.687554	0.348440
C49	C	-0.054247	-0.612346	0.348477
C50	C	-0.230191	-0.578579	0.381758
C51	C	-0.020722	-0.578803	0.382168
C52	C	-0.073020	-0.631130	0.329609
C53	C	-0.053713	-0.813916	0.406386
C54	C	-0.036654	-0.865210	0.423504
C55	C	0.046338	-0.865293	0.391984
C56	C	0.029278	-0.813999	0.374865
C57	C	-0.255900	-0.590938	0.432169
C58	C	-0.307191	-0.573786	0.449185
C59	C	-0.307060	-0.531922	0.365377
C60	C	-0.255769	-0.549074	0.348360
C61	C	-0.033081	-0.528377	0.369764
C62	C	-0.016014	-0.511306	0.386922
C63	C	0.025770	-0.595083	0.428877
C64	C	0.008703	-0.612156	0.411725
C65	C	-0.032755	-0.528393	0.146761
C66	C	-0.015585	-0.511324	0.095468
C67	C	0.026262	-0.595106	0.095516
C68	C	0.009094	-0.612174	0.146811
C69	C	-0.020417	-0.578816	0.172432
C70	C	-0.020748	-0.788312	0.382068
N71	N	0.436037	-0.467415	0.493101
O72	O	0.592642	-0.471896	0.376066
O73	O	0.592838	-0.567146	0.505347
O74	O	0.592754	-0.566928	0.423360
O75	O	0.592727	-0.472113	0.458053
O76	O	0.511269	-0.539835	0.450606
O77	O	0.511353	-0.540052	0.532594
O78	O	0.511157	-0.444802	0.403312
Cu79	Cu	0.503815	-0.489954	0.470441
Cu80	Cu	0.600180	-0.521995	0.438219
O81	O	0.511242	-0.445020	0.485300
N82	N	0.667959	-0.544533	0.415554
N83	N	0.090544	-0.122107	0.493359
O84	O	-0.026406	0.034587	0.488773
O85	O	0.102877	0.034627	0.393499
O86	O	0.020848	0.034591	0.393771
O87	O	0.055623	0.034623	0.488500
O88	O	0.048051	-0.046899	0.420925
O89	O	0.130080	-0.046864	0.420653
O90	O	0.000796	-0.046903	0.515927
Cu91	Cu	0.067922	-0.054324	0.470769
Cu92	Cu	0.035752	0.042048	0.438656
O93	O	0.082825	-0.046867	0.515655
N94	N	0.013123	0.109830	0.416068
N95	N	0.090892	-0.467554	0.838649
O96	O	0.086330	-0.584488	0.995334
O97	O	-0.008902	-0.455160	0.995379
O98	O	-0.008679	-0.537172	0.995355
O99	O	0.086107	-0.502475	0.995358
O100	O	0.018452	-0.509990	0.913868
O101	O	0.018230	-0.427978	0.913891
O102	O	0.113461	-0.557306	0.913847
Cu103	Cu	0.068323	-0.490160	0.906429
Cu104	Cu	0.036237	-0.522306	1.002797
O105	O	0.113239	-0.475293	0.913870
N106	N	0.013667	-0.544916	1.070577
C107	C	0.031339	-0.425179	0.394250
C108	C	0.132837	-0.526572	0.394139
C109	C	0.072405	-0.587216	0.515344
C110	C	-0.029093	-0.485823	0.515455
C111	C	0.552119	-0.566716	0.535258
C112	C	0.552016	-0.566447	0.433726
C113	C	0.551873	-0.445232	0.373402
C114	C	0.551980	-0.445502	0.474933
C115	C	0.132731	-0.006013	0.393923
C116	C	0.031182	-0.006158	0.394293
C117	C	-0.029092	-0.006163	0.515469
C118	C	0.072491	-0.006119	0.515133
C119	C	-0.008451	-0.425276	0.954641
C120	C	-0.008170	-0.526833	0.954596
C121	C	0.113010	-0.587190	0.954585
C122	C	0.112735	-0.485627	0.954611
H123	H	0.047163	-0.397193	0.741627
H124	H	0.169984	-0.533889	0.364272
H125	H	0.551811	-0.415327	0.336274
C126	C	0.551966	-0.405261	0.484957
C127	C	0.552025	-0.415293	0.535191
C128	C	0.552012	-0.375053	0.545215
C129	C	0.551938	-0.324780	0.505004
C130	C	0.551879	-0.314745	0.454767
C131	C	0.551893	-0.354986	0.444743
H132	H	0.552080	-0.452511	0.564960
H133	H	0.552056	-0.382481	0.582404
H134	H	0.551928	-0.294991	0.512425
H135	H	0.551825	-0.277528	0.424998
H136	H	0.551848	-0.347557	0.407554
H137	H	0.023733	-0.006162	0.364531
H138	H	-0.066242	-0.478508	0.545321
C139	C	0.182783	-0.005689	0.353412
C140	C	0.223127	-0.005515	0.363119
C141	C	0.273180	-0.005190	0.322609
C142	C	0.282888	-0.005040	0.272391
C143	C	0.242542	-0.005215	0.262682
C144	C	0.192490	-0.005539	0.303193
H145	H	0.215942	-0.005626	0.400296
H146	H	0.303046	-0.005061	0.329797
H147	H	0.319939	-0.004800	0.242403
H148	H	0.249728	-0.005103	0.225506
H149	H	0.162624	-0.005668	0.296005
H150	H	0.552170	-0.596617	0.572390
H151	H	0.552029	-0.596233	0.426301
C152	C	0.152967	-0.475599	0.954604
C153	C	0.142936	-0.425348	0.954616
C154	C	0.183168	-0.415320	0.954608
C155	C	0.233432	-0.455545	0.954589
C156	C	0.243465	-0.505800	0.954578
C157	C	0.203233	-0.515827	0.954585
H158	H	0.105726	-0.395568	0.954630
H159	H	0.175741	-0.378118	0.954617
H160	H	0.263214	-0.448122	0.954584
H161	H	0.280675	-0.535580	0.954564
H162	H	0.210661	-0.553030	0.954577
H163	H	0.023949	-0.388000	0.364433
C164	C	0.082383	-0.637441	0.555629
C165	C	0.050630	-0.669086	0.576747
C166	C	0.060608	-0.719310	0.617031
C167	C	0.102340	-0.737889	0.636197
C168	C	0.134096	-0.706243	0.615079
C169	C	0.124118	-0.656019	0.574795
H170	H	0.019735	-0.655333	0.562559
H171	H	0.037100	-0.742736	0.632664
H172	H	0.109726	-0.775068	0.666018
H173	H	0.164991	-0.719996	0.629267
H174	H	0.147626	-0.632593	0.559162
H175	H	-0.066220	-0.006175	0.545378
H176	H	-0.038348	-0.388133	0.954654
C177	C	0.001827	-0.424702	0.842013
C178	C	-0.034874	-0.392261	0.813838
C179	C	-0.090335	-0.378643	0.842083
C180	C	-0.109096	-0.397465	0.898502
C181	C	-0.072395	-0.429908	0.926680
C182	C	-0.016933	-0.443527	0.898436
H183	H	-0.020986	-0.378326	0.772070
H184	H	-0.117504	-0.354627	0.821223
H185	H	-0.150152	-0.387384	0.919411
H186	H	-0.086282	-0.443843	0.968448
H187	H	0.010235	-0.467543	0.919295
C188	C	0.082549	-0.006111	0.555342
C189	C	0.132803	-0.006092	0.545284
C190	C	0.142860	-0.006084	0.585493
C191	C	0.102664	-0.006094	0.635761
C192	C	0.052407	-0.006113	0.645822
C193	C	0.042349	-0.006121	0.605612
H194	H	0.162561	-0.006085	0.508070
H195	H	0.180064	-0.006070	0.578045
H196	H	0.110110	-0.006088	0.665527
H197	H	0.022648	-0.006120	0.683035
H198	H	0.005145	-0.006135	0.613060
C199	C	0.153403	-0.637365	0.954567
C200	C	0.174503	-0.668922	0.996873
C201	C	0.214896	-0.719098	0.996856
C202	C	0.234190	-0.737717	0.954532
C203	C	0.213090	-0.706160	0.912222
C204	C	0.172697	-0.655984	0.912240
H205	H	0.160221	-0.655139	1.028207
H206	H	0.230516	-0.742458	1.028176
H207	H	0.264091	-0.774860	0.954519
H208	H	0.227372	-0.719943	0.880889
H209	H	0.157077	-0.632624	0.880920
C210	C	-0.048383	-0.536842	0.954548
C211	C	-0.067531	-0.578586	0.996830
C212	C	-0.107745	-0.588595	0.996782
C213	C	-0.128810	-0.556859	0.954451
C214	C	-0.109663	-0.515111	0.912166
C215	C	-0.069449	-0.505103	0.912214
H216	H	-0.051937	-0.602082	1.028169
H217	H	-0.121919	-0.619499	1.028084
H218	H	-0.158579	-0.564268	0.954415
H219	H	-0.125257	-0.491616	0.880827
H220	H	-0.055275	-0.474198	0.880911
C221	C	0.177781	-0.512612	0.841873
C222	C	0.214679	-0.492970	0.834793
C223	C	0.251383	-0.525402	0.862968
C224	C	0.251188	-0.577475	0.898222
C225	C	0.214289	-0.597120	0.905303
C226	C	0.177585	-0.564688	0.877128
H227	H	0.214824	-0.454420	0.808694
H228	H	0.278699	-0.510860	0.857725
H229	H	0.278359	-0.601483	0.919078
H230	H	0.214143	-0.635670	0.931401
H231	H	0.150269	-0.579230	0.882370
C232	C	0.213587	-0.476679	0.734157
C233	C	0.245797	-0.461743	0.741181
C234	C	0.301258	-0.475352	0.712935
C235	C	0.324510	-0.503896	0.677664
C236	C	0.292300	-0.518834	0.670637
C237	C	0.236839	-0.505225	0.698884
H238	H	0.228585	-0.440612	0.767292
H239	H	0.325102	-0.464294	0.718136
H240	H	0.365566	-0.513970	0.656754
H241	H	0.309512	-0.539965	0.644526
H242	H	0.212995	-0.516283	0.693682
C243	C	0.037483	-0.388742	0.572162
C244	C	0.000614	-0.408383	0.621648
C245	C	-0.036039	-0.375954	0.654102
C246	C	-0.035823	-0.323885	0.637069
C247	C	0.001047	-0.304242	0.587580
C248	C	0.037700	-0.336670	0.555127
H249	H	0.000453	-0.446930	0.634259
H250	H	-0.063333	-0.390496	0.690736
H251	H	-0.062956	-0.299880	0.661093
H252	H	0.001208	-0.265695	0.574969
H253	H	0.064994	-0.322129	0.518492
C254	C	0.001550	-0.424658	0.536288
C255	C	-0.021694	-0.465218	0.564841
C256	C	-0.077167	-0.451605	0.578500
C257	C	-0.109395	-0.397433	0.563606
C258	C	-0.086152	-0.356869	0.535052
C259	C	-0.030679	-0.370482	0.521392
H260	H	0.002163	-0.505323	0.575867
H261	H	-0.094373	-0.481633	0.599638
H262	H	-0.150459	-0.387356	0.573718
H263	H	-0.110009	-0.316764	0.524025
H264	H	-0.013473	-0.340454	0.500254
C265	C	0.177423	-0.512547	0.448238
C266	C	0.214355	-0.562018	0.467831
C267	C	0.251006	-0.594443	0.435375
C268	C	0.250724	-0.577398	0.383325
C269	C	0.213790	-0.527925	0.363728
C270	C	0.177140	-0.495499	0.396185
H271	H	0.214565	-0.574638	0.506365
H272	H	0.278347	-0.631066	0.449882
H273	H	0.277855	-0.601401	0.359298
H274	H	0.213580	-0.515305	0.325195
H275	H	0.149799	-0.458876	0.381678
H276	H	0.338981	-0.510371	0.554246
C277	C	0.213355	-0.476620	0.484105
C278	C	0.245597	-0.530787	0.498997
C279	C	0.301068	-0.544383	0.485330
C280	C	0.324297	-0.503811	0.456772
C281	C	0.292055	-0.449640	0.441878
C282	C	0.236584	-0.436044	0.455545
H283	H	0.228402	-0.560825	0.520139
H284	H	0.324935	-0.584484	0.496356
H285	H	0.365359	-0.513875	0.446655
H286	H	0.309250	-0.419603	0.420736
H287	H	0.212716	-0.395943	0.444520
C288	C	0.439362	-0.555664	0.525241
C289	C	0.432358	-0.592968	0.577577
C290	C	0.460586	-0.648013	0.585562
C291	C	0.495819	-0.665754	0.541211
C292	C	0.502825	-0.628449	0.488871
C293	C	0.474596	-0.573404	0.480886
H294	H	0.406275	-0.579836	0.610412
H295	H	0.455400	-0.675628	0.624308
H296	H	0.516715	-0.706501	0.547122
H297	H	0.528907	-0.641581	0.456037
H298	H	0.479782	-0.545789	0.442140
C299	C	0.439300	-0.381375	0.458774
C300	C	0.411078	-0.326331	0.450782
C301	C	0.439275	-0.290082	0.423946
C302	C	0.495693	-0.308877	0.405103
C303	C	0.523918	-0.363924	0.413094
C304	C	0.495722	-0.400173	0.439930
H305	H	0.369312	-0.312415	0.464731
H306	H	0.418380	-0.249333	0.418031
H307	H	0.516565	-0.282044	0.385237
H308	H	0.565685	-0.377840	0.399145
H309	H	0.516616	-0.440922	0.445845
H310	H	0.160882	-0.219171	0.449698
C311	C	0.331587	-0.345494	0.494749
C312	C	0.338597	-0.308192	0.442411
C313	C	0.310372	-0.253146	0.434423
C314	C	0.275136	-0.235403	0.478773
C315	C	0.268125	-0.272705	0.531113
C316	C	0.296350	-0.327751	0.539101
H317	H	0.364681	-0.321326	0.409578
H318	H	0.315562	-0.225532	0.395677
H319	H	0.254242	-0.194654	0.472859
H320	H	0.242040	-0.259571	0.563947
H321	H	0.291159	-0.355365	0.577848
H322	H	0.129813	-0.126117	0.418717
H323	H	0.085016	-0.219221	0.601683
C324	C	0.045533	-0.118840	0.580228
C325	C	0.031959	-0.147066	0.635694
C326	C	-0.000455	-0.118870	0.672376
C327	C	-0.019295	-0.062448	0.653592
C328	C	-0.005721	-0.034219	0.598123
C329	C	0.026693	-0.062415	0.561441
H330	H	0.045906	-0.188836	0.649602
H331	H	-0.010503	-0.139767	0.713438
H332	H	-0.043289	-0.041576	0.680746
H333	H	-0.019667	0.007550	0.584216
H334	H	0.036741	-0.041518	0.520380
H335	H	-0.025639	-0.470264	0.074572
C336	C	-0.065218	-0.491697	0.174942
C337	C	-0.078791	-0.436232	0.146704
C338	C	-0.111251	-0.399537	0.174885
C339	C	-0.130139	-0.418307	0.231304
C340	C	-0.116567	-0.473774	0.259546
C341	C	-0.084106	-0.510470	0.231365
H342	H	-0.064809	-0.422335	0.104936
H343	H	-0.121298	-0.358476	0.153978
H344	H	-0.154168	-0.391143	0.252166
H345	H	-0.130549	-0.487671	0.301314
H346	H	-0.074059	-0.551531	0.252271
H347	H	0.050281	-0.622271	0.074658
H348	H	-0.057039	-0.501216	0.345698
C349	C	0.022666	-0.667644	0.175047
C350	C	0.076820	-0.699896	0.168082
C351	C	0.090391	-0.755364	0.196317
C352	C	0.049808	-0.778581	0.231518
C353	C	-0.004350	-0.746328	0.238485
C354	C	-0.017921	-0.690860	0.210249
H355	H	0.106866	-0.682710	0.142023
H356	H	0.130483	-0.779239	0.191160
H357	H	0.059854	-0.819642	0.252419
H358	H	-0.034396	-0.763514	0.264543
H359	H	-0.058013	-0.666985	0.215407
C360	C	-0.029606	-0.455838	0.373284
C361	C	0.010967	-0.432622	0.344809
C362	C	-0.002625	-0.377154	0.331174
C363	C	-0.056792	-0.344903	0.346014
C364	C	-0.097369	-0.368118	0.374491
C365	C	-0.083776	-0.423585	0.388127
H366	H	0.051067	-0.456497	0.333821
H367	H	0.027413	-0.359969	0.310093
H368	H	-0.066854	-0.303842	0.335921
H369	H	-0.137469	-0.344243	0.385479
H370	H	-0.113814	-0.440771	0.409207
C371	C	0.058142	-0.631775	0.461387
C372	C	0.110206	-0.631596	0.444440
C373	C	0.142576	-0.668286	0.476950
C374	C	0.122883	-0.705154	0.526407
C375	C	0.070817	-0.705334	0.543356
C376	C	0.038446	-0.668645	0.510846
H377	H	0.124786	-0.604303	0.407827
H378	H	0.181119	-0.668152	0.464403
H379	H	0.146845	-0.732313	0.550473
H380	H	0.056236	-0.732627	0.579970
H381	H	-0.000097	-0.668778	0.523394
H382	H	0.018765	-0.653217	0.421828
H383	H	0.056124	-0.793157	0.355062
H384	H	0.087072	-0.886205	0.386121
H385	H	-0.094449	-0.793002	0.412253
C386	C	-0.072917	-0.893377	0.450258
C387	C	-0.114954	-0.886281	0.497862
C388	C	-0.151218	-0.914447	0.524621
C389	C	-0.145445	-0.949708	0.503775
C390	C	-0.103406	-0.956806	0.456168
C391	C	-0.067142	-0.928640	0.429409
H392	H	-0.119229	-0.860177	0.513296
H393	H	-0.182338	-0.909193	0.559863
H394	H	-0.172289	-0.970559	0.523583
H395	H	-0.099131	-0.982910	0.440734
H396	H	-0.036022	-0.933894	0.394167
H397	H	-0.235077	-0.614964	0.459366
H398	H	-0.327887	-0.507903	0.338181
C399	C	-0.335479	-0.587374	0.504639
C400	C	-0.370750	-0.546797	0.527872
C401	C	-0.399038	-0.560383	0.583326
C402	C	-0.392055	-0.614545	0.615546
C403	C	-0.356783	-0.655125	0.592313
C404	C	-0.328495	-0.641540	0.536859
H405	H	-0.375920	-0.506700	0.504020
H406	H	-0.425149	-0.530342	0.600524
H407	H	-0.412996	-0.624601	0.656596
H408	H	-0.351613	-0.695222	0.616165
H409	H	-0.302384	-0.671581	0.519661
C410	C	-0.227490	-0.535480	0.292907
C411	C	-0.255628	-0.503024	0.256174
C412	C	-0.227348	-0.489428	0.200718
C413	C	-0.170930	-0.508290	0.181996
C414	C	-0.142789	-0.540748	0.218730
C415	C	-0.171069	-0.554344	0.274186
H416	H	-0.297395	-0.489059	0.270032
H417	H	-0.248180	-0.465400	0.173525
H418	H	-0.149996	-0.498226	0.140945
H419	H	-0.101022	-0.554713	0.204872
H420	H	-0.150237	-0.578372	0.301379
