data_functionalizedCrystal
_audit_creation_method	'MofGen! by Chris Wilmer'
_symmetry_space_group_name_H-M	'P1'
_symmetry_Int_Tables_number	1
_symmetry_cell_setting	triclinic
loop_
_symmetry_equiv_pos_as_xyz
  x,y,z
_cell_length_a	10.540514
_cell_length_b	23.532407
_cell_length_c	9.016244
_cell_angle_alpha	89.993097
_cell_angle_beta	89.992124
_cell_angle_gamma	83.681919
loop_
_atom_site_label
_atom_site_type_symbol
_atom_site_fract_x
_atom_site_fract_y
_atom_site_fract_z
O1	O	1.683280	0.080183	-0.123376
O2	O	1.313614	0.087759	-0.123376
O3	O	1.509595	0.001112	-0.123349
O4	O	1.487300	0.166829	-0.123403
O5	O	1.509566	0.001114	0.123332
O6	O	1.313586	0.087761	0.123304
O7	O	1.683252	0.080185	0.123305
Cu8	Cu	1.498416	0.083973	0.145829
Cu9	Cu	1.498450	0.083971	-0.145900
O10	O	1.487272	0.166831	0.123277
C11	C	1.266315	0.087195	-0.000036
C12	C	1.125421	0.085504	-0.000035
C13	C	1.052682	0.147473	-0.000058
C14	C	0.906126	0.145735	-0.000625
C15	C	0.934206	0.051802	-0.140625
C16	C	1.080674	0.053979	-0.140736
C17	C	1.081074	0.053064	0.139796
C18	C	0.934115	0.052466	0.141637
C19	C	1.509013	-0.020106	-0.000005
C20	C	1.507306	-0.083335	0.000007
C21	C	1.612577	-0.481747	-0.000075
C22	C	1.610991	-0.541157	-0.000086
O23	O	1.708578	-0.577261	-0.000140
N24	N	1.494481	-0.564548	-0.000085
C25	C	1.379549	-0.528525	-0.000088
O26	O	1.280302	-0.553876	-0.000089
C27	C	1.381136	-0.469116	-0.000087
C28	C	1.497654	-0.445728	-0.000073
C29	C	1.729085	-0.458358	-0.000062
C30	C	1.730670	-0.398952	-0.000048
C31	C	1.615747	-0.362933	-0.000046
C32	C	1.499239	-0.386322	-0.000059
C33	C	1.266205	-0.433094	-0.000101
C34	C	1.267802	-0.373681	-0.000101
C35	C	1.384320	-0.350293	-0.000087
C36	C	1.385901	-0.290897	-0.000043
N37	N	1.502411	-0.267506	-0.000044
C38	C	1.617334	-0.303524	-0.000046
C39	C	1.376225	-0.653290	-0.000092
C40	C	1.374637	-0.712698	-0.000082
C41	C	1.606079	-0.725326	-0.000083
C42	C	1.607666	-0.665916	-0.000082
C43	C	1.492735	-0.629898	-0.000093
C44	C	1.620654	-0.178765	-0.000015
C45	C	1.622229	-0.119353	0.000005
C46	C	1.390787	-0.106730	-0.000002
C47	C	1.389211	-0.166137	-0.000014
C48	C	1.504155	-0.202154	-0.000026
O49	O	1.288365	-0.254758	0.000005
O50	O	1.716564	-0.278165	-0.000064
C51	C	1.730551	0.080749	-0.000039
C52	C	1.871445	0.082440	-0.000050
C53	C	1.487854	0.188050	-0.000070
C54	C	1.489560	0.251278	-0.000091
N55	N	1.498402	0.083974	0.351015
N56	N	1.498475	0.083965	-0.351086
C57	C	1.393253	0.130169	0.586033
C58	C	1.393477	0.130342	0.414142
C59	C	1.630683	0.097487	0.413348
C60	C	1.630106	0.097814	0.585293
C61	C	1.472592	0.024116	0.585578
C62	C	1.469534	0.024504	0.413624
H63	H	1.111879	0.073693	0.246382
C64	C	1.146946	-0.008685	0.141654
N65	N	1.196565	-0.055193	0.143042
C66	C	1.249783	-0.613674	-0.000084
N67	N	1.154547	-0.583839	-0.000080
H68	H	1.130174	0.008459	-0.146724
C69	C	1.415698	0.190328	0.358528
N70	N	1.432442	0.235511	0.316641
C71	C	1.747098	-0.218375	-0.000014
N72	N	1.842336	-0.248209	-0.000001
C73	C	1.090101	0.181436	0.136113
N74	N	1.118292	0.207018	0.238682
H75	H	1.710809	0.065516	0.626885
H76	H	0.892373	0.074857	0.245636
C77	C	1.415160	0.189817	0.644362
N78	N	1.431665	0.234743	0.688298
H79	H	0.911443	0.006330	0.150559
C80	C	0.847395	0.178311	0.135446
N81	N	0.803162	0.202858	0.237923
H82	H	0.863618	0.169728	-0.102003
C83	C	1.732498	-0.764958	-0.000100
N84	N	1.827710	-0.794810	-0.000115
H85	H	1.717116	-0.100315	0.000020
C86	C	1.092428	0.180936	-0.136069
N87	N	1.122365	0.206139	-0.238517
C88	C	1.117833	0.084202	-0.283267
N89	N	1.145814	0.106967	-0.390626
C90	C	1.738940	0.053266	0.358100
N91	N	1.820477	0.019959	0.316484
H92	H	1.294590	0.122165	0.627429
C93	C	1.261037	-0.191864	-0.000020
N94	N	1.164493	-0.211238	-0.000041
H95	H	1.654164	0.140657	0.370256
C96	C	1.858850	-0.373234	-0.000048
N97	N	1.955401	-0.353867	-0.000055
H98	H	1.549333	-0.010274	0.626241
C99	C	1.661047	0.156806	0.639435
N100	N	1.684343	0.201241	0.680208
H101	H	0.890922	0.072801	-0.245655
C102	C	1.345146	0.006752	0.644225
N103	N	1.249147	-0.006319	0.688398
H104	H	1.541245	-0.011530	0.370659
H105	H	1.822675	-0.487679	-0.000069
C106	C	1.138025	-0.458806	-0.000126
N107	N	1.041471	-0.478171	-0.000151
C108	C	1.338077	0.010668	0.358599
N109	N	1.239061	0.000248	0.317148
C110	C	1.735843	-0.640196	-0.000079
N111	N	1.832392	-0.620827	-0.000083
C112	C	0.906116	-0.011002	-0.147141
N113	N	0.884955	-0.058305	-0.152047
H114	H	1.279756	-0.731734	-0.000068
C115	C	1.141365	-0.334064	-0.000108
N116	N	1.046133	-0.304226	-0.000107
H117	H	1.297220	-0.077393	0.000005
H118	H	1.295126	0.122213	0.372001
