data_functionalizedCrystal
_audit_creation_method	'MofGen! by Chris Wilmer'
_symmetry_space_group_name_H-M	'P1'
_symmetry_Int_Tables_number	1
_symmetry_cell_setting	triclinic
loop_
_symmetry_equiv_pos_as_xyz
  x,y,z
_cell_length_a	19.805407
_cell_length_b	19.805405
_cell_length_c	19.805398
_cell_angle_alpha	89.972363
_cell_angle_beta	89.982644
_cell_angle_gamma	90.025395
loop_
_atom_site_label
_atom_site_type_symbol
_atom_site_fract_x
_atom_site_fract_y
_atom_site_fract_z
Zn1	Zn	-1.034711	0.269508	0.382738
Zn2	Zn	-0.534711	0.769508	0.882738
Zn3	Zn	-1.034633	0.382693	0.269547
Zn4	Zn	-0.534633	0.882693	0.769547
Zn5	Zn	-0.921533	0.269522	0.269560
Zn6	Zn	-0.421533	0.769522	0.769560
Zn7	Zn	-0.921489	0.382659	0.382691
Zn8	Zn	-0.421489	0.882659	0.882691
O9	O	-0.978091	0.326096	0.326134
O10	O	-0.478091	0.826096	0.826134
O11	O	-1.129417	0.284531	0.367738
O12	O	-0.629417	0.784531	0.867738
O13	O	-1.019616	0.367701	0.174832
O14	O	-0.519616	0.867701	0.674832
O15	O	-0.936597	0.174803	0.284599
O16	O	-0.436597	0.674803	0.784599
O17	O	-1.129360	0.367688	0.284576
O18	O	-0.629360	0.867688	0.784576
O19	O	-1.019748	0.174793	0.367751
O20	O	-0.519748	0.674793	0.867751
O21	O	-0.936522	0.284554	0.174842
O22	O	-0.436522	0.784554	0.674842
O23	O	-0.826810	0.284521	0.284553
O24	O	-0.326810	0.784521	0.784553
O25	O	-0.936522	0.367629	0.477414
O26	O	-0.436522	0.867629	0.977414
O27	O	-0.826778	0.367642	0.367669
O28	O	-0.326778	0.867642	0.867669
O29	O	-1.019706	0.284498	0.477449
O30	O	-0.519706	0.784498	0.977449
O31	O	-1.019573	0.477405	0.284530
O32	O	-0.519573	0.977405	0.784530
O33	O	-0.936447	0.477380	0.367656
O34	O	-0.436447	0.977380	0.867656
C35	C	-0.802235	0.326079	0.326108
C36	C	-0.302235	0.826079	0.826108
C37	C	-0.727003	0.326089	0.326112
C38	C	-0.227003	0.826089	0.826112
C39	C	-0.691660	0.369435	0.369320
C40	C	-0.191660	0.869435	0.869320
C41	C	-0.620972	0.369435	0.369328
C42	C	-0.120972	0.869435	0.869328
C43	C	-0.585628	0.326092	0.326124
C44	C	-0.085628	0.826092	0.826124
C45	C	-0.620976	0.282741	0.282914
C46	C	-0.120976	0.782741	0.782914
C47	C	-0.691663	0.282738	0.282910
C48	C	-0.191663	0.782738	0.782910
C49	C	-0.335903	0.282751	0.282929
C50	C	0.164097	0.782751	0.782929
C51	C	-0.265211	0.282759	0.282935
C52	C	0.234789	0.782759	0.782935
C53	C	-0.265211	0.369447	0.369346
C54	C	0.234789	0.869447	0.869346
C55	C	-0.335899	0.369445	0.369343
C56	C	0.164101	0.869445	0.869343
C57	C	-0.371241	0.326092	0.326136
C58	C	0.128759	0.826092	0.826136
C59	C	-0.447889	0.326091	0.326129
C60	C	0.052111	0.826091	0.826129
C61	C	-0.508981	0.326095	0.326127
C62	C	-0.008981	0.826095	0.826127
C63	C	-0.978015	0.501952	0.326101
C64	C	-0.478015	1.001952	0.826101
C65	C	-0.978045	0.577184	0.326110
C66	C	-0.478045	1.077184	0.826110
C67	C	-0.978118	0.326058	0.502677
C68	C	-0.478118	0.826058	1.002677
C69	C	-0.978129	0.326042	0.577909
C70	C	-0.478129	0.826042	1.077909
C71	C	-0.154634	0.326108	0.326154
C72	C	0.345366	0.826108	0.826154
C73	C	-0.229866	0.326102	0.326146
C74	C	0.270134	0.826102	0.826146
C75	C	-0.978186	0.149553	0.326182
C76	C	-0.478186	0.649553	0.826182
C77	C	-0.978227	0.074321	0.326202
C78	C	-0.478227	0.574321	0.826202
C79	C	-1.021371	0.612518	0.282871
C80	C	-0.521371	1.112518	0.782871
C81	C	-1.021399	0.683207	0.282886
C82	C	-0.521399	1.183207	0.782886
C83	C	-0.978098	0.718559	0.326137
C84	C	-0.478098	1.218559	0.826137
C85	C	-0.934770	0.683219	0.369380
C86	C	-0.434770	1.183219	0.869380
C87	C	-0.934746	0.612532	0.369368
C88	C	-0.434746	1.112532	0.869368
C89	C	-0.934870	0.968292	0.369430
C90	C	-0.434870	1.468292	0.869430
C91	C	-0.934897	1.038985	0.369438
C92	C	-0.434897	1.538985	0.869438
C93	C	-1.021524	1.038967	0.282949
C94	C	-0.521524	1.538967	0.782949
C95	C	-1.021499	0.968280	0.282936
C96	C	-0.521499	1.468280	0.782936
C97	C	-0.978174	0.932946	0.326182
C98	C	-0.478174	1.432946	0.826182
C99	C	-0.978144	0.856298	0.326166
C100	C	-0.478144	1.356298	0.826166
C101	C	-0.978124	0.795206	0.326150
C102	C	-0.478124	1.295206	0.826150
C103	C	-0.978104	0.326084	0.150278
C104	C	-0.478104	0.826084	0.650278
C105	C	-0.978224	0.325909	0.075046
C106	C	-0.478224	0.825909	0.575046
C107	C	-1.021525	0.282636	1.039719
C108	C	-0.521525	0.782636	1.539719
C109	C	-1.021514	0.282657	0.969031
C110	C	-0.521514	0.782657	1.469031
C111	C	-0.978199	0.325948	0.933671
C112	C	-0.478199	0.825948	1.433671
C113	C	-0.934896	0.369226	0.969003
C114	C	-0.434896	0.869226	1.469003
C115	C	-0.934911	0.369208	1.039690
C116	C	-0.434911	0.869208	1.539690
C117	C	-0.934837	0.369300	0.683929
C118	C	-0.434837	0.869300	1.183929
C119	C	-0.934825	0.369313	0.613237
C120	C	-0.434825	0.869313	1.113237
C121	C	-1.021441	0.282748	0.613270
C122	C	-0.521441	0.782748	1.113270
C123	C	-1.021455	0.282730	0.683958
C124	C	-0.521455	0.782730	1.183958
C125	C	-0.978155	0.326010	0.719283
C126	C	-0.478155	0.826010	1.219283
C127	C	-0.978168	0.325988	0.795932
C128	C	-0.478168	0.825988	1.295932
C129	C	-0.978182	0.325967	0.857024
C130	C	-0.478182	0.825967	1.357024
H131	H	-0.720432	0.404732	0.404500
H132	H	-0.220432	0.904732	0.904500
C133	C	-0.901810	0.483906	0.705629
C134	C	-0.401810	0.983906	1.205629
C135	C	-0.887236	0.416874	0.722744
C136	C	-0.387236	0.916874	1.222744
H137	H	-0.872417	0.513277	0.729589
H138	H	-0.372417	1.013277	1.229589
H139	H	-0.947277	0.493809	0.717224
H140	H	-0.447277	0.993809	1.217224
H141	H	-0.895608	0.490092	0.658466
H142	H	-0.395608	0.990092	1.158466
H143	H	-0.893443	0.410686	0.769906
H144	H	-0.393443	0.910686	1.269906
H145	H	-0.841759	0.406967	0.711153
H146	H	-0.341759	0.906967	1.211153
C147	C	-0.896408	0.407687	0.860631
C148	C	-0.396408	0.907687	1.360631
C149	C	-0.887281	0.416812	0.930136
C150	C	-0.387281	0.916812	1.430136
H151	H	-0.867006	0.437062	0.836639
H152	H	-0.367006	0.937062	1.336639
H153	H	-0.941871	0.417602	0.849051
H154	H	-0.441871	0.917602	1.349051
H155	H	-0.886523	0.362209	0.849065
H156	H	-0.386523	0.862209	1.349065
H157	H	-0.897170	0.462289	0.941703
H158	H	-0.397170	0.962289	1.441703
H159	H	-0.841807	0.406902	0.941721
H160	H	-0.341807	0.906902	1.441721
C161	C	-0.820146	0.705046	0.402251
C162	C	-0.320146	1.205046	0.902251
C163	C	-0.887172	0.722074	0.416925
C164	C	-0.387172	1.222074	0.916925
H165	H	-0.790761	0.729030	0.431608
H166	H	-0.290761	1.229030	0.931608
H167	H	-0.810277	0.716673	0.356773
H168	H	-0.310277	1.216673	0.856773
H169	H	-0.813942	0.657889	0.408433
H170	H	-0.313942	1.157889	0.908433
H171	H	-0.893378	0.769231	0.410739
H172	H	-0.393378	1.269231	0.910739
H173	H	-0.897044	0.710452	0.462415
H174	H	-0.397044	1.210452	0.962415
H175	H	-1.056724	0.247475	0.712744
H176	H	-0.556724	0.747475	1.212744
C177	C	-1.059889	0.244332	0.504926
C178	C	-0.559889	0.744332	1.004926
C179	C	-1.069042	0.235176	0.574438
C180	C	-0.569042	0.735176	1.074438
H181	H	-1.089277	0.214965	0.480956
H182	H	-0.589277	0.714965	0.980956
H183	H	-1.014420	0.234428	0.493342
H184	H	-0.514420	0.734428	0.993342
H185	H	-1.069774	0.289814	0.493338
H186	H	-0.569774	0.789814	0.993338
H187	H	-1.059152	0.189695	0.586027
H188	H	-0.559152	0.689695	1.086027
H189	H	-1.114522	0.245076	0.586027
H190	H	-0.614522	0.745076	1.086027
H191	H	-0.899548	0.404565	0.584449
H192	H	-0.399548	0.904565	1.084449
C193	C	-0.901697	0.590723	0.483944
C194	C	-0.401697	1.090723	0.983944
C195	C	-0.887122	0.573688	0.416898
C196	C	-0.387122	1.073688	0.916898
H197	H	-0.872294	0.566745	0.513289
H198	H	-0.372294	1.066745	1.013289
H199	H	-0.947159	0.579095	0.493883
H200	H	-0.447159	1.079095	0.993883
H201	H	-0.895510	0.637881	0.490132
H202	H	-0.395510	1.137881	0.990132
H203	H	-0.893313	0.526530	0.410709
H204	H	-0.393313	1.026530	0.910709
H205	H	-0.841649	0.585311	0.406956
H206	H	-0.341649	1.085311	0.906956
C207	C	-0.628073	0.455144	0.454724
C208	C	-0.128073	0.955144	0.954724
C209	C	-0.582123	0.417093	0.416812
C210	C	-0.082123	0.917093	0.916812
H211	H	-0.604087	0.484572	0.484034
H212	H	-0.104087	0.984572	0.984034
H213	H	-0.655660	0.425693	0.480674
H214	H	-0.155660	0.925693	0.980674
H215	H	-0.655626	0.480982	0.425172
H216	H	-0.155626	0.980982	0.925172
H217	H	-0.554572	0.391250	0.446364
H218	H	-0.054572	0.891250	0.946364
H219	H	-0.554524	0.446548	0.390860
H220	H	-0.054524	0.946548	0.890860
H221	H	-0.364670	0.247456	0.247742
H222	H	0.135330	0.747456	0.747742
H223	H	-0.364672	0.404741	0.404522
H224	H	0.135328	0.904741	0.904522
H225	H	-0.236436	0.247459	0.247753
H226	H	0.263564	0.747459	0.747753
C227	C	-0.849286	0.454774	1.032561
C228	C	-0.349286	0.954774	1.532561
C229	C	-0.887311	0.416774	1.078524
C230	C	-0.387311	0.916774	1.578524
H231	H	-0.819898	0.484138	1.056537
H232	H	-0.319898	0.984138	1.556537
H233	H	-0.878756	0.480672	1.004989
H234	H	-0.378756	0.980672	1.504989
H235	H	-0.823406	0.425281	1.004995
H236	H	-0.323406	0.925281	1.504995
H237	H	-0.913195	0.446266	1.106088
H238	H	-0.413195	0.946266	1.606088
H239	H	-0.857837	0.390874	1.106108
H240	H	-0.357837	0.890874	1.606108
C241	C	-0.512619	0.244251	0.244550
C242	C	-0.012619	0.744251	0.744550
C243	C	-0.582127	0.235094	0.235425
C244	C	-0.082127	0.735094	0.735425
H245	H	-0.488638	0.214838	0.215228
H246	H	0.011362	0.714838	0.715228
H247	H	-0.501059	0.234408	0.290041
H248	H	-0.001059	0.734408	0.790041
H249	H	-0.501019	0.289717	0.234558
H250	H	-0.001019	0.789717	0.734558
H251	H	-0.593728	0.189630	0.245423
H252	H	-0.093728	0.689630	0.745423
H253	H	-0.593692	0.244932	0.189924
H254	H	-0.093692	0.744932	0.689924
C255	C	-1.030806	0.533081	0.191816
C256	C	-0.530806	1.033081	0.691816
C257	C	-1.068968	0.573663	0.235327
C258	C	-0.568968	1.073663	0.735327
H259	H	-1.060193	0.509098	0.162462
H260	H	-0.560193	1.009098	0.662462
H261	H	-1.005006	0.501921	0.217565
H262	H	-0.505006	1.001921	0.717565
H263	H	-1.001345	0.560705	0.165905
H264	H	-0.501345	1.060705	0.665905
H265	H	-1.098425	0.546038	0.261241
H266	H	-0.598425	1.046038	0.761241
H267	H	-1.094780	0.604826	0.209575
H268	H	-0.594780	1.104826	0.709575
C269	C	-0.185753	0.378978	0.460389
C270	C	0.314247	0.878978	0.960389
C271	C	-0.226361	0.417095	0.416850
C272	C	0.273639	0.917095	0.916850
H273	H	-0.161773	0.408394	0.489716
H274	H	0.338227	0.908394	0.989716
H275	H	-0.154591	0.353171	0.434661
H276	H	0.345409	0.853171	0.934661
H277	H	-0.213360	0.349525	0.486328
H278	H	0.286640	0.849525	0.986328
H279	H	-0.198754	0.446545	0.390907
H280	H	0.301246	0.946545	0.890907
H281	H	-0.257527	0.442913	0.442581
H282	H	0.242473	0.942913	0.942581
C283	C	-0.684567	0.197058	0.197483
C284	C	-0.184567	0.697058	0.697483
C285	C	-0.730515	0.235097	0.235409
C286	C	-0.230515	0.735097	0.735409
H287	H	-0.708554	0.167648	0.168155
H288	H	-0.208554	0.667648	0.668155
H289	H	-0.657020	0.171207	0.227021
H290	H	-0.157020	0.671207	0.727021
H291	H	-0.656973	0.226523	0.171545
H292	H	-0.156973	0.726523	0.671545
H293	H	-0.758106	0.205632	0.261351
H294	H	-0.258106	0.705632	0.761351
H295	H	-0.758073	0.260950	0.205868
H296	H	-0.258073	0.760950	0.705868
C297	C	-1.107016	0.676090	0.197383
C298	C	-0.607016	1.176090	0.697383
C299	C	-1.069021	0.722047	0.235353
C300	C	-0.569021	1.222047	0.735353
H301	H	-1.136414	0.700069	0.168034
H302	H	-0.636414	1.200069	0.668034
H303	H	-1.132878	0.648480	0.226890
H304	H	-0.632878	1.148480	0.726890
H305	H	-1.077523	0.648559	0.171464
H306	H	-0.577523	1.148559	0.671464
H307	H	-1.098514	0.749575	0.261276
H308	H	-0.598514	1.249575	0.761276
H309	H	-1.043157	0.749668	0.205842
H310	H	-0.543157	1.249668	0.705842
H311	H	-1.056793	0.247379	1.068505
H312	H	-0.556793	0.747379	1.568505
H313	H	-1.056804	1.067745	0.247739
H314	H	-0.556804	1.567745	0.747739
C315	C	-1.107138	0.975365	0.197450
C316	C	-0.607138	1.475365	0.697450
C317	C	-1.069099	0.929422	0.235397
C318	C	-0.569099	1.429422	0.735397
H319	H	-1.136529	0.951375	0.168105
H320	H	-0.636529	1.451375	0.668105
H321	H	-1.077677	1.002973	0.171534
H322	H	-0.577677	1.502973	0.671534
H323	H	-1.133015	1.002899	0.226977
H324	H	-0.633015	1.502899	0.726977
H325	H	-1.043218	0.901892	0.205869
H326	H	-0.543218	1.401892	0.705869
H327	H	-1.098565	0.901802	0.261315
H328	H	-0.598565	1.401802	0.761315
C329	C	-0.849273	1.031905	0.454948
C330	C	-0.349273	1.531905	0.954948
C331	C	-0.887303	1.077845	0.416988
C332	C	-0.387303	1.577845	0.916988
H333	H	-0.819895	1.055898	0.484304
H334	H	-0.319895	1.555898	0.984304
H335	H	-0.823388	1.004375	0.425434
H336	H	-0.323388	1.504375	0.925434
H337	H	-0.878746	1.004293	0.480858
H338	H	-0.378746	1.504293	0.980858
H339	H	-0.857830	1.105454	0.391074
H340	H	-0.357830	1.605454	0.891074
H341	H	-0.913190	1.105387	0.446506
H342	H	-0.413190	1.605387	0.946506
C343	C	-1.107124	0.197078	0.976164
C344	C	-0.607124	0.697078	1.476164
C345	C	-1.069108	0.235085	0.930200
C346	C	-0.569108	0.735085	1.430200
H347	H	-1.136505	0.167706	0.952190
H348	H	-0.636505	0.667706	1.452190
H349	H	-1.133005	0.226561	1.003729
H350	H	-0.633005	0.726561	1.503729
H351	H	-1.077643	0.171182	1.003738
H352	H	-0.577643	0.671182	1.503738
H353	H	-1.098589	0.260985	0.902629
H354	H	-0.598589	0.760985	1.402629
H355	H	-1.043225	0.205599	0.902623
H356	H	-0.543225	0.705599	1.402623
H357	H	-0.899592	0.939529	0.404641
H358	H	-0.399592	1.439529	0.904641
