data_functionalizedCrystal
_audit_creation_method	'MofGen! by Chris Wilmer'
_symmetry_space_group_name_H-M	'P1'
_symmetry_Int_Tables_number	1
_symmetry_cell_setting	triclinic
loop_
_symmetry_equiv_pos_as_xyz
  x,y,z
_cell_length_a	25.639243
_cell_length_b	25.639240
_cell_length_c	25.639233
_cell_angle_alpha	90.025929
_cell_angle_beta	90.015962
_cell_angle_gamma	90.035481
loop_
_atom_site_label
_atom_site_type_symbol
_atom_site_fract_x
_atom_site_fract_y
_atom_site_fract_z
Zn1	Zn	0.799247	-0.208176	0.295630
Zn2	Zn	1.299247	0.291824	0.795630
Zn3	Zn	0.799179	-0.295595	0.208183
Zn4	Zn	1.299179	0.204405	0.708183
Zn5	Zn	0.711823	-0.208180	0.208203
Zn6	Zn	1.211823	0.291820	0.708203
Zn7	Zn	0.711777	-0.295587	0.295582
Zn8	Zn	1.211777	0.204413	0.795582
O9	O	0.755506	-0.251885	0.251900
O10	O	1.255506	0.248115	0.751900
O11	O	0.872403	-0.219775	0.284041
O12	O	1.372403	0.280225	0.784041
O13	O	0.787582	-0.284004	0.135020
O14	O	1.287582	0.215996	0.635020
O15	O	0.723467	-0.135014	0.219829
O16	O	1.223467	0.364986	0.719829
O17	O	0.872353	-0.284001	0.219794
O18	O	1.372353	0.215999	0.719794
O19	O	0.787697	-0.135012	0.284061
O20	O	1.287697	0.364988	0.784061
O21	O	0.723402	-0.219781	0.135035
O22	O	1.223402	0.280219	0.635035
O23	O	0.638652	-0.219772	0.219783
O24	O	1.138652	0.280228	0.719783
O25	O	0.723389	-0.283987	0.368754
O26	O	1.223389	0.216013	0.868754
O27	O	0.638618	-0.283990	0.283980
O28	O	1.138618	0.216010	0.783980
O29	O	0.787653	-0.219767	0.368789
O30	O	1.287653	0.280233	0.868789
O31	O	0.787538	-0.368759	0.219749
O32	O	1.287538	0.131241	0.719749
O33	O	0.723324	-0.368753	0.283960
O34	O	1.223324	0.131247	0.783960
C35	C	0.619664	-0.251881	0.251879
C36	C	1.119664	0.248119	0.751879
C37	C	0.561550	-0.251892	0.251882
C38	C	1.061550	0.248108	0.751882
C39	C	0.755433	-0.387727	0.251859
C40	C	1.255433	0.112273	0.751859
C41	C	0.755449	-0.445841	0.251859
C42	C	1.255449	0.054159	0.751859
C43	C	0.201207	-0.218495	0.285409
C44	C	0.701207	0.281505	0.785409
C45	C	0.146603	-0.218494	0.285412
C46	C	0.646603	0.281506	0.785412
O47	O	0.118383	-0.190088	0.313891
O48	O	0.618383	0.309912	0.813891
N49	N	0.119267	-0.251883	0.251914
N50	N	0.619267	0.248117	0.751914
C51	C	0.146539	-0.285271	0.218407
C52	C	0.646539	0.214729	0.718407
O53	O	0.118274	-0.313670	0.189914
O54	O	0.618274	0.186330	0.689914
C55	C	0.201142	-0.285268	0.218401
C56	C	0.701142	0.214732	0.718401
C57	C	0.228475	-0.251881	0.251905
C58	C	0.728475	0.248119	0.751905
C59	C	0.228540	-0.185109	0.318909
C60	C	0.728540	0.314891	0.818909
C61	C	0.283140	-0.185111	0.318907
C62	C	0.783140	0.314889	0.818907
C63	C	0.310408	-0.218497	0.285403
C64	C	0.810408	0.281503	0.785403
C65	C	0.283076	-0.251882	0.251903
C66	C	0.783076	0.248118	0.751903
C67	C	0.228413	-0.318653	0.184892
C68	C	0.728413	0.181347	0.684892
C69	C	0.283020	-0.318647	0.184889
C70	C	0.783020	0.181353	0.684889
C71	C	0.310353	-0.285260	0.218393
C72	C	0.810353	0.214740	0.718393
C73	C	0.364944	-0.285270	0.218396
C74	C	0.864944	0.214730	0.718396
N75	N	0.392279	-0.251881	0.251894
N76	N	0.892279	0.248119	0.751894
C77	C	0.365011	-0.218494	0.285398
C78	C	0.865011	0.281506	0.785398
C79	C	0.031869	-0.285273	0.218420
C80	C	0.531869	0.214727	0.718420
C81	C	-0.022734	-0.285279	0.218428
C82	C	0.477266	0.214721	0.718428
C83	C	-0.022667	-0.218501	0.285432
C84	C	0.477333	0.281499	0.785432
C85	C	0.031937	-0.218498	0.285427
C86	C	0.531937	0.281502	0.785427
C87	C	0.059204	-0.251884	0.251918
C88	C	0.559204	0.248116	0.751918
C89	C	0.479676	-0.218500	0.285390
C90	C	0.979676	0.281500	0.785390
C91	C	0.534282	-0.218506	0.285386
C92	C	1.034282	0.281494	0.785386
C93	C	0.534210	-0.285281	0.218380
C94	C	1.034210	0.214719	0.718380
C95	C	0.479609	-0.285278	0.218385
C96	C	0.979609	0.214722	0.718385
C97	C	0.452344	-0.251883	0.251892
C98	C	0.952344	0.248117	0.751892
O99	O	0.393198	-0.313659	0.189930
O100	O	0.893198	0.186341	0.689930
O101	O	0.393283	-0.190095	0.313881
O102	O	0.893283	0.309905	0.813881
C103	C	0.788967	-0.806164	0.285405
C104	C	1.288967	-0.306164	0.785405
C105	C	0.788983	-0.860769	0.285416
C106	C	1.288983	-0.360769	0.785416
O107	O	0.817394	-0.888972	0.313897
O108	O	1.317394	-0.388972	0.813897
N109	N	0.755579	-0.888124	0.251950
N110	N	1.255579	-0.388124	0.751950
C111	C	0.722154	-0.860871	0.218475
C112	C	1.222154	-0.360871	0.718475
O113	O	0.693742	-0.889153	0.190011
O114	O	1.193742	-0.389153	0.690011
C115	C	0.722136	-0.806268	0.218467
C116	C	1.222136	-0.306268	0.718467
C117	C	0.755546	-0.778916	0.251932
C118	C	1.255546	-0.278916	0.751932
C119	C	0.822374	-0.778812	0.318867
C120	C	1.322374	-0.278812	0.818867
C121	C	0.822359	-0.724212	0.318856
C122	C	1.322359	-0.224212	0.818856
C123	C	0.788938	-0.696963	0.285383
C124	C	1.288938	-0.196963	0.785383
C125	C	0.755531	-0.724315	0.251920
C126	C	1.255531	-0.224315	0.751920
C127	C	0.688708	-0.779017	0.184996
C128	C	1.188708	-0.279017	0.684996
C129	C	0.688693	-0.724410	0.184991
C130	C	1.188693	-0.224410	0.684991
C131	C	0.722103	-0.697058	0.218455
C132	C	1.222103	-0.197058	0.718455
C133	C	0.722095	-0.642466	0.218435
C134	C	1.222095	-0.142466	0.718435
N135	N	0.755499	-0.615112	0.251901
N136	N	1.255499	-0.115112	0.751901
C137	C	0.788920	-0.642360	0.285375
C138	C	1.288920	-0.142360	0.785375
C139	C	0.722193	-0.975542	0.218494
C140	C	1.222193	-0.475542	0.718494
C141	C	0.722213	-1.030144	0.218499
C142	C	1.222213	-0.530144	0.718499
C143	C	0.789041	-1.030038	0.285441
C144	C	1.289041	-0.530038	0.785441
C145	C	0.789024	-0.975435	0.285433
C146	C	1.289024	-0.475435	0.785433
C147	C	0.755597	-0.948187	0.251960
C148	C	1.255597	-0.448187	0.751960
C149	C	0.788887	-0.527695	0.285348
C150	C	1.288887	-0.027695	0.785348
C151	C	0.788870	-0.473090	0.285332
C152	C	1.288870	0.026910	0.785332
C153	C	0.722040	-0.473201	0.218392
C154	C	1.222040	0.026799	0.718392
C155	C	0.722058	-0.527801	0.218406
C156	C	1.222058	-0.027801	0.718406
C157	C	0.755483	-0.555047	0.251888
C158	C	1.255483	-0.055047	0.751888
O159	O	0.693697	-0.614229	0.189971
O160	O	1.193697	-0.114229	0.689971
O161	O	0.817322	-0.614072	0.313839
O162	O	1.317322	-0.114072	0.813839
C163	C	0.891879	-0.251888	0.251921
C164	C	1.391879	0.248112	0.751921
C165	C	0.949993	-0.251890	0.251930
C166	C	1.449993	0.248110	0.751930
C167	C	0.755523	-0.251875	0.388273
C168	C	1.255523	0.248125	0.888273
C169	C	0.755530	-0.251871	0.446387
C170	C	1.255530	0.248129	0.946387
C171	C	0.755595	-0.115511	0.251952
C172	C	1.255595	0.384489	0.751952
C173	C	0.755633	-0.057397	0.251975
C174	C	1.255633	0.442603	0.751975
C175	C	0.755520	-0.251856	0.116057
C176	C	1.255520	0.248144	0.616057
C177	C	0.755614	-0.251713	0.057943
C178	C	1.255614	0.248287	0.557943
C179	C	0.789035	-0.218333	0.806774
C180	C	1.289035	0.281667	1.306774
C181	C	0.789041	-0.218318	0.861378
C182	C	1.289041	0.281682	1.361378
O183	O	0.817486	-0.189864	0.889635
O184	O	1.317486	0.310136	1.389635
N185	N	0.755588	-0.251749	0.888669
N186	N	1.255588	0.248251	1.388669
C187	C	0.722122	-0.285192	0.861354
C188	C	1.222122	0.214808	1.361354
O189	O	0.693668	-0.313626	0.889581
O190	O	1.193668	0.186374	1.389581
C191	C	0.722114	-0.285204	0.806750
C192	C	1.222114	0.214796	1.306750
C193	C	0.755573	-0.251775	0.779462
C194	C	1.255573	0.248225	1.279462
C195	C	0.822491	-0.184906	0.779485
C196	C	1.322491	0.315094	1.279485
C197	C	0.822485	-0.184921	0.724884
C198	C	1.322485	0.315079	1.224884
C199	C	0.789023	-0.218363	0.697572
C200	C	1.289023	0.281637	1.197572
C201	C	0.755567	-0.251790	0.724861
C202	C	1.255567	0.248210	1.224861
C203	C	0.688646	-0.318644	0.779436
C204	C	1.188646	0.181356	1.279436
C205	C	0.688640	-0.318653	0.724828
C206	C	1.188640	0.181347	1.224828
C207	C	0.722099	-0.285223	0.697540
C208	C	1.222099	0.214777	1.197540
C209	C	0.722099	-0.285247	0.642949
C210	C	1.222099	0.214753	1.142949
N211	N	0.755552	-0.251817	0.615657
N212	N	1.255552	0.248183	1.115657
C213	C	0.789014	-0.218375	0.642969
C214	C	1.289014	0.281625	1.142969
C215	C	0.722143	-0.285165	0.976024
C216	C	1.222143	0.214835	1.476024
C217	C	0.722154	-0.285157	1.030627
C218	C	1.222154	0.214843	1.530627
C219	C	0.789072	-0.218282	1.030647
C220	C	1.289072	0.281718	1.530647
C221	C	0.789063	-0.218293	0.976044
C222	C	1.289063	0.281707	1.476044
C223	C	0.755596	-0.251735	0.948733
C224	C	1.255596	0.248265	1.448733
C225	C	0.789000	-0.218410	0.528304
C226	C	1.289000	0.281590	1.028304
C227	C	0.788992	-0.218429	0.473699
C228	C	1.288992	0.281571	0.973699
C229	C	0.722072	-0.285302	0.473683
C230	C	1.222072	0.214698	0.973683
C231	C	0.722081	-0.285285	0.528283
C232	C	1.222081	0.214715	1.028283
C233	C	0.755547	-0.251834	0.555593
C234	C	1.255547	0.248166	1.055593
O235	O	0.693668	-0.313686	0.614657
O236	O	1.193668	0.186314	1.114657
O237	O	0.817459	-0.189941	0.614735
O238	O	1.317459	0.310059	1.114735
H239	H	0.556534	-0.191317	0.312670
H240	H	1.056534	0.308683	0.812670
Cl241	Cl	0.194066	-0.360618	0.142760
Cl242	Cl	0.694066	0.139382	0.642760
Cl243	Cl	0.066292	-0.176523	0.327546
Cl244	Cl	0.566292	0.323477	0.827546
Cl245	Cl	0.831126	-0.176266	0.941744
Cl246	Cl	1.331126	0.323734	1.441744
H247	H	0.305218	-0.345834	0.157601
H248	H	0.805218	0.154166	0.657601
Cl249	Cl	0.568500	-0.327250	0.176264
Cl250	Cl	1.068500	0.172750	0.676264
Cl251	Cl	0.680170	-0.941293	0.176406
Cl252	Cl	1.180170	-0.441293	0.676406
H253	H	0.816249	-0.191169	0.550533
H254	H	1.316249	0.308831	1.050533
H255	H	0.816317	-0.191050	1.052894
H256	H	1.316317	0.308950	1.552894
Cl257	Cl	-0.057088	-0.327258	0.176312
Cl258	Cl	0.442912	0.172742	0.676312
H259	H	0.694830	-0.312531	0.451436
H260	H	1.194830	0.187469	0.951436
Cl261	Cl	0.646668	-0.690159	0.142908
Cl262	Cl	1.146668	-0.190159	0.642908
Cl263	Cl	-0.056957	-0.176527	0.327549
Cl264	Cl	0.443043	0.323473	0.827549
H265	H	0.054066	-0.312464	0.191135
H266	H	0.554066	0.187536	0.691135
Cl267	Cl	0.194270	-0.143133	0.361034
Cl268	Cl	0.694270	0.356867	0.861034
H269	H	0.457483	-0.191305	0.312673
H270	H	0.957483	0.308695	0.812673
Cl271	Cl	0.445247	-0.327266	0.176281
Cl272	Cl	0.945247	0.172734	0.676281
Cl273	Cl	0.831057	-1.064303	0.327523
Cl274	Cl	1.331057	-0.564303	0.827523
Cl275	Cl	0.864394	-0.813058	0.360956
Cl276	Cl	1.364394	-0.313058	0.860956
Cl277	Cl	0.680026	-0.438935	0.176314
Cl278	Cl	1.180026	0.061065	0.676314
Cl279	Cl	0.680069	-0.327214	0.941696
Cl280	Cl	1.180069	0.172786	1.441696
H281	H	0.816079	-0.450821	0.312583
H282	H	1.316079	0.049179	0.812583
H283	H	0.694857	-0.550072	0.191153
H284	H	1.194857	-0.050072	0.691153
H285	H	0.816101	-0.549872	0.312616
H286	H	1.316101	-0.049872	0.812616
H287	H	0.661400	-0.345866	0.801645
H288	H	1.161400	0.154134	1.301645
Cl289	Cl	0.864358	-0.689835	0.360932
Cl290	Cl	1.364358	-0.189835	0.860932
Cl291	Cl	0.680097	-0.327192	1.064926
Cl292	Cl	1.180097	0.172808	1.564926
Cl293	Cl	0.680217	-1.064523	0.176420
Cl294	Cl	1.180217	-0.564523	0.676420
Cl295	Cl	0.831025	-0.941055	0.327505
Cl296	Cl	1.331025	-0.441055	0.827505
Cl297	Cl	0.646563	-0.360695	0.690498
Cl298	Cl	1.146563	0.139305	1.190498
Cl299	Cl	0.831059	-0.176402	0.439396
Cl300	Cl	1.331059	0.323598	0.939396
Cl301	Cl	0.317493	-0.143133	0.361026
Cl302	Cl	0.817493	0.356867	0.861026
Cl303	Cl	0.646702	-0.813389	0.142925
Cl304	Cl	1.146702	-0.313389	0.642925
Cl305	Cl	0.864547	-0.142890	0.690587
Cl306	Cl	1.364547	0.357110	1.190587
H307	H	0.849740	-0.157671	0.801717
H308	H	1.349740	0.342329	1.301717
H309	H	0.694841	-0.312510	0.550503
H310	H	1.194841	0.187490	1.050503
