data_functionalizedCrystal
_audit_creation_method	'MofGen! by Chris Wilmer'
_symmetry_space_group_name_H-M	'P1'
_symmetry_Int_Tables_number	1
_symmetry_cell_setting	triclinic
loop_
_symmetry_equiv_pos_as_xyz
  x,y,z
_cell_length_a	12.759401
_cell_length_b	29.839131
_cell_length_c	29.839126
_cell_angle_alpha	90.021998
_cell_angle_beta	90.022822
_cell_angle_gamma	90.041581
loop_
_atom_site_label
_atom_site_type_symbol
_atom_site_fract_x
_atom_site_fract_y
_atom_site_fract_z
Zn1	Zn	1.606105	-0.178895	0.253970
Zn2	Zn	1.605904	-0.254013	0.178840
Zn3	Zn	1.430394	-0.178898	0.178857
Zn4	Zn	1.430314	-0.253999	0.253946
O5	O	1.518179	-0.216451	0.216403
O6	O	1.753099	-0.188865	0.244008
O7	O	1.582572	-0.244056	0.115975
O8	O	1.453820	-0.116031	0.188838
O9	O	1.752952	-0.244053	0.188810
O10	O	1.582914	-0.116029	0.244024
O11	O	1.453625	-0.188869	0.115987
O12	O	1.283362	-0.188856	0.188814
O13	O	1.453683	-0.244030	0.316816
O14	O	1.283303	-0.244032	0.243981
O15	O	1.582837	-0.188851	0.316834
O16	O	1.582494	-0.316878	0.188786
O17	O	1.453489	-0.316868	0.243965
C18	C	1.245212	-0.216443	0.216397
C19	C	1.128435	-0.216450	0.216405
C20	C	1.517989	-0.333174	0.216381
C21	C	1.518004	-0.383108	0.216386
C22	C	1.073570	-0.245227	0.245083
C23	C	0.963846	-0.245233	0.245088
C24	C	0.963862	-0.187684	0.187733
C25	C	1.073584	-0.187677	0.187731
C26	C	1.073560	-0.278453	0.278196
C27	C	0.963836	-0.278459	0.278200
C28	C	1.585475	-0.692744	0.187713
C29	C	1.585604	-0.880417	0.187731
O30	O	1.642819	-0.904676	0.163334
N31	N	1.518397	-0.903893	0.216437
C32	C	1.451158	-0.880448	0.245143
O33	O	1.394004	-0.904722	0.269564
C34	C	1.451034	-0.692776	0.245128
C35	C	1.518238	-0.669303	0.216416
C36	C	1.652674	-0.669271	0.159004
C37	C	1.652637	-0.622355	0.158998
C38	C	1.585400	-0.598914	0.187702
C39	C	1.518201	-0.622387	0.216410
C40	C	1.383800	-0.669332	0.273836
C41	C	1.383777	-0.622411	0.273830
C42	C	1.450981	-0.598937	0.245119
C43	C	1.450927	-0.552030	0.245108
N44	N	1.518134	-0.528554	0.216401
C45	C	1.585371	-0.551996	0.187698
C46	C	1.451226	-0.978979	0.245149
C47	C	1.451255	-1.025897	0.245152
C48	C	1.585703	-1.025863	0.187740
C49	C	1.585668	-0.978944	0.187735
C50	C	1.518433	-0.955503	0.216442
C51	C	1.585287	-0.453470	0.187688
C52	C	1.585241	-0.406550	0.187683
C53	C	1.450797	-0.406588	0.245097
C54	C	1.450839	-0.453504	0.245100
C55	C	1.518092	-0.476944	0.216394
O56	O	1.393750	-0.527742	0.269495
O57	O	1.642532	-0.527714	0.163289
C58	C	1.585512	-0.739660	0.187719
C59	C	1.518312	-0.763133	0.216428
C60	C	1.451076	-0.739692	0.245131
C61	C	1.518342	-0.810051	0.216431
C62	C	1.585578	-0.833493	0.187728
C63	C	1.652785	-0.810017	0.159022
C64	C	1.652748	-0.763102	0.159016
C65	C	1.383869	-0.763168	0.273837
C66	C	1.383910	-0.810083	0.273840
C67	C	1.451147	-0.833525	0.245137
C68	C	1.792212	-0.216460	0.216410
C69	C	1.908989	-0.216464	0.216412
C70	C	1.518273	-0.216439	0.333582
C71	C	1.518314	-0.216433	0.383516
C72	C	1.518398	-0.099273	0.216435
C73	C	1.518492	-0.049339	0.216449
C74	C	1.518146	-0.216432	0.099681
C75	C	1.518309	-0.216311	0.049746
C76	C	1.585442	-0.245109	0.740100
C77	C	1.585444	-0.245140	0.552427
O78	O	1.642508	-0.269592	0.528159
N79	N	1.518309	-0.216411	0.528961
C80	C	1.451164	-0.187675	0.552417
O81	O	1.394054	-0.163243	0.528151
C82	C	1.451158	-0.187646	0.740089
C83	C	1.518304	-0.216374	0.763552
C84	C	1.652582	-0.273834	0.763563
C85	C	1.652585	-0.273825	0.810479
C86	C	1.585448	-0.245089	0.833931
C87	C	1.518307	-0.216364	0.810468
C88	C	1.384008	-0.158912	0.763544
C89	C	1.384011	-0.158909	0.810465
C90	C	1.451157	-0.187636	0.833928
C91	C	1.451173	-0.187619	0.880835
N92	N	1.518308	-0.216347	0.904301
C93	C	1.585445	-0.245083	0.880849
C94	C	1.451173	-0.187691	0.453886
C95	C	1.451176	-0.187698	0.406968
C96	C	1.585455	-0.245164	0.406982
C97	C	1.585457	-0.245155	0.453900
C98	C	1.518308	-0.216420	0.477352
C99	C	1.585447	-0.245060	0.979375
C100	C	1.585447	-0.245046	1.026294
C101	C	1.451165	-0.187582	1.026277
C102	C	1.451168	-0.187594	0.979361
C103	C	1.518313	-0.216336	0.955911
O104	O	1.394130	-0.163183	0.905132
O105	O	1.642530	-0.269518	0.905122
C106	C	1.585439	-0.245119	0.693185
C107	C	1.518299	-0.216393	0.669721
C108	C	1.451161	-0.187658	0.693173
C109	C	1.518301	-0.216400	0.622803
C110	C	1.585439	-0.245135	0.599351
C111	C	1.652574	-0.273864	0.622817
C112	C	1.652577	-0.273854	0.669732
C113	C	1.384026	-0.158929	0.669708
C114	C	1.384029	-0.158941	0.622792
C115	C	1.451167	-0.187676	0.599340
H116	H	1.118251	-0.164241	0.164381
H117	H	1.329328	-0.135520	0.744448
H118	H	1.640392	-0.959835	0.164355
F119	F	1.724030	-0.304444	0.597849
H120	H	0.919189	-0.164257	0.164387
F121	F	1.379246	-0.381632	0.275645
F122	F	1.312563	-0.128361	0.597826
H123	H	1.396510	-0.164300	0.387868
H124	H	1.640133	-0.268547	0.473001
H125	H	1.707260	-0.297219	0.829578
F126	F	1.379718	-0.157000	1.051245
H127	H	0.934001	-0.313242	0.268818
H128	H	1.329028	-0.603327	0.297209
F129	F	1.657260	-1.050819	0.157191
F130	F	1.724042	-0.304431	0.694698
F131	F	1.312547	-0.128351	0.694661
H132	H	1.396490	-0.164291	0.472976
H133	H	1.329329	-0.135509	0.829556
H134	H	1.707255	-0.297236	0.744473
H135	H	1.640123	-0.268560	0.387879
F136	F	1.656771	-0.381571	0.157123
H137	H	1.103384	-0.269184	0.313007
F138	F	1.117974	-0.321638	0.261857
F139	F	1.379715	-0.157014	0.954389
H140	H	0.929857	-0.266049	0.311278
F141	F	1.656866	-0.478409	0.157136
H142	H	1.396521	-1.045005	0.268528
F143	F	1.724177	-0.597379	0.128445
H144	H	1.707432	-0.688352	0.135631
F145	F	1.379659	-0.954037	0.275705
H146	H	1.329071	-0.688436	0.297214
F147	F	1.379294	-0.478487	0.275650
H148	H	1.707529	-0.829112	0.135649
F149	F	1.312374	-0.835060	0.304400
F150	F	1.724280	-0.738125	0.128458
F151	F	1.312303	-0.738225	0.304389
F152	F	1.656918	-0.275622	1.051263
F153	F	1.656909	-0.275651	0.954424
