data_functionalizedCrystal
_audit_creation_method	'MofGen! by Chris Wilmer'
_symmetry_space_group_name_H-M	'P1'
_symmetry_Int_Tables_number	1
_symmetry_cell_setting	triclinic
loop_
_symmetry_equiv_pos_as_xyz
  x,y,z
_cell_length_a	10.967874
_cell_length_b	14.519731
_cell_length_c	10.065875
_cell_angle_alpha	98.805316
_cell_angle_beta	69.229500
_cell_angle_gamma	84.210075
loop_
_atom_site_label
_atom_site_type_symbol
_atom_site_fract_x
_atom_site_fract_y
_atom_site_fract_z
O1	O	1.739958	0.067451	-0.522704
O2	O	1.362428	0.090346	-0.433918
O3	O	1.561186	-0.055566	-0.480649
O4	O	1.541199	0.213363	-0.475973
O5	O	1.523286	-0.027634	-0.244749
O6	O	1.324527	0.118278	-0.198019
O7	O	1.702058	0.095383	-0.286804
Zn8	Zn	1.507275	0.111265	-0.204957
Zn9	Zn	1.557210	0.074464	-0.515765
O10	O	1.503299	0.241295	-0.240074
C11	C	1.295161	0.104756	-0.304606
C12	C	1.151192	0.106070	-0.270747
C13	C	1.541299	-0.075938	-0.362478
C14	C	1.538492	-0.178254	-0.361817
C15	C	1.106640	0.092186	-0.377855
C16	C	0.957841	0.093543	-0.342864
C17	C	1.536212	-0.261346	-0.361284
C18	C	1.533364	-0.365591	-0.360625
C19	C	1.531104	-0.448679	-0.360102
C20	C	1.528255	-0.552930	-0.359440
C21	C	1.769325	0.080972	-0.416120
C22	C	1.913295	0.079658	-0.449987
C23	C	1.523187	0.261667	-0.358247
C24	C	1.525995	0.363982	-0.358917
N25	N	1.473205	0.136380	0.007159
N26	N	1.591290	0.049341	-0.727883
C27	C	1.545348	0.083197	0.057976
C28	C	1.519137	0.102533	0.221306
H29	H	0.885827	0.106441	-0.225252
C30	C	1.287562	0.167324	0.320074
C31	C	1.409549	0.183329	0.325794
H32	H	1.219909	0.217200	0.384590
H33	H	1.290807	0.164937	0.224032
H34	H	1.269231	0.108986	0.347747
H35	H	1.427884	0.241664	0.298111
H36	H	1.406305	0.185726	0.421857
C37	C	1.390685	0.303153	0.070827
C38	C	1.363621	0.217175	0.111643
H39	H	1.323024	0.353031	0.135326
H40	H	1.473436	0.313995	0.074708
H41	H	1.393925	0.300746	-0.025229
H42	H	1.360391	0.219579	0.207697
H43	H	1.280847	0.206330	0.107777
C44	C	1.705221	-0.035259	0.026155
C45	C	1.700590	-0.031653	0.167702
H46	H	1.772618	-0.085315	-0.038284
H47	H	1.622319	-0.045876	0.022496
H48	H	1.723890	0.022967	-0.001750
H49	H	1.681911	-0.089876	0.195611
H50	H	1.783511	-0.021043	0.171365
H51	H	1.178656	0.079300	-0.495459
C52	C	1.139090	0.064275	-0.612701
C53	C	1.010498	0.062252	-0.608764
H54	H	1.199096	0.053524	-0.710722
H55	H	1.142939	0.124286	-0.562752
H56	H	1.162449	0.016373	-0.567318
H57	H	0.987135	0.110158	-0.654138
H58	H	1.006645	0.002233	-0.658734
H59	H	1.079174	0.118966	-0.153143
H60	H	1.626513	0.023345	-0.019431
