data_functionalizedCrystal
_audit_creation_method	'MofGen! by Chris Wilmer'
_symmetry_space_group_name_H-M	'P1'
_symmetry_Int_Tables_number	1
_symmetry_cell_setting	triclinic
loop_
_symmetry_equiv_pos_as_xyz
  x,y,z
_cell_length_a	15.297327
_cell_length_b	10.685727
_cell_length_c	10.685986
_cell_angle_alpha	90.351197
_cell_angle_beta	94.562317
_cell_angle_gamma	83.903827
loop_
_atom_site_label
_atom_site_type_symbol
_atom_site_fract_x
_atom_site_fract_y
_atom_site_fract_z
Zn1	Zn	-0.403789	-1.758912	-0.945754
Zn2	Zn	-0.562861	-1.733603	-0.771289
Zn3	Zn	-0.405544	-1.564732	-0.720331
Zn4	Zn	-0.540361	-1.513687	-0.959962
O5	O	-0.478139	-1.642733	-0.849334
O6	O	-0.433572	-1.928855	-0.937991
O7	O	-0.552143	-1.721972	-0.591229
O8	O	-0.282318	-1.622445	-0.722962
O9	O	-0.550441	-1.910260	-0.809812
O10	O	-0.281028	-1.765108	-0.888579
O11	O	-0.436563	-1.597904	-0.553790
O12	O	-0.414746	-1.384660	-0.736739
O13	O	-0.512093	-1.535446	-1.131378
O14	O	-0.513795	-1.347157	-0.912795
O15	O	-0.411755	-1.715612	-1.120939
O16	O	-0.682870	-1.672475	-0.823589
O17	O	-0.666339	-1.510904	-0.962206
C18	C	-0.462020	-1.320974	-0.820780
C19	C	-0.455144	-1.183316	-0.808598
C20	C	-0.706495	-1.583436	-0.899999
C21	C	-0.804190	-1.558179	-0.921725
C22	C	-1.113880	-1.823732	-0.694522
C23	C	-1.022090	-1.847462	-0.674103
C24	C	-0.967611	-1.775144	-0.736007
C25	C	-1.004930	-1.679091	-0.818333
C26	C	-1.096728	-1.655352	-0.838747
C27	C	-0.950459	-1.606764	-0.880231
C28	C	-0.987778	-1.510711	-0.962557
C29	C	-1.079567	-1.486977	-0.982968
C30	C	-1.134047	-1.559295	-0.921064
C31	C	-0.858661	-1.630502	-0.859818
C32	C	-0.841509	-1.462123	-1.004042
C33	C	-0.933298	-1.438393	-1.024461
C34	C	-0.248890	-1.702294	-0.798502
C35	C	-0.151198	-1.727675	-0.776840
C36	C	-0.459218	-1.622658	-1.172350
C37	C	-0.451156	-1.614103	-1.310000
C38	C	-0.494311	-0.965752	-0.877992
C39	C	-0.501179	-1.103411	-0.890182
C40	C	-0.496925	-1.662818	-0.527567
C41	C	-0.504752	-1.671677	-0.389884
H42	H	-0.410465	-1.146410	-0.729429
H43	H	-0.545847	-1.140313	-0.969356
C44	C	-1.120623	-1.381310	-1.073511
C45	C	-1.180663	-1.412542	-1.189551
C46	C	-1.221719	-1.306873	-1.280091
C47	C	-1.202736	-1.169971	-1.254590
C48	C	-1.142693	-1.138733	-1.138544
C49	C	-1.101637	-1.244402	-1.048005
H50	H	-1.194718	-1.513890	-1.208433
H51	H	-1.266167	-1.329998	-1.365996
H52	H	-1.233128	-1.091748	-1.321613
H53	H	-1.128638	-1.037385	-1.119662
H54	H	-1.057189	-1.221277	-0.962100
C55	C	-0.380832	-1.538663	-1.359864
C56	C	-0.282443	-1.575813	-1.320941
C57	C	-0.212121	-1.500374	-1.370805
C58	C	-0.240188	-1.387786	-1.459591
C59	C	-0.338581	-1.350631	-1.498519
C60	C	-0.408903	-1.426069	-1.448655
H61	H	-0.261663	-1.659162	-1.255212
H62	H	-0.139284	-1.527880	-1.341988
H63	H	-0.188131	-1.331942	-1.496504
H64	H	-0.359362	-1.267282	-1.564248
H65	H	-0.481740	-1.398564	-1.477472
C66	C	-0.817616	-1.736161	-0.769272
C67	C	-0.838032	-1.731643	-0.630410
C68	C	-0.796988	-1.837310	-0.539860
C69	C	-0.735529	-1.947497	-0.588173
C70	C	-0.715111	-1.952019	-0.727041
C71	C	-0.756154	-1.846351	-0.817591
H72	H	-0.883530	-1.650072	-0.594640
H73	H	-0.812103	-1.833962	-0.437060
H74	H	-0.705146	-2.025718	-0.521142
H75	H	-0.669613	-2.033590	-0.762811
H76	H	-0.741039	-1.849700	-0.920391
H77	H	-0.892873	-1.794469	-0.719376
C78	C	-0.781593	-1.382565	-1.072147
C79	C	-0.716838	-1.305024	-0.995766
C80	C	-0.656916	-1.225470	-1.063862
C81	C	-0.661749	-1.223458	-1.208339
C82	C	-0.726506	-1.301002	-1.284728
C83	C	-0.786428	-1.380556	-1.216632
H84	H	-0.713259	-1.306510	-0.888809
H85	H	-0.608979	-1.168066	-1.007313
H86	H	-0.617391	-1.164567	-1.258747
H87	H	-0.730085	-1.299515	-1.391685
H88	H	-0.834365	-1.437960	-1.273181
C89	C	-0.981042	-1.953119	-0.583559
C90	C	-1.040961	-2.032674	-0.515471
C91	C	-0.999912	-2.138341	-0.424924
C92	C	-0.898943	-2.164452	-0.402464
C93	C	-0.839018	-2.084895	-0.470554
C94	C	-0.880067	-1.979229	-0.561101
H95	H	-1.115709	-2.013346	-0.532095
H96	H	-1.044273	-2.197234	-0.374519
H97	H	-0.868556	-2.242673	-0.335435
H98	H	-0.764270	-2.104223	-0.453929
H99	H	-0.835706	-1.920336	-0.611505
C100	C	-1.173808	-1.903266	-0.626434
C101	C	-1.239985	-1.839375	-0.538462
C102	C	-1.299917	-1.918913	-0.470366
C103	C	-1.293671	-2.062343	-0.490241
C104	C	-1.227491	-2.126242	-0.578217
C105	C	-1.167560	-2.046704	-0.646313
H106	H	-1.244611	-1.733193	-0.523745
H107	H	-1.348908	-1.871610	-0.405240
H108	H	-1.338036	-2.121222	-0.439832
H109	H	-1.222865	-2.232424	-0.592933
H110	H	-1.118569	-2.094007	-0.711439
H111	H	-1.208790	-1.539983	-0.937688
H112	H	-0.963697	-1.360185	-1.091491
H113	H	-0.556799	-1.727520	-1.352968
