data_functionalizedCrystal
_audit_creation_method	'MofGen! by Chris Wilmer'
_symmetry_space_group_name_H-M	'P1'
_symmetry_Int_Tables_number	1
_symmetry_cell_setting	triclinic
loop_
_symmetry_equiv_pos_as_xyz
  x,y,z
_cell_length_a	11.026660
_cell_length_b	19.288865
_cell_length_c	18.366186
_cell_angle_alpha	90.011479
_cell_angle_beta	89.991825
_cell_angle_gamma	84.139459
loop_
_atom_site_label
_atom_site_type_symbol
_atom_site_fract_x
_atom_site_fract_y
_atom_site_fract_z
O1	O	1.608573	-0.290652	-0.060586
O2	O	2.108573	0.209348	0.439414
O3	O	1.255450	-0.257557	-0.060582
O4	O	1.755450	0.242443	0.439418
O5	O	1.442215	-0.174268	-0.060569
O6	O	1.942215	0.325732	0.439431
O7	O	1.421808	-0.373941	-0.060598
O8	O	1.921808	0.126059	0.439402
O9	O	1.442183	-0.174259	0.060530
O10	O	1.942183	0.325741	0.560530
O11	O	1.255418	-0.257547	0.060517
O12	O	1.755418	0.242453	0.560517
O13	O	1.608541	-0.290643	0.060514
O14	O	2.108541	0.209357	0.560514
Zn15	Zn	1.431975	-0.274094	0.079743
Zn16	Zn	1.931975	0.225906	0.579743
Zn17	Zn	1.432016	-0.274106	-0.079811
Zn18	Zn	1.932016	0.225894	0.420189
O19	O	1.421776	-0.373931	0.060501
O20	O	1.921776	0.126069	0.560501
C21	C	1.441542	-0.148304	-0.000018
C22	C	1.941542	0.351696	0.499982
C23	C	1.439571	-0.070950	-0.000011
C24	C	1.939571	0.429050	0.499989
C25	C	1.210257	-0.251446	-0.000032
C26	C	1.710257	0.248554	0.499968
C27	C	1.075643	-0.233245	-0.000030
C28	C	1.575643	0.266755	0.499970
C29	C	1.653734	-0.296753	-0.000038
C30	C	2.153734	0.203247	0.499962
C31	C	1.788348	-0.314954	-0.000045
C32	C	2.288348	0.185046	0.499955
C33	C	2.001560	-0.283502	-0.000038
C34	C	2.501560	0.216498	0.499962
C35	C	1.862430	-0.264689	-0.000037
C36	C	2.362430	0.235311	0.499963
C37	C	1.422448	-0.399896	-0.000052
C38	C	1.922448	0.100104	0.499948
C39	C	1.424420	-0.477249	-0.000063
C40	C	1.924420	0.022751	0.499937
N41	N	1.431955	-0.274086	0.188634
N42	N	1.931955	0.225914	0.688634
C43	C	1.549156	-0.040152	-0.000009
C44	C	2.049156	0.459848	0.499991
C45	C	1.547305	0.032530	-0.000020
C46	C	2.047305	0.532530	0.499980
C47	C	1.435861	0.074411	-0.000020
C48	C	1.935861	0.574411	0.499980
C49	C	1.326262	0.043605	-0.000026
C50	C	1.826262	0.543605	0.499974
C51	C	1.328117	-0.029076	-0.000022
C52	C	1.828117	0.470924	0.499978
C53	C	1.348243	0.193813	0.042400
C54	C	1.848243	0.693813	0.542400
C55	C	1.346392	0.266492	0.042400
C56	C	1.846392	0.766492	0.542400
C57	C	1.430135	0.298583	-0.000036
C58	C	1.930135	0.798583	0.499964
C59	C	1.515750	0.257985	-0.042463
C60	C	2.015750	0.757985	0.457537
C61	C	1.517605	0.185305	-0.042458
C62	C	2.017605	0.685305	0.457542
C63	C	1.433838	0.153222	-0.000025
C64	C	1.933838	0.653222	0.499975
C65	C	1.537720	0.408191	-0.000047
C66	C	2.037720	0.908191	0.499953
C67	C	1.535864	0.480875	-0.000063
C68	C	2.035864	0.980875	0.499937
C69	C	1.314818	0.491948	-0.000061
C70	C	1.814818	0.991948	0.499939
C71	C	1.316677	0.419266	-0.000053
C72	C	1.816677	0.919266	0.499947
C73	C	1.428132	0.377392	-0.000042
C74	C	1.928132	0.877392	0.499958
N75	N	1.432045	-0.274109	-0.188702
N76	N	1.932045	0.225891	0.311298
C77	C	1.514681	-0.237232	0.226740
C78	C	2.014681	0.262768	0.726740
C79	C	1.514689	-0.237230	0.302968
C80	C	2.014689	0.262770	0.802968
C81	C	1.431982	-0.274095	0.341087
C82	C	1.931982	0.225905	0.841087
C83	C	1.349240	-0.310950	0.302971
C84	C	1.849240	0.189050	0.802971
C85	C	1.349226	-0.310946	0.226745
C86	C	1.849226	0.189054	0.726745
C87	C	1.415748	-0.335324	0.461838
C88	C	1.915748	0.164676	0.961838
C89	C	1.415770	-0.335331	0.538063
C90	C	1.915770	0.164669	1.038063
C91	C	1.432016	-0.274108	0.576194
C92	C	1.932016	0.225892	1.076194
C93	C	1.448266	-0.212880	0.538091
C94	C	1.948266	0.287120	1.038091
C95	C	1.448253	-0.212875	0.461865
C96	C	1.948253	0.287125	0.961865
C97	C	1.431987	-0.274104	0.423741
C98	C	1.931987	0.225896	0.923741
C99	C	1.514756	-0.237249	0.696955
C100	C	2.014756	0.262751	1.196955
C101	C	1.514755	-0.237245	0.773184
C102	C	2.014755	0.262755	1.273184
C103	C	1.349311	-0.310972	0.773187
C104	C	1.849311	0.189028	1.273187
C105	C	1.349306	-0.310969	0.696959
C106	C	1.849306	0.189031	1.196959
C107	C	1.432035	-0.274109	0.658848
C108	C	1.932035	0.225891	1.158848
H109	H	2.041136	-0.340457	-0.000041
H110	H	2.541136	0.159543	0.499959
Cl111	Cl	1.174716	0.544592	-0.000065
Cl112	Cl	1.674716	1.044592	0.499935
Cl113	Cl	1.801343	-0.176749	-0.000020
Cl114	Cl	2.301343	0.323251	0.499980
H115	H	1.402498	-0.385180	0.430798
H116	H	1.902498	0.114820	0.930798
H117	H	1.235524	0.077709	-0.000027
H118	H	1.735524	0.577709	0.499973
Cl119	Cl	1.395351	-0.412304	0.585956
Cl120	Cl	1.895351	0.087696	1.085956
H121	H	2.036066	-0.176291	-0.000041
H122	H	2.536066	0.323709	0.499959
H123	H	1.587312	0.152253	-0.077005
H124	H	2.087312	0.652253	0.422995
H125	H	1.639911	-0.074242	-0.000002
H126	H	2.139911	0.425758	0.499998
Cl127	Cl	1.242958	0.153477	0.095755
Cl128	Cl	1.742958	0.653477	0.595755
H129	H	1.827917	-0.371913	-0.000048
H130	H	2.327917	0.128087	0.499952
H131	H	1.281859	-0.340957	0.195719
H132	H	1.781859	0.159043	0.695719
Cl133	Cl	1.618750	-0.190907	0.649043
Cl134	Cl	2.118750	0.309093	1.149043
H135	H	1.583941	0.284112	-0.077018
H136	H	2.083941	0.784112	0.422982
H137	H	1.461481	-0.163020	0.430844
H138	H	1.961481	0.336980	0.930844
Cl139	Cl	1.685080	0.071257	-0.000018
Cl140	Cl	2.185080	0.571257	0.499982
Cl141	Cl	1.677832	0.355546	-0.000029
Cl142	Cl	2.177832	0.855546	0.499971
Cl143	Cl	1.245309	-0.357306	0.649050
Cl144	Cl	1.745309	0.142694	1.149050
Cl145	Cl	1.673642	0.519593	-0.000065
Cl146	Cl	2.173642	1.019593	0.499935
Cl147	Cl	1.245259	-0.357292	0.350891
Cl148	Cl	1.745259	0.142708	0.850891
H149	H	1.227441	0.394190	-0.000051
H150	H	1.727441	0.894190	0.499949
H151	H	1.461495	-0.163026	0.569136
H152	H	1.961495	0.336974	1.069136
H153	H	1.276675	0.299541	0.076942
H154	H	1.776675	0.799541	0.576942
H155	H	1.238876	-0.054151	-0.000024
H156	H	1.738876	0.445849	0.499976
Cl157	Cl	1.618674	-0.190891	0.178829
Cl158	Cl	2.118674	0.309109	0.678829
Cl159	Cl	1.618699	-0.190896	0.350880
Cl160	Cl	2.118699	0.309104	0.850880
H161	H	1.582117	-0.207230	0.804211
H162	H	2.082117	0.292770	1.304211
H163	H	1.281965	-0.340984	0.804222
H164	H	1.781965	0.159016	1.304222
