data_functionalizedCrystal
_audit_creation_method	'MofGen! by Chris Wilmer'
_symmetry_space_group_name_H-M	'P1'
_symmetry_Int_Tables_number	1
_symmetry_cell_setting	triclinic
loop_
_symmetry_equiv_pos_as_xyz
  x,y,z
_cell_length_a	14.395555
_cell_length_b	14.395555
_cell_length_c	14.395555
_cell_angle_alpha	59.997581
_cell_angle_beta	89.999455
_cell_angle_gamma	59.996935
loop_
_atom_site_label
_atom_site_type_symbol
_atom_site_fract_x
_atom_site_fract_y
_atom_site_fract_z
Zr1	Zr	0.894860	1.016798	-0.121871
O2	O	0.746521	1.210615	-0.270212
O3	O	0.940341	0.822990	-0.076396
O4	O	0.940334	1.016803	-0.270199
O5	O	0.746526	1.016796	0.076466
O6	O	1.093208	1.016796	-0.270191
O7	O	0.746529	1.016803	-0.076408
O8	O	1.093221	0.670101	0.076488
O9	O	0.746513	1.363491	-0.270213
O10	O	1.073817	0.902698	-0.056996
O11	O	0.959727	0.902698	0.057086
O12	O	0.959719	1.130887	-0.171093
O13	O	0.845628	1.130887	-0.057011
Zr14	Zr	1.138672	1.016776	0.121958
Zr15	Zr	1.138676	1.016787	-0.121858
Zr16	Zr	0.894856	1.016787	0.121945
Zr17	Zr	0.894846	1.260617	-0.121874
Zr18	Zr	1.138686	0.772957	0.121961
O19	O	1.093191	1.210584	0.076483
O20	O	1.093197	1.210600	-0.270193
O21	O	0.746515	1.210600	0.076464
O22	O	1.287011	0.822959	0.270299
O23	O	1.287017	0.822975	-0.076377
O24	O	0.940335	0.822975	0.270280
O25	O	1.287006	1.016778	-0.076379
O26	O	1.093198	1.016771	0.270286
O27	O	0.940324	1.016778	0.270278
O28	O	1.287003	1.016771	0.076495
O29	O	0.940314	1.363482	-0.270203
O30	O	1.093218	0.670092	0.270290
O31	O	1.287019	0.670083	0.270300
O32	O	1.287023	0.670092	0.076499
O33	O	0.746509	1.363482	-0.076412
O34	O	0.940311	1.363473	-0.076401
O35	O	1.073813	0.902687	0.171180
O36	O	1.187904	0.902687	0.057098
O37	O	1.073805	1.130877	-0.056999
O38	O	0.959715	1.130877	0.057083
C39	C	1.016783	0.711807	0.000047
C40	C	1.016789	0.608299	0.000048
C41	C	1.078985	0.547721	-0.062165
C42	C	1.124065	0.409605	0.045109
C43	C	0.971715	0.561980	-0.107215
C44	C	1.061931	0.471484	0.107386
C45	C	0.909522	0.623932	-0.045016
C46	C	0.954575	0.485826	0.062323
C47	C	0.711789	1.016801	0.000027
C48	C	0.608282	1.016806	0.000022
C49	C	0.485482	1.141224	-0.062179
C50	C	0.454650	1.079030	-0.107255
C51	C	0.454690	1.078994	0.045089
C52	C	0.578814	0.954611	-0.045117
C53	C	0.578851	0.954593	0.107287
C54	C	0.548093	0.892308	0.062238
C55	C	1.321743	1.016773	0.000060
C56	C	1.425250	1.016769	0.000065
C57	C	1.016771	1.016801	-0.304934
C58	C	1.016773	1.016806	-0.408440
C59	C	1.016749	1.321768	0.000040
C60	C	1.016743	1.425275	0.000039
C61	C	0.954549	1.141224	-0.531240
C62	C	1.061821	1.079024	-0.562073
C63	C	0.909506	1.079001	-0.562030
C64	C	1.124109	0.954604	-0.437910
C65	C	0.971717	0.954600	-0.437871
C66	C	1.079053	0.892308	-0.468631
C67	C	1.016761	1.016773	0.305021
C68	C	1.016759	1.016769	0.408527
C69	C	1.321760	0.711793	0.000063
C70	C	1.425273	0.608281	0.000069
C71	C	1.016778	0.711793	0.305024
C72	C	1.016782	0.608281	0.408532
C73	C	1.321755	0.711779	0.305040
C74	C	1.425265	0.608262	0.408553
C75	C	0.711777	1.321795	-0.304953
C76	C	0.608267	1.425312	-0.408466
C77	C	0.711772	1.321781	0.000024
C78	C	0.608259	1.425294	0.000018
C79	C	1.016754	1.321781	-0.304937
C80	C	1.016750	1.425294	-0.408445
C81	C	1.548070	0.547714	0.062249
C82	C	1.578938	0.409597	0.107306
C83	C	1.578838	0.562014	-0.045040
C84	C	1.454777	0.471464	0.045190
C85	C	1.454681	0.623955	-0.107216
C86	C	1.485475	0.485847	-0.062185
C87	C	0.954577	0.547696	0.406915
C88	C	1.061863	0.409580	0.499944
C89	C	0.909539	0.561926	0.499941
C90	C	1.124131	0.471465	0.500198
C91	C	0.971730	0.623885	0.500181
C92	C	1.079080	0.485778	0.593227
C93	C	1.423652	0.547645	0.531349
C94	C	1.516651	0.409538	0.562150
C95	C	1.516710	0.561816	0.562187
C96	C	1.516901	0.471457	0.437991
C97	C	1.516946	0.623808	0.438032
C98	C	1.609962	0.485711	0.468759
H99	H	0.933615	0.599185	-0.197923
H100	H	1.131768	0.458741	0.672862
Cl101	Cl	1.160312	0.589540	-0.143254
H102	H	1.689596	0.458667	0.443107
H103	H	1.099986	0.317954	0.500873
H104	H	0.933579	0.715544	0.499192
H105	H	0.933583	0.902063	-0.384355
H106	H	0.818839	0.599105	0.500852
Cl107	Cl	1.661412	0.619491	-0.103874
H108	H	1.516056	0.434121	0.384595
Cl109	Cl	1.372438	0.413683	0.104188
Cl110	Cl	0.587603	0.729789	0.143390
H111	H	1.515995	0.715445	0.384550
Cl112	Cl	1.300503	0.589491	0.570616
Cl113	Cl	1.264086	0.268118	0.103950
Cl114	Cl	1.160393	0.729745	-0.429015
Cl115	Cl	1.120922	0.413738	0.247499
Cl116	Cl	0.873451	1.303651	-0.570518
Cl117	Cl	1.445873	0.444138	-0.143421
H118	H	1.517558	0.317925	0.615634
Cl119	Cl	1.518151	0.619174	0.644844
H120	H	0.460033	1.246432	-0.114860
Cl121	Cl	0.873478	0.589531	0.283764
H122	H	0.401131	1.131618	-0.197950
Cl123	Cl	0.769462	1.160226	-0.644641
H124	H	1.573508	0.574782	0.114939
Cl125	Cl	0.661178	0.873522	-0.104130
Cl126	Cl	0.873355	0.444098	0.143653
H127	H	1.632481	0.317947	0.197993
Cl128	Cl	1.264237	0.413745	0.498938
Cl129	Cl	0.769521	0.765449	-0.103904
Cl130	Cl	1.372011	0.765501	-0.247197
Cl131	Cl	0.661481	0.873473	0.247284
Cl132	Cl	0.372077	1.160210	0.103910
Cl133	Cl	1.120658	1.160202	-0.644705
H134	H	1.214861	0.902047	-0.384545
