data_functionalizedCrystal
_audit_creation_method	'MofGen! by Chris Wilmer'
_symmetry_space_group_name_H-M	'P1'
_symmetry_Int_Tables_number	1
_symmetry_cell_setting	triclinic
loop_
_symmetry_equiv_pos_as_xyz
  x,y,z
_cell_length_a	14.044220
_cell_length_b	17.038272
_cell_length_c	12.503572
_cell_angle_alpha	93.777379
_cell_angle_beta	86.164750
_cell_angle_gamma	92.150217
loop_
_atom_site_label
_atom_site_type_symbol
_atom_site_fract_x
_atom_site_fract_y
_atom_site_fract_z
O1	O	1.278116	0.185401	-0.089207
O2	O	1.001597	0.178559	-0.089234
O3	O	1.138213	0.068050	-0.089212
O4	O	1.141501	0.295910	-0.089229
O5	O	1.127940	0.076376	0.089428
O6	O	0.991324	0.186885	0.089406
O7	O	1.267843	0.193727	0.089433
Cu8	Cu	1.128646	0.191066	0.105731
Cu9	Cu	1.140795	0.181220	-0.105532
O10	O	1.131228	0.304236	0.089411
C11	C	0.960905	0.179728	0.000083
C12	C	0.854959	0.170796	0.000072
C13	C	0.660980	0.154469	0.000095
C14	C	0.608455	0.217814	0.000095
C15	C	0.500518	0.208729	0.000107
C16	C	0.768927	0.163552	0.000082
C17	C	1.130087	0.042876	0.000108
C18	C	1.121168	-0.044541	0.000106
C19	C	1.203055	-0.088926	0.000115
C20	C	1.194670	-0.171064	0.000104
C21	C	1.104395	-0.208815	0.000092
C22	C	1.022502	-0.164424	0.000080
C23	C	1.030888	-0.082288	0.000083
C24	C	1.074766	-0.456646	0.000074
C25	C	1.066385	-0.538788	0.000074
C26	C	1.238555	-0.545422	0.000097
C27	C	1.246933	-0.463284	0.000107
C28	C	1.165040	-0.418901	0.000089
C29	C	1.095822	-0.292772	0.000084
C30	C	1.173615	-0.334945	0.000089
C31	C	1.308536	0.192558	0.000114
C32	C	1.414481	0.201490	0.000117
C33	C	1.139354	0.329410	0.000089
C34	C	1.148273	0.416827	0.000083
N35	N	1.120107	0.197992	0.254322
N36	N	1.149340	0.174289	-0.254123
C37	C	1.107548	0.208186	0.473435
C38	C	1.161896	0.164097	0.526771
C39	C	1.154908	0.169769	0.648693
C40	C	1.114535	0.202515	0.351502
H41	H	0.644550	0.278868	0.000085
H42	H	1.213675	0.122092	0.480866
H43	H	0.964206	-0.046150	0.000075
O44	O	1.261261	-0.298195	-0.000042
C45	C	1.276593	-0.255206	-0.092573
H46	H	1.204883	-0.241464	-0.123433
H47	H	1.319578	-0.291511	-0.157351
C48	C	1.420220	-0.194647	-0.026555
C49	C	1.332144	-0.177763	-0.064452
H50	H	1.454489	-0.146877	-0.009212
H51	H	1.409893	-0.223611	0.035783
H52	H	1.456029	-0.224902	-0.080543
H53	H	1.296332	-0.147516	-0.010460
H54	H	1.342466	-0.148791	-0.126781
H55	H	0.948998	-0.195167	0.000063
H56	H	1.055775	0.250190	0.519334
O57	O	0.617778	0.081690	0.000051
C58	C	0.518064	0.088709	0.000085
H59	H	0.501729	0.146896	-0.033729
H60	H	0.485153	0.086996	0.085790
C61	C	0.495730	-0.051377	-0.028440
C62	C	0.475666	0.020087	-0.069980
H63	H	0.469575	-0.093708	-0.071655
H64	H	0.562909	-0.056107	-0.028459
H65	H	0.468303	-0.052794	0.042980
H66	H	0.503103	0.021506	-0.141393
H67	H	0.408491	0.024815	-0.069974
H68	H	1.276566	-0.058195	0.000132
H69	H	1.022319	-0.323518	0.000076
H70	H	1.261352	-0.207199	0.000114
O71	O	1.334702	-0.426743	0.000075
C72	C	1.405181	-0.483531	0.000112
H73	H	1.375918	-0.542681	-0.033722
H74	H	1.425819	-0.489301	0.085820
C75	C	1.529760	-0.385218	-0.028364
C76	C	1.493821	-0.457866	-0.069929
H77	H	1.584440	-0.369386	-0.071564
H78	H	1.482278	-0.346958	-0.028385
H79	H	1.546951	-0.390036	0.043059
H80	H	1.476620	-0.453044	-0.141344
H81	H	1.541303	-0.496124	-0.069921
H82	H	1.305227	-0.581568	0.000110
O83	O	0.978680	-0.575436	-0.000138
C84	C	0.933678	-0.557646	-0.092656
H85	H	0.990074	-0.540015	-0.157310
H86	H	0.883657	-0.506932	-0.071752
C87	C	0.806643	-0.652192	-0.055212
C88	C	0.875910	-0.630543	-0.134624
H89	H	0.771005	-0.697156	-0.081099
H90	H	0.836959	-0.664176	0.007122
H91	H	0.764968	-0.609924	-0.037799
H92	H	0.917590	-0.672807	-0.152026
H93	H	0.845600	-0.618568	-0.196962
O94	O	0.995281	-0.413445	0.000206
C95	C	0.989645	-0.361439	0.092737
H96	H	1.063867	-0.350579	0.123591
H97	H	0.940206	-0.388438	0.157518
C98	C	0.858852	-0.296169	0.026729
C99	C	0.950014	-0.282825	0.064619
H100	H	0.834401	-0.247677	0.009387
H101	H	0.862646	-0.331208	-0.035609
H102	H	0.817664	-0.318670	0.080720
H103	H	0.991203	-0.260335	0.010624
H104	H	0.946226	-0.247781	0.126948
