data_functionalizedCrystal
_audit_creation_method	'MofGen! by Chris Wilmer'
_symmetry_space_group_name_H-M	'P1'
_symmetry_Int_Tables_number	1
_symmetry_cell_setting	triclinic
loop_
_symmetry_equiv_pos_as_xyz
  x,y,z
_cell_length_a	12.645331
_cell_length_b	21.295418
_cell_length_c	12.645323
_cell_angle_alpha	90.031095
_cell_angle_beta	90.014068
_cell_angle_gamma	90.031874
loop_
_atom_site_label
_atom_site_type_symbol
_atom_site_fract_x
_atom_site_fract_y
_atom_site_fract_z
Zn1	Zn	-1.620613	0.250635	-0.599157
Zn2	Zn	-1.620445	0.355910	-0.421878
Zn3	Zn	-1.443328	0.250655	-0.421928
Zn4	Zn	-1.443260	0.355867	-0.599120
O5	O	-1.531911	0.303267	-0.510521
O6	O	-1.768938	0.264610	-0.575635
O7	O	-1.596908	0.341974	-0.273537
O8	O	-1.466944	0.162563	-0.445474
O9	O	-1.768815	0.341955	-0.445389
O10	O	-1.597194	0.162549	-0.575684
O11	O	-1.466781	0.264643	-0.273574
O12	O	-1.294971	0.264602	-0.445438
O13	O	-1.466828	0.341882	-0.747472
O14	O	-1.294922	0.341901	-0.575620
O15	O	-1.597129	0.264568	-0.747499
O16	O	-1.596842	0.443994	-0.445353
O17	O	-1.466665	0.443962	-0.575572
C18	C	-1.256482	0.303250	-0.510531
C19	C	-1.138652	0.303257	-0.510561
C20	C	-0.971092	0.352151	-0.592036
C21	C	-1.093652	0.351994	-0.592374
C22	C	-1.094205	0.236956	-0.541096
C23	C	-0.971607	0.237252	-0.541673
C24	C	-0.971398	0.320127	-0.398304
C25	C	-1.094003	0.321579	-0.398905
C26	C	-1.531757	0.466818	-0.510476
C27	C	-1.531788	0.536787	-0.510492
C28	C	-1.531990	0.303218	-0.787026
C29	C	-1.532023	0.303197	-0.904856
C30	C	-0.808417	0.303282	-0.510518
C31	C	-0.926247	0.303281	-0.510535
C32	C	-1.599750	1.036184	-0.578429
C33	C	-1.599729	0.970441	-0.578415
C34	C	-1.531956	0.937626	-0.510563
C35	C	-1.464218	0.970559	-0.442701
C36	C	-1.464249	1.036300	-0.442710
N37	N	-1.439119	0.834455	-0.502344
N38	N	-1.439093	0.772003	-0.502342
C39	C	-1.531863	0.739551	-0.510531
N40	N	-1.624662	0.771910	-0.518743
N41	N	-1.624686	0.834367	-0.518750
C42	C	-1.531917	0.866341	-0.510546
C43	C	-1.599579	0.635341	-0.578368
C44	C	-1.599560	0.569597	-0.578346
C45	C	-1.464040	0.569716	-0.442638
C46	C	-1.464068	0.635458	-0.442654
C47	C	-1.531837	0.668267	-0.510525
C48	C	-1.532056	1.139077	-0.510579
C49	C	-1.532017	1.069108	-0.510581
C50	C	-1.449798	0.351606	-1.072403
C51	C	-1.450013	0.351846	-0.949843
C52	C	-1.643714	0.321203	-0.949356
C53	C	-1.643263	0.321506	-1.071954
C54	C	-1.503613	0.236513	-1.072070
C55	C	-1.501121	0.236912	-0.949464
C56	C	-1.531895	0.303270	-0.235091
C57	C	-1.532067	0.303113	-0.117261
H58	H	-1.123701	0.401161	-0.573235
F59	F	-1.671713	0.670260	-0.650591
H60	H	-1.563534	0.200384	-1.101082
H61	H	-1.123355	0.199555	-0.483588
F62	F	-1.474611	0.416374	-0.911507
H63	H	-1.706636	0.287720	-1.101629
H64	H	-1.654941	1.062892	-0.633687
H65	H	-0.940454	0.367649	-0.370554
F66	F	-1.134035	0.278428	-0.315270
H67	H	-0.941577	0.401479	-0.573111
H68	H	-1.418926	0.223334	-0.920380
F69	F	-1.341215	0.337018	-1.110936
F70	F	-1.134370	0.217938	-0.647173
F71	F	-1.671824	0.935393	-0.650631
H72	H	-1.468396	0.400671	-1.103210
H73	H	-1.408908	0.662266	-0.387408
F74	F	-1.392093	0.935634	-0.370485
F75	F	-0.930835	0.337778	-0.700097
F76	F	-1.131970	0.385353	-0.368809
F77	F	-1.671661	0.534556	-0.650559
F78	F	-1.132025	0.337423	-0.701066
H79	H	-1.367189	0.340578	-0.919756
H80	H	-1.667385	0.370193	-1.100552
H81	H	-1.706653	0.287000	-0.920217
H82	H	-0.942398	0.284531	-0.337578
F83	F	-1.391918	0.534796	-0.370416
H84	H	-1.556666	0.198872	-0.918842
F85	F	-1.675787	0.384173	-0.909229
F86	F	-1.392154	1.071342	-0.370494
F87	F	-0.934263	0.218578	-0.648914
H88	H	-1.423587	0.220100	-1.102990
H89	H	-0.941943	0.199536	-0.485034
