data_functionalizedCrystal
_audit_creation_method	'MofGen! by Chris Wilmer'
_symmetry_space_group_name_H-M	'P1'
_symmetry_Int_Tables_number	1
_symmetry_cell_setting	triclinic
loop_
_symmetry_equiv_pos_as_xyz
  x,y,z
_cell_length_a	19.121102
_cell_length_b	29.839131
_cell_length_c	19.120969
_cell_angle_alpha	92.523640
_cell_angle_beta	90.151580
_cell_angle_gamma	87.595578
loop_
_atom_site_label
_atom_site_type_symbol
_atom_site_fract_x
_atom_site_fract_y
_atom_site_fract_z
Zn1	Zn	1.055003	-0.195380	0.442073
Zn2	Zn	1.059823	-0.273907	0.324818
Zn3	Zn	0.942704	-0.195729	0.319848
Zn4	Zn	0.937699	-0.267418	0.437030
O5	O	0.998807	-0.233109	0.380942
O6	O	1.153749	-0.208366	0.430710
O7	O	1.048399	-0.266398	0.226046
O8	O	0.957678	-0.132817	0.336091
O9	O	1.157290	-0.266060	0.344563
O10	O	1.040183	-0.132561	0.425890
O11	O	0.962352	-0.208961	0.222394
O12	O	0.843934	-0.202669	0.331201
O13	O	0.949148	-0.255001	0.535812
O14	O	0.840257	-0.255339	0.417295
O15	O	1.035330	-0.202075	0.539517
O16	O	1.043546	-0.335912	0.339673
O17	O	0.953822	-0.331145	0.422115
C18	C	0.816657	-0.228338	0.373162
C19	C	0.738732	-0.226308	0.369850
C20	C	0.700229	-0.252822	0.413048
C21	C	0.627010	-0.250908	0.409939
C22	C	0.592295	-0.222482	0.363629
C23	C	0.630803	-0.195966	0.320429
C24	C	0.704020	-0.197877	0.323542
C25	C	0.371319	-0.215334	0.351995
C26	C	0.298096	-0.213425	0.348884
C27	C	0.294308	-0.268367	0.438396
C28	C	0.367528	-0.270278	0.441501
C29	C	0.406029	-0.243760	0.398304
C30	C	0.517453	-0.220527	0.360449
C31	C	0.480869	-0.245713	0.401488
C32	C	0.998682	-0.349829	0.380902
C33	C	0.998692	-0.399763	0.380911
C34	C	1.045605	-0.711879	0.338084
C35	C	1.045691	-0.899553	0.338115
O36	O	1.085479	-0.925918	0.301671
N37	N	0.998950	-0.920553	0.381001
C38	C	0.952189	-0.894631	0.423886
O39	O	0.912440	-0.916799	0.460370
C40	C	0.952107	-0.706957	0.423859
C41	C	0.998846	-0.685960	0.380964
C42	C	1.092341	-0.690882	0.295194
C43	C	1.092316	-0.643966	0.295183
C44	C	1.045557	-0.618047	0.338064
C45	C	0.998821	-0.639044	0.380954
C46	C	0.905349	-0.681036	0.466747
C47	C	0.905334	-0.634115	0.466738
C48	C	0.952073	-0.613118	0.423843
C49	C	0.952037	-0.566210	0.423824
N50	N	0.998778	-0.545210	0.380938
C51	C	1.045537	-0.571129	0.338058
C52	C	0.952234	-0.993162	0.423897
C53	C	0.952253	-1.040081	0.423903
C54	C	1.045756	-1.045000	0.338132
C55	C	1.045733	-0.998081	0.338123
C56	C	0.998974	-0.972163	0.381011
C57	C	1.045482	-0.472602	0.338039
C58	C	1.045451	-0.425682	0.338031
C59	C	0.951951	-0.420767	0.423804
C60	C	0.951979	-0.467683	0.423810
C61	C	0.998750	-0.493600	0.380926
O62	O	0.912275	-0.539817	0.460255
O63	O	1.085290	-0.548953	0.301591
C64	C	1.045630	-0.758795	0.338094
C65	C	0.998894	-0.779792	0.380984
C66	C	0.952135	-0.753873	0.423865
C67	C	0.998914	-0.826710	0.380991
C68	C	1.045673	-0.852629	0.338110
C69	C	1.092414	-0.831629	0.295224
C70	C	1.092389	-0.784713	0.295214
C71	C	0.905395	-0.774873	0.466751
C72	C	0.905422	-0.821789	0.466757
C73	C	0.952182	-0.847708	0.423877
C74	C	1.181669	-0.237898	0.388754
C75	C	1.259593	-0.239939	0.392082
C76	C	0.998951	-0.115933	0.380999
C77	C	0.999013	-0.065999	0.381023
C78	C	1.006482	-0.238390	0.198783
C79	C	1.009884	-0.240540	0.120859
C80	C	0.966358	-0.211848	0.082368
C81	C	0.969560	-0.213868	0.009151
C82	C	1.016287	-0.244583	-0.025574
C83	C	1.059818	-0.273276	0.012923
C84	C	1.056618	-0.271254	0.086138
C85	C	1.028208	-0.252173	-0.246543
C86	C	1.031403	-0.254194	-0.319765
C87	C	0.941146	-0.194785	-0.323531
C88	C	0.937948	-0.192767	-0.250313
C89	C	0.981482	-0.221459	-0.211824
C90	C	1.019560	-0.246649	-0.100413
C91	C	0.978211	-0.219390	-0.136985
C92	C	0.991143	-0.227775	0.563815
C93	C	0.987877	-0.225502	0.641745
H94	H	0.395788	-0.293426	0.479210
H95	H	1.130485	-0.852740	0.260307
O96	O	0.927208	-0.185977	-0.028133
C97	C	0.885291	-0.158428	0.018217
H98	H	0.880770	-0.175344	0.070226
H99	H	0.830935	-0.153030	-0.005380
H100	H	0.910270	-0.124632	0.027283
O101	O	0.859938	-0.749651	0.508305
C102	C	0.816336	-0.722545	0.466410
H103	H	0.843331	-0.717705	0.414357
H104	H	0.805695	-0.688474	0.494554
H105	H	0.764726	-0.739536	0.456443
O106	O	1.137690	-0.716117	0.253538
C107	C	1.099761	-0.743582	0.206505
H108	H	1.045563	-0.748524	0.228884
H109	H	1.128740	-0.777580	0.198409
H110	H	1.094310	-0.726853	0.154191
H111	H	1.083569	-0.493698	0.303120
H112	H	1.097866	-0.298283	-0.015356
O113	O	0.408744	-0.189529	0.310134
C114	C	0.449470	-0.160499	0.351934
H115	H	0.425104	-0.155591	0.406224
H116	H	0.451390	-0.126660	0.326710
H117	H	0.504847	-0.175771	0.356670
O118	O	0.257015	-0.294164	0.480390
C119	C	0.303355	-0.319651	0.521948
H120	H	0.356742	-0.323382	0.495440
H121	H	0.281855	-0.354285	0.528436
H122	H	0.308942	-0.301897	0.575571
H123	H	0.602532	-0.172819	0.282725
O124	O	0.859991	-0.842110	0.508493
C125	C	0.818708	-0.809167	0.546323
H126	H	0.847304	-0.776382	0.549983
H127	H	0.808881	-0.820902	0.601243
H128	H	0.766556	-0.803579	0.518334
H129	H	1.083511	-0.408588	0.303099
H130	H	0.899895	-0.167758	-0.222046
O131	O	1.070397	-0.280056	-0.209080
C132	C	1.028946	-0.307063	-0.168620
H133	H	0.975174	-0.289775	-0.159958
H134	H	1.055316	-0.312266	-0.115885
H135	H	1.022830	-0.340987	-0.197296
O136	O	0.741450	-0.172073	0.281678
C137	C	0.782177	-0.143044	0.323479
H138	H	0.757812	-0.138138	0.377770
H139	H	0.784095	-0.109204	0.298256
H140	H	0.837554	-0.158315	0.328212
H141	H	1.092063	-0.294617	0.117477
O142	O	0.898936	-0.166932	-0.361025
C143	C	0.911764	-0.175309	-0.433094
H144	H	0.966450	-0.191467	-0.440744
H145	H	0.907881	-0.142312	-0.461000
H146	H	0.871335	-0.198921	-0.455815
H147	H	0.269833	-0.190272	0.311177
H148	H	0.509137	-0.268855	0.439197
H149	H	1.130376	-0.626873	0.260257
H150	H	1.069469	-0.279199	-0.348035
H151	H	0.595664	-0.272499	0.445115
O152	O	1.091203	-0.977758	0.296439
C153	C	1.132460	-1.010701	0.258580
H154	H	1.133671	-1.043362	0.287410
H155	H	1.188012	-0.998777	0.253501
H156	H	1.109062	-1.016603	0.204218
H157	H	1.083830	-1.066111	0.303218
H158	H	0.914188	-1.057172	0.458825
H159	H	0.914155	-0.972063	0.458822
O160	O	0.483696	-0.192979	0.315392
C161	C	0.443185	-0.218725	0.268251
H162	H	0.465402	-0.254807	0.264742
H163	H	0.444602	-0.203968	0.214309
H164	H	0.386795	-0.218217	0.287581
H165	H	0.867287	-0.698123	0.501673
O166	O	0.859943	-0.608985	0.508499
C167	C	0.872303	-0.618777	0.579044
H168	H	0.899208	-0.653486	0.581672
H169	H	0.820368	-0.618170	0.608284
H170	H	0.907326	-0.592593	0.604219
O171	O	0.906551	-0.488010	0.465539
C172	C	0.865261	-0.455070	0.503368
H173	H	0.893852	-0.422283	0.507031
H174	H	0.855435	-0.466806	0.558288
H175	H	0.813109	-0.449486	0.475378
O176	O	0.906632	-0.395563	0.465537
C177	C	0.944612	-0.368102	0.512530
H178	H	0.999645	-0.383525	0.519261
H179	H	0.916960	-0.365329	0.565385
H180	H	0.947944	-0.333245	0.490945
H181	H	1.130448	-0.767621	0.260285
H182	H	0.940170	-0.194381	-0.108709
O183	O	0.920890	-0.182073	0.116124
C184	C	0.874035	-0.205516	0.156373
H185	H	0.871033	-0.241429	0.133980
H186	H	0.819884	-0.188080	0.154862
H187	H	0.893298	-0.205996	0.212822
H188	H	1.057603	-0.271658	-0.128694
H189	H	0.728489	-0.275970	0.450756
