data_functionalizedCrystal
_audit_creation_method	'MofGen! by Chris Wilmer'
_symmetry_space_group_name_H-M	'P1'
_symmetry_Int_Tables_number	1
_symmetry_cell_setting	triclinic
loop_
_symmetry_equiv_pos_as_xyz
  x,y,z
_cell_length_a	27.732064
_cell_length_b	27.732048
_cell_length_c	14.750779
_cell_angle_alpha	77.459753
_cell_angle_beta	102.543239
_cell_angle_gamma	82.646040
loop_
_atom_site_label
_atom_site_type_symbol
_atom_site_fract_x
_atom_site_fract_y
_atom_site_fract_z
O1	O	0.630371	0.068100	-0.079670
O2	O	0.489573	0.076842	-0.079711
O3	O	0.564348	0.002072	-0.079671
O4	O	0.555597	0.142870	-0.079710
O5	O	0.585485	-0.019062	0.079991
O6	O	0.510711	0.055708	0.079951
O7	O	0.651509	0.046966	0.079992
Zn8	Zn	0.584466	0.047981	0.105321
Zn9	Zn	0.556616	0.075827	-0.105040
O10	O	0.576735	0.121736	0.079952
C11	C	0.482135	0.066091	0.000115
C12	C	0.428478	0.065537	0.000100
C13	C	0.574733	-0.026502	0.000163
C14	C	0.574181	-0.080158	0.000171
C15	C	0.051415	0.017561	0.000168
C16	C	0.253072	0.019611	0.000143
O17	O	0.284330	-0.017616	0.000189
N18	N	0.272197	0.063947	0.000126
C19	C	0.240905	0.107774	0.000122
O20	O	0.261801	0.145530	0.000118
C21	C	0.039250	0.105722	0.000155
C22	C	0.020127	0.061384	0.000162
C23	C	0.032291	-0.026774	0.000176
C24	C	-0.018121	-0.027285	0.000177
C25	C	-0.049409	0.016539	0.000171
C26	C	-0.030285	0.060873	0.000163
C27	C	0.007961	0.149547	0.000158
C28	C	-0.042456	0.149030	0.000168
C29	C	-0.061579	0.104692	0.000175
C30	C	-0.111985	0.104185	0.000157
N31	N	-0.131110	0.059849	0.000174
C32	C	-0.099822	0.016025	0.000180
C33	C	0.346777	0.108847	0.000103
C34	C	0.397190	0.109361	0.000094
C35	C	0.409354	0.021197	0.000116
C36	C	0.358938	0.020686	0.000119
C37	C	0.327652	0.064511	0.000120
C38	C	-0.205692	0.014955	0.000182
C39	C	-0.256109	0.014448	0.000179
C40	C	-0.268267	0.102611	0.000162
C41	C	-0.217855	0.103119	0.000160
C42	C	-0.186567	0.059286	0.000173
O43	O	-0.143271	0.141391	0.000122
O44	O	-0.120725	-0.021728	0.000207
C45	C	0.101827	0.018072	0.000167
C46	C	0.120951	0.062407	0.000159
C47	C	0.089663	0.106230	0.000153
C48	C	0.171364	0.062920	0.000149
C49	C	0.202652	0.019097	0.000156
C50	C	0.183527	-0.025240	0.000173
C51	C	0.133115	-0.025751	0.000174
C52	C	0.108788	0.150567	0.000136
C53	C	0.159200	0.151075	0.000134
C54	C	0.190488	0.107251	0.000140
C55	C	0.614880	-0.418966	0.000133
C56	C	0.612827	-0.620624	0.000119
O57	O	0.650043	-0.651873	0.000088
N58	N	0.568491	-0.639749	0.000107
C59	C	0.524663	-0.608455	0.000092
O60	O	0.486904	-0.629347	0.000072
C61	C	0.526716	-0.406797	0.000099
C62	C	0.571057	-0.387676	0.000121
C63	C	0.659217	-0.399845	0.000154
C64	C	0.659730	-0.349434	0.000162
C65	C	0.615907	-0.318144	0.000151
C66	C	0.571570	-0.337266	0.000130
C67	C	0.482888	-0.375503	0.000078
C68	C	0.483405	-0.325085	0.000077
C69	C	0.527746	-0.305965	0.000099
C70	C	0.528260	-0.255565	0.000127
N71	N	0.572596	-0.236440	0.000139
C72	C	0.616420	-0.267730	0.000151
C73	C	0.523589	-0.714329	0.000090
C74	C	0.523076	-0.764743	0.000090
C75	C	0.611240	-0.776909	0.000115
C76	C	0.611753	-0.726494	0.000122
C77	C	0.567926	-0.695204	0.000102
C78	C	0.617495	-0.161863	0.000170
C79	C	0.618005	-0.111448	0.000182
C80	C	0.529841	-0.099286	0.000152
C81	C	0.529331	-0.149698	0.000145
C82	C	0.573162	-0.180985	0.000150
O83	O	0.491062	-0.224286	0.000147
O84	O	0.654171	-0.246825	0.000150
C85	C	0.614366	-0.469377	0.000124
C86	C	0.570030	-0.488498	0.000104
C87	C	0.526206	-0.457208	0.000092
C88	C	0.569517	-0.538912	0.000104
C89	C	0.613340	-0.570202	0.000116
C90	C	0.657676	-0.551077	0.000128
C91	C	0.658190	-0.500666	0.000136
C92	C	0.481870	-0.476333	0.000080
C93	C	0.481360	-0.526745	0.000072
C94	C	0.525184	-0.558034	0.000084
C95	C	0.658947	0.057717	0.000164
C96	C	0.712603	0.058272	0.000172
C97	C	0.566349	0.150311	0.000116
C98	C	0.566900	0.203967	0.000102
N99	N	0.603476	0.028977	0.248887
N100	N	0.537610	0.094827	-0.248606
C101	C	0.484517	0.147881	0.600642
C102	C	0.497841	0.134568	0.701148
C103	C	0.564067	0.068383	0.701146
C104	C	0.550747	0.081689	0.600638
C105	C	0.510971	0.121439	0.550393
C106	C	0.577201	0.055247	0.550389
C107	C	0.563883	0.068554	0.449890
C108	C	0.524110	0.108304	0.399639
C109	C	0.497653	0.134747	0.449894
C110	C	0.616979	0.015500	0.600636
C111	C	0.643433	-0.010943	0.550387
C112	C	0.630113	0.002362	0.449886
C113	C	0.590340	0.042112	0.399635
C114	C	0.656570	-0.024080	0.399631
C115	C	0.643252	-0.010773	0.299131
C116	C	0.577022	0.055419	0.299135
H117	H	-0.271677	-0.021658	0.000182
O118	O	-0.171950	-0.032318	0.000190
H119	H	-0.193726	-0.063228	0.000186
H120	H	0.465261	0.167112	0.408983
O121	O	0.534117	0.098287	0.244917
H122	H	0.542540	0.133382	0.264177
H123	H	0.694297	-0.485104	0.000154
H124	H	0.057762	-0.062462	0.000185
H125	H	0.513269	0.119140	0.317805
O126	O	0.665831	-0.090824	0.000205
H127	H	0.659557	-0.059524	-0.064863
H128	H	0.452124	0.180246	0.559731
H129	H	0.646923	-0.802393	0.000126
H130	H	0.653185	-0.187332	0.000170
H131	H	0.664794	-0.032305	0.258219
H132	H	0.476296	0.156104	0.742055
H133	H	-0.033686	-0.063390	0.000187
H134	H	0.695836	-0.333871	0.000176
O135	O	0.217281	-0.072509	0.000193
H136	H	0.231926	-0.065769	-0.064876
H137	H	0.343372	-0.015418	0.000125
O138	O	0.179824	0.198900	0.000123
H139	H	0.211123	0.192622	0.065198
O140	O	0.704945	-0.584830	0.000141
H141	H	0.697133	-0.623095	0.000126
O142	O	0.028583	0.197366	0.000175
H143	H	-0.001648	0.227745	0.000191
H144	H	0.647859	-0.710930	0.000139
H145	H	0.694905	-0.425316	0.000160
O146	O	0.476314	-0.680589	0.000083
H147	H	0.465812	-0.648711	-0.064995
O148	O	0.075043	0.197836	0.000124
H149	H	0.096816	0.228749	0.000106
H150	H	0.434837	-0.014485	0.000118
H151	H	0.627822	0.004668	0.682469
O152	O	0.417815	0.157182	0.000087
H153	H	0.387586	0.187564	0.000097
H154	H	0.596454	0.036019	0.742066
O155	O	0.475254	-0.785366	0.000080
H156	H	0.444869	-0.755133	0.000062
H157	H	0.321307	0.144538	0.000103
H158	H	0.446781	-0.391061	0.000054
H159	H	-0.067927	0.184719	0.000174
H160	H	-0.202284	0.139222	0.000153
H161	H	-0.293752	0.138291	0.000152
H162	H	0.688958	-0.056442	0.440553
H163	H	0.445251	-0.542308	0.000063
O164	O	0.436134	-0.291339	0.000070
H165	H	0.406281	-0.289481	-0.065010
H166	H	0.675820	-0.043306	0.591308
O167	O	0.481509	-0.170326	0.000124
H168	H	0.451122	-0.140096	0.000113
H169	H	0.117549	-0.061856	0.000180
O170	O	0.482576	-0.065534	0.000143
H171	H	0.472088	-0.033658	-0.064935
O172	O	0.434603	-0.442590	0.000084
H173	H	0.403693	-0.464364	0.000086
