data_functionalizedCrystal
_audit_creation_method	'MofGen! by Chris Wilmer'
_symmetry_space_group_name_H-M	'P1'
_symmetry_Int_Tables_number	1
_symmetry_cell_setting	triclinic
loop_
_symmetry_equiv_pos_as_xyz
  x,y,z
_cell_length_a	14.446369
_cell_length_b	14.395555
_cell_length_c	14.446369
_cell_angle_alpha	90.003244
_cell_angle_beta	60.001874
_cell_angle_gamma	60.001246
loop_
_atom_site_label
_atom_site_type_symbol
_atom_site_fract_x
_atom_site_fract_y
_atom_site_fract_z
Zr1	Zr	1.013162	0.894948	-0.121431
O2	O	1.206273	0.746624	-0.269241
O3	O	0.820049	0.940413	-0.076119
O4	O	1.013152	0.940419	-0.269230
O5	O	1.013179	0.746617	0.076199
O6	O	1.013145	1.093294	-0.269222
O7	O	1.013171	0.746618	-0.076130
O8	O	0.667720	1.093282	0.076219
O9	O	1.358604	0.746629	-0.269242
O10	O	0.899475	1.073897	-0.056788
O11	O	0.899486	0.959808	0.056887
O12	O	1.126839	0.959816	-0.170477
O13	O	1.126850	0.845728	-0.056802
Zr14	Zr	1.013164	1.138764	0.121529
Zr15	Zr	1.013151	1.138765	-0.121418
Zr16	Zr	1.013175	0.894948	0.121516
Zr17	Zr	1.256112	0.894956	-0.121432
Zr18	Zr	0.770214	1.138756	0.121530
O19	O	1.206277	1.093299	0.076216
O20	O	1.206258	1.093300	-0.269223
O21	O	1.206292	0.746624	0.076198
O22	O	0.820053	1.287088	0.269339
O23	O	0.820034	1.287088	-0.076100
O24	O	0.820068	0.940412	0.269320
O25	O	1.013147	1.287095	-0.076101
O26	O	1.013174	1.093293	0.269327
O27	O	1.013181	0.940419	0.269319
O28	O	1.013155	1.287095	0.076227
O29	O	1.358595	0.940431	-0.269232
O30	O	0.667731	1.093281	0.269329
O31	O	0.667722	1.287083	0.269339
O32	O	0.667711	1.287083	0.076229
O33	O	1.358615	0.746629	-0.076132
O34	O	1.358606	0.940431	-0.076121
O35	O	0.899487	1.073896	0.170574
O36	O	0.899476	1.187985	0.056899
O37	O	1.126840	1.073904	-0.056789
O38	O	1.126852	0.959816	0.056886
C39	C	0.709270	1.016846	0.000050
C40	C	0.606131	1.016843	0.000051
C41	C	0.566850	0.944882	0.071755
C42	C	0.459214	0.945212	0.072136
C43	C	0.371411	1.140866	0.051975
C44	C	0.478657	1.140456	0.052519
C45	C	0.653847	0.965811	-0.123623
C46	C	0.547673	0.963322	-0.123439
C47	C	1.013177	0.711879	0.000033
C48	C	1.013181	0.608372	0.000027
C49	C	1.137151	0.485582	-0.061951
C50	C	1.075174	0.454744	-0.106867
C51	C	1.075153	0.454787	0.044934
C52	C	0.951204	0.578898	-0.044951
C53	C	0.951201	0.578937	0.106909
C54	C	0.889134	0.548173	0.062020
C55	C	1.317057	1.016866	0.000047
C56	C	1.420195	1.016870	0.000047
C57	C	1.013146	1.016857	-0.303841
C58	C	1.013141	1.016857	-0.406978
C59	C	1.013149	1.321833	0.000065
C60	C	1.013145	1.425340	0.000070
C61	C	0.869757	1.089165	-0.481956
C62	C	0.869660	1.088852	-0.374627
C63	C	1.084372	0.892894	-0.481545
C64	C	1.083462	0.893290	-0.588404
C65	C	1.086407	1.067509	-0.589968
C66	C	1.083704	1.070018	-0.481296
C67	C	1.013180	1.016856	0.303938
C68	C	1.013185	1.016856	0.407075
C69	C	0.709256	1.321823	0.000066
C70	C	0.606113	1.425326	0.000072
C71	C	0.709286	1.016846	0.303940
C72	C	0.606153	1.016842	0.407077
C73	C	0.709273	1.321823	0.303956
C74	C	0.606135	1.425326	0.407099
C75	C	1.317054	0.711889	-0.303858
C76	C	1.420191	0.608386	-0.407002
C77	C	1.317070	0.711889	0.000031
C78	C	1.420214	0.608386	0.000025
C79	C	1.317040	1.016867	-0.303842
C80	C	1.420173	1.016870	-0.406980
C81	C	0.459798	1.644460	0.071409
C82	C	0.566722	1.536854	0.071813
C83	C	0.479261	1.428662	0.052369
C84	C	0.371882	1.536808	0.052889
C85	C	0.546846	1.535436	-0.123663
C86	C	0.655319	1.429096	-0.123464
C87	C	0.459847	0.944534	0.482057
C88	C	0.566764	0.944843	0.374728
C89	C	0.479299	1.140806	0.481638
C90	C	0.371927	1.140414	0.588498
C91	C	0.546902	0.966200	0.590074
C92	C	0.655369	0.963688	0.481401
C93	C	0.459806	1.500572	0.625461
C94	C	0.566745	1.392862	0.518228
C95	C	0.479287	1.500128	0.410415
C96	C	0.371893	1.607366	0.518184
C97	C	0.546832	1.608991	0.516844
C98	C	0.655320	1.499935	0.410875
H99	H	0.530984	0.979970	0.162444
H100	H	0.281150	1.607079	0.568514
H101	H	1.127575	0.401283	0.082896
H102	H	1.188379	1.022826	-0.506814
N103	N	0.678798	1.538900	0.027816
N104	N	0.678408	1.619999	-0.003403
H105	H	0.757557	1.621455	-0.034472
N106	N	0.799496	1.045498	-0.480677
N107	N	0.854595	0.961354	-0.561136
H108	H	0.804976	0.930511	-0.560238
H109	H	1.034903	0.852055	-0.429944
H110	H	0.440708	1.426520	0.142533
H111	H	0.370135	1.699637	0.162108
N112	N	0.757519	0.580363	0.127776
N113	N	0.682258	0.638167	0.100173
H114	H	0.589305	0.660901	0.146609
N115	N	0.506569	1.211421	-0.008770
N116	N	0.590676	1.223767	-0.019279
H117	H	0.610380	1.273892	-0.062556
N118	N	0.885512	0.646098	0.220250
N119	N	0.768485	0.683899	0.293051
H120	H	0.722099	0.731333	0.373100
H121	H	1.127564	0.401228	-0.197238
H122	H	1.032846	0.852738	-0.588136
N123	N	0.885517	0.645841	-0.092699
N124	N	0.874970	0.736646	-0.100457
H125	H	0.828582	0.783926	-0.134180
H126	H	1.188693	0.836481	-0.666987
H127	H	0.586412	1.585631	-0.167349
N128	N	0.678120	0.830044	0.028366
N129	N	0.665803	0.759838	0.074732
H130	H	0.744395	0.678730	0.044088
N131	N	0.799147	1.203977	-0.479018
N132	N	0.853700	1.233852	-0.558676
H133	H	0.803833	1.314942	-0.556607
H134	H	0.495757	0.853917	0.037338
H135	H	0.342900	1.196841	0.002232
H136	H	0.813774	1.180135	-0.320348
N137	N	0.799159	1.044723	-0.307190
N138	N	0.749880	1.014053	-0.339345
H139	H	0.700107	0.982864	-0.291728
H140	H	0.370271	0.980641	0.163365
N141	N	1.216716	0.822379	-0.515709
N142	N	1.260116	0.862797	-0.485408
H143	H	1.353585	0.812999	-0.509535
H144	H	0.586477	0.876295	0.594185
N145	N	0.515834	1.031934	0.688195
N146	N	0.603526	1.005579	0.702077
H147	H	0.581576	1.052005	0.771378
N148	N	0.258018	1.600186	0.167071
N149	N	0.152015	1.619455	0.193133
H150	H	0.071599	1.664207	0.273777
N151	N	0.519760	1.325137	0.521299
N152	N	0.407787	1.357371	0.602736
H153	H	0.374596	1.309541	0.604907
N154	N	1.028854	1.180285	-0.595150
N155	N	1.025557	1.197519	-0.678590
H156	H	0.984904	1.277167	-0.682251
N157	N	1.018541	1.184586	-0.416774
N158	N	0.920495	1.227000	-0.316427
H159	H	0.874470	1.307914	-0.270850
H160	H	1.241978	0.460142	-0.114444
H161	H	0.745803	1.429622	-0.162531
N162	N	0.515741	1.707444	0.482394
N163	N	0.469257	1.725500	0.425770
H164	H	0.447291	1.795033	0.401442
H165	H	0.440749	1.448324	0.408266
N166	N	1.218951	1.001749	-0.688095
N167	N	1.259464	0.917936	-0.759969
H168	H	1.353068	0.871489	-0.829277
H169	H	0.437845	1.181281	0.143515
N170	N	0.347362	1.499211	0.694397
N171	N	0.358289	1.417321	0.729301
H172	H	0.278875	1.416358	0.777983
H173	H	0.587125	0.871968	-0.162235
N174	N	0.506168	1.712651	0.027811
N175	N	0.510589	1.738027	-0.056378
H176	H	0.543205	1.786294	-0.087099
N177	N	0.519716	1.539951	0.186291
N178	N	0.407740	1.621684	0.266136
H179	H	0.374535	1.623873	0.346991
N180	N	0.255461	1.192442	0.165025
N181	N	0.208538	1.138115	0.207570
H182	H	0.126649	1.174535	0.287413
N183	N	0.334299	1.706286	0.484746
N184	N	0.387384	1.695973	0.381961
H185	H	0.360828	1.765831	0.358341
N186	N	0.507202	1.534411	0.312235
N187	N	0.621170	1.504021	0.238548
H188	H	0.640890	1.528232	0.169206
H189	H	0.501507	1.350119	0.002889
N190	N	0.334297	1.503244	-0.008100
N191	N	0.387378	1.400095	-0.050906
H192	H	0.360829	1.376386	-0.093969
H193	H	0.687444	1.349660	-0.181114
H194	H	0.656089	1.338412	0.519850
H195	H	0.501544	1.197025	0.508872
N196	N	0.678853	0.830337	0.306605
N197	N	0.777175	0.810976	0.215485
H198	H	0.856334	0.730101	0.167370
N199	N	0.771231	0.852949	-0.178084
N200	N	0.773217	0.771608	-0.211865
H201	H	0.856116	0.691896	-0.250319
N202	N	0.347380	0.988196	0.480736
N203	N	0.345011	1.023390	0.402326
H204	H	0.265579	1.054227	0.401394
N205	N	0.506570	0.829726	0.479128
N206	N	0.511230	0.799857	0.558791
H207	H	0.544226	0.718770	0.556728
H208	H	0.586388	1.613137	0.566872
N209	N	0.515737	1.500875	-0.190673
N210	N	0.400868	1.532328	-0.147663
H211	H	0.378886	1.507924	-0.194978
N212	N	0.521026	1.022211	-0.196055
N213	N	0.407140	1.104978	-0.157805
H214	H	0.388313	1.146579	-0.209085
H215	H	0.497033	1.498240	0.679426
H216	H	0.529295	0.979978	0.320944
N217	N	0.258083	1.191286	0.588151
N218	N	0.258330	1.226830	0.509141
H219	H	0.177931	1.262760	0.508889
N220	N	0.334346	1.211693	0.687072
N221	N	0.387424	1.261575	0.676796
H222	H	0.360878	1.311925	0.746409
H223	H	0.440738	1.181639	0.430034
N224	N	0.768895	0.849124	0.416880
N225	N	0.813466	0.806708	0.316529
H226	H	0.893652	0.725799	0.270951
N227	N	0.686771	1.031255	-0.190940
N228	N	0.675215	1.115119	-0.148166
H229	H	0.698464	1.161345	-0.195698
N230	N	0.695639	1.022920	0.513437
N231	N	0.688686	1.105646	0.481875
H232	H	0.717110	1.147495	0.504511
H233	H	0.745777	1.448359	0.411440
N234	N	0.695656	1.532003	0.311539
N235	N	0.615761	1.589076	0.288175
H236	H	0.644264	1.611699	0.218000
