data_functionalizedCrystal
_audit_creation_method	'MofGen! by Chris Wilmer'
_symmetry_space_group_name_H-M	'P1'
_symmetry_Int_Tables_number	1
_symmetry_cell_setting	triclinic
loop_
_symmetry_equiv_pos_as_xyz
  x,y,z
_cell_length_a	15.711784
_cell_length_b	14.044190
_cell_length_c	14.185569
_cell_angle_alpha	75.616153
_cell_angle_beta	107.179161
_cell_angle_gamma	106.390289
loop_
_atom_site_label
_atom_site_type_symbol
_atom_site_fract_x
_atom_site_fract_y
_atom_site_fract_z
O1	O	1.169670	0.549279	-0.083518
O2	O	0.912290	0.475116	-0.083502
O3	O	1.037118	0.372869	-0.083490
O4	O	1.044842	0.651527	-0.083530
O5	O	1.073994	0.342669	0.083348
O6	O	0.949166	0.444916	0.083336
O7	O	1.206546	0.519079	0.083321
Cu8	Cu	1.081223	0.479240	0.098562
Cu9	Cu	1.037613	0.514955	-0.098744
O10	O	1.081718	0.621327	0.083308
C11	C	0.897590	0.447901	-0.000081
C12	C	0.798848	0.411791	-0.000074
C13	C	0.663420	0.275849	-0.000054
C14	C	0.756202	0.309790	-0.000060
C15	C	0.748719	0.479893	-0.000088
C16	C	0.655933	0.445967	-0.000087
C17	C	0.613291	0.343944	-0.000069
C18	C	0.605804	0.514062	-0.000102
C19	C	0.513027	0.480137	-0.000096
C20	C	0.470379	0.378118	-0.000074
C21	C	0.520514	0.310019	-0.000062
C22	C	0.648449	0.616083	-0.000113
C23	C	0.598320	0.684178	-0.000128
C24	C	0.505540	0.650255	-0.000129
C25	C	0.462892	0.548236	-0.000108
C26	C	0.455405	0.718354	-0.000141
C27	C	0.362628	0.684429	-0.000135
C28	C	0.370115	0.514311	-0.000101
C29	C	1.052173	0.321281	-0.000068
C30	C	1.042084	0.212554	-0.000058
C31	C	1.095195	-0.019306	-0.000101
C32	C	1.023643	0.013510	-0.000090
C33	C	1.033906	0.124269	-0.000072
C34	C	1.084933	-0.130074	-0.000118
C35	C	1.221246	0.546295	-0.000103
C36	C	1.319986	0.582406	-0.000116
C37	C	1.066662	0.672915	-0.000116
C38	C	1.076749	0.781643	-0.000132
N39	N	1.111902	0.454122	0.237336
N40	N	1.006940	0.540069	-0.237518
C41	C	0.916802	0.613824	0.604967
C42	C	0.940047	0.594806	0.709991
C43	C	1.050611	0.504323	0.709962
C44	C	1.027371	0.523330	0.604937
C45	C	0.960467	0.578082	0.552447
C46	C	1.071036	0.487587	0.552417
C47	C	1.047802	0.506597	0.447400
C48	C	0.980902	0.561349	0.394903
C49	C	0.937232	0.597091	0.447430
C50	C	1.137945	0.432842	0.604908
C51	C	1.181610	0.397099	0.552388
C52	C	1.158371	0.416102	0.447370
C53	C	1.091471	0.470855	0.394873
C54	C	1.202041	0.380360	0.394842
C55	C	1.178806	0.399370	0.289826
C56	C	1.068237	0.489864	0.289856
H57	H	0.633053	0.767246	-0.000139
C58	C	0.930476	-0.060911	-0.000085
N59	N	0.860306	-0.116970	-0.000077
C60	C	0.307481	0.759339	-0.000160
N61	N	0.265944	0.815763	-0.000179
H62	H	1.156863	0.417370	0.690420
C63	C	0.368320	0.340800	-0.000069
N64	N	0.291449	0.312693	-0.000067
C65	C	0.811340	0.234872	-0.000049
N66	N	0.852870	0.178445	-0.000042
H67	H	0.485790	0.226943	-0.000058
C68	C	1.255201	0.336869	0.610139
N69	N	1.310627	0.291499	0.653635
C70	C	0.502326	0.830575	-0.000152
N71	N	0.537666	0.915102	-0.000160
H72	H	1.256521	0.335789	0.437593
H73	H	0.961988	0.576830	0.309391
H74	H	0.862315	0.658400	0.562228
C75	C	0.616507	0.163619	-0.000044
N76	N	0.581171	0.079091	-0.000035
H77	H	1.164155	0.035778	-0.000095
H78	H	1.013750	0.534440	0.247117
H79	H	0.904485	0.623918	0.752747
C80	C	0.795636	0.592116	-0.000108
N81	N	0.830972	0.676645	-0.000127
C82	C	0.863595	0.657270	0.389686
N83	N	0.808122	0.702579	0.346192
C84	C	1.226838	0.360048	0.232050
N85	N	1.263018	0.330431	0.188534
C86	C	1.124201	0.444093	0.767713
N87	N	1.179627	0.398723	0.811210
H88	H	0.723995	0.643701	-0.000114
H89	H	0.335391	0.431236	-0.000097
