data_functionalizedCrystal
_audit_creation_method	'MofGen! by Chris Wilmer'
_symmetry_space_group_name_H-M	'P1'
_symmetry_Int_Tables_number	1
_symmetry_cell_setting	triclinic
loop_
_symmetry_equiv_pos_as_xyz
  x,y,z
_cell_length_a	10.654553
_cell_length_b	10.489716
_cell_length_c	9.565339
_cell_angle_alpha	89.995727
_cell_angle_beta	90.004052
_cell_angle_gamma	84.507657
loop_
_atom_site_label
_atom_site_type_symbol
_atom_site_fract_x
_atom_site_fract_y
_atom_site_fract_z
O1	O	1.667907	0.179174	0.116262
O2	O	1.302435	0.196239	0.116260
O3	O	1.493503	0.002103	0.116266
O4	O	1.476839	0.373310	0.116256
O5	O	1.493488	0.002115	-0.116254
O6	O	1.302420	0.196251	-0.116260
O7	O	1.667891	0.179186	-0.116258
Zn8	Zn	1.485153	0.187720	-0.153177
Zn9	Zn	1.485173	0.187704	0.153179
O10	O	1.476823	0.373322	-0.116264
C11	C	1.255629	0.194991	-0.000000
C12	C	1.116185	0.191240	-0.000000
C13	C	0.919634	0.185951	-0.126737
C14	C	1.050656	0.189483	-0.126745
C15	C	1.050683	0.189477	0.126761
C16	C	0.919662	0.185954	0.126768
C17	C	0.919621	0.185949	-0.273097
C18	C	1.050643	0.189481	-0.273105
C19	C	1.492243	-0.045423	0.000010
C20	C	1.488497	-0.187052	0.000023
C21	C	1.605666	-0.284781	0.000011
C22	C	1.543759	-0.362119	0.114652
C23	C	1.543717	-0.362071	-0.114595
C24	C	1.426639	-0.262524	0.114758
C25	C	1.426614	-0.262471	-0.114591
C26	C	1.364621	-0.339759	0.000077
C27	C	1.714697	0.180434	0.000005
C28	C	1.854142	0.184185	0.000014
C29	C	1.478083	0.420848	-0.000005
C30	C	1.481829	0.562477	-0.000009
N31	N	1.485149	0.187731	-0.362256
C32	C	1.396759	0.277482	-0.453462
C33	C	1.510472	0.303239	-0.546641
C34	C	1.371485	0.161984	-0.546632
C35	C	1.598920	0.213546	-0.453384
C36	C	1.459857	0.072239	-0.453366
C37	C	1.573652	0.097948	-0.546503
N38	N	1.485188	0.187684	0.362258
H39	H	1.104045	0.190920	0.229959
O40	O	1.431448	-0.057064	-0.399034
H41	H	1.336983	-0.078199	-0.436312
H42	H	1.593197	-0.405562	-0.211512
O43	O	1.229523	-0.372069	0.000131
H44	H	1.180658	-0.330384	-0.094157
O45	O	1.297838	0.378101	-0.399325
H46	H	1.319161	0.473862	-0.436683
O47	O	1.538808	0.432565	-0.600999
H48	H	1.465281	0.506921	-0.563775
O49	O	1.244143	0.133146	-0.600892
H50	H	1.170933	0.207799	-0.563614
H51	H	0.873367	0.274102	-0.329297
H52	H	0.866341	0.184532	0.229981
O53	O	1.361179	-0.205159	0.243298
H54	H	1.364556	-0.099734	0.242331
H55	H	1.593227	-0.405642	0.211575
O56	O	1.089878	0.312705	-0.333278
H57	H	1.151138	0.290869	-0.425727
O58	O	1.726297	0.242522	-0.399360
H59	H	1.799639	0.168401	-0.437493
H60	H	0.890009	0.092918	-0.318503
H61	H	1.648499	0.022025	-0.587100
H62	H	1.096890	0.101326	-0.329291
H63	H	1.707583	-0.260153	0.000128
H64	H	1.377190	-0.218924	-0.211518
