data_functionalizedCrystal
_audit_creation_method	'MofGen! by Chris Wilmer'
_symmetry_space_group_name_H-M	'P1'
_symmetry_Int_Tables_number	1
_symmetry_cell_setting	triclinic
loop_
_symmetry_equiv_pos_as_xyz
  x,y,z
_cell_length_a	10.540535
_cell_length_b	15.021413
_cell_length_c	10.540539
_cell_angle_alpha	89.996558
_cell_angle_beta	84.524567
_cell_angle_gamma	89.990847
loop_
_atom_site_label
_atom_site_type_symbol
_atom_site_fract_x
_atom_site_fract_y
_atom_site_fract_z
O1	O	1.685871	0.073979	0.178864
O2	O	1.316457	0.073991	0.195726
O3	O	1.509592	0.073983	0.002588
O4	O	1.492736	0.073986	0.372001
O5	O	1.509615	-0.074081	0.002600
O6	O	1.316480	-0.074073	0.195738
O7	O	1.685894	-0.074085	0.178876
Zn8	Zn	1.501190	-0.097588	0.187309
Zn9	Zn	1.501160	0.097493	0.187293
O10	O	1.492759	-0.074078	0.372014
C11	C	1.269165	-0.000040	0.194469
C12	C	1.128217	-0.000035	0.190689
N13	N	1.501220	-0.230725	0.187319
C14	C	1.091546	-0.000040	0.049675
C15	C	0.944946	-0.000384	0.045698
C16	C	0.918894	-0.084432	0.255066
C17	C	1.065659	-0.084495	0.258067
C18	C	1.065517	0.083888	0.260105
C19	C	0.919171	0.084988	0.253583
C20	C	1.590543	-0.470388	0.097992
C21	C	1.475611	-0.529714	0.072300
C22	C	1.501190	-0.412332	0.187303
C23	C	1.616093	-0.529749	0.212921
C24	C	1.501172	-0.587756	0.187285
C25	C	1.386200	-0.470351	0.161554
C26	C	1.526758	-0.470381	0.302225
C27	C	1.411744	-0.529680	0.276580
C28	C	1.501203	-0.311275	0.187311
C29	C	1.501147	-0.688812	0.187278
C30	C	1.733185	-0.000053	0.180133
C31	C	1.874134	-0.000052	0.183913
C32	C	1.508339	-0.000047	-0.044709
C33	C	1.504557	-0.000042	-0.185657
N34	N	1.501140	0.230631	0.187273
C35	C	1.359640	0.000295	-0.369081
C36	C	1.363474	-0.000039	-0.222463
C37	C	1.572466	-0.084596	-0.247308
C38	C	1.567651	-0.084667	-0.393853
C39	C	1.570495	0.083709	-0.394385
C40	C	1.571794	0.084827	-0.247403
C41	C	1.494011	-0.000046	0.419311
C42	C	1.497793	-0.000045	0.560259
H43	H	0.915599	0.060091	-0.009949
H44	H	1.666026	-0.444354	0.022422
N45	N	1.555463	-0.435818	0.430926
H46	H	1.569335	-0.487610	0.489133
H47	H	1.634855	-0.397859	0.420631
H48	H	1.135013	-0.060463	-0.003564
N49	N	1.292235	-0.080456	-0.167130
H50	H	1.258222	-0.115829	-0.238000
H51	H	1.351897	-0.118915	-0.121336
H52	H	1.310040	0.060573	-0.179864
N53	N	1.096182	-0.089258	0.394991
H54	H	1.014325	-0.091312	0.453135
H55	H	1.147784	-0.144648	0.407747
N56	N	0.881277	0.167684	0.185004
H57	H	0.835125	0.150145	0.109123
H58	H	0.823283	0.205345	0.245019
H59	H	1.336090	-0.555549	0.352104
H60	H	0.871538	-0.087332	0.356832
H61	H	1.133506	0.060463	-0.004481
N62	N	1.702040	-0.089780	-0.457417
H63	H	1.720195	-0.035587	-0.512913
H64	H	1.764066	-0.092007	-0.390133
N65	N	0.907253	-0.080980	-0.027632
H66	H	0.985916	-0.116425	-0.057489
H67	H	0.847269	-0.119303	0.029396
N68	N	1.121718	0.168647	0.201823
H69	H	1.216426	0.169863	0.209829
H70	H	1.106163	0.171167	0.108818
H71	H	0.870122	0.090347	0.354456
N72	N	1.094902	0.084988	0.397533
H73	H	1.059791	0.029337	0.441746
H74	H	1.190243	0.087342	0.401173
N75	N	1.744810	-0.564316	0.241639
H76	H	1.812239	-0.542748	0.174122
H77	H	1.764712	-0.541800	0.327821
N78	N	1.705483	0.084455	-0.456924
H79	H	1.751728	0.138401	-0.427418
H80	H	1.750876	0.028656	-0.432671
H81	H	1.524823	0.147796	-0.425943
H82	H	1.105841	-0.147813	0.210024
H83	H	1.676074	-0.087743	-0.224956
H84	H	1.304144	-0.059997	-0.399283
H85	H	0.888002	-0.147471	0.206259
H86	H	1.453969	-0.555776	-0.024894
H87	H	1.288997	-0.444370	0.139768
H88	H	1.303899	0.060930	-0.397685
H89	H	1.525312	-0.147516	-0.204703
H90	H	1.517483	-0.147870	-0.422046
H91	H	1.522105	0.147378	-0.206549
N92	N	1.708047	0.091593	-0.215334
H93	H	1.728212	0.039504	-0.160081
H94	H	1.767185	0.090865	-0.296570
