data_functionalizedCrystal
_audit_creation_method	'MofGen! by Chris Wilmer'
_symmetry_space_group_name_H-M	'P1'
_symmetry_Int_Tables_number	1
_symmetry_cell_setting	triclinic
loop_
_symmetry_equiv_pos_as_xyz
  x,y,z
_cell_length_a	10.654550
_cell_length_b	14.519731
_cell_length_c	9.730223
_cell_angle_alpha	89.997677
_cell_angle_beta	89.996251
_cell_angle_gamma	84.086878
loop_
_atom_site_label
_atom_site_type_symbol
_atom_site_fract_x
_atom_site_fract_y
_atom_site_fract_z
O1	O	1.666602	0.129527	-0.114406
O2	O	2.166602	0.629527	0.385594
O3	O	1.301006	0.141868	-0.114385
O4	O	1.801006	0.641868	0.385615
O5	O	1.493483	0.001510	-0.114384
O6	O	1.993483	0.501510	0.385616
O7	O	1.474125	0.269884	-0.114407
O8	O	1.974125	0.769884	0.385593
O9	O	1.493481	0.001514	0.114196
O10	O	1.993481	0.501514	0.614196
O11	O	1.301004	0.141871	0.114195
O12	O	1.801004	0.641871	0.614195
O13	O	1.666600	0.129531	0.114174
O14	O	2.166600	0.629531	0.614174
Zn15	Zn	1.483802	0.135702	0.150476
Zn16	Zn	1.983802	0.635702	0.650476
Zn17	Zn	1.483804	0.135697	-0.150687
Zn18	Zn	1.983804	0.635697	0.349313
O19	O	1.474123	0.269888	0.114173
O20	O	1.974123	0.769888	0.614173
C21	C	1.254216	0.140964	-0.000092
C22	C	1.754216	0.640964	0.499908
C23	C	1.114798	0.138253	-0.000083
C24	C	1.614798	0.638253	0.499917
C25	C	1.034527	0.220893	-0.000110
C26	C	1.534527	0.720893	0.499890
C27	C	0.903530	0.218340	-0.000134
C28	C	1.403530	0.718340	0.499866
C29	C	0.933090	0.050499	-0.000108
C30	C	1.433090	0.550499	0.499892
C31	C	1.064084	0.053053	-0.000075
C32	C	1.564084	0.553053	0.499925
C33	C	1.085241	0.306092	-0.000118
C34	C	1.585241	0.806092	0.499882
C35	C	1.004968	0.388739	-0.000147
C36	C	1.504968	0.888739	0.499853
C37	C	0.873971	0.386186	-0.000171
C38	C	1.373971	0.886186	0.499829
C39	C	0.823248	0.300986	-0.000165
C40	C	1.323248	0.800986	0.499835
C41	C	1.492575	-0.032852	-0.000093
C42	C	1.992575	0.467148	0.499907
C43	C	1.489857	-0.135246	-0.000092
C44	C	1.989857	0.364754	0.499908
C45	C	1.487649	-0.218402	-0.000095
C46	C	1.987649	0.281598	0.499905
C47	C	1.484889	-0.322725	-0.000106
C48	C	1.984889	0.177275	0.499894
C49	C	1.482699	-0.405875	-0.000114
C50	C	1.982699	0.094125	0.499886
C51	C	1.479939	-0.510205	-0.000122
C52	C	1.979939	-0.010205	0.499878
C53	C	1.713390	0.130435	-0.000122
C54	C	2.213390	0.630435	0.499878
C55	C	1.852808	0.133146	-0.000140
C56	C	2.352808	0.633146	0.499860
C57	C	1.475031	0.304250	-0.000121
C58	C	1.975031	0.804250	0.499879
C59	C	1.477749	0.406645	-0.000131
C60	C	1.977749	0.906645	0.499869
N61	N	1.483809	0.135704	0.356013
N62	N	1.983809	0.635704	0.856013
N63	N	1.483807	0.135687	-0.356224
N64	N	1.983807	0.635687	0.143776
C65	C	1.569059	0.073575	0.427939
C66	C	2.069059	0.573575	0.927939
C67	C	1.569056	0.073564	0.571822
C68	C	2.069056	0.573564	1.071822
C69	C	1.398547	0.197819	0.571840
C70	C	1.898547	0.697819	1.071840
C71	C	1.398546	0.197825	0.427959
C72	C	1.898546	0.697825	0.927959
C73	C	1.654322	0.011454	0.355993
C74	C	2.154322	0.511454	0.855993
C75	C	1.739581	-0.050679	0.427920
C76	C	2.239581	0.449321	0.927920
C77	C	1.739578	-0.050690	0.571803
C78	C	2.239578	0.449310	1.071803
C79	C	1.654316	0.011432	0.643759
C80	C	2.154316	0.511432	1.143759
H81	H	0.716580	0.298914	-0.000163
H82	H	1.216580	0.798914	0.499837
H83	H	1.654312	0.011411	0.760918
H84	H	2.154312	0.511411	1.260918
H85	H	1.808992	-0.101262	0.369325
H86	H	2.308992	0.398738	0.869325
H87	H	1.329132	0.248397	0.630436
H88	H	1.829132	0.748397	1.130436
H89	H	1.129444	-0.014240	-0.000056
H90	H	1.629444	0.485760	0.499944
H91	H	0.891780	-0.018866	-0.000127
H92	H	1.391780	0.481134	0.499873
H93	H	0.808616	0.453481	-0.000181
H94	H	1.308616	0.953481	0.499819
H95	H	1.654335	0.011460	0.238836
H96	H	2.154335	0.511460	0.738836
H97	H	1.808990	-0.101287	0.630364
H98	H	2.308990	0.398713	1.130364
H99	H	1.329126	0.248415	0.369396
H100	H	1.829126	0.748415	0.869396
H101	H	1.191903	0.308180	-0.000105
H102	H	1.691903	0.808180	0.499895
H103	H	1.046276	0.458106	-0.000140
H104	H	1.546276	0.958106	0.499860
