data_functionalizedCrystal
_audit_creation_method	'MofGen! by Chris Wilmer'
_symmetry_space_group_name_H-M	'P1'
_symmetry_Int_Tables_number	1
_symmetry_cell_setting	triclinic
loop_
_symmetry_equiv_pos_as_xyz
  x,y,z
_cell_length_a	16.109301
_cell_length_b	19.188930
_cell_length_c	15.186229
_cell_angle_alpha	89.991143
_cell_angle_beta	89.999362
_cell_angle_gamma	83.303131
loop_
_atom_site_label
_atom_site_type_symbol
_atom_site_fract_x
_atom_site_fract_y
_atom_site_fract_z
O1	O	1.102833	0.089744	-0.073183
O2	O	1.602833	0.589744	0.426817
O3	O	0.860734	0.100912	-0.073198
O4	O	1.360734	0.600912	0.426802
O5	O	0.988770	-0.006311	-0.073173
O6	O	1.488770	0.493689	0.426827
O7	O	0.974797	0.196967	-0.073208
O8	O	1.474797	0.696967	0.426792
O9	O	0.988762	-0.006313	0.073284
O10	O	1.488762	0.493687	0.573284
O11	O	0.860726	0.100911	0.073259
O12	O	1.360726	0.600911	0.573259
O13	O	1.102825	0.089742	0.073274
O14	O	1.602825	0.589742	0.573274
Zn15	Zn	0.981774	0.095326	0.096520
Zn16	Zn	1.481774	0.595326	0.596520
Zn17	Zn	0.981785	0.095328	-0.096444
Zn18	Zn	1.481785	0.595328	0.403556
O19	O	0.974789	0.196966	0.073249
O20	O	1.474789	0.696966	0.573249
C21	C	0.829757	0.100459	0.000029
C22	C	1.329757	0.600459	0.500029
C23	C	0.737466	0.099103	0.000024
C24	C	1.237466	0.599103	0.500024
C25	C	0.514993	0.159573	0.000023
C26	C	1.014993	0.659573	0.500023
C27	C	0.428277	0.158294	0.000029
C28	C	0.928277	0.658294	0.500029
C29	C	0.448573	0.031076	0.000048
C30	C	0.948573	0.531076	0.500048
C31	C	0.535287	0.032357	0.000048
C32	C	1.035287	0.532357	0.500048
C33	C	0.568495	0.096608	0.000031
C34	C	1.068495	0.596608	0.500031
C35	C	0.395064	0.094047	0.000037
C36	C	0.895064	0.594047	0.500037
C37	C	0.301043	0.092659	0.000043
C38	C	0.801043	0.592659	0.500043
C39	C	0.662522	0.097996	0.000027
C40	C	1.162522	0.597996	0.500027
C41	C	0.988313	-0.032324	0.000058
C42	C	1.488313	0.467676	0.500058
C43	C	0.986955	-0.109832	0.000066
C44	C	1.486955	0.390168	0.500066
C45	C	1.062082	-0.154580	0.000075
C46	C	1.562082	0.345420	0.500075
C47	C	1.060806	-0.227407	0.000060
C48	C	1.560806	0.272593	0.500060
C49	C	0.984399	-0.255482	0.000055
C50	C	1.484399	0.244518	0.500055
C51	C	0.909261	-0.210724	0.000041
C52	C	1.409261	0.289276	0.500041
C53	C	0.910540	-0.137899	0.000046
C54	C	1.410540	0.362101	0.500046
N55	N	0.925991	-0.363624	0.049893
N56	N	1.425991	0.136376	0.549893
N57	N	0.924782	-0.432805	0.049890
N58	N	1.424782	0.067195	0.549890
C59	C	0.980543	-0.474900	0.000037
C60	C	1.480543	0.025100	0.500037
N61	N	1.037571	-0.445200	-0.049802
N62	N	1.537571	0.054800	0.450198
N63	N	1.038783	-0.376013	-0.049795
N64	N	1.538783	0.123987	0.450205
C65	C	0.983004	-0.334448	0.000049
C66	C	1.483004	0.165552	0.500049
C67	C	1.054292	-0.598616	0.000029
C68	C	1.554292	-0.098616	0.500029
C69	C	1.053012	-0.671443	0.000010
C70	C	1.553012	-0.171443	0.500010
C71	C	0.901465	-0.654759	-0.000001
C72	C	1.401465	-0.154759	0.499999
C73	C	0.902747	-0.581933	0.000010
C74	C	1.402747	-0.081933	0.500010
C75	C	0.979162	-0.553866	0.000029
C76	C	1.479162	-0.053866	0.500029
C77	C	1.133802	0.090196	0.000045
C78	C	1.633802	0.590196	0.500045
C79	C	1.226093	0.091552	0.000045
C80	C	1.726093	0.591552	0.500045
C81	C	0.975246	0.222979	0.000016
C82	C	1.475246	0.722979	0.500016
C83	C	0.976604	0.300486	0.000003
C84	C	1.476604	0.800486	0.500003
N85	N	0.981772	0.095325	0.228213
N86	N	1.481772	0.595325	0.728213
N87	N	0.981793	0.095325	-0.228137
N88	N	1.481793	0.595325	0.271863
C89	C	1.038486	0.047862	0.453947
C90	C	1.538486	0.547862	0.953947
C91	C	1.038488	0.047860	0.546136
C92	C	1.538488	0.547860	1.046136
C93	C	0.925074	0.142790	0.546123
C94	C	1.425074	0.642790	1.046123
C95	C	0.925068	0.142787	0.453935
C96	C	1.425068	0.642787	0.953935
C97	C	0.981779	0.095324	0.407849
C98	C	1.481779	0.595324	0.907849
C99	C	0.981787	0.095325	0.592227
C100	C	1.481787	0.595325	1.092227
C101	C	0.981790	0.095323	0.692183
C102	C	1.481790	0.595323	1.192183
C103	C	0.981775	0.095325	0.307887
C104	C	1.481775	0.595325	0.807887
H105	H	0.542027	0.211890	0.000016
H106	H	1.042027	0.711890	0.500016
H107	H	0.384719	0.209567	0.000024
H108	H	0.884719	0.709567	0.500024
H109	H	0.878886	0.181437	0.416400
H110	H	1.378886	0.681437	0.916400
O111	O	0.870074	0.188871	0.591029
O112	O	1.370074	0.688871	1.091029
C113	C	0.882225	0.178686	0.682282
C114	C	1.382225	0.678686	1.182282
H115	H	0.948418	0.152606	0.694873
H116	H	1.448418	0.652606	1.194873
H117	H	0.835298	0.143659	0.708458
H118	H	1.335298	0.643659	1.208458
C119	C	0.788176	0.282142	0.714129
C120	C	1.288176	0.782142	1.214129
C121	C	0.869477	0.250115	0.729594
C122	C	1.369477	0.750115	1.229594
H123	H	0.780308	0.326201	0.743315
H124	H	1.280308	0.826201	1.243315
H125	H	0.779986	0.289003	0.652651
H126	H	1.279986	0.789003	1.152651
H127	H	0.749079	0.252945	0.735943
H128	H	1.249079	0.752945	1.235943
H129	H	0.908572	0.279307	0.707771
H130	H	1.408572	0.779307	1.207771
H131	H	0.877673	0.243261	0.791071
H132	H	1.377673	0.743261	1.291071
O133	O	0.827315	-0.682138	0.000028
O134	O	1.327315	-0.182138	0.500028
C135	C	0.842294	-0.756012	-0.000003
C136	C	1.342294	-0.256012	0.499997
H137	H	0.907235	-0.773133	0.027732
H138	H	1.407235	-0.273133	0.527732
H139	H	0.838348	-0.776268	-0.070269
H140	H	1.338348	-0.276268	0.429731
C141	C	0.696502	-0.765188	0.023353
C142	C	1.196502	-0.265188	0.523353
C143	C	0.776261	-0.786217	0.057425
C144	C	1.276261	-0.286217	0.557425
H145	H	0.655768	-0.783821	0.058774
H146	H	1.155768	-0.283821	0.558774
H147	H	0.686409	-0.715418	0.023371
H148	H	1.186409	-0.215418	0.523371
H149	H	0.693226	-0.782070	-0.035202
H150	H	1.193226	-0.282070	0.464798
H151	H	0.779540	-0.769328	0.115974
H152	H	1.279540	-0.269328	0.615974
H153	H	0.786353	-0.835985	0.057418
H154	H	1.286353	-0.335985	0.557418
O155	O	1.128464	-0.571261	-0.000081
O156	O	1.628464	-0.071261	0.499919
C157	C	1.133745	-0.529634	-0.075938
C158	C	1.633745	-0.029634	0.424062
H159	H	1.068150	-0.511479	-0.101226
H160	H	1.568150	-0.011479	0.398774
H161	H	1.170647	-0.561804	-0.129055
H162	H	1.670647	-0.061804	0.370945
C163	C	1.258841	-0.487526	-0.021827
C164	C	1.758841	0.012474	0.478173
C165	C	1.178275	-0.465223	-0.052882
C166	C	1.678275	0.034777	0.447118
H167	H	1.286312	-0.447796	-0.007607
H168	H	1.786312	0.052204	0.492393
H169	H	1.255285	-0.515573	0.029278
H170	H	1.755285	-0.015573	0.529278
H171	H	1.289582	-0.514335	-0.066096
H172	H	1.789582	-0.014335	0.433904
H173	H	1.147532	-0.438423	-0.008609
H174	H	1.647532	0.061577	0.491391
H175	H	1.181826	-0.437170	-0.103979
H176	H	1.681826	0.062830	0.396021
H177	H	0.841570	-0.545497	0.000008
H178	H	1.341570	-0.045497	0.500008
H179	H	0.421524	-0.021234	0.000066
H180	H	0.921524	0.478766	0.500066
H181	H	1.084662	0.009214	0.416426
H182	H	1.584662	0.509214	0.916426
H183	H	1.084664	0.009211	0.583666
H184	H	1.584664	0.509211	1.083666
H185	H	0.578851	-0.018920	0.000057
H186	H	1.078851	0.481080	0.500057
H187	H	1.124306	-0.131733	0.000087
H188	H	1.624306	0.368267	0.500087
H189	H	1.121986	-0.263848	0.000064
H190	H	1.621986	0.236152	0.500064
O191	O	0.835091	-0.238076	-0.000080
O192	O	1.335091	0.261924	0.499920
C193	C	0.829816	-0.279677	-0.075944
C194	C	1.329816	0.220323	0.424056
H195	H	0.895413	-0.297825	-0.101226
H196	H	1.395413	0.202175	0.398774
H197	H	0.792921	-0.247488	-0.129062
H198	H	1.292921	0.252512	0.370938
C199	C	0.704712	-0.321800	-0.021858
C200	C	1.204712	0.178200	0.478142
C201	C	0.785281	-0.344094	-0.052906
C202	C	1.285281	0.155906	0.447094
H203	H	0.677238	-0.361533	-0.007649
H204	H	1.177238	0.138467	0.492351
H205	H	0.708264	-0.293770	0.029252
H206	H	1.208264	0.206230	0.529252
H207	H	0.673977	-0.294975	-0.066128
H208	H	1.173977	0.205025	0.433872
H209	H	0.816018	-0.370910	-0.008632
H210	H	1.316018	0.129090	0.491368
H211	H	0.781734	-0.372130	-0.104008
H212	H	1.281734	0.127870	0.395992
O213	O	0.837481	-0.094526	0.000081
O214	O	1.337481	0.405474	0.500081
C215	C	0.769764	-0.134917	0.000046
C216	C	1.269764	0.365083	0.500046
H217	H	0.791062	-0.189281	0.027768
H218	H	1.291062	0.310719	0.527768
H219	H	0.746336	-0.140083	-0.070220
H220	H	1.246336	0.359917	0.429780
C221	C	0.672515	-0.031855	0.023430
C222	C	1.172515	0.468145	0.523430
C223	C	0.698671	-0.098623	0.057486
C224	C	1.198671	0.401377	0.557486
H225	H	0.628659	-0.009466	0.058858
H226	H	1.128659	0.490534	0.558858
H227	H	0.718136	-0.004641	0.023451
H228	H	1.218136	0.495359	0.523451
H229	H	0.652997	-0.036168	-0.035125
H230	H	1.152997	0.463832	0.464875
H231	H	0.718198	-0.094308	0.116035
H232	H	1.218198	0.405692	0.616035
H233	H	0.653051	-0.125835	0.057476
H234	H	1.153051	0.374165	0.557476
H235	H	1.114193	-0.707878	0.000012
H236	H	1.614193	-0.207878	0.500012
