data_functionalizedCrystal
_audit_creation_method	'MofGen! by Chris Wilmer'
_symmetry_space_group_name_H-M	'P1'
_symmetry_Int_Tables_number	1
_symmetry_cell_setting	triclinic
loop_
_symmetry_equiv_pos_as_xyz
  x,y,z
_cell_length_a	10.489741
_cell_length_b	15.500227
_cell_length_c	10.489741
_cell_angle_alpha	92.857420
_cell_angle_beta	95.460826
_cell_angle_gamma	92.870731
loop_
_atom_site_label
_atom_site_type_symbol
_atom_site_fract_x
_atom_site_fract_y
_atom_site_fract_z
O1	O	1.699929	0.071890	-0.174105
O2	O	2.199929	0.571890	0.325895
O3	O	1.328734	0.071903	-0.190997
O4	O	1.828734	0.571903	0.309003
O5	O	1.522777	0.071891	0.003047
O6	O	2.022777	0.571891	0.503047
O7	O	1.505885	0.071902	-0.368148
O8	O	2.005885	0.571902	0.131852
O9	O	1.511002	-0.071997	-0.008682
O10	O	2.011002	0.428003	0.491318
O11	O	1.316958	-0.071985	-0.202725
O12	O	1.816958	0.428015	0.297275
O13	O	1.688153	-0.071998	-0.185833
O14	O	2.188153	0.428002	0.314167
Cu15	Cu	1.501481	-0.085129	-0.195350
Cu16	Cu	2.001481	0.414871	0.304650
Cu17	Cu	1.515406	0.085035	-0.181480
Cu18	Cu	2.015406	0.585035	0.318520
O19	O	1.494110	-0.071986	-0.379877
O20	O	1.994110	0.428014	0.120123
C21	C	1.275315	-0.000039	-0.195585
C22	C	1.775315	0.499961	0.304415
C23	C	1.133686	-0.000034	-0.191767
C24	C	1.633686	0.499966	0.308233
N25	N	1.491695	-0.204814	-0.205105
N26	N	1.991695	0.295186	0.294895
C27	C	1.065545	-0.000046	-0.068304
C28	C	1.565545	0.499954	0.431696
C29	C	0.979224	0.070898	-0.120844
C30	C	1.479224	0.570898	0.379156
C31	C	0.967648	-0.070964	-0.132437
C32	C	1.467648	0.429036	0.367563
C33	C	1.049235	0.070969	-0.244354
C34	C	1.549235	0.570969	0.255646
C35	C	1.037664	-0.070957	-0.255935
C36	C	1.537664	0.429043	0.244065
C37	C	0.951371	0.000004	-0.308564
C38	C	1.451371	0.500004	0.191436
C39	C	1.573947	-0.250096	-0.122913
C40	C	2.073947	0.249904	0.377087
C41	C	1.566558	-0.340668	-0.130302
C42	C	2.066558	0.159332	0.369698
C43	C	1.476923	-0.385957	-0.219891
C44	C	1.976923	0.114043	0.280109
C45	C	1.394662	-0.340669	-0.302086
C46	C	1.894662	0.159331	0.197914
C47	C	1.402046	-0.250098	-0.294690
C48	C	1.902046	0.249902	0.205310
C49	C	1.450325	-0.659422	-0.246514
C50	C	1.950325	-0.159422	0.253486
C51	C	1.442950	-0.749999	-0.253907
C52	C	1.942950	-0.249999	0.246093
C53	C	1.614845	-0.749992	-0.082121
C54	C	2.114845	-0.249992	0.417879
C55	C	1.622226	-0.659420	-0.074737
C56	C	2.122226	-0.159420	0.425263
C57	C	1.539961	-0.614139	-0.156928
C58	C	2.039961	-0.114139	0.343072
C59	C	1.469371	-0.478536	-0.227449
C60	C	1.969371	0.021464	0.272551
C61	C	1.547507	-0.521562	-0.149363
C62	C	2.047507	-0.021562	0.350637
C63	C	1.741573	-0.000054	-0.181245
C64	C	2.241573	0.499946	0.318755
C65	C	1.883202	-0.000053	-0.185062
C66	C	2.383202	0.499947	0.314938
C67	C	1.515614	-0.000052	0.044714
C68	C	2.015614	0.499948	0.544714
C69	C	1.511797	-0.000051	0.186344
C70	C	2.011797	0.499949	0.686344
N71	N	1.525202	0.204719	-0.171715
N72	N	2.025202	0.704719	0.328285
C73	C	1.501274	-0.000041	-0.421544
C74	C	2.001274	0.499959	0.078456
C75	C	1.505091	-0.000037	-0.563173
C76	C	2.005091	0.499963	-0.063173
C77	C	1.388333	-0.000040	0.254485
C78	C	1.888333	0.499960	0.754485
C79	C	1.440850	-0.070986	0.340824
C80	C	1.940850	0.429014	0.840824
C81	C	1.452489	0.070876	0.352362
C82	C	1.952489	0.570876	0.852362
C83	C	1.564360	-0.071055	0.270813
C84	C	2.064360	0.428945	0.770813
C85	C	1.575987	0.070871	0.282347
C86	C	2.075987	0.570871	0.782347
C87	C	1.628593	-0.000093	0.368657
C88	C	2.128593	0.499907	0.868657
H89	H	1.115241	0.000040	0.033199
H90	H	1.615241	0.500040	0.533199
H91	H	1.405142	0.130862	0.388215
H92	H	1.905142	0.630862	0.888215
F93	F	1.761389	-0.000147	0.433257
F94	F	2.261389	0.499853	0.933257
H95	H	0.931762	-0.130942	-0.085063
H96	H	1.431762	0.369058	0.414937
F97	F	1.650629	0.149268	0.248157
F98	F	2.150629	0.649268	0.748157
F99	F	1.702389	-0.798188	0.005350
F100	F	2.202389	-0.298188	0.505350
H101	H	1.084977	0.131014	-0.291660
H102	H	1.584977	0.631014	0.208340
F103	F	0.945103	0.149294	-0.046176
F104	F	1.445103	0.649294	0.453824
H105	H	0.901951	0.000046	-0.410164
H106	H	1.401951	0.500046	0.089836
F107	F	1.373977	-0.526741	-0.322797
F108	F	1.873977	-0.026741	0.177203
H109	H	1.063801	-0.130936	-0.313022
H110	H	1.563801	0.369064	0.186978
H111	H	1.646943	-0.213227	-0.049966
H112	H	2.146943	0.286773	0.450034
H113	H	1.620484	-0.484685	-0.076416
H114	H	2.120484	0.015315	0.423584
F115	F	1.362776	-0.611239	-0.333991
F116	F	1.862776	-0.111239	0.166009
H117	H	1.633534	-0.377536	-0.063374
H118	H	2.133534	0.122464	0.436626
F119	F	1.366155	-0.149380	0.374969
F120	F	1.866155	0.350620	0.874969
F121	F	1.717627	-0.611221	0.020611
F122	F	2.217627	-0.111221	0.520611
F123	F	1.347543	-0.798193	-0.349268
F124	F	1.847543	-0.298193	0.150732
F125	F	1.299258	-0.388869	-0.397429
F126	F	1.799258	0.111131	0.102571
F127	F	1.314497	-0.201907	-0.382167
F128	F	1.814497	0.298093	0.117833
H129	H	1.286815	-0.000108	0.204828
H130	H	1.786815	0.499892	0.704828
F131	F	1.626165	-0.149540	0.224122
F132	F	2.126165	0.350460	0.724122
