data_functionalizedCrystal
_audit_creation_method	'MofGen! by Chris Wilmer'
_symmetry_space_group_name_H-M	'P1'
_symmetry_Int_Tables_number	1
_symmetry_cell_setting	triclinic
loop_
_symmetry_equiv_pos_as_xyz
  x,y,z
_cell_length_a	6.817900
_cell_length_b	14.858565
_cell_length_c	14.125465
_cell_angle_alpha	95.622353
_cell_angle_beta	100.398878
_cell_angle_gamma	104.523916
loop_
_atom_site_label
_atom_site_type_symbol
_atom_site_fract_x
_atom_site_fract_y
_atom_site_fract_z
V1	V	-3.996465	-0.127870	-0.300243
V2	V	-3.496465	0.372130	0.199757
O3	O	-3.979228	0.006967	-0.294252
O4	O	-3.479228	0.506967	0.205748
O5	O	-3.953312	-0.254336	-0.298455
O6	O	-3.453312	0.245664	0.201545
O7	O	-3.932513	-0.125543	-0.431068
O8	O	-3.432513	0.374457	0.068932
O9	O	-4.000171	-0.122718	-0.160720
O10	O	-3.500171	0.377282	0.339280
V11	V	-4.481428	-0.111785	-0.283523
V12	V	-3.981428	0.388215	0.216477
O13	O	-4.254564	-0.163155	-0.336920
O14	O	-3.754564	0.336845	0.163080
O15	O	-4.673526	-0.076500	-0.246845
O16	O	-4.173526	0.423500	0.253155
O17	O	-4.301374	0.014681	-0.285311
O18	O	-3.801374	0.514681	0.214689
O19	O	-4.616061	-0.246622	-0.289514
O20	O	-4.116061	0.253378	0.210486
O21	O	-4.595118	-0.116937	-0.423045
O22	O	-4.095118	0.383063	0.076955
O23	O	-4.322173	-0.114113	-0.152697
O24	O	-3.822173	0.385887	0.347303
C25	C	-3.800092	-0.285177	-0.293787
C26	C	-3.300092	0.214823	0.206213
C27	C	-3.845993	-0.388562	-0.293197
C28	C	-3.345993	0.111438	0.206803
C29	C	-4.013994	-0.767139	-0.291051
C30	C	-3.513994	-0.267139	0.208949
C31	C	-3.967242	-0.661807	-0.291648
C32	C	-3.467242	-0.161807	0.208352
C33	C	-3.929994	-0.577854	-0.292123
C34	C	-3.429994	-0.077854	0.207877
C35	C	-3.883241	-0.472515	-0.292722
C36	C	-3.383241	0.027485	0.207278
C37	C	-3.773560	-0.120887	-0.462947
C38	C	-3.273560	0.379113	0.037053
C39	C	-3.802591	-0.119821	-0.569899
C40	C	-3.302591	0.380179	-0.069899
C41	C	-3.855803	-0.117865	-0.765718
C42	C	-3.355803	0.382135	-0.265718
C43	C	-4.041458	-0.121788	-0.818048
C44	C	-3.541458	0.378212	-0.318048
C45	C	-4.071068	-0.120700	-0.927008
C46	C	-3.571068	0.379300	-0.427008
C47	C	-3.826185	-0.118953	-0.656748
C48	C	-3.326185	0.381047	-0.156748
C49	C	-4.117936	0.045517	-0.289976
C50	C	-3.617936	0.545517	0.210024
C51	C	-4.051272	0.148901	-0.290572
C52	C	-3.551272	0.648901	0.209428
C53	C	-4.144468	-0.118771	-0.120814
C54	C	-3.644468	0.381229	0.379186
C55	C	-4.094676	-0.119833	-0.013861
C56	C	-3.594676	0.380167	0.486139
H57	H	-3.719107	-0.113692	-0.802747
H58	H	-3.219107	0.386308	-0.302747
H59	H	-4.178170	-0.125973	-0.781018
H60	H	-3.678170	0.374027	-0.281018
