data_functionalizedCrystal
_audit_creation_method	'MofGen! by Chris Wilmer'
_symmetry_space_group_name_H-M	'P1'
_symmetry_Int_Tables_number	1
_symmetry_cell_setting	triclinic
loop_
_symmetry_equiv_pos_as_xyz
  x,y,z
_cell_length_a	17.699097
_cell_length_b	14.044190
_cell_length_c	16.776229
_cell_angle_alpha	89.988781
_cell_angle_beta	89.989262
_cell_angle_gamma	88.240103
loop_
_atom_site_label
_atom_site_type_symbol
_atom_site_fract_x
_atom_site_fract_y
_atom_site_fract_z
O1	O	1.012346	0.119911	-0.066364
O2	O	0.793044	0.135490	-0.066352
O3	O	0.899401	-0.010277	-0.066342
O4	O	0.905990	0.265678	-0.066374
O5	O	0.899385	-0.010286	0.066234
O6	O	0.793028	0.135481	0.066224
O7	O	1.012330	0.119902	0.066213
Zn8	Zn	0.902677	0.127690	0.087268
Zn9	Zn	0.902698	0.127702	-0.087407
O10	O	0.905974	0.265669	0.066203
C11	C	0.764801	0.134926	-0.000062
C12	C	0.680667	0.133244	-0.000057
C13	C	0.896510	-0.045589	-0.000052
C14	C	0.887912	-0.150796	-0.000044
C15	C	0.164247	0.122944	-0.072356
C16	C	0.243299	0.124518	-0.072352
C17	C	0.282811	0.125301	-0.000081
C18	C	0.243266	0.124501	0.072190
C19	C	0.164215	0.122921	0.072186
C20	C	0.562070	0.130872	0.072211
C21	C	0.641126	0.132454	0.072210
C22	C	0.641154	0.132468	-0.072327
C23	C	0.562103	0.130888	-0.072332
C24	C	0.522565	0.130083	-0.000060
C25	C	0.436847	0.128376	-0.000065
C26	C	0.368527	0.127015	-0.000075
C27	C	0.933172	-0.401184	-0.000078
C28	C	0.872205	-0.343418	-0.000069
C29	C	0.880947	-0.236234	-0.000055
C30	C	0.924432	-0.508379	-0.000092
C31	C	1.040574	0.120467	-0.000079
C32	C	1.124707	0.122148	-0.000090
C33	C	0.908864	0.300981	-0.000090
C34	C	0.917462	0.406188	-0.000103
N35	N	0.902668	0.127682	0.206479
N36	N	0.902712	0.127703	-0.206619
C37	C	0.949780	0.063162	0.248201
C38	C	0.949784	0.063161	0.331653
C39	C	0.902679	0.127685	0.373382
C40	C	0.855562	0.192208	0.331655
C41	C	0.855554	0.192203	0.248204
C42	C	0.855591	0.192226	0.668202
C43	C	0.855603	0.192228	0.751658
C44	C	0.949820	0.063185	0.751651
C45	C	0.949813	0.063180	0.668200
C46	C	0.902693	0.127699	0.626480
C47	C	0.902688	0.127698	0.535991
C48	C	0.902688	0.127692	0.463869
H49	H	0.275489	0.125160	-0.131198
O50	O	0.125716	0.122275	0.142334
C51	C	0.076970	0.203418	0.146659
H52	H	0.064131	0.230543	0.083909
H53	H	0.105303	0.261477	0.182321
C54	C	0.018560	0.143670	0.265045
C55	C	0.002786	0.176980	0.187974
H56	H	-0.027199	0.127364	0.290533
H57	H	0.051403	0.089003	0.262133
H58	H	0.042173	0.192058	0.294753
H59	H	-0.020818	0.128589	0.158264
H60	H	-0.030063	0.231638	0.190882
O61	O	0.523576	0.130212	0.142358
C62	C	0.474824	0.211350	0.146687
H63	H	0.461986	0.238481	0.083939
H64	H	0.503153	0.269408	0.182355
C65	C	0.416415	0.151582	0.265065
C66	C	0.400641	0.184900	0.187996
H67	H	0.370656	0.135268	0.290550
H68	H	0.449262	0.096919	0.262151
H69	H	0.440023	0.199969	0.294779
H70	H	0.377042	0.136509	0.158282
H71	H	0.367788	0.239554	0.190907
H72	H	0.813445	-0.374462	-0.000070
H73	H	0.817190	0.244740	0.214235
O74	O	1.003215	-0.364001	-0.000033
C75	C	0.996458	-0.263708	-0.000037
H76	H	0.938935	-0.240499	0.025059
H77	H	1.001962	-0.236157	-0.063636
C78	C	1.129999	-0.251225	0.021144
C79	C	1.059350	-0.222720	0.051974
H80	H	1.168795	-0.225941	0.053224
H81	H	1.134552	-0.318795	0.021144
H82	H	1.134575	-0.228264	-0.031855
H83	H	1.054772	-0.245691	0.104968
H84	H	1.054797	-0.155154	0.051984
H85	H	0.988141	0.010624	0.214230
O86	O	0.995629	0.000462	0.372057
C87	C	1.037196	-0.056495	0.317331
H88	H	1.040657	-0.017643	0.257835
H89	H	1.007886	-0.126874	0.308482
C90	C	1.113270	-0.123845	0.422950
C91	C	1.117527	-0.076122	0.349877
H92	H	1.162821	-0.135956	0.443026
H93	H	1.085264	-0.085475	0.459821
H94	H	1.088842	-0.182489	0.415566
H95	H	1.141946	-0.017475	0.357264
H96	H	1.145539	-0.114483	0.313008
O97	O	0.523683	0.130294	-0.142515
C98	C	0.474912	0.211415	-0.146844
H99	H	0.496607	0.269238	-0.105840
H100	H	0.415682	0.191666	-0.127428
C101	C	0.445695	0.177579	-0.283553
C102	C	0.472345	0.248600	-0.233196
H103	H	0.444109	0.200515	-0.336820
H104	H	0.478551	0.122924	-0.280636
H105	H	0.396340	0.161128	-0.267363
H106	H	0.521704	0.265042	-0.249380
H107	H	0.439498	0.303259	-0.236118
H108	H	0.673355	0.133119	-0.131174
O109	O	0.995592	0.000409	0.627789
C110	C	1.037189	-0.056524	0.682509
H111	H	1.006099	-0.057545	0.742006
H112	H	1.095483	-0.025837	0.691359
C113	C	1.084066	-0.157538	0.576882
C114	C	1.045877	-0.158797	0.649955
H115	H	1.089429	-0.220624	0.556800
H116	H	1.056044	-0.119179	0.540015
H117	H	1.132641	-0.131961	0.584266
H118	H	0.997300	-0.184363	0.642568
H119	H	1.073892	-0.197163	0.686821
O120	O	0.995476	0.000408	0.792217
C121	C	0.951009	-0.057987	0.840525
H122	H	0.891220	-0.059500	0.815393
H123	H	0.949048	-0.028319	0.903766
C124	C	1.059282	-0.157950	0.872682
C125	C	0.985851	-0.159814	0.841811
H126	H	1.080775	-0.220760	0.873479
H127	H	1.089242	-0.118606	0.840139
H128	H	1.057639	-0.133222	0.925381
H129	H	0.987496	-0.184530	0.789110
H130	H	0.955892	-0.199164	0.874346
O131	O	0.125987	0.122148	-0.142632
C132	C	0.177840	0.123213	-0.206414
H133	H	0.235292	0.094342	-0.185220
H134	H	0.183448	0.199386	-0.228641
C135	C	0.078735	0.095938	-0.300722
C136	C	0.149297	0.060470	-0.274692
H137	H	0.061128	0.057239	-0.342841
H138	H	0.043800	0.095224	-0.257751
H139	H	0.083418	0.159415	-0.319239
H140	H	0.144612	-0.003001	-0.256167
H141	H	0.184232	0.061172	-0.317662
O142	O	0.809767	0.254940	0.792072
C143	C	0.768187	0.311899	0.737355
H144	H	0.764705	0.273043	0.677876
H145	H	0.797501	0.382273	0.728458
C146	C	0.692151	0.379266	0.843004
C147	C	0.687869	0.331538	0.769953
H148	H	0.642608	0.391385	0.863113
H149	H	0.720166	0.340894	0.879869
H150	H	0.716582	0.437905	0.835580
H151	H	0.663446	0.272895	0.777380
H152	H	0.659848	0.369901	0.733090
H153	H	0.817225	0.244761	0.634240
O154	O	0.809875	0.254851	0.372311
C155	C	0.819970	0.241008	0.454914
H156	H	0.877745	0.205496	0.466301
H157	H	0.773932	0.193539	0.478621
C158	C	0.744185	0.381596	0.483752
C159	C	0.815147	0.337987	0.497739
H160	H	0.741206	0.441416	0.510170
H161	H	0.737380	0.390921	0.428102
H162	H	0.705828	0.342030	0.503509
H163	H	0.853502	0.377548	0.477974
H164	H	0.821958	0.328671	0.553388
H165	H	0.673294	0.133092	0.131065
H166	H	0.275443	0.125133	0.131034
