data_functionalizedCrystal
_audit_creation_method	'MofGen! by Chris Wilmer'
_symmetry_space_group_name_H-M	'P1'
_symmetry_Int_Tables_number	1
_symmetry_cell_setting	triclinic
loop_
_symmetry_equiv_pos_as_xyz
  x,y,z
_cell_length_a	10.723023
_cell_length_b	14.853559
_cell_length_c	9.798715
_cell_angle_alpha	89.999043
_cell_angle_beta	89.996770
_cell_angle_gamma	84.049501
loop_
_atom_site_label
_atom_site_type_symbol
_atom_site_fract_x
_atom_site_fract_y
_atom_site_fract_z
O1	O	1.655903	0.126442	-0.113470
O2	O	1.292628	0.138546	-0.113475
O3	O	1.483975	0.001315	-0.113471
O4	O	1.464557	0.263673	-0.113474
O5	O	1.483961	0.001315	0.113511
O6	O	1.292614	0.138546	0.113507
O7	O	1.655889	0.126442	0.113512
Zn8	Zn	1.474249	0.132494	0.149548
Zn9	Zn	1.474268	0.132494	-0.149511
O10	O	1.464542	0.263673	0.113508
C11	C	1.246130	0.137666	0.000015
C12	C	1.107603	0.135031	0.000013
C13	C	0.902682	0.131133	-0.117570
C14	C	1.045858	0.133856	-0.117571
C15	C	1.483090	-0.032278	0.000018
C16	C	1.480459	-0.132376	0.000010
C17	C	1.469305	-0.555610	-0.123718
C18	C	1.469290	-0.555605	0.123746
C19	C	1.471772	-0.461559	0.123748
C20	C	1.473019	-0.414533	0.000014
C21	C	1.471784	-0.461555	-0.123721
C22	C	1.472995	-0.414529	0.247480
C23	C	1.475476	-0.320477	0.247486
C24	C	1.476732	-0.273451	0.123751
C25	C	1.475498	-0.320478	0.000011
C26	C	1.476745	-0.273453	-0.123722
C27	C	1.475520	-0.320479	-0.247464
C28	C	1.473040	-0.414528	-0.247456
C29	C	1.479212	-0.179401	0.123744
C30	C	1.479224	-0.179397	-0.123725
C31	C	1.702387	0.127323	0.000019
C32	C	1.840915	0.129958	0.000012
C33	C	1.465427	0.297267	0.000017
C34	C	1.468058	0.397365	0.000015
N35	N	1.474246	0.132493	0.353648
N36	N	1.474282	0.132488	-0.353610
C37	C	1.554589	0.074620	0.421426
C38	C	1.554610	0.074617	0.578589
H39	H	1.480245	-0.141117	-0.224485
H40	H	0.894031	0.130964	0.100678
H41	H	0.849568	0.130117	-0.218237
F42	F	1.384348	0.197250	0.429875
H43	H	1.054491	0.134025	0.100685
F44	F	1.476850	-0.270421	-0.379145
H45	H	1.623357	0.025070	0.363105
H46	H	1.098975	0.134872	-0.218237
H47	H	1.472042	-0.452825	-0.348200
H48	H	1.471973	-0.452824	0.348217
H49	H	1.468313	-0.593903	-0.224465
H50	H	1.623400	0.025072	0.636876
F51	F	1.467944	-0.605653	0.255424
H52	H	1.476478	-0.282197	0.348244
F53	F	1.480512	-0.129357	0.255428
F54	F	1.384373	0.197260	0.570217
