data_functionalizedCrystal
_audit_creation_method	'MofGen! by Chris Wilmer'
_symmetry_space_group_name_H-M	'P1'
_symmetry_Int_Tables_number	1
_symmetry_cell_setting	triclinic
loop_
_symmetry_equiv_pos_as_xyz
  x,y,z
_cell_length_a	12.837942
_cell_length_b	12.811445
_cell_length_c	15.186229
_cell_angle_alpha	95.435588
_cell_angle_beta	89.996406
_cell_angle_gamma	90.587018
loop_
_atom_site_label
_atom_site_type_symbol
_atom_site_fract_x
_atom_site_fract_y
_atom_site_fract_z
O1	O	0.139716	-1.406647	-0.185553
O2	O	0.473049	-1.073314	0.147781
O3	O	0.806383	-0.739980	0.481114
O4	O	0.154898	-1.102581	-0.161274
O5	O	0.488231	-0.769248	0.172059
O6	O	0.821564	-0.435915	0.505393
O7	O	-0.003625	-1.247872	-0.172869
O8	O	0.329708	-0.914539	0.160464
O9	O	0.663042	-0.581205	0.493797
O10	O	0.298239	-1.261357	-0.173957
O11	O	0.631572	-0.928023	0.159376
O12	O	0.964906	-0.594690	0.492710
O13	O	-0.003629	-1.247859	-0.026411
O14	O	0.329705	-0.914525	0.306922
O15	O	0.663038	-0.581192	0.640256
O16	O	0.154894	-1.102568	-0.014816
O17	O	0.488228	-0.769235	0.318518
O18	O	0.821561	-0.435901	0.651851
O19	O	0.139713	-1.406634	-0.039094
O20	O	0.473046	-1.073300	0.294239
O21	O	0.806379	-0.739967	0.627572
Zn22	Zn	0.147303	-1.254599	-0.003701
Zn23	Zn	0.480636	-0.921265	0.329632
Zn24	Zn	0.813970	-0.587932	0.662965
Zn25	Zn	0.147307	-1.254616	-0.196667
Zn26	Zn	0.480641	-0.921283	0.136667
Zn27	Zn	0.813974	-0.587950	0.470000
O28	O	0.298236	-1.261343	-0.027499
O29	O	0.631569	-0.928010	0.305835
O30	O	0.964902	-0.594676	0.639168
C31	C	-0.042267	-1.243310	-0.099277
C32	C	0.291066	-0.909977	0.234056
C33	C	0.624400	-0.576643	0.567390
C34	C	-0.157403	-1.229724	-0.098194
C35	C	0.175930	-0.896390	0.235140
C36	C	0.509264	-0.563057	0.568473
C37	C	0.154044	-1.063385	-0.084916
C38	C	0.487377	-0.730052	0.248418
C39	C	0.820711	-0.396719	0.581751
C40	C	0.151493	-0.946613	-0.075591
C41	C	0.484826	-0.613279	0.257742
C42	C	0.818159	-0.279946	0.591075
C43	C	0.140566	-1.445830	-0.115455
C44	C	0.473900	-1.112496	0.217879
C45	C	0.807233	-0.779163	0.551212
C46	C	0.143118	-1.562603	-0.124784
C47	C	0.476451	-1.229269	0.208549
C48	C	0.809784	-0.895936	0.541882
C49	C	-0.397653	-1.393054	-0.111253
C50	C	-0.064320	-1.059720	0.222080
C51	C	0.269013	-0.726387	0.555413
C52	C	-0.505835	-1.380293	-0.110236
C53	C	-0.172501	-1.046960	0.223097
C54	C	0.160832	-0.713627	0.556431
C55	C	-0.481949	-1.191443	-0.095148
C56	C	-0.148615	-0.858110	0.238186
C57	C	0.184718	-0.524777	0.571519
C58	C	-0.373768	-1.204204	-0.096165
C59	C	-0.040434	-0.870870	0.237168
C60	C	0.292899	-0.537537	0.570501
C61	C	-0.331624	-1.305012	-0.104217
C62	C	0.001709	-0.971679	0.229116
C63	C	0.335043	-0.638346	0.562450
C64	C	-0.223441	-1.317772	-0.105228
C65	C	0.109892	-0.984438	0.228105
C66	C	0.443226	-0.651105	0.561439
C67	C	-0.199557	-1.128923	-0.090146
C68	C	0.133776	-0.795589	0.243187
C69	C	0.467109	-0.462256	0.576521
C70	C	-0.307738	-1.116162	-0.089129
C71	C	0.025595	-0.782829	0.244205
C72	C	0.358928	-0.449496	0.577538
C73	C	0.336878	-1.265905	-0.101093
C74	C	0.670211	-0.932572	0.232240
C75	C	1.003544	-0.599239	0.565574
C76	C	0.452014	-1.279491	-0.102182
C77	C	0.785347	-0.946158	0.231151
C78	C	1.118680	-0.612825	0.564484
C79	C	0.146722	-0.727195	-0.217756
C80	C	0.480055	-0.393862	0.115577
C81	C	0.813389	-0.060529	0.448911
C82	C	0.144325	-0.617477	-0.208999
C83	C	0.477659	-0.284144	0.124334
C84	C	0.810992	0.049190	0.457668
C85	C	0.144310	-0.617454	-0.049321
C86	C	0.477643	-0.284121	0.284012
C87	C	0.810977	0.049212	0.617345
C88	C	0.146707	-0.727173	-0.058078
C89	C	0.480040	-0.393840	0.275255
C90	C	0.813373	-0.060506	0.608588
C91	C	0.147911	-0.782040	-0.142298
C92	C	0.481244	-0.448706	0.191035
C93	C	0.814578	-0.115373	0.524368
C94	C	0.150300	-0.891761	-0.151055
C95	C	0.483634	-0.558427	0.182279
C96	C	0.816967	-0.225094	0.515612
C97	C	0.150293	-0.891736	0.008622
C98	C	0.483626	-0.558403	0.341956
C99	C	0.816959	-0.225069	0.675289
C100	C	0.147896	-0.782017	0.017379
C101	C	0.481229	-0.448684	0.350713
C102	C	0.814562	-0.115351	0.684046
N103	N	0.147299	-1.254594	0.127992
N104	N	0.480633	-0.921261	0.461325
N105	N	0.813966	-0.587928	0.794658
C106	C	0.077130	-1.318959	0.440773
C107	C	0.410463	-0.985625	0.774106
C108	C	0.743796	-0.652292	1.107440
C109	C	0.077130	-1.318956	0.348584
C110	C	0.410463	-0.985623	0.681917
C111	C	0.743797	-0.652290	1.015250
C112	C	0.217482	-1.190257	0.358865
C113	C	0.550816	-0.856924	0.692199
C114	C	0.884149	-0.523590	1.025532
C115	C	0.217486	-1.190266	0.451053
C116	C	0.550820	-0.856932	0.784386
C117	C	0.884153	-0.523599	1.117719
C118	C	0.147304	-1.254615	0.492004
C119	C	0.480638	-0.921281	0.825338
C120	C	0.813971	-0.587948	1.158671
C121	C	0.147300	-1.254604	0.307627
C122	C	0.480634	-0.921270	0.640961
C123	C	0.813967	-0.587937	0.974294
C124	C	0.147301	-1.254600	0.207672
C125	C	0.480634	-0.921267	0.541005
C126	C	0.813968	-0.587934	0.874338
C127	C	0.147304	-1.254620	0.591966
C128	C	0.480638	-0.921286	0.925300
C129	C	0.813971	-0.587953	1.258633
N130	N	0.147305	-1.254624	0.671640
N131	N	0.480639	-0.921291	1.004973
N132	N	0.813972	-0.587957	1.338307
H133	H	-0.189130	-1.399855	-0.111781
H134	H	0.144203	-1.066522	0.221552
H135	H	0.477537	-0.733188	0.554886
H136	H	0.019989	-1.371352	0.306873
H137	H	0.353322	-1.038019	0.640206
H138	H	0.686655	-0.704686	0.973540
H139	H	-0.559593	-1.451986	-0.115969
H140	H	-0.226259	-1.118653	0.217365
H141	H	0.107074	-0.785320	0.550698
H142	H	0.274636	-1.137869	0.492768
H143	H	0.607969	-0.804536	0.826101
H144	H	0.941303	-0.471202	1.159435
H145	H	0.274622	-1.137864	0.325513
H146	H	0.607955	-0.804530	0.658847
H147	H	0.941288	-0.471197	0.992180
Br148	Br	-0.109940	-1.009430	-0.080580
Br149	Br	0.223394	-0.676097	0.252753
Br150	Br	0.556727	-0.342763	0.586086
H151	H	-0.363340	-1.475136	-0.117801
H152	H	-0.030006	-1.141803	0.215532
H153	H	0.303327	-0.808469	0.548866
H154	H	0.019985	-1.371357	0.474113
H155	H	0.353318	-1.038024	0.807447
H156	H	0.686651	-0.704691	1.140780
H157	H	-0.342067	-1.034087	-0.082577
H158	H	-0.008733	-0.700753	0.250757
H159	H	0.324600	-0.367420	0.584090
Br160	Br	-0.539163	-1.054643	-0.084253
Br161	Br	-0.205829	-0.721309	0.249080
Br162	Br	0.127504	-0.387976	0.582414
Br163	Br	0.151884	-0.966174	0.111036
Br164	Br	0.485217	-0.632840	0.444369
Br165	Br	0.818551	-0.299507	0.777702
H166	H	0.147698	-0.771869	-0.286331
H167	H	0.481031	-0.438536	0.047002
H168	H	0.814364	-0.105202	0.380336
H169	H	0.151280	-0.936432	-0.219631
H170	H	0.484614	-0.603098	0.113703
H171	H	0.817947	-0.269765	0.447036
H172	H	0.143360	-0.572827	-0.270444
H173	H	0.476693	-0.239493	0.062889
H174	H	0.810026	0.093840	0.396222
H175	H	0.146919	-0.737330	0.085949
H176	H	0.480252	-0.403996	0.419282
H177	H	0.813585	-0.070663	0.752615
Br178	Br	0.142699	-0.542974	0.064968
Br179	Br	0.476033	-0.209641	0.398301
Br180	Br	0.809366	0.123693	0.731635
