data_functionalizedCrystal
_audit_creation_method	'MofGen! by Chris Wilmer'
_symmetry_space_group_name_H-M	'P1'
_symmetry_Int_Tables_number	1
_symmetry_cell_setting	triclinic
loop_
_symmetry_equiv_pos_as_xyz
  x,y,z
_cell_length_a	6.817900
_cell_length_b	12.908942
_cell_length_c	16.255661
_cell_angle_alpha	95.685686
_cell_angle_beta	103.488922
_cell_angle_gamma	100.860556
loop_
_atom_site_label
_atom_site_type_symbol
_atom_site_fract_x
_atom_site_fract_y
_atom_site_fract_z
V1	V	-4.013122	-0.146702	-0.263398
O2	O	-4.014762	0.006173	-0.258868
O3	O	-3.951394	-0.290044	-0.261130
O4	O	-3.964857	-0.144830	-0.378487
O5	O	-4.001207	-0.140045	-0.140699
V6	V	-4.498459	-0.128371	-0.248778
O7	O	-4.270400	-0.186913	-0.295466
O8	O	-4.691378	-0.088160	-0.216710
O9	O	-4.336979	0.014970	-0.251046
O10	O	-4.614215	-0.281247	-0.253308
O11	O	-4.627771	-0.135029	-0.371477
O12	O	-4.323517	-0.130243	-0.133689
C13	C	-3.793149	-0.324975	-0.256855
C14	C	-3.823967	-0.442161	-0.255768
C15	C	-4.245154	-0.673134	-0.262155
C16	C	-4.274120	-0.783241	-0.261134
C17	C	-3.910871	-0.772484	-0.252712
C18	C	-3.881905	-0.662377	-0.253732
C19	C	-4.049054	-0.612706	-0.258453
C20	C	-4.020082	-0.502596	-0.259467
C21	C	-3.656839	-0.491843	-0.251051
C22	C	-3.685805	-0.601949	-0.250031
C23	C	-3.810321	-0.139740	-0.406554
C24	C	-3.852054	-0.139158	-0.500637
C25	C	-3.763255	-0.132203	-0.723478
C26	C	-3.911356	-0.221959	-0.792664
C27	C	-3.928540	-0.138066	-0.672889
C28	C	-3.854824	-0.047283	-0.771343
C29	C	-4.002406	-0.137007	-0.839276
C30	C	-4.076116	-0.227902	-0.740845
C31	C	-4.019529	-0.053147	-0.719509
C32	C	-4.167764	-0.142928	-0.788676
C33	C	-3.885982	-0.138677	-0.577038
C34	C	-4.044980	-0.136404	-0.935127
C35	C	-4.158567	0.049896	-0.255319
C36	C	-4.106986	0.167080	-0.256411
C37	C	-4.141395	-0.135337	-0.105618
C38	C	-4.078900	-0.135914	-0.011534
H39	H	-4.381247	-0.632689	-0.265985
H40	H	-3.774800	-0.812947	-0.248876
F41	F	-4.197859	-0.327782	-0.722924
H42	H	-3.497155	-0.442630	-0.248036
H43	H	-4.339215	-0.147486	-0.817008
F44	F	-4.078616	0.040144	-0.677838
F45	F	-3.733059	0.052490	-0.789416
H46	H	-3.549726	-0.642407	-0.246191
F47	F	-3.539298	-0.126427	-0.686267
H48	H	-4.156182	-0.462155	-0.263305
H49	H	-4.433802	-0.832438	-0.264149
F50	F	-3.852170	-0.315245	-0.834304
