data_functionalizedCrystal
_audit_creation_method	'MofGen! by Chris Wilmer'
_symmetry_space_group_name_H-M	'P1'
_symmetry_Int_Tables_number	1
_symmetry_cell_setting	triclinic
loop_
_symmetry_equiv_pos_as_xyz
  x,y,z
_cell_length_a	17.699083
_cell_length_b	9.065215
_cell_length_c	8.140239
_cell_angle_alpha	90.000939
_cell_angle_beta	90.004029
_cell_angle_gamma	84.148856
loop_
_atom_site_label
_atom_site_type_symbol
_atom_site_fract_x
_atom_site_fract_y
_atom_site_fract_z
O1	O	0.110962	1.957109	0.136598
O2	O	0.120067	1.527554	0.136606
O3	O	0.005420	1.754468	0.136587
O4	O	0.225609	1.730196	0.136617
O5	O	0.005419	1.754460	-0.136640
O6	O	0.120066	1.527547	-0.136621
O7	O	0.110961	1.957102	-0.136629
Zn8	Zn	0.115513	1.742323	-0.180006
Zn9	Zn	0.115515	1.742333	0.179983
O10	O	0.225608	1.730189	-0.136610
C11	C	0.119192	1.472590	-0.000007
C12	C	0.116577	1.308824	-0.000004
C13	C	-0.022784	1.753594	-0.000026
C14	C	-0.106823	1.750985	-0.000027
C15	C	-0.154406	1.884179	-0.000032
C16	C	-0.233368	1.881718	-0.000017
C17	C	-0.264746	1.746063	-0.000009
C18	C	-0.217157	1.612859	0.000000
C19	C	-0.138196	1.615321	-0.000003
C20	C	-0.535598	1.602928	0.000014
C21	C	-0.614565	1.600476	0.000012
C22	C	-0.630770	1.869325	-0.000001
C23	C	-0.551809	1.871787	-0.000003
C24	C	-0.504227	1.738584	0.000015
C25	C	-0.418607	1.741253	0.000002
C26	C	-0.350365	1.743392	-0.000009
C27	C	0.253812	1.731062	0.000007
C28	C	0.337851	1.733671	0.000019
C29	C	0.111836	2.012066	-0.000012
C30	C	0.114451	2.175832	-0.000004
N31	N	0.115512	1.742328	-0.425688
N32	N	0.115510	1.742340	0.425665
H33	H	-0.272108	1.990178	-0.000024
C34	C	-0.517888	2.019222	0.000074
C35	C	-0.576461	2.135345	0.000119
C36	C	-0.545243	2.271184	0.000220
H37	H	-0.487434	2.025981	-0.095179
H38	H	-0.487440	2.025848	0.095394
H39	H	-0.606895	2.128722	-0.095190
H40	H	-0.606918	2.128635	0.095366
H41	H	-0.514795	2.277810	0.095539
H42	H	-0.514790	2.277928	-0.095035
H43	H	-0.584979	2.349989	0.000266
H44	H	-0.128864	1.994645	-0.000048
H45	H	-0.099454	1.506861	0.000002
C46	C	-0.682469	2.013905	0.000340
C47	C	-0.728253	2.020377	0.140935
C48	C	-0.775878	2.153546	0.141311
H49	H	-0.713685	2.018673	-0.094825
H50	H	-0.652498	2.095089	0.000417
H51	H	-0.758221	1.939216	0.140843
H52	H	-0.697057	2.015634	0.236123
H53	H	-0.745906	2.234730	0.141388
H54	H	-0.807089	2.158302	0.046140
H55	H	-0.806942	2.157961	0.236710
C56	C	-0.483910	1.458353	0.000360
C57	C	-0.438116	1.451886	0.140954
C58	C	-0.390497	1.318710	0.141340
H59	H	-0.452701	1.453570	-0.094806
H60	H	-0.513886	1.377176	0.000448
H61	H	-0.408143	1.533041	0.140851
H62	H	-0.469305	1.456645	0.236143
H63	H	-0.420473	1.237533	0.141428
H64	H	-0.359294	1.313939	0.046168
H65	H	-0.359426	1.314298	0.236738
C66	C	-0.251181	1.465530	0.000352
C67	C	-0.227097	1.385052	0.140947
C68	C	-0.258431	1.249333	0.141334
H69	H	-0.234935	1.410515	-0.094813
H70	H	-0.305026	1.483078	0.000438
H71	H	-0.173263	1.367499	0.140846
H72	H	-0.243342	1.440022	0.236135
H73	H	-0.312275	1.266881	0.141420
H74	H	-0.242183	1.194331	0.046163
H75	H	-0.242100	1.194717	0.236733
H76	H	-0.640109	1.490003	0.000014
