data_functionalizedCrystal
_audit_creation_method	'MofGen! by Chris Wilmer'
_symmetry_space_group_name_H-M	'P1'
_symmetry_Int_Tables_number	1
_symmetry_cell_setting	triclinic
loop_
_symmetry_equiv_pos_as_xyz
  x,y,z
_cell_length_a	21.295418
_cell_length_b	21.395364
_cell_length_c	21.395355
_cell_angle_alpha	89.975448
_cell_angle_beta	89.982705
_cell_angle_gamma	90.043338
loop_
_atom_site_label
_atom_site_type_symbol
_atom_site_fract_x
_atom_site_fract_y
_atom_site_fract_z
Zn1	Zn	-0.250431	0.957869	-0.354267
Zn2	Zn	0.082902	1.291203	-0.020933
Zn3	Zn	0.416236	1.624536	0.312400
Zn4	Zn	-0.355682	0.957776	-0.249492
Zn5	Zn	-0.022349	1.291109	0.083842
Zn6	Zn	0.310984	1.624443	0.417175
Zn7	Zn	-0.250459	0.853084	-0.249504
Zn8	Zn	0.082875	1.186418	0.083830
Zn9	Zn	0.416208	1.519751	0.417163
Zn10	Zn	-0.355694	0.853058	-0.354232
Zn11	Zn	-0.022360	1.186391	-0.020898
Zn12	Zn	0.310973	1.519724	0.312435
O13	O	-0.303066	0.905447	-0.301873
O14	O	0.030267	1.238780	0.031460
O15	O	0.363600	1.572114	0.364793
O16	O	-0.264377	1.045535	-0.340378
O17	O	0.068957	1.378868	-0.007044
O18	O	0.402290	1.712201	0.326289
O19	O	-0.341731	0.943861	-0.161815
O20	O	-0.008398	1.277194	0.171518
O21	O	0.324936	1.610527	0.504851
O22	O	-0.162366	0.867034	-0.263420
O23	O	0.170968	1.200368	0.069913
O24	O	0.504301	1.533701	0.403246
O25	O	-0.341704	1.045466	-0.263400
O26	O	-0.008371	1.378800	0.069933
O27	O	0.324962	1.712133	0.403267
O28	O	-0.162345	0.944020	-0.340389
O29	O	0.170988	1.277353	-0.007056
O30	O	0.504321	1.610686	0.326277
O31	O	-0.264424	0.866944	-0.161824
O32	O	0.068910	1.200277	0.171509
O33	O	0.402243	1.533611	0.504843
O34	O	-0.264434	0.765403	-0.263386
O35	O	0.068899	1.098736	0.069947
O36	O	0.402232	1.432070	0.403280
O37	O	-0.341724	0.866989	-0.441914
O38	O	-0.008390	1.200322	-0.108581
O39	O	0.324943	1.533656	0.224752
O40	O	-0.341750	0.765383	-0.340330
O41	O	-0.008417	1.098717	-0.006996
O42	O	0.324916	1.432050	0.326337
O43	O	-0.264387	0.943994	-0.441940
O44	O	0.068946	1.277327	-0.108607
O45	O	0.402279	1.610660	0.224727
O46	O	-0.443773	0.943835	-0.263366
O47	O	-0.110440	1.277168	0.069967
O48	O	0.222893	1.610501	0.403301
O49	O	-0.443782	0.866899	-0.340318
O50	O	-0.110448	1.200232	-0.006985
O51	O	0.222885	1.533565	0.326349
C52	C	-0.303097	0.742659	-0.301856
C53	C	0.030236	1.075993	0.031478
C54	C	0.363570	1.409326	0.364811
C55	C	-0.303125	0.673018	-0.301863
C56	C	0.030208	1.006351	0.031470
C57	C	0.363541	1.339685	0.364804
C58	C	-0.466618	0.905371	-0.301851
C59	C	-0.133285	1.238704	0.031483
C60	C	0.200049	1.572037	0.364816
C61	C	-0.536586	0.905395	-0.301862
C62	C	-0.203253	1.238729	0.031472
C63	C	0.130080	1.572062	0.364805
C64	C	-0.262927	0.640363	-0.342007
C65	C	0.070407	0.973696	-0.008674
C66	C	0.403740	1.307030	0.324659
C67	C	-0.262910	0.574927	-0.342010
C68	C	0.070423	0.908261	-0.008677
C69	C	0.403757	1.241594	0.324657
C70	C	-0.303103	0.542150	-0.301875
C71	C	0.030230	0.875483	0.031459
C72	C	0.363564	1.208816	0.364792
C73	C	-0.343305	0.574813	-0.261722
C74	C	-0.009971	0.908146	0.071611
C75	C	0.323362	1.241479	0.404944
C76	C	-0.343316	0.640247	-0.261717
C77	C	-0.009982	0.973580	0.071617
C78	C	0.323351	1.306913	0.404950
C79	C	-0.359793	0.438428	-0.296838
C80	C	-0.026459	0.771761	0.036495
C81	C	0.306874	1.105094	0.369828
C82	C	-0.359783	0.372995	-0.296848
C83	C	-0.026449	0.706328	0.036485
C84	C	0.306884	1.039661	0.369818
C85	C	-0.303068	0.340329	-0.301888
C86	C	0.030265	0.673662	0.031445
C87	C	0.363598	1.006996	0.364778
C88	C	-0.246363	0.373104	-0.306932
C89	C	0.086971	0.706438	0.026402
C90	C	0.420304	1.039771	0.359735
C91	C	-0.246374	0.438538	-0.306926
C92	C	0.086960	0.771872	0.026407
C93	C	0.420293	1.105205	0.359741
C94	C	-0.303095	0.471197	-0.301876
C95	C	0.030238	0.804531	0.031457
C96	C	0.363571	1.137864	0.364791
C97	C	-0.262848	0.236721	-0.342038
C98	C	0.070485	0.570055	-0.008704
C99	C	0.403818	0.903388	0.324629
C100	C	-0.262830	0.171285	-0.342036
C101	C	0.070503	0.504618	-0.008702
C102	C	0.403836	0.837951	0.324631
C103	C	-0.343231	0.171171	-0.261751
C104	C	-0.009897	0.504504	0.071582
C105	C	0.323436	0.837838	0.404915
C106	C	-0.343243	0.236606	-0.261750
C107	C	-0.009910	0.569940	0.071583
C108	C	0.323424	0.903273	0.404917
C109	C	-0.303053	0.269378	-0.301897
C110	C	0.030281	0.602711	0.031437
C111	C	0.363614	0.936044	0.364770
C112	C	-1.035980	0.945611	-0.342032
C113	C	-0.702647	1.278944	-0.008698
C114	C	-0.369314	1.612278	0.324635
C115	C	-0.970238	0.945593	-0.342022
C116	C	-0.636904	1.278926	-0.008688
C117	C	-0.303571	1.612259	0.324645
C118	C	-0.937426	0.905532	-0.301912
C119	C	-0.604092	1.238866	0.031421
C120	C	-0.270759	1.572199	0.364754
C121	C	-0.970361	0.865499	-0.261799
C122	C	-0.637028	1.198832	0.071535
C123	C	-0.303695	1.532165	0.404868
C124	C	-1.036102	0.865523	-0.261805
C125	C	-0.702769	1.198856	0.071528
C126	C	-0.369436	1.532189	0.404861
N127	N	-0.834270	0.850652	-0.297045
N128	N	-0.500936	1.183986	0.036289
N129	N	-0.167603	1.517319	0.369622
N130	N	-0.771818	0.850631	-0.297042
N131	N	-0.438485	1.183965	0.036291
N132	N	-0.105151	1.517298	0.369625
C133	C	-0.739351	0.905459	-0.301889
C134	C	-0.406018	1.238792	0.031444
C135	C	-0.072684	1.572125	0.364778
N136	N	-0.771694	0.960309	-0.306751
N137	N	-0.438361	1.293642	0.026582
N138	N	-0.105028	1.626975	0.359915
N139	N	-0.834152	0.960329	-0.306757
N140	N	-0.500818	1.293662	0.026576
N141	N	-0.167485	1.626996	0.359910
C142	C	-0.866140	0.905502	-0.301901
C143	C	-0.532807	1.238835	0.031433
C144	C	-0.199474	1.572169	0.364766
C145	C	-0.635138	0.945473	-0.341986
C146	C	-0.301804	1.278806	-0.008653
C147	C	0.031529	1.612140	0.324680
C148	C	-0.569394	0.945456	-0.341972
C149	C	-0.236061	1.278789	-0.008639
C150	C	0.097273	1.612122	0.324695
C151	C	-0.569519	0.865356	-0.261752
C152	C	-0.236185	1.198689	0.071581
C153	C	0.097148	1.532023	0.404914
C154	C	-0.635261	0.865379	-0.261763
C155	C	-0.301928	1.198712	0.071570
C156	C	0.031406	1.532045	0.404903
C157	C	-0.668067	0.905436	-0.301884
C158	C	-0.334733	1.238770	0.031450
C159	C	-0.001400	1.572103	0.364783
C160	C	-0.138876	0.905540	-0.301910
C161	C	0.194457	1.238874	0.031423
C162	C	0.527791	1.572207	0.364757
C163	C	-0.068908	0.905580	-0.301926
C164	C	0.264425	1.238913	0.031408
C165	C	0.597759	1.572247	0.364741
C166	C	-0.303054	0.905499	-0.465297
C167	C	0.030280	1.238832	-0.131963
C168	C	0.363613	1.572166	0.201370
C169	C	-0.303048	0.905521	-0.534938
C170	C	0.030285	1.238854	-0.201605
C171	C	0.363618	1.572188	0.131729
C172	C	-0.303036	1.068870	-0.301891
C173	C	0.030297	1.402203	0.031442
C174	C	0.363631	1.735537	0.364775
C175	C	-0.303023	1.138511	-0.301899
C176	C	0.030310	1.471845	0.031434
C177	C	0.363643	1.805178	0.364768
C178	C	-0.262778	0.945616	-0.567666
C179	C	0.070556	1.278949	-0.234332
C180	C	0.403889	1.612282	0.099001
C181	C	-0.262751	0.945615	-0.633101
C182	C	0.070583	1.278948	-0.299768
C183	C	0.403916	1.612281	0.033566
C184	C	-0.303005	0.905526	-0.665806
C185	C	0.030328	1.238859	-0.332473
C186	C	0.363661	1.572193	0.000860
C187	C	-0.343279	0.865424	-0.633071
C188	C	-0.009945	1.198757	-0.299738
C189	C	0.323388	1.532090	0.033596
C190	C	-0.343300	0.865421	-0.567637
C191	C	-0.009967	1.198754	-0.234303
C192	C	0.323366	1.532088	0.099030
C193	C	-0.359687	0.900552	-0.769473
C194	C	-0.026353	1.233886	-0.436140
C195	C	0.306980	1.567219	-0.102806
C196	C	-0.359666	0.900559	-0.834906
C197	C	-0.026333	1.233892	-0.501573
C198	C	0.307000	1.567226	-0.168239
C199	C	-0.302939	0.905530	-0.867627
C200	C	0.030395	1.238863	-0.534294
C201	C	0.363728	1.572196	-0.200961
C202	C	-0.246230	0.910507	-0.834907
C203	C	0.087103	1.243840	-0.501574
C204	C	0.420437	1.577173	-0.168241
C205	C	-0.246251	0.910504	-0.769473
C206	C	0.087082	1.243838	-0.436140
C207	C	0.420415	1.577171	-0.102806
C208	C	-0.302986	0.905524	-0.736759
C209	C	0.030347	1.238857	-0.403425
C210	C	0.363680	1.572190	-0.070092
C211	C	-0.262635	0.945626	-0.971307
C212	C	0.070698	1.278959	-0.637974
C213	C	0.404031	1.612292	-0.304641
C214	C	-0.262607	0.945620	-1.036744
C215	C	0.070726	1.278954	-0.703411
C216	C	0.404059	1.612287	-0.370077
C217	C	-0.343141	0.865432	-1.036713
C218	C	-0.009808	1.198766	-0.703379
C219	C	0.323526	1.532099	-0.370046
C220	C	-0.343164	0.865434	-0.971277
C221	C	-0.009830	1.198768	-0.637944
C222	C	0.323503	1.532101	-0.304611
C223	C	-0.302912	0.905534	-0.938579
C224	C	0.030422	1.238868	-0.605245
C225	C	0.363755	1.572201	-0.271912
C226	C	-0.303034	0.905431	-0.139086
C227	C	0.030300	1.238764	0.194248
C228	C	0.363633	1.572098	0.527581
C229	C	-0.302862	0.905530	-0.069445
C230	C	0.030472	1.238864	0.263888
C231	C	0.363805	1.572197	0.597222
H232	H	-0.230172	0.548335	-0.374699
H233	H	0.103161	0.881668	-0.041366
H234	H	0.436494	1.215001	0.291967
C235	C	-0.422041	0.895092	-0.870895
C236	C	-0.088708	1.228426	-0.537562
C237	C	0.244625	1.561759	-0.204228
H238	H	-0.413906	0.895816	-0.914551
H239	H	-0.080572	1.229149	-0.581218
H240	H	0.252761	1.562483	-0.247884
H241	H	-0.442182	0.856937	-0.860161
H242	H	-0.108848	1.190271	-0.526828
H243	H	0.224485	1.523604	-0.193494
H244	H	-0.448516	0.929165	-0.860181
H245	H	-0.115182	1.262498	-0.526848
H246	H	0.218151	1.595831	-0.193515
H247	H	-1.062912	0.832923	-0.229146
H248	H	-0.729579	1.166257	0.104188
H249	H	-0.396245	1.499590	0.437521
H250	H	-0.229954	0.978263	-0.659753
H251	H	0.103379	1.311597	-0.326420
H252	H	0.436713	1.644930	0.006914
C253	C	-0.218711	0.676408	-0.386159
C254	C	0.114622	1.009741	-0.052825
C255	C	0.447955	1.343074	0.280508
H256	H	-0.194763	0.647584	-0.410063
H257	H	0.138570	0.980917	-0.076730
H258	H	0.471903	1.314250	0.256603
H259	H	-0.242832	0.701929	-0.413414
H260	H	0.090502	1.035262	-0.080080
H261	H	0.423835	1.368595	0.253253
H262	H	-0.191249	0.701943	-0.362231
H263	H	0.142084	1.035276	-0.028898
H264	H	0.475418	1.368609	0.304435
C265	C	-0.387445	0.135123	-0.217606
C266	C	-0.054112	0.468457	0.115727
C267	C	0.279221	0.801790	0.449061
H268	H	-0.381685	0.091476	-0.223361
H269	H	-0.048352	0.424809	0.109972
H270	H	0.284981	0.758142	0.443305
H271	H	-0.378177	0.145833	-0.175523
H272	H	-0.044844	0.479167	0.157810
H273	H	0.288490	0.812500	0.491144
H274	H	-0.429757	0.145814	-0.226708
H275	H	-0.096424	0.479147	0.106625
H276	H	0.236909	0.812480	0.439959
C277	C	-0.422089	0.895084	-0.733483
C278	C	-0.088756	1.228418	-0.400150
C279	C	0.244577	1.561751	-0.066817
H280	H	-0.413981	0.895789	-0.689827
H281	H	-0.080647	1.229123	-0.356494
H282	H	0.252686	1.562456	-0.023161
H283	H	-0.448558	0.929153	-0.744221
H284	H	-0.115225	1.262486	-0.410887
H285	H	0.218108	1.595820	-0.077554
H286	H	-0.442221	0.856926	-0.744192
H287	H	-0.108887	1.190259	-0.410859
H288	H	0.224446	1.523593	-0.077526
C289	C	-0.184003	0.474589	-0.312464
C290	C	0.149331	0.807922	0.020869
C291	C	0.482664	1.141256	0.354203
H292	H	-0.150221	0.445768	-0.315462
H293	H	0.183112	0.779101	0.017871
H294	H	0.516445	1.112434	0.351204
H295	H	-0.184877	0.500136	-0.348777
H296	H	0.148457	0.833469	-0.015444
H297	H	0.481790	1.166802	0.317890
H298	H	-0.178426	0.500099	-0.276557
H299	H	0.154907	0.833432	0.056776
H300	H	0.488240	1.166765	0.390110
C301	C	-0.387601	0.821319	-0.531632
C302	C	-0.054268	1.154652	-0.198299
C303	C	0.279065	1.487986	0.135035
H304	H	-0.381847	0.827058	-0.487978
H305	H	-0.048513	1.160391	-0.154645
H306	H	0.284820	1.493725	0.178688
H307	H	-0.429891	0.830462	-0.542361
H308	H	-0.096558	1.163795	-0.209028
H309	H	0.236775	1.497129	0.124305
H310	H	-0.378387	0.779224	-0.542336
H311	H	-0.045054	1.112558	-0.209003
H312	H	0.288280	1.445891	0.124330
C313	C	-0.387466	0.821336	-0.935272
C314	C	-0.054133	1.154670	-0.601939
C315	C	0.279201	1.488003	-0.268606
H316	H	-0.381711	0.827073	-0.891619
H317	H	-0.048377	1.160406	-0.558285
H318	H	0.284956	1.493740	-0.224952
H319	H	-0.429756	0.830481	-0.946001
H320	H	-0.096423	1.163814	-0.612667
H321	H	0.236911	1.497148	-0.279334
H322	H	-0.378253	0.779242	-0.945979
H323	H	-0.044920	1.112575	-0.612646
H324	H	0.288413	1.445909	-0.279312
H325	H	-0.375980	0.263195	-0.229063
H326	H	-0.042646	0.596528	0.104271
H327	H	0.290687	0.929861	0.437604
H328	H	-0.405956	0.346314	-0.292745
H329	H	-0.072622	0.679647	0.040589
H330	H	0.260711	1.012981	0.373922
C331	C	-0.422180	0.474357	-0.291290
C332	C	-0.088847	0.807690	0.042043
C333	C	0.244487	1.141023	0.375377
H334	H	-0.414066	0.518020	-0.292002
H335	H	-0.080732	0.851354	0.041332
H336	H	0.252601	1.184687	0.374665
H337	H	-0.448710	0.463628	-0.325326
H338	H	-0.115377	0.796961	0.008007
H339	H	0.217957	1.130294	0.341341
H340	H	-0.442247	0.463593	-0.253107
H341	H	-0.108914	0.796927	0.080226
H342	H	0.224420	1.130260	0.413559
H343	H	-0.542803	0.832740	-0.229092
H344	H	-0.209470	1.166074	0.104241
H345	H	0.123863	1.499407	0.437574
H346	H	-0.200181	0.346509	-0.311036
H347	H	0.133153	0.679843	0.022297
H348	H	0.466486	1.013176	0.355631
H349	H	-0.375911	0.832785	-1.063341
H350	H	-0.042578	1.166118	-0.730007
H351	H	0.290756	1.499452	-0.396674
H352	H	-0.376030	0.548121	-0.229043
H353	H	-0.042696	0.881454	0.104290
H354	H	0.290637	1.214787	0.437623
C355	C	-0.387561	0.821330	-0.669044
C356	C	-0.054227	1.154663	-0.335711
C357	C	0.279106	1.487997	-0.002377
H358	H	-0.381786	0.827079	-0.712702
H359	H	-0.048452	1.160412	-0.379369
H360	H	0.284881	1.493745	-0.046035
H361	H	-0.378361	0.779236	-0.658306
H362	H	-0.045028	1.112570	-0.324973
H363	H	0.288305	1.445903	0.008360
H364	H	-0.429859	0.830480	-0.658322
H365	H	-0.096526	1.163814	-0.324989
H366	H	0.236807	1.497147	0.008344
C367	C	-0.218637	0.272772	-0.386191
C368	C	0.114697	0.606106	-0.052857
C369	C	0.448030	0.939439	0.280476
H370	H	-0.194686	0.243950	-0.410094
H371	H	0.138648	0.577283	-0.076761
H372	H	0.471981	0.910616	0.256573
H373	H	-0.242761	0.298288	-0.413447
H374	H	0.090572	0.631622	-0.080113
H375	H	0.423905	0.964955	0.253220
H376	H	-0.191177	0.298312	-0.362266
H377	H	0.142156	0.631646	-0.028933
H378	H	0.475490	0.964979	0.304401
H379	H	-0.230092	0.144698	-0.374725
H380	H	0.103241	0.478031	-0.041392
H381	H	0.436575	0.811365	0.291942
H382	H	-0.376051	0.666834	-0.229025
H383	H	-0.042718	1.000168	0.104308
H384	H	0.290615	1.333501	0.437641
C385	C	-1.072063	0.989678	-0.386156
C386	C	-0.738730	1.323012	-0.052823
C387	C	-0.405396	1.656345	0.280511
H388	H	-1.043033	1.013521	-0.410037
H389	H	-0.709699	1.346854	-0.076703
H390	H	-0.376366	1.680187	0.256630
H391	H	-1.097727	0.965708	-0.413435
H392	H	-0.764394	1.299041	-0.080101
H393	H	-0.431060	1.632374	0.253232
H394	H	-1.097685	1.017004	-0.362213
H395	H	-0.764351	1.350338	-0.028880
H396	H	-0.431018	1.683671	0.304453
H397	H	-0.943423	0.978192	-0.374682
H398	H	-0.610090	1.311525	-0.041348
H399	H	-0.276756	1.644859	0.291985
C400	C	-0.183877	0.915969	-0.733483
C401	C	0.149456	1.249302	-0.400150
C402	C	0.482790	1.582635	-0.066817
H403	H	-0.150086	0.918925	-0.762338
H404	H	0.183247	1.252258	-0.429005
H405	H	0.516581	1.585591	-0.095671
H406	H	-0.184694	0.952283	-0.707969
H407	H	0.148640	1.285617	-0.374635
H408	H	0.481973	1.618950	-0.041302
H409	H	-0.178365	0.880056	-0.707947
H410	H	0.154968	1.213389	-0.374613
H411	H	0.488302	1.546722	-0.041280
C412	C	-0.934271	0.821431	-0.217682
C413	C	-0.600937	1.154764	0.115651
C414	C	-0.267604	1.488098	0.448984
H415	H	-0.890401	0.827145	-0.223427
H416	H	-0.557068	1.160478	0.109906
H417	H	-0.223734	1.493811	0.443240
H418	H	-0.945049	0.830626	-0.175594
H419	H	-0.611716	1.163959	0.157739
H420	H	-0.278382	1.497292	0.491073
H421	H	-0.945091	0.779331	-0.226817
H422	H	-0.611757	1.112664	0.106516
H423	H	-0.278424	1.445997	0.439850
H424	H	-0.661849	0.978086	-0.374659
H425	H	-0.328516	1.311419	-0.041326
H426	H	0.004817	1.644752	0.292008
C427	C	-0.183864	0.916382	-0.870891
C428	C	0.149470	1.249715	-0.537557
C429	C	0.482803	1.583049	-0.204224
H430	H	-0.191981	0.915788	-0.914547
H431	H	0.141353	1.249121	-0.581213
H432	H	0.474686	1.582455	-0.247880
H433	H	-0.164008	0.954636	-0.860030
H434	H	0.169326	1.287970	-0.526697
H435	H	0.502659	1.621303	-0.193364
H436	H	-0.157142	0.882458	-0.860303
H437	H	0.176191	1.215791	-0.526969
H438	H	0.509525	1.549125	-0.193636
C439	C	-0.533173	0.989494	-0.386089
C440	C	-0.199840	1.322827	-0.052756
C441	C	0.133494	1.656160	0.280578
H442	H	-0.562129	1.013348	-0.409986
H443	H	-0.228796	1.346682	-0.076652
H444	H	0.104538	1.680015	0.256681
H445	H	-0.507508	1.016800	-0.362147
H446	H	-0.174175	1.350133	-0.028813
H447	H	0.159158	1.683466	0.304520
H448	H	-0.507542	0.965497	-0.413362
H449	H	-0.174209	1.298831	-0.080029
H450	H	0.159125	1.632164	0.253304
C451	C	-0.218358	0.989727	-0.935333
C452	C	0.114976	1.323060	-0.602000
C453	C	0.448309	1.656393	-0.268667
H454	H	-0.224144	0.983989	-0.891675
H455	H	0.109189	1.317323	-0.558342
H456	H	0.442523	1.650656	-0.225009
H457	H	-0.176060	0.980582	-0.946049
H458	H	0.157273	1.313915	-0.612716
H459	H	0.490606	1.647249	-0.279383
H460	H	-0.227563	1.031821	-0.946076
H461	H	0.105771	1.365155	-0.612743
H462	H	0.439104	1.698488	-0.279410
C463	C	-0.671483	0.821337	-0.217654
C464	C	-0.338150	1.154670	0.115680
C465	C	-0.004817	1.488004	0.449013
H466	H	-0.642528	0.797471	-0.193768
H467	H	-0.309194	1.130805	0.139566
H468	H	0.024139	1.464138	0.472899
H469	H	-0.697115	0.845326	-0.190380
H470	H	-0.363782	1.178660	0.142953
H471	H	-0.030448	1.511993	0.476287
H472	H	-0.697148	0.794032	-0.241604
H473	H	-0.363814	1.127365	0.091730
H474	H	-0.030481	1.460699	0.425063
C475	C	-0.218497	0.989719	-0.531700
C476	C	0.114836	1.323052	-0.198367
C477	C	0.448169	1.656385	0.134966
H478	H	-0.194506	1.013594	-0.560567
H479	H	0.138827	1.346927	-0.227234
H480	H	0.472161	1.680261	0.106099
H481	H	-0.242579	1.017003	-0.506184
H482	H	0.090754	1.350336	-0.172851
H483	H	0.424087	1.683669	0.160483
H484	H	-0.191078	0.965762	-0.506167
H485	H	0.142255	1.299095	-0.172834
H486	H	0.475589	1.632429	0.160500
C487	C	-0.218308	0.989727	-1.072745
C488	C	0.115026	1.323061	-0.739411
C489	C	0.448359	1.656394	-0.406078
H490	H	-0.194345	1.013611	-1.043896
H491	H	0.138989	1.346944	-0.710563
H492	H	0.472322	1.680278	-0.377230
H493	H	-0.190873	0.965780	-1.098260
H494	H	0.142461	1.299113	-0.764926
H495	H	0.475794	1.632446	-0.431593
H496	H	-0.242381	1.017013	-1.098282
H497	H	0.090952	1.350346	-0.764949
H498	H	0.424285	1.683679	-0.431615
