data_functionalizedCrystal
_audit_creation_method	'MofGen! by Chris Wilmer'
_symmetry_space_group_name_H-M	'P1'
_symmetry_Int_Tables_number	1
_symmetry_cell_setting	triclinic
loop_
_symmetry_equiv_pos_as_xyz
  x,y,z
_cell_length_a	19.188933
_cell_length_b	19.188930
_cell_length_c	12.503572
_cell_angle_alpha	93.506241
_cell_angle_beta	86.495071
_cell_angle_gamma	83.145175
loop_
_atom_site_label
_atom_site_type_symbol
_atom_site_fract_x
_atom_site_fract_y
_atom_site_fract_z
O1	O	0.930181	0.083124	-0.089296
O2	O	1.430181	0.583124	0.410704
O3	O	0.726871	0.094856	-0.089308
O4	O	1.226871	0.594856	0.410692
O5	O	0.834392	-0.012665	-0.089281
O6	O	1.334392	0.487335	0.410719
O7	O	0.822660	0.190644	-0.089323
O8	O	1.322660	0.690644	0.410677
O9	O	0.826306	-0.004565	0.089359
O10	O	1.326306	0.495435	0.589359
O11	O	0.718784	0.102956	0.089332
O12	O	1.218784	0.602956	0.589332
O13	O	0.922095	0.091223	0.089344
O14	O	1.422095	0.591223	0.589344
Cu15	Cu	0.819701	0.097829	0.105649
Cu16	Cu	1.319701	0.597829	0.605649
Cu17	Cu	0.829264	0.088250	-0.105613
Cu18	Cu	1.329264	0.588250	0.394387
O19	O	0.814574	0.198744	0.089317
O20	O	1.314574	0.698744	0.589317
C21	C	0.696817	0.098526	0.000011
C22	C	1.196817	0.598526	0.500011
C23	C	0.619312	0.097384	0.000008
C24	C	1.119312	0.597384	0.500008
C25	C	0.070464	0.084824	-0.097356
C26	C	0.570464	0.584824	0.402644
C27	C	0.143289	0.085892	-0.097360
C28	C	0.643289	0.585892	0.402640
C29	C	0.175298	0.090845	0.000016
C30	C	0.675298	0.590845	0.500016
C31	C	0.134479	0.094711	0.097404
C32	C	0.634479	0.594711	0.597404
C33	C	0.061657	0.093636	0.097405
C34	C	0.561657	0.593636	0.597405
N35	N	0.281037	0.135549	0.072489
N36	N	0.781037	0.635549	0.572489
N37	N	0.350215	0.136572	0.072481
N38	N	0.850215	0.636572	0.572481
C39	C	0.394706	0.094083	0.000017
C40	C	0.894706	0.594083	0.500017
N41	N	0.367406	0.050541	-0.072455
N42	N	0.867406	0.550541	0.427545
N43	N	0.298221	0.049521	-0.072449
N44	N	0.798221	0.549521	0.427551
C45	C	0.254261	0.092011	0.000025
C46	C	0.754261	0.592011	0.500025
C47	C	0.514482	0.091369	-0.097369
C48	C	1.014482	0.591369	0.402631
C49	C	0.587308	0.092433	-0.097370
C50	C	1.087308	0.592433	0.402630
C51	C	0.578496	0.101259	0.097397
C52	C	1.078496	0.601259	0.597397
C53	C	0.505672	0.100188	0.097395
C54	C	1.005672	0.600188	0.597395
C55	C	0.473669	0.095247	0.000008
C56	C	0.973669	0.595247	0.500008
C57	C	0.829969	-0.034626	0.000042
C58	C	1.329969	0.465374	0.500042
C59	C	0.828828	-0.112130	0.000052
C60	C	1.328828	0.387870	0.500052
C61	C	0.891918	-0.157053	0.000060
C62	C	1.391918	0.342947	0.500060
C63	C	0.890847	-0.229878	0.000043
C64	C	1.390847	0.270122	0.500043
C65	C	0.826681	-0.257775	0.000039
C66	C	1.326681	0.242225	0.500039
C67	C	0.763583	-0.212842	0.000024
C68	C	1.263583	0.287158	0.500024
C69	C	0.764656	-0.140020	0.000030
C70	C	1.264656	0.359980	0.500030
N71	N	0.774882	-0.363024	0.060830
N72	N	1.274882	0.136976	0.560830
N73	N	0.773867	-0.432203	0.060826
N74	N	1.273867	0.067797	0.560826
C75	C	0.823444	-0.477185	0.000017
C76	C	1.323444	0.022815	0.500017
N77	N	0.874085	-0.450375	-0.060776
N78	N	1.374085	0.049625	0.439224
N79	N	0.875102	-0.381190	-0.060767
N80	N	1.375102	0.118810	0.439233
C81	C	0.825511	-0.336738	0.000031
C82	C	1.325511	0.163262	0.500031
C83	C	0.885378	-0.601073	0.000005
C84	C	1.385378	-0.101073	0.500005
C85	C	0.884305	-0.673899	-0.000019
C86	C	1.384305	-0.173899	0.499981
C87	C	0.757038	-0.656861	-0.000027
C88	C	1.257038	-0.156861	0.499973
C89	C	0.758114	-0.584038	-0.000014
C90	C	1.258114	-0.084038	0.499986
C91	C	0.822285	-0.556148	0.000007
C92	C	1.322285	-0.056148	0.500007
C93	C	0.952149	0.087554	0.000023
C94	C	1.452149	0.587554	0.500023
C95	C	1.029654	0.088695	0.000019
C96	C	1.529654	0.588695	0.500019
C97	C	0.818997	0.220705	-0.000009
C98	C	1.318997	0.720705	0.499991
C99	C	0.820138	0.298209	-0.000025
C100	C	1.320138	0.798209	0.499975
N101	N	0.812980	0.104566	0.254240
N102	N	1.312980	0.604566	0.754240
N103	N	0.835991	0.081508	-0.254204
N104	N	1.335991	0.581508	0.245796
C105	C	0.803094	0.114481	0.473353
C106	C	1.303094	0.614481	0.973353
C107	C	0.845876	0.071595	0.526690
C108	C	1.345876	0.571595	1.026690
C109	C	0.840374	0.077112	0.648612
C110	C	1.340374	0.577112	1.148612
C111	C	0.808594	0.108965	0.351420
C112	C	1.308594	0.608965	0.851420
H113	H	0.472443	0.103342	0.176688
H114	H	0.972443	0.603342	0.676688
H115	H	0.886634	0.030735	0.480788
H116	H	1.386634	0.530735	0.980788
F117	F	0.749823	0.167887	0.533345
F118	F	1.249823	0.667887	1.033345
H119	H	0.944172	-0.134351	0.000074
H120	H	1.444172	0.365649	0.500074
F121	F	0.951458	-0.721711	-0.000016
F122	F	1.451458	-0.221711	0.499984
H123	H	0.942225	-0.266461	0.000046
H124	H	1.442225	0.233539	0.500046
F125	F	0.480420	0.086106	-0.201015
F126	F	0.980420	0.586106	0.298985
H127	H	0.711339	-0.235561	0.000018
H128	H	1.211339	0.264439	0.500018
H129	H	0.176522	0.082745	-0.176657
H130	H	0.676522	0.582745	0.323343
F131	F	0.688748	-0.686547	-0.000037
F132	F	1.188748	-0.186547	0.499963
H133	H	0.937631	-0.578364	0.000018
H134	H	1.437631	-0.078364	0.500018
F135	F	0.690963	-0.536225	-0.000019
F136	F	1.190963	-0.036225	0.499981
F137	F	0.036409	0.079561	-0.201003
F138	F	0.536409	0.579561	0.298997
H139	H	0.160545	0.098742	0.176688
H140	H	0.660545	0.598742	0.676688
F141	F	0.612558	0.106521	0.201033
F142	F	1.112558	0.606521	0.701033
F143	F	0.630743	0.088307	-0.201015
F144	F	1.130743	0.588307	0.298985
F145	F	0.697504	-0.092207	0.000021
F146	F	1.197504	0.407793	0.500021
F147	F	0.018221	0.097758	0.201050
F148	F	0.518221	0.597758	0.701050
