data_functionalizedCrystal
_audit_creation_method	'MofGen! by Chris Wilmer'
_symmetry_space_group_name_H-M	'P1'
_symmetry_Int_Tables_number	1
_symmetry_cell_setting	triclinic
loop_
_symmetry_equiv_pos_as_xyz
  x,y,z
_cell_length_a	15.995350
_cell_length_b	14.472310
_cell_length_c	15.995292
_cell_angle_alpha	90.002121
_cell_angle_beta	96.519505
_cell_angle_gamma	90.009379
loop_
_atom_site_label
_atom_site_type_symbol
_atom_site_fract_x
_atom_site_fract_y
_atom_site_fract_z
O1	O	-1.110974	-0.076756	0.107924
O2	O	-0.867196	-0.076774	0.121252
O3	O	-0.995774	-0.076766	-0.007303
O4	O	-0.982396	-0.076764	0.236479
O5	O	-0.995741	0.076916	-0.007296
O6	O	-0.867163	0.076908	0.121259
O7	O	-1.110941	0.076926	0.107931
Cu8	Cu	-0.989049	0.090949	0.114596
Cu9	Cu	-0.989088	-0.090798	0.114587
O10	O	-0.982363	0.076918	0.236486
C11	C	-0.835985	0.000064	0.120704
C12	C	-0.743035	0.000057	0.119053
N13	N	-0.989027	0.218780	0.114602
C14	C	-0.995213	0.000073	-0.038495
C15	C	-0.993581	0.000066	-0.131448
C16	C	-1.142152	0.000085	0.108479
C17	C	-1.235102	0.000087	0.110130
C18	C	-0.405288	0.000076	0.113120
C19	C	-0.452742	0.000418	0.021566
C20	C	-0.549431	0.000066	0.023218
C21	C	-0.572848	0.000067	0.116063
C22	C	-0.531771	-0.087689	0.161216
C23	C	-0.435135	-0.087756	0.158916
C24	C	-0.434759	0.087010	0.160816
C25	C	-0.531704	0.088163	0.160795
C26	C	-0.667546	0.000059	0.117731
C27	C	-0.310591	0.000078	0.111455
N28	N	-0.989116	-0.218628	0.114575
C29	C	-0.989087	0.592871	0.114584
C30	C	-0.920057	0.553701	0.183140
C31	C	-0.920216	0.446613	0.183390
C32	C	-0.989057	0.407280	0.114593
C33	C	-1.076417	0.446124	0.133675
C34	C	-1.076029	0.553246	0.134162
C35	C	-0.971536	0.553398	0.026742
C36	C	-0.969532	0.446271	0.027327
C37	C	-0.989045	0.302392	0.114596
C38	C	-0.989104	0.697760	0.114582
C39	C	-0.987580	0.000074	-0.469186
C40	C	-1.080384	0.000424	-0.445874
C41	C	-1.082148	0.000074	-0.349199
C42	C	-0.990557	0.000070	-0.301631
C43	C	-0.944179	-0.087690	-0.330736
C44	C	-0.943061	-0.087761	-0.427526
C45	C	-0.941129	0.087004	-0.427375
C46	C	-0.944567	0.088161	-0.330882
C47	C	-0.992235	0.000065	-0.206934
C48	C	-0.985899	0.000072	-0.563882
C49	C	-0.982924	0.000077	0.267678
C50	C	-0.984556	0.000078	0.360631
H51	H	-0.434214	0.063352	-0.015028
C52	C	-0.552216	0.095045	0.251070
C53	C	-0.602550	0.019975	0.268784
C54	C	-0.621449	0.026269	0.351945
H55	H	-0.581596	0.151002	0.258262
H56	H	-0.501507	0.094264	0.288279
H57	H	-0.653250	0.020766	0.231587
H58	H	-0.573186	-0.035992	0.261611
H59	H	-0.570741	0.025487	0.389153
H60	H	-0.650826	0.082229	0.359129
H61	H	-0.655596	-0.024668	0.363976
C62	C	-0.934648	0.589699	0.269571
C63	C	-0.864093	0.639935	0.303725
C64	C	-0.877513	0.673122	0.383336
H65	H	-0.943522	0.539161	0.305415
H66	H	-0.982735	0.628690	0.264558
H67	H	-0.816020	0.600947	0.308742
H68	H	-0.855208	0.690486	0.267904
H69	H	-0.925600	0.712113	0.378324
H70	H	-0.886388	0.622579	0.419173
H71	H	-0.829648	0.707218	0.406516
C72	C	-1.128205	0.084301	-0.483104
C73	C	-1.210477	0.082500	-0.461174
C74	C	-1.254552	0.159759	-0.495454
H75	H	-1.129710	0.083212	-0.542634
H76	H	-1.100792	0.139026	-0.461689
H77	H	-1.237883	0.027789	-0.482593
H78	H	-1.208997	0.083602	-0.401650
H79	H	-1.227140	0.214484	-0.474039
H80	H	-1.256051	0.158663	-0.554982
H81	H	-1.310376	0.158552	-0.480572
H82	H	-0.402874	-0.091737	0.226134
H83	H	-0.433169	-0.062168	-0.014865
C84	C	-0.854276	-0.092202	-0.288353
C85	C	-0.814850	-0.171219	-0.315747
C86	C	-0.732030	-0.175400	-0.276726
H87	H	-0.854667	-0.094887	-0.229063
H88	H	-0.824443	-0.038755	-0.302607
H89	H	-0.844675	-0.224653	-0.301487
H90	H	-0.814435	-0.168552	-0.375031
H91	H	-0.702197	-0.121952	-0.290980
H92	H	-0.732430	-0.178082	-0.217438
H93	H	-0.705266	-0.229007	-0.295313
H94	H	-0.976412	-0.152998	-0.310678
C95	C	-1.146629	0.587919	0.070237
C96	C	-1.202446	0.641479	0.111202
C97	C	-1.267488	0.673436	0.052344
H98	H	-1.175863	0.536753	0.043672
H99	H	-1.123650	0.624448	0.029092
H100	H	-1.225424	0.604951	0.152332
H101	H	-1.173237	0.692659	0.137764
H102	H	-1.244510	0.709965	0.011199
H103	H	-1.296716	0.622264	0.025782
H104	H	-1.305364	0.709787	0.080129
C105	C	-0.979865	0.175630	-0.465210
C106	C	-0.973192	0.177050	-0.551725
C107	C	-1.008884	0.258666	-0.586611
H108	H	-0.950970	0.227314	-0.439208
H109	H	-1.037508	0.178336	-0.456202
H110	H	-0.915559	0.174353	-0.560727
H111	H	-1.002089	0.125385	-0.577749
H112	H	-1.066527	0.261372	-0.577602
H113	H	-0.979986	0.310344	-0.560603
H114	H	-1.004368	0.259637	-0.645315
C115	C	-1.032110	0.410642	-0.044011
C116	C	-1.012302	0.447085	-0.120424
C117	C	-1.069930	0.414274	-0.186158
H118	H	-1.087324	0.429194	-0.034941
H119	H	-1.029411	0.345105	-0.045846
H120	H	-1.015009	0.512607	-0.118588
H121	H	-0.957099	0.428535	-0.129521
H122	H	-1.067231	0.348738	-0.187993
H123	H	-1.125140	0.432829	-0.177079
H124	H	-1.056494	0.438989	-0.238012
H125	H	-0.559013	0.153085	0.127833
C126	C	-1.146540	0.411968	0.068948
C127	C	-1.149317	0.315303	0.070882
C128	C	-1.213908	0.283805	0.011275
H129	H	-1.136199	0.431921	0.014488
H130	H	-1.198822	0.436212	0.081674
H131	H	-1.097047	0.291069	0.058151
H132	H	-1.159669	0.295326	0.125328
H133	H	-1.266190	0.308048	0.024001
H134	H	-1.203561	0.303763	-0.043181
H135	H	-1.215806	0.218215	0.012585
H136	H	-0.978338	0.153086	-0.312314
C137	C	-0.852384	-0.093232	-0.447063
C138	C	-0.841585	-0.173039	-0.494137
C139	C	-0.758071	-0.178110	-0.512157
H140	H	-0.815801	-0.095426	-0.395988
H141	H	-0.839646	-0.040342	-0.478446
H142	H	-0.854314	-0.225915	-0.462754
H143	H	-0.878148	-0.170862	-0.545222
H144	H	-0.745333	-0.125220	-0.543541
H145	H	-0.721496	-0.180302	-0.461078
H146	H	-0.750735	-0.232254	-0.544105
C147	C	-0.855362	0.095262	-0.287084
C148	C	-0.798359	0.094175	-0.347348
C149	C	-0.716174	0.100717	-0.307033
H150	H	-0.844353	0.044419	-0.249911
H151	H	-0.849285	0.151295	-0.256040
H152	H	-0.804433	0.038149	-0.378378
H153	H	-0.809341	0.145016	-0.384524
H154	H	-0.710096	0.156750	-0.275989
H155	H	-0.705174	0.049873	-0.269860
H156	H	-0.677488	0.099989	-0.347915
H157	H	-1.091498	0.578223	0.198225
H158	H	-0.854909	0.579484	0.171958
C159	C	-0.587182	0.083970	-0.024182
C160	C	-0.522938	0.135447	-0.054564
C161	C	-0.557679	0.212740	-0.098247
H162	H	-0.615449	0.121200	0.012647
H163	H	-0.626055	0.064249	-0.070046
H164	H	-0.484080	0.155169	-0.008706
H165	H	-0.494666	0.098244	-0.091404
H166	H	-0.596551	0.193019	-0.144112
H167	H	-0.585945	0.249962	-0.061413
H168	H	-0.514096	0.247671	-0.118873
C169	C	-0.586447	-0.084041	-0.024427
C170	C	-0.521740	-0.134739	-0.054816
C171	C	-0.555805	-0.212234	-0.098702
H172	H	-0.625411	-0.064591	-0.070300
H173	H	-0.614475	-0.121682	0.012301
H174	H	-0.493726	-0.097105	-0.091542
H175	H	-0.482772	-0.154212	-0.008961
H176	H	-0.583833	-0.249875	-0.061974
H177	H	-0.594769	-0.192775	-0.144571
H178	H	-0.511906	-0.246647	-0.119320
H179	H	-1.092256	0.419289	0.197007
H180	H	-0.416848	-0.153357	0.125982
C181	C	-0.392505	0.087951	0.250865
C182	C	-0.419262	0.165654	0.292684
C183	C	-0.380360	0.166538	0.375636
H184	H	-0.333179	0.090256	0.250658
H185	H	-0.407305	0.033536	0.278981
H186	H	-0.404455	0.220055	0.264575
H187	H	-0.478581	0.163366	0.292914
H188	H	-0.395161	0.112123	0.403752
H189	H	-0.321036	0.168840	0.375421
H190	H	-0.398515	0.219254	0.404023
C191	C	-0.935041	0.412557	0.270381
C192	C	-0.870779	0.445246	0.329753
C193	C	-0.884419	0.413905	0.409902
H194	H	-0.935167	0.346926	0.270965
H195	H	-0.987757	0.434773	0.283898
H196	H	-0.818077	0.423026	0.316240
H197	H	-0.870642	0.510874	0.329195
H198	H	-0.937135	0.436120	0.423418
H199	H	-0.884546	0.348274	0.410477
H200	H	-0.840825	0.436086	0.450196
H201	H	-0.545882	-0.090951	0.229427
H202	H	-0.560166	-0.153000	0.129849
H203	H	-1.021877	0.578728	-0.024276
H204	H	-0.855278	0.420352	0.172021
H205	H	-0.872817	0.087592	-0.441365
H206	H	-0.909217	0.580461	0.008393
C207	C	-0.407607	0.175824	0.120937
C208	C	-0.478833	0.228387	0.093068
C209	C	-0.453884	0.310226	0.056337
H210	H	-0.377814	0.161362	0.074529
H211	H	-0.372170	0.210156	0.161344
H212	H	-0.514257	0.194061	0.052663
H213	H	-0.508635	0.242873	0.139460
H214	H	-0.418447	0.344559	0.096744
H215	H	-0.424090	0.295755	0.009932
H216	H	-0.502206	0.345904	0.037430
C217	C	-0.883778	0.412605	0.008040
C218	C	-0.831455	0.488671	-0.000993
C219	C	-0.752449	0.457689	-0.018750
H220	H	-0.889975	0.377889	-0.042687
H221	H	-0.859473	0.374716	0.052861
H222	H	-0.855754	0.526545	-0.045810
H223	H	-0.825234	0.523395	0.049725
H224	H	-0.728144	0.419800	0.026072
H225	H	-0.758655	0.422972	-0.069475
H226	H	-0.716936	0.509294	-0.024873
C227	C	-1.130670	0.083851	-0.323737
C228	C	-1.199862	0.054528	-0.284340
C229	C	-1.244576	0.131685	-0.260879
H230	H	-1.149775	0.118942	-0.372360
H231	H	-1.094959	0.120984	-0.285907
H232	H	-1.235567	0.017411	-0.322168
H233	H	-1.180781	0.019448	-0.235708
H234	H	-1.208865	0.168818	-0.223049
H235	H	-1.263675	0.166770	-0.309507
H236	H	-1.291523	0.111800	-0.234139
C237	C	-1.127899	-0.083059	-0.484401
C238	C	-1.155502	-0.137171	-0.420355
C239	C	-1.199280	-0.214078	-0.455814
H240	H	-1.091739	-0.118670	-0.514901
H241	H	-1.175045	-0.062908	-0.521393
H242	H	-1.108362	-0.157323	-0.383378
H243	H	-1.191672	-0.101588	-0.389850
H244	H	-1.246427	-0.193927	-0.492806
H245	H	-1.163115	-0.249681	-0.486313
H246	H	-1.218021	-0.250798	-0.412365
C247	C	-0.985997	-0.175257	-0.463138
C248	C	-1.012691	-0.227563	-0.397473
C249	C	-1.052259	-0.308164	-0.430243
H250	H	-0.947496	-0.210451	-0.491156
H251	H	-1.033244	-0.159253	-0.501885
H252	H	-0.965450	-0.243568	-0.358740
H253	H	-1.051202	-0.192396	-0.369449
H254	H	-1.099506	-0.292161	-0.468990
H255	H	-1.013753	-0.343350	-0.458261
H256	H	-1.070383	-0.343659	-0.385696
H257	H	-1.118713	-0.062941	-0.330797
