data_functionalizedCrystal
_audit_creation_method	'MofGen! by Chris Wilmer'
_symmetry_space_group_name_H-M	'P1'
_symmetry_Int_Tables_number	1
_symmetry_cell_setting	triclinic
loop_
_symmetry_equiv_pos_as_xyz
  x,y,z
_cell_length_a	16.959455
_cell_length_b	19.121063
_cell_length_c	16.959447
_cell_angle_alpha	87.593376
_cell_angle_beta	90.014322
_cell_angle_gamma	92.465894
loop_
_atom_site_label
_atom_site_type_symbol
_atom_site_fract_x
_atom_site_fract_y
_atom_site_fract_z
Zn1	Zn	1.194915	-0.279656	0.460312
Zn2	Zn	1.694915	0.220344	0.960312
Zn3	Zn	1.189180	-0.397117	0.333763
Zn4	Zn	1.689180	0.102883	0.833763
Zn5	Zn	1.062742	-0.279678	0.328150
Zn6	Zn	1.562742	0.220322	0.828150
Zn7	Zn	1.057053	-0.397064	0.465899
Zn8	Zn	1.557053	0.102936	0.965899
O9	O	1.125973	-0.338379	0.397031
O10	O	1.625973	0.161621	0.897031
O11	O	1.304764	-0.295250	0.443535
O12	O	1.804764	0.204750	0.943535
O13	O	1.172389	-0.381570	0.222409
O14	O	1.672389	0.118430	0.722409
O15	O	1.085056	-0.181391	0.340995
O16	O	1.585056	0.318609	0.840995
O17	O	1.300551	-0.381548	0.350560
O18	O	1.800551	0.118452	0.850560
O19	O	1.182163	-0.181375	0.438093
O20	O	1.682163	0.318625	0.938093
O21	O	1.079495	-0.295288	0.218285
O22	O	1.579495	0.204712	0.718285
O23	O	0.951377	-0.295237	0.346412
O24	O	1.451377	0.204763	0.846412
O25	O	1.075360	-0.381459	0.575767
O26	O	1.575360	0.118541	1.075767
O27	O	0.947198	-0.381480	0.447615
O28	O	1.447198	0.118520	0.947615
O29	O	1.176646	-0.295199	0.571662
O30	O	1.676646	0.204801	1.071662
O31	O	1.166873	-0.495394	0.355978
O32	O	1.666873	0.004606	0.855978
O33	O	1.069800	-0.495356	0.453058
O34	O	1.569800	0.004644	0.953058
C35	C	0.920608	-0.338356	0.397012
C36	C	1.420608	0.161644	0.897012
C37	C	0.832751	-0.338363	0.397023
C38	C	1.332751	0.161637	0.897023
C39	C	0.463428	-0.293435	0.344438
C40	C	0.963428	0.206565	0.844438
C41	C	0.459118	-0.383380	0.449672
C42	C	0.959118	0.116620	0.949672
C43	C	0.541664	-0.383370	0.449666
C44	C	1.041664	0.116630	0.949666
C45	C	0.585096	-0.338393	0.397045
C46	C	1.085096	0.161607	0.897045
C47	C	0.545982	-0.293425	0.344430
C48	C	1.045982	0.206575	0.844430
C49	C	0.580784	-0.428342	0.502276
C50	C	1.080784	0.071658	1.002276
C51	C	0.663336	-0.428334	0.502272
C52	C	1.163336	0.071666	1.002272
C53	C	0.706770	-0.383353	0.449654
C54	C	1.206770	0.116647	0.949654
C55	C	0.667650	-0.338383	0.397037
C56	C	1.167650	0.161617	0.897037
C57	C	0.711082	-0.293405	0.344416
C58	C	1.211082	0.206595	0.844416
C59	C	0.671965	-0.248431	0.291802
C60	C	1.171965	0.251569	0.791802
C61	C	0.589416	-0.248444	0.291812
C62	C	1.089416	0.251556	0.791812
C63	C	0.789319	-0.383340	0.449644
C64	C	1.289319	0.116660	0.949644
C65	C	0.793636	-0.293395	0.344407
C66	C	1.293636	0.206605	0.844407
C67	C	1.117118	-0.520859	0.405750
C68	C	1.617118	-0.020859	0.905750
C69	C	1.113402	-0.598924	0.409507
C70	C	1.613402	-0.098924	0.909507
C71	C	1.162236	-0.635597	0.360769
C72	C	1.662236	-0.135597	0.860769
C73	C	1.158746	-0.708948	0.364307
C74	C	1.658746	-0.208948	0.864307
C75	C	1.106417	-0.745625	0.416579
C76	C	1.606417	-0.245625	0.916579
C77	C	1.057581	-0.708948	0.465322
C78	C	1.557581	-0.208948	0.965322
C79	C	1.061076	-0.635598	0.461787
C80	C	1.561076	-0.135598	0.961787
C81	C	1.093339	-0.967094	0.429780
C82	C	1.593339	-0.467094	0.929780
C83	C	1.089847	-1.040449	0.433309
C84	C	1.589847	-0.540449	0.933309
C85	C	1.191013	-1.040443	0.332295
C86	C	1.691013	-0.540443	0.832295
C87	C	1.194500	-0.967092	0.328762
C88	C	1.694500	-0.467092	0.828762
C89	C	1.145667	-0.930421	0.377508
C90	C	1.645667	-0.430421	0.877508
C91	C	1.102847	-0.820602	0.420195
C92	C	1.602847	-0.320602	0.920195
C93	C	1.149242	-0.855446	0.373896
C94	C	1.649242	-0.355446	0.873896
C95	C	1.332140	-0.338403	0.397051
C96	C	1.832140	0.161597	0.897051
C97	C	1.419996	-0.338413	0.397059
C98	C	1.919996	0.161587	0.897059
C99	C	1.126008	-0.338321	0.603196
C100	C	1.626008	0.161679	1.103196
C101	C	1.126024	-0.338296	0.691052
C102	C	1.626024	0.161704	1.191052
C103	C	1.134884	-0.155186	0.388295
C104	C	1.634884	0.344814	0.888295
C105	C	1.138681	-0.077121	0.384572
C106	C	1.638681	0.422879	0.884572
C107	C	1.125985	-0.338386	0.191665
C108	C	1.625985	0.161614	0.691665
C109	C	1.126133	-0.338213	0.103800
C110	C	1.626133	0.161787	0.603800
C111	C	1.073386	-0.383133	1.064664
C112	C	1.573386	0.116867	1.564664
C113	C	1.178857	-0.293311	1.060384
C114	C	1.678857	0.206689	1.560384
C115	C	1.178835	-0.293326	0.977839
C116	C	1.678835	0.206674	1.477839
C117	C	1.126089	-0.338246	0.938703
C118	C	1.626089	0.161754	1.438703
C119	C	1.073365	-0.383151	0.982111
C120	C	1.573365	0.116849	1.482111
C121	C	1.231564	-0.248426	0.934425
C122	C	1.731564	0.251574	1.434425
C123	C	1.231545	-0.248440	0.851875
C124	C	1.731545	0.251560	1.351875
C125	C	1.178794	-0.293357	0.812736
C126	C	1.678794	0.206643	1.312736
C127	C	1.126067	-0.338263	0.856150
C128	C	1.626067	0.161737	1.356150
C129	C	1.073321	-0.383183	0.817013
C130	C	1.573321	0.116817	1.317013
C131	C	1.020590	-0.428087	0.860425
C132	C	1.520590	0.071913	1.360425
C133	C	1.020614	-0.428068	0.942973
C134	C	1.520614	0.071932	1.442973
C135	C	1.178770	-0.293376	0.730189
C136	C	1.678770	0.206624	1.230189
C137	C	1.073299	-0.383201	0.734460
C138	C	1.573299	0.116799	1.234460
H139	H	0.695178	-0.464954	0.545114
H140	H	1.195178	0.035046	1.045114
N141	N	1.232735	-0.247440	1.100371
N142	N	1.732735	0.252560	1.600371
N143	N	1.232751	-0.247436	1.174075
N144	N	1.732751	0.252564	1.674075
H145	H	1.270805	-0.215038	1.202319
H146	H	1.770805	0.284962	1.702319
N147	N	0.716319	-0.202488	0.238042
N148	N	1.216319	0.297512	0.738042
N149	N	0.706852	-0.207062	0.165316
N150	N	1.206852	0.292938	0.665316
H151	H	0.738178	-0.174614	0.127348
H152	H	1.238178	0.325386	0.627348
H153	H	1.014977	-0.738816	0.507886
H154	H	1.514977	-0.238816	1.007886
N155	N	1.019525	-0.428990	1.109014
N156	N	1.519525	0.071010	1.609014
N157	N	1.019543	-0.428967	1.182717
N158	N	1.519543	0.071033	1.682717
H159	H	0.981503	-0.461353	1.214041
H160	H	1.481503	0.038647	1.714041
H161	H	0.545416	-0.464965	0.545111
H162	H	1.045416	0.035035	1.045111
H163	H	0.821164	-0.419959	0.492479
H164	H	1.321164	0.080041	0.992479
N165	N	0.423476	-0.247508	0.290685
N166	N	0.923476	0.252492	0.790685
N167	N	0.432448	-0.252087	0.217958
N168	N	0.932448	0.247913	0.717958
H169	H	0.404231	-0.219651	0.179993
H170	H	0.904231	0.280349	0.679993
H171	H	1.237110	-0.937231	0.286199
H172	H	1.737110	-0.437231	0.786199
N173	N	1.240886	-1.077913	0.282511
N174	N	1.740886	-0.577913	0.782511
N175	N	1.237761	-1.143403	0.285669
N176	N	1.737761	-0.643403	0.785669
H177	H	1.272986	-1.169867	0.250508
H178	H	1.772986	-0.669867	0.750508
N179	N	1.285442	-0.202557	0.974413
N180	N	1.785442	0.297443	1.474413
N181	N	1.285451	-0.202550	1.048117
N182	N	1.785451	0.297450	1.548117
H183	H	1.323505	-0.170154	1.076363
H184	H	1.823505	0.329846	1.576363
H185	H	1.221705	-0.256818	0.694846
H186	H	1.721705	0.243182	1.194846
N187	N	0.966741	-0.473928	0.987304
N188	N	1.466741	0.026072	1.487304
N189	N	0.919638	-0.514022	0.952354
N190	N	1.419638	-0.014022	1.452354
H191	H	0.881584	-0.546406	0.983665
H192	H	1.381584	-0.046406	1.483665
N193	N	0.837987	-0.247439	0.290657
N194	N	1.337987	0.252561	0.790657
N195	N	0.803049	-0.207289	0.243692
N196	N	1.303049	0.292711	0.743692
H197	H	0.834370	-0.174830	0.205731
H198	H	1.334370	0.325170	0.705731
N199	N	0.549446	-0.202512	0.238078
N200	N	1.049446	0.297488	0.738078
N201	N	0.475741	-0.202532	0.238092
N202	N	0.975741	0.297468	0.738092
H203	H	0.447508	-0.170095	0.200142
H204	H	0.947508	0.329905	0.700142
H205	H	1.047244	-1.070309	0.475889
H206	H	1.547244	-0.570309	0.975889
N207	N	1.011203	-0.598135	0.511582
N208	N	1.511203	-0.098135	1.011582
N209	N	1.016017	-0.606276	0.584915
N210	N	1.516017	-0.106276	1.084915
H211	H	0.980796	-0.579818	0.620088
H212	H	1.480796	-0.079818	1.120088
H213	H	0.423750	-0.420003	0.492509
H214	H	0.923750	0.079997	0.992509
N215	N	1.043453	-0.929653	0.479576
N216	N	1.543453	-0.429653	0.979576
N217	N	0.996734	-0.962411	0.526241
N218	N	1.496734	-0.462411	1.026241
H219	H	0.961499	-0.935967	0.561412
H220	H	1.461499	-0.435967	1.061412
N221	N	1.285412	-0.202572	0.807547
N222	N	1.785412	0.297428	1.307547
N223	N	1.332504	-0.162471	0.842501
N224	N	1.832504	0.337529	1.342501
H225	H	1.370549	-0.130075	0.811194
H226	H	1.870549	0.369925	1.311194
N227	N	1.208635	-0.746391	0.314512
N228	N	1.708635	-0.246391	0.814512
N229	N	1.203830	-0.738249	0.241179
N230	N	1.703830	-0.238249	0.741179
H231	H	1.239070	-0.764691	0.206009
H232	H	1.739070	-0.264691	0.706009
N233	N	1.215678	-0.598136	0.307361
N234	N	1.715678	-0.098136	0.807361
N235	N	1.210086	-0.606383	0.234818
N236	N	1.710086	-0.106383	0.734818
H237	H	1.247831	-0.579927	0.197096
H238	H	1.747831	-0.079927	0.697096
N239	N	1.202690	-0.817995	0.320491
N240	N	1.702690	-0.317995	0.820491
N241	N	1.246286	-0.850742	0.276971
N242	N	1.746286	-0.350742	0.776971
H243	H	1.284032	-0.824288	0.239250
H244	H	1.784032	-0.324288	0.739250
H245	H	1.060239	-0.850473	0.462753
H246	H	1.560239	-0.350473	0.962753
H247	H	1.030340	-0.419775	0.702601
H248	H	1.530340	0.080225	1.202601
N249	N	0.966724	-0.473972	0.820432
N250	N	1.466724	0.026028	1.320432
N251	N	0.966724	-0.473982	0.746728
N252	N	1.466724	0.026018	1.246728
H253	H	0.928683	-0.506388	0.718479
H254	H	1.428683	-0.006388	1.218479
