data_functionalizedCrystal
_audit_creation_method	'MofGen! by Chris Wilmer'
_symmetry_space_group_name_H-M	'P1'
_symmetry_Int_Tables_number	1
_symmetry_cell_setting	triclinic
loop_
_symmetry_equiv_pos_as_xyz
  x,y,z
_cell_length_a	14.908571
_cell_length_b	16.959454
_cell_length_c	14.908308
_cell_angle_alpha	86.729532
_cell_angle_beta	90.175053
_cell_angle_gamma	93.280669
loop_
_atom_site_label
_atom_site_type_symbol
_atom_site_fract_x
_atom_site_fract_y
_atom_site_fract_z
Zn1	Zn	1.345273	0.412496	-0.587609
Zn2	Zn	1.353847	0.537520	-0.437258
Zn3	Zn	1.203589	0.397313	-0.428606
Zn4	Zn	1.194875	0.536581	-0.578909
O5	O	1.274396	0.470977	-0.508095
O6	O	1.472236	0.435827	-0.574926
O7	O	1.341150	0.512960	-0.310285
O8	O	1.222443	0.288720	-0.449718
O9	O	1.478535	0.527682	-0.464464
O10	O	1.326538	0.299875	-0.566537
O11	O	1.230757	0.409951	-0.303929
O12	O	1.076608	0.409041	-0.441282
O13	O	1.207590	0.526081	-0.705888
O14	O	1.070205	0.511360	-0.551709
O15	O	1.318087	0.434916	-0.712280
O16	O	1.332700	0.648002	-0.456028
O17	O	1.215904	0.647312	-0.560099
C18	C	1.040781	0.458451	-0.494614
C19	C	0.940839	0.453113	-0.488867
C20	C	0.746426	0.549775	-0.592903
C21	C	0.652521	0.544762	-0.587507
C22	C	0.659121	0.438069	-0.472684
C23	C	0.753026	0.443083	-0.478080
C24	C	0.796675	0.498938	-0.538191
C25	C	0.890582	0.503955	-0.543581
C26	C	0.897181	0.397259	-0.428764
C27	C	0.803275	0.392246	-0.423368
C28	C	1.274310	0.676338	-0.508079
C29	C	1.274353	0.764199	-0.508107
C30	C	1.213626	1.135349	-0.562294
C31	C	1.335335	1.136017	-0.454024
C32	C	1.335309	1.053469	-0.454012
C33	C	1.274439	1.011858	-0.508142
C34	C	1.213596	1.052794	-0.562282
C35	C	1.396145	1.012527	-0.399866
C36	C	1.396120	0.929974	-0.399851
C37	C	1.335254	0.888361	-0.453986
C38	C	1.274409	0.929302	-0.508130
C39	C	1.213540	0.887690	-0.562259
C40	C	1.152698	0.928630	-0.616409
C41	C	1.152730	1.011181	-0.616417
C42	C	1.335223	0.805810	-0.453977
C43	C	1.213510	0.805135	-0.562248
C44	C	1.508923	0.483553	-0.521631
C45	C	1.608865	0.488912	-0.527398
C46	C	1.260910	0.482088	-0.742621
C47	C	1.255164	0.486822	-0.842563
C48	C	1.274492	1.264816	-0.508137
C49	C	1.274495	1.176961	-0.508165
C50	C	1.359423	0.400770	-1.037020
C51	C	1.354026	0.405216	-1.130923
C52	C	1.238969	0.500155	-1.124275
C53	C	1.244366	0.495709	-1.030371
C54	C	1.304596	0.446016	-0.986747
C55	C	1.309997	0.441575	-0.892842
C56	C	1.194936	0.536509	-0.886195
C57	C	1.189539	0.540955	-0.980099
C58	C	1.287881	0.459856	-0.274485
C59	C	1.293802	0.454908	-0.174554
H60	H	0.611611	0.586157	-0.632061
H61	H	1.384887	1.169902	-0.409948
H62	H	0.767723	0.346768	-0.374431
C63	C	0.952456	0.341334	-0.368581
H64	H	1.014635	0.352315	-0.380406
H65	H	0.940522	0.349135	-0.307261
H66	H	0.936323	0.288048	-0.380963
H67	H	1.163946	0.771259	-0.606330
C68	C	1.172720	0.554810	-1.172268
H69	H	1.140833	0.581118	-1.128880
H70	H	1.204992	0.592822	-1.210884
H71	H	1.131449	0.524200	-1.206638
C72	C	0.611097	0.376643	-0.406561
H73	H	0.547974	0.380946	-0.411181
H74	H	0.625736	0.324998	-0.420689
H75	H	0.629943	0.386104	-0.347009
H76	H	0.781966	0.595259	-0.641842
H77	H	1.140500	0.581412	-1.015630
C78	C	1.085747	0.882852	-0.675948
H79	H	1.094449	0.827826	-0.668184
H80	H	1.026106	0.892561	-0.659263
H81	H	1.095396	0.899918	-0.737136
C82	C	1.463050	0.884948	-0.340300
H83	H	1.499309	0.921555	-0.308070
H84	H	1.430936	0.849072	-0.299107
H85	H	1.500211	0.856447	-0.376993
H86	H	1.103195	1.044521	-0.660502
H87	H	1.164092	1.168686	-0.606384
H88	H	1.445695	1.046412	-0.355789
C89	C	1.402140	0.760780	-0.394422
H90	H	1.438396	0.797386	-0.362188
H91	H	1.370019	0.724906	-0.353233
H92	H	1.439305	0.732277	-0.431109
H93	H	1.359040	0.401113	-0.857325
C94	C	1.134614	0.586276	-0.830897
H95	H	1.097976	0.616509	-0.870331
H96	H	1.097559	0.552205	-0.792010
H97	H	1.171101	0.620830	-0.796246
C98	C	0.938596	0.565390	-0.609702
H99	H	0.895216	0.594942	-0.641520
H100	H	0.977193	0.600110	-0.577352
H101	H	0.972987	0.539013	-0.651043
H102	H	1.398670	0.368370	-1.171852
C103	C	1.425669	0.346111	-0.989030
H104	H	1.457547	0.319797	-1.032420
H105	H	1.466935	0.376708	-0.954650
H106	H	1.393386	0.308091	-0.950423
