data_functionalizedCrystal
_audit_creation_method	'MofGen! by Chris Wilmer'
_symmetry_space_group_name_H-M	'P1'
_symmetry_Int_Tables_number	1
_symmetry_cell_setting	triclinic
loop_
_symmetry_equiv_pos_as_xyz
  x,y,z
_cell_length_a	12.759401
_cell_length_b	29.839131
_cell_length_c	12.759393
_cell_angle_alpha	89.954251
_cell_angle_beta	89.982620
_cell_angle_gamma	90.035390
loop_
_atom_site_label
_atom_site_type_symbol
_atom_site_fract_x
_atom_site_fract_y
_atom_site_fract_z
Zn1	Zn	1.606094	-0.178824	-0.593879
Zn2	Zn	1.605929	-0.253963	-0.418157
Zn3	Zn	1.430399	-0.178848	-0.418219
Zn4	Zn	1.430322	-0.253928	-0.593798
O5	O	1.518186	-0.216391	-0.506013
O6	O	1.753093	-0.188796	-0.570577
O7	O	1.582608	-0.244023	-0.271144
O8	O	1.453807	-0.115978	-0.441580
O9	O	1.752972	-0.244000	-0.441475
O10	O	1.582889	-0.115960	-0.570638
O11	O	1.453647	-0.188837	-0.271189
O12	O	1.283368	-0.188803	-0.441502
O13	O	1.453675	-0.243941	-0.740830
O14	O	1.283311	-0.243964	-0.570499
O15	O	1.582814	-0.188762	-0.740890
O16	O	1.582532	-0.316825	-0.441396
O17	O	1.453515	-0.316800	-0.570439
C18	C	1.245219	-0.216382	-0.505999
C19	C	1.128442	-0.216390	-0.506018
C20	C	1.073578	-0.245158	-0.573075
C21	C	0.963854	-0.245164	-0.573087
C22	C	0.963868	-0.187631	-0.438974
C23	C	1.073590	-0.187624	-0.438968
C24	C	1.073569	-0.278375	-0.650502
C25	C	0.963844	-0.278381	-0.650513
C26	C	1.518026	-0.333113	-0.505925
C27	C	1.518053	-0.383048	-0.505922
C28	C	1.585384	-0.692647	-0.573309
C29	C	1.585498	-0.880320	-0.573372
O30	O	1.642589	-0.904547	-0.630601
N31	N	1.518364	-0.903833	-0.506130
C32	C	1.451192	-0.880424	-0.438872
O33	O	1.394086	-0.904729	-0.381687
C34	C	1.451074	-0.692752	-0.438815
C35	C	1.518220	-0.669242	-0.506054
C36	C	1.652524	-0.669137	-0.640543
C37	C	1.652499	-0.622221	-0.640523
C38	C	1.585334	-0.598816	-0.573268
C39	C	1.518194	-0.622326	-0.506033
C40	C	1.383897	-0.669344	-0.371563
C41	C	1.383871	-0.622423	-0.371556
C42	C	1.451017	-0.598913	-0.438795
C43	C	1.451004	-0.552006	-0.438758
N44	N	1.518138	-0.528493	-0.506000
C45	C	1.585303	-0.551898	-0.573255
C46	C	1.451261	-0.978955	-0.438905
C47	C	1.451291	-1.025873	-0.438918
C48	C	1.585596	-1.025765	-0.573420
C49	C	1.585570	-0.978847	-0.573401
C50	C	1.518395	-0.955442	-0.506147
C51	C	1.585246	-0.453372	-0.573206
C52	C	1.585218	-0.406453	-0.573177
C53	C	1.450910	-0.406564	-0.438679
C54	C	1.450941	-0.453480	-0.438704
C55	C	1.518113	-0.476883	-0.505976
O56	O	1.393936	-0.527749	-0.381567
O57	O	1.642385	-0.527585	-0.630448
C58	C	1.585409	-0.739562	-0.573329
C59	C	1.518270	-0.763073	-0.506095
C60	C	1.451105	-0.739667	-0.438840
C61	C	1.518301	-0.809991	-0.506108
C62	C	1.585465	-0.833396	-0.573363
C63	C	1.652599	-0.809883	-0.640605
C64	C	1.652574	-0.762968	-0.640584
C65	C	1.383971	-0.763180	-0.371597
C66	C	1.384003	-0.810096	-0.371623
C67	C	1.451167	-0.833501	-0.438878
C68	C	1.792219	-0.216399	-0.506028
C69	C	1.908996	-0.216403	-0.506034
C70	C	1.518254	-0.216345	-0.780047
C71	C	1.518283	-0.216325	-0.896823
C72	C	1.518375	-0.099212	-0.506125
C73	C	1.518456	-0.049278	-0.506173
C74	C	1.451162	-0.187584	-0.951715
C75	C	1.451194	-0.187571	-1.061439
C76	C	1.585477	-0.245041	-1.061370
C77	C	1.585439	-0.245056	-0.951648
C78	C	1.373637	-0.154403	-0.951756
C79	C	1.373669	-0.154390	-1.061480
C80	C	1.518178	-0.216404	-0.233046
C81	C	1.518353	-0.216297	-0.116270
H82	H	1.639900	-0.387312	-0.627931
H83	H	1.103383	-0.269096	-0.731914
H84	H	1.640081	-0.268466	-0.906959
C85	C	1.413064	-0.109760	-0.905822
N86	N	1.442760	-0.076135	-0.871224
H87	H	1.640154	-0.268432	-1.106022
H88	H	1.296362	-0.166844	-1.095499
H89	H	1.292240	-0.163720	-0.921973
C90	C	1.377027	-0.380810	-0.364707
N91	N	1.321372	-0.361410	-0.308997
H92	H	1.107556	-0.311409	-0.621198
C93	C	1.403216	-0.107382	-1.101767
N94	N	1.425474	-0.071978	-1.132110
H95	H	0.934020	-0.313167	-0.628561
C96	C	1.726426	-0.694875	-0.714527
N97	N	1.782102	-0.714258	-0.770249
C98	C	1.133937	-0.155973	-0.365209
N99	N	1.179390	-0.132132	-0.309650
H100	H	1.707172	-0.603082	-0.695278
C101	C	1.726479	-0.835638	-0.714587
N102	N	1.782118	-0.855039	-0.770312
C103	C	1.659472	-1.051520	-0.647407
N104	N	1.715106	-1.070920	-0.703137
C105	C	1.659431	-0.952990	-0.647373
N106	N	1.715064	-0.933517	-0.703093
C107	C	0.903520	-0.155992	-0.365220
N108	N	0.858067	-0.132161	-0.309666
C109	C	0.917921	-0.261597	-0.755014
N110	N	0.883331	-0.248952	-0.833719
C111	C	1.659145	-0.479109	-0.647202
N112	N	1.714813	-0.498493	-0.702929
C113	C	1.377434	-1.051729	-0.364941
N114	N	1.321797	-1.071202	-0.309224
H115	H	1.396557	-0.959902	-0.384136
H116	H	1.329220	-0.688478	-0.316809
H117	H	1.329326	-0.829234	-0.316858
C118	C	1.309972	-0.596681	-0.297568
N119	N	1.254314	-0.577294	-0.241839
C120	C	1.377083	-0.479342	-0.364733
N121	N	1.321445	-0.498818	-0.309023
H122	H	1.707250	-0.743829	-0.695337
C123	C	1.310068	-0.737441	-0.297619
N124	N	1.254399	-0.718056	-0.241895
