data_functionalizedCrystal
_audit_creation_method	'MofGen! by Chris Wilmer'
_symmetry_space_group_name_H-M	'P1'
_symmetry_Int_Tables_number	1
_symmetry_cell_setting	triclinic
loop_
_symmetry_equiv_pos_as_xyz
  x,y,z
_cell_length_a	21.395362
_cell_length_b	12.827892
_cell_length_c	21.395355
_cell_angle_alpha	89.986862
_cell_angle_beta	89.956060
_cell_angle_gamma	90.031272
loop_
_atom_site_label
_atom_site_type_symbol
_atom_site_fract_x
_atom_site_fract_y
_atom_site_fract_z
Zn1	Zn	0.957926	-0.415711	-0.354609
Zn2	Zn	0.957857	-0.590438	-0.249841
Zn3	Zn	0.853141	-0.415760	-0.249810
Zn4	Zn	0.853138	-0.590459	-0.354546
O5	O	0.905516	-0.503092	-0.302202
O6	O	1.045595	-0.438860	-0.340751
O7	O	0.943938	-0.567278	-0.162159
O8	O	0.867071	-0.269517	-0.263725
O9	O	1.045544	-0.567231	-0.263778
O10	O	0.944056	-0.269482	-0.340721
O11	O	0.867004	-0.438943	-0.162137
O12	O	0.765463	-0.438963	-0.263664
O13	O	0.867067	-0.567267	-0.442232
O14	O	0.765461	-0.567314	-0.340613
O15	O	0.944054	-0.438881	-0.442279
O16	O	0.943935	-0.736677	-0.263717
O17	O	0.866999	-0.736692	-0.340643
C18	C	0.742728	-0.503147	-0.302129
C19	C	0.673087	-0.503196	-0.302113
C20	C	0.905476	-0.774602	-0.302191
C21	C	0.905517	-0.890755	-0.302207
C22	C	0.640389	-0.570117	-0.342120
C23	C	0.574953	-0.570091	-0.342148
C24	C	0.542218	-0.503156	-0.302157
C25	C	0.574924	-0.436222	-0.262147
C26	C	0.640358	-0.436242	-0.262125
C27	C	0.438492	-0.494737	-0.245752
C28	C	0.373059	-0.494724	-0.245773
C29	C	0.340398	-0.503088	-0.302227
C30	C	0.373177	-0.511486	-0.358661
C31	C	0.438611	-0.511506	-0.358638
C32	C	0.471266	-0.503126	-0.302177
C33	C	0.236747	-0.569984	-0.342268
C34	C	0.171311	-0.569951	-0.342297
C35	C	0.171283	-0.436087	-0.262290
C36	C	0.236718	-0.436115	-0.262267
C37	C	0.269446	-0.503069	-0.302255
C38	C	0.943633	-0.942497	-0.264184
C39	C	0.943675	-1.062548	-0.264200
C40	C	1.068939	-0.503037	-0.302275
C41	C	1.138580	-0.503014	-0.302306
C42	C	0.905568	-0.503071	-0.465625
C43	C	0.905590	-0.503062	-0.535266
C44	C	0.905572	-0.230522	-0.302227
C45	C	0.905596	-0.114369	-0.302237
C46	C	0.945675	-0.436208	-0.568005
C47	C	0.945674	-0.436163	-0.633440
C48	C	0.905595	-0.502991	-0.666135
C49	C	0.865501	-0.569849	-0.633389
C50	C	0.865499	-0.569885	-0.567954
C51	C	0.900634	-0.597087	-0.769804
C52	C	0.900641	-0.597053	-0.835237
C53	C	0.905598	-0.502880	-0.867956
C54	C	0.910563	-0.408738	-0.835233
C55	C	0.910560	-0.408774	-0.769799
C56	C	0.905592	-0.502959	-0.737087
C57	C	0.945685	-0.435972	-0.971646
C58	C	0.945680	-0.435925	-1.037083
C59	C	0.865510	-0.569621	-1.037030
C60	C	0.865512	-0.569658	-0.971595
C61	C	0.905603	-0.502835	-0.938907
C62	C	0.905500	-0.503038	-0.139414
C63	C	0.905599	-0.502752	-0.069773
H64	H	0.667032	-0.624635	-0.374682
H65	H	0.896429	-0.673754	-0.743170
C66	C	0.989777	-0.362383	-1.073095
H67	H	1.013655	-0.322601	-1.044253
H68	H	0.965823	-0.316839	-1.098600
H69	H	1.017068	-0.402346	-1.098644
C70	C	0.861509	-1.054277	-0.346219
H71	H	0.837622	-1.102362	-0.370083
H72	H	0.885471	-1.011630	-0.373519
H73	H	0.834226	-1.011770	-0.322185
C74	C	0.989772	-0.362454	-0.935687
H75	H	1.013638	-0.322617	-0.964559
H76	H	1.017065	-0.402425	-0.910182
H77	H	0.965804	-0.316945	-0.910143
H78	H	0.465080	-0.487922	-0.199777
H79	H	0.548326	-0.624586	-0.374729
C80	C	0.987677	-0.882291	-0.220189
H81	H	1.011599	-0.930321	-0.196339
H82	H	0.963686	-0.839775	-0.192878
H83	H	1.014929	-0.839646	-0.244214
H84	H	0.346585	-0.518294	-0.404631
H85	H	0.465297	-0.518341	-0.404589
H86	H	0.872919	-0.935333	-0.334774
C87	C	0.989770	-0.362625	-0.669463
H88	H	0.984025	-0.372171	-0.713114
H89	H	1.031863	-0.377913	-0.658772
H90	H	0.980613	-0.292414	-0.658730
C91	C	0.989768	-0.362698	-0.532051
H92	H	1.013638	-0.322869	-0.560924
H93	H	1.017058	-0.402675	-0.506546
H94	H	0.965806	-0.317180	-0.506508
C95	C	0.272751	-0.643618	-0.386258
H96	H	0.243903	-0.683460	-0.410097
H97	H	0.298230	-0.689102	-0.362237
H98	H	0.298325	-0.603709	-0.413590
C99	C	0.916010	-0.305227	-0.733807
H100	H	0.918959	-0.249131	-0.762660
H101	H	0.952325	-0.306582	-0.708304
H102	H	0.880096	-0.296077	-0.708257
C103	C	0.676330	-0.362631	-0.218114
H104	H	0.719988	-0.372228	-0.223831
H105	H	0.665552	-0.377812	-0.176004
H106	H	0.665650	-0.292433	-0.227366
H107	H	0.144689	-0.624444	-0.374879
H108	H	0.914601	-0.332054	-0.861871
C109	C	0.895188	-0.700601	-0.871228
H110	H	0.895910	-0.687095	-0.914884
H111	H	0.857037	-0.734037	-0.860483
H112	H	0.929266	-0.744550	-0.860528
C113	C	0.135282	-0.362446	-0.218309
H114	H	0.091628	-0.372018	-0.224052
H115	H	0.146052	-0.292263	-0.227552
H116	H	0.145948	-0.377636	-0.176187
C117	C	0.272687	-0.362514	-0.218250
H118	H	0.243822	-0.322652	-0.194433
H119	H	0.298262	-0.317048	-0.242252
H120	H	0.298162	-0.402441	-0.190900
H121	H	0.832870	-0.624022	-1.063650
H122	H	0.548267	-0.381721	-0.229588
C123	C	0.987758	-1.122651	-0.220219
H124	H	0.982005	-1.195453	-0.226001
H125	H	0.978612	-1.104861	-0.178099
H126	H	1.029857	-1.104732	-0.229432
C127	C	0.337005	-0.485561	-0.183697
H128	H	0.293357	-0.486782	-0.191793
H129	H	0.347717	-0.421912	-0.163698
H130	H	0.347692	-0.542376	-0.157305
C131	C	0.821422	-0.643206	-0.935581
H132	H	0.797554	-0.683006	-0.964423
H133	H	0.794131	-0.603254	-0.910032
H134	H	0.845383	-0.688749	-0.910077
H135	H	0.832866	-0.624257	-0.660013
H136	H	0.832854	-0.624324	-0.541299
