data_functionalizedCrystal
_audit_creation_method	'MofGen! by Chris Wilmer'
_symmetry_space_group_name_H-M	'P1'
_symmetry_Int_Tables_number	1
_symmetry_cell_setting	triclinic
loop_
_symmetry_equiv_pos_as_xyz
  x,y,z
_cell_length_a	18.101398
_cell_length_b	18.215405
_cell_length_c	18.215398
_cell_angle_alpha	90.024832
_cell_angle_beta	90.008911
_cell_angle_gamma	90.022336
loop_
_atom_site_label
_atom_site_type_symbol
_atom_site_fract_x
_atom_site_fract_y
_atom_site_fract_z
Zn1	Zn	-1.132142	0.293112	-0.415912
Zn2	Zn	-0.882142	0.543112	-0.165912
Zn3	Zn	-0.632142	0.793112	0.084088
Zn4	Zn	-0.382142	1.043112	0.334088
Zn5	Zn	-1.132045	0.416178	-0.292847
Zn6	Zn	-0.882045	0.666178	-0.042847
Zn7	Zn	-0.632045	0.916178	0.207153
Zn8	Zn	-0.382045	1.166178	0.457153
Zn9	Zn	-1.008300	0.293119	-0.292882
Zn10	Zn	-0.758300	0.543119	-0.042882
Zn11	Zn	-0.508300	0.793119	0.207118
Zn12	Zn	-0.258300	1.043119	0.457118
Zn13	Zn	-1.008259	0.416130	-0.415894
Zn14	Zn	-0.758259	0.666130	-0.165894
Zn15	Zn	-0.508259	0.916130	0.084106
Zn16	Zn	-0.258259	1.166130	0.334106
O17	O	-1.070186	0.354635	-0.354384
O18	O	-0.820186	0.604635	-0.104384
O19	O	-0.570186	0.854635	0.145616
O20	O	-0.320186	1.104635	0.395616
O21	O	-1.235762	0.309454	-0.399579
O22	O	-0.985762	0.559454	-0.149579
O23	O	-0.735762	0.809454	0.100421
O24	O	-0.485762	1.059454	0.350421
O25	O	-1.115606	0.399877	-0.189867
O26	O	-0.865606	0.649877	0.060133
O27	O	-0.615606	0.899877	0.310133
O28	O	-0.365606	1.149877	0.560133
O29	O	-1.024785	0.190134	-0.309224
O30	O	-0.774785	0.440134	-0.059224
O31	O	-0.524785	0.690134	0.190776
O32	O	-0.274785	0.940134	0.440776
O33	O	-1.235690	0.399870	-0.309164
O34	O	-0.985690	0.649870	-0.059164
O35	O	-0.735690	0.899870	0.190836
O36	O	-0.485690	1.149870	0.440836
O37	O	-1.115771	0.190129	-0.399613
O38	O	-0.865771	0.440129	-0.149613
O39	O	-0.615771	0.690129	0.100387
O40	O	-0.365771	0.940129	0.350387
O41	O	-1.024691	0.309466	-0.189893
O42	O	-0.774691	0.559466	0.060107
O43	O	-0.524691	0.809466	0.310107
O44	O	-0.274691	1.059466	0.560107
O45	O	-0.904662	0.309419	-0.309207
O46	O	-0.654662	0.559419	-0.059207
O47	O	-0.404662	0.809419	0.190793
O48	O	-0.154662	1.059419	0.440793
O49	O	-1.024716	0.399789	-0.518881
O50	O	-0.774716	0.649789	-0.268881
O51	O	-0.524716	0.899789	-0.018881
O52	O	-0.274716	1.149789	0.231119
O53	O	-0.904632	0.399795	-0.399584
O54	O	-0.654632	0.649795	-0.149584
O55	O	-0.404632	0.899795	0.100416
O56	O	-0.154632	1.149795	0.350416
O57	O	-1.115732	0.309408	-0.518894
O58	O	-0.865732	0.559408	-0.268894
O59	O	-0.615732	0.809408	-0.018894
O60	O	-0.365732	1.059408	0.231106
O61	O	-1.115566	0.519156	-0.309147
O62	O	-0.865566	0.769156	-0.059147
O63	O	-0.615566	1.019156	0.190853
O64	O	-0.365566	1.269156	0.440853
O65	O	-1.024622	0.519121	-0.399550
O66	O	-0.774622	0.769121	-0.149550
O67	O	-0.524622	1.019121	0.100450
O68	O	-0.274622	1.269121	0.350450
C69	C	-0.877776	0.354603	-0.354398
C70	C	-0.627776	0.604603	-0.104398
C71	C	-0.377776	0.854603	0.145602
C72	C	-0.127776	1.104603	0.395602
C73	C	-0.795462	0.354608	-0.354421
C74	C	-0.545462	0.604608	-0.104421
C75	C	-0.295462	0.854608	0.145579
C76	C	-0.045462	1.104608	0.395579
C77	C	-0.496371	0.354647	-0.354396
C78	C	-0.246371	0.604647	-0.104396
C79	C	0.003629	0.854647	0.145604
C80	C	0.253629	1.104647	0.395604
C81	C	-0.527702	0.411785	-0.410978
C82	C	-0.277702	0.661785	-0.160978
C83	C	-0.027702	0.911785	0.089022
C84	C	0.222298	1.161785	0.339022
C85	C	-0.613320	0.411607	-0.411209
C86	C	-0.363320	0.661607	-0.161209
C87	C	-0.113320	0.911607	0.088791
C88	C	0.136680	1.161607	0.338791
C89	C	-0.644753	0.354628	-0.354409
C90	C	-0.394753	0.604628	-0.104409
C91	C	-0.144753	0.854628	0.145591
C92	C	0.105247	1.104628	0.395591
C93	C	-0.613694	0.277115	-0.375603
C94	C	-0.363694	0.527115	-0.125603
C95	C	-0.113694	0.777115	0.124397
C96	C	0.136306	1.027115	0.374397
C97	C	-0.528049	0.277457	-0.376007
C98	C	-0.278049	0.527457	-0.126007
C99	C	-0.028049	0.777457	0.123993
C100	C	0.221951	1.027457	0.373993
C101	C	-0.527919	0.374340	-0.276484
C102	C	-0.277919	0.624340	-0.026484
C103	C	-0.027919	0.874340	0.223516
C104	C	0.222081	1.124340	0.473516
C105	C	-0.613569	0.376042	-0.276899
C106	C	-0.363569	0.626042	-0.026899
C107	C	-0.113569	0.876042	0.223101
C108	C	0.136431	1.126042	0.473101
C109	C	-0.728613	0.354613	-0.354414
C110	C	-0.478613	0.604613	-0.104414
C111	C	-0.228613	0.854613	0.145586
C112	C	0.021387	1.104613	0.395586
C113	C	-0.412511	0.354657	-0.354392
C114	C	-0.162511	0.604657	-0.104392
C115	C	0.087489	0.854657	0.145608
C116	C	0.337489	1.104657	0.395608
C117	C	-1.070099	0.545841	-0.354359
C118	C	-0.820099	0.795841	-0.104359
C119	C	-0.570099	1.045841	0.145641
C120	C	-0.320099	1.295841	0.395641
C121	C	-1.070130	0.627640	-0.354373
C122	C	-0.820130	0.877640	-0.104373
C123	C	-0.570130	1.127640	0.145627
C124	C	-0.320130	1.377640	0.395627
C125	C	-1.070230	0.354593	-0.546337
C126	C	-0.820230	0.604593	-0.296337
C127	C	-0.570230	0.854593	-0.046337
C128	C	-0.320230	1.104593	0.203663
C129	C	-1.070249	0.354575	-0.628135
C130	C	-0.820249	0.604575	-0.378135
C131	C	-0.570249	0.854575	-0.128135
C132	C	-0.320249	1.104575	0.121865
C133	C	-0.263348	0.354664	-0.354375
C134	C	-0.013348	0.604664	-0.104375
C135	C	0.236652	0.854664	0.145625
C136	C	0.486652	1.104664	0.395625
C137	C	-0.345662	0.354668	-0.354384
C138	C	-0.095662	0.604668	-0.104384
C139	C	0.154338	0.854668	0.145616
C140	C	0.404338	1.104668	0.395616
C141	C	-1.117525	0.892637	-0.401506
C142	C	-0.867525	1.142637	-0.151506
C143	C	-0.617525	1.392637	0.098494
C144	C	-0.367525	1.642637	0.348494
C145	C	-1.117507	0.815779	-0.401496
C146	C	-0.867507	1.065779	-0.151496
C147	C	-0.617507	1.315779	0.098504
C148	C	-0.367507	1.565779	0.348504
C149	C	-1.022846	0.815891	-0.307288
C150	C	-0.772846	1.065891	-0.057288
C151	C	-0.522846	1.315891	0.192712
C152	C	-0.272846	1.565891	0.442712
C153	C	-1.022868	0.892748	-0.307294
C154	C	-0.772868	1.142748	-0.057294
C155	C	-0.522868	1.392748	0.192706
C156	C	-0.272868	1.642748	0.442706
C157	C	-1.070206	0.931120	-0.354408
C158	C	-0.820206	1.181120	-0.104408
C159	C	-0.570206	1.431120	0.145592
C160	C	-0.320206	1.681120	0.395592
C161	C	-1.070167	0.777404	-0.354391
C162	C	-0.820167	1.027404	-0.104391
C163	C	-0.570167	1.277404	0.145609
C164	C	-0.320167	1.527404	0.395609
C165	C	-1.070148	0.694070	-0.354380
C166	C	-0.820148	0.944070	-0.104380
C167	C	-0.570148	1.194070	0.145620
C168	C	-0.320148	1.444070	0.395620
C169	C	-1.070226	1.014459	-0.354419
C170	C	-0.820226	1.264459	-0.104419
C171	C	-0.570226	1.514459	0.145581
C172	C	-0.320226	1.764459	0.395581
C173	C	-1.070270	1.162682	-0.354421
C174	C	-0.820270	1.412682	-0.104421
C175	C	-0.570270	1.662682	0.145579
C176	C	-0.320270	1.912682	0.395579
C177	C	-1.070243	1.080883	-0.354426
C178	C	-0.820243	1.330883	-0.104426
C179	C	-0.570243	1.580883	0.145574
C180	C	-0.320243	1.830883	0.395574
C181	C	-1.117622	0.401561	-0.893184
C182	C	-0.867622	0.651561	-0.643184
C183	C	-0.617622	0.901561	-0.393184
C184	C	-0.367622	1.151561	-0.143184
C185	C	-1.117611	0.401586	-0.816325
C186	C	-0.867611	0.651586	-0.566325
C187	C	-0.617611	0.901586	-0.316325
C188	C	-0.367611	1.151586	-0.066325
C189	C	-1.022932	0.307446	-0.816335
C190	C	-0.772932	0.557446	-0.566335
C191	C	-0.522932	0.807446	-0.316335
C192	C	-0.272932	1.057446	-0.066335
C193	C	-1.022940	0.307425	-0.893193
C194	C	-0.772940	0.557425	-0.643193
C195	C	-0.522940	0.807425	-0.393193
C196	C	-0.272940	1.057425	-0.143193
C197	C	-1.070289	0.354481	-0.931615
C198	C	-0.820289	0.604481	-0.681615
C199	C	-0.570289	0.854481	-0.431615
C200	C	-0.320289	1.104481	-0.181615
C201	C	-1.070270	0.354528	-0.777899
C202	C	-0.820270	0.604528	-0.527899
C203	C	-0.570270	0.854528	-0.277899
C204	C	-0.320270	1.104528	-0.027899
C205	C	-1.070257	0.354555	-0.694565
C206	C	-0.820257	0.604555	-0.444565
C207	C	-0.570257	0.854555	-0.194565
C208	C	-0.320257	1.104555	0.055435
C209	C	-1.070301	0.354455	-1.014954
C210	C	-0.820301	0.604455	-0.764954
C211	C	-0.570301	0.854455	-0.514954
C212	C	-0.320301	1.104455	-0.264954
C213	C	-1.070185	0.354624	-0.163177
C214	C	-0.820185	0.604624	0.086823
C215	C	-0.570185	0.854624	0.336823
C216	C	-0.320185	1.104624	0.586823
C217	C	-1.070310	0.354435	-0.081379
C218	C	-0.820310	0.604435	0.168621
C219	C	-0.570310	0.854435	0.418621
C220	C	-0.320310	1.104435	0.668621
H221	H	-0.507090	0.469452	-0.397844
H222	H	-0.257090	0.719452	-0.147844
H223	H	-0.007090	0.969452	0.102156
H224	H	0.242910	1.219452	0.352156
H225	H	-0.634055	0.233390	-0.335676
H226	H	-0.384055	0.483390	-0.085676
H227	H	-0.134055	0.733390	0.164324
H228	H	0.115945	0.983390	0.414324
Br229	Br	-0.494149	0.304975	-0.206216
Br230	Br	-0.244149	0.554975	0.043784
Br231	Br	0.005851	0.804975	0.293784
Br232	Br	0.255851	1.054975	0.543784
Br233	Br	-0.958692	0.243571	-0.764186
Br234	Br	-0.708692	0.493571	-0.514186
Br235	Br	-0.458692	0.743571	-0.264186
Br236	Br	-0.208692	0.993571	-0.014186
Br237	Br	-0.958683	0.243541	-0.945354
Br238	Br	-0.708683	0.493541	-0.695354
Br239	Br	-0.458683	0.743541	-0.445354
Br240	Br	-0.208683	0.993541	-0.195354
H241	H	-0.984303	0.784642	-0.268930
H242	H	-0.734303	1.034642	-0.018930
H243	H	-0.484303	1.284642	0.231070
H244	H	-0.234303	1.534642	0.481070
Br245	Br	-0.648323	0.507419	-0.389102
Br246	Br	-0.398323	0.757419	-0.139102
Br247	Br	-0.148323	1.007419	0.110898
Br248	Br	0.101677	1.257419	0.360898
Br249	Br	-0.958650	0.944979	-0.243365
Br250	Br	-0.708650	1.194979	0.006635
Br251	Br	-0.458650	1.444979	0.256635
Br252	Br	-0.208650	1.694979	0.506635
H253	H	-1.156176	0.439878	-0.924465
H254	H	-0.906176	0.689878	-0.674465
H255	H	-0.656176	0.939878	-0.424465
H256	H	-0.406176	1.189878	-0.174465
H257	H	-1.156067	0.923877	-0.439872
H258	H	-0.906067	1.173877	-0.189872
H259	H	-0.656067	1.423877	0.060128
H260	H	-0.406067	1.673877	0.310128
H261	H	-0.506191	0.398921	-0.468372
H262	H	-0.256191	0.648921	-0.218372
H263	H	-0.006191	0.898921	0.031628
H264	H	0.243809	1.148921	0.281628
Br265	Br	-0.647498	0.389892	-0.507425
Br266	Br	-0.397498	0.639892	-0.257425
Br267	Br	-0.147498	0.889892	-0.007425
Br268	Br	0.102502	1.139892	0.242575
Br269	Br	-1.181848	0.465486	-0.764171
Br270	Br	-0.931848	0.715486	-0.514171
Br271	Br	-0.681848	0.965486	-0.264171
Br272	Br	-0.431848	1.215486	-0.014171
H273	H	-1.156039	0.784449	-0.439847
H274	H	-0.906039	1.034449	-0.189847
H275	H	-0.656039	1.284449	0.060153
H276	H	-0.406039	1.534449	0.310153
H277	H	-0.508087	0.260753	-0.432964
H278	H	-0.258087	0.510753	-0.182964
H279	H	-0.008087	0.760753	0.067036
H280	H	0.241913	1.010753	0.317036
H281	H	-0.635158	0.260110	-0.431940
H282	H	-0.385158	0.510110	-0.181940
H283	H	-0.135158	0.760110	0.068060
H284	H	0.114842	1.010110	0.318060
Br285	Br	-0.493501	0.204099	-0.310317
Br286	Br	-0.243501	0.454099	-0.060317
Br287	Br	0.006499	0.704099	0.189683
Br288	Br	0.256499	0.954099	0.439683
Br289	Br	-0.491887	0.466928	-0.244374
Br290	Br	-0.241887	0.716928	0.005626
Br291	Br	0.008113	0.966928	0.255626
Br292	Br	0.258113	1.216928	0.505626
H293	H	-0.633877	0.433080	-0.260914
H294	H	-0.383877	0.683080	-0.010914
H295	H	-0.133877	0.933080	0.239086
H296	H	0.116123	1.183080	0.489086
Br297	Br	-0.649226	0.311713	-0.202855
Br298	Br	-0.399226	0.561713	0.047145
Br299	Br	-0.149226	0.811713	0.297145
Br300	Br	0.100774	1.061713	0.547145
