data_functionalizedCrystal
_audit_creation_method	'MofGen! by Chris Wilmer'
_symmetry_space_group_name_H-M	'P1'
_symmetry_Int_Tables_number	1
_symmetry_cell_setting	triclinic
loop_
_symmetry_equiv_pos_as_xyz
  x,y,z
_cell_length_a	35.288095
_cell_length_b	35.277630
_cell_length_c	35.277682
_cell_angle_alpha	89.996960
_cell_angle_beta	59.997048
_cell_angle_gamma	59.999936
loop_
_atom_site_label
_atom_site_type_symbol
_atom_site_fract_x
_atom_site_fract_y
_atom_site_fract_z
O1	O	0.334273	0.260034	-0.011290
O2	O	0.256671	0.204912	0.011213
O3	O	0.334270	0.204911	-0.066411
O4	O	0.256675	0.260035	0.066334
O5	O	0.271242	0.267958	-0.066410
O6	O	0.193643	0.267959	0.011213
O7	O	0.271245	0.323081	-0.011290
Cu8	Cu	0.226689	0.301277	-0.000038
Cu9	Cu	0.301227	0.226717	-0.000038
O10	O	0.193647	0.323082	0.066334
C11	C	0.388005	0.433150	-0.023613
C12	C	0.361404	0.483152	-0.020395
C13	C	0.365412	0.410129	-0.023930
C14	C	0.456628	0.364507	-0.023613
C15	C	0.503398	0.341115	-0.020396
C16	C	0.433931	0.341590	-0.023931
C17	C	0.388002	0.364509	-0.023608
C18	C	0.361397	0.341118	-0.020385
C19	C	0.433934	0.410127	-0.023935
C20	C	0.339903	0.322222	-0.017781
C21	C	0.339911	0.523548	-0.017795
C22	C	0.541183	0.322217	-0.017796
C23	C	0.312937	0.298515	-0.014514
C24	C	0.312949	0.574227	-0.014533
C25	C	0.588587	0.298509	-0.014535
C26	C	0.061861	0.027625	0.034093
C27	C	0.015934	0.050647	0.034413
C28	C	0.061859	0.096269	0.034096
C29	C	0.015933	0.119187	0.034415
C30	C	-0.006761	0.096268	0.034093
C31	C	0.084451	0.050648	0.034416
C32	C	0.185442	-0.137907	0.021664
C33	C	0.210706	-0.184784	0.018150
C34	C	0.189022	-0.208300	0.016384
C35	C	0.216419	-0.259130	0.012565
C36	C	0.142070	-0.184935	0.018137
C37	C	0.116805	-0.138060	0.021657
C38	C	0.138493	-0.114546	0.023421
C39	C	-0.159816	0.138183	0.021660
C40	C	-0.203166	0.159789	0.018145
C41	C	-0.224912	0.204994	0.016380
C42	C	-0.271908	0.228422	0.012562
C43	C	-0.203308	0.228597	0.018136
C44	C	-0.159966	0.206995	0.021659
C45	C	-0.138221	0.161784	0.023418
C46	C	0.185435	0.138187	0.021675
C47	C	0.210702	0.159792	0.018157
C48	C	0.189016	0.204999	0.016394
C49	C	0.216411	0.228426	0.012578
C50	C	0.142067	0.228599	0.018145
C51	C	0.116804	0.206993	0.021661
C52	C	0.138490	0.161787	0.023430
C53	C	0.111096	-0.063718	0.027234
C54	C	0.089258	-0.023203	0.030276
C55	C	0.089254	0.119693	0.030281
C56	C	0.111091	0.138365	0.027242
C57	C	-0.053758	0.119691	0.030275
C58	C	-0.091220	0.138362	0.027233
C59	C	0.466061	0.095976	-0.438568
C60	C	0.511988	0.050355	-0.461486
C61	C	0.466061	0.095976	-0.369925
C62	C	0.511988	0.050356	-0.392947
C63	C	0.534683	0.027333	-0.438567
C64	C	0.443470	0.118894	-0.392948
C65	C	0.342482	0.207164	-0.480484
C66	C	0.317218	0.228922	-0.502090
C67	C	0.338903	0.205466	-0.547297
C68	C	0.311507	0.229052	-0.570722
C69	C	0.385856	0.160253	-0.570898
C70	C	0.411120	0.138501	-0.549295
C71	C	0.389431	0.161959	-0.504086
C72	C	0.687740	-0.138198	-0.549752
C73	C	0.731090	-0.185075	-0.571509
C74	C	0.752835	-0.208592	-0.548055
C75	C	0.799832	-0.259420	-0.571638
C76	C	0.731231	-0.185227	-0.502843
C77	C	0.687889	-0.138350	-0.481090
C78	C	0.666143	-0.114839	-0.504550
C79	C	0.342482	0.207164	-0.204394
C80	C	0.317213	0.228920	-0.157515
C81	C	0.338898	0.205464	-0.133999
C82	C	0.311502	0.229050	-0.083169
C83	C	0.385848	0.160253	-0.157362
C84	C	0.411112	0.138499	-0.204239
C85	C	0.389427	0.161961	-0.227753
C86	C	0.416827	0.138367	-0.480662
C87	C	0.438665	0.119563	-0.461991
C88	C	0.438664	0.119564	-0.319097
C89	C	0.416827	0.138367	-0.278582
C90	C	0.581680	-0.023494	-0.462154
C91	C	0.619143	-0.064009	-0.480957
O92	O	0.712704	0.267954	0.011194
O93	O	0.602495	0.323076	-0.011309
O94	O	0.602485	0.323073	0.066314
O95	O	0.712715	0.267956	-0.066430
O96	O	0.602490	0.260024	0.066309
O97	O	0.602500	0.260027	-0.011315
O98	O	0.712709	0.204905	0.011188
Cu99	Cu	0.657605	0.226709	-0.000064
Cu100	Cu	0.657599	0.301272	-0.000057
O101	O	0.712720	0.204907	-0.066436
O102	O	0.193655	0.724110	0.011196
O103	O	0.271256	0.591365	-0.011308
O104	O	0.193662	0.668977	0.066316
O105	O	0.271249	0.646498	-0.066428
O106	O	0.256693	0.668975	0.066311
O107	O	0.334288	0.591363	-0.011313
O108	O	0.256686	0.724108	0.011191
Cu109	Cu	0.301242	0.657736	-0.000062
Cu110	Cu	0.226700	0.657738	-0.000056
O111	O	0.334280	0.646496	-0.066434
O112	O	0.925433	-0.408922	-0.602616
O113	O	0.815217	-0.276180	-0.547497
O114	O	0.815213	-0.353796	-0.547489
O115	O	0.925436	-0.331306	-0.602623
O116	O	0.815214	-0.353798	-0.610537
O117	O	0.815218	-0.276181	-0.610544
O118	O	0.925434	-0.408924	-0.665663
Cu119	Cu	0.870326	-0.342553	-0.643860
Cu120	Cu	0.870324	-0.342551	-0.569300
O121	O	0.925438	-0.331308	-0.665671
O122	O	0.256671	0.260039	-0.665375
O123	O	0.334269	0.204911	-0.610253
O124	O	0.256669	0.204914	-0.610247
O125	O	0.334271	0.260036	-0.665381
O126	O	0.193643	0.267960	-0.547200
O127	O	0.271243	0.267957	-0.547207
O128	O	0.193644	0.323085	-0.602329
Cu129	Cu	0.226689	0.301277	-0.569011
Cu130	Cu	0.301225	0.226719	-0.643571
O131	O	0.271244	0.323082	-0.602335
C132	C	0.071301	0.433157	0.293191
C133	C	0.024532	0.483159	0.316581
C134	C	0.093995	0.410135	0.316110
C135	C	0.139923	0.364514	0.224549
C136	C	0.166526	0.341122	0.174548
C137	C	0.162514	0.341596	0.247573
C138	C	0.139923	0.364515	0.293193
C139	C	0.166525	0.341124	0.316584
C140	C	0.093996	0.410134	0.247571
C141	C	0.188017	0.322227	0.335482
C142	C	-0.013251	0.523556	0.335478
C143	C	0.188020	0.322225	0.134151
C144	C	0.214980	0.298519	0.359191
C145	C	-0.060653	0.574235	0.359185
C146	C	0.214983	0.298516	0.083472
C147	C	0.387981	0.364490	0.293167
C148	C	0.361378	0.341096	0.316556
C149	C	0.365386	0.410110	0.316088
C150	C	0.456607	0.364495	0.224527
C151	C	0.503381	0.341106	0.174525
C152	C	0.433908	0.410115	0.247552
C153	C	0.387977	0.433135	0.293172
C154	C	0.361371	0.483136	0.316565
C155	C	0.433912	0.341574	0.247547
C156	C	0.339875	0.523533	0.335464
C157	C	0.339885	0.322197	0.335451
C158	C	0.541168	0.322210	0.134129
C159	C	0.312908	0.574212	0.359174
C160	C	0.312922	0.298487	0.359157
C161	C	0.588575	0.298505	0.083449
C162	C	0.139975	0.681233	0.293161
C163	C	0.166582	0.678009	0.316548
C164	C	0.094050	0.681548	0.316081
C165	C	0.139963	0.681248	0.224524
C166	C	0.166559	0.678040	0.174524
C167	C	0.094039	0.681563	0.247548
C168	C	0.071350	0.681232	0.293166
C169	C	0.024584	0.678006	0.316558
C170	C	0.162559	0.681564	0.247543
C171	C	-0.013197	0.675400	0.335457
C172	C	0.188079	0.675403	0.335442
C173	C	0.188046	0.675447	0.134128
C174	C	-0.060596	0.672130	0.359166
C175	C	0.215048	0.672135	0.359146
C176	C	0.215002	0.672195	0.083451
C177	C	1.061913	0.027648	-0.438592
C178	C	1.084504	0.050673	-0.461508
C179	C	0.993282	0.096287	-0.369947
C180	C	1.015977	0.119208	-0.392967
C181	C	1.061909	0.096293	-0.438587
C182	C	1.015982	0.050667	-0.392972
C183	C	1.116252	-0.137886	-0.480517
C184	C	1.141368	-0.184762	-0.502124
C185	C	1.188329	-0.208275	-0.547331
C186	C	1.215569	-0.259105	-0.570759
C187	C	1.210170	-0.184907	-0.570931
C188	C	1.185051	-0.138033	-0.549325
C189	C	1.138090	-0.114522	-0.504116
C190	C	1.185490	0.138219	-0.549766
C191	C	1.210754	0.159827	-0.571521
C192	C	1.189068	0.205032	-0.548065
C193	C	1.216460	0.228462	-0.571646
C194	C	1.142111	0.228631	-0.502852
C195	C	1.116844	0.207027	-0.481101
C196	C	1.138541	0.161816	-0.504563
C197	C	0.840211	0.138193	-0.204418
C198	C	0.796860	0.159794	-0.157539
C199	C	0.775110	0.205001	-0.134021
C200	C	0.728108	0.228423	-0.083192
C201	C	0.796715	0.228603	-0.157382
C202	C	0.840066	0.207000	-0.204259
C203	C	0.861808	0.161795	-0.227775
C204	C	1.110858	-0.063694	-0.480691
C205	C	1.089149	-0.023180	-0.462018
C206	C	0.946280	0.119708	-0.319120
C207	C	0.908814	0.138377	-0.278605
C208	C	1.089304	0.119719	-0.462172
C209	C	1.111142	0.138392	-0.480973
O210	O	0.256638	0.724095	0.389741
O211	O	0.334244	0.591352	0.334610
O212	O	0.256649	0.668970	0.334608
O213	O	0.334233	0.646478	0.389743
O214	O	0.193619	0.668964	0.397651
O215	O	0.271214	0.591347	0.397653
O216	O	0.193607	0.724089	0.452785
Cu217	Cu	0.226655	0.657717	0.430975
Cu218	Cu	0.301196	0.657724	0.356419
O219	O	0.271202	0.646472	0.452787
C220	C	0.534346	0.623684	-0.438579
C221	C	0.511645	0.623371	-0.461493
C222	C	0.465731	0.623671	-0.369936
C223	C	0.443134	0.623358	-0.392954
C224	C	0.465718	0.623689	-0.438572
C225	C	0.511658	0.623353	-0.392961
C226	C	0.687410	0.636110	-0.480504
C227	C	0.730760	0.639627	-0.502111
C228	C	0.752499	0.641401	-0.547316
C229	C	0.799496	0.645222	-0.570743
C230	C	0.730888	0.639655	-0.570914
C231	C	0.687546	0.636133	-0.549309
C232	C	0.665807	0.634361	-0.504102
C233	C	0.411364	0.636151	-0.549743
C234	C	0.386246	0.639673	-0.571496
C235	C	0.339289	0.641436	-0.548040
C236	C	0.312046	0.645261	-0.571618
C237	C	0.317454	0.639672	-0.502829
C238	C	0.342576	0.636142	-0.481080
C239	C	0.389533	0.634385	-0.504542
C240	C	0.411429	0.636058	-0.204413
C241	C	0.386320	0.639568	-0.157535
C242	C	0.339363	0.641329	-0.134017
C243	C	0.312134	0.645136	-0.083189
C244	C	0.317515	0.639585	-0.157377
C245	C	0.342625	0.636078	-0.204252
C246	C	0.389586	0.634310	-0.227768
C247	C	0.618806	0.630546	-0.480676
C248	C	0.581343	0.627503	-0.462004
C249	C	0.438506	0.627476	-0.319110
C250	C	0.416806	0.630507	-0.278596
C251	C	0.438479	0.627514	-0.462155
C252	C	0.416768	0.630562	-0.480954
H253	H	0.452924	0.304108	-0.024442
H254	H	0.075043	0.682081	0.229065
H255	H	-0.220751	0.140568	0.016715
C256	C	0.504381	0.088746	-0.579464
C257	C	0.462724	0.088805	-0.575233
H258	H	0.536239	0.058065	-0.595479
H259	H	0.495080	0.099602	-0.549452
H260	H	0.510083	0.108527	-0.596340
H261	H	0.457020	0.069027	-0.558354
H262	H	0.472028	0.077943	-0.605250
C263	C	0.300372	0.480048	0.382031
C264	C	0.315493	0.435062	0.366689
H265	H	0.269574	0.495450	0.413270
H266	H	0.292367	0.496744	0.362975
H267	H	0.328919	0.478457	0.380260
H268	H	0.286947	0.436652	0.368456
H269	H	0.323496	0.418361	0.385750
H270	H	0.452883	0.304103	0.229051
H271	H	0.075061	0.682059	0.353564
C272	C	0.227587	0.682461	0.252436
C273	C	0.212448	0.682263	0.222586
H274	H	0.258385	0.682894	0.237028
H275	H	0.235600	0.655390	0.261112
H276	H	0.199046	0.709239	0.279408
H277	H	0.240988	0.655483	0.195615
H278	H	0.204438	0.709337	0.213903
H279	H	0.328448	0.428618	-0.024436
C280	C	0.429943	0.480065	-0.024847
C281	C	0.459581	0.435075	-0.024638
H282	H	0.445780	0.495464	-0.025284
H283	H	0.394205	0.496760	0.002224
H284	H	0.429753	0.478482	-0.051627
H285	H	0.459768	0.436658	0.002144
H286	H	0.495329	0.418376	-0.051711
H287	H	0.779001	0.265416	-0.138232
C288	C	0.023544	0.237157	0.065200
C289	C	0.065197	0.232933	0.023589
H290	H	-0.008315	0.253169	0.066388
H291	H	0.017846	0.254024	0.090680
H292	H	0.032851	0.207138	0.066747
H293	H	0.055891	0.262952	0.022044
H294	H	0.070895	0.216066	-0.001898
H295	H	0.530639	0.622858	-0.498976
H296	H	0.996974	0.156694	-0.374482
H297	H	0.074993	0.428618	0.353596
C298	C	0.255818	0.072342	0.021332
C299	C	0.209273	0.088496	0.023616
H300	H	0.270534	0.041664	0.022527
H301	H	0.247265	0.092068	0.046814
H302	H	0.281226	0.072331	-0.006900
H303	H	0.183864	0.088510	0.051850
H304	H	0.217824	0.068764	-0.001868
H305	H	1.121468	0.032187	-0.498989
H306	H	0.075000	0.428619	0.229089
C307	C	0.227541	0.275666	0.252478
C308	C	0.212416	0.291002	0.222618
H309	H	0.258353	0.244435	0.237069
H310	H	0.199007	0.277420	0.279436
H311	H	0.235529	0.294738	0.261173
H312	H	0.204425	0.271932	0.213925
H313	H	0.240957	0.289245	0.195651
H314	H	0.324819	0.226269	-0.223536
H315	H	-0.003060	0.156670	0.034931
H316	H	0.452904	0.428598	0.229068
C317	C	0.372220	0.130335	-0.620551
C318	C	0.409687	0.134473	-0.620586
H319	H	0.386935	0.114416	-0.651227
H320	H	0.340650	0.160371	-0.609588
H321	H	0.363674	0.113404	-0.600819
H322	H	0.418230	0.151407	-0.640316
H323	H	0.441267	0.104432	-0.631555
H324	H	-0.003060	0.032162	0.034931
C325	C	0.149465	-0.019289	0.035330
C326	C	0.134334	0.025701	0.035122
H327	H	0.180256	-0.034686	0.035771
H328	H	0.157485	-0.035985	0.008258
H329	H	0.120916	-0.017706	0.062109
H330	H	0.162881	0.024118	0.008341
H331	H	0.126316	0.042401	0.062196
H332	H	0.996990	0.032179	-0.374492
H333	H	0.779274	0.140572	-0.138521
C334	C	0.836008	0.072341	-0.199861
C335	C	0.864118	0.088499	-0.230265
H336	H	0.850773	0.041661	-0.215819
H337	H	0.799365	0.092062	-0.188692
H338	H	0.838830	0.072334	-0.174456
H339	H	0.861292	0.088510	-0.255669
H340	H	0.900769	0.068773	-0.241441
H341	H	0.278989	0.265733	-0.482870
H342	H	0.248929	0.140573	0.016730
C343	C	1.050764	-0.142450	-0.414677
C344	C	1.064631	-0.112044	-0.430826
H345	H	1.018895	-0.126494	-0.384001
H346	H	1.078969	-0.167850	-0.414664
H347	H	1.045014	-0.153621	-0.434412
H348	H	1.070385	-0.100875	-0.411093
H349	H	1.036420	-0.086635	-0.430836
C350	C	1.154743	-0.247883	-0.471959
C351	C	1.117366	-0.210449	-0.476184
H352	H	1.139926	-0.263742	-0.455946
H353	H	1.163348	-0.236710	-0.455089
H354	H	1.186301	-0.268590	-0.501977
H355	H	1.085809	-0.189740	-0.446166
H356	H	1.108754	-0.221621	-0.493053
H357	H	0.203105	-0.118765	0.023101
H358	H	1.248405	-0.204055	-0.607738
H359	H	1.202836	-0.119010	-0.568543
C360	C	1.255877	0.072381	-0.619833
C361	C	1.209333	0.088529	-0.575557
H362	H	1.270592	0.041706	-0.635754
H363	H	1.281281	0.072368	-0.617018
H364	H	1.247319	0.092116	-0.636758
H365	H	1.217891	0.068796	-0.558631
H366	H	1.183923	0.088539	-0.578370
H367	H	1.248988	0.140609	-0.608331
C368	C	0.276018	-0.179929	0.018505
C369	C	0.262317	-0.210466	0.016216
H370	H	0.307883	-0.195785	0.017308
H371	H	0.247759	-0.154538	0.046733
H372	H	0.281711	-0.168759	-0.006980
H373	H	0.256619	-0.221633	0.041703
H374	H	0.290582	-0.235865	-0.012015
C375	C	1.150358	0.292305	-0.505704
C376	C	1.118267	0.278323	-0.477067
H377	H	1.135639	0.322981	-0.489783
H378	H	1.151620	0.291582	-0.533244
H379	H	1.185577	0.271838	-0.513499
H380	H	1.083049	0.298788	-0.469275
H381	H	1.117000	0.279050	-0.449518
C382	C	1.051531	0.277206	-0.415408
C383	C	1.065234	0.232965	-0.431406
H384	H	1.019671	0.293216	-0.384726
H385	H	1.045831	0.294073	-0.435189
H386	H	1.079795	0.274330	-0.415451
H387	H	1.036971	0.235841	-0.431367
H388	H	1.070931	0.216093	-0.411620
C389	C	0.835563	0.277188	-0.199399
C390	C	0.863808	0.232946	-0.229938
H391	H	0.850219	0.293207	-0.215253
H392	H	0.838393	0.274314	-0.174004
H393	H	0.798922	0.294050	-0.188234
H394	H	0.900449	0.216083	-0.241100
H395	H	0.860984	0.235818	-0.255341
H396	H	0.406175	0.622844	-0.374466
C397	C	0.456231	0.090191	-0.161922
C398	C	0.409689	0.134467	-0.131516
H399	H	0.470946	0.074272	-0.145965
H400	H	0.481636	0.093005	-0.187324
H401	H	0.447671	0.073267	-0.173092
H402	H	0.418249	0.151393	-0.120349
H403	H	0.384278	0.131655	-0.106106
C404	C	0.691970	-0.142754	-0.619821
C405	C	0.663850	-0.112351	-0.575543
H406	H	0.677223	-0.126793	-0.635742
H407	H	0.689139	-0.168151	-0.617008
H408	H	0.728619	-0.153929	-0.636744
H409	H	0.627202	-0.101178	-0.558620
H410	H	0.666676	-0.086945	-0.578354
H411	H	0.124410	0.265411	0.016709
H412	H	0.530658	0.622832	-0.374482
H413	H	0.324818	0.226269	-0.443675
C414	C	0.456857	0.639190	-0.162402
C415	C	0.410337	0.641483	-0.131861
H416	H	0.471687	0.640367	-0.146552
H417	H	0.448241	0.664678	-0.173561
H418	H	0.482198	0.610964	-0.187803
H419	H	0.384994	0.669710	-0.106461
H420	H	0.418952	0.615993	-0.120695
H421	H	0.669716	0.634666	-0.443696
H422	H	0.449669	0.634616	-0.223559
C423	C	0.150325	-0.256861	0.012739
C424	C	0.118235	-0.210783	0.016199
H425	H	0.135609	-0.272818	0.011540
H426	H	0.151582	-0.257396	0.039019
H427	H	0.185545	-0.271622	-0.014694
H428	H	0.083015	-0.196021	0.043634
H429	H	0.116971	-0.210245	-0.010084
C430	C	-0.187679	0.279349	-0.022541
C431	C	-0.227209	0.278288	0.016200
H432	H	-0.202434	0.310027	-0.023736
H433	H	-0.175021	0.258888	-0.049968
H434	H	-0.158776	0.269859	-0.020188
H435	H	-0.256110	0.287776	0.013845
H436	H	-0.239875	0.298757	0.043633
C437	C	0.507969	0.055244	-0.322994
C438	C	0.537615	0.025393	-0.367989
H439	H	0.523788	0.039830	-0.307587
H440	H	0.472226	0.063935	-0.306310
H441	H	0.507796	0.082206	-0.324573
H442	H	0.537785	-0.001568	-0.366410
H443	H	0.573367	0.016695	-0.384677
H444	H	-0.142382	0.226216	0.023091
C445	C	0.726275	0.639252	-0.431932
C446	C	0.754510	0.641549	-0.476172
H447	H	0.740936	0.640441	-0.415918
H448	H	0.729109	0.611025	-0.434809
H449	H	0.689632	0.664737	-0.415063
H450	H	0.791153	0.616062	-0.493043
H451	H	0.751681	0.669780	-0.473297
C452	C	0.797388	0.645067	-0.634582
C453	C	0.754782	0.641606	-0.620600
H454	H	0.812136	0.646275	-0.665256
H455	H	0.824199	0.618784	-0.633865
H456	H	0.784722	0.672496	-0.614109
H457	H	0.767449	0.614176	-0.641071
H458	H	0.727966	0.667892	-0.621320
H459	H	0.279277	0.641022	-0.138225
C460	C	0.051504	-0.142919	0.021284
C461	C	0.065201	-0.112380	0.023579
H462	H	0.019649	-0.127065	0.022466
H463	H	0.045799	-0.154082	0.046769
H464	H	0.079774	-0.168316	-0.006945
H465	H	0.036933	-0.086985	0.051810
H466	H	0.070904	-0.101210	-0.001908
C467	C	-0.164037	0.072341	0.021323
C468	C	-0.135920	0.088492	0.023602
H469	H	-0.149284	0.041665	0.022524
H470	H	-0.161209	0.072328	-0.006905
H471	H	-0.200685	0.092073	0.046809
H472	H	-0.099272	0.068762	-0.001886
H473	H	-0.138743	0.088502	0.051833
C474	C	0.692022	0.636518	-0.619484
C475	C	0.663791	0.634216	-0.575245
H476	H	0.677353	0.635338	-0.635493
H477	H	0.728660	0.611035	-0.636356
H478	H	0.689190	0.664747	-0.616602
H479	H	0.666626	0.605985	-0.578126
H480	H	0.627144	0.659701	-0.558369
H481	H	0.449599	0.634717	-0.568850
C482	C	0.507991	0.055254	-0.527429
C483	C	0.537630	0.025401	-0.512086
H484	H	0.523820	0.039846	-0.558665
H485	H	0.507805	0.082219	-0.525664
H486	H	0.472246	0.063938	-0.508367
H487	H	0.573374	0.016720	-0.531146
H488	H	0.537821	-0.001572	-0.513855
C489	C	0.456759	0.639331	-0.637181
C490	C	0.410242	0.641618	-0.621185
H491	H	0.471570	0.640536	-0.667857
H492	H	0.482110	0.611101	-0.637150
H493	H	0.448140	0.664812	-0.617388
H494	H	0.418861	0.616135	-0.640977
H495	H	0.384886	0.669851	-0.621220
C496	C	0.248399	0.645076	-0.505677
C497	C	0.265841	0.641606	-0.477043
H498	H	0.216532	0.646275	-0.489756
H499	H	0.275393	0.618800	-0.533219
H500	H	0.241434	0.672512	-0.513470
H501	H	0.272809	0.614169	-0.469253
H502	H	0.238841	0.667885	-0.449493
H503	H	0.324796	0.634705	-0.444271
C504	C	0.378409	0.184819	-0.397829
C505	C	0.393553	0.169482	-0.367981
H506	H	0.347587	0.216045	-0.382411
H507	H	0.370433	0.165740	-0.406525
H508	H	0.406934	0.183080	-0.424790
H509	H	0.365030	0.171217	-0.341021
H510	H	0.401527	0.188566	-0.359278
C511	C	0.750644	-0.248189	-0.621239
C512	C	0.754827	-0.210757	-0.621200
H513	H	0.765299	-0.264045	-0.651916
H514	H	0.714003	-0.237014	-0.601450
H515	H	0.769803	-0.268899	-0.610385
H516	H	0.735664	-0.190045	-0.632050
H517	H	0.791474	-0.221932	-0.640996
C518	C	0.272100	0.636436	-0.199391
C519	C	0.318614	0.634153	-0.229929
H520	H	0.257279	0.635245	-0.215245
H521	H	0.246754	0.664659	-0.173994
H522	H	0.280724	0.610946	-0.188229
H523	H	0.309989	0.659645	-0.241089
H524	H	0.343965	0.605927	-0.255335
H525	H	0.278981	0.265729	-0.138494
C526	C	0.504375	0.088747	-0.267356
C527	C	0.462718	0.088805	-0.229916
H528	H	0.536233	0.058066	-0.283207
H529	H	0.510073	0.108528	-0.256188
H530	H	0.495074	0.099600	-0.288069
H531	H	0.472018	0.077955	-0.209201
H532	H	0.457021	0.069016	-0.241083
C533	C	0.797737	-0.257152	-0.505698
C534	C	0.755131	-0.211073	-0.477059
H535	H	0.812488	-0.273108	-0.489777
H536	H	0.824545	-0.257687	-0.533237
H537	H	0.785068	-0.271912	-0.513493
H538	H	0.767801	-0.196312	-0.469266
H539	H	0.728318	-0.210535	-0.449511
H540	H	0.670303	-0.119329	-0.444279
