data_functionalizedCrystal
_audit_creation_method	'MofGen! by Chris Wilmer'
_symmetry_space_group_name_H-M	'P1'
_symmetry_Int_Tables_number	1
_symmetry_cell_setting	triclinic
loop_
_symmetry_equiv_pos_as_xyz
  x,y,z
_cell_length_a	18.215407
_cell_length_b	13.031981
_cell_length_c	18.215399
_cell_angle_alpha	97.211043
_cell_angle_beta	90.017368
_cell_angle_gamma	97.189335
loop_
_atom_site_label
_atom_site_type_symbol
_atom_site_fract_x
_atom_site_fract_y
_atom_site_fract_z
Zn1	Zn	1.087911	-0.416191	0.378823
Zn2	Zn	1.337911	-0.166191	0.628823
Zn3	Zn	1.587911	0.083809	0.878823
Zn4	Zn	1.837911	0.333809	1.128823
Zn5	Zn	1.072212	-0.590982	0.240115
Zn6	Zn	1.322212	-0.340982	0.490115
Zn7	Zn	1.572212	-0.090982	0.740115
Zn8	Zn	1.822212	0.159018	0.990115
Zn9	Zn	0.964841	-0.416216	0.255774
Zn10	Zn	1.214841	-0.166216	0.505774
Zn11	Zn	1.464841	0.083784	0.755774
Zn12	Zn	1.714841	0.333784	1.005774
Zn13	Zn	0.949208	-0.590914	0.363151
Zn14	Zn	1.199208	-0.340914	0.613151
Zn15	Zn	1.449208	-0.090914	0.863151
Zn16	Zn	1.699208	0.159086	1.113151
O17	O	1.018543	-0.503576	0.309466
O18	O	1.268543	-0.253576	0.559466
O19	O	1.518543	-0.003576	0.809466
O20	O	1.768543	0.246424	1.059466
O21	O	1.188811	-0.439395	0.360429
O22	O	1.438811	-0.189395	0.610429
O23	O	1.688811	0.060605	0.860429
O24	O	1.938811	0.310605	1.110429
O25	O	1.057942	-0.567837	0.139204
O26	O	1.307942	-0.317837	0.389204
O27	O	1.557942	-0.067837	0.639204
O28	O	1.807942	0.182163	0.889204
O29	O	0.994279	-0.269950	0.285208
O30	O	1.244279	-0.019950	0.535208
O31	O	1.494279	0.230050	0.785208
O32	O	1.744279	0.480050	1.035208
O33	O	1.177277	-0.567813	0.258521
O34	O	1.427277	-0.317813	0.508521
O35	O	1.677277	-0.067813	0.758521
O36	O	1.927277	0.182187	1.008521
O37	O	1.084698	-0.269931	0.375612
O38	O	1.334698	-0.019931	0.625612
O39	O	1.584698	0.230069	0.875612
O40	O	1.834698	0.480069	1.125612
O41	O	0.979057	-0.439437	0.150709
O42	O	1.229057	-0.189437	0.400709
O43	O	1.479057	0.060563	0.650709
O44	O	1.729057	0.310563	0.900709
O45	O	0.859785	-0.439372	0.270012
O46	O	1.109785	-0.189372	0.520012
O47	O	1.359785	0.060628	0.770012
O48	O	1.609785	0.310628	1.020012
O49	O	0.967635	-0.567698	0.468218
O50	O	1.217635	-0.317698	0.718218
O51	O	1.467635	-0.067698	0.968218
O52	O	1.717635	0.182302	1.218218
O53	O	0.848299	-0.567722	0.348902
O54	O	1.098299	-0.317722	0.598902
O55	O	1.348299	-0.067722	0.848902
O56	O	1.598299	0.182278	1.098902
O57	O	1.069539	-0.439329	0.479732
O58	O	1.319539	-0.189329	0.729732
O59	O	1.569539	0.060671	0.979732
O60	O	1.819539	0.310671	1.229732
O61	O	1.042783	-0.737235	0.243324
O62	O	1.292783	-0.487235	0.493324
O63	O	1.542783	-0.237235	0.743324
O64	O	1.792783	0.012765	0.993324
O65	O	0.952413	-0.737186	0.333718
O66	O	1.202413	-0.487186	0.583718
O67	O	1.452413	-0.237186	0.833718
O68	O	1.702413	0.012814	1.083718
C69	C	0.827340	-0.503543	0.309456
C70	C	1.077340	-0.253543	0.559456
C71	C	1.327340	-0.003543	0.809456
C72	C	1.577340	0.246457	1.059456
C73	C	0.745540	-0.503555	0.309467
C74	C	0.995540	-0.253555	0.559467
C75	C	1.245540	-0.003555	0.809467
C76	C	1.495540	0.246445	1.059467
C77	C	0.563338	-0.436825	0.362592
C78	C	0.813338	-0.186825	0.612592
C79	C	1.063338	0.063175	0.862592
C80	C	1.313338	0.313175	1.112592
C81	C	0.486479	-0.436834	0.362594
C82	C	0.736479	-0.186834	0.612594
C83	C	0.986479	0.063166	0.862594
C84	C	1.236479	0.313166	1.112594
C85	C	0.474498	-0.570355	0.256350
C86	C	0.724498	-0.320355	0.506350
C87	C	0.974498	-0.070355	0.756350
C88	C	1.224498	0.179645	1.006350
C89	C	0.551356	-0.570340	0.256345
C90	C	0.801356	-0.320340	0.506345
C91	C	1.051356	-0.070340	0.756345
C92	C	1.301356	0.179660	1.006345
C93	C	0.595774	-0.503577	0.309471
C94	C	0.845774	-0.253577	0.559471
C95	C	1.095774	-0.003577	0.809471
C96	C	1.345774	0.246423	1.059471
C97	C	0.442056	-0.503601	0.309477
C98	C	0.692056	-0.253601	0.559477
C99	C	0.942056	-0.003601	0.809477
C100	C	1.192056	0.246399	1.059477
C101	C	0.358722	-0.503611	0.309478
C102	C	0.608722	-0.253611	0.559478
C103	C	0.858722	-0.003611	0.809478
C104	C	1.108722	0.246389	1.059478
C105	C	0.679114	-0.503565	0.309469
C106	C	0.929114	-0.253565	0.559469
C107	C	1.179114	-0.003565	0.809469
C108	C	1.429114	0.246435	1.059469
C109	C	0.994218	-0.775135	0.285138
C110	C	1.244218	-0.525135	0.535138
C111	C	1.494218	-0.275135	0.785138
C112	C	1.744218	-0.025135	1.035138
C113	C	0.983879	-0.891309	0.274755
C114	C	1.233879	-0.641309	0.524755
C115	C	1.483879	-0.391309	0.774755
C116	C	1.733879	-0.141309	1.024755
C117	C	1.023978	-0.943011	0.314900
C118	C	1.273978	-0.693011	0.564900
C119	C	1.523978	-0.443011	0.814900
C120	C	1.773978	-0.193011	1.064900
C121	C	1.013293	-1.063083	0.304169
C122	C	1.263293	-0.813083	0.554169
C123	C	1.513293	-0.563083	0.804169
C124	C	1.763293	-0.313083	1.054169
C125	C	1.210493	-0.503609	0.309476
C126	C	1.460493	-0.253609	0.559476
C127	C	1.710493	-0.003609	0.809476
C128	C	1.960493	0.246391	1.059476
C129	C	1.292291	-0.503623	0.309481
C130	C	1.542291	-0.253623	0.559481
C131	C	1.792291	-0.003623	0.809481
C132	C	2.042291	0.246377	1.059481
C133	C	1.018594	-0.503503	0.501425
C134	C	1.268594	-0.253503	0.751425
C135	C	1.518594	-0.003503	1.001425
C136	C	1.768594	0.246497	1.251425
C137	C	1.018616	-0.503473	0.583227
C138	C	1.268616	-0.253473	0.833227
C139	C	1.518616	-0.003473	1.083227
C140	C	1.768616	0.246527	1.333227
C141	C	1.042983	-0.230956	0.333905
C142	C	1.292983	0.019044	0.583905
C143	C	1.542983	0.269044	0.833905
C144	C	1.792983	0.519044	1.083905
C145	C	1.053398	-0.114782	0.344320
C146	C	1.303398	0.135218	0.594320
C147	C	1.553398	0.385218	0.844320
C148	C	1.803398	0.635218	1.094320
C149	C	1.018541	-0.503572	0.118260
C150	C	1.268541	-0.253572	0.368260
C151	C	1.518541	-0.003572	0.618260
C152	C	1.768541	0.246428	0.868260
C153	C	1.018688	-0.503308	0.036485
C154	C	1.268688	-0.253308	0.286485
C155	C	1.518688	-0.003308	0.536485
C156	C	1.768688	0.246692	0.786485
C157	C	1.071700	-0.436569	0.777423
C158	C	1.321700	-0.186569	1.027423
C159	C	1.571700	0.063431	1.277423
C160	C	1.821700	0.313431	1.527423
C161	C	1.071712	-0.436538	0.854285
C162	C	1.321712	-0.186538	1.104285
C163	C	1.571712	0.063462	1.354285
C164	C	1.821712	0.313462	1.604285
C165	C	0.965599	-0.570215	0.842283
C166	C	1.215599	-0.320215	1.092283
C167	C	1.465599	-0.070215	1.342283
C168	C	1.715599	0.179785	1.592283
C169	C	0.965585	-0.570240	0.765424
C170	C	1.215585	-0.320240	1.015424
C171	C	1.465585	-0.070240	1.265424
C172	C	1.715585	0.179760	1.515424
C173	C	1.018639	-0.503418	0.732995
C174	C	1.268639	-0.253418	0.982995
C175	C	1.518639	-0.003418	1.232995
C176	C	1.768639	0.246582	1.482995
C177	C	1.018665	-0.503363	0.886717
C178	C	1.268665	-0.253363	1.136717
C179	C	1.518665	-0.003363	1.386717
C180	C	1.768665	0.246637	1.636717
C181	C	1.018677	-0.503331	0.970053
C182	C	1.268677	-0.253331	1.220053
C183	C	1.518677	-0.003331	1.470053
C184	C	1.768677	0.246669	1.720053
C185	C	1.018627	-0.503449	0.649654
C186	C	1.268627	-0.253449	0.899654
C187	C	1.518627	-0.003449	1.149654
C188	C	1.768627	0.246551	1.399654
H189	H	0.438323	-0.624713	0.213097
H190	H	0.688323	-0.374713	0.463097
H191	H	0.938323	-0.124713	0.713097
H192	H	1.188323	0.125287	0.963097
F193	F	1.128191	-0.365395	0.901564
F194	F	1.378191	-0.115395	1.151564
F195	F	1.628191	0.134605	1.401564
F196	F	1.878191	0.384605	1.651564
F197	F	0.909140	-0.641331	0.876802
F198	F	1.159140	-0.391331	1.126802
F199	F	1.409140	-0.141331	1.376802
F200	F	1.659140	0.108669	1.626802
H201	H	0.922371	-0.624675	0.729249
H202	H	1.172371	-0.374675	0.979249
H203	H	1.422371	-0.124675	1.229249
H204	H	1.672371	0.125325	1.479249
H205	H	0.599502	-0.382459	0.405848
H206	H	0.849502	-0.132459	0.655848
H207	H	1.099502	0.117541	0.905848
H208	H	1.349502	0.367541	1.155848
F209	F	0.451961	-0.365786	0.419133
F210	F	0.701961	-0.115786	0.669133
F211	F	0.951961	0.134214	0.919133
F212	F	1.201961	0.384214	1.169133
H213	H	1.066216	-0.898384	0.357216
H214	H	1.316216	-0.648384	0.607216
H215	H	1.566216	-0.398384	0.857216
H216	H	1.816216	-0.148384	1.107216
H217	H	1.095639	-1.070158	0.386639
H218	H	1.345639	-0.820158	0.636639
H219	H	1.595639	-0.570158	0.886639
H220	H	1.845639	-0.320158	1.136639
H221	H	0.577766	-0.624698	0.213083
H222	H	0.827766	-0.374698	0.463083
H223	H	1.077766	-0.124698	0.713083
H224	H	1.327766	0.125302	0.963083
H225	H	1.114899	-0.382155	0.751023
H226	H	1.364899	-0.132155	1.001023
H227	H	1.614899	0.117845	1.251023
H228	H	1.864899	0.367845	1.501023
F229	F	0.928663	-0.949637	0.219450
F230	F	1.178663	-0.699637	0.469450
F231	F	1.428663	-0.449637	0.719450
F232	F	1.678663	-0.199637	0.969450
H233	H	0.971047	-1.107708	0.261856
H234	H	1.221047	-0.857708	0.511856
H235	H	1.471047	-0.607708	0.761856
H236	H	1.721047	-0.357708	1.011856
