data_functionalizedCrystal
_audit_creation_method	'MofGen! by Chris Wilmer'
_symmetry_space_group_name_H-M	'P1'
_symmetry_Int_Tables_number	1
_symmetry_cell_setting	triclinic
loop_
_symmetry_equiv_pos_as_xyz
  x,y,z
_cell_length_a	10.967926
_cell_length_b	10.540510
_cell_length_c	9.016244
_cell_angle_alpha	90.004306
_cell_angle_beta	77.873117
_cell_angle_gamma	84.613823
loop_
_atom_site_label
_atom_site_type_symbol
_atom_site_fract_x
_atom_site_fract_y
_atom_site_fract_z
O1	O	1.657233	0.178025	-0.300257
O2	O	1.294092	0.195075	-0.207436
O3	O	1.483967	0.001837	-0.255970
O4	O	1.467359	0.371263	-0.251723
O5	O	1.483959	0.001822	-0.502648
O6	O	1.294084	0.195060	-0.454115
O7	O	1.657225	0.178011	-0.546936
Cu8	Cu	1.475654	0.186534	-0.523049
Cu9	Cu	1.475664	0.186551	-0.231323
O10	O	1.467351	0.371249	-0.498402
C11	C	1.247589	0.193828	-0.318890
C12	C	1.109035	0.190120	-0.283474
C13	C	1.047259	0.188459	-0.395472
C14	C	0.904056	0.184626	-0.358871
C15	C	1.482725	-0.045473	-0.378990
C16	C	1.479023	-0.186421	-0.378034
C17	C	1.610928	-0.403947	-0.412315
C18	C	1.614878	-0.257354	-0.412761
C19	C	1.409482	-0.231135	-0.219396
C20	C	1.406495	-0.377894	-0.218522
C21	C	1.403656	-0.377718	-0.498318
C22	C	1.410100	-0.231380	-0.501820
C23	C	1.703729	0.179258	-0.435479
C24	C	1.842283	0.182966	-0.470884
C25	C	1.468592	0.418559	-0.375379
C26	C	1.472295	0.559507	-0.376325
N27	N	1.475656	0.186521	-0.728236
C28	C	1.577606	0.083508	-0.989281
C29	C	1.577331	0.083115	-0.817320
C30	C	1.345208	0.156459	-0.757318
C31	C	1.345814	0.155737	-0.929417
C32	C	1.503012	0.319957	-0.969731
C33	C	1.505956	0.319083	-0.798528
N34	N	1.475671	0.186554	-0.026139
H35	H	1.055907	0.188701	-0.160493
H36	H	0.895405	0.184377	-0.593875
C37	C	1.708992	0.107542	-1.078704
H38	H	1.702862	0.180630	-1.139328
H39	H	1.761380	0.121261	-1.009816
H40	H	1.743784	0.035564	-1.142170
C41	C	1.478441	-0.192763	-0.660071
H42	H	1.548681	-0.149414	-0.650758
H43	H	1.505972	-0.266910	-0.722425
H44	H	1.422830	-0.138108	-0.704648
H45	H	1.309468	-0.183692	-0.188593
H46	H	1.601925	0.341869	-0.782258
H47	H	0.850933	0.183208	-0.235881
H48	H	1.267477	0.229464	-0.696581
H49	H	1.669288	-0.228044	-0.527643
H50	H	1.454025	-0.418129	-0.125373
C51	C	1.628853	0.358618	-1.060456
H52	H	1.665900	0.293752	-1.133589
H53	H	1.614957	0.436301	-1.110450
H54	H	1.683353	0.369620	-0.993296
H55	H	1.446826	-0.419929	-0.616128
H56	H	1.663852	-0.445936	-0.526864
C57	C	1.688822	-0.218996	-0.295026
H58	H	1.691505	-0.129170	-0.294911
H59	H	1.648854	-0.244496	-0.197180
H60	H	1.771745	-0.259647	-0.320375
C61	C	1.682023	-0.462732	-0.294786
H62	H	1.627585	-0.509447	-0.223875
H63	H	1.751730	-0.518242	-0.344995
H64	H	1.710595	-0.396762	-0.242954
H65	H	1.320730	0.060233	-0.708013
C66	C	1.269236	-0.408894	-0.174758
H67	H	1.215547	-0.331821	-0.157581
H68	H	1.249841	-0.456583	-0.254735
H69	H	1.257640	-0.457383	-0.084919
C70	C	1.239956	0.252920	-0.958591
H71	H	1.196788	0.292685	-0.865312
H72	H	1.274551	0.315710	-1.026069
H73	H	1.183134	0.210224	-1.002348
H74	H	1.457782	-0.200298	-0.126911
H75	H	1.310915	-0.182261	-0.484973
H76	H	1.100388	0.189867	-0.518454
H77	H	1.301655	-0.399813	-0.473195
H78	H	1.436610	0.399441	-0.737850
C79	C	1.708276	0.107508	-0.793763
H80	H	1.762121	0.117743	-0.889446
H81	H	1.702081	0.182664	-0.733431
H82	H	1.741426	0.037140	-0.743905
C83	C	1.402619	0.423571	-0.999039
H84	H	1.344318	0.385786	-1.045426
H85	H	1.360057	0.463276	-0.905487
H86	H	1.441549	0.485559	-1.064320
H87	H	1.560266	-0.014905	-1.028076
C88	C	1.553553	-0.050589	-0.755683
H89	H	1.544011	-0.104874	-0.835761
H90	H	1.622538	-0.084480	-0.714807
H91	H	1.479413	-0.044903	-0.678467
C92	C	1.313511	0.024262	-0.975368
H93	H	1.300149	-0.028208	-0.888890
H94	H	1.239652	0.034324	-1.015180
H95	H	1.380823	-0.014456	-1.050367
