data_functionalizedCrystal
_audit_creation_method	'MofGen! by Chris Wilmer'
_symmetry_space_group_name_H-M	'P1'
_symmetry_Int_Tables_number	1
_symmetry_cell_setting	triclinic
loop_
_symmetry_equiv_pos_as_xyz
  x,y,z
_cell_length_a	16.109301
_cell_length_b	15.944493
_cell_length_c	15.186229
_cell_angle_alpha	90.006101
_cell_angle_beta	90.005196
_cell_angle_gamma	83.468262
loop_
_atom_site_label
_atom_site_type_symbol
_atom_site_fract_x
_atom_site_fract_y
_atom_site_fract_z
O1	O	1.103148	0.107979	0.073161
O2	O	1.603148	0.607979	0.573161
O3	O	0.861087	0.121415	0.073174
O4	O	1.361087	0.621415	0.573174
O5	O	0.988753	-0.007583	0.073175
O6	O	1.488753	0.492417	0.573175
O7	O	0.975482	0.236977	0.073161
O8	O	1.475482	0.736977	0.573161
O9	O	0.988735	-0.007604	-0.073283
O10	O	1.488735	0.492396	0.426717
O11	O	0.861070	0.121394	-0.073283
O12	O	1.361070	0.621394	0.426717
O13	O	1.103130	0.107958	-0.073296
O14	O	1.603130	0.607958	0.426704
Zn15	Zn	0.982097	0.114673	-0.096543
Zn16	Zn	1.482097	0.614673	0.403457
Zn17	Zn	0.982120	0.114700	0.096421
Zn18	Zn	1.482120	0.614700	0.596421
O19	O	0.975465	0.236957	-0.073297
O20	O	1.475465	0.736957	0.426703
C21	C	0.830104	0.120861	-0.000053
C22	C	1.330104	0.620861	0.499947
C23	C	0.737808	0.119229	-0.000048
C24	C	1.237808	0.619229	0.499952
C25	C	0.515544	0.191980	-0.000062
C26	C	1.015544	0.691980	0.499938
C27	C	0.428824	0.190440	-0.000068
C28	C	0.928824	0.690440	0.499932
C29	C	0.448680	0.037388	-0.000055
C30	C	0.948680	0.537388	0.499945
C31	C	0.535399	0.038928	-0.000056
C32	C	1.035399	0.538928	0.499944
C33	C	0.568829	0.116227	-0.000055
C34	C	1.068829	0.616227	0.499945
C35	C	0.395389	0.113146	-0.000060
C36	C	0.895389	0.613146	0.499940
C37	C	0.301363	0.111476	-0.000066
C38	C	0.801363	0.611476	0.499934
C39	C	0.662861	0.117897	-0.000050
C40	C	1.162861	0.617897	0.499950
C41	C	0.988202	-0.038888	-0.000050
C42	C	1.488202	0.461112	0.499950
C43	C	0.986576	-0.132136	-0.000039
C44	C	1.486576	0.367864	0.499961
C45	C	1.061722	-0.367921	-0.000060
C46	C	1.561722	0.132079	0.499940
C47	C	1.021207	-0.418466	0.072153
C48	C	1.521207	0.081534	0.572153
C49	C	0.983563	-0.302856	-0.000050
C50	C	1.483563	0.197144	0.499950
C51	C	1.021172	-0.418462	-0.072242
C52	C	1.521172	0.081538	0.427758
C53	C	0.980658	-0.467765	-0.000064
C54	C	1.480658	0.032235	0.499936
C55	C	0.943068	-0.352173	0.072223
C56	C	1.443068	0.147827	0.572223
C57	C	0.943044	-0.352166	-0.072238
C58	C	1.443044	0.147834	0.427762
C59	C	0.902472	-0.402677	-0.000007
C60	C	1.402472	0.097323	0.499993
C61	C	0.985238	-0.207857	-0.000041
C62	C	1.485238	0.292143	0.499959
C63	C	0.978976	-0.562762	-0.000066
C64	C	1.478976	-0.062762	0.499934
C65	C	1.134114	0.108513	-0.000067
C66	C	1.634114	0.608513	0.499933
C67	C	1.226410	0.110144	-0.000067
C68	C	1.726410	0.610144	0.499933
C69	C	0.976016	0.268262	-0.000070
C70	C	1.476016	0.768262	0.499930
C71	C	0.977642	0.361510	-0.000075
C72	C	1.477642	0.861510	0.499925
N73	N	0.982088	0.114654	-0.228236
N74	N	1.482088	0.614654	0.271764
C75	C	0.931701	0.063730	-0.546182
C76	C	1.431701	0.563730	-0.046182
C77	C	0.931694	0.063718	-0.453992
C78	C	1.431694	0.563718	0.046008
C79	C	1.032529	0.165638	-0.453947
C80	C	1.532529	0.665638	0.046053
C81	C	1.032540	0.165645	-0.546135
C82	C	1.532540	0.665645	-0.046135
C83	C	0.982121	0.114693	-0.592250
C84	C	1.482121	0.614693	-0.092250
C85	C	0.982103	0.114674	-0.407872
C86	C	1.482103	0.614674	0.092128
C87	C	0.982096	0.114661	-0.307916
C88	C	1.482096	0.614661	0.192084
C89	C	0.982129	0.114704	-0.692212
C90	C	1.482129	0.614704	-0.192212
N91	N	0.982136	0.114713	0.228113
N92	N	1.482136	0.614713	0.728113
H93	H	0.542760	0.254921	-0.000068
H94	H	1.042760	0.754921	0.499932
Cl95	Cl	1.072178	-0.463163	0.166405
Cl96	Cl	1.572178	0.036837	0.666405
Cl97	Cl	1.165664	-0.343822	0.000043
Cl98	Cl	1.665664	0.156178	0.500043
Cl99	Cl	1.095935	0.229714	-0.604053
Cl100	Cl	1.595935	0.729714	-0.104053
H101	H	0.910058	-0.323203	-0.133288
H102	H	1.410058	0.176797	0.366712
H103	H	1.073577	0.207123	-0.416388
H104	H	1.573577	0.707123	0.083612
H105	H	0.385443	0.252126	-0.000075
H106	H	0.885443	0.752126	0.499925
H107	H	0.421451	-0.025546	-0.000061
H108	H	0.921451	0.474454	0.499939
Cl109	Cl	0.868321	-0.000328	-0.604152
Cl110	Cl	1.368321	0.499672	-0.104152
Cl111	Cl	0.892150	-0.307653	0.166584
Cl112	Cl	1.392150	0.192347	0.666584
H113	H	0.578786	-0.022763	-0.000053
H114	H	1.078786	0.477237	0.499947
Cl115	Cl	0.868301	-0.000347	-0.396082
Cl116	Cl	1.368301	0.499653	0.103918
Cl117	Cl	1.072145	-0.463158	-0.166495
Cl118	Cl	1.572145	0.036842	0.333505
H119	H	0.835095	-0.418121	0.000036
H120	H	1.335095	0.081879	0.500036
