data_functionalizedCrystal
_audit_creation_method	'MofGen! by Chris Wilmer'
_symmetry_space_group_name_H-M	'P1'
_symmetry_Int_Tables_number	1
_symmetry_cell_setting	triclinic
loop_
_symmetry_equiv_pos_as_xyz
  x,y,z
_cell_length_a	14.519731
_cell_length_b	14.519709
_cell_length_c	13.330367
_cell_angle_alpha	89.994415
_cell_angle_beta	89.992354
_cell_angle_gamma	83.684499
loop_
_atom_site_label
_atom_site_type_symbol
_atom_site_fract_x
_atom_site_fract_y
_atom_site_fract_z
O1	O	1.223860	0.120984	-0.083428
O2	O	1.557193	0.454317	0.249905
O3	O	1.890526	0.787651	0.583239
O4	O	0.955385	0.135200	-0.083430
O5	O	1.288719	0.468534	0.249904
O6	O	1.622052	0.801867	0.583237
O7	O	1.096741	-0.006146	-0.083420
O8	O	1.430074	0.327188	0.249914
O9	O	1.763407	0.660521	0.583247
O10	O	1.082504	0.262330	-0.083438
O11	O	1.415838	0.595663	0.249895
O12	O	1.749171	0.928997	0.583229
O13	O	1.096720	-0.006149	0.083427
O14	O	1.430053	0.327184	0.416761
O15	O	1.763387	0.660518	0.750094
O16	O	0.955365	0.135197	0.083417
O17	O	1.288698	0.468530	0.416751
O18	O	1.622031	0.801864	0.750084
O19	O	1.223839	0.120981	0.083419
O20	O	1.557172	0.454314	0.416753
O21	O	1.890506	0.787648	0.750086
Cu22	Cu	1.089600	0.128089	0.098653
Cu23	Cu	1.422933	0.461422	0.431986
Cu24	Cu	1.756267	0.794755	0.765320
Cu25	Cu	1.089624	0.128092	-0.098663
Cu26	Cu	1.422958	0.461426	0.234670
Cu27	Cu	1.756291	0.794759	0.568003
O28	O	1.082484	0.262327	0.083409
O29	O	1.415817	0.595660	0.416743
O30	O	1.749150	0.928994	0.750076
C31	C	0.921016	0.134532	-0.000006
C32	C	1.254349	0.467866	0.333327
C33	C	1.587682	0.801199	0.666660
C34	C	0.818635	0.132536	-0.000007
C35	C	1.151969	0.465870	0.333327
C36	C	1.485302	0.799203	0.666660
C37	C	0.735491	0.130915	-0.000011
C38	C	1.068825	0.464248	0.333323
C39	C	1.402158	0.797581	0.666656
C40	C	0.631182	0.128888	-0.000011
C41	C	0.964516	0.462221	0.333323
C42	C	1.297849	0.795555	0.666656
C43	C	0.548043	0.127280	-0.000011
C44	C	0.881377	0.460613	0.333323
C45	C	1.214710	0.793946	0.666656
C46	C	0.443728	0.125253	-0.000013
C47	C	0.777061	0.458586	0.333321
C48	C	1.110395	0.791920	0.666654
C49	C	1.096067	-0.040507	0.000004
C50	C	1.429400	0.292826	0.333337
C51	C	1.762734	0.626160	0.666671
C52	C	1.094079	-0.142889	0.000005
C53	C	1.427412	0.190445	0.333338
C54	C	1.760745	0.523778	0.666671
C55	C	1.086759	-0.517785	-0.000022
C56	C	1.420093	-0.184452	0.333312
C57	C	1.753426	0.148882	0.666645
C58	C	1.088792	-0.413477	-0.000014
C59	C	1.422125	-0.080143	0.333319
C60	C	1.755459	0.253190	0.666653
C61	C	1.090419	-0.330340	-0.000008
C62	C	1.423752	0.002993	0.333326
C63	C	1.757085	0.336327	0.666659
C64	C	1.092452	-0.226025	-0.000002
C65	C	1.425785	0.107308	0.333332
C66	C	1.759118	0.440641	0.666665
C67	C	1.258209	0.121649	-0.000006
C68	C	1.591542	0.454982	0.333327
C69	C	1.924875	0.788315	0.666660
C70	C	1.360589	0.123645	-0.000013
C71	C	1.693922	0.456978	0.333321
C72	C	2.027256	0.790311	0.666654
C73	C	1.083157	0.296688	-0.000017
C74	C	1.416491	0.630022	0.333317
C75	C	1.749824	0.963355	0.666650
C76	C	1.085146	0.399070	-0.000024
C77	C	1.418479	0.732403	0.333310
C78	C	1.751812	1.065736	0.666643
N79	N	1.089590	0.128085	0.237434
N80	N	1.422923	0.461419	0.570768
N81	N	1.756256	0.794752	0.904101
N82	N	1.089642	0.128088	-0.237445
N83	N	1.422975	0.461422	0.095889
N84	N	1.756309	0.794755	0.429222
C85	C	1.027029	0.190656	0.710053
C86	C	1.360363	0.523989	1.043386
C87	C	1.693696	0.857322	1.376719
C88	C	1.152244	0.065522	0.710030
C89	C	1.485577	0.398855	1.043363
C90	C	1.818911	0.732189	1.376696
C91	C	1.152234	0.065519	0.605011
C92	C	1.485567	0.398852	0.938345
C93	C	1.818900	0.732186	1.271678
C94	C	1.089621	0.128086	0.552509
C95	C	1.422954	0.461420	0.885842
C96	C	1.756288	0.794753	1.219176
C97	C	1.027019	0.190657	0.605025
C98	C	1.360352	0.523990	0.938358
C99	C	1.693686	0.857323	1.271691
C100	C	1.214841	0.002956	0.552488
C101	C	1.548174	0.336290	0.885821
C102	C	1.881507	0.669623	1.219154
C103	C	1.214834	0.002952	0.447463
C104	C	1.548167	0.336285	0.780796
C105	C	1.881500	0.669618	1.114129
C106	C	1.152216	0.065515	0.394958
C107	C	1.485549	0.398849	0.728292
C108	C	1.818883	0.732182	1.061625
C109	C	1.089611	0.128087	0.447481
C110	C	1.422944	0.461421	0.780814
C111	C	1.756277	0.794754	1.114147
C112	C	1.026998	0.190655	0.394978
C113	C	1.360331	0.523988	0.728312
C114	C	1.693665	0.857321	1.061645
C115	C	0.964387	0.253223	0.447499
C116	C	1.297721	0.586557	0.780832
C117	C	1.631054	0.919890	1.114165
C118	C	0.964401	0.253220	0.552520
C119	C	1.297735	0.586554	0.885854
C120	C	1.631068	0.919887	1.219187
C121	C	1.152202	0.065518	0.289937
C122	C	1.485536	0.398851	0.623270
C123	C	1.818869	0.732185	0.956603
C124	C	1.026988	0.190656	0.289950
C125	C	1.360321	0.523989	0.623284
C126	C	1.693654	0.857322	0.956617
H127	H	0.975997	0.241603	0.247209
H128	H	1.309331	0.574936	0.580542
H129	H	1.642664	0.908269	0.913876
O130	O	0.959514	0.258146	0.766697
O131	O	1.292847	0.591480	1.100030
O132	O	1.626180	0.924813	1.433363
H133	H	0.915976	0.301651	0.712541
H134	H	1.249309	0.634984	1.045874
H135	H	1.582643	0.968318	1.379208
O136	O	0.896855	0.320711	0.390874
O137	O	1.230188	0.654044	0.724208
O138	O	1.563521	0.987377	1.057541
H139	H	0.824951	0.308792	0.411054
H140	H	1.158284	0.642125	0.744388
H141	H	1.491617	0.975459	1.077721
O142	O	0.896889	0.320712	0.609167
O143	O	1.230222	0.654045	0.942500
O144	O	1.563555	0.987379	1.275834
H145	H	0.852017	0.281792	0.657045
H146	H	1.185351	0.615126	0.990378
H147	H	1.518684	0.948459	1.323712
H148	H	1.203226	0.014586	0.752780
H149	H	1.536559	0.347919	1.086114
H150	H	1.869893	0.681252	1.419447
O151	O	1.282372	-0.064523	0.609109
O152	O	1.615706	0.268811	0.942443
O153	O	1.949039	0.602144	1.275776
H154	H	1.271852	-0.054018	0.690961
H155	H	1.605186	0.279315	1.024294
H156	H	1.938519	0.612649	1.357627
H157	H	1.265813	-0.047995	0.404707
H158	H	1.599146	0.285338	0.738040
H159	H	1.932480	0.618671	1.071374
H160	H	1.203183	0.014580	0.247179
H161	H	1.536516	0.347913	0.580513
H162	H	1.869849	0.681247	0.913846
