data_functionalizedCrystal
_audit_creation_method	'MofGen! by Chris Wilmer'
_symmetry_space_group_name_H-M	'P1'
_symmetry_Int_Tables_number	1
_symmetry_cell_setting	triclinic
loop_
_symmetry_equiv_pos_as_xyz
  x,y,z
_cell_length_a	6.817900
_cell_length_b	13.923258
_cell_length_c	14.858329
_cell_angle_alpha	83.242316
_cell_angle_beta	104.519616
_cell_angle_gamma	81.871755
loop_
_atom_site_label
_atom_site_type_symbol
_atom_site_fract_x
_atom_site_fract_y
_atom_site_fract_z
V1	V	-3.973189	0.303094	-0.130635
V2	V	-3.639856	0.636427	0.202698
V3	V	-3.306522	0.969761	0.536032
O4	O	-3.956437	0.297039	0.004258
O5	O	-3.623103	0.630373	0.337591
O6	O	-3.289770	0.963706	0.670925
O7	O	-3.930156	0.301295	-0.257085
O8	O	-3.596822	0.634628	0.076249
O9	O	-3.263489	0.967962	0.409582
O10	O	-3.899104	0.435159	-0.129512
O11	O	-3.565771	0.768492	0.203822
O12	O	-3.232438	1.101825	0.537155
O13	O	-3.987703	0.162249	-0.124198
O14	O	-3.654370	0.495582	0.209135
O15	O	-3.321036	0.828916	0.542468
V16	V	-4.459450	0.286215	-0.114395
V17	V	-4.126116	0.619548	0.218938
V18	V	-3.792783	0.952881	0.552271
O19	O	-4.228442	0.340120	-0.166257
O20	O	-3.895109	0.673454	0.167076
O21	O	-3.561775	1.006787	0.500409
O22	O	-4.654394	0.249188	-0.078773
O23	O	-4.321061	0.582521	0.254560
O24	O	-3.987727	0.915855	0.587894
O25	O	-4.279276	0.288014	0.012054
O26	O	-3.945943	0.621347	0.345388
O27	O	-3.612610	0.954680	0.678721
O28	O	-4.593599	0.292269	-0.249288
O29	O	-4.260265	0.625602	0.084045
O30	O	-3.926932	0.958936	0.417378
O31	O	-4.562333	0.427060	-0.120832
O32	O	-4.228999	0.760393	0.212501
O33	O	-3.895666	1.093726	0.545835
O34	O	-4.310328	0.154150	-0.115519
O35	O	-3.976994	0.487483	0.217815
O36	O	-3.643661	0.820816	0.551148
C37	C	-3.777293	0.296584	-0.287883
C38	C	-3.443960	0.629918	0.045451
C39	C	-3.110626	0.963251	0.378784
C40	C	-3.823224	0.295994	-0.391263
C41	C	-3.489891	0.629327	-0.057929
C42	C	-3.156557	0.962660	0.275404
C43	C	-3.860520	0.295505	-0.475217
C44	C	-3.527187	0.628838	-0.141884
C45	C	-3.193854	0.962171	0.191449
C46	C	-3.907329	0.294897	-0.580543
C47	C	-3.573996	0.628230	-0.247210
C48	C	-3.240663	0.961563	0.086124
C49	C	-3.944653	0.294413	-0.664492
C50	C	-3.611319	0.627746	-0.331159
C51	C	-3.277986	0.961079	0.002174
C52	C	-3.991465	0.293803	-0.769824
C53	C	-3.658131	0.627136	-0.436491
C54	C	-3.324798	0.960469	-0.103158
C55	C	-4.135092	0.121964	-0.119884
C56	C	-3.801759	0.455297	0.213449
C57	C	-3.468425	0.788631	0.546783
C58	C	-4.093584	0.013997	-0.119961
C59	C	-3.760251	0.347331	0.213372
C60	C	-3.426917	0.680664	0.546706
C61	C	-4.017638	-0.183650	-0.120259
C62	C	-3.684305	0.149683	0.213075
C63	C	-3.350971	0.483016	0.546408
C64	C	-3.834381	-0.227054	-0.124770
C65	C	-3.501047	0.106280	0.208564
C66	C	-3.167714	0.439613	0.541897
C67	C	-3.792121	-0.337032	-0.124935
C68	C	-3.458788	-0.003698	0.208398
C69	C	-3.125454	0.329635	0.541731
C70	C	-4.059907	-0.073663	-0.120093
C71	C	-3.726573	0.259671	0.213241
C72	C	-3.393240	0.593004	0.546574
C73	C	-3.737683	0.467340	-0.125149
C74	C	-3.404350	0.800673	0.208184
C75	C	-3.071017	1.134006	0.541517
C76	C	-3.758430	0.575305	-0.125068
C77	C	-3.425097	0.908638	0.208266
C78	C	-3.091763	1.241972	0.541599
C79	C	-4.095482	0.292722	0.042847
C80	C	-3.762148	0.626055	0.376181
C81	C	-3.428815	0.959388	0.709514
C82	C	-4.028788	0.293319	0.146226
C83	C	-3.695455	0.626652	0.479560
C84	C	-3.362121	0.959985	0.812893
H85	H	-3.709226	-0.181616	-0.128506
H86	H	-3.375893	0.151717	0.204828
H87	H	-3.042560	0.485051	0.538161
O88	O	-4.166748	-0.237985	-0.115854
O89	O	-3.833415	0.095349	0.217480
O90	O	-3.500082	0.428682	0.550813
C91	C	-4.090695	-0.337286	-0.116993
C92	C	-3.757361	-0.003953	0.216341
C93	C	-3.424028	0.329380	0.549674
H94	H	-3.957335	-0.341852	-0.150631
H95	H	-3.624001	-0.008519	0.182702
H96	H	-3.290668	0.324814	0.516035
H97	H	-4.218620	-0.371562	-0.159488
H98	H	-3.885286	-0.038229	0.173845
H99	H	-3.551953	0.295104	0.507179
H100	H	-4.034633	-0.378742	-0.041782
H101	H	-3.701300	-0.045408	0.291551
H102	H	-3.367967	0.287925	0.624884
