data_functionalizedCrystal
_audit_creation_method	'MofGen! by Chris Wilmer'
_symmetry_space_group_name_H-M	'P1'
_symmetry_Int_Tables_number	1
_symmetry_cell_setting	triclinic
loop_
_symmetry_equiv_pos_as_xyz
  x,y,z
_cell_length_a	10.540535
_cell_length_b	15.995350
_cell_length_c	9.616153
_cell_angle_alpha	90.000029
_cell_angle_beta	90.004501
_cell_angle_gamma	84.008008
loop_
_atom_site_label
_atom_site_type_symbol
_atom_site_fract_x
_atom_site_fract_y
_atom_site_fract_z
O1	O	1.684274	0.117976	0.115562
O2	O	1.314707	0.129098	0.115581
O3	O	1.509593	0.001710	0.115570
O4	O	1.489388	0.245364	0.115573
O5	O	1.509566	0.001712	-0.115722
O6	O	1.314681	0.129101	-0.115711
O7	O	1.684247	0.117979	-0.115729
Zn8	Zn	1.499460	0.123540	-0.152442
Zn9	Zn	1.499495	0.123537	0.152294
O10	O	1.489362	0.245367	-0.115718
C11	C	1.267402	0.128266	-0.000062
C12	C	1.126488	0.125773	-0.000055
C13	C	1.091096	0.032764	-0.000062
C14	C	0.944532	0.030141	-0.000601
C15	C	0.916554	0.168232	-0.131893
C16	C	1.063292	0.170211	-0.131990
C17	C	1.063188	0.171561	0.131041
C18	C	0.916901	0.167259	0.132760
C19	C	1.508744	-0.029489	-0.000073
C20	C	1.506240	-0.122454	-0.000065
C21	C	1.497247	-0.460255	-0.000070
C22	C	1.358453	-0.413650	0.000456
C23	C	1.360958	-0.316944	-0.000065
C24	C	1.501708	-0.292668	-0.000067
C25	C	1.570151	-0.333335	-0.132147
C26	C	1.566664	-0.429992	-0.132257
C27	C	1.569562	-0.430336	0.130765
C28	C	1.569529	-0.333391	0.132510
C29	C	1.504236	-0.197955	-0.000070
C30	C	1.494723	-0.554968	-0.000076
C31	C	1.731552	0.118811	-0.000083
C32	C	1.872466	0.121304	-0.000081
C33	C	1.490210	0.276566	-0.000072
C34	C	1.492715	0.369531	-0.000071
N35	N	1.499445	0.123542	-0.360417
C36	C	1.394882	0.191458	-0.580781
C37	C	1.395106	0.191712	-0.419613
C38	C	1.631896	0.143416	-0.418873
C39	C	1.631325	0.143897	-0.580091
C40	C	1.472883	0.035530	-0.580328
C41	C	1.469828	0.036101	-0.419101
N42	N	1.499520	0.123528	0.360268
H43	H	1.103887	0.138520	-0.230900
H44	H	1.671894	-0.461486	0.131651
O45	O	1.149273	-0.013763	-0.125084
H46	H	1.112177	0.018206	-0.221489
H47	H	1.519488	-0.306442	0.230219
H48	H	1.412108	0.256999	-0.381034
O49	O	1.573906	-0.031473	-0.630835
H50	H	1.669026	-0.016490	-0.594933
O51	O	1.509521	-0.457949	0.263370
H52	H	1.562238	-0.436110	0.354071
H53	H	1.672171	-0.317416	0.140484
O54	O	1.737500	0.079672	-0.368089
H55	H	1.740971	0.081122	-0.252760
H56	H	1.296654	0.179754	-0.380094
O57	O	0.852609	0.257143	-0.137921
H58	H	0.796020	0.265915	-0.235144
O59	O	0.850751	0.255399	0.143849
H60	H	0.923060	0.301111	0.142820
H61	H	0.916570	-0.006377	-0.095648
H62	H	1.711620	0.096414	-0.619084
H63	H	1.654797	0.208098	-0.617679
H64	H	1.303214	-0.433572	-0.093728
O65	O	1.264052	0.175882	-0.632198
H66	H	1.272203	0.119562	-0.700326
H67	H	1.411657	0.256375	-0.621280
O68	O	1.092566	0.260524	-0.139438
H69	H	1.149090	0.269754	-0.234564
O70	O	1.707118	-0.313799	-0.138678
H71	H	1.758664	-0.339152	-0.044602
H72	H	1.655921	0.206891	-0.378483
O73	O	1.347716	0.010478	-0.634226
H74	H	1.269072	0.058094	-0.601922
O75	O	1.340762	0.016142	-0.368522
H76	H	1.297879	0.068274	-0.301854
O77	O	0.876210	0.125593	-0.262346
H78	H	0.961942	0.103679	-0.324616
H79	H	1.541083	-0.016878	-0.378810
O80	O	1.147347	-0.014578	0.125105
H81	H	1.212725	-0.069402	0.089962
O82	O	1.507168	-0.296121	-0.262351
H83	H	1.427129	-0.248674	-0.233327
H84	H	1.106057	0.142537	0.230984
O85	O	0.906340	-0.018494	0.124506
H86	H	0.992631	-0.040348	0.185938
H87	H	0.888779	0.133108	0.230276
H88	H	1.307156	-0.288845	0.094615
O89	O	1.500521	-0.454640	-0.263027
H90	H	1.401847	-0.422726	-0.265332
O91	O	1.091313	0.262208	0.132765
H92	H	1.196062	0.264837	0.136762
O93	O	1.284957	-0.438647	0.125895
H94	H	1.346560	-0.484559	0.189208
H95	H	1.306772	-0.289402	-0.094902
O96	O	1.701632	-0.471913	-0.140230
H97	H	1.769100	-0.423123	-0.144001
