data_functionalizedCrystal
_audit_creation_method	'MofGen! by Chris Wilmer'
_symmetry_space_group_name_H-M	'P1'
_symmetry_Int_Tables_number	1
_symmetry_cell_setting	triclinic
loop_
_symmetry_equiv_pos_as_xyz
  x,y,z
_cell_length_a	16.956984
_cell_length_b	16.956984
_cell_length_c	15.455313
_cell_angle_alpha	92.464369
_cell_angle_beta	87.518126
_cell_angle_gamma	76.053419
loop_
_atom_site_label
_atom_site_type_symbol
_atom_site_fract_x
_atom_site_fract_y
_atom_site_fract_z
O1	O	1.059594	0.029448	-0.072135
O2	O	1.559594	0.529448	0.427865
O3	O	0.825582	0.057566	-0.072136
O4	O	1.325582	0.557566	0.427864
O5	O	0.956647	-0.073498	-0.072129
O6	O	1.456647	0.426502	0.427871
O7	O	0.928529	0.160512	-0.072142
O8	O	1.428529	0.660512	0.427858
O9	O	0.949154	-0.066033	0.072132
O10	O	1.449154	0.433967	0.572132
O11	O	0.818089	0.065032	0.072126
O12	O	1.318089	0.565032	0.572126
O13	O	1.052101	0.036914	0.072127
O14	O	1.552101	0.536914	0.572127
Cu15	Cu	0.934411	0.051654	0.085299
Cu16	Cu	1.434411	0.551654	0.585299
Cu17	Cu	0.943272	0.042825	-0.085308
Cu18	Cu	1.443272	0.542825	0.414692
O19	O	0.921036	0.167978	0.072120
O20	O	1.421036	0.667978	0.572120
C21	C	0.792033	0.062739	-0.000005
C22	C	1.292033	0.562739	0.499995
C23	C	0.703230	0.067019	-0.000005
C24	C	1.203230	0.567019	0.499995
C25	C	0.675864	-0.004554	-0.000000
C26	C	1.175864	0.495446	0.500000
C27	C	0.592423	-0.000527	-0.000006
C28	C	1.092423	0.499473	0.499994
C29	C	0.536350	0.075074	-0.000012
C30	C	1.036350	0.575074	0.499988
C31	C	0.563722	0.146652	-0.000020
C32	C	1.063722	0.646652	0.499980
C33	C	0.647161	0.142624	-0.000020
C34	C	1.147161	0.642624	0.499980
C35	C	0.285264	0.095010	-0.000019
C36	C	0.785264	0.595010	0.499981
C37	C	0.201820	0.099033	-0.000017
C38	C	0.701820	0.599033	0.499983
C39	C	0.230527	-0.048147	-0.000005
C40	C	0.730527	0.451853	0.499995
C41	C	0.313966	-0.052168	0.000001
C42	C	0.813966	0.447832	0.500001
C43	C	0.341331	0.019410	-0.000012
C44	C	0.841331	0.519410	0.499988
N45	N	0.451061	0.079192	-0.000016
N46	N	0.951061	0.579192	0.499984
N47	N	0.426620	0.015291	-0.000014
N48	N	0.926620	0.515291	0.499986
C49	C	0.954340	-0.099568	0.000001
C50	C	1.454340	0.400432	0.500001
C51	C	0.958621	-0.188371	0.000001
C52	C	1.458621	0.311629	0.500001
C53	C	0.887048	-0.215738	-0.000004
C54	C	1.387048	0.284262	0.499996
C55	C	0.891075	-0.299178	-0.000001
C56	C	1.391075	0.200822	0.499999
C57	C	0.966676	-0.355251	-0.000001
C58	C	1.466676	0.144749	0.499999
C59	C	1.038254	-0.327880	0.000006
C60	C	1.538254	0.172120	0.500006
C61	C	1.034226	-0.244441	0.000010
C62	C	1.534226	0.255559	0.500010
C63	C	0.986613	-0.606339	-0.000007
C64	C	1.486613	-0.106339	0.499993
C65	C	0.990636	-0.689783	-0.000013
C66	C	1.490636	-0.189783	0.499987
C67	C	0.843456	-0.661075	-0.000018
C68	C	1.343456	-0.161075	0.499982
C69	C	0.839435	-0.577636	-0.000020
C70	C	1.339435	-0.077636	0.499980
C71	C	0.911013	-0.550271	-0.000008
C72	C	1.411013	-0.050271	0.499992
N73	N	0.970794	-0.440542	-0.000001
N74	N	1.470794	0.059458	0.499999
N75	N	0.906893	-0.464982	-0.000002
N76	N	1.406893	0.035018	0.499998
C77	C	1.085650	0.031741	-0.000006
C78	C	1.585650	0.531741	0.499994
C79	C	1.174453	0.027460	-0.000011
C80	C	1.674453	0.527460	0.499989
C81	C	0.923343	0.194048	-0.000012
C82	C	1.423343	0.694048	0.499988
C83	C	0.919063	0.282851	-0.000017
C84	C	1.419063	0.782851	0.499983
N85	N	0.928184	0.057864	0.205294
N86	N	1.428184	0.557864	0.705294
N87	N	0.949506	0.036609	-0.205303
N88	N	1.449506	0.536609	0.294697
C89	C	0.983882	0.002201	0.250691
C90	C	1.483882	0.502201	0.750691
C91	C	0.979180	0.006904	0.341498
C92	C	1.479180	0.506904	0.841498
C93	C	0.918783	0.067273	0.386907
C94	C	1.418783	0.567273	0.886907
C95	C	0.863080	0.122938	0.341504
C96	C	1.363080	0.622938	0.841504
C97	C	0.867779	0.118232	0.250698
C98	C	1.367779	0.618232	0.750698
C99	C	0.898501	0.087568	0.658488
C100	C	1.398501	0.587568	1.158488
C101	C	0.893808	0.092272	0.749300
C102	C	1.393808	0.592272	1.249300
C103	C	1.009908	-0.023764	0.749288
C104	C	1.509908	0.476236	1.249288
C105	C	1.014604	-0.028463	0.658480
C106	C	1.514604	0.471537	1.158480
C107	C	0.958898	0.027200	0.613085
C108	C	1.458898	0.527200	1.113085
N109	N	0.913977	0.072083	0.479727
N110	N	1.413977	0.572083	0.979727
N111	N	0.963702	0.022386	0.520267
N112	N	1.463702	0.522386	1.020267
H113	H	0.669440	0.200907	-0.000020
H114	H	1.169440	0.700907	0.499980
H115	H	0.777872	-0.531985	-0.000023
H116	H	1.277872	-0.031985	0.499977
H117	H	0.785181	-0.683365	-0.000026
H118	H	1.285181	-0.183365	0.499974
H119	H	1.092508	-0.222161	0.000014
H120	H	1.592508	0.277839	0.500014
N121	N	1.039279	-0.053107	0.390463
N122	N	1.539279	0.446893	0.890463
H123	H	1.078265	-0.092052	0.347918
H124	H	1.578265	0.407948	0.847918
H125	H	1.070692	-0.022772	0.428108
H126	H	1.570692	0.477228	0.928108
H127	H	0.822423	0.163557	0.213737
H128	H	1.322423	0.663557	0.713737
N129	N	1.072181	-0.750266	-0.000019
N130	N	1.572181	-0.250266	0.499981
H131	H	1.116915	-0.720270	-0.000012
H132	H	1.616915	-0.220270	0.499988
H133	H	1.074277	-0.782752	0.053455
H134	H	1.574277	-0.282752	0.553455
H135	H	1.033066	-0.046955	0.213725
H136	H	1.533066	0.453045	0.713725
H137	H	0.721514	-0.066116	0.000008
H138	H	1.221514	0.433884	0.500008
H139	H	0.570147	-0.058809	-0.000003
H140	H	1.070147	0.441191	0.499997
N141	N	0.201019	-0.125349	-0.000005
N142	N	0.701019	0.374651	0.499995
H143	H	0.219038	-0.155454	0.053475
H144	H	0.719038	0.344546	0.553475
H145	H	0.139656	-0.111269	-0.000040
H146	H	0.639656	0.388731	0.499960
H147	H	0.825485	-0.170088	-0.000008
H148	H	1.325485	0.329912	0.499992
H149	H	0.853145	0.132892	0.621534
H150	H	1.353145	0.632892	1.121534
H151	H	1.063784	-0.077621	0.621510
H152	H	1.563784	0.422379	1.121510
H153	H	0.832793	-0.321455	-0.000011
H154	H	1.332793	0.178545	0.499989
H155	H	1.055260	-0.069083	0.786257
H156	H	1.555260	0.430917	1.286257
H157	H	0.359617	-0.113730	0.000009
H158	H	0.859617	0.386270	0.500009
H159	H	1.044897	-0.584069	0.000000
H160	H	1.544897	-0.084069	0.500000
N161	N	0.797931	0.188047	0.390476
N162	N	1.297931	0.688047	0.890476
H163	H	0.803406	0.182585	0.454890
H164	H	1.303406	0.682585	0.954890
H165	H	0.804253	0.243436	0.374590
H166	H	1.304253	0.743436	0.874590
H167	H	1.099810	-0.373541	0.000012
H168	H	1.599810	0.126459	0.500012
H169	H	0.844623	0.141436	0.786268
H170	H	1.344623	0.641436	1.286268
H171	H	0.307534	0.153294	-0.000035
H172	H	0.807534	0.653294	0.499965
N173	N	0.141339	0.180576	-0.000053
N174	N	0.641339	0.680576	0.499947
H175	H	0.171335	0.225309	-0.000073
H176	H	0.671335	0.725309	0.499927
H177	H	0.108887	0.182656	-0.053541
H178	H	0.608887	0.682656	0.446459
H179	H	0.518061	0.208208	-0.000030
H180	H	1.018061	0.708208	0.499970
