data_functionalizedCrystal
_audit_creation_method	'MofGen! by Chris Wilmer'
_symmetry_space_group_name_H-M	'P1'
_symmetry_Int_Tables_number	1
_symmetry_cell_setting	triclinic
loop_
_symmetry_equiv_pos_as_xyz
  x,y,z
_cell_length_a	17.038272
_cell_length_b	16.098538
_cell_length_c	17.019370
_cell_angle_alpha	83.407930
_cell_angle_beta	87.243908
_cell_angle_gamma	92.930266
loop_
_atom_site_label
_atom_site_type_symbol
_atom_site_fract_x
_atom_site_fract_y
_atom_site_fract_z
O1	O	1.040107	0.057067	0.168573
O2	O	0.812490	0.057287	0.165843
O3	O	0.933065	0.065401	0.052412
O4	O	0.919532	0.048954	0.282003
O5	O	0.926022	-0.073584	0.059010
O6	O	0.805447	-0.081697	0.172441
O7	O	1.033064	-0.081918	0.175171
Zn8	Zn	0.918137	-0.103874	0.174854
Zn9	Zn	0.927417	0.079244	0.166160
O10	O	0.912489	-0.090031	0.288601
C11	C	0.779851	-0.012024	0.166659
C12	C	0.693092	-0.011484	0.159254
N13	N	0.911810	-0.228848	0.180786
C14	C	0.642673	-0.016355	0.227244
C15	C	0.561153	-0.015868	0.220282
C16	C	0.530054	-0.010503	0.145328
C17	C	0.580480	-0.005634	0.077332
C18	C	0.661998	-0.006128	0.084296
C19	C	0.284406	-0.008763	0.120728
C20	C	0.202881	-0.008268	0.113769
C21	C	0.183561	-0.018503	0.256720
C22	C	0.265081	-0.018991	0.263676
C23	C	0.315499	-0.014126	0.195681
C24	C	0.446728	-0.010002	0.138209
C25	C	0.398823	-0.014633	0.202800
C26	C	0.963005	-0.268991	0.132662
C27	C	0.958586	-0.356477	0.136820
C28	C	0.902974	-0.403819	0.189108
C29	C	0.851773	-0.363671	0.237235
C30	C	0.856189	-0.276185	0.233072
C31	C	0.886966	-0.668148	0.204185
C32	C	0.882555	-0.755639	0.208346
C33	C	0.989367	-0.748439	0.107930
C34	C	0.993782	-0.660953	0.103775
C35	C	0.942578	-0.620812	0.151899
C36	C	0.898458	-0.493245	0.193361
C37	C	0.947091	-0.531388	0.147641
C38	C	1.065703	-0.012604	0.174354
C39	C	1.152462	-0.013139	0.181760
C40	C	0.929169	-0.001975	0.026190
C41	C	0.928044	0.004332	-0.061776
N42	N	0.933751	0.204218	0.160221
C43	C	0.923675	-0.068461	-0.099513
C44	C	0.922623	-0.062528	-0.182167
C45	C	0.925935	0.016201	-0.227081
C46	C	0.930307	0.089000	-0.189339
C47	C	0.931365	0.083065	-0.106687
C48	C	0.922940	0.037909	-0.476817
C49	C	0.921880	0.043839	-0.559474
C50	C	0.914197	-0.107690	-0.552296
C51	C	0.915250	-0.113617	-0.469642
C52	C	0.919626	-0.040818	-0.431907
C53	C	0.924858	0.022268	-0.311567
C54	C	0.920709	-0.046886	-0.347424
C55	C	0.916385	-0.022653	0.314824
C56	C	0.917510	-0.028955	0.402789
H57	H	0.667987	-0.020723	0.288280
H58	H	0.919068	-0.121804	-0.212888
Cl59	Cl	1.053731	-0.798907	0.047432
Cl60	Cl	0.304171	-0.025729	0.357907
H61	H	0.845275	-0.635472	0.243371
Cl62	Cl	0.541383	0.001104	-0.016896
Cl63	Cl	0.120174	-0.024621	0.342194
H64	H	0.177564	-0.003898	0.052730
H65	H	1.039065	-0.622409	0.061198
Cl66	Cl	0.916549	-0.145855	-0.290959
H67	H	1.008293	-0.230450	0.090087
Cl68	Cl	0.347777	-0.002647	0.035246
Cl69	Cl	0.911065	-0.212594	-0.413182
Cl70	Cl	0.828548	-0.552765	0.259096
H71	H	0.920964	-0.132570	-0.062948
Cl72	Cl	0.936862	0.174582	-0.059246
Cl73	Cl	0.725382	-0.000007	-0.001182
H74	H	0.837267	-0.794182	0.250928
H75	H	0.933009	0.153102	-0.225916
Cl76	Cl	1.016998	-0.471871	0.081907
H77	H	0.424148	-0.019005	0.263828
H78	H	0.924570	0.107952	-0.596041
H79	H	0.806489	-0.402222	0.279806
Cl80	Cl	0.497773	-0.021987	0.305760
H81	H	0.814500	-0.243502	0.272259
H82	H	0.927553	0.086369	-0.348145
Cl83	Cl	0.908698	-0.199202	-0.599739
H84	H	1.000273	-0.389161	0.097632
Cl85	Cl	0.407625	-0.003255	0.043984
H86	H	0.926502	0.097188	-0.446103
