data_functionalizedCrystal
_audit_creation_method	'MofGen! by Chris Wilmer'
_symmetry_space_group_name_H-M	'P1'
_symmetry_Int_Tables_number	1
_symmetry_cell_setting	triclinic
loop_
_symmetry_equiv_pos_as_xyz
  x,y,z
_cell_length_a	19.288864
_cell_length_b	16.109304
_cell_length_c	17.766277
_cell_angle_alpha	90.001293
_cell_angle_beta	89.979562
_cell_angle_gamma	83.299443
loop_
_atom_site_label
_atom_site_type_symbol
_atom_site_fract_x
_atom_site_fract_y
_atom_site_fract_z
O1	O	0.921599	0.103710	-0.062831
O2	O	0.719372	0.117701	-0.062779
O3	O	0.826040	-0.010344	-0.062807
O4	O	0.814931	0.231756	-0.062803
O5	O	0.826026	-0.010339	0.062382
O6	O	0.719358	0.117706	0.062410
O7	O	0.921585	0.103715	0.062357
Cu8	Cu	0.820470	0.110711	0.073814
Cu9	Cu	0.820487	0.110705	-0.074236
O10	O	0.814917	0.231760	0.062385
C11	C	0.693488	0.117253	-0.000178
C12	C	0.616381	0.115902	-0.000158
C13	C	0.825583	-0.041315	-0.000214
C14	C	0.824233	-0.133606	-0.000219
C15	C	0.571864	0.191033	-0.000169
C16	C	0.499414	0.189764	-0.000177
C17	C	0.471484	0.113359	-0.000190
C18	C	0.516010	0.038217	-0.000175
C19	C	0.588458	0.039489	-0.000159
C20	C	0.363083	0.053294	-0.044076
C21	C	0.290635	0.052026	-0.044096
C22	C	0.248029	0.109433	-0.000236
C23	C	0.277877	0.168123	0.043635
C24	C	0.350326	0.169395	0.043651
C25	C	0.392926	0.111971	-0.000207
C26	C	0.124953	0.183193	-0.000254
C27	C	0.052502	0.181920	-0.000258
C28	C	0.069099	0.030372	-0.000264
C29	C	0.141549	0.031647	-0.000252
C30	C	0.169471	0.108059	-0.000251
C31	C	0.821121	-0.345935	-0.068456
C32	C	0.819846	-0.432651	-0.068455
C33	C	0.819834	-0.432643	0.068033
C34	C	0.821104	-0.345928	0.068031
C35	C	0.821751	-0.302577	-0.000215
C36	C	0.819206	-0.476007	-0.000213
C37	C	0.817824	-0.570028	-0.000211
C38	C	0.823132	-0.208549	-0.000217
C39	C	0.947470	0.104163	-0.000245
C40	C	1.024577	0.105514	-0.000270
C41	C	0.815375	0.262731	-0.000209
C42	C	0.816725	0.355022	-0.000209
N43	N	0.820463	0.110714	0.177945
N44	N	0.820499	0.110696	-0.178366
C45	C	0.862613	0.160985	0.782222
C46	C	0.862606	0.160993	0.703420
C47	C	0.820494	0.110696	0.664033
C48	C	0.778372	0.060404	0.703455
C49	C	0.778375	0.060403	0.782255
C50	C	0.818588	0.035737	0.539190
C51	C	0.818590	0.035735	0.460391
C52	C	0.820481	0.110698	0.420987
C53	C	0.822384	0.185664	0.460392
C54	C	0.822387	0.185663	0.539192
C55	C	0.820486	0.110691	0.578588
C56	C	0.862589	0.161000	0.296129
C57	C	0.862577	0.161010	0.217326
C58	C	0.778347	0.060413	0.217362
C59	C	0.778355	0.060411	0.296164
C60	C	0.820479	0.110703	0.335543
H61	H	0.463162	0.250946	-0.000184
H62	H	0.594594	0.253254	-0.000170
N63	N	0.908035	0.215223	0.824712
H64	H	0.942032	0.178907	0.857390
H65	H	0.934675	0.247083	0.787750
H66	H	0.823924	0.246706	0.428311
N67	N	0.636472	-0.041552	-0.000147
H68	H	0.627515	-0.074903	-0.046556
H69	H	0.686586	-0.029087	-0.000108
H70	H	0.397768	0.006544	-0.079796
N71	N	0.004507	0.262976	-0.000258
H72	H	-0.025907	0.265844	-0.046666
H73	H	-0.025893	0.265791	0.046180
N74	N	0.819211	-0.479424	-0.142056
H75	H	0.819829	-0.438802	-0.185287
H76	H	0.861732	-0.522286	-0.145005
H77	H	0.896899	0.201948	0.671324
N78	N	0.824433	0.266512	0.581695
H79	H	0.825630	0.314004	0.544781
H80	H	0.781494	0.277313	0.614406
N81	N	0.819152	-0.479403	0.141638
H82	H	0.775598	-0.508488	0.144699
H83	H	0.861691	-0.522234	0.144614
H84	H	0.493264	-0.023992	-0.000196
N85	N	0.038987	-0.052040	-0.000279
H86	H	0.055201	-0.084942	0.046131
H87	H	-0.013659	-0.041379	-0.000317
N88	N	0.908005	0.215253	0.174817
H89	H	0.942002	0.178945	0.142105
H90	H	0.877709	0.256040	0.142183
N91	N	0.732921	0.006164	0.174897
H92	H	0.698915	0.042468	0.142220
H93	H	0.763214	-0.034618	0.142232
H94	H	0.266338	0.004240	-0.079821
N95	N	0.189568	-0.049388	-0.000241
H96	H	0.160883	-0.097985	-0.000249
H97	H	0.220015	-0.052166	-0.046642
H98	H	0.821646	-0.310641	-0.124026
H99	H	0.821613	-0.310624	0.123604
N100	N	0.908016	0.215245	0.338609
H101	H	0.934689	0.247112	0.301681
H102	H	0.877723	0.255980	0.371320
H103	H	0.744065	0.019456	0.328254
H104	H	0.817045	-0.025307	0.428313
N105	N	0.816534	-0.045119	0.581686
H106	H	0.815331	-0.092607	0.544768
H107	H	0.859469	-0.055934	0.614366
H108	H	0.744082	0.019454	0.671381
H109	H	0.374625	0.217180	0.079375
N110	N	0.231940	0.230042	0.090957
H111	H	0.238148	0.288761	0.074589
H112	H	0.181535	0.220261	0.084282
N113	N	0.732959	0.006151	0.824770
H114	H	0.706279	-0.025713	0.787864
H115	H	0.763261	-0.034585	0.857444
H116	H	0.147689	0.245413	-0.000243
