data_functionalizedCrystal
_audit_creation_method	'MofGen! by Chris Wilmer'
_symmetry_space_group_name_H-M	'P1'
_symmetry_Int_Tables_number	1
_symmetry_cell_setting	triclinic
loop_
_symmetry_equiv_pos_as_xyz
  x,y,z
_cell_length_a	23.532355
_cell_length_b	10.654549
_cell_length_c	9.130307
_cell_angle_alpha	89.997786
_cell_angle_beta	90.004309
_cell_angle_gamma	83.657208
loop_
_atom_site_label
_atom_site_type_symbol
_atom_site_fract_x
_atom_site_fract_y
_atom_site_fract_z
O1	O	0.756269	0.152126	-0.121597
O2	O	0.590545	0.174250	-0.121643
O3	O	0.677216	-0.019673	-0.121613
O4	O	0.669598	0.346049	-0.121627
O5	O	0.677213	-0.019675	0.121986
O6	O	0.590543	0.174248	0.121956
O7	O	0.756266	0.152124	0.122002
Cu8	Cu	0.673404	0.163186	0.144221
Cu9	Cu	0.673407	0.163188	-0.143863
O10	O	0.669595	0.346047	0.121972
C11	C	0.569324	0.173696	0.000150
C12	C	0.506094	0.172034	0.000133
C13	C	0.114011	0.161585	0.132980
C14	C	0.054601	0.160003	0.132986
O15	O	0.023876	0.159142	0.245914
N16	N	0.024889	0.159220	0.000201
C17	C	0.054591	0.160006	-0.132599
O18	O	0.023863	0.159193	-0.245543
C19	C	0.114000	0.161579	-0.132603
C20	C	0.143708	0.162375	0.000191
C21	C	0.143719	0.162380	0.265764
C22	C	0.203125	0.163964	0.265757
C23	C	0.232822	0.164754	0.132968
C24	C	0.203113	0.163959	0.000185
C25	C	0.143701	0.162355	-0.265401
C26	C	0.203114	0.163927	-0.265394
C27	C	0.232822	0.164724	-0.132600
C28	C	0.292216	0.166333	-0.132611
N29	N	0.321928	0.167116	0.000174
C30	C	0.292231	0.166327	0.132964
C31	C	-0.070173	0.156700	-0.132580
C32	C	-0.129581	0.155137	-0.132577
C33	C	-0.129566	0.155132	0.133008
C34	C	-0.070157	0.156705	0.133004
C35	C	-0.040460	0.157484	0.000205
C36	C	0.416987	0.169655	0.132940
C37	C	0.476397	0.171244	0.132922
C38	C	0.476378	0.171242	-0.132662
C39	C	0.416972	0.169659	-0.132645
C40	C	0.387278	0.168861	0.000168
O41	O	0.322980	0.167190	-0.245481
O42	O	0.322967	0.167123	0.245888
C43	C	0.676655	-0.066454	0.000184
C44	C	0.674979	-0.205843	0.000179
C45	C	0.777488	0.152678	0.000205
C46	C	0.840717	0.154340	0.000213
C47	C	0.775473	-0.499053	0.000214
C48	C	0.828080	-0.449204	0.000232
C49	C	0.829656	-0.318237	0.000231
C50	C	0.778619	-0.237113	0.000216
C51	C	0.726011	-0.286962	0.000198
C52	C	0.724441	-0.417934	0.000195
C53	C	0.622372	-0.255692	0.000161
C54	C	0.620795	-0.386659	0.000152
C55	C	0.571334	-0.174569	0.000147
C56	C	0.518725	-0.224417	0.000118
C57	C	0.517152	-0.355393	0.000118
C58	C	0.568187	-0.436508	0.000135
C59	C	0.670157	0.392828	0.000171
C60	C	0.671832	0.532217	0.000167
N61	N	0.673406	0.163184	0.346844
N62	N	0.673410	0.163180	-0.346485
C63	C	0.750184	-0.008487	0.346861
C64	C	0.788577	-0.094319	0.423536
C65	C	0.788583	-0.094320	0.576869
C66	C	0.750190	-0.008482	0.653531
C67	C	0.711797	0.077350	0.576856
C68	C	0.711797	0.077344	0.423519
C69	C	0.635017	0.249012	0.576840
C70	C	0.635013	0.249021	0.423506
C71	C	0.596625	0.334850	0.653502
C72	C	0.558234	0.420689	0.576827
C73	C	0.558230	0.420688	0.423484
C74	C	0.596620	0.334853	0.346831
H75	H	0.119546	0.161734	0.373903
H76	H	-0.045973	0.157354	0.241137
Br77	Br	0.773338	-0.676797	0.000261
H78	H	-0.153756	0.154487	0.241133
Br79	Br	0.376698	0.168568	0.313188
Br80	Br	0.840683	-0.210816	0.680932
H81	H	0.596628	0.334840	0.778354
H82	H	-0.045998	0.157347	-0.240727
H83	H	0.119522	0.161706	-0.373537
H84	H	0.500583	0.171897	0.241064
Br85	Br	0.573472	0.003175	0.000153
Br86	Br	0.750190	-0.008474	0.138764
H87	H	0.227290	0.164562	-0.373537
H88	H	0.392781	0.169031	-0.240777
H89	H	0.750192	-0.008499	0.778383
H90	H	0.566910	-0.543150	0.000126
H91	H	0.477175	-0.158357	0.000116
H92	H	0.500567	0.171890	-0.240776
Br93	Br	0.243434	0.165039	0.445988
H94	H	0.526975	0.490567	0.639255
Br95	Br	0.596622	0.334851	0.138734
Br96	Br	0.780759	-0.059371	0.000243
H97	H	-0.153766	0.154509	-0.240712
H98	H	0.819835	-0.164209	0.361104
Br99	Br	0.897342	-0.559303	0.000274
Br100	Br	0.901052	-0.250580	0.000282
Br101	Br	0.445751	-0.423033	0.000113
Br102	Br	0.506117	0.537171	0.319439
