data_functionalizedCrystal
_audit_creation_method	'MofGen! by Chris Wilmer'
_symmetry_space_group_name_H-M	'P1'
_symmetry_Int_Tables_number	1
_symmetry_cell_setting	triclinic
loop_
_symmetry_equiv_pos_as_xyz
  x,y,z
_cell_length_a	42.784860
_cell_length_b	42.784822
_cell_length_c	42.784893
_cell_angle_alpha	59.997561
_cell_angle_beta	89.997251
_cell_angle_gamma	59.999948
loop_
_atom_site_label
_atom_site_type_symbol
_atom_site_fract_x
_atom_site_fract_y
_atom_site_fract_z
O1	O	0.214411	0.275696	-0.009303
O2	O	0.168960	0.211693	0.009250
O3	O	0.168960	0.275694	-0.054752
O4	O	0.214412	0.211695	0.054700
O5	O	0.220945	0.223709	-0.054752
O6	O	0.220945	0.159709	0.009251
O7	O	0.266396	0.223712	-0.009302
Cu8	Cu	0.248417	0.186964	-0.000026
Cu9	Cu	0.186939	0.248441	-0.000026
O10	O	0.266396	0.159711	0.054700
C11	C	0.356210	0.440761	-0.028198
C12	C	0.393825	0.422043	-0.028463
C13	C	0.356212	0.384160	-0.028195
C14	C	0.393827	0.365528	-0.028460
C15	C	0.412809	0.384162	-0.028198
C16	C	0.337314	0.422041	-0.028460
C17	C	0.264530	0.567003	-0.017954
C18	C	0.246589	0.602758	-0.015058
C19	C	0.265929	0.620695	-0.013606
C20	C	0.246481	0.659458	-0.010458
C21	C	0.303208	0.602876	-0.015053
C22	C	0.321144	0.567127	-0.017954
C23	C	0.301803	0.549191	-0.019404
C24	C	0.549294	0.339358	-0.017956
C25	C	0.587945	0.318647	-0.015060
C26	C	0.607337	0.279917	-0.013603
C27	C	0.649246	0.257454	-0.010457
C28	C	0.588072	0.261901	-0.015047
C29	C	0.549421	0.282615	-0.017950
C30	C	0.530034	0.321345	-0.019402
C31	C	0.264536	0.339346	-0.017940
C32	C	0.246598	0.318630	-0.015035
C33	C	0.265938	0.279899	-0.013580
C34	C	0.246492	0.257434	-0.010429
C35	C	0.303216	0.261886	-0.015025
C36	C	0.321152	0.282602	-0.017928
C37	C	0.301807	0.321336	-0.019389
C38	C	0.321256	0.510424	-0.022546
C39	C	0.336761	0.479524	-0.025053
C40	C	0.336763	0.361698	-0.025045
C41	C	0.321260	0.343795	-0.022536
C42	C	0.454718	0.361703	-0.025052
C43	C	0.488123	0.343801	-0.022546
C44	C	0.022778	0.051021	0.028112
C45	C	0.041761	0.013142	0.028375
C46	C	0.079378	0.051019	0.028115
C47	C	0.098274	0.013139	0.028378
C48	C	0.079377	-0.005578	0.028112
C49	C	0.041762	0.069652	0.028378
C50	C	-0.113708	0.152949	0.017863
C51	C	-0.152360	0.173787	0.014965
C52	C	-0.171751	0.155903	0.013509
C53	C	-0.213662	0.178499	0.010359
C54	C	-0.152486	0.117177	0.014954
C55	C	-0.113835	0.096339	0.017857
C56	C	-0.094447	0.114226	0.019312
C57	C	0.113936	-0.131814	0.017859
C58	C	0.131751	-0.167567	0.014961
C59	C	0.169024	-0.185503	0.013506
C60	C	0.188341	-0.224265	0.010358
C61	C	0.188486	-0.167685	0.014954
C62	C	0.170675	-0.131938	0.017859
C63	C	0.133396	-0.114002	0.019309
C64	C	0.113943	0.152940	0.017875
C65	C	0.131756	0.173779	0.014975
C66	C	0.169032	0.155893	0.013522
C67	C	0.188348	0.178487	0.010375
C68	C	0.188490	0.117171	0.014965
C69	C	0.170675	0.096335	0.017863
C70	C	0.133401	0.114221	0.019322
C71	C	-0.052537	0.091630	0.022456
C72	C	-0.019131	0.073618	0.024964
C73	C	0.098692	0.073613	0.024970
C74	C	0.114088	0.091623	0.022465
C75	C	0.098690	-0.044339	0.024964
C76	C	0.114085	-0.075237	0.022455
C77	C	0.079140	0.384392	-0.361609
C78	C	0.041525	0.422272	-0.380505
C79	C	0.079140	0.384392	-0.305010
C80	C	0.041525	0.422272	-0.323993
C81	C	0.022542	0.440990	-0.361608
C82	C	0.098037	0.365759	-0.323993
C83	C	0.170818	0.282466	-0.396171
C84	C	0.188758	0.261629	-0.413985
C85	C	0.169419	0.279514	-0.451260
C86	C	0.188866	0.256918	-0.470575
C87	C	0.132139	0.318240	-0.470720
C88	C	0.114204	0.339078	-0.452907
C89	C	0.133545	0.321189	-0.415631
C90	C	-0.113944	0.567229	-0.453284
C91	C	-0.152595	0.602984	-0.471224
C92	C	-0.171986	0.620919	-0.451885
C93	C	-0.213895	0.659681	-0.471330
C94	C	-0.152721	0.603099	-0.414606
C95	C	-0.114069	0.567352	-0.396669
C96	C	-0.094683	0.549417	-0.416013
C97	C	0.170818	0.282466	-0.168524
C98	C	0.188756	0.261626	-0.129871
C99	C	0.169417	0.279511	-0.110481
C100	C	0.188864	0.256916	-0.068570
C101	C	0.132139	0.318234	-0.129745
C102	C	0.114202	0.339071	-0.168396
C103	C	0.133547	0.321186	-0.187784
C104	C	0.114093	0.343785	-0.396317
C105	C	0.098589	0.361796	-0.380922
C106	C	0.098589	0.361796	-0.263101
C107	C	0.114093	0.343785	-0.229695
C108	C	-0.019367	0.479752	-0.381056
C109	C	-0.052773	0.510651	-0.396560
O110	O	0.772519	0.159724	0.009230
O111	O	0.663066	0.223728	-0.009325
O112	O	0.727060	0.159730	0.054678
O113	O	0.708526	0.223722	-0.054773
O114	O	0.727058	0.211716	0.054675
O115	O	0.663065	0.275715	-0.009329
O116	O	0.772518	0.211710	0.009227
Cu117	Cu	0.717791	0.248459	-0.000051
Cu118	Cu	0.717793	0.186979	-0.000047
O119	O	0.708524	0.275708	-0.054777
O120	O	0.220936	0.763044	0.009229
O121	O	0.266387	0.672146	-0.009326
O122	O	0.266384	0.672138	0.054678
O123	O	0.220939	0.763053	-0.054774
O124	O	0.214398	0.672142	0.054672
O125	O	0.214400	0.672150	-0.009331
O126	O	0.168950	0.763048	0.009224
Cu127	Cu	0.186929	0.717600	-0.000054
Cu128	Cu	0.248408	0.717595	-0.000048
O129	O	0.168953	0.763057	-0.054779
O130	O	-0.337165	0.763274	-0.496873
O131	O	-0.227714	0.672370	-0.451425
O132	O	-0.291712	0.672367	-0.451419
O133	O	-0.273167	0.763276	-0.496878
O134	O	-0.291714	0.672369	-0.503404
O135	O	-0.227716	0.672371	-0.503409
O136	O	-0.337167	0.763275	-0.548857
Cu137	Cu	-0.282441	0.717823	-0.530880
Cu138	Cu	-0.282440	0.717822	-0.469402
O139	O	-0.273168	0.763277	-0.548863
O140	O	0.214416	0.211691	-0.548620
O141	O	0.168961	0.275693	-0.503170
O142	O	0.168963	0.211690	-0.503165
O143	O	0.214414	0.275693	-0.548624
O144	O	0.220946	0.159707	-0.451181
O145	O	0.220944	0.223709	-0.451186
O146	O	0.266399	0.159708	-0.496636
Cu147	Cu	0.248418	0.186962	-0.469164
Cu148	Cu	0.186942	0.248438	-0.530641
O149	O	0.266397	0.223710	-0.496640
C150	C	0.412572	-0.005343	0.361556
C151	C	0.393589	0.013375	0.380453
C152	C	0.355973	0.051256	0.304958
C153	C	0.337077	0.069888	0.323942
C154	C	0.355974	0.051255	0.361557
C155	C	0.393589	0.013376	0.323940
C156	C	0.549057	-0.131582	0.396114
C157	C	0.587709	-0.167336	0.413927
C158	C	0.607098	-0.185271	0.451202
C159	C	0.649009	-0.224034	0.470516
C160	C	0.587833	-0.167452	0.470663
C161	C	0.549183	-0.131705	0.452851
C162	C	0.529795	-0.113769	0.415575
C163	C	0.321414	0.096062	0.453236
C164	C	0.303599	0.116774	0.471177
C165	C	0.266326	0.155503	0.451839
C166	C	0.247010	0.177966	0.471285
C167	C	0.246866	0.173518	0.414560
C168	C	0.264676	0.152803	0.396622
C169	C	0.301955	0.114074	0.415965
C170	C	0.321411	0.096065	0.168471
C171	C	0.303598	0.116780	0.129818
C172	C	0.266323	0.155509	0.110429
C173	C	0.247008	0.177973	0.068518
C174	C	0.246865	0.173524	0.129694
C175	C	0.264679	0.152808	0.168345
C176	C	0.301953	0.114076	0.187732
C177	C	0.487886	-0.075004	0.396262
C178	C	0.454481	-0.044105	0.380868
C179	C	0.336660	0.073716	0.263049
C180	C	0.321265	0.091618	0.229643
C181	C	0.336661	0.073715	0.381006
C182	C	0.321266	0.091617	0.396511
C183	C	0.745866	0.051078	0.361520
C184	C	0.746126	0.013200	0.380417
C185	C	0.745879	0.051069	0.304926
C186	C	0.746138	0.013191	0.323909
C187	C	0.745865	-0.005522	0.361523
C188	C	0.746139	0.069705	0.323906
C189	C	0.735614	0.153012	0.396070
C190	C	0.732713	0.173854	0.413882
C191	C	0.731249	0.155974	0.451155
C192	C	0.728097	0.178574	0.470466
C193	C	0.732690	0.117250	0.470616
C194	C	0.735596	0.096409	0.452806
C195	C	0.737058	0.114292	0.415532
C196	C	0.735594	-0.131747	0.453199
C197	C	0.732691	-0.167499	0.471140
C198	C	0.731239	-0.185437	0.451804
C199	C	0.728087	-0.224197	0.471249
C200	C	0.732694	-0.167624	0.414526
C201	C	0.735603	-0.131879	0.396589
C202	C	0.737050	-0.113940	0.415930
C203	C	0.735664	0.152975	0.168443
C204	C	0.732771	0.173810	0.129791
C205	C	0.731320	0.155921	0.110404
C206	C	0.728181	0.178511	0.068494
C207	C	0.732759	0.117201	0.129668
C208	C	0.735651	0.096369	0.168319
C209	C	0.737107	0.114258	0.187704
C210	C	0.740205	0.091692	0.396222
C211	C	0.742716	0.073678	0.380830
C212	C	0.742742	0.073658	0.263018
C213	C	0.740242	0.091665	0.229613
C214	C	0.742713	-0.044281	0.380972
C215	C	0.740201	-0.075178	0.396476
C216	C	0.689717	0.440717	-0.361622
C217	C	0.689458	0.421994	-0.380516
C218	C	0.689705	0.384125	-0.305024
C219	C	0.689447	0.365488	-0.324004
C220	C	0.689720	0.384115	-0.361617
C221	C	0.689443	0.422005	-0.324008
C222	C	0.699965	0.566959	-0.396188
C223	C	0.702865	0.602713	-0.414003
C224	C	0.704328	0.620642	-0.451276
C225	C	0.707479	0.659404	-0.470592
C226	C	0.702888	0.602818	-0.470734
C227	C	0.699983	0.567071	-0.452920
C228	C	0.698522	0.549142	-0.415646
C229	C	0.699994	0.339286	-0.453282
C230	C	0.702898	0.318569	-0.471219
C231	C	0.704351	0.279840	-0.451879
C232	C	0.707504	0.257372	-0.471321
C233	C	0.702896	0.261832	-0.414601
C234	C	0.699986	0.282552	-0.396668
C235	C	0.698538	0.321280	-0.416013
C236	C	0.699919	0.339339	-0.168545
C237	C	0.702812	0.318629	-0.129893
C238	C	0.704264	0.279900	-0.110502
C239	C	0.707403	0.257443	-0.068593
C240	C	0.702826	0.261881	-0.129763
C241	C	0.699934	0.282591	-0.168413
C242	C	0.698477	0.321323	-0.187803
C243	C	0.695376	0.510377	-0.396332
C244	C	0.692866	0.479479	-0.380936
C245	C	0.692842	0.361671	-0.263117
C246	C	0.695342	0.343774	-0.229712
C247	C	0.692874	0.361649	-0.381062
C248	C	0.695386	0.343743	-0.396563
C249	C	0.356186	0.384135	0.361527
C250	C	0.393801	0.365499	0.380426
C251	C	0.356190	0.440736	0.304932
C252	C	0.393805	0.422015	0.323917
C253	C	0.412786	0.384132	0.361532
C254	C	0.337291	0.422018	0.323912
C255	C	0.264501	0.339331	0.396079
C256	C	0.246559	0.318620	0.413891
C257	C	0.265897	0.279887	0.451165
C258	C	0.246448	0.257424	0.470477
C259	C	0.303177	0.261869	0.470627
C260	C	0.321114	0.282584	0.452817
C261	C	0.301774	0.321317	0.415541
C262	C	0.549269	0.282194	0.453215
C263	C	0.587921	0.261354	0.471156
C264	C	0.607314	0.279236	0.451821
C265	C	0.649223	0.256641	0.471268
C266	C	0.588051	0.317966	0.414541
C267	C	0.549399	0.338809	0.396603
C268	C	0.530011	0.320917	0.415944
C269	C	0.264518	0.566990	0.168444
C270	C	0.246582	0.602744	0.129791
C271	C	0.265924	0.620680	0.110404
C272	C	0.246479	0.659446	0.068493
C273	C	0.303202	0.602857	0.129670
C274	C	0.321136	0.567102	0.168321
C275	C	0.301789	0.549174	0.187707
C276	C	0.321229	0.343773	0.396231
C277	C	0.336735	0.361675	0.380838
C278	C	0.336743	0.479502	0.263023
C279	C	0.321241	0.510404	0.229617
C280	C	0.454695	0.361533	0.380982
C281	C	0.488100	0.343519	0.396488
O282	O	0.708402	0.223813	0.548503
O283	O	0.726959	0.159804	0.503059
O284	O	0.662956	0.223814	0.503045
O285	O	0.772405	0.159803	0.548516
O286	O	0.662969	0.275791	0.451063
O287	O	0.726972	0.211781	0.451077
O288	O	0.708415	0.275790	0.496521
Cu289	Cu	0.717694	0.248531	0.469052
Cu290	Cu	0.717679	0.187062	0.530527
O291	O	0.772418	0.211780	0.496534
C292	C	0.022798	1.051063	-0.361634
C293	C	0.041783	1.069695	-0.380528
C294	C	0.079393	0.994458	-0.305034
C295	C	0.098293	1.013176	-0.324014
C296	C	0.079398	1.051059	-0.361629
C297	C	0.041778	1.013180	-0.324019
C298	C	-0.113690	1.095881	-0.396203
C299	C	-0.152342	1.116596	-0.414020
C300	C	-0.171729	1.155328	-0.451294
C301	C	-0.213639	1.177795	-0.470612
C302	C	-0.152461	1.173343	-0.470752
C303	C	-0.113811	1.152624	-0.452937
C304	C	-0.094426	1.113892	-0.415661
C305	C	0.113969	1.152986	-0.453298
C306	C	0.131785	1.173823	-0.471235
C307	C	0.169059	1.155937	-0.451894
C308	C	0.188378	1.178529	-0.471337
C309	C	0.188517	1.117208	-0.414615
C310	C	0.170703	1.096368	-0.396681
C311	C	0.133425	1.114264	-0.416027
C312	C	0.113945	0.868208	-0.168550
C313	C	0.131756	0.832454	-0.129897
C314	C	0.169030	0.814515	-0.110505
C315	C	0.188343	0.775749	-0.068595
C316	C	0.188491	0.832334	-0.129767
C317	C	0.170679	0.868089	-0.168418
C318	C	0.133406	0.886021	-0.187808
C319	C	-0.052517	1.091432	-0.396346
C320	C	-0.019111	1.073527	-0.380949
C321	C	0.098704	0.955692	-0.263125
C322	C	0.114097	0.924790	-0.229719
C323	C	0.098714	1.073655	-0.381075
C324	C	0.114111	1.091665	-0.396576
H325	H	0.318965	0.230348	-0.013839
H326	H	0.026541	1.100183	-0.411432
H327	H	0.351765	0.064527	0.468989
H328	H	-0.097925	0.167516	0.019049
O329	O	0.411710	-0.005294	0.305726
C330	C	0.391236	-0.017969	0.295129
H331	H	0.360174	0.002389	0.293113
H332	H	0.404642	-0.054550	0.317551
C333	C	0.430869	-0.034901	0.258463
C334	C	0.392718	-0.009895	0.255984
H335	H	0.431785	-0.029923	0.234317
H336	H	0.444664	-0.026364	0.265603
H337	H	0.442037	-0.065384	0.277150
H338	H	0.381553	0.020587	0.237301
H339	H	0.378922	-0.018427	0.248839
O340	O	0.210396	0.620022	0.111043
C341	C	0.210410	0.616538	0.079969
H342	H	0.240326	0.588899	0.085490
H343	H	0.201691	0.649115	0.052630
C344	C	0.145047	0.640010	0.068716
C345	C	0.181790	0.606061	0.075498
H346	H	0.127391	0.633549	0.065957
H347	H	0.145037	0.642359	0.089650
H348	H	0.137787	0.667155	0.045934
H349	H	0.189051	0.578918	0.098282
H350	H	0.181800	0.603707	0.054567
H351	H	0.603622	-0.182060	0.501013
O352	O	0.078012	0.376720	-0.187160
C353	C	0.078028	0.411273	-0.218222
H354	H	0.103946	0.396758	-0.226976
H355	H	0.079437	0.431774	-0.209396
C356	C	0.009298	0.458759	-0.241499
C357	C	0.041129	0.440931	-0.252253
H358	H	-0.013464	0.477055	-0.262491
H359	H	0.009286	0.435481	-0.220571
H360	H	0.010477	0.475840	-0.234144
H361	H	0.039952	0.423846	-0.259604
H362	H	0.041140	0.464207	-0.273184
H363	H	-0.098126	1.167293	-0.468783
H364	H	-0.168026	1.101926	-0.398175
O365	O	0.411940	0.329104	0.417283
C366	C	0.387109	0.316590	0.429961
H367	H	0.364355	0.330008	0.404214
H368	H	0.372707	0.330647	0.446531
C369	C	0.438121	0.249330	0.487830
C370	C	0.410177	0.265806	0.456207
H371	H	0.452350	0.218004	0.504021
H372	H	0.454851	0.257761	0.479289
H373	H	0.426115	0.261048	0.501633
H374	H	0.422183	0.254093	0.442402
H375	H	0.393450	0.257372	0.464746
H376	H	0.248832	0.167478	0.184028
O377	O	0.704235	0.224258	-0.395823
C378	C	0.670641	0.232863	-0.386306
H379	H	0.646857	0.269696	-0.406392
H380	H	0.676387	0.222498	-0.355511
C381	C	0.687521	0.161268	-0.365705
C382	C	0.658308	0.206507	-0.390377
H383	H	0.679914	0.145009	-0.368214
H384	H	0.710155	0.155470	-0.372115
H385	H	0.692307	0.152637	-0.340045
H386	H	0.653526	0.215139	-0.416037
H387	H	0.635673	0.212307	-0.383971
O388	O	0.704180	0.224295	-0.110984
C389	C	0.670585	0.232902	-0.129104
H390	H	0.657521	0.262943	-0.160091
H391	H	0.649182	0.239746	-0.113466
C392	C	0.696494	0.155584	-0.090107
C393	C	0.680450	0.192478	-0.128166
H394	H	0.702578	0.130648	-0.089527
H395	H	0.719127	0.149785	-0.077897
H396	H	0.678656	0.161293	-0.077079
H397	H	0.698290	0.186770	-0.141192
H398	H	0.657820	0.198275	-0.140378
O399	O	0.135178	0.994497	-0.305890
C400	C	0.158448	0.981826	-0.326367
H401	H	0.140107	1.002193	-0.357430
H402	H	0.172600	0.945247	-0.312966
C403	C	0.212054	0.964868	-0.286724
C404	C	0.189527	0.989886	-0.324877
H405	H	0.231226	0.969838	-0.285803
H406	H	0.196377	0.973404	-0.272927
H407	H	0.223844	0.934388	-0.275560
H408	H	0.177735	1.020366	-0.336038
H409	H	0.205203	0.981356	-0.338676
O410	O	0.023357	0.441025	-0.417401
C411	C	0.012756	0.484775	-0.440659
H412	H	0.031864	0.488401	-0.426174
H413	H	-0.018380	0.508555	-0.445008
C414	C	-0.006047	0.491089	-0.497545
C415	C	0.017425	0.495542	-0.479756
H416	H	-0.003168	0.497732	-0.521663
H417	H	0.001094	0.461615	-0.481876
H418	H	-0.031991	0.510906	-0.501166
H419	H	0.043369	0.475721	-0.476131
H420	H	0.010288	0.525013	-0.495426
H421	H	0.533500	-0.117201	0.468699
H422	H	0.083618	1.167558	-0.469053
O423	O	0.737040	0.058763	0.187085
C424	C	0.739913	0.044206	0.225358
H425	H	0.728289	0.073292	0.227501
H426	H	0.771198	0.017683	0.244399
C427	C	0.730770	-0.010881	0.235916
C428	C	0.716490	0.024844	0.238548
H429	H	0.716323	-0.022826	0.244053
H430	H	0.728836	-0.001075	0.210132
H431	H	0.756841	-0.032978	0.251784
H432	H	0.690421	0.046943	0.222677
H433	H	0.718419	0.015041	0.264330
O434	O	0.210631	0.211104	0.110864
C435	C	0.186541	0.203988	0.097210
H436	H	0.199559	0.167107	0.114982
H437	H	0.183390	0.216772	0.065962
C438	C	0.130912	0.274065	0.078671
C439	C	0.146898	0.228768	0.100500
H440	H	0.106457	0.289352	0.080699
H441	H	0.147141	0.278860	0.087869
H442	H	0.128289	0.284712	0.052633
H443	H	0.149525	0.218120	0.126538
H444	H	0.130668	0.223972	0.091307
H445	H	0.731538	0.205382	0.398033
O446	O	0.688943	0.440631	-0.417390
C447	C	0.688780	0.415960	-0.430062
H448	H	0.677022	0.396794	-0.412061
H449	H	0.719231	0.391823	-0.426983
C450	C	0.677794	0.471045	-0.494490
C451	C	0.663349	0.447508	-0.472383
H452	H	0.662108	0.490505	-0.520595
H453	H	0.677905	0.487666	-0.485952
H454	H	0.703169	0.450927	-0.491919
H455	H	0.637976	0.467626	-0.474949
H456	H	0.663233	0.430891	-0.480922
H457	H	0.319447	0.102104	0.501529
H458	H	0.736789	-0.117379	0.366239
O459	O	0.530277	-0.114229	0.359911
C460	C	0.555569	-0.137616	0.346552
H461	H	0.579954	-0.171955	0.371985
H462	H	0.567731	-0.119006	0.328525
C463	C	0.503877	-0.099738	0.290717
C464	C	0.533825	-0.141915	0.321954
H465	H	0.490464	-0.102389	0.275543
H466	H	0.486837	-0.083981	0.299716
H467	H	0.514016	-0.084235	0.275699
H468	H	0.523685	-0.157416	0.336974
H469	H	0.550863	-0.157675	0.312957
H470	H	-0.168043	0.205317	0.013788
O471	O	0.112898	-0.184949	0.013622
C472	C	0.133606	-0.229804	0.044828
H473	H	0.152773	-0.235951	0.068686
H474	H	0.152006	-0.251446	0.035194
C475	C	0.081938	-0.233715	0.030399
C476	C	0.105478	-0.241264	0.059703
H477	H	0.064588	-0.240785	0.039574
H478	H	0.067987	-0.203496	0.009374
H479	H	0.097275	-0.251750	0.022374
H480	H	0.090141	-0.223224	0.067725
H481	H	0.119426	-0.271480	0.080730
H482	H	0.306394	0.437665	0.308662
O483	O	0.112904	1.211478	-0.507423
C484	C	0.109420	1.246020	-0.507393
H485	H	0.132689	1.231493	-0.481469
H486	H	0.080093	1.266520	-0.505983
C487	C	0.085218	1.293525	-0.576125
C488	C	0.113799	1.275683	-0.544286
H489	H	0.087917	1.311824	-0.598883
H490	H	0.087564	1.270255	-0.576145
H491	H	0.060782	1.310606	-0.574944
H492	H	0.138235	1.258598	-0.545465
H493	H	0.111458	1.298952	-0.544267
O494	O	0.357350	0.549728	0.187089
C495	C	0.369028	0.514332	0.225363
H496	H	0.351568	0.500563	0.227507
H497	H	0.364261	0.526581	0.244401
C498	C	0.433256	0.494633	0.235924
C499	C	0.411814	0.477719	0.238556
H500	H	0.459649	0.472049	0.244063
H501	H	0.425389	0.518481	0.210138
H502	H	0.429279	0.504840	0.251788
H503	H	0.415787	0.467518	0.222688
H504	H	0.419683	0.453869	0.264340
O505	O	0.245784	0.549496	0.187301
C506	C	0.266548	0.504641	0.200940
H507	H	0.297843	0.491276	0.203773
H508	H	0.254132	0.501464	0.179972
C509	C	0.225288	0.494405	0.236856
C510	C	0.263727	0.477989	0.240339
H511	H	0.223547	0.477964	0.261158
H512	H	0.211298	0.524625	0.227666
H513	H	0.214946	0.491757	0.219381
H514	H	0.274067	0.480642	0.257810
H515	H	0.277718	0.447768	0.249533
H516	H	0.319445	0.102111	0.114135
O517	O	0.224750	1.099768	-0.395835
C518	C	0.249737	1.056655	-0.386313
H519	H	0.236691	1.052955	-0.406398
H520	H	0.254350	1.031611	-0.355519
C521	C	0.304450	1.052934	-0.365711
C522	C	0.288427	1.048390	-0.390382
H523	H	0.328317	1.047834	-0.368218
H524	H	0.287616	1.081979	-0.372124
H525	H	0.308290	1.032064	-0.340051
H526	H	0.284583	1.069264	-0.416041
H527	H	0.305262	1.019348	-0.383972
O528	O	-0.171346	0.099813	0.013589
C529	C	-0.184987	0.089362	0.044804
H530	H	-0.187820	0.110125	0.055337
H531	H	-0.164022	0.052799	0.068950
C532	C	-0.220904	0.073789	0.019120
C533	C	-0.224386	0.099293	0.032055
H534	H	-0.245206	0.079913	0.011257
H535	H	-0.211712	0.080829	-0.001909
H536	H	-0.203431	0.043322	0.039244
H537	H	-0.241855	0.129759	0.011930
H538	H	-0.233582	0.092259	0.053081
H539	H	0.698730	0.370878	-0.184331
O540	O	0.113297	0.335618	-0.506907
C541	C	0.079612	0.337114	-0.507715
H542	H	0.070607	0.337265	-0.482687
H543	H	0.085170	0.306893	-0.505337
C544	C	0.058531	0.379181	-0.576361
C545	C	0.047470	0.379370	-0.545622
H546	H	0.038705	0.405245	-0.599744
H547	H	0.081226	0.378171	-0.575816
H548	H	0.063163	0.353994	-0.574374
H549	H	0.042843	0.404553	-0.547607
H550	H	0.024773	0.380385	-0.546168
H551	H	0.248751	0.370868	0.365728
O552	O	0.210356	0.336166	0.394924
C553	C	0.197131	0.374798	0.358210
H554	H	0.222635	0.373645	0.349411
H555	H	0.179135	0.404992	0.358789
C556	C	0.141218	0.379185	0.340013
C557	C	0.172543	0.377766	0.329205
H558	H	0.126049	0.381017	0.322122
H559	H	0.150127	0.353159	0.364749
H560	H	0.126226	0.404346	0.340497
H561	H	0.187537	0.352602	0.328727
H562	H	0.163636	0.403788	0.304468
H563	H	0.731506	-0.181999	0.501490
O564	O	0.135141	-0.005598	0.028872
C565	C	0.147823	-0.043123	0.029061
H566	H	0.122081	-0.040120	0.016706
H567	H	0.164358	-0.074078	0.059697
C568	C	0.205729	-0.050040	0.019745
C569	C	0.174113	-0.046351	0.004568
H570	H	0.221947	-0.052033	0.004638
H571	H	0.197186	-0.024760	0.019619
H572	H	0.219504	-0.075836	0.045275
H573	H	0.160336	-0.020552	-0.020960
H574	H	0.182654	-0.071626	0.004689
O575	O	0.210357	0.620127	-0.013713
C576	C	0.186198	0.664982	-0.044917
H577	H	0.199213	0.671143	-0.068780
H578	H	0.182944	0.686627	-0.035282
C579	C	0.130635	0.668853	-0.030472
C580	C	0.146619	0.676418	-0.059782
H581	H	0.106221	0.675908	-0.039641
H582	H	0.146911	0.638633	-0.009449
H583	H	0.127927	0.686891	-0.022446
H584	H	0.149332	0.658377	-0.067804
H585	H	0.130342	0.706635	-0.080807
H586	H	0.603602	0.229821	0.501508
O587	O	0.704240	0.620269	-0.506963
C588	C	0.670655	0.635733	-0.531957
H589	H	0.646864	0.642772	-0.518916
H590	H	0.676411	0.609550	-0.536569
C591	C	0.687549	0.669840	-0.586663
C592	C	0.658328	0.678490	-0.570647
H593	H	0.679946	0.696214	-0.610530
H594	H	0.710177	0.659421	-0.569825
H595	H	0.692343	0.648020	-0.590503
H596	H	0.653537	0.700306	-0.566804
H597	H	0.635699	0.688914	-0.587486
H598	H	0.603861	0.230367	-0.013863
O599	O	0.321970	0.224203	0.506807
C600	C	0.325368	0.189729	0.506718
H601	H	0.323157	0.197539	0.476801
H602	H	0.301436	0.186353	0.515330
C603	C	0.367109	0.136489	0.572141
C604	C	0.364396	0.146080	0.535398
H605	H	0.391182	0.109564	0.589834
H606	H	0.364819	0.159715	0.572202
H607	H	0.347163	0.133678	0.579313
H608	H	0.384339	0.148896	0.528225
H609	H	0.366691	0.122854	0.535337
O610	O	-0.171231	1.210951	-0.506966
C611	C	-0.145941	1.222413	-0.520315
H612	H	-0.115187	1.191725	-0.503720
H613	H	-0.149918	1.248198	-0.515942
C614	C	-0.192259	1.279250	-0.583604
C615	C	-0.154487	1.241557	-0.563224
H616	H	-0.197531	1.291061	-0.610073
H617	H	-0.209298	1.271529	-0.574610
H618	H	-0.195569	1.300733	-0.579956
H619	H	-0.151179	1.220073	-0.566868
H620	H	-0.137447	1.249275	-0.572219
H621	H	-0.097910	1.064343	-0.365853
H622	H	0.731577	0.102636	0.113881
O623	O	0.023545	0.994536	-0.305899
C624	C	-0.013801	1.019209	-0.330728
H625	H	-0.014973	1.038386	-0.361653
H626	H	-0.034856	1.043336	-0.324404
C627	C	-0.023132	0.964110	-0.286634
C628	C	-0.024571	0.987660	-0.324617
H629	H	-0.029777	0.944650	-0.282864
H630	H	0.002028	0.947488	-0.269906
H631	H	-0.040678	0.984220	-0.281369
H632	H	-0.007022	0.967550	-0.329881
H633	H	-0.049729	1.004278	-0.341347
O634	O	0.530488	0.264771	0.472063
C635	C	0.555778	0.226117	0.508808
H636	H	0.580164	0.227162	0.517716
H637	H	0.567940	0.195932	0.508221
C638	C	0.504083	0.221973	0.526763
C639	C	0.534033	0.223259	0.537706
H640	H	0.490670	0.220209	0.544589
H641	H	0.487045	0.248014	0.502007
H642	H	0.514222	0.196819	0.526275
H643	H	0.523893	0.248416	0.538190
H644	H	0.551069	0.197222	0.562463
H645	H	0.115906	0.817949	-0.114217
H646	H	0.216514	0.205049	0.398816
O647	O	0.606423	-0.184711	0.395067
C648	C	0.620074	-0.229566	0.415770
H649	H	0.602369	-0.235721	0.434945
H650	H	0.651351	-0.251209	0.434163
C651	C	0.638397	-0.233454	0.364087
C652	C	0.616649	-0.241013	0.387636
H653	H	0.636286	-0.240517	0.346733
H654	H	0.629202	-0.203235	0.350140
H655	H	0.664460	-0.251491	0.379419
H656	H	0.590586	-0.222973	0.372305
H657	H	0.625840	-0.271230	0.401580
O658	O	0.698532	0.549611	-0.359986
C659	C	0.700434	0.573000	-0.346630
H660	H	0.690482	0.607339	-0.372065
H661	H	0.731203	0.554393	-0.328604
C662	C	0.686613	0.535126	-0.290795
C663	C	0.674387	0.577302	-0.322034
H664	H	0.670547	0.537778	-0.275621
H665	H	0.685333	0.519366	-0.299792
H666	H	0.712254	0.519624	-0.275777
H667	H	0.648748	0.592801	-0.337054
H668	H	0.675662	0.593064	-0.313039
H669	H	0.409064	0.437712	-0.028890
H670	H	0.746565	-0.002475	0.308669
O671	O	0.300427	0.440723	-0.029017
C672	C	0.277159	0.453400	-0.062169
H673	H	0.295501	0.433030	-0.072864
H674	H	0.263014	0.489978	-0.085348
C675	C	0.223546	0.470371	-0.039491
C676	C	0.246073	0.445350	-0.052624
H677	H	0.204369	0.465408	-0.033605
H678	H	0.239221	0.461832	-0.017157
H679	H	0.211762	0.500850	-0.058809
H680	H	0.257861	0.414871	-0.033305
H681	H	0.230399	0.453883	-0.074956
O682	O	0.224669	-0.185073	0.013475
C683	C	0.224586	-0.181588	-0.021088
H684	H	0.194673	-0.153882	-0.043198
H685	H	0.233197	-0.214132	-0.015851
C686	C	0.290010	-0.205274	-0.008892
C687	C	0.253271	-0.171243	-0.036049
H688	H	0.307706	-0.198895	-0.018120
H689	H	0.290067	-0.207624	0.014395
H690	H	0.297181	-0.232391	-0.004530
H691	H	0.246099	-0.144128	-0.040406
H692	H	0.253214	-0.168889	-0.059336
H693	H	0.409046	0.437682	0.308677
O694	O	-0.095166	0.549816	-0.472098
C695	C	-0.113278	0.534333	-0.481610
H696	H	-0.144263	0.552243	-0.482551
H697	H	-0.097632	0.497290	-0.459130
C698	C	-0.074285	0.521268	-0.519940
C699	C	-0.112343	0.543269	-0.521099
H700	H	-0.073707	0.526778	-0.544299
H701	H	-0.062082	0.531698	-0.513531
H702	H	-0.061251	0.490401	-0.501205
H703	H	-0.125375	0.574136	-0.539831
H704	H	-0.124548	0.532844	-0.527513
O705	O	0.606913	0.335331	0.395816
C706	C	0.620554	0.345774	0.416587
H707	H	0.623381	0.325010	0.447881
H708	H	0.599590	0.382337	0.404171
C709	C	0.656480	0.361345	0.375337
C710	C	0.659956	0.335839	0.413774
H711	H	0.680785	0.355218	0.373601
H712	H	0.647289	0.354311	0.361343
H713	H	0.639009	0.391812	0.364995
H714	H	0.677423	0.305373	0.424114
H715	H	0.669151	0.342868	0.427771
O716	O	0.245675	0.549658	-0.019392
C717	C	0.208928	0.573050	-0.017492
H718	H	0.200030	0.607383	-0.027435
H719	H	0.209503	0.554436	0.013275
C720	C	0.190961	0.535196	-0.031337
C721	C	0.180031	0.577367	-0.043552
H722	H	0.173136	0.537857	-0.047410
H723	H	0.215719	0.519435	-0.032615
H724	H	0.191440	0.519689	-0.005697
H725	H	0.179557	0.592870	-0.069189
H726	H	0.155272	0.593130	-0.042278
H727	H	0.731594	0.205340	0.114106
O728	O	0.189645	0.885330	-0.187076
C729	C	0.226360	0.861837	-0.161671
H730	H	0.235159	0.827532	-0.137324
H731	H	0.225782	0.880408	-0.149468
C732	C	0.244554	0.899564	-0.213198
C733	C	0.255362	0.857429	-0.183296
H734	H	0.262444	0.896846	-0.226538
H735	H	0.219818	0.915393	-0.230314
H736	H	0.244072	0.915035	-0.203025
H737	H	0.255839	0.841960	-0.193470
H738	H	0.280099	0.841597	-0.166183
H739	H	0.083852	0.370608	-0.468754
H740	H	0.746547	-0.002461	0.411323
H741	H	0.186571	0.267898	-0.365820
O742	O	0.224725	0.814846	-0.110934
C743	C	0.248812	0.769986	-0.097281
H744	H	0.235795	0.763898	-0.115055
H745	H	0.251961	0.748369	-0.066034
C746	C	0.304444	0.765885	-0.078734
C747	C	0.288457	0.758409	-0.100567
H748	H	0.328900	0.758743	-0.080760
H749	H	0.288217	0.796108	-0.087932
H750	H	0.307065	0.747870	-0.052697
H751	H	0.285833	0.776428	-0.126604
H752	H	0.304686	0.728189	-0.091374
O753	O	0.245725	0.170368	0.360406
C754	C	0.209002	0.208985	0.347186
H755	H	0.209037	0.223041	0.363849
H756	H	0.187191	0.200640	0.351591
C757	C	0.198263	0.226191	0.283820
C758	C	0.198306	0.243456	0.304283
H759	H	0.191664	0.247454	0.257355
H760	H	0.223004	0.200173	0.292726
H761	H	0.180087	0.219237	0.287494
H762	H	0.216485	0.250404	0.300612
H763	H	0.173569	0.269476	0.295375
H764	H	0.026519	-0.002524	0.028802
O765	O	0.530750	0.376413	0.360386
C766	C	0.556149	0.387738	0.347167
H767	H	0.586867	0.356984	0.363833
H768	H	0.552207	0.413491	0.351569
C769	C	0.509993	0.444638	0.283798
C770	C	0.547722	0.406864	0.304265
H771	H	0.504794	0.456438	0.257334
H772	H	0.492881	0.437010	0.292704
H773	H	0.506713	0.466094	0.287471
H774	H	0.551000	0.385407	0.300596
H775	H	0.564834	0.414490	0.295358
O776	O	0.731218	-0.185014	0.395733
C777	C	0.696654	-0.181526	0.392328
H778	H	0.674543	-0.153817	0.394532
H779	H	0.701886	-0.214068	0.416261
C780	C	0.708858	-0.205220	0.350596
C781	C	0.681699	-0.171185	0.353299
H782	H	0.699633	-0.198843	0.326522
H783	H	0.732144	-0.207571	0.352890
H784	H	0.713215	-0.232335	0.370542
H785	H	0.677346	-0.144072	0.333356
H786	H	0.658411	-0.168829	0.351001
H787	H	0.746560	0.100190	0.308663
H788	H	-0.168278	0.617488	-0.501576
H789	H	0.409067	0.335045	-0.028882
H790	H	0.186549	1.064834	-0.366330
H791	H	0.351466	0.267912	0.468666
O792	O	0.411820	-0.005378	0.417328
C793	C	0.449154	-0.042909	0.430018
H794	H	0.458525	-0.039895	0.404282
H795	H	0.449458	-0.073856	0.446526
C796	C	0.465355	-0.049871	0.487956
C797	C	0.476866	-0.046169	0.456346
H798	H	0.482449	-0.051884	0.504198
H799	H	0.440202	-0.024587	0.479408
H800	H	0.465609	-0.075661	0.501709
H801	H	0.476607	-0.020377	0.442592
H802	H	0.502019	-0.071449	0.464893
H803	H	0.689015	0.437675	-0.308771
H804	H	0.689022	0.335005	-0.308760
H805	H	0.736848	0.167545	0.184224
H806	H	0.736805	0.167576	0.365721
H807	H	0.216246	0.333298	-0.013856
O808	O	0.704188	0.336202	-0.111246
C809	C	0.702293	0.374821	-0.136646
H810	H	0.688213	0.388868	-0.167364
H811	H	0.732447	0.366481	-0.132700
C812	C	0.695803	0.392042	-0.090495
C813	C	0.678506	0.409298	-0.128225
H814	H	0.681132	0.413309	-0.085300
H815	H	0.697081	0.366024	-0.073382
H816	H	0.720931	0.385093	-0.087212
H817	H	0.653381	0.416242	-0.131506
H818	H	0.677223	0.435319	-0.145338
O819	O	0.357337	0.265133	-0.019403
C820	C	0.358088	0.263604	-0.051575
H821	H	0.328144	0.289046	-0.073764
H822	H	0.368062	0.229186	-0.042453
C823	C	0.422661	0.242808	-0.041812
C824	C	0.385884	0.274060	-0.069067
H825	H	0.439808	0.249255	-0.052601
H826	H	0.422156	0.243836	-0.020137
H827	H	0.430967	0.214129	-0.034213
H828	H	0.377576	0.302736	-0.076662
H829	H	0.386388	0.273036	-0.090744
H830	H	0.026521	0.100131	0.028806
H831	H	0.731501	0.102695	0.500964
O832	O	0.736974	0.058811	0.471757
C833	C	0.735069	0.047491	0.508477
H834	H	0.720983	0.078247	0.508439
H835	H	0.765221	0.021733	0.530295
C836	C	0.728589	-0.009399	0.519212
C837	C	0.711284	0.028377	0.519165
H838	H	0.713919	-0.021192	0.525806
H839	H	0.729873	-0.001774	0.494474
H840	H	0.753714	-0.030859	0.537394
H841	H	0.686161	0.049838	0.500980
H842	H	0.709995	0.020755	0.543900
O843	O	0.077728	0.885592	-0.187323
C844	C	0.064372	0.862196	-0.162037
H845	H	0.080968	0.845526	-0.131280
H846	H	0.068736	0.836022	-0.166020
C847	C	0.001085	0.914989	-0.208359
C848	C	0.021466	0.894517	-0.170584
H849	H	-0.025382	0.934925	-0.213632
H850	H	0.010083	0.930750	-0.225396
H851	H	0.004725	0.893173	-0.211673
H852	H	0.017829	0.916332	-0.167271
H853	H	0.012466	0.878760	-0.153547
H854	H	-0.098152	0.064808	0.019035
H855	H	-0.098386	0.552847	-0.366318
H856	H	0.533738	0.267945	-0.019126
H857	H	0.736773	-0.117145	0.468950
O858	O	0.704201	0.620088	-0.395144
C859	C	0.672999	0.664945	-0.415848
H860	H	0.649142	0.671101	-0.435025
H861	H	0.682638	0.686586	-0.434237
C862	C	0.687424	0.668831	-0.364162
C863	C	0.658121	0.676392	-0.387714
H864	H	0.678247	0.675893	-0.346808
H865	H	0.708446	0.638611	-0.350214
H866	H	0.695454	0.686866	-0.379491
H867	H	0.650095	0.658353	-0.372386
H868	H	0.637097	0.706609	-0.401659
H869	H	0.318951	0.617462	0.113882
O870	O	0.321935	0.620374	-0.013691
C871	C	0.301170	0.665230	-0.044907
H872	H	0.269875	0.678594	-0.055438
H873	H	0.313588	0.668410	-0.069053
C874	C	0.342425	0.675468	-0.019226
C875	C	0.303987	0.691882	-0.032159
H876	H	0.344164	0.691908	-0.011364
H877	H	0.356416	0.645247	0.001804
H878	H	0.352768	0.678118	-0.039350
H879	H	0.293646	0.689227	-0.012034
H880	H	0.289995	0.722103	-0.053186
H881	H	0.698809	0.552563	-0.468765
O882	O	0.704261	0.336133	-0.507445
C883	C	0.670662	0.379252	-0.532383
H884	H	0.657585	0.393168	-0.515348
H885	H	0.649270	0.378225	-0.547022
C886	C	0.696586	0.391850	-0.583783
C887	C	0.680526	0.408944	-0.562861
H888	H	0.702670	0.410165	-0.602585
H889	H	0.719221	0.362799	-0.566983
H890	H	0.678757	0.390995	-0.595979
H891	H	0.698357	0.409793	-0.550662
H892	H	0.657894	0.437995	-0.579660
O893	O	0.357361	0.549861	-0.019338
C894	C	0.370582	0.573363	-0.017445
H895	H	0.353916	0.589996	-0.003358
H896	H	0.366183	0.599576	-0.047601
C897	C	0.433949	0.520732	-0.010972
C898	C	0.413482	0.541157	0.006333
H899	H	0.460412	0.500866	0.003694
H900	H	0.425042	0.504898	-0.012249
H901	H	0.430279	0.542580	-0.036101
H902	H	0.417148	0.519309	0.031459
H903	H	0.422390	0.556986	0.007615
O904	O	0.077742	0.170247	0.019308
C905	C	0.066188	0.143559	0.022168
H906	H	0.092552	0.108784	0.034585
H907	H	0.048594	0.158253	-0.007473
C908	C	0.009338	0.184241	0.033311
C909	C	0.041719	0.141529	0.048565
H910	H	-0.005757	0.182990	0.049592
H911	H	0.017121	0.202223	0.031383
H912	H	-0.005319	0.196482	0.008610
H913	H	0.056377	0.129291	0.073263
H914	H	0.033938	0.123545	0.050498
H915	H	0.248782	0.370883	-0.019125
H916	H	0.533511	0.370894	-0.019141
H917	H	0.186523	0.064803	0.019044
H918	H	0.603628	0.333317	-0.013883
H919	H	0.115910	0.205308	0.013799
H920	H	0.698813	0.370821	-0.469036
H921	H	0.698801	0.267887	-0.366318
O922	O	0.698479	0.265164	-0.187178
C923	C	0.663914	0.296246	-0.218243
H924	H	0.652513	0.330917	-0.226994
H925	H	0.642001	0.288831	-0.209421
C926	C	0.685161	0.250796	-0.241524
C927	C	0.671160	0.293380	-0.252274
H928	H	0.689630	0.249027	-0.262515
H929	H	0.708448	0.229854	-0.220594
H930	H	0.666899	0.244622	-0.234172
H931	H	0.689425	0.299551	-0.259621
H932	H	0.647877	0.314322	-0.273206
H933	H	0.083585	-0.117214	0.019042
H934	H	0.186523	-0.117435	0.019040
O935	O	0.113336	0.335672	-0.110955
C936	C	0.103823	0.378780	-0.129058
H937	H	0.102868	0.392812	-0.160049
H938	H	0.126309	0.377690	-0.113415
C939	C	0.065518	0.391153	-0.090039
C940	C	0.064342	0.408388	-0.128103
H941	H	0.041165	0.409416	-0.089448
H942	H	0.071928	0.362110	-0.077841
H943	H	0.084258	0.390245	-0.077007
H944	H	0.045605	0.409290	-0.141132
H945	H	0.057928	0.437432	-0.140302
H946	H	0.026284	0.437932	-0.308749
O947	O	0.224676	0.099817	0.013488
C948	C	0.225497	0.098298	-0.018689
H949	H	0.195555	0.123672	-0.040877
H950	H	0.235573	0.063853	-0.009573
C951	C	0.290001	0.077726	-0.008924
C952	C	0.253227	0.108894	-0.036178
H953	H	0.307108	0.084260	-0.019712
H954	H	0.289450	0.078748	0.012754
H955	H	0.298393	0.049024	-0.001331
H956	H	0.244835	0.137593	-0.043768
H957	H	0.253778	0.107877	-0.057859
O958	O	0.134904	0.329388	-0.305863
C959	C	0.147577	0.316859	-0.330685
H960	H	0.129597	0.346615	-0.361613
H961	H	0.144471	0.289505	-0.324374
C962	C	0.211990	0.263379	-0.286561
C963	C	0.189908	0.299928	-0.324547
H964	H	0.238102	0.252933	-0.282774
H965	H	0.203452	0.271819	-0.269836
H966	H	0.209397	0.240589	-0.281305
H967	H	0.192498	0.322719	-0.329800
H968	H	0.198448	0.291491	-0.341272
H969	H	0.219107	0.230092	-0.114187
H970	H	0.186571	0.267899	-0.184308
O971	O	0.224942	0.223969	-0.395039
C972	C	0.225688	0.191049	-0.361338
H973	H	0.195743	0.198806	-0.364593
H974	H	0.235659	0.190198	-0.336043
C975	C	0.290262	0.136235	-0.350298
C976	C	0.253484	0.145760	-0.354298
H977	H	0.307409	0.108297	-0.345954
H978	H	0.289760	0.158413	-0.373003
H979	H	0.298566	0.135528	-0.329220
H980	H	0.245178	0.146471	-0.375379
H981	H	0.253985	0.123580	-0.331597
O982	O	-0.171590	0.620487	-0.395811
C983	C	-0.202668	0.617002	-0.392413
H984	H	-0.197070	0.589296	-0.394621
H985	H	-0.229974	0.649546	-0.416347
C986	C	-0.214167	0.640691	-0.350677
C987	C	-0.207290	0.606659	-0.353385
H988	H	-0.217020	0.634313	-0.326604
H989	H	-0.193230	0.643041	-0.352967
H990	H	-0.236921	0.667808	-0.370624
H991	H	-0.184534	0.579544	-0.333441
H992	H	-0.228223	0.604304	-0.351091
H993	H	0.306171	0.100369	0.308700
H994	H	0.351759	0.064523	0.184256
