data_functionalizedCrystal
_audit_creation_method	'MofGen! by Chris Wilmer'
_symmetry_space_group_name_H-M	'P1'
_symmetry_Int_Tables_number	1
_symmetry_cell_setting	triclinic
loop_
_symmetry_equiv_pos_as_xyz
  x,y,z
_cell_length_a	21.395362
_cell_length_b	12.594516
_cell_length_c	21.395355
_cell_angle_alpha	90.011407
_cell_angle_beta	90.043940
_cell_angle_gamma	90.031933
loop_
_atom_site_label
_atom_site_type_symbol
_atom_site_fract_x
_atom_site_fract_y
_atom_site_fract_z
Zn1	Zn	0.957923	-0.423414	0.354617
Zn2	Zn	0.957853	-0.601379	0.249852
Zn3	Zn	0.853138	-0.423464	0.249818
Zn4	Zn	0.853134	-0.601400	0.354557
O5	O	0.905512	-0.512414	0.302211
O6	O	1.045592	-0.446992	0.340759
O7	O	0.943934	-0.577789	0.162170
O8	O	0.867069	-0.274511	0.263730
O9	O	1.045540	-0.577741	0.263789
O10	O	0.944055	-0.274475	0.340725
O11	O	0.867001	-0.447076	0.162144
O12	O	0.765460	-0.447097	0.263672
O13	O	0.867063	-0.577779	0.442243
O14	O	0.765457	-0.577827	0.340624
O15	O	0.944051	-0.447013	0.442287
O16	O	0.943930	-0.750327	0.263731
O17	O	0.866994	-0.750343	0.340657
C18	C	0.742724	-0.512471	0.302138
C19	C	0.673083	-0.512520	0.302122
C20	C	0.640385	-0.580681	0.342130
C21	C	0.574949	-0.580655	0.342158
C22	C	0.542215	-0.512479	0.302167
C23	C	0.574921	-0.444305	0.262155
C24	C	0.640355	-0.444326	0.262133
C25	C	0.438489	-0.503905	0.245761
C26	C	0.373056	-0.503892	0.245782
C27	C	0.340394	-0.512410	0.302236
C28	C	0.373173	-0.520963	0.358670
C29	C	0.438608	-0.520984	0.358648
C30	C	0.471262	-0.512449	0.302187
C31	C	0.236743	-0.580546	0.342278
C32	C	0.171307	-0.580513	0.342307
C33	C	0.171280	-0.444168	0.262298
C34	C	0.236715	-0.444196	0.262275
C35	C	0.269443	-0.512391	0.302264
C36	C	0.905471	-0.788955	0.302205
C37	C	0.905511	-0.907261	0.302223
C38	C	0.863661	-0.976561	0.344034
C39	C	0.848392	-1.047409	0.286856
C40	C	0.920837	-1.047212	0.359410
C41	C	0.890211	-0.976550	0.245015
C42	C	0.962683	-0.976347	0.317608
C43	C	0.947436	-1.047163	0.260391
C44	C	1.068935	-0.512359	0.302284
C45	C	1.138577	-0.512335	0.302315
C46	C	0.905564	-0.512393	0.465634
C47	C	0.905586	-0.512384	0.535275
C48	C	0.905570	-0.234793	0.302231
C49	C	0.905595	-0.116488	0.302239
C50	C	0.905496	-0.512359	0.139423
C51	C	0.905596	-0.512068	0.069782
C52	C	0.945672	-0.444291	0.568012
C53	C	0.945671	-0.444245	0.633448
C54	C	0.905591	-0.512311	0.666144
C55	C	0.865497	-0.580408	0.633399
C56	C	0.865495	-0.580445	0.567965
C57	C	0.900630	-0.608151	0.769815
C58	C	0.900636	-0.608116	0.835248
C59	C	0.905595	-0.512199	0.867965
C60	C	0.910560	-0.416312	0.835241
C61	C	0.910557	-0.416349	0.769806
C62	C	0.905589	-0.512279	0.737096
C63	C	0.945682	-0.444051	0.971654
C64	C	0.945677	-0.444003	1.037091
C65	C	0.865506	-0.580176	1.037041
C66	C	0.865508	-0.580214	0.971605
C67	C	0.905599	-0.512153	0.938916
H68	H	0.465294	-0.527945	0.404598
C69	C	0.337255	-0.530339	0.420775
C70	C	0.265280	-0.530311	0.420805
C71	C	0.229359	-0.539694	0.482907
C72	C	0.265412	-0.549104	0.544979
C73	C	0.337391	-0.549132	0.544952
C74	C	0.373313	-0.539750	0.482849
H75	H	0.238587	-0.523344	0.374854
H76	H	0.176075	-0.539673	0.482928
H77	H	0.238821	-0.556050	0.590951
H78	H	0.364084	-0.556099	0.590903
H79	H	0.426596	-0.539771	0.482829
H80	H	0.978317	-0.388869	0.541401
C81	C	0.821409	-0.655120	0.935596
C82	C	0.772223	-0.609028	0.890580
C83	C	0.728115	-0.683931	0.854573
C84	C	0.733193	-0.804925	0.863582
C85	C	0.782381	-0.851023	0.908600
C86	C	0.826489	-0.776120	0.944607
H87	H	0.768462	-0.519455	0.883909
H88	H	0.691703	-0.649805	0.821247
H89	H	0.700542	-0.860373	0.836927
H90	H	0.786142	-0.940596	0.915270
H91	H	0.862901	-0.810245	0.977932
C92	C	0.676383	-0.655688	0.386123
C93	C	0.721299	-0.739202	0.358877
C94	C	0.757298	-0.814207	0.402870
C95	C	0.748380	-0.805699	0.474109
C96	C	0.703461	-0.722182	0.501358
C97	C	0.667463	-0.647176	0.457365
H98	H	0.727903	-0.745503	0.306139
H99	H	0.790549	-0.876032	0.382699
H100	H	0.775028	-0.861223	0.506675
H101	H	0.696858	-0.715881	0.554096
H102	H	0.634211	-0.585351	0.477536
H103	H	0.877226	-0.945639	0.196646
C104	C	0.995289	-1.088806	0.212582
C105	C	0.988249	-1.060662	0.142893
C106	C	1.036097	-1.102316	0.095082
C107	C	1.090984	-1.172113	0.116959
C108	C	1.098027	-1.200260	0.186651
C109	C	1.050179	-1.158607	0.234463
H110	H	0.947616	-1.008991	0.126695
H111	H	1.030883	-1.081479	0.043491
H112	H	1.126404	-1.202947	0.081566
H113	H	1.138660	-1.251931	0.202850
H114	H	1.055393	-1.179444	0.286054
H115	H	0.828207	-0.945559	0.379340
H116	H	0.832866	-0.635585	1.063661
H117	H	0.346372	-0.496933	0.199830
H118	H	0.800081	-1.078645	0.273857
C119	C	0.538971	-0.655644	0.386166
C120	C	0.574970	-0.730655	0.430150
C121	C	0.538994	-0.805645	0.474156
C122	C	0.467019	-0.805624	0.474177
C123	C	0.431016	-0.730611	0.430191
C124	C	0.466992	-0.655620	0.386185
H125	H	0.628254	-0.730673	0.430136
H126	H	0.565646	-0.861175	0.506717
H127	H	0.440387	-0.861137	0.506753
H128	H	0.377732	-0.730593	0.430205
H129	H	0.440340	-0.600090	0.353624
H130	H	1.010983	-0.945114	0.330634
C131	C	0.474413	-0.494527	0.183657
C132	C	0.438362	-0.485129	0.121583
C133	C	0.474285	-0.475746	0.059482
C134	C	0.546260	-0.475760	0.059455
C135	C	0.582316	-0.485158	0.121531
C136	C	0.546392	-0.494541	0.183632
H137	H	0.385078	-0.485118	0.121601
H138	H	0.447594	-0.468789	0.013529
H139	H	0.572853	-0.468814	0.013484
H140	H	0.635599	-0.485169	0.121513
H141	H	0.573083	-0.501499	0.229585
C142	C	0.676326	-0.369352	0.218115
C143	C	0.667392	-0.248361	0.223348
C144	C	0.703364	-0.173389	0.179328
C145	C	0.748270	-0.219408	0.130076
C146	C	0.757207	-0.340405	0.124841
C147	C	0.721235	-0.415377	0.168861
H148	H	0.634148	-0.214289	0.259809
H149	H	0.696749	-0.083819	0.183203
H150	H	0.774899	-0.163910	0.097489
H151	H	0.790451	-0.374477	0.088380
H152	H	0.727850	-0.504947	0.164986
C153	C	0.938308	-1.089146	0.424733
C154	C	0.897313	-1.061275	0.481538
C155	C	0.914778	-1.103206	0.546862
C156	C	0.973237	-1.173007	0.555382
C157	C	1.014235	-1.200882	0.498576
C158	C	0.996770	-1.158952	0.433252
H159	H	0.854035	-1.009601	0.475232
H160	H	0.884428	-1.082571	0.588914
H161	H	0.986165	-1.204047	0.603739
H162	H	1.057513	-1.252557	0.504881
H163	H	1.027120	-1.179587	0.391200
H164	H	0.978313	-0.388790	0.660108
C165	C	0.135336	-0.655493	0.386321
C166	C	0.171339	-0.730500	0.430304
C167	C	0.135367	-0.805480	0.474319
C168	C	0.063392	-0.805454	0.474351
C169	C	0.027385	-0.730444	0.430366
C170	C	0.063357	-0.655463	0.386351
H171	H	0.224623	-0.730522	0.430282
H172	H	0.162022	-0.861008	0.506880
H173	H	0.036764	-0.860959	0.506933
H174	H	-0.025899	-0.730421	0.430388
H175	H	0.036702	-0.599936	0.353790
H176	H	0.263392	-0.636069	0.374843
H177	H	0.832862	-0.635825	0.660024
H178	H	0.914598	-0.338275	0.743165
H179	H	0.914599	-0.338207	0.861877
H180	H	0.978323	-0.388625	0.945037
C181	C	0.538916	-0.369309	0.218164
C182	C	0.574887	-0.294328	0.174154
C183	C	0.538883	-0.219323	0.130165
C184	C	0.466908	-0.219299	0.130186
C185	C	0.430933	-0.294284	0.174197
C186	C	0.466937	-0.369288	0.218187
H187	H	0.628171	-0.294342	0.174138
H188	H	0.565515	-0.163815	0.097585
H189	H	0.440256	-0.163776	0.097622
H190	H	0.377649	-0.294269	0.174214
H191	H	0.440306	-0.424796	0.250767
C192	C	0.895176	-0.713669	0.733830
C193	C	0.889725	-0.819138	0.769820
C194	C	0.884271	-0.924652	0.733836
C195	C	0.884268	-0.924697	0.661861
C196	C	0.889719	-0.819224	0.625866
C197	C	0.895173	-0.713710	0.661851
H198	H	0.889728	-0.819109	0.823104
H199	H	0.880236	-1.002730	0.760482
H200	H	0.880230	-1.002804	0.635223
H201	H	0.889716	-0.819253	0.572582
H202	H	0.899208	-0.635632	0.635204
H203	H	0.978319	-0.388548	1.063744
H204	H	0.896598	-0.686193	0.861887
H205	H	0.832849	-0.635892	0.541311
H206	H	0.144628	-0.388653	0.229739
C207	C	0.272684	-0.369227	0.218255
C208	C	0.317735	-0.285740	0.245466
C209	C	0.353704	-0.210765	0.201445
C210	C	0.344621	-0.219277	0.130213
C211	C	0.299568	-0.302768	0.102999
C212	C	0.263600	-0.377743	0.147020
H213	H	0.324461	-0.279435	0.298200
H214	H	0.387055	-0.148959	0.221591
H215	H	0.371246	-0.163776	0.097626
H216	H	0.292842	-0.309072	0.050265
H217	H	0.230248	-0.439548	0.126873
