data_functionalizedCrystal
_audit_creation_method	'MofGen! by Chris Wilmer'
_symmetry_space_group_name_H-M	'P1'
_symmetry_Int_Tables_number	1
_symmetry_cell_setting	triclinic
loop_
_symmetry_equiv_pos_as_xyz
  x,y,z
_cell_length_a	16.974885
_cell_length_b	15.995292
_cell_length_c	16.053802
_cell_angle_alpha	92.568169
_cell_angle_beta	91.069328
_cell_angle_gamma	83.430476
loop_
_atom_site_label
_atom_site_type_symbol
_atom_site_fract_x
_atom_site_fract_y
_atom_site_fract_z
O1	O	1.049046	0.106761	0.001393
O2	O	1.382380	0.440094	0.334726
O3	O	1.715713	0.773427	0.668059
O4	O	0.819584	0.119573	-0.014098
O5	O	1.152918	0.452906	0.319235
O6	O	1.486251	0.786240	0.652569
O7	O	0.940612	-0.008710	-0.005929
O8	O	1.273945	0.324623	0.327404
O9	O	1.607279	0.657957	0.660738
O10	O	0.928019	0.235044	-0.006777
O11	O	1.261352	0.568377	0.326557
O12	O	1.594686	0.901710	0.659890
O13	O	0.933950	-0.001678	0.132480
O14	O	1.267284	0.331655	0.465814
O15	O	1.600617	0.664989	0.799147
O16	O	0.812923	0.126605	0.124311
O17	O	1.146256	0.459938	0.457644
O18	O	1.479589	0.793272	0.790978
O19	O	1.042385	0.113793	0.139802
O20	O	1.375718	0.447126	0.473135
O21	O	1.709051	0.780459	0.806469
Zn22	Zn	0.926596	0.121315	0.154032
Zn23	Zn	1.259929	0.454649	0.487365
Zn24	Zn	1.593263	0.787982	0.820699
Zn25	Zn	0.935373	0.112050	-0.028328
Zn26	Zn	1.268707	0.445384	0.305005
Zn27	Zn	1.602040	0.778717	0.638339
O28	O	0.921357	0.242076	0.131633
O29	O	1.254691	0.575409	0.464966
O30	O	1.588024	0.908742	0.798299
C31	C	0.786891	0.122472	0.053124
C32	C	1.120224	0.455805	0.386458
C33	C	1.453558	0.789139	0.719791
C34	C	0.699399	0.120624	0.047217
C35	C	1.032733	0.453957	0.380551
C36	C	1.366066	0.787290	0.713884
C37	C	0.936769	-0.036391	0.063239
C38	C	1.270102	0.296942	0.396572
C39	C	1.603435	0.630276	0.729906
C40	C	0.935232	-0.129348	0.063129
C41	C	1.268566	0.203986	0.396462
C42	C	1.601899	0.537319	0.729796
C43	C	0.207311	0.109777	0.005813
C44	C	0.540645	0.443110	0.339146
C45	C	0.873978	0.776444	0.672480
C46	C	0.289518	0.111514	0.011374
C47	C	0.622852	0.444848	0.344707
C48	C	0.956185	0.778181	0.678041
C49	C	0.326982	0.116222	0.089602
C50	C	0.660315	0.449556	0.422936
C51	C	0.993649	0.782889	0.756269
C52	C	0.282235	0.119185	0.162274
C53	C	0.615568	0.452518	0.495607
C54	C	0.948902	0.785851	0.828941
C55	C	0.200030	0.117441	0.156712
C56	C	0.533364	0.450775	0.490045
C57	C	0.866697	0.784108	0.823379
C58	C	0.572448	0.121842	0.114327
C59	C	0.905781	0.455176	0.447661
C60	C	1.239114	0.788509	0.780994
C61	C	0.654658	0.123588	0.119884
C62	C	0.987992	0.456922	0.453217
C63	C	1.321325	0.790255	0.786550
C64	C	0.661936	0.115916	-0.031017
C65	C	0.995270	0.449250	0.302316
C66	C	1.328603	0.782583	0.635650
C67	C	0.579729	0.114178	-0.036572
C68	C	0.913062	0.447512	0.296761
C69	C	1.246396	0.780845	0.630095
C70	C	0.534990	0.117136	0.036100
C71	C	0.868323	0.450470	0.369433
C72	C	1.201656	0.783803	0.702766
N73	N	0.411010	0.118001	0.095289
N74	N	0.744344	0.451334	0.428622
N75	N	1.077677	0.784668	0.761955
N76	N	0.450964	0.115351	0.030413
N77	N	0.784297	0.448685	0.363746
N78	N	1.117630	0.782018	0.697079
C79	C	0.929583	-0.467098	0.062755
C80	C	1.262917	-0.133765	0.396089
C81	C	1.596250	0.199568	0.729422
C82	C	1.016923	-0.443574	0.068962
C83	C	1.350256	-0.110241	0.402295
C84	C	1.683589	0.223093	0.735628
C85	C	1.018598	-0.346911	0.068759
C86	C	1.351931	-0.013577	0.402092
C87	C	1.685265	0.319756	0.735426
C88	C	0.932386	-0.299536	0.062941
C89	C	1.265720	0.033797	0.396275
C90	C	1.599053	0.367130	0.729608
C91	C	0.892517	-0.332751	-0.019043
C92	C	1.225851	0.000582	0.314290
C93	C	1.559184	0.333916	0.647624
C94	C	0.891469	-0.429547	-0.019177
C95	C	1.224802	-0.096214	0.314156
C96	C	1.558135	0.237120	0.647489
C97	C	0.882109	-0.421412	0.138100
C98	C	1.215443	-0.088078	0.471433
C99	C	1.548776	0.245255	0.804766
C100	C	0.885296	-0.324859	0.139360
C101	C	1.218630	0.008475	0.472693
C102	C	1.551963	0.341808	0.806026
C103	C	0.933966	-0.204837	0.063043
C104	C	1.267299	0.128496	0.396377
C105	C	1.600633	0.461830	0.729710
C106	C	0.928001	-0.561798	0.062648
C107	C	1.261335	-0.228464	0.395981
C108	C	1.594668	0.104869	0.729314
C109	C	1.075078	0.110893	0.072578
C110	C	1.408412	0.444227	0.405911
C111	C	1.741745	0.777560	0.739245
C112	C	1.162570	0.112742	0.078479
C113	C	1.495904	0.446075	0.411812
C114	C	1.829237	0.779408	0.745146
C115	C	0.925201	0.269756	0.062463
C116	C	1.258534	0.603090	0.395796
C117	C	1.591867	0.936423	0.729130
C118	C	0.926737	0.362713	0.062568
C119	C	1.260071	0.696046	0.395901
C120	C	1.593404	1.029380	0.729234
N121	N	0.920612	0.127638	0.278488
N122	N	1.253945	0.460971	0.611822
N123	N	1.587278	0.794304	0.945155
N124	N	0.941364	0.105721	-0.152784
N125	N	1.274697	0.439055	0.180549
N126	N	1.608030	0.772388	0.513883
C127	C	0.972128	0.073073	0.325660
C128	C	1.305461	0.406406	0.658993
C129	C	1.638795	0.739739	0.992326
C130	C	0.967949	0.077503	0.412784
C131	C	1.301282	0.410837	0.746118
C132	C	1.634616	0.744170	1.079451
C133	C	0.912257	0.136504	0.452736
C134	C	1.245591	0.469837	0.786070
C135	C	1.578924	0.803170	1.119403
C136	C	0.860736	0.191071	0.405559
C137	C	1.194069	0.524404	0.738892
C138	C	1.527403	0.857738	1.072225
C139	C	0.864911	0.186636	0.318435
C140	C	1.198245	0.519969	0.651769
C141	C	1.531578	0.853303	0.985102
C142	C	0.894018	0.155854	0.712915
C143	C	1.227351	0.489187	1.046248
C144	C	1.560684	0.822520	1.379582
C145	C	0.889848	0.160286	0.800045
C146	C	1.223181	0.493620	1.133378
C147	C	1.556514	0.826953	1.466711
C148	C	0.997060	0.046717	0.807264
C149	C	1.330394	0.380050	1.140598
C150	C	1.663727	0.713384	1.473931
C151	C	1.001234	0.042290	0.720139
C152	C	1.334568	0.375624	1.053472
C153	C	1.667901	0.708957	1.386806
C154	C	0.949710	0.096855	0.672969
C155	C	1.283043	0.430188	1.006302
C156	C	1.616377	0.763521	1.339636
N157	N	0.907986	0.141036	0.541792
N158	N	1.241320	0.474369	0.875125
N159	N	1.574653	0.807702	1.208459
N160	N	0.953978	0.092318	0.583915
N161	N	1.287311	0.425652	0.917248
N162	N	1.620644	0.758985	1.250581
H163	H	0.176814	0.105949	-0.057889
H164	H	0.510148	0.439283	0.275444
H165	H	0.843481	0.772616	0.608778
H166	H	0.698372	0.113507	-0.090182
H167	H	1.031705	0.446840	0.243151
H168	H	1.365038	0.780174	0.576485
H169	H	0.685157	0.127428	0.183590
H170	H	1.018491	0.460761	0.516923
H171	H	1.351824	0.794095	0.850256
F172	F	0.914064	-0.454337	0.218813
F173	F	1.247397	-0.121004	0.552146
F174	F	1.580731	0.212329	0.885479
F175	F	0.807980	-0.448995	-0.029519
F176	F	1.141314	-0.115661	0.303814
F177	F	1.474647	0.217672	0.637147
F178	F	0.923178	-0.296611	0.218592
F179	F	1.256512	0.036723	0.551926
F180	F	1.589845	0.370056	0.885259
H181	H	1.046583	-0.005753	0.687612
H182	H	1.379916	0.327581	1.020945
H183	H	1.713250	0.660914	1.354279
F184	F	0.802745	-0.281635	0.140050
F185	F	1.136079	0.051698	0.473383
F186	F	1.469412	0.385031	0.806716
H187	H	0.829218	-0.301175	-0.026263
H188	H	1.162552	0.032158	0.307071
H189	H	1.495885	0.365492	0.640404
H190	H	0.817784	-0.435519	0.134293
H191	H	1.151118	-0.102186	0.467626
H192	H	1.484451	0.231147	0.800960
F193	F	0.152414	0.120590	0.234054
F194	F	0.485747	0.453924	0.567387
F195	F	0.819081	0.787257	0.900720
H196	H	0.815386	0.239108	0.438092
H197	H	1.148720	0.572441	0.771426
H198	H	1.482053	0.905775	1.104759
F199	F	0.524841	0.125008	0.191672
F200	F	0.858174	0.458341	0.525005
F201	F	1.191508	0.791675	0.858338
H202	H	1.017481	0.025032	0.293137
H203	H	1.350815	0.358365	0.626470
H204	H	1.684148	0.691698	0.959804
F205	F	0.539864	0.109168	-0.119833
F206	F	0.873197	0.442501	0.213500
F207	F	1.206530	0.775835	0.546833
H208	H	1.053119	-0.475380	0.014860
H209	H	1.386452	-0.142047	0.348193
H210	H	1.719786	0.191287	0.681527
H211	H	0.925676	-0.315611	-0.075815
H212	H	1.259009	0.017723	0.257518
H213	H	1.592343	0.351056	0.590851
F214	F	1.022777	0.019428	0.462988
F215	F	1.356111	0.352761	0.796321
F216	F	1.689444	0.686095	1.129654
F217	F	1.051891	-0.011353	0.857471
F218	F	1.385224	0.321981	1.190804
F219	F	1.718558	0.655314	1.524138
H220	H	0.325944	0.109095	-0.047799
H221	H	0.659278	0.442428	0.285535
H222	H	0.992611	0.775762	0.618868
F223	F	0.830570	0.223088	0.842559
F224	F	1.163903	0.556422	1.175892
F225	F	1.497237	0.889755	1.509226
H226	H	0.312745	0.123013	0.225969
H227	H	0.646078	0.456346	0.559303
H228	H	0.979411	0.789679	0.892636
H229	H	0.852066	0.200284	0.674516
H230	H	1.185399	0.533617	1.007849
H231	H	1.518733	0.866950	1.341182
F232	F	0.810078	0.244710	0.268233
F233	F	1.143411	0.578043	0.601566
F234	F	1.476745	0.911376	0.934900
H235	H	1.047865	-0.468616	0.127915
H236	H	1.381198	-0.135283	0.461248
H237	H	1.714532	0.198051	0.794582
F238	F	1.059724	-0.318176	0.145838
F239	F	1.393057	0.015158	0.479172
F240	F	1.726390	0.348491	0.812505
F241	F	1.067137	-0.326518	-0.002390
F242	F	1.400470	0.006815	0.330943
F243	F	1.733803	0.340148	0.664277
H244	H	0.924559	-0.459297	-0.076218
H245	H	1.257892	-0.125964	0.257116
H246	H	1.591225	0.207370	0.590449
