data_functionalizedCrystal
_audit_creation_method	'MofGen! by Chris Wilmer'
_symmetry_space_group_name_H-M	'P1'
_symmetry_Int_Tables_number	1
_symmetry_cell_setting	triclinic
loop_
_symmetry_equiv_pos_as_xyz
  x,y,z
_cell_length_a	10.654541
_cell_length_b	19.188930
_cell_length_c	9.130307
_cell_angle_alpha	89.991600
_cell_angle_beta	89.999822
_cell_angle_gamma	83.814355
loop_
_atom_site_label
_atom_site_type_symbol
_atom_site_fract_x
_atom_site_fract_y
_atom_site_fract_z
O1	O	1.665764	0.098053	-0.121773
O2	O	1.300087	0.107397	-0.121788
O3	O	1.493478	0.001138	-0.121751
O4	O	1.472373	0.204312	-0.121809
O5	O	1.493472	0.001137	0.121848
O6	O	1.300081	0.107396	0.121811
O7	O	1.665758	0.098052	0.121826
Cu8	Cu	1.482919	0.102724	0.144061
Cu9	Cu	1.482926	0.102725	-0.144023
O10	O	1.472367	0.204311	0.121790
C11	C	1.253300	0.106711	0.000011
C12	C	1.113900	0.104659	0.000006
C13	C	1.083241	0.231721	-0.000048
C14	C	1.002423	0.294284	-0.000081
C15	C	0.871446	0.292352	-0.000082
C16	C	0.821285	0.227849	-0.000046
C17	C	0.902103	0.165286	-0.000013
C18	C	1.033082	0.167225	-0.000016
C19	C	0.932762	0.038226	0.000052
C20	C	1.063740	0.040156	0.000043
C21	C	0.882602	-0.026277	0.000089
C22	C	0.963421	-0.088842	0.000111
C23	C	1.094405	-0.086908	0.000111
C24	C	1.144558	-0.022408	0.000076
C25	C	1.492792	-0.024878	0.000052
C26	C	1.490740	-0.102396	0.000065
C27	C	1.604215	-0.146578	0.000076
C28	C	1.602288	-0.219414	0.000053
C29	C	1.486878	-0.248065	0.000047
C30	C	1.373388	-0.203873	0.000028
C31	C	1.375319	-0.131038	0.000036
N32	N	1.398659	-0.356647	0.082945
N33	N	1.396833	-0.425838	0.082940
C34	C	1.481054	-0.467512	0.000017
N35	N	1.567190	-0.437383	-0.082881
N36	N	1.569020	-0.368186	-0.082869
C37	C	1.484772	-0.327041	0.000037
C38	C	1.592448	-0.590672	0.000001
C39	C	1.590515	-0.663510	-0.000031
C40	C	1.361612	-0.647967	-0.000042
C41	C	1.363548	-0.575131	-0.000024
C42	C	1.478969	-0.546488	0.000005
C43	C	1.712544	0.098738	0.000025
C44	C	1.851944	0.100790	0.000019
C45	C	1.473053	0.230327	-0.000017
C46	C	1.475105	0.307845	-0.000039
N47	N	1.482923	0.102723	0.346684
N48	N	1.482932	0.102721	-0.346646
C49	C	1.654240	0.008658	0.346706
C50	C	1.739906	-0.038372	0.423384
C51	C	1.739919	-0.038373	0.576717
C52	C	1.654253	0.008661	0.653377
C53	C	1.568586	0.055691	0.576699
C54	C	1.568585	0.055688	0.423362
C55	C	1.397265	0.149751	0.576677
C56	C	1.397257	0.149756	0.423343
C57	C	1.311599	0.196785	0.653336
C58	C	1.225937	0.243819	0.576658
C59	C	1.225929	0.243818	0.423315
C60	C	1.311590	0.196786	0.346665
H61	H	1.160201	-0.137855	0.000143
H62	H	1.311608	0.196779	0.778188
C63	C	1.719412	-0.559163	0.000011
N64	N	1.815043	-0.535432	0.000013
C65	C	1.654241	0.008658	0.178035
N66	N	1.654244	0.008657	0.050990
H67	H	1.271143	-0.539157	-0.000025
C68	C	1.311588	0.196780	0.177994
N69	N	1.311586	0.196771	0.050949
C70	C	1.234660	-0.679478	-0.000053
N71	N	1.139036	-0.703216	-0.000065
C72	C	1.834115	-0.090118	0.339048
N73	N	1.905065	-0.129097	0.275530
H74	H	1.251205	-0.020826	0.000058
C75	C	1.731182	-0.115076	0.000095
N76	N	1.826815	-0.091347	0.000106
H77	H	1.156188	0.282108	0.639083
H78	H	1.682925	-0.699483	-0.000030
H79	H	1.694696	-0.255395	0.000056
H80	H	0.805642	0.343297	-0.000099
H81	H	1.189888	0.233300	-0.000080
H82	H	0.714635	0.226282	-0.000029
H83	H	1.043278	0.346802	-0.000107
C84	C	0.908235	-0.159788	0.000155
N85	N	0.866664	-0.213225	0.000184
C86	C	1.246437	-0.235390	0.000032
N87	N	1.150814	-0.259129	0.000035
C88	C	1.834155	-0.090108	0.661065
N89	N	1.905135	-0.129075	0.724596
C90	C	1.131707	0.295568	0.338982
N91	N	1.060745	0.334552	0.275467
H92	H	0.775953	-0.027846	0.000096
H93	H	1.282910	-0.095064	0.000027
H94	H	1.654258	0.008652	0.778229
