data_functionalizedCrystal
_audit_creation_method	'MofGen! by Chris Wilmer'
_symmetry_space_group_name_H-M	'P1'
_symmetry_Int_Tables_number	1
_symmetry_cell_setting	triclinic
loop_
_symmetry_equiv_pos_as_xyz
  x,y,z
_cell_length_a	19.288862
_cell_length_b	19.288859
_cell_length_c	17.766277
_cell_angle_alpha	89.993887
_cell_angle_beta	90.026014
_cell_angle_gamma	96.865496
loop_
_atom_site_label
_atom_site_type_symbol
_atom_site_fract_x
_atom_site_fract_y
_atom_site_fract_z
O1	O	-0.921352	0.086641	-0.062884
O2	O	-0.719091	0.098332	-0.062822
O3	O	-0.826068	-0.008644	-0.062850
O4	O	-0.814375	0.193617	-0.062856
O5	O	-0.826050	-0.008650	0.062338
O6	O	-0.719072	0.098326	0.062367
O7	O	-0.921333	0.086636	0.062304
Cu8	Cu	-0.820201	0.092481	0.073766
Cu9	Cu	-0.820223	0.092487	-0.074284
O10	O	-0.814356	0.193612	0.062333
C11	C	-0.693205	0.097953	-0.000220
C12	C	-0.616102	0.096825	-0.000196
C13	C	-0.571404	0.159593	-0.000207
C14	C	-0.498957	0.158533	-0.000211
C15	C	-0.471211	0.094701	-0.000220
C16	C	-0.515918	0.031924	-0.000204
C17	C	-0.588364	0.032986	-0.000192
C18	C	-0.362956	0.044525	-0.044097
C19	C	-0.290512	0.043465	-0.044114
C20	C	-0.247765	0.091423	-0.000253
C21	C	-0.277470	0.140452	0.043614
C22	C	-0.349915	0.141514	0.043626
C23	C	-0.392657	0.093543	-0.000232
C24	C	-0.124511	0.153047	-0.000268
C25	C	-0.052063	0.151984	-0.000268
C26	C	-0.069026	0.025373	-0.000268
C27	C	-0.141472	0.026438	-0.000261
C28	C	-0.169210	0.090276	-0.000265
C29	C	-0.825683	-0.034523	-0.000256
C30	C	-0.824556	-0.111627	-0.000257
C31	C	0.052781	0.087017	-0.000286
C32	C	-0.024322	0.088151	-0.000275
C33	C	-0.879699	-0.675668	-0.000294
C34	C	-0.880765	-0.603222	-0.000288
C35	C	-0.817995	-0.558515	-0.000269
C36	C	-0.754156	-0.586259	-0.000237
C37	C	-0.753093	-0.658704	-0.000236
C38	C	-0.771189	-0.437239	-0.044112
C39	C	-0.772255	-0.364795	-0.044118
C40	C	-0.821273	-0.335069	-0.000269
C41	C	-0.869236	-0.377797	0.043576
C42	C	-0.868173	-0.450242	0.043577
C43	C	-0.819142	-0.479959	-0.000270
C44	C	-0.886263	-0.228778	-0.000289
C45	C	-0.887326	-0.156330	-0.000278
C46	C	-0.760715	-0.139368	-0.000234
C47	C	-0.759655	-0.211815	-0.000238
C48	C	-0.822431	-0.256516	-0.000269
C49	C	-0.814741	0.219491	-0.000263
C50	C	-0.815868	0.296595	-0.000267
N51	N	-0.820191	0.092476	0.177897
N52	N	-0.820239	0.092486	-0.178414
C53	C	-0.867575	0.045130	0.217271
C54	C	-0.867579	0.045127	0.296073
C55	C	-0.820205	0.092481	0.335497
C56	C	-0.772812	0.139831	0.296113
C57	C	-0.772804	0.139828	0.217313
C58	C	-0.810905	0.155769	0.460335
C59	C	-0.810917	0.155773	0.539134
C60	C	-0.820224	0.092489	0.578543
C61	C	-0.829533	0.029200	0.539144
C62	C	-0.829526	0.029197	0.460344
C63	C	-0.820208	0.092489	0.420943
C64	C	-0.867616	0.045136	0.703364
C65	C	-0.867615	0.045132	0.782167
C66	C	-0.772850	0.139842	0.782206
C67	C	-0.772848	0.139840	0.703404
C68	C	-0.820234	0.092488	0.663988
H69	H	-0.374098	0.181433	0.079346
H70	H	-0.906167	0.006570	0.328137
Br71	Br	-0.708539	0.204100	0.649962
H72	H	-0.937379	-0.265175	-0.000313
Br73	Br	-0.478265	-0.054706	-0.000208
H74	H	-0.907225	-0.485028	0.079278
H75	H	-0.734238	0.178386	0.328217
Br76	Br	-0.708549	0.204102	0.835704
H77	H	-0.734217	0.178383	0.185254
Br78	Br	-0.438284	0.243725	-0.000222
H79	H	-0.242667	0.179504	0.079330
Br80	Br	-0.842152	-0.056691	0.406876
Br81	Br	-0.162160	0.239682	-0.000268
H82	H	-0.930817	-0.712060	-0.000315
Br83	Br	-0.931922	-0.019129	0.649868
H84	H	-0.837111	-0.022332	0.571230
H85	H	-0.707677	-0.234398	-0.000221
Br86	Br	-0.973962	-0.118686	-0.000317
Br87	Br	-0.931922	-0.019134	0.835608
H88	H	-0.593983	0.211575	-0.000211
H89	H	-0.709607	-0.102968	-0.000212
Br90	Br	-0.798291	0.241664	0.592596
Br91	Br	-0.707171	-0.306816	-0.103630
H92	H	-0.932745	-0.580634	-0.000310
H93	H	-0.015670	0.203100	-0.000273
Br94	Br	-0.031379	-0.061258	-0.000267
H95	H	-0.906158	0.006571	0.185180
Br96	Br	-0.202138	-0.058753	-0.000248
H97	H	-0.909147	-0.353595	0.079287
Br98	Br	-0.798343	0.241663	0.406859
H99	H	-0.731264	-0.461434	-0.079814
H100	H	-0.266331	0.003546	-0.079836
H101	H	-0.397756	0.005470	-0.079818
H102	H	-0.624757	-0.018129	-0.000183
Br103	Br	-0.668968	-0.525587	-0.000204
H104	H	-0.701112	-0.681286	-0.000211
