data_functionalizedCrystal
_audit_creation_method	'MofGen! by Chris Wilmer'
_symmetry_space_group_name_H-M	'P1'
_symmetry_Int_Tables_number	1
_symmetry_cell_setting	triclinic
loop_
_symmetry_equiv_pos_as_xyz
  x,y,z
_cell_length_a	12.759401
_cell_length_b	18.101397
_cell_length_c	12.759393
_cell_angle_alpha	89.962144
_cell_angle_beta	89.982549
_cell_angle_gamma	90.019510
loop_
_atom_site_label
_atom_site_type_symbol
_atom_site_fract_x
_atom_site_fract_y
_atom_site_fract_z
Zn1	Zn	1.606202	-0.294803	-0.593939
Zn2	Zn	1.606082	-0.418665	-0.418240
Zn3	Zn	1.430507	-0.294840	-0.418278
Zn4	Zn	1.430475	-0.418605	-0.593882
O5	O	1.518316	-0.356729	-0.506085
O6	O	1.753207	-0.311244	-0.570640
O7	O	1.582755	-0.402280	-0.271224
O8	O	1.453877	-0.191202	-0.441620
O9	O	1.753119	-0.402244	-0.441555
O10	O	1.582959	-0.191175	-0.570677
O11	O	1.453761	-0.311306	-0.271252
O12	O	1.283482	-0.311248	-0.441564
O13	O	1.453822	-0.402142	-0.740910
O14	O	1.283458	-0.402178	-0.570579
O15	O	1.582928	-0.311185	-0.740952
O16	O	1.582723	-0.522290	-0.441500
O17	O	1.453706	-0.522246	-0.570543
C18	C	1.245349	-0.356711	-0.506070
C19	C	1.128572	-0.356722	-0.506089
C20	C	1.073749	-0.309427	-0.573407
C21	C	0.964025	-0.309441	-0.573414
C22	C	0.963957	-0.404051	-0.438780
C23	C	1.073679	-0.404033	-0.438769
C24	C	1.073788	-0.254807	-0.651140
C25	C	0.964064	-0.254821	-0.651147
C26	C	1.518226	-0.549139	-0.506034
C27	C	1.518284	-0.631453	-0.506047
C28	C	1.518418	-0.930544	-0.506143
C29	C	1.599366	-0.899216	-0.424735
C30	C	1.599647	-0.813597	-0.424946
C31	C	1.518352	-0.782162	-0.506095
C32	C	1.548368	-0.813159	-0.616835
C33	C	1.548994	-0.898804	-0.616392
C34	C	1.407238	-0.899054	-0.477768
C35	C	1.407787	-0.813405	-0.475296
C36	C	1.518312	-0.698302	-0.506074
C37	C	1.518460	-1.014404	-0.506171
C38	C	1.792350	-0.356747	-0.506100
C39	C	1.909126	-0.356754	-0.506106
C40	C	1.518385	-0.356653	-0.780118
C41	C	1.518414	-0.356621	-0.896895
C42	C	1.518435	-0.163567	-0.506159
C43	C	1.518486	-0.081253	-0.506190
C44	C	1.451275	-0.309242	-0.951777
C45	C	1.451307	-0.309220	-1.061502
C46	C	1.585625	-0.403958	-1.061451
C47	C	1.585587	-0.403983	-0.951729
C48	C	1.373730	-0.254544	-0.951808
C49	C	1.373762	-0.254522	-1.061532
C50	C	1.518309	-0.356750	-0.233117
C51	C	1.518483	-0.356574	-0.116341
H52	H	0.930030	-0.200314	-0.622156
H53	H	1.640316	-0.442518	-1.106110
H54	H	0.919250	-0.442570	-0.383972
H55	H	1.118312	-0.442537	-0.383942
H56	H	1.103563	-0.197427	-0.629495
H57	H	1.292339	-0.269902	-0.922028
H58	H	1.580814	-0.919866	-0.342376
H59	H	1.681272	-0.920683	-0.443293
H60	H	1.682003	-0.793053	-0.443719
H61	H	1.402902	-0.200072	-0.917800
H62	H	0.934315	-0.270254	-0.732481
H63	H	1.630262	-0.918722	-0.640428
H64	H	1.346925	-0.919314	-0.537061
H65	H	1.580867	-0.792643	-0.342833
H66	H	1.492618	-0.919525	-0.679137
H67	H	1.296462	-0.275051	-1.095554
H68	H	1.344230	-0.792014	-0.530248
H69	H	1.628726	-0.791651	-0.641278
H70	H	1.107849	-0.275412	-0.728375
H71	H	1.491212	-0.792794	-0.679121
H72	H	1.395588	-0.197157	-1.091338
H73	H	1.379931	-0.920722	-0.398417
H74	H	1.385154	-0.793154	-0.393800
H75	H	1.640243	-0.442574	-0.907048
