data_functionalizedCrystal
_audit_creation_method	'MofGen! by Chris Wilmer'
_symmetry_space_group_name_H-M	'P1'
_symmetry_Int_Tables_number	1
_symmetry_cell_setting	triclinic
loop_
_symmetry_equiv_pos_as_xyz
  x,y,z
_cell_length_a	16.625548
_cell_length_b	16.625546
_cell_length_c	16.625539
_cell_angle_alpha	89.969603
_cell_angle_beta	89.979432
_cell_angle_gamma	90.023536
loop_
_atom_site_label
_atom_site_type_symbol
_atom_site_fract_x
_atom_site_fract_y
_atom_site_fract_z
Zn1	Zn	1.232680	-0.320977	-0.455898
Zn2	Zn	1.732680	0.179023	0.044102
Zn3	Zn	1.232584	-0.455820	-0.321060
Zn4	Zn	1.732584	0.044180	0.178940
Zn5	Zn	1.097842	-0.321008	-0.321078
Zn6	Zn	1.597842	0.178992	0.178922
Zn7	Zn	1.097813	-0.455774	-0.455850
Zn8	Zn	1.597813	0.044226	0.044150
O9	O	1.165230	-0.388395	-0.388471
O10	O	1.665230	0.111605	0.111529
O11	O	1.345500	-0.338871	-0.438024
O12	O	1.845500	0.161129	0.061976
O13	O	1.214682	-0.437969	-0.208230
O14	O	1.714682	0.062031	0.291770
O15	O	1.115782	-0.208171	-0.338990
O16	O	1.615782	0.291829	0.161010
O17	O	1.345429	-0.437940	-0.338959
O18	O	1.845429	0.062060	0.161041
O19	O	1.214847	-0.208149	-0.438041
O20	O	1.714847	0.291851	0.061959
O21	O	1.115688	-0.338923	-0.208243
O22	O	1.615688	0.161077	0.291757
O23	O	0.985006	-0.338878	-0.338944
O24	O	1.485006	0.161122	0.161056
O25	O	1.115731	-0.437861	-0.568689
O26	O	1.615731	0.062139	-0.068689
O27	O	0.984984	-0.437890	-0.437960
O28	O	1.484984	0.062110	0.062040
O29	O	1.214818	-0.338826	-0.568724
O30	O	1.714818	0.161174	-0.068724
O31	O	1.214653	-0.568647	-0.338912
O32	O	1.714653	-0.068647	0.161088
O33	O	1.115637	-0.568613	-0.437942
O34	O	1.615637	-0.068613	0.062058
C35	C	0.955739	-0.388383	-0.388449
C36	C	1.455739	0.111617	0.111551
C37	C	0.866118	-0.388398	-0.388458
C38	C	1.366118	0.111602	0.111542
C39	C	1.165153	-0.597886	-0.388438
C40	C	1.665153	-0.097886	0.111562
C41	C	1.165195	-0.687507	-0.388450
C42	C	1.665195	-0.187507	0.111550
C43	C	0.537942	-0.388403	-0.388493
C44	C	1.037942	0.111597	0.111507
C45	C	0.629251	-0.388399	-0.388481
C46	C	1.129251	0.111601	0.111519
C47	C	0.702027	-0.388401	-0.388475
C48	C	1.202027	0.111599	0.111525
C49	C	0.793341	-0.388396	-0.388464
C50	C	1.293341	0.111604	0.111536
C51	C	1.165335	-1.015682	-0.388534
C52	C	1.665335	-0.515682	0.111466
C53	C	1.165294	-0.924374	-0.388513
C54	C	1.665294	-0.424374	0.111487
C55	C	1.165264	-0.851598	-0.388492
C56	C	1.665264	-0.351598	0.111508
C57	C	1.165224	-0.760283	-0.388471
C58	C	1.665224	-0.260283	0.111529
C59	C	1.375539	-0.388407	-0.388494
C60	C	1.875539	0.111593	0.111506
C61	C	1.465160	-0.388412	-0.388504
C62	C	1.965160	0.111588	0.111496
C63	C	1.165282	-0.388335	-0.598780
C64	C	1.665282	0.111665	-0.098780
C65	C	1.165305	-0.388309	-0.688402
C66	C	1.665305	0.111691	-0.188402
C67	C	1.165328	-0.178086	-0.388523
C68	C	1.665328	0.321914	0.111477
C69	C	1.165370	-0.088465	-0.388545
C70	C	1.665370	0.411535	0.111455
C71	C	1.165342	-0.388219	-1.016577
C72	C	1.665342	0.111781	-0.516577
C73	C	1.165329	-0.388247	-0.925269
C74	C	1.665329	0.111753	-0.425269
C75	C	1.165324	-0.388265	-0.852492
C76	C	1.665324	0.111735	-0.352492
C77	C	1.165310	-0.388291	-0.761178
C78	C	1.665310	0.111709	-0.261178
C79	C	1.165224	-0.388397	-0.178981
C80	C	1.665224	0.111603	0.321019
C81	C	1.165358	-0.388195	-0.089360
C82	C	1.665358	0.111805	0.410640
