data_functionalizedCrystal
_audit_creation_method	'MofGen! by Chris Wilmer'
_symmetry_space_group_name_H-M	'P1'
_symmetry_Int_Tables_number	1
_symmetry_cell_setting	triclinic
loop_
_symmetry_equiv_pos_as_xyz
  x,y,z
_cell_length_a	19.288864
_cell_length_b	9.065215
_cell_length_c	17.766277
_cell_angle_alpha	89.994669
_cell_angle_beta	89.976791
_cell_angle_gamma	84.075472
loop_
_atom_site_label
_atom_site_type_symbol
_atom_site_fract_x
_atom_site_fract_y
_atom_site_fract_z
O1	O	0.922781	0.184032	-0.062834
O2	O	0.720713	0.208857	-0.062783
O3	O	0.825925	-0.018344	-0.062807
O4	O	0.817569	0.411234	-0.062811
O5	O	0.825906	-0.018356	0.062382
O6	O	0.720694	0.208846	0.062406
O7	O	0.922762	0.184020	0.062354
Cu8	Cu	0.821726	0.196432	0.073811
Cu9	Cu	0.821749	0.196446	-0.074239
O10	O	0.817550	0.411222	0.062378
C11	C	0.694821	0.208053	-0.000182
C12	C	0.617699	0.205655	-0.000162
C13	C	0.825113	-0.073309	-0.000213
C14	C	0.822713	-0.237068	-0.000215
C15	C	0.574037	0.338967	-0.000175
C16	C	0.501572	0.336714	-0.000184
C17	C	0.472773	0.201142	-0.000194
C18	C	0.516444	0.067813	-0.000177
C19	C	0.588907	0.070069	-0.000161
C20	C	0.363690	0.094571	-0.044077
C21	C	0.291229	0.092320	-0.044098
C22	C	0.249273	0.194176	-0.000239
C23	C	0.279787	0.298308	0.043630
C24	C	0.352250	0.300565	0.043646
C25	C	0.394200	0.198680	-0.000211
C26	C	0.127036	0.325054	-0.000261
C27	C	0.054571	0.322796	-0.000264
C28	C	0.069445	0.053891	-0.000265
C29	C	0.141909	0.056153	-0.000253
C30	C	0.170700	0.191739	-0.000255
C31	C	0.948654	0.184825	-0.000248
C32	C	1.025776	0.187223	-0.000273
C33	C	0.818362	0.466186	-0.000218
C34	C	0.820762	0.629946	-0.000221
N35	N	0.821716	0.196422	0.177941
N36	N	0.821765	0.196444	-0.178370
C37	C	0.868319	0.095866	0.217317
C38	C	0.868323	0.095859	0.296119
C39	C	0.821731	0.196433	0.335541
C40	C	0.775118	0.296997	0.296156
C41	C	0.775111	0.296991	0.217355
C42	C	0.813475	0.330849	0.460380
C43	C	0.813487	0.330857	0.539178
C44	C	0.821749	0.196451	0.578588
C45	C	0.830014	0.062032	0.539189
C46	C	0.830007	0.062026	0.460388
C47	C	0.821733	0.196450	0.420987
C48	C	0.868360	0.095879	0.703410
C49	C	0.868359	0.095871	0.782213
C50	C	0.775157	0.297021	0.782248
C51	C	0.775155	0.297017	0.703447
C52	C	0.821760	0.196448	0.664032
H53	H	0.597474	0.449371	-0.000178
H54	H	0.266390	0.007536	-0.079822
Br55	Br	0.222857	0.436557	0.103154
H56	H	0.737209	0.378905	0.671384
H57	H	0.045997	-0.056494	-0.000320
H58	H	0.624458	-0.038493	-0.000150
Br59	Br	0.420623	-0.043679	-0.103603
Br60	Br	0.841216	-0.120390	0.406920
H61	H	0.377092	0.385348	0.079368
H62	H	0.737160	0.378877	0.185294
H63	H	0.019021	0.431359	-0.000271
Br64	Br	0.931564	-0.040622	0.163826
H65	H	0.806762	0.440309	0.571251
Br66	Br	0.201168	-0.124780	-0.000237
H67	H	0.906275	0.013971	0.328185
H68	H	0.150480	0.435456	-0.000251
Br69	Br	0.841236	-0.120390	0.592662
H70	H	0.906307	0.013978	0.814274
Br71	Br	0.442305	0.517649	-0.000197
H72	H	0.492991	-0.042571	-0.000195
Br73	Br	0.931606	-0.040611	0.649917
H74	H	0.737218	0.378905	0.814345
Br75	Br	0.802331	0.513278	0.406903
Br76	Br	0.711880	0.433482	0.349654
