data_functionalizedCrystal
_audit_creation_method	'MofGen! by Chris Wilmer'
_symmetry_space_group_name_H-M	'P1'
_symmetry_Int_Tables_number	1
_symmetry_cell_setting	triclinic
loop_
_symmetry_equiv_pos_as_xyz
  x,y,z
_cell_length_a	21.395362
_cell_length_b	12.827892
_cell_length_c	21.395355
_cell_angle_alpha	89.986862
_cell_angle_beta	89.956060
_cell_angle_gamma	90.031272
loop_
_atom_site_label
_atom_site_type_symbol
_atom_site_fract_x
_atom_site_fract_y
_atom_site_fract_z
Zn1	Zn	0.957926	-0.415711	-0.354609
Zn2	Zn	1.457926	0.084289	0.145391
Zn3	Zn	0.957857	-0.590438	-0.249841
Zn4	Zn	1.457857	-0.090438	0.250159
Zn5	Zn	0.853141	-0.415760	-0.249810
Zn6	Zn	1.353141	0.084240	0.250190
Zn7	Zn	0.853138	-0.590459	-0.354546
Zn8	Zn	1.353138	-0.090459	0.145454
O9	O	0.905516	-0.503092	-0.302202
O10	O	1.405516	-0.003092	0.197798
O11	O	1.045595	-0.438860	-0.340751
O12	O	1.545595	0.061140	0.159249
O13	O	0.943938	-0.567278	-0.162159
O14	O	1.443938	-0.067278	0.337841
O15	O	0.867071	-0.269517	-0.263725
O16	O	1.367071	0.230483	0.236275
O17	O	1.045544	-0.567231	-0.263778
O18	O	1.545544	-0.067231	0.236222
O19	O	0.944056	-0.269482	-0.340721
O20	O	1.444056	0.230518	0.159279
O21	O	0.867004	-0.438943	-0.162137
O22	O	1.367004	0.061057	0.337863
O23	O	0.765463	-0.438963	-0.263664
O24	O	1.265463	0.061037	0.236336
O25	O	0.867067	-0.567267	-0.442232
O26	O	1.367067	-0.067267	0.057768
O27	O	0.765461	-0.567314	-0.340613
O28	O	1.265461	-0.067314	0.159387
O29	O	0.944054	-0.438881	-0.442279
O30	O	1.444054	0.061119	0.057721
O31	O	0.943935	-0.736677	-0.263717
O32	O	1.443935	-0.236677	0.236283
O33	O	0.866999	-0.736692	-0.340643
O34	O	1.366999	-0.236692	0.159357
C35	C	0.742728	-0.503147	-0.302129
C36	C	1.242728	-0.003147	0.197871
C37	C	0.673087	-0.503196	-0.302113
C38	C	1.173087	-0.003196	0.197887
C39	C	0.905476	-0.774602	-0.302191
C40	C	1.405476	-0.274602	0.197809
C41	C	0.905517	-0.890755	-0.302207
C42	C	1.405517	-0.390755	0.197793
C43	C	0.640389	-0.570117	-0.342120
C44	C	1.140389	-0.070117	0.157880
C45	C	0.574953	-0.570091	-0.342148
C46	C	1.074953	-0.070091	0.157852
C47	C	0.542218	-0.503156	-0.302157
C48	C	1.042218	-0.003156	0.197843
C49	C	0.574924	-0.436222	-0.262147
C50	C	1.074924	0.063778	0.237853
C51	C	0.640358	-0.436242	-0.262125
C52	C	1.140358	0.063758	0.237875
C53	C	0.438492	-0.494737	-0.245752
C54	C	0.938492	0.005263	0.254248
C55	C	0.373059	-0.494724	-0.245773
C56	C	0.873059	0.005276	0.254227
C57	C	0.340398	-0.503088	-0.302227
C58	C	0.840398	-0.003088	0.197773
C59	C	0.373177	-0.511486	-0.358661
C60	C	0.873177	-0.011486	0.141339
C61	C	0.438611	-0.511506	-0.358638
C62	C	0.938611	-0.011506	0.141362
C63	C	0.471266	-0.503126	-0.302177
C64	C	0.971266	-0.003126	0.197823
C65	C	0.236747	-0.569984	-0.342268
C66	C	0.736747	-0.069984	0.157732
C67	C	0.171311	-0.569951	-0.342297
C68	C	0.671311	-0.069951	0.157703
C69	C	0.171283	-0.436087	-0.262290
C70	C	0.671283	0.063913	0.237710
C71	C	0.236718	-0.436115	-0.262267
C72	C	0.736718	0.063885	0.237733
C73	C	0.269446	-0.503069	-0.302255
C74	C	0.769446	-0.003069	0.197745
C75	C	0.943633	-0.942497	-0.264184
C76	C	1.443633	-0.442497	0.235816
C77	C	0.943675	-1.062548	-0.264200
C78	C	1.443675	-0.562548	0.235800
C79	C	1.068939	-0.503037	-0.302275
C80	C	1.568939	-0.003037	0.197725
C81	C	1.138580	-0.503014	-0.302306
C82	C	1.638580	-0.003014	0.197694
C83	C	0.905568	-0.503071	-0.465625
C84	C	1.405568	-0.003071	0.034375
C85	C	0.905590	-0.503062	-0.535266
C86	C	1.405590	-0.003062	-0.035266
C87	C	0.905572	-0.230522	-0.302227
C88	C	1.405572	0.269478	0.197773
C89	C	0.905596	-0.114369	-0.302237
C90	C	1.405596	0.385631	0.197763
C91	C	0.945675	-0.436208	-0.568005
C92	C	1.445675	0.063792	-0.068005
C93	C	0.945674	-0.436163	-0.633440
C94	C	1.445674	0.063837	-0.133440
C95	C	0.905595	-0.502991	-0.666135
C96	C	1.405595	-0.002991	-0.166135
C97	C	0.865501	-0.569849	-0.633389
C98	C	1.365501	-0.069849	-0.133389
C99	C	0.865499	-0.569885	-0.567954
C100	C	1.365499	-0.069885	-0.067954
C101	C	0.900634	-0.597087	-0.769804
C102	C	1.400634	-0.097087	-0.269804
C103	C	0.900641	-0.597053	-0.835237
C104	C	1.400641	-0.097053	-0.335237
C105	C	0.905598	-0.502880	-0.867956
C106	C	1.405598	-0.002880	-0.367956
C107	C	0.910563	-0.408738	-0.835233
C108	C	1.410563	0.091262	-0.335233
C109	C	0.910560	-0.408774	-0.769799
C110	C	1.410560	0.091226	-0.269799
C111	C	0.905592	-0.502959	-0.737087
C112	C	1.405592	-0.002959	-0.237087
C113	C	0.945685	-0.435972	-0.971646
C114	C	1.445685	0.064028	-0.471646
C115	C	0.945680	-0.435925	-1.037083
C116	C	1.445680	0.064075	-0.537083
C117	C	0.865510	-0.569621	-1.037030
C118	C	1.365510	-0.069621	-0.537030
C119	C	0.865512	-0.569658	-0.971595
C120	C	1.365512	-0.069658	-0.471595
C121	C	0.905603	-0.502835	-0.938907
C122	C	1.405603	-0.002835	-0.438907
C123	C	0.905500	-0.503038	-0.139414
C124	C	1.405500	-0.003038	0.360586
C125	C	0.905599	-0.502752	-0.069773
C126	C	1.405599	-0.002752	0.430227
H127	H	0.667032	-0.624635	-0.374682
H128	H	1.167032	-0.124635	0.125318
H129	H	0.896429	-0.673754	-0.743170
H130	H	1.396429	-0.173754	-0.243170
C131	C	0.989777	-0.362383	-1.073095
C132	C	1.489777	0.137617	-0.573095
H133	H	1.013655	-0.322601	-1.044253
H134	H	1.513655	0.177399	-0.544253
H135	H	0.965823	-0.316839	-1.098600
H136	H	1.465823	0.183161	-0.598600
H137	H	1.017068	-0.402346	-1.098644
H138	H	1.517068	0.097654	-0.598644
C139	C	0.861509	-1.054277	-0.346219
C140	C	1.361509	-0.554277	0.153781
H141	H	0.837622	-1.102362	-0.370083
H142	H	1.337622	-0.602362	0.129917
H143	H	0.885471	-1.011630	-0.373519
H144	H	1.385471	-0.511630	0.126481
H145	H	0.834226	-1.011770	-0.322185
H146	H	1.334226	-0.511770	0.177815
C147	C	0.989772	-0.362454	-0.935687
C148	C	1.489772	0.137546	-0.435687
H149	H	1.013638	-0.322617	-0.964559
H150	H	1.513638	0.177383	-0.464559
H151	H	1.017065	-0.402425	-0.910182
H152	H	1.517065	0.097575	-0.410182
H153	H	0.965804	-0.316945	-0.910143
H154	H	1.465804	0.183055	-0.410143
H155	H	0.465080	-0.487922	-0.199777
H156	H	0.965080	0.012078	0.300223
H157	H	0.548326	-0.624586	-0.374729
H158	H	1.048326	-0.124586	0.125271
C159	C	0.987677	-0.882291	-0.220189
C160	C	1.487677	-0.382291	0.279811
H161	H	1.011599	-0.930321	-0.196339
H162	H	1.511599	-0.430321	0.303661
H163	H	0.963686	-0.839775	-0.192878
H164	H	1.463686	-0.339775	0.307122
H165	H	1.014929	-0.839646	-0.244214
H166	H	1.514929	-0.339646	0.255786
H167	H	0.346585	-0.518294	-0.404631
H168	H	0.846585	-0.018294	0.095369
H169	H	0.465297	-0.518341	-0.404589
H170	H	0.965297	-0.018341	0.095411
H171	H	0.872919	-0.935333	-0.334774
H172	H	1.372919	-0.435333	0.165226
C173	C	0.989770	-0.362625	-0.669463
C174	C	1.489770	0.137375	-0.169463
H175	H	0.984025	-0.372171	-0.713114
H176	H	1.484025	0.127829	-0.213114
H177	H	1.031863	-0.377913	-0.658772
H178	H	1.531863	0.122087	-0.158772
H179	H	0.980613	-0.292414	-0.658730
H180	H	1.480613	0.207586	-0.158730
C181	C	0.989768	-0.362698	-0.532051
C182	C	1.489768	0.137302	-0.032051
H183	H	1.013638	-0.322869	-0.560924
H184	H	1.513638	0.177131	-0.060924
H185	H	1.017058	-0.402675	-0.506546
H186	H	1.517058	0.097325	-0.006546
H187	H	0.965806	-0.317180	-0.506508
H188	H	1.465806	0.182820	-0.006508
C189	C	0.272751	-0.643618	-0.386258
C190	C	0.772751	-0.143618	0.113742
H191	H	0.243903	-0.683460	-0.410097
H192	H	0.743903	-0.183460	0.089903
H193	H	0.298230	-0.689102	-0.362237
H194	H	0.798230	-0.189102	0.137763
H195	H	0.298325	-0.603709	-0.413590
H196	H	0.798325	-0.103709	0.086410
C197	C	0.916010	-0.305227	-0.733807
C198	C	1.416010	0.194773	-0.233807
H199	H	0.918959	-0.249131	-0.762660
H200	H	1.418959	0.250869	-0.262660
H201	H	0.952325	-0.306582	-0.708304
H202	H	1.452325	0.193418	-0.208304
H203	H	0.880096	-0.296077	-0.708257
H204	H	1.380096	0.203923	-0.208257
C205	C	0.676330	-0.362631	-0.218114
C206	C	1.176330	0.137369	0.281886
H207	H	0.719988	-0.372228	-0.223831
H208	H	1.219988	0.127772	0.276169
H209	H	0.665552	-0.377812	-0.176004
H210	H	1.165552	0.122188	0.323996
H211	H	0.665650	-0.292433	-0.227366
H212	H	1.165650	0.207567	0.272634
H213	H	0.144689	-0.624444	-0.374879
H214	H	0.644689	-0.124444	0.125121
H215	H	0.914601	-0.332054	-0.861871
H216	H	1.414601	0.167946	-0.361871
C217	C	0.895188	-0.700601	-0.871228
C218	C	1.395188	-0.200601	-0.371228
H219	H	0.895910	-0.687095	-0.914884
H220	H	1.395910	-0.187095	-0.414884
H221	H	0.857037	-0.734037	-0.860483
H222	H	1.357037	-0.234037	-0.360483
H223	H	0.929266	-0.744550	-0.860528
H224	H	1.429266	-0.244550	-0.360528
C225	C	0.135282	-0.362446	-0.218309
C226	C	0.635282	0.137554	0.281691
H227	H	0.091628	-0.372018	-0.224052
H228	H	0.591628	0.127982	0.275948
H229	H	0.146052	-0.292263	-0.227552
H230	H	0.646052	0.207737	0.272448
H231	H	0.145948	-0.377636	-0.176187
H232	H	0.645948	0.122364	0.323813
C233	C	0.272687	-0.362514	-0.218250
C234	C	0.772687	0.137486	0.281750
H235	H	0.243822	-0.322652	-0.194433
H236	H	0.743822	0.177348	0.305567
H237	H	0.298262	-0.317048	-0.242252
H238	H	0.798262	0.182952	0.257748
H239	H	0.298162	-0.402441	-0.190900
H240	H	0.798162	0.097559	0.309100
H241	H	0.832870	-0.624022	-1.063650
H242	H	1.332870	-0.124022	-0.563650
H243	H	0.548267	-0.381721	-0.229588
H244	H	1.048267	0.118279	0.270412
C245	C	0.987758	-1.122651	-0.220219
C246	C	1.487758	-0.622651	0.279781
H247	H	0.982005	-1.195453	-0.226001
H248	H	1.482005	-0.695453	0.273999
H249	H	0.978612	-1.104861	-0.178099
H250	H	1.478612	-0.604861	0.321901
H251	H	1.029857	-1.104732	-0.229432
H252	H	1.529857	-0.604732	0.270568
C253	C	0.337005	-0.485561	-0.183697
C254	C	0.837005	0.014439	0.316303
H255	H	0.293357	-0.486782	-0.191793
H256	H	0.793357	0.013218	0.308207
H257	H	0.347717	-0.421912	-0.163698
H258	H	0.847717	0.078088	0.336302
H259	H	0.347692	-0.542376	-0.157305
H260	H	0.847692	-0.042376	0.342695
C261	C	0.821422	-0.643206	-0.935581
C262	C	1.321422	-0.143206	-0.435581
H263	H	0.797554	-0.683006	-0.964423
H264	H	1.297554	-0.183006	-0.464423
H265	H	0.794131	-0.603254	-0.910032
H266	H	1.294131	-0.103254	-0.410032
H267	H	0.845383	-0.688749	-0.910077
H268	H	1.345383	-0.188749	-0.410077
H269	H	0.832866	-0.624257	-0.660013
H270	H	1.332866	-0.124257	-0.160013
H271	H	0.832854	-0.624324	-0.541299
H272	H	1.332854	-0.124324	-0.041299
