data_functionalizedCrystal
_audit_creation_method	'MofGen! by Chris Wilmer'
_symmetry_space_group_name_H-M	'P1'
_symmetry_Int_Tables_number	1
_symmetry_cell_setting	triclinic
loop_
_symmetry_equiv_pos_as_xyz
  x,y,z
_cell_length_a	18.760490
_cell_length_b	14.560438
_cell_length_c	14.560438
_cell_angle_alpha	60.005799
_cell_angle_beta	90.018061
_cell_angle_gamma	60.023932
loop_
_atom_site_label
_atom_site_type_symbol
_atom_site_fract_x
_atom_site_fract_y
_atom_site_fract_z
Zr1	Zr	0.686571	1.005560	-0.120276
O2	O	0.572784	1.197086	-0.266914
O3	O	0.721449	0.813993	-0.075343
O4	O	0.721455	1.005581	-0.266920
O5	O	0.572779	1.005496	0.075803
O6	O	0.838733	1.005643	-0.266902
O7	O	0.572779	1.005498	-0.075338
O8	O	0.838723	0.662927	0.075793
O9	O	0.572789	1.348212	-0.266892
O10	O	0.823853	0.892849	-0.056144
O11	O	0.736329	0.892800	0.056638
O12	O	0.736336	1.118370	-0.168918
O13	O	0.648812	1.118322	-0.056137
Zr14	Zr	0.873617	1.005655	0.120804
Zr15	Zr	0.873617	1.005659	-0.120248
Zr16	Zr	0.686572	1.005556	0.120776
Zr17	Zr	0.686579	1.246587	-0.120241
Zr18	Zr	0.873610	0.764628	0.120769
O19	O	0.838740	1.197222	0.075871
O20	O	0.838739	1.197228	-0.266874
O21	O	0.572785	1.197080	0.075831
O22	O	0.987404	0.814129	0.267441
O23	O	0.987404	0.814135	-0.075304
O24	O	0.721449	0.813987	0.267402
O25	O	0.987410	1.005719	-0.075276
O26	O	0.838734	1.005634	0.267447
O27	O	0.721455	1.005572	0.267430
O28	O	0.987410	1.005717	0.075865
O29	O	0.721465	1.348291	-0.266869
O30	O	0.838723	0.662924	0.267397
O31	O	0.987400	0.663003	0.267419
O32	O	0.987399	0.663007	0.075815
O33	O	0.572789	1.348208	-0.075287
O34	O	0.721466	1.348288	-0.075265
O35	O	0.823853	0.892845	0.169446
O36	O	0.911376	0.892893	0.056664
O37	O	0.823860	1.118415	-0.056110
O38	O	0.736336	1.118366	0.056671
C39	C	0.780085	0.704119	0.000220
C40	C	0.780082	0.601796	0.000205
C41	C	0.715477	0.636890	-0.083027
C42	C	0.715491	0.540701	-0.082970
C43	C	0.844718	0.374326	0.083559
C44	C	0.844707	0.470514	0.083497
C45	C	0.650852	0.768172	-0.166319
C46	C	0.586242	0.803272	-0.249556
C47	C	0.586256	0.707083	-0.249500
C48	C	0.650880	0.575794	-0.166206
C49	C	0.546129	1.005483	0.000229
C50	C	0.466723	1.005440	0.000217
C51	C	0.130735	1.005742	-0.082968
C52	C	0.130851	1.005739	0.083570
C53	C	0.205498	1.005674	0.083552
C54	C	0.242767	1.005642	0.000273
C55	C	0.205390	1.005674	-0.082987
C56	C	0.242885	1.005629	0.166816
C57	C	0.317537	1.005563	0.166802
C58	C	0.354804	1.005540	0.083518
C59	C	0.317422	1.005573	0.000254
C60	C	0.354691	1.005541	-0.083024
C61	C	0.317307	1.005583	-0.166293
C62	C	0.242657	1.005650	-0.166270
C63	C	0.429453	1.005473	0.083495
C64	C	0.429346	1.005472	-0.083043
C65	C	1.014060	1.005732	0.000299
C66	C	1.093466	1.005775	0.000311
C67	C	0.780094	1.005613	-0.301256
C68	C	0.780094	1.005614	-0.403589
C69	C	0.780104	1.307096	0.000308
C70	C	0.780107	1.409419	0.000323
C71	C	0.734408	1.123332	-0.510532
C72	C	0.734410	1.123326	-0.606681
C73	C	0.825787	0.887874	-0.488929
C74	C	0.825789	0.887881	-0.392783
C75	C	0.688713	1.241065	-0.521338
C76	C	0.643022	1.358793	-0.628287
C77	C	0.643025	1.358786	-0.724435
C78	C	0.688718	1.241053	-0.713636
C79	C	0.780095	1.005602	0.301783
C80	C	0.780095	1.005601	0.404116
C81	C	1.014051	0.704243	0.000255
C82	C	1.093453	0.601963	0.000251
C83	C	0.780085	0.704114	0.301739
C84	C	0.780082	0.601789	0.404057
C85	C	1.014051	0.704238	0.301774
C86	C	1.093454	0.601956	0.404104
C87	C	0.546138	1.306977	-0.301246
C88	C	0.466735	1.409259	-0.403576
C89	C	0.546138	1.306972	0.000273
C90	C	0.466735	1.409252	0.000276
C91	C	0.780103	1.307101	-0.301211
C92	C	0.780107	1.409426	-0.403529
C93	C	1.085055	0.553908	-0.058645
C94	C	1.159655	0.457818	-0.058670
C95	C	1.242653	0.409779	0.000208
C96	C	1.251049	0.457844	0.059106
C97	C	1.176450	0.553938	0.059124
C98	C	1.176436	0.553949	0.393288
C99	C	1.251051	0.457858	0.489429
C100	C	1.242681	0.409769	0.596384
C101	C	1.159689	0.457786	0.607197
C102	C	1.085077	0.553882	0.511058
C103	C	0.383752	1.457278	-0.392760
C104	C	0.309138	1.553399	-0.488901
C105	C	0.317508	1.601493	-0.595856
C106	C	0.400499	1.553470	-0.606670
C107	C	0.475112	1.457357	-0.510530
C108	C	0.475134	1.457317	0.059162
C109	C	0.400533	1.553433	0.059161
C110	C	0.317536	1.601476	0.000280
C111	C	0.309140	1.553407	-0.058613
C112	C	0.383739	1.457299	-0.058618
C113	C	0.825768	0.553736	0.511011
C114	C	0.825759	0.457596	0.607145
C115	C	0.734375	0.457569	0.489359
C116	C	0.734380	0.553713	0.393227
C117	C	0.871470	0.601812	0.521841
C118	C	0.917161	0.553757	0.628800
C119	C	0.917151	0.457618	0.724934
C120	C	0.871451	0.409533	0.714110
H121	H	0.897330	0.267426	0.151375
H122	H	0.897312	0.441934	0.151273
H123	H	0.256800	1.679733	0.000293
H124	H	0.459683	1.005453	-0.150862
H125	H	0.256747	1.679754	-0.674130
H126	H	0.542707	1.418208	0.107118
F127	F	1.185401	0.605065	0.121820
F128	F	0.220800	1.604548	-0.121272
H129	H	0.347663	1.005548	-0.234095
H130	H	0.407304	1.592640	-0.693764
H131	H	0.605828	1.454645	-0.811513
H132	H	1.152887	0.418618	0.694293
F133	F	1.322098	0.307493	0.698696
H134	H	0.605826	1.454647	-0.637071
F135	F	0.203226	1.005653	0.255449
H136	H	1.183268	0.593089	0.306209
F137	F	0.374825	1.406107	-0.278940
F138	F	0.409488	1.604571	0.121850
F139	F	0.374787	1.406147	-0.121290
F140	F	0.357318	1.005522	0.255421
H141	H	0.871439	0.331259	0.792395
F142	F	0.220821	1.604488	-0.477369
H143	H	1.303389	0.331531	0.000185
F144	F	0.871486	0.704130	0.419532
F145	F	0.650829	0.870551	-0.166382
F146	F	0.517473	0.942995	-0.338205
F147	F	1.339368	0.406768	0.477897
H148	H	0.697180	0.592837	0.306139
F149	F	0.996762	0.604959	0.522586
H150	H	0.212215	1.005683	-0.234065
H151	H	0.697168	0.418409	0.480557
H152	H	0.542678	1.418261	-0.519350
F153	F	0.965788	0.604944	0.640315
H154	H	0.954348	0.418503	0.812020
H155	H	0.533652	0.735668	-0.317282
H156	H	0.650899	0.497477	-0.166184
H157	H	0.100293	1.005782	-0.150767
H158	H	0.100508	1.005756	0.151377
F159	F	0.688729	1.241052	-0.815970
H160	H	0.459892	1.005430	0.151296
H161	H	0.862986	0.792021	-0.480146
H162	H	0.688703	1.241084	-0.443056
H163	H	0.862989	0.792025	-0.305703
F164	F	1.150701	0.406678	-0.121356
F165	F	0.996730	0.605021	-0.121318
F166	F	1.339388	0.406700	0.121767
