data_functionalizedCrystal
_audit_creation_method	'MofGen! by Chris Wilmer'
_symmetry_space_group_name_H-M	'P1'
_symmetry_Int_Tables_number	1
_symmetry_cell_setting	triclinic
loop_
_symmetry_equiv_pos_as_xyz
  x,y,z
_cell_length_a	14.971486
_cell_length_b	10.654541
_cell_length_c	14.048226
_cell_angle_alpha	89.993817
_cell_angle_beta	89.998499
_cell_angle_gamma	84.049029
loop_
_atom_site_label
_atom_site_type_symbol
_atom_site_fract_x
_atom_site_fract_y
_atom_site_fract_z
O1	O	1.187837	0.163659	-0.079051
O2	O	1.687837	0.663659	0.420949
O3	O	0.927543	0.183258	-0.079076
O4	O	1.427543	0.683258	0.420924
O5	O	1.063676	-0.009345	-0.079057
O6	O	1.563676	0.490655	0.420943
O7	O	1.051704	0.356262	-0.079070
O8	O	1.551704	0.856262	0.420930
O9	O	1.063659	-0.009357	0.079264
O10	O	1.563659	0.490643	0.579264
O11	O	0.927526	0.183246	0.079245
O12	O	1.427526	0.683246	0.579245
O13	O	1.187820	0.163648	0.079271
O14	O	1.687820	0.663648	0.579271
Zn15	Zn	1.057671	0.173445	0.104395
Zn16	Zn	1.557671	0.673445	0.604395
Zn17	Zn	1.057692	0.173460	-0.104200
Zn18	Zn	1.557692	0.673460	0.395800
O19	O	1.051687	0.356251	0.079251
O20	O	1.551687	0.856251	0.579251
C21	C	0.894205	0.182376	0.000081
C22	C	1.394205	0.682376	0.500081
C23	C	0.794894	0.179749	0.000071
C24	C	1.294894	0.679749	0.500071
C25	C	1.062789	-0.056140	0.000103
C26	C	1.562789	0.443860	0.500103
C27	C	1.060160	-0.195555	0.000101
C28	C	1.560160	0.304445	0.500101
C29	C	0.738284	0.292898	0.000069
C30	C	1.238284	0.792898	0.500069
C31	C	0.644971	0.290423	0.000083
C32	C	1.144971	0.790423	0.500083
C33	C	0.608270	0.174797	0.000093
C34	C	1.108270	0.674797	0.500093
C35	C	0.664887	0.061639	0.000098
C36	C	1.164887	0.561639	0.500098
C37	C	0.758199	0.064116	0.000091
C38	C	1.258199	0.564116	0.500091
C39	C	0.470397	0.056485	0.000112
C40	C	0.970397	0.556485	0.500112
C41	C	0.377079	0.054008	0.000117
C42	C	0.877079	0.554008	0.500117
C43	C	0.357169	0.282792	0.000104
C44	C	0.857169	0.782792	0.500104
C45	C	0.450480	0.285268	0.000096
C46	C	0.950480	0.785268	0.500096
C47	C	0.507091	0.172110	0.000100
C48	C	1.007091	0.672110	0.500100
C49	C	1.222944	-0.225272	0.000129
C50	C	1.722944	0.274728	0.500129
C51	C	1.303097	-0.305626	0.000145
C52	C	1.803097	0.194374	0.500145
C53	C	1.300621	-0.436618	0.000142
C54	C	1.800621	0.063382	0.500142
C55	C	1.217984	-0.487256	0.000120
C56	C	1.717984	0.012744	0.500120
C57	C	1.137831	-0.406902	0.000104
C58	C	1.637831	0.093098	0.500104
C59	C	1.140315	-0.275909	0.000110
C60	C	1.640315	0.224091	0.500110
C61	C	0.975050	-0.377185	0.000069
C62	C	1.475050	0.122815	0.500069
C63	C	0.977523	-0.246194	0.000079
C64	C	1.477523	0.253806	0.500079
C65	C	0.892412	-0.427824	0.000047
C66	C	1.392412	0.072176	0.500047
C67	C	0.812257	-0.347470	0.000038
C68	C	1.312257	0.152530	0.500038
C69	C	0.814736	-0.216471	0.000042
C70	C	1.314736	0.283529	0.500042
C71	C	0.897370	-0.165839	0.000063
C72	C	1.397370	0.334161	0.500063
C73	C	1.221158	0.164530	0.000111
C74	C	1.721158	0.664530	0.500111
C75	C	1.320469	0.167157	0.000115
C76	C	1.820469	0.667157	0.500115
C77	C	1.052574	0.403045	0.000089
C78	C	1.552574	0.903045	0.500089
C79	C	1.055203	0.542460	0.000085
C80	C	1.555203	1.042460	0.500085
N81	N	1.057662	0.173434	0.246755
N82	N	1.557662	0.673434	0.746755
N83	N	1.057708	0.173461	-0.246561
N84	N	1.557708	0.673461	0.253439
C85	C	1.117961	0.088185	0.296582
C86	C	1.617961	0.588185	0.796582
C87	C	1.117967	0.088184	0.396240
C88	C	1.617967	0.588184	0.896240
C89	C	1.057678	0.173440	0.446069
C90	C	1.557678	0.673440	0.946069
C91	C	0.997373	0.258693	0.396235
C92	C	1.497373	0.758693	0.896235
C93	C	0.997363	0.258687	0.296579
C94	C	1.497363	0.758687	0.796579
C95	C	0.997398	0.258702	0.603950
C96	C	1.497398	0.758702	1.103950
C97	C	0.997409	0.258711	0.703612
C98	C	1.497409	0.758711	1.203612
C99	C	1.118003	0.088200	0.703610
C100	C	1.618003	0.588200	1.203610
C101	C	1.117993	0.088193	0.603954
C102	C	1.617993	0.588193	1.103954
C103	C	1.057688	0.173449	0.554127
C104	C	1.557688	0.673449	1.054127
H105	H	0.768157	0.387054	0.000060
H106	H	1.268157	0.887054	0.500060
F107	F	0.625825	-0.061419	0.000115
F108	F	1.125825	0.438581	0.500115
H109	H	0.948314	0.328133	0.744178
H110	H	1.448314	0.828133	1.244178
F111	F	0.724319	-0.401371	0.000004
F112	F	1.224319	0.098629	0.500004
F113	F	1.215354	-0.626670	0.000064
F114	F	1.715354	-0.126670	0.500064
H115	H	1.167089	0.018778	0.563383
H116	H	1.667089	0.518778	1.063383
H117	H	0.899396	-0.059181	0.000072
H118	H	1.399396	0.440819	0.500072
F119	F	0.818448	-0.056313	0.000097
F120	F	1.318448	0.443687	0.500097
F121	F	1.182135	-0.002552	0.243559
F122	F	1.682135	0.497448	0.743559
F123	F	0.889780	-0.567238	-0.000005
F124	F	1.389780	-0.067238	0.499995
H125	H	1.224967	-0.118613	0.000145
H126	H	1.724967	0.381387	0.500145
F127	F	0.933212	0.349439	0.550924
F128	F	1.433212	0.849439	1.050924
H129	H	0.749465	-0.151052	0.000025
H130	H	1.249465	0.348948	0.500025
F131	F	0.933203	0.349424	0.449268
F132	F	1.433203	0.849424	0.949268
F133	F	0.933182	0.349418	0.243552
F134	F	1.433182	0.849418	0.743552
F135	F	0.338022	-0.069054	0.000153
F136	F	0.838022	0.430946	0.500153
F137	F	0.584725	0.410852	0.000076
F138	F	1.084725	0.910852	0.500076
H139	H	0.480359	0.379421	0.000079
H140	H	0.980359	0.879421	0.500079
F141	F	1.391041	-0.251724	0.000164
F142	F	1.891041	0.248276	0.500164
H143	H	0.311071	0.374929	0.000105
H144	H	0.811071	0.874929	0.500105
H145	H	0.516488	-0.035661	0.000116
H146	H	1.016488	0.464339	0.500116
H147	H	1.365889	-0.502043	0.000147
H148	H	1.865889	-0.002043	0.500147
H149	H	1.167066	0.018767	0.436808
H150	H	1.667066	0.518767	0.936808
F151	F	1.182183	-0.002533	0.756643
F152	F	1.682183	0.497467	1.256643
