data_functionalizedCrystal
_audit_creation_method	'MofGen! by Chris Wilmer'
_symmetry_space_group_name_H-M	'P1'
_symmetry_Int_Tables_number	1
_symmetry_cell_setting	triclinic
loop_
_symmetry_equiv_pos_as_xyz
  x,y,z
_cell_length_a	21.295417
_cell_length_b	12.827893
_cell_length_c	12.827885
_cell_angle_alpha	90.021189
_cell_angle_beta	89.961900
_cell_angle_gamma	89.971284
loop_
_atom_site_label
_atom_site_type_symbol
_atom_site_fract_x
_atom_site_fract_y
_atom_site_fract_z
Zn1	Zn	-0.250609	-1.597560	-0.590842
Zn2	Zn	-0.355891	-1.597408	-0.416077
Zn3	Zn	-0.250636	-1.422801	-0.416109
Zn4	Zn	-0.355841	-1.422740	-0.590771
O5	O	-0.303244	-1.510127	-0.503450
O6	O	-0.264584	-1.743776	-0.567675
O7	O	-0.341961	-1.574208	-0.269845
O8	O	-0.162543	-1.446072	-0.439332
O9	O	-0.341934	-1.743664	-0.439276
O10	O	-0.162523	-1.574467	-0.567707
O11	O	-0.264631	-1.445925	-0.269869
O12	O	-0.264582	-1.276557	-0.439263
O13	O	-0.341849	-1.445969	-0.737016
O14	O	-0.341876	-1.276512	-0.567586
O15	O	-0.264536	-1.574408	-0.737068
O16	O	-0.443974	-1.574149	-0.439207
O17	O	-0.443937	-1.445821	-0.567554
C18	C	-0.303227	-1.238617	-0.503421
C19	C	-0.303235	-1.122464	-0.503433
C20	C	-0.265026	-1.070735	-0.567066
C21	C	-0.265033	-0.950684	-0.567081
C22	C	-0.466796	-1.509990	-0.503392
C23	C	-0.536764	-1.510027	-0.503402
C24	C	-0.569629	-1.576907	-0.436640
C25	C	-0.635371	-1.576956	-0.436664
C26	C	-0.668246	-1.510107	-0.503438
C27	C	-0.635374	-1.443222	-0.570213
C28	C	-0.569632	-1.443183	-0.570195
N29	N	-0.771510	-1.418690	-0.511395
N30	N	-0.833961	-1.418731	-0.511406
C31	C	-0.866321	-1.510224	-0.503498
N32	N	-0.833870	-1.601676	-0.495558
N33	N	-0.771413	-1.601635	-0.495542
C34	C	-0.739532	-1.510143	-0.503465
C35	C	-0.970471	-1.577162	-0.436758
C36	C	-1.036215	-1.577213	-0.436789
C37	C	-1.036216	-1.443470	-0.570333
C38	C	-0.970474	-1.443429	-0.570307
C39	C	-0.937605	-1.510273	-0.503514
C40	C	-0.139054	-1.510293	-0.503531
C41	C	-0.069086	-1.510364	-0.503565
C42	C	-0.303184	-1.510198	-0.776020
C43	C	-0.303158	-1.510229	-0.892173
C44	C	-0.303257	-0.782697	-0.503471
C45	C	-0.303249	-0.898851	-0.503459
C46	C	-0.264893	-1.573791	-0.943984
C47	C	-0.264866	-1.573824	-1.064034
C48	C	-0.303259	-1.510117	-0.231940
C49	C	-0.303107	-1.510289	-0.115787
H50	H	-0.542869	-1.631338	-0.382256
H51	H	-0.335966	-0.943330	-0.448983
H52	H	-0.232324	-0.906198	-0.621563
C53	C	-0.387842	-0.999531	-0.488785
C54	C	-0.347407	-1.062284	-0.429900
H55	H	-0.415115	-0.962386	-0.443385
H56	H	-0.363870	-0.951524	-0.528696
H57	H	-0.411970	-1.042128	-0.534196
H58	H	-0.323275	-1.019686	-0.384494
H59	H	-0.371381	-1.110296	-0.389971
C60	C	-1.110288	-1.591979	-0.296362
C61	C	-1.072379	-1.650790	-0.363504
H62	H	-1.132627	-1.637422	-0.251154
H63	H	-1.084711	-1.546513	-0.256244
H64	H	-1.139244	-1.552131	-0.336156
H65	H	-1.043420	-1.690632	-0.323710
H66	H	-1.097959	-1.696274	-0.403626
C67	C	-0.549329	-1.392167	-0.747097
C68	C	-0.533504	-1.369658	-0.643580
H69	H	-0.527026	-1.346769	-0.792399
H70	H	-0.538505	-1.462356	-0.762443
H71	H	-0.593187	-1.382623	-0.756655
H72	H	-0.489646	-1.379209	-0.634020
H73	H	-0.544323	-1.299452	-0.628229
H74	H	-1.062982	-1.389045	-0.624706
H75	H	-0.662135	-1.631421	-0.382298
C76	C	-0.977080	-1.311226	-0.702294
C77	C	-0.934344	-1.369897	-0.643681
H78	H	-0.954774	-1.265826	-0.747589
H79	H	-1.002675	-1.356748	-0.742319
H80	H	-1.002768	-1.271300	-0.656721
H81	H	-0.908659	-1.409829	-0.689254
H82	H	-0.908739	-1.324369	-0.603653
C83	C	-0.736152	-1.383890	-0.629523
C84	C	-0.671507	-1.369737	-0.643610
H85	H	-0.758457	-1.338518	-0.674836
H86	H	-0.746879	-1.454092	-0.644886
H87	H	-0.746960	-1.368638	-0.559294
H88	H	-0.660698	-1.384996	-0.713837
H89	H	-0.660776	-1.299518	-0.628254
C90	C	-0.977071	-1.709365	-0.304761
C91	C	-0.934337	-1.650642	-0.363349
H92	H	-0.954763	-1.754731	-0.259446
H93	H	-1.002758	-1.663875	-0.264758
H94	H	-1.002667	-1.749330	-0.350349
H95	H	-0.908744	-1.610671	-0.317761
H96	H	-0.908640	-1.696138	-0.403354
C97	C	-0.180320	-1.588256	-0.821141
C98	C	-0.220697	-1.647228	-0.883890
H99	H	-0.153038	-1.633597	-0.784039
H100	H	-0.156203	-1.542815	-0.863728
H101	H	-0.204337	-1.548373	-0.773087
H102	H	-0.196680	-1.687105	-0.931949
H103	H	-0.244816	-1.692688	-0.841299
C104	C	-0.256444	-1.193683	-0.707534
C105	C	-0.220858	-1.130918	-0.640604
H106	H	-0.229175	-1.230830	-0.752938
H107	H	-0.280408	-1.241687	-0.667606
H108	H	-0.283876	-1.151093	-0.747463
H109	H	-0.193429	-1.173509	-0.600669
H110	H	-0.196884	-1.082908	-0.680535
H111	H	-0.232108	-1.628246	-1.108590
C112	C	-0.387740	-1.495769	-0.992877
C113	C	-0.347336	-1.436822	-1.055648
H114	H	-0.415042	-1.450412	-0.955739
H115	H	-0.411834	-1.541235	-1.035453
H116	H	-0.363743	-1.535624	-0.944854
H117	H	-0.371333	-1.396973	-1.103676
H118	H	-0.323240	-1.391338	-1.013068
H119	H	-0.335893	-1.455828	-0.936693
