data_functionalizedCrystal
_audit_creation_method	'MofGen! by Chris Wilmer'
_symmetry_space_group_name_H-M	'P1'
_symmetry_Int_Tables_number	1
_symmetry_cell_setting	triclinic
loop_
_symmetry_equiv_pos_as_xyz
  x,y,z
_cell_length_a	18.215407
_cell_length_b	18.215405
_cell_length_c	18.215399
_cell_angle_alpha	89.969449
_cell_angle_beta	89.980167
_cell_angle_gamma	90.025333
loop_
_atom_site_label
_atom_site_type_symbol
_atom_site_fract_x
_atom_site_fract_y
_atom_site_fract_z
Zn1	Zn	1.125072	-0.292983	-0.416103
Zn2	Zn	1.625072	0.207017	0.083897
Zn3	Zn	1.124980	-0.416054	-0.293031
Zn4	Zn	1.624980	0.083946	0.206969
Zn5	Zn	1.002005	-0.293007	-0.293050
Zn6	Zn	1.502005	0.206993	0.206950
Zn7	Zn	1.001970	-0.416013	-0.416056
Zn8	Zn	1.501970	0.083987	0.083944
O9	O	1.063507	-0.354514	-0.354560
O10	O	1.563507	0.145486	0.145440
O11	O	1.228044	-0.309316	-0.399788
O12	O	1.728044	0.190684	0.100212
O13	O	1.108643	-0.399759	-0.190049
O14	O	1.608643	0.100241	0.309951
O15	O	1.018382	-0.190020	-0.309401
O16	O	1.518382	0.309980	0.190599
O17	O	1.227977	-0.399736	-0.309368
O18	O	1.727977	0.100264	0.190632
O19	O	1.108799	-0.190002	-0.399807
O20	O	1.608799	0.309998	0.100193
O21	O	1.018293	-0.309357	-0.190063
O22	O	1.518293	0.190643	0.309937
O23	O	0.899016	-0.309317	-0.309355
O24	O	1.399016	0.190683	0.190645
O25	O	1.018324	-0.399666	-0.519046
O26	O	1.518324	0.100334	-0.019046
O27	O	0.898991	-0.399689	-0.399727
O28	O	1.398991	0.100311	0.100273
O29	O	1.108766	-0.309276	-0.519081
O30	O	1.608766	0.190724	-0.019081
O31	O	1.108610	-0.519033	-0.309322
O32	O	1.608610	-0.019033	0.190678
O33	O	1.018235	-0.519003	-0.399708
O34	O	1.518235	-0.019003	0.100292
C35	C	0.872301	-0.354502	-0.354539
C36	C	1.372301	0.145498	0.145461
C37	C	0.790502	-0.354514	-0.354547
C38	C	1.290502	0.145486	0.145453
C39	C	0.602314	-0.401645	-0.401544
C40	C	1.102314	0.098355	0.098456
C41	C	0.525455	-0.401647	-0.401554
C42	C	1.025455	0.098353	0.098446
C43	C	0.525452	-0.307397	-0.307591
C44	C	1.025452	0.192603	0.192409
C45	C	0.602309	-0.307392	-0.307586
C46	C	1.102309	0.192608	0.192414
C47	C	0.640738	-0.354520	-0.354562
C48	C	1.140738	0.145480	0.145438
C49	C	0.487022	-0.354528	-0.354576
C50	C	0.987022	0.145472	0.145424
C51	C	0.403688	-0.354530	-0.354585
C52	C	0.903688	0.145470	0.145415
C53	C	0.724077	-0.354517	-0.354553
C54	C	1.224077	0.145483	0.145447
C55	C	1.063429	-0.545721	-0.354524
C56	C	1.563429	-0.045721	0.145476
C57	C	1.063463	-0.627520	-0.354534
C58	C	1.563463	-0.127520	0.145466
C59	C	1.110632	-0.815705	-0.307556
C60	C	1.610632	-0.315705	0.192444
C61	C	1.110665	-0.892563	-0.307574
C62	C	1.610665	-0.392563	0.192426
C63	C	1.016476	-0.892572	-0.401616
C64	C	1.516476	-0.392572	0.098384
C65	C	1.016447	-0.815715	-0.401601
C66	C	1.516447	-0.315715	0.098399
C67	C	1.063524	-0.777283	-0.354567
C68	C	1.563524	-0.277283	0.145433
C69	C	1.063586	-0.930999	-0.354600
C70	C	1.563586	-0.430999	0.145400
C71	C	1.063621	-1.014333	-0.354619
C72	C	1.563621	-0.514333	0.145381
C73	C	1.063490	-0.693944	-0.354548
C74	C	1.563490	-0.193944	0.145452
C75	C	1.255460	-0.354528	-0.354581
C76	C	1.755460	0.145472	0.145419
C77	C	1.337259	-0.354533	-0.354591
C78	C	1.837259	0.145467	0.145409
C79	C	1.063552	-0.354464	-0.546513
C80	C	1.563552	0.145536	-0.046513
C81	C	1.063571	-0.354442	-0.628312
C82	C	1.563571	0.145558	-0.128312
C83	C	1.063605	-0.162561	-0.354611
C84	C	1.563605	0.337439	0.145389
C85	C	1.063647	-0.080763	-0.354633
C86	C	1.563647	0.419237	0.145367
C87	C	1.110681	-0.307332	-0.816525
C88	C	1.610681	0.192668	-0.316525
C89	C	1.110690	-0.307311	-0.893384
C90	C	1.610690	0.192689	-0.393384
C91	C	1.016513	-0.401438	-0.893336
C92	C	1.516513	0.098562	-0.393336
C93	C	1.016501	-0.401455	-0.816479
C94	C	1.516501	0.098545	-0.316479
C95	C	1.063589	-0.354403	-0.778075
C96	C	1.563589	0.145597	-0.278075
C97	C	1.063610	-0.354365	-0.931791
C98	C	1.563610	0.145635	-0.431791
C99	C	1.063619	-0.354342	-1.015125
C100	C	1.563619	0.145658	-0.515125
C101	C	1.063579	-0.354425	-0.694736
C102	C	1.563579	0.145575	-0.194736
C103	C	1.063504	-0.354512	-0.163353
C104	C	1.563504	0.145488	0.336647
C105	C	1.063628	-0.354326	-0.081555
C106	C	1.563628	0.145674	0.418445
H107	H	0.633601	-0.440018	-0.439797
H108	H	1.133601	0.059982	0.060203
H109	H	0.978146	-0.923873	-0.439908
H110	H	1.478146	-0.423873	0.060092
H111	H	0.494174	-0.440020	-0.439813
H112	H	0.994174	0.059980	0.060187
H113	H	0.978177	-0.439748	-0.924614
H114	H	1.478177	0.060252	-0.424614
H115	H	0.978086	-0.784430	-0.439887
H116	H	1.478086	-0.284430	0.060113
C117	C	1.161826	-0.256162	-0.774961
C118	C	1.661826	0.243838	-0.274961
C119	C	1.203054	-0.214921	-0.825088
C120	C	1.703054	0.285079	-0.325088
C121	C	1.250168	-0.167766	-0.786829
C122	C	1.750168	0.332234	-0.286829
H123	H	1.193940	-0.284237	-0.744974
H124	H	1.693940	0.215763	-0.244974
H125	H	1.133699	-0.224064	-0.745000
H126	H	1.633699	0.275936	-0.245000
H127	H	1.231178	-0.247015	-0.855037
H128	H	1.731178	0.252985	-0.355037
H129	H	1.170958	-0.186831	-0.855077
H130	H	1.670958	0.313169	-0.355077
H131	H	1.222042	-0.135667	-0.756868
H132	H	1.722042	0.364333	-0.256868
H133	H	1.282278	-0.195847	-0.756843
H134	H	1.782278	0.304153	-0.256843
H135	H	1.278142	-0.139773	-0.820835
H136	H	1.778142	0.360227	-0.320835
H137	H	0.978148	-0.439786	-0.785173
H138	H	1.478148	0.060214	-0.285173
C139	C	0.483594	-0.256314	-0.256617
C140	C	0.983594	0.243686	0.243383
C141	C	0.408061	-0.266417	-0.266663
C142	C	0.908061	0.233583	0.233337
C143	C	0.369481	-0.219377	-0.219711
C144	C	0.869481	0.280623	0.280289
H145	H	0.496125	-0.206850	-0.267431
H146	H	0.996125	0.293150	0.232569
H147	H	0.496123	-0.267026	-0.207134
H148	H	0.996123	0.232974	0.292866
H149	H	0.395537	-0.255699	-0.316135
H150	H	0.895537	0.244301	0.183865
H151	H	0.395509	-0.315870	-0.255844
H152	H	0.895509	0.184130	0.244156
H153	H	0.382010	-0.230090	-0.170227
H154	H	0.882010	0.269910	0.329773
H155	H	0.382017	-0.169917	-0.230528
H156	H	0.882017	0.330083	0.269472
H157	H	0.318228	-0.226230	-0.226515
H158	H	0.818228	0.273770	0.273485
C159	C	0.643900	-0.256197	-0.256491
C160	C	1.143900	0.243803	0.243509
C161	C	0.593797	-0.214943	-0.215335
C162	C	1.093797	0.285057	0.284665
C163	C	0.632084	-0.167783	-0.168257
C164	C	1.132084	0.332217	0.331743
H165	H	0.673908	-0.224100	-0.284618
H166	H	1.173908	0.275900	0.215382
H167	H	0.673843	-0.284291	-0.224336
H168	H	1.173843	0.215709	0.275664
H169	H	0.563866	-0.186851	-0.247486
H170	H	1.063866	0.313149	0.252514
H171	H	0.563788	-0.247021	-0.187193
H172	H	1.063788	0.252979	0.312807
H173	H	0.662027	-0.195877	-0.136101
H174	H	1.162027	0.304123	0.363899
H175	H	0.662090	-0.135691	-0.196390
H176	H	1.162090	0.364309	0.303610
H177	H	0.598095	-0.139792	-0.140322
H178	H	1.098095	0.360208	0.359678
H179	H	1.148966	-0.784415	-0.269260
H180	H	1.648966	-0.284415	0.230740
H181	H	1.149035	-0.268979	-0.924686
H182	H	1.649035	0.231021	-0.424686
H183	H	1.149026	-0.923843	-0.269294
H184	H	1.649026	-0.423843	0.230706
