data_functionalizedCrystal
_audit_creation_method	'MofGen! by Chris Wilmer'
_symmetry_space_group_name_H-M	'P1'
_symmetry_Int_Tables_number	1
_symmetry_cell_setting	triclinic
loop_
_symmetry_equiv_pos_as_xyz
  x,y,z
_cell_length_a	10.654550
_cell_length_b	19.188924
_cell_length_c	9.730223
_cell_angle_alpha	89.996615
_cell_angle_beta	89.996251
_cell_angle_gamma	83.813433
loop_
_atom_site_label
_atom_site_type_symbol
_atom_site_fract_x
_atom_site_fract_y
_atom_site_fract_z
O1	O	1.665755	0.098059	-0.114410
O2	O	1.300078	0.107402	-0.114388
O3	O	1.493474	0.001144	-0.114384
O4	O	1.472359	0.204317	-0.114415
O5	O	1.493471	0.001146	0.114196
O6	O	1.300076	0.107405	0.114191
O7	O	1.665752	0.098062	0.114170
Zn8	Zn	1.482914	0.102734	0.150473
Zn9	Zn	1.482917	0.102730	-0.150691
O10	O	1.472357	0.204320	0.114165
C11	C	1.253294	0.106717	-0.000096
C12	C	1.113894	0.104665	-0.000087
C13	C	1.033081	0.167228	-0.000116
C14	C	0.902102	0.165295	-0.000140
C15	C	0.932759	0.038231	-0.000110
C16	C	1.063737	0.040164	-0.000077
C17	C	1.015380	0.240588	-0.000140
C18	C	0.884401	0.238655	-0.000163
C19	C	1.492790	-0.024871	-0.000092
C20	C	1.490742	-0.102389	-0.000089
C21	C	1.489787	-0.138795	-0.124688
C22	C	1.487845	-0.211631	-0.124698
C23	C	1.486883	-0.248059	-0.000102
C24	C	1.487830	-0.211643	0.124514
C25	C	1.489760	-0.138808	0.124520
N26	N	1.555314	-0.367273	0.092628
N27	N	1.553484	-0.436463	0.092613
C28	C	1.481066	-0.467506	-0.000115
N29	N	1.410563	-0.426745	-0.092848
N30	N	1.412399	-0.357549	-0.092837
C31	C	1.484789	-0.327036	-0.000096
C32	C	1.478003	-0.582889	-0.124734
C33	C	1.476053	-0.655725	-0.124739
C34	C	1.476051	-0.655736	0.124476
C35	C	1.477989	-0.582901	0.124478
C36	C	1.478971	-0.546482	-0.000131
C37	C	1.712537	0.098746	-0.000126
C38	C	1.851937	0.100799	-0.000144
C39	C	1.473040	0.230334	-0.000129
C40	C	1.475089	0.307852	-0.000142
N41	N	1.482921	0.102736	0.356009
N42	N	1.482920	0.102723	-0.356228
C43	C	1.568578	0.055700	0.427937
C44	C	1.568575	0.055692	0.571820
C45	C	1.397253	0.149760	0.571834
C46	C	1.397252	0.149764	0.427954
C47	C	1.667493	0.001393	0.427931
C48	C	1.667490	0.001385	0.571814
H49	H	1.044102	0.269280	0.095522
H50	H	1.478776	-0.553259	0.225940
H51	H	1.327492	0.188058	0.369391
H52	H	0.838258	0.260826	0.098518
F53	F	1.793305	0.017015	0.622852
H54	H	1.478795	-0.553234	-0.226198
F55	F	1.486827	-0.250385	-0.257319
F56	F	0.829082	0.274781	-0.125210
H57	H	1.129531	-0.010781	-0.000033
H58	H	1.475269	-0.685366	-0.226207
H59	H	0.891905	-0.014284	-0.000123
H60	H	1.050542	0.263945	-0.098831
F61	F	1.490826	-0.100039	-0.257308
F62	F	1.486798	-0.250412	0.257117
F63	F	1.306082	0.199808	0.648414
F64	F	1.490774	-0.100060	0.257142
F65	F	1.475020	-0.694500	0.257082
H66	H	1.647188	-0.052270	0.388886
H67	H	1.758316	0.018398	0.383296
F68	F	1.629004	-0.064895	0.630150
