data_functionalizedCrystal
_audit_creation_method	'MofGen! by Chris Wilmer'
_symmetry_space_group_name_H-M	'P1'
_symmetry_Int_Tables_number	1
_symmetry_cell_setting	triclinic
loop_
_symmetry_equiv_pos_as_xyz
  x,y,z
_cell_length_a	15.538191
_cell_length_b	11.026607
_cell_length_c	10.065875
_cell_angle_alpha	79.268236
_cell_angle_beta	84.760469
_cell_angle_gamma	102.070945
loop_
_atom_site_label
_atom_site_type_symbol
_atom_site_fract_x
_atom_site_fract_y
_atom_site_fract_z
O1	O	1.197729	0.388979	-0.113456
O2	O	0.945580	0.258601	-0.113466
O3	O	1.050756	0.491237	-0.113457
O4	O	1.092553	0.156343	-0.113465
O5	O	1.030723	0.446744	0.113530
O6	O	0.925547	0.214107	0.113521
O7	O	1.177696	0.344486	0.113531
Zn8	Zn	1.048441	0.272232	0.149565
Zn9	Zn	1.074835	0.330854	-0.149500
O10	O	1.072520	0.111849	0.113522
C11	C	0.902782	0.222713	0.000027
C12	C	0.805098	0.182081	0.000023
C13	C	1.220495	0.380374	0.000036
C14	C	1.318179	0.421008	0.000030
C15	C	1.033029	0.510806	0.000035
C16	C	1.010044	0.635396	0.000029
C17	C	1.674424	0.017335	0.000016
C18	C	1.766210	0.055543	0.000021
C19	C	1.752208	0.270459	0.000027
C20	C	1.660418	0.232268	0.000029
C21	C	1.621534	0.105704	0.000022
C22	C	1.607528	0.320638	0.000034
C23	C	1.515747	0.282450	0.000029
C24	C	1.476856	0.155893	0.000018
C25	C	1.529753	0.067517	0.000017
C26	C	1.646415	0.447203	0.000031
C27	C	1.593525	0.535572	0.000037
C28	C	1.501741	0.497383	0.000041
C29	C	1.462850	0.370826	0.000030
C30	C	1.448844	0.585759	0.000043
C31	C	1.357063	0.547572	0.000037
C32	C	1.371069	0.332639	0.000025
C33	C	1.090247	0.092282	0.000027
C34	C	1.113233	-0.032307	0.000024
N35	N	1.030434	0.232228	0.353669
C36	C	1.073511	0.737157	0.000030
C37	C	1.049757	0.865929	0.000024
N38	N	1.092848	0.370871	-0.353604
C39	C	1.068563	0.316940	0.421451
C40	C	1.054713	0.286146	0.578617
H41	H	1.402122	0.124804	0.000009
H42	H	1.498090	-0.035547	0.000029
H43	H	1.145433	0.728944	0.000041
C44	C	0.947917	1.002416	0.000016
C45	C	0.952656	0.876992	0.000019
H46	H	0.887971	1.009242	0.000021
H47	H	0.983260	1.057039	-0.079135
H48	H	0.969295	1.026017	0.079176
H49	H	0.931284	0.853393	-0.079147
H50	H	0.917300	0.822351	0.079179
H51	H	0.938122	0.643610	0.000018
C52	C	1.886683	0.424433	0.000049
C53	C	1.794954	0.409573	0.000044
H54	H	1.913068	0.510315	0.000072
H55	H	1.911582	0.402067	-0.079108
H56	H	1.897606	0.371007	0.079204
H57	H	1.784030	0.462993	-0.079116
H58	H	1.770047	0.431954	0.079209
H59	H	1.313999	0.619532	0.000040
H60	H	1.111458	0.412267	0.363131
H61	H	1.011808	0.190819	0.636935
H62	H	0.987531	0.136907	0.411992
C63	C	1.237724	0.915110	-0.116652
C64	C	1.210335	0.956632	0.000029
H65	H	1.297668	0.908275	-0.116641
H66	H	1.233107	0.974303	-0.195793
H67	H	1.200979	0.834578	-0.116638
H68	H	1.247075	1.037169	0.000010
H69	H	1.214959	0.897436	0.079191
C70	C	1.365031	0.160542	-0.116665
C71	C	1.328313	0.193517	0.000020
H72	H	1.338628	0.074662	-0.116671
H73	H	1.427252	0.170622	-0.116648
H74	H	1.354098	0.213969	-0.195812
H75	H	1.339251	0.140096	0.079167
H76	H	1.266077	0.183425	0.000015
C77	C	1.697476	-0.191298	0.000008
C78	C	1.631673	-0.121788	0.000008
H79	H	1.671082	-0.277179	-0.000008
H80	H	1.725992	-0.187457	0.079164
H81	H	1.739974	-0.156409	-0.079148
H82	H	1.589178	-0.156671	0.079169
H83	H	1.603143	-0.125636	-0.079156
C84	C	1.099275	0.564185	0.485902
C85	C	1.150609	0.499734	0.567850
H86	H	1.134891	0.643784	0.437456
H87	H	1.050871	0.577382	0.541776
H88	H	1.077261	0.515103	0.422880
H89	H	1.172618	0.548811	0.630879
H90	H	1.199029	0.486542	0.511970
C91	C	1.475470	0.803583	-0.116653
C92	C	1.491598	0.724876	0.000034
H93	H	1.501869	0.889468	-0.116662
H94	H	1.413245	0.793490	-0.116635
H95	H	1.500372	0.781181	-0.195799
H96	H	1.466690	0.747273	0.079180
H97	H	1.553835	0.734976	0.000028
H98	H	1.721152	0.478296	0.000010
H99	H	1.809270	-0.016431	0.000033
H100	H	1.625197	0.638621	0.000038
