data_functionalizedCrystal
_audit_creation_method	'MofGen! by Chris Wilmer'
_symmetry_space_group_name_H-M	'P1'
_symmetry_Int_Tables_number	1
_symmetry_cell_setting	triclinic
loop_
_symmetry_equiv_pos_as_xyz
  x,y,z
_cell_length_a	14.971482
_cell_length_b	11.026607
_cell_length_c	14.048226
_cell_angle_alpha	89.996210
_cell_angle_beta	89.994098
_cell_angle_gamma	96.099312
loop_
_atom_site_label
_atom_site_type_symbol
_atom_site_fract_x
_atom_site_fract_y
_atom_site_fract_z
O1	O	1.212290	0.158158	-0.079145
O2	O	0.954926	0.177105	-0.079150
O3	O	1.062278	-0.009052	-0.079144
O4	O	1.104938	0.344316	-0.079151
O5	O	1.062260	-0.009063	0.079177
O6	O	0.954907	0.177094	0.079172
O7	O	1.212272	0.158147	0.079176
Zn8	Zn	1.083587	0.167619	0.104311
Zn9	Zn	1.083611	0.167634	-0.104284
O10	O	1.104920	0.344305	0.079171
C11	C	0.921456	0.176254	0.000010
C12	C	0.821752	0.173717	0.000009
C13	C	0.774906	0.172516	0.086311
C14	C	0.681223	0.170113	0.086312
C15	C	0.634388	0.168919	0.000010
C16	C	0.681240	0.170117	-0.086299
C17	C	0.774921	0.172511	-0.086299
C18	C	0.485979	0.165129	-0.086293
C19	C	0.392291	0.162737	-0.086293
C20	C	0.392281	0.162731	0.086318
C21	C	0.485962	0.165125	0.086318
C22	C	0.532808	0.166325	0.000009
C23	C	1.054399	-0.054279	0.000015
C24	C	1.030938	-0.189027	0.000011
C25	C	1.095717	-0.262740	0.000011
C26	C	1.071471	-0.402009	0.000007
C27	C	1.245742	0.158999	0.000014
C28	C	1.345445	0.161536	0.000009
C29	C	1.112799	0.389532	0.000009
C30	C	1.136260	0.524280	0.000007
N31	N	1.083577	0.167609	0.246671
N32	N	1.083626	0.167635	-0.246645
C33	C	1.131137	0.085212	0.296492
C34	C	1.131143	0.085212	0.396149
C35	C	1.083593	0.167614	0.445985
C36	C	1.036027	0.250014	0.396158
C37	C	1.036017	0.250008	0.296502
C38	C	1.036055	0.250023	0.603872
C39	C	1.036066	0.250031	0.703535
C40	C	1.131181	0.085227	0.703520
C41	C	1.131170	0.085220	0.603864
C42	C	1.083605	0.167623	0.554043
H43	H	0.524093	0.166105	0.156593
O44	O	1.177302	0.005220	0.752057
C45	C	1.167132	0.022905	0.850702
H46	H	1.103299	0.068108	0.864324
H47	H	1.162295	-0.068995	0.888581
H48	H	1.227575	0.083901	0.878968
O49	O	0.635811	0.168789	0.170210
C50	C	0.651915	0.064318	0.222705
H51	H	0.717675	0.031042	0.198157
H52	H	0.656646	0.088025	0.301656
H53	H	0.594446	-0.010587	0.210754
O54	O	0.820541	0.173848	-0.170071
C55	C	0.881494	0.280288	-0.175248
H56	H	0.897778	0.315663	-0.100317
H57	H	0.945851	0.258347	-0.211771
H58	H	0.850142	0.352922	-0.217842
O59	O	0.346729	0.161332	0.170139
C60	C	0.285755	0.054911	0.175297
H61	H	0.309256	-0.017775	0.126317
H62	H	0.282420	0.019615	0.251628
H63	H	0.216285	0.076837	0.152120
H64	H	1.169128	-0.222743	0.000018
H65	H	0.354161	0.161766	-0.156567
O66	O	0.943390	-0.236873	-0.000120
C67	C	0.925973	-0.309231	-0.082131
H68	H	0.991455	-0.340533	-0.109468
H69	H	0.877034	-0.392267	-0.063695
H70	H	0.895347	-0.253407	-0.139547
O71	O	0.983853	-0.449563	0.000129
C72	C	0.941023	-0.410016	0.082137
H73	H	0.979457	-0.322120	0.109480
H74	H	0.869323	-0.392681	0.063694
H75	H	0.939654	-0.483264	0.139550
H76	H	0.524118	0.166106	-0.156575
O77	O	0.989773	0.329892	0.444672
C78	C	0.924105	0.264765	0.502322
H79	H	0.944454	0.169864	0.517252
H80	H	0.918116	0.315400	0.572398
H81	H	0.856644	0.256368	0.463934
H82	H	1.209676	-0.435731	-0.000064
H83	H	1.169862	0.018116	0.255922
O84	O	0.635854	0.169127	-0.170193
C85	C	0.665516	0.274774	-0.222684
H86	H	0.735794	0.311523	-0.198147
H87	H	0.667202	0.251242	-0.301638
H88	H	0.617540	0.346984	-0.210716
O89	O	1.177434	0.005140	0.444397
C90	C	1.219392	-0.067600	0.379042
H91	H	1.228393	-0.017837	0.307996
H92	H	1.287875	-0.085932	0.407817
H93	H	1.175838	-0.157848	0.368464
O94	O	1.177375	0.005061	0.555599
C95	C	1.219377	-0.067649	0.620939
H96	H	1.182484	-0.069104	0.691988
H97	H	1.217419	-0.164554	0.592148
H98	H	1.292189	-0.028087	0.631515
O99	O	0.989704	0.329884	0.248061
C100	C	0.924050	0.264751	0.190419
H101	H	0.907135	0.169024	0.220464
H102	H	0.860905	0.314113	0.189299
H103	H	0.951019	0.258446	0.114886
H104	H	0.997319	0.317120	0.563311
O105	O	0.989952	0.330024	0.752094
C106	C	1.000149	0.312339	0.850735
H107	H	1.063988	0.267142	0.864328
H108	H	1.004991	0.404239	0.888604
H109	H	0.939716	0.251338	0.879037
H110	H	0.813033	0.173498	0.156588
