data_functionalizedCrystal
_audit_creation_method	'MofGen! by Chris Wilmer'
_symmetry_space_group_name_H-M	'P1'
_symmetry_Int_Tables_number	1
_symmetry_cell_setting	triclinic
loop_
_symmetry_equiv_pos_as_xyz
  x,y,z
_cell_length_a	23.096457
_cell_length_b	23.096457
_cell_length_c	14.560438
_cell_angle_alpha	60.000100
_cell_angle_beta	89.999077
_cell_angle_gamma	60.002514
loop_
_atom_site_label
_atom_site_type_symbol
_atom_site_fract_x
_atom_site_fract_y
_atom_site_fract_z
Zr1	Zr	0.557838	0.633696	-0.120509
O2	O	0.465397	0.754481	-0.267148
O3	O	0.586167	0.512913	-0.075561
O4	O	0.586176	0.633696	-0.267159
O5	O	0.465390	0.633696	0.075590
O6	O	0.681459	0.633694	-0.267162
O7	O	0.465388	0.633697	-0.075551
O8	O	0.681442	0.417634	0.075571
O9	O	0.465407	0.849756	-0.267143
O10	O	0.669368	0.562590	-0.056388
O11	O	0.598261	0.562590	0.056409
O12	O	0.598272	0.704798	-0.169173
O13	O	0.527166	0.704798	-0.056376
Zr14	Zr	0.709806	0.633689	0.120538
Zr15	Zr	0.709802	0.633692	-0.120514
Zr16	Zr	0.557841	0.633693	0.120543
Zr17	Zr	0.557853	0.785648	-0.120501
Zr18	Zr	0.709791	0.481737	0.120529
O19	O	0.681476	0.754472	0.075590
O20	O	0.681471	0.754476	-0.267155
O21	O	0.465403	0.754477	0.075597
O22	O	0.802246	0.512904	0.267176
O23	O	0.802241	0.512908	-0.075569
O24	O	0.586173	0.512909	0.267184
O25	O	0.802253	0.633689	-0.075562
O26	O	0.681467	0.633689	0.267187
O27	O	0.586185	0.633691	0.267191
O28	O	0.802255	0.633688	0.075579
O29	O	0.586198	0.849753	-0.267147
O30	O	0.681445	0.417632	0.267175
O31	O	0.802237	0.417629	0.267171
O32	O	0.802234	0.417631	0.075567
O33	O	0.465410	0.849754	-0.075538
O34	O	0.586201	0.849751	-0.075542
O35	O	0.669371	0.562587	0.169201
O36	O	0.740478	0.562587	0.056404
O37	O	0.669382	0.704795	-0.056380
O38	O	0.598276	0.704795	0.056417
C39	C	0.633803	0.443623	0.000004
C40	C	0.633796	0.379116	-0.000000
C41	C	0.686290	0.296328	0.083255
C42	C	0.686295	0.235707	0.083266
C43	C	0.633811	0.257877	0.000004
C44	C	0.581308	0.340679	-0.083259
C45	C	0.581301	0.401298	-0.083261
N46	N	0.617931	0.201769	-0.098734
N47	N	0.617942	0.144180	-0.098728
C48	C	0.633830	0.075238	0.000006
N49	N	0.649719	0.066053	0.098739
N50	N	0.649711	0.123646	0.098733
C51	C	0.633813	0.192152	-0.000003
C52	C	0.686332	-0.073286	0.083279
C53	C	0.686332	-0.133906	0.083291
C54	C	0.581348	-0.028931	-0.083243
C55	C	0.581345	0.031687	-0.083246
C56	C	0.633841	0.009504	0.000015
C57	C	0.443738	0.633697	0.000021
C58	C	0.379225	0.633699	0.000023
C59	C	0.348921	0.633705	-0.083247
C60	C	0.288308	0.633698	-0.083247
C61	C	0.257994	0.633700	0.000015
C62	C	0.288308	0.633689	0.083299
C63	C	0.348923	0.633688	0.083303
N64	N	0.139647	0.680053	0.025225
N65	N	0.082064	0.680056	0.025214
C66	C	0.075365	0.633701	0.000009
N67	N	0.128418	0.587353	-0.025206
N68	N	0.186005	0.587354	-0.025201
C69	C	0.192268	0.633700	0.000020
C70	C	-0.020661	0.633698	-0.083266
C71	C	-0.081272	0.633686	-0.083258
C72	C	-0.081275	0.633685	0.083284
C73	C	-0.020662	0.633689	0.083281
C74	C	0.009640	0.633700	0.000000
C75	C	0.823906	0.633688	0.000008
C76	C	0.888419	0.633686	0.000006
C77	C	0.633817	0.633696	-0.301505
C78	C	0.633815	0.633697	-0.403838
C79	C	0.633841	0.823762	0.000025
C80	C	0.633847	0.888269	0.000028
C81	C	0.596705	0.707926	-0.510787
C82	C	0.596713	0.707923	-0.606935
C83	C	0.670943	0.559453	-0.489174
C84	C	0.670939	0.559458	-0.393027
C85	C	0.633827	0.633689	0.301534
C86	C	0.633828	0.633688	0.403867
C87	C	0.823887	0.443619	-0.000003
C88	C	0.888393	0.379110	-0.000009
C89	C	0.633807	0.443620	0.301523
C90	C	0.633803	0.379112	0.403852
C91	C	0.823892	0.443616	0.301517
C92	C	0.888400	0.379105	0.403844
C93	C	0.443752	0.823769	-0.301488
C94	C	0.379244	0.888280	-0.403815
C95	C	0.443757	0.823766	0.000031
C96	C	0.379250	0.888275	0.000037
C97	C	0.633836	0.823765	-0.301495
C98	C	0.633841	0.888273	-0.403824
C99	C	0.881567	0.348817	-0.058898
C100	C	0.942172	0.288212	-0.058926
C101	C	1.009602	0.257897	-0.000057
C102	C	1.016426	0.288196	0.058834
C103	C	0.955822	0.348804	0.058854
C104	C	0.670919	0.348816	0.510794
C105	C	0.670912	0.288212	0.606952
C106	C	0.633792	0.257900	0.596167
C107	C	0.596671	0.288201	0.489214
C108	C	0.596674	0.348809	0.393058
C109	C	0.955816	0.348811	0.393019
C110	C	1.016434	0.288205	0.489157
C111	C	1.009634	0.257891	0.596119
C112	C	0.942210	0.288192	0.606942
C113	C	0.881594	0.348801	0.510805
C114	C	0.311827	0.918582	-0.392990
C115	C	0.251209	0.979207	-0.489128
C116	C	0.258010	1.009524	-0.596090
C117	C	0.325433	0.979219	-0.606913
C118	C	0.386050	0.918599	-0.510776
C119	C	0.386076	0.918574	0.058916
C120	C	0.325471	0.979196	0.058918
C121	C	0.258041	1.009513	0.000046
C122	C	0.251217	0.979212	-0.058841
C123	C	0.311821	0.918595	-0.058848
C124	C	0.670968	0.918566	-0.393002
C125	C	0.670986	0.979171	-0.489143
C126	C	0.633873	1.009486	-0.596103
C127	C	0.596745	0.979187	-0.606922
C128	C	0.596731	0.918580	-0.510783
H129	H	0.729035	0.278260	0.151054
F130	F	0.742169	0.147586	0.171880
H131	H	0.566528	1.003879	-0.694022
H132	H	0.701167	0.499010	-0.480385
F133	F	1.074097	0.193391	-0.000088
H134	H	0.538603	0.099098	-0.151047
F135	F	0.710501	1.011410	-0.477604
H136	H	0.961390	0.373460	0.106816
F137	F	0.557207	0.886352	-0.522318
H138	H	0.633890	1.058837	-0.674376
F139	F	0.011590	0.633687	0.171904
H140	H	0.961367	0.373483	0.305934
H141	H	0.826668	0.373499	-0.106849
F142	F	0.710438	0.480448	-0.279195
F143	F	0.934984	0.255921	0.720788
F144	F	0.710432	0.381063	0.522298
H145	H	0.538575	0.358727	-0.151051
F146	F	0.809845	0.381033	0.522343
H147	H	0.538551	0.468711	-0.151057
H148	H	-0.105954	0.633682	0.151081
F149	F	0.304573	0.886326	-0.279162
H150	H	0.701190	0.893893	-0.305919
H151	H	0.566452	0.373467	0.305985
H152	H	0.936602	0.263550	-0.106882
H153	H	1.071336	0.263504	0.106762
H154	H	0.566495	0.768368	-0.694015
F155	F	0.742200	-0.096892	0.171893
F156	F	0.381176	0.633681	0.171934
H157	H	0.208646	1.058884	-0.674362
H158	H	0.701143	0.263547	0.694028
F159	F	0.557168	0.255932	0.477753
F160	F	0.193547	1.074027	0.000065
F161	F	0.179447	1.011484	-0.121490
H162	H	0.330962	1.003911	-0.694013
H163	H	0.196316	1.003870	-0.480294
F164	F	1.088185	0.255964	0.477615
F165	F	0.742202	-0.222021	0.171915
F166	F	0.525488	-0.005331	-0.171854
H167	H	0.440942	0.893928	-0.519604
H168	H	0.566477	0.768377	-0.519596
H169	H	0.373592	0.633711	-0.151057
H170	H	1.058997	0.208539	0.674390
F171	F	0.457834	0.886321	0.121577
F172	F	0.633795	0.193395	0.698516
H173	H	0.263630	0.633703	-0.151058
H174	H	0.263624	0.633688	0.151094
F175	F	-0.113522	0.633686	-0.171884
F176	F	0.011591	0.633705	-0.171896
F177	F	0.332749	1.011432	0.121599
H178	H	0.306254	0.893928	-0.106791
