data_functionalizedCrystal
_audit_creation_method	'MofGen! by Chris Wilmer'
_symmetry_space_group_name_H-M	'P1'
_symmetry_Int_Tables_number	1
_symmetry_cell_setting	triclinic
loop_
_symmetry_equiv_pos_as_xyz
  x,y,z
_cell_length_a	21.395362
_cell_length_b	21.395361
_cell_length_c	21.395355
_cell_angle_alpha	89.978489
_cell_angle_beta	89.956060
_cell_angle_gamma	90.046585
loop_
_atom_site_label
_atom_site_type_symbol
_atom_site_fract_x
_atom_site_fract_y
_atom_site_fract_z
Zn1	Zn	0.957859	-0.249246	-0.354573
Zn2	Zn	1.207859	0.000754	-0.104573
Zn3	Zn	1.457859	0.250754	0.145427
Zn4	Zn	1.707859	0.500754	0.395427
Zn5	Zn	0.957762	-0.354005	-0.249790
Zn6	Zn	1.207762	-0.104005	0.000210
Zn7	Zn	1.457762	0.145995	0.250210
Zn8	Zn	1.707762	0.395995	0.500210
Zn9	Zn	0.853074	-0.249275	-0.249774
Zn10	Zn	1.103074	0.000725	0.000226
Zn11	Zn	1.353074	0.250725	0.250226
Zn12	Zn	1.603074	0.500725	0.500226
Zn13	Zn	0.853044	-0.354018	-0.354494
Zn14	Zn	1.103044	-0.104018	-0.104494
Zn15	Zn	1.353044	0.145982	0.145506
Zn16	Zn	1.603044	0.395982	0.395506
O17	O	0.905435	-0.301636	-0.302158
O18	O	1.155435	-0.051636	-0.052158
O19	O	1.405435	0.198364	0.197842
O20	O	1.655435	0.448364	0.447842
O21	O	1.045524	-0.263125	-0.340712
O22	O	1.295524	-0.013125	-0.090712
O23	O	1.545524	0.236875	0.159288
O24	O	1.795524	0.486875	0.409288
O25	O	0.943847	-0.340119	-0.162110
O26	O	1.193847	-0.090119	0.087890
O27	O	1.443847	0.159881	0.337890
O28	O	1.693847	0.409881	0.587890
O29	O	0.867028	-0.161593	-0.263702
O30	O	1.117028	0.088407	-0.013702
O31	O	1.367028	0.338407	0.236298
O32	O	1.617028	0.588407	0.486298
O33	O	1.045453	-0.340091	-0.263729
O34	O	1.295453	-0.090091	-0.013729
O35	O	1.545453	0.159909	0.236271
O36	O	1.795453	0.409909	0.486271
O37	O	0.944013	-0.161572	-0.340697
O38	O	1.194013	0.088428	-0.090697
O39	O	1.444013	0.338428	0.159303
O40	O	1.694013	0.588428	0.409303
O41	O	0.866934	-0.263174	-0.162098
O42	O	1.116934	-0.013174	0.087902
O43	O	1.366934	0.236826	0.337902
O44	O	1.616934	0.486826	0.587902
O45	O	0.765392	-0.263187	-0.263626
O46	O	1.015392	-0.013187	-0.013626
O47	O	1.265392	0.236813	0.236374
O48	O	1.515392	0.486813	0.486374
O49	O	0.866976	-0.340113	-0.442183
O50	O	1.116976	-0.090113	-0.192183
O51	O	1.366976	0.159887	0.057817
O52	O	1.616976	0.409887	0.307817
O53	O	0.765370	-0.340141	-0.340564
O54	O	1.015370	-0.090141	-0.090564
O55	O	1.265370	0.159859	0.159436
O56	O	1.515370	0.409859	0.409436
O57	O	0.943983	-0.263137	-0.442240
O58	O	1.193983	-0.013137	-0.192240
O59	O	1.443983	0.236863	0.057760
O60	O	1.693983	0.486863	0.307760
O61	O	0.943817	-0.441685	-0.263653
O62	O	1.193817	-0.191685	-0.013653
O63	O	1.443817	0.058315	0.236347
O64	O	1.693817	0.308315	0.486347
O65	O	0.866881	-0.441695	-0.340579
O66	O	1.116881	-0.191695	-0.090579
O67	O	1.366881	0.058305	0.159421
O68	O	1.616881	0.308305	0.409421
C69	C	0.742647	-0.301669	-0.302085
C70	C	0.992647	-0.051669	-0.052085
C71	C	1.242647	0.198331	0.197915
C72	C	1.492647	0.448331	0.447915
C73	C	0.673006	-0.301698	-0.302069
C74	C	0.923006	-0.051698	-0.052069
C75	C	1.173006	0.198302	0.197931
C76	C	1.423006	0.448302	0.447931
C77	C	0.640297	-0.341822	-0.342070
C78	C	0.890297	-0.091822	-0.092070
C79	C	1.140297	0.158178	0.157930
C80	C	1.390297	0.408178	0.407930
C81	C	0.574862	-0.341806	-0.342098
C82	C	0.824862	-0.091806	-0.092098
C83	C	1.074862	0.158194	0.157902
C84	C	1.324862	0.408194	0.407902
C85	C	0.542138	-0.301674	-0.302113
C86	C	0.792138	-0.051674	-0.052113
C87	C	1.042138	0.198326	0.197887
C88	C	1.292138	0.448326	0.447887
C89	C	0.574854	-0.261543	-0.262109
C90	C	0.824854	-0.011543	-0.012109
C91	C	1.074854	0.238457	0.237891
C92	C	1.324854	0.488457	0.487891
C93	C	0.640288	-0.261555	-0.262087
C94	C	0.890288	-0.011555	-0.012087
C95	C	1.140288	0.238445	0.237913
C96	C	1.390288	0.488445	0.487913
C97	C	0.438413	-0.296627	-0.245708
C98	C	0.688413	-0.046627	0.004292
C99	C	0.938413	0.203373	0.254292
C100	C	1.188413	0.453373	0.504292
C101	C	0.372980	-0.296619	-0.245730
C102	C	0.622980	-0.046619	0.004270
C103	C	0.872980	0.203381	0.254270
C104	C	1.122980	0.453381	0.504270
C105	C	0.340317	-0.301633	-0.302182
C106	C	0.590317	-0.051633	-0.052182
C107	C	0.840317	0.198367	0.197818
C108	C	1.090317	0.448367	0.447818
C109	C	0.373095	-0.306668	-0.358616
C110	C	0.623095	-0.056668	-0.108616
C111	C	0.873095	0.193332	0.141384
C112	C	1.123095	0.443332	0.391384
C113	C	0.438529	-0.306681	-0.358594
C114	C	0.688529	-0.056681	-0.108594
C115	C	0.938529	0.193319	0.141406
C116	C	1.188529	0.443319	0.391406
C117	C	0.471185	-0.301656	-0.302133
C118	C	0.721185	-0.051656	-0.052133
C119	C	0.971185	0.198344	0.197867
C120	C	1.221185	0.448344	0.447867
C121	C	0.236656	-0.341742	-0.342218
C122	C	0.486656	-0.091742	-0.092218
C123	C	0.736656	0.158258	0.157782
C124	C	0.986656	0.408258	0.407782
C125	C	0.171219	-0.341723	-0.342247
C126	C	0.421219	-0.091723	-0.092247
C127	C	0.671219	0.158277	0.157753
C128	C	0.921219	0.408277	0.407753
C129	C	0.171213	-0.261462	-0.262252
C130	C	0.421213	-0.011462	-0.012252
C131	C	0.671213	0.238538	0.237748
C132	C	0.921213	0.488538	0.487748
C133	C	0.236648	-0.261479	-0.262229
C134	C	0.486648	-0.011479	-0.012229
C135	C	0.736648	0.238521	0.237771
C136	C	0.986648	0.488521	0.487771
C137	C	0.269366	-0.301622	-0.302211
C138	C	0.519366	-0.051622	-0.052211
C139	C	0.769366	0.198378	0.197789
C140	C	1.019366	0.448378	0.447789
C141	C	0.905352	-0.464424	-0.302123
C142	C	1.155352	-0.214424	-0.052123
C143	C	1.405352	0.035576	0.197877
C144	C	1.655352	0.285576	0.447877
C145	C	0.905374	-0.534065	-0.302129
C146	C	1.155374	-0.284065	-0.052129
C147	C	1.405374	-0.034065	0.197871
C148	C	1.655374	0.215935	0.447871
C149	C	0.945470	-0.566752	-0.262114
C150	C	1.195470	-0.316752	-0.012114
C151	C	1.445470	-0.066752	0.237886
C152	C	1.695470	0.183248	0.487886
C153	C	0.945499	-0.632188	-0.262128
C154	C	1.195499	-0.382188	-0.012128
C155	C	1.445499	-0.132188	0.237872
C156	C	1.695499	0.117812	0.487872
C157	C	0.905421	-0.664933	-0.302150
C158	C	1.155421	-0.414933	-0.052150
C159	C	1.405421	-0.164933	0.197850
C160	C	1.655421	0.085067	0.447850
C161	C	0.865322	-0.632238	-0.342172
C162	C	1.115322	-0.382238	-0.092172
C163	C	1.365322	-0.132238	0.157828
C164	C	1.615322	0.117762	0.407828
C165	C	0.865299	-0.566804	-0.342162
C166	C	1.115299	-0.316804	-0.092162
C167	C	1.365299	-0.066804	0.157838
C168	C	1.615299	0.183196	0.407838
C169	C	0.849006	-0.768664	-0.307041
C170	C	1.099006	-0.518664	-0.057041
C171	C	1.349006	-0.268664	0.192959
C172	C	1.599006	-0.018664	0.442959
C173	C	0.849029	-0.834097	-0.307047
C174	C	1.099029	-0.584097	-0.057047
C175	C	1.349029	-0.334097	0.192953
C176	C	1.599029	-0.084097	0.442953
C177	C	0.905494	-0.866754	-0.302187
C178	C	1.155494	-0.616754	-0.052187
C179	C	1.405494	-0.366754	0.197813
C180	C	1.655494	-0.116754	0.447813
C181	C	0.961939	-0.833970	-0.297307
C182	C	1.211939	-0.583970	-0.047307
C183	C	1.461939	-0.333970	0.202693
C184	C	1.711939	-0.083970	0.452693
C185	C	0.961915	-0.768536	-0.297296
C186	C	1.211915	-0.518536	-0.047296
C187	C	1.461915	-0.268536	0.202704
C188	C	1.711915	-0.018536	0.452704
C189	C	0.905443	-0.735886	-0.302167
C190	C	1.155443	-0.485886	-0.052167
C191	C	1.405443	-0.235886	0.197833
C192	C	1.655443	0.014114	0.447833
C193	C	0.945625	-0.970394	-0.262186
C194	C	1.195625	-0.720394	-0.012186
C195	C	1.445625	-0.470394	0.237814
C196	C	1.695625	-0.220394	0.487814
C197	C	0.945655	-1.035830	-0.262204
C198	C	1.195655	-0.785830	-0.012204
C199	C	1.445655	-0.535830	0.237796
C200	C	1.695655	-0.285830	0.487796
C201	C	0.865473	-1.035879	-0.342245
C202	C	1.115473	-0.785879	-0.092245
C203	C	1.365473	-0.535879	0.157755
C204	C	1.615473	-0.285879	0.407755
C205	C	0.865448	-0.970444	-0.342230
C206	C	1.115448	-0.720444	-0.092230
C207	C	1.365448	-0.470444	0.157770
C208	C	1.615448	-0.220444	0.407770
C209	C	0.905524	-0.937705	-0.302197
C210	C	1.155524	-0.687705	-0.052197
C211	C	1.405524	-0.437705	0.197803
C212	C	1.655524	-0.187705	0.447803
C213	C	1.068858	-0.301603	-0.302231
C214	C	1.318858	-0.051603	-0.052231
C215	C	1.568858	0.198397	0.197769
C216	C	1.818858	0.448397	0.447769
C217	C	1.138499	-0.301589	-0.302262
C218	C	1.388499	-0.051589	-0.052262
C219	C	1.638499	0.198411	0.197738
C220	C	1.888499	0.448411	0.447738
C221	C	0.905487	-0.301623	-0.465581
C222	C	1.155487	-0.051623	-0.215581
C223	C	1.405487	0.198377	0.034419
C224	C	1.655487	0.448377	0.284419
C225	C	0.905509	-0.301618	-0.535222
C226	C	1.155509	-0.051618	-0.285222
C227	C	1.405509	0.198382	-0.035222
C228	C	1.655509	0.448382	0.214778
C229	C	0.905535	-0.138213	-0.302206
C230	C	1.155535	0.111787	-0.052206
C231	C	1.405535	0.361787	0.197794
C232	C	1.655535	0.611787	0.447794
C233	C	0.905578	-0.068571	-0.302227
C234	C	1.155578	0.181429	-0.052227
C235	C	1.405578	0.431429	0.197773
C236	C	1.655578	0.681429	0.447773
C237	C	0.945605	-0.261535	-0.567966
C238	C	1.195605	-0.011535	-0.317966
C239	C	1.445605	0.238465	-0.067966
C240	C	1.695605	0.488465	0.182034
C241	C	0.945604	-0.261508	-0.633402
C242	C	1.195604	-0.011508	-0.383402
C243	C	1.445604	0.238492	-0.133402
C244	C	1.695604	0.488492	0.116598
C245	C	0.905514	-0.301575	-0.666091
C246	C	1.155514	-0.051575	-0.416091
C247	C	1.405514	0.198425	-0.166091
C248	C	1.655514	0.448425	0.083909
C249	C	0.865410	-0.341661	-0.633339
C250	C	1.115410	-0.091661	-0.383339
C251	C	1.365410	0.158339	-0.133339
C252	C	1.615410	0.408339	0.116661
C253	C	0.865407	-0.341682	-0.567904
C254	C	1.115407	-0.091682	-0.317904
C255	C	1.365407	0.158318	-0.067904
C256	C	1.615407	0.408318	0.182096
C257	C	0.900538	-0.357992	-0.769752
C258	C	1.150538	-0.107992	-0.519752
C259	C	1.400538	0.142008	-0.269752
C260	C	1.650538	0.392008	-0.019752
C261	C	0.900545	-0.357972	-0.835185
C262	C	1.150545	-0.107972	-0.585185
C263	C	1.400545	0.142028	-0.335185
C264	C	1.650545	0.392028	-0.085185
C265	C	0.905518	-0.301509	-0.867911
C266	C	1.155518	-0.051509	-0.617911
C267	C	1.405518	0.198491	-0.367911
C268	C	1.655518	0.448491	-0.117911
C269	C	0.910497	-0.245065	-0.835197
C270	C	1.160497	0.004935	-0.585197
C271	C	1.410497	0.254935	-0.335197
C272	C	1.660497	0.504935	-0.085197
C273	C	0.910495	-0.245086	-0.769763
C274	C	1.160495	0.004914	-0.519763
C275	C	1.410495	0.254914	-0.269763
C276	C	1.660495	0.504914	-0.019763
C277	C	0.905512	-0.301556	-0.737043
C278	C	1.155512	-0.051556	-0.487043
C279	C	1.405512	0.198444	-0.237043
C280	C	1.655512	0.448444	0.012957
C281	C	0.945615	-0.261393	-0.971608
C282	C	1.195615	-0.011393	-0.721608
C283	C	1.445615	0.238607	-0.471608
C284	C	1.695615	0.488607	-0.221608
C285	C	0.945610	-0.261365	-1.037045
C286	C	1.195610	-0.011365	-0.787045
C287	C	1.445610	0.238635	-0.537045
C288	C	1.695610	0.488635	-0.287045
C289	C	0.865419	-0.341524	-1.036980
C290	C	1.115419	-0.091524	-0.786980
C291	C	1.365419	0.158476	-0.536980
C292	C	1.615419	0.408476	-0.286980
C293	C	0.865421	-0.341547	-0.971545
C294	C	1.115421	-0.091547	-0.721545
C295	C	1.365421	0.158453	-0.471545
C296	C	1.615421	0.408453	-0.221545
C297	C	0.905522	-0.301482	-0.938863
C298	C	1.155522	-0.051482	-0.688863
C299	C	1.405522	0.198518	-0.438863
C300	C	1.655522	0.448518	-0.188863
C301	C	0.905419	-0.301603	-0.139370
C302	C	1.155419	-0.051603	0.110630
C303	C	1.405419	0.198397	0.360630
C304	C	1.655419	0.448397	0.610630
C305	C	0.905518	-0.301432	-0.069729
C306	C	1.155518	-0.051432	0.180271
C307	C	1.405518	0.198568	0.430271
C308	C	1.655518	0.448568	0.680271
H309	H	0.144589	-0.374395	-0.374824
H310	H	0.394589	-0.124395	-0.124824
H311	H	0.644589	0.125605	0.125176
H312	H	0.894589	0.375605	0.375176
F313	F	0.675100	-0.218848	-0.219510
F314	F	0.925100	0.031152	0.030490
F315	F	1.175100	0.281152	0.280490
F316	F	1.425100	0.531152	0.530490
H317	H	0.832691	-0.658904	-0.374760
H318	H	1.082691	-0.408904	-0.124760
H319	H	1.332691	-0.158904	0.125240
H320	H	1.582691	0.091096	0.375240
F321	F	0.988176	-0.666983	-0.219537
F322	F	1.238176	-0.416983	0.030463
F323	F	1.488176	-0.166983	0.280463
F324	F	1.738176	0.083017	0.530463
H325	H	0.666932	-0.374509	-0.374627
H326	H	0.916932	-0.124509	-0.124627
H327	H	1.166932	0.125491	0.125373
H328	H	1.416932	0.375491	0.375373
H329	H	0.263280	-0.228809	-0.229652
H330	H	0.513280	0.021191	0.020348
H331	H	0.763280	0.271191	0.270348
H332	H	1.013280	0.521191	0.520348
H333	H	0.978103	-0.540098	-0.229519
H334	H	1.228103	-0.290098	0.020481
H335	H	1.478103	-0.040098	0.270481
H336	H	1.728103	0.209902	0.520481
F337	F	0.988272	-0.218834	-0.668258
F338	F	1.238272	0.031166	-0.418258
F339	F	1.488272	0.281166	-0.168258
F340	F	1.738272	0.531166	0.081742
H341	H	0.346297	-0.292523	-0.199778
H342	H	0.596297	-0.042523	0.050222
H343	H	0.846297	0.207477	0.300222
H344	H	1.096297	0.457477	0.550222
H345	H	0.914547	-0.199128	-0.743130
H346	H	1.164547	0.050872	-0.493130
H347	H	1.414547	0.300872	-0.243130
H348	H	1.664547	0.550872	0.006870
H349	H	0.832774	-0.374190	-0.944885
H350	H	1.082774	-0.124190	-0.694885
H351	H	1.332774	0.125810	-0.444885
H352	H	1.582774	0.375810	-0.194885
H353	H	0.832770	-0.374141	-1.063595
H354	H	1.082770	-0.124141	-0.813595
H355	H	1.332770	0.125859	-0.563595
H356	H	1.582770	0.375859	-0.313595
H357	H	0.803068	-0.860785	-0.311015
H358	H	1.053068	-0.610785	-0.061015
H359	H	1.303068	-0.360785	0.188985
H360	H	1.553068	-0.110785	0.438985
F361	F	0.915792	-0.184969	-0.870022
F362	F	1.165792	0.065031	-0.620022
F363	F	1.415792	0.315031	-0.370022
F364	F	1.665792	0.565031	-0.120022
F365	F	0.136389	-0.218747	-0.219700
F366	F	0.386389	0.031253	0.030300
F367	F	0.636389	0.281253	0.280300
F368	F	0.886389	0.531253	0.530300
H369	H	0.978260	-0.228721	-1.063704
H370	H	1.228260	0.021279	-0.813704
H371	H	1.478260	0.271279	-0.563704
H372	H	1.728260	0.521279	-0.313704
F373	F	0.822769	-0.935654	-0.384817
F374	F	1.072769	-0.685654	-0.134817
F375	F	1.322769	-0.435654	0.115183
F376	F	1.572769	-0.185654	0.365183
H377	H	1.007873	-0.741844	-0.293325
H378	H	1.257873	-0.491844	-0.043325
H379	H	1.507873	-0.241844	0.206675
H380	H	1.757873	0.008156	0.456675
H381	H	0.832647	-0.540189	-0.374747
H382	H	1.082647	-0.290189	-0.124747
H383	H	1.332647	-0.040189	0.125253
H384	H	1.582647	0.209811	0.375253
H385	H	0.978259	-0.943737	-0.229590
H386	H	1.228259	-0.693737	0.020410
H387	H	1.478259	-0.443737	0.270410
H388	H	1.728259	-0.193737	0.520410
H389	H	0.832843	-1.062540	-0.374834
H390	H	1.082843	-0.812540	-0.124834
H391	H	1.332843	-0.562540	0.125166
H392	H	1.582843	-0.312540	0.375166
F393	F	0.988292	-0.218751	-0.936823
F394	F	1.238292	0.031249	-0.686823
F395	F	1.488292	0.281249	-0.436823
F396	F	1.738292	0.531249	-0.186823
H397	H	0.465002	-0.292541	-0.199734
H398	H	0.715002	-0.042541	0.050266
H399	H	0.965002	0.207459	0.300266
H400	H	1.215002	0.457459	0.550266
H401	H	0.896494	-0.403932	-0.861815
H402	H	1.146494	-0.153932	-0.611815
H403	H	1.396494	0.096068	-0.361815
H404	H	1.646494	0.346068	-0.111815
F405	F	0.540026	-0.218829	-0.219557
F406	F	0.790026	0.031171	0.030443
F407	F	1.040026	0.281171	0.280443
F408	F	1.290026	0.531171	0.530443
F409	F	0.473411	-0.312037	-0.418652
F410	F	0.723411	-0.062037	-0.168652
F411	F	0.973411	0.187963	0.081348
F412	F	1.223411	0.437963	0.331348
H413	H	1.007918	-0.860558	-0.293349
H414	H	1.257918	-0.610558	-0.043349
H415	H	1.507918	-0.360558	0.206651
H416	H	1.757918	-0.110558	0.456651
H417	H	0.803022	-0.742081	-0.311001
H418	H	1.053022	-0.492081	-0.061001
H419	H	1.303022	-0.242081	0.188999
H420	H	1.553022	0.007919	0.438999
H421	H	0.896321	-0.403959	-0.743111
H422	H	1.146321	-0.153959	-0.493111
H423	H	1.396321	0.096041	-0.243111
H424	H	1.646321	0.346041	0.006889
F425	F	0.988338	-1.070619	-0.219617
F426	F	1.238338	-0.820619	0.030383
F427	F	1.488338	-0.570619	0.280383
F428	F	1.738338	-0.320619	0.530383
F429	F	0.822741	-0.384302	-0.668129
F430	F	1.072741	-0.134302	-0.418129
F431	F	1.322741	0.115698	-0.168129
F432	F	1.572741	0.365698	0.081871
H433	H	0.832753	-0.374322	-0.541245
H434	H	1.082753	-0.124322	-0.291245
H435	H	1.332753	0.125678	-0.041245
H436	H	1.582753	0.375678	0.208755
F437	F	0.540044	-0.384513	-0.384675
F438	F	0.790044	-0.134513	-0.134675
F439	F	1.040044	0.115487	0.115325
F440	F	1.290044	0.365487	0.365325
F441	F	0.271479	-0.384463	-0.384772
F442	F	0.521479	-0.134463	-0.134772
F443	F	0.771479	0.115537	0.115228
F444	F	1.021479	0.365537	0.365228
F445	F	0.338338	-0.312003	-0.418702
F446	F	0.588338	-0.062003	-0.168702
F447	F	0.838338	0.187997	0.081298
F448	F	1.088338	0.437997	0.331298
F449	F	0.988283	-0.218892	-0.533187
F450	F	1.238283	0.031108	-0.283187
F451	F	1.488283	0.281108	-0.033187
F452	F	1.738283	0.531108	0.216813
