data_functionalizedCrystal
_audit_creation_method	'MofGen! by Chris Wilmer'
_symmetry_space_group_name_H-M	'P1'
_symmetry_Int_Tables_number	1
_symmetry_cell_setting	triclinic
loop_
_symmetry_equiv_pos_as_xyz
  x,y,z
_cell_length_a	6.817900
_cell_length_b	16.418049
_cell_length_c	12.200875
_cell_angle_alpha	94.314492
_cell_angle_beta	107.143593
_cell_angle_gamma	103.389670
loop_
_atom_site_label
_atom_site_type_symbol
_atom_site_fract_x
_atom_site_fract_y
_atom_site_fract_z
V1	V	-4.067906	-0.116076	-0.358066
O2	O	-4.055058	0.005382	-0.350834
O3	O	-4.018735	-0.229972	-0.356016
O4	O	-4.037635	-0.114377	-0.514048
O5	O	-4.036027	-0.111013	-0.191708
V6	V	-4.549284	-0.101538	-0.338119
O7	O	-4.333868	-0.147967	-0.401819
O8	O	-4.733520	-0.069648	-0.294366
O9	O	-4.375249	0.012357	-0.340168
O10	O	-4.679528	-0.222997	-0.345351
O11	O	-4.698559	-0.106602	-0.504477
O12	O	-4.356349	-0.103238	-0.182137
C13	C	-3.862961	-0.257734	-0.350471
C14	C	-3.904166	-0.350846	-0.349835
C15	C	-4.181698	-0.569338	-0.354132
C16	C	-4.220403	-0.656827	-0.353545
C17	C	-3.854851	-0.648276	-0.342060
C18	C	-3.816152	-0.560790	-0.342655
C19	C	-3.979580	-0.521322	-0.348686
C20	C	-4.056984	-0.696298	-0.347503
C21	C	-4.098949	-0.791157	-0.346866
C22	C	-3.937614	-0.426457	-0.349325
C23	C	-3.887069	-0.110280	-0.552054
C24	C	-3.943598	-0.109644	-0.679573
C25	C	-4.047053	-0.108481	-0.913044
C26	C	-3.989475	-0.109128	-0.783124
C27	C	-4.194364	0.040115	-0.345711
C28	C	-4.132398	0.133226	-0.346354
C29	C	-4.170256	-0.107337	-0.144124
C30	C	-4.092965	-0.107969	-0.016604
H31	H	-3.651559	-0.521695	-0.338224
C32	C	-4.442732	-0.709645	-0.359543
H33	H	-4.442389	-0.767403	-0.358341
H34	H	-4.477978	-0.689382	-0.294772
H35	H	-4.544999	-0.704745	-0.429242
H36	H	-4.314773	-0.537206	-0.359041
H37	H	-3.721799	-0.680422	-0.337148
