data_functionalizedCrystal
_audit_creation_method	'MofGen! by Chris Wilmer'
_symmetry_space_group_name_H-M	'P1'
_symmetry_Int_Tables_number	1
_symmetry_cell_setting	triclinic
loop_
_symmetry_equiv_pos_as_xyz
  x,y,z
_cell_length_a	17.077404
_cell_length_b	29.839131
_cell_length_c	17.077396
_cell_angle_alpha	89.968087
_cell_angle_beta	89.981638
_cell_angle_gamma	90.039390
loop_
_atom_site_label
_atom_site_type_symbol
_atom_site_fract_x
_atom_site_fract_y
_atom_site_fract_z
Zn1	Zn	1.199953	-0.178878	-0.443800
Zn2	Zn	1.699953	0.321122	0.056200
Zn3	Zn	1.199818	-0.254008	-0.312526
Zn4	Zn	1.699818	0.245992	0.187474
Zn5	Zn	1.068685	-0.178890	-0.312551
Zn6	Zn	1.568685	0.321110	0.187449
Zn7	Zn	1.068611	-0.253979	-0.443752
Zn8	Zn	1.568611	0.246021	0.056248
O9	O	1.134267	-0.216439	-0.378157
O10	O	1.634267	0.283561	0.121843
O11	O	1.309782	-0.188851	-0.426396
O12	O	1.809782	0.311149	0.073604
O13	O	1.182398	-0.244062	-0.202682
O14	O	1.682398	0.255938	0.297318
O15	O	1.086186	-0.116022	-0.329991
O16	O	1.586186	0.383978	0.170009
O17	O	1.309683	-0.244049	-0.329950
O18	O	1.809683	0.255951	0.170050
O19	O	1.182628	-0.116012	-0.426420
O20	O	1.682628	0.383988	0.073580
O21	O	1.086055	-0.188873	-0.202700
O22	O	1.586055	0.311127	0.297300
O23	O	0.958829	-0.188844	-0.329945
O24	O	1.458829	0.311156	0.170055
O25	O	1.086059	-0.243999	-0.553606
O26	O	1.586059	0.256001	-0.053606
O27	O	0.958774	-0.244011	-0.426338
O28	O	1.458774	0.255989	0.073662
O29	O	1.182556	-0.188822	-0.553641
O30	O	1.682556	0.311178	-0.053641
O31	O	1.182325	-0.316872	-0.329903
O32	O	1.682325	0.183128	0.170097
O33	O	1.085928	-0.316850	-0.426315
O34	O	1.585928	0.183150	0.073685
C35	C	0.930319	-0.216426	-0.378140
C36	C	1.430319	0.283574	0.121860
C37	C	0.843069	-0.216431	-0.378151
C38	C	1.343069	0.283569	0.121849
C39	C	0.802132	-0.187741	-0.428447
C40	C	1.302132	0.312259	0.071553
C41	C	0.720151	-0.187744	-0.428451
C42	C	1.220151	0.312256	0.071549
C43	C	0.679110	-0.216440	-0.378161
C44	C	1.179110	0.283560	0.121839
C45	C	0.720053	-0.245132	-0.327860
C46	C	1.220053	0.254868	0.172140
C47	C	0.802032	-0.245126	-0.327853
C48	C	1.302032	0.254874	0.172147
C49	C	0.549183	-0.245142	-0.327879
C50	C	1.049183	0.254858	0.172121
C51	C	0.467199	-0.245148	-0.327887
C52	C	0.967199	0.254852	0.172113
C53	C	0.467302	-0.187759	-0.428477
C54	C	0.967302	0.312241	0.071523
C55	C	0.549281	-0.187754	-0.428470
C56	C	1.049281	0.312246	0.071530
C57	C	0.590219	-0.216447	-0.378169
C58	C	1.090219	0.283553	0.121831
C59	C	1.134125	-0.333161	-0.378118
C60	C	1.634125	0.166839	0.121882
C61	C	1.134136	-0.383096	-0.378128
C62	C	1.634136	0.116904	0.121872
C63	C	1.184552	-0.692738	-0.328029
C64	C	1.684552	-0.192738	0.171971
C65	C	1.184649	-0.880411	-0.328060
C66	C	1.684649	-0.380411	0.171940
O67	O	1.227402	-0.904675	-0.285434
O68	O	1.727402	-0.404675	0.214566
N69	N	1.134430	-0.903881	-0.378217
N70	N	1.634430	-0.403881	0.121783
C71	C	1.084186	-0.880430	-0.428373
C72	C	1.584186	-0.380430	0.071627
O73	O	1.041479	-0.904699	-0.471041
O74	O	1.541479	-0.404699	0.028959
C75	C	1.084094	-0.692757	-0.428346
C76	C	1.584094	-0.192757	0.071654
C77	C	1.134311	-0.669290	-0.378180
C78	C	1.634311	-0.169290	0.121820
C79	C	1.234766	-0.669270	-0.277868
C80	C	1.734766	-0.169270	0.222132
C81	C	1.234738	-0.622355	-0.277858
C82	C	1.734738	-0.122355	0.222142
C83	C	1.184497	-0.598907	-0.328009
C84	C	1.684497	-0.098907	0.171991
C85	C	1.134283	-0.622375	-0.378170
C86	C	1.634283	-0.122375	0.121830
C87	C	1.033855	-0.669307	-0.478506
C88	C	1.533855	-0.169307	0.021494
C89	C	1.033837	-0.622386	-0.478496
C90	C	1.533837	-0.122386	0.021504
C91	C	1.084054	-0.598919	-0.428330
C92	C	1.584054	-0.098919	0.071670
C93	C	1.084014	-0.552011	-0.428311
C94	C	1.584014	-0.052011	0.071689
N95	N	1.134233	-0.528541	-0.378154
N96	N	1.634233	-0.028541	0.121846
C97	C	1.184475	-0.551989	-0.328003
C98	C	1.684475	-0.051989	0.171997
C99	C	1.084237	-0.978960	-0.428382
C100	C	1.584237	-0.478960	0.071618
C101	C	1.084259	-1.025878	-0.428388
C102	C	1.584259	-0.525878	0.071612
C103	C	1.184723	-1.025856	-0.328076
C104	C	1.684723	-0.525856	0.171924
C105	C	1.184697	-0.978937	-0.328067
C106	C	1.684697	-0.478937	0.171933
C107	C	1.134456	-0.955490	-0.378226
C108	C	1.634456	-0.455490	0.121774
C109	C	1.184412	-0.453463	-0.327985
C110	C	1.684412	0.046537	0.172015
C111	C	1.184378	-0.406544	-0.327977
C112	C	1.684378	0.093456	0.172023
C113	C	1.083917	-0.406570	-0.428292
C114	C	1.583917	0.093430	0.071708
C115	C	1.083948	-0.453485	-0.428297
C116	C	1.583948	0.046515	0.071703
C117	C	1.134202	-0.476931	-0.378141
C118	C	1.634202	0.023069	0.121859
O119	O	1.041289	-0.527719	-0.470920
O120	O	1.541289	-0.027719	0.029080
O121	O	1.227188	-0.527712	-0.285354
O122	O	1.727188	-0.027712	0.214646
C123	C	1.184580	-0.739653	-0.328039
C124	C	1.684580	-0.239653	0.171961
C125	C	1.134366	-0.763121	-0.378200
C126	C	1.634366	-0.263121	0.121800
C127	C	1.084125	-0.739673	-0.428351
C128	C	1.584125	-0.239673	0.071649
C129	C	1.134388	-0.810039	-0.378206
C130	C	1.634388	-0.310039	0.121794
C131	C	1.184630	-0.833487	-0.328056
C132	C	1.684630	-0.333487	0.171944
C133	C	1.234849	-0.810017	-0.277899
C134	C	1.734849	-0.310017	0.222101
C135	C	1.234822	-0.763101	-0.277889
C136	C	1.734822	-0.263101	0.222111
C137	C	1.033905	-0.763143	-0.478508
C138	C	1.533905	-0.263143	0.021492
C139	C	1.033937	-0.810058	-0.478513
C140	C	1.533937	-0.310058	0.021487
C141	C	1.084178	-0.833506	-0.428363
C142	C	1.584178	-0.333506	0.071637
C143	C	1.339011	-0.216452	-0.378175
C144	C	1.839011	0.283548	0.121825
C145	C	1.426261	-0.216458	-0.378183
C146	C	1.926261	0.283542	0.121817
C147	C	1.134314	-0.216406	-0.582902
C148	C	1.634314	0.283594	-0.082902
C149	C	1.134335	-0.216392	-0.670152
C150	C	1.634335	0.283608	-0.170152
C151	C	1.134431	-0.099260	-0.378214
C152	C	1.634431	0.400740	0.121786
C153	C	1.134500	-0.049326	-0.378238
C154	C	1.634500	0.450674	0.121762
C155	C	1.184582	-0.187659	-0.711161
C156	C	1.684582	0.312341	-0.211161
C157	C	1.184592	-0.187644	-0.793142
C158	C	1.684592	0.312356	-0.293142
C159	C	1.134357	-0.216364	-0.834111
C160	C	1.634357	0.283636	-0.334111
C161	C	1.084104	-0.245098	-0.793096
C162	C	1.584104	0.254902	-0.293096
C163	C	1.084091	-0.245111	-0.711117
C164	C	1.584091	0.254889	-0.211117
C165	C	1.084135	-0.245071	-0.963966
C166	C	1.584135	0.254929	-0.463966
C167	C	1.084149	-0.245060	-1.045950
C168	C	1.584149	0.254940	-0.545950
C169	C	1.184636	-0.187605	-1.045991
C170	C	1.684636	0.312395	-0.545991
C171	C	1.184624	-0.187617	-0.964012
C172	C	1.684624	0.312383	-0.464012
C173	C	1.134371	-0.216352	-0.923002
C174	C	1.634371	0.283648	-0.423002
C175	C	1.134265	-0.216439	-0.174209
C176	C	1.634265	0.283561	0.325791
C177	C	1.134397	-0.216327	-0.086960
C178	C	1.634397	0.283673	0.413040
H179	H	0.433967	-0.164396	-0.469433
H180	H	0.933967	0.335604	0.030567
Br181	Br	1.016093	-1.057721	-0.496461
Br182	Br	1.516093	-0.557721	0.003539
H183	H	1.275713	-0.743997	-0.237039
H184	H	1.775713	-0.243997	0.262961
Br185	Br	1.015738	-0.374739	-0.496354
Br186	Br	1.515738	0.125261	0.003646
H187	H	0.433785	-0.268515	-0.286938
H188	H	0.933785	0.231485	0.213062
Br189	Br	0.965653	-0.590568	-0.546576
Br190	Br	1.465653	-0.090568	-0.046576
Br191	Br	1.015932	-0.284067	-0.908310
Br192	Br	1.515932	0.215933	-0.408310
H193	H	0.582512	-0.268505	-0.286917
H194	H	1.082512	0.231495	0.213083
Br195	Br	1.015890	-0.284104	-0.655459
Br196	Br	1.515890	0.215896	-0.155459
H197	H	0.835542	-0.164374	-0.469401
H198	H	1.335542	0.335626	0.030599
H199	H	1.043323	-0.959873	-0.469229
H200	H	1.543323	-0.459873	0.030771
Br201	Br	0.664355	-0.284073	-0.259602
Br202	Br	1.164355	0.215927	0.240398
H203	H	1.275756	-0.829116	-0.237062
H204	H	1.775756	-0.329116	0.262938
Br205	Br	0.857592	-0.284064	-0.259589
Br206	Br	1.357592	0.215936	0.240411
H207	H	1.225552	-0.164207	-1.079385
H208	H	1.725552	0.335793	-0.579385
H209	H	1.043199	-0.268481	-0.826459
H210	H	1.543199	0.231519	-0.326459
H211	H	1.225336	-0.472547	-0.287145
H212	H	1.725336	0.027453	0.212855
Br213	Br	0.664596	-0.148805	-0.496714
Br214	Br	1.164596	0.351195	0.003286
Br215	Br	0.965776	-0.841901	-0.546600
Br216	Br	1.465776	-0.341901	-0.046600
H217	H	0.582695	-0.164390	-0.469425
H218	H	1.082695	0.335610	0.030575
Br219	Br	1.015965	-0.284033	-1.101552
Br220	Br	1.515965	0.215967	-0.601552
H221	H	0.992994	-0.744055	-0.519348
H222	H	1.492994	-0.244055	-0.019348
Br223	Br	1.252533	-0.374698	-0.259889
Br224	Br	1.752533	0.125302	0.240111
H225	H	0.992958	-0.688406	-0.519352
H226	H	1.492958	-0.188406	-0.019352
H227	H	1.225588	-0.959833	-0.287218
H228	H	1.725588	-0.459833	0.212782
Br229	Br	1.302905	-0.590513	-0.209784
Br230	Br	1.802905	-0.090513	0.290216
H231	H	1.275683	-0.688357	-0.237029
H232	H	1.775683	-0.188357	0.262971
Br233	Br	1.252905	-1.057687	-0.260012
Br234	Br	1.752905	-0.557687	0.239988
H235	H	1.043059	-0.472594	-0.469149
H236	H	1.543059	0.027406	0.030851
H237	H	1.225511	-0.164248	-0.826528
H238	H	1.725511	0.335752	-0.326528
Br239	Br	1.252768	-0.148682	-0.655568
Br240	Br	1.752768	0.351318	-0.155568
H241	H	1.225534	-0.164233	-0.930657
H242	H	1.725534	0.335767	-0.430657
