data_functionalizedCrystal
_audit_creation_method	'MofGen! by Chris Wilmer'
_symmetry_space_group_name_H-M	'P1'
_symmetry_Int_Tables_number	1
_symmetry_cell_setting	triclinic
loop_
_symmetry_equiv_pos_as_xyz
  x,y,z
_cell_length_a	12.811438
_cell_length_b	14.519731
_cell_length_c	11.892095
_cell_angle_alpha	93.895723
_cell_angle_beta	91.498957
_cell_angle_gamma	83.868348
loop_
_atom_site_label
_atom_site_type_symbol
_atom_site_fract_x
_atom_site_fract_y
_atom_site_fract_z
O1	O	1.389449	0.127258	0.048454
O2	O	1.889449	0.627258	0.548454
O3	O	1.086112	0.138819	0.017350
O4	O	1.586112	0.638819	0.517350
O5	O	1.245811	-0.001127	0.033736
O6	O	1.745811	0.498873	0.533736
O7	O	1.229750	0.267204	0.032068
O8	O	1.729750	0.767204	0.532068
O9	O	1.232496	0.010523	0.220377
O10	O	1.732496	0.510523	0.720377
O11	O	1.072797	0.150469	0.203991
O12	O	1.572797	0.650469	0.703991
O13	O	1.376134	0.138908	0.235095
O14	O	1.876134	0.638908	0.735095
Zn15	Zn	1.222351	0.146539	0.249177
Zn16	Zn	1.722351	0.646539	0.749177
Zn17	Zn	1.239895	0.131189	0.003269
Zn18	Zn	1.739895	0.631189	0.503269
O19	O	1.216435	0.278855	0.218710
O20	O	1.716435	0.778855	0.718710
C21	C	1.040633	0.143638	0.106690
C22	C	1.540633	0.643638	0.606690
C23	C	0.924957	0.140630	0.094829
C24	C	1.424957	0.640630	0.594829
C25	C	0.769172	0.130040	-0.023613
C26	C	1.269172	0.630040	0.476387
C27	C	0.877860	0.132865	-0.012478
C28	C	1.377860	0.632865	0.487522
C29	C	0.863358	0.145567	0.191010
C30	C	1.363358	0.645567	0.691010
C31	C	0.754669	0.142741	0.179875
C32	C	1.254669	0.642741	0.679875
C33	C	0.707580	0.134979	0.072560
C34	C	1.207580	0.634979	0.572560
C35	C	0.598889	0.132160	0.061426
C36	C	1.098889	0.632160	0.561426
C37	C	0.584390	0.144855	0.264913
C38	C	1.084390	0.644855	0.764913
C39	C	0.693078	0.147681	0.276048
C40	C	1.193078	0.647681	0.776048
C41	C	1.238401	-0.029668	0.126979
C42	C	1.738401	0.470332	0.626979
C43	C	1.236145	-0.132068	0.126749
C44	C	1.736145	0.367932	0.626749
C45	C	1.234313	-0.215229	0.126558
C46	C	1.734313	0.284771	0.626558
C47	C	1.232024	-0.319558	0.126315
C48	C	1.732024	0.180442	0.626315
C49	C	1.230207	-0.402714	0.126121
C50	C	1.730207	0.097286	0.626121
C51	C	1.227918	-0.507050	0.125880
C52	C	1.727918	-0.007050	0.625880
C53	C	1.421613	0.134089	0.145753
C54	C	1.921613	0.634089	0.645753
C55	C	1.537290	0.137097	0.157606
C56	C	2.037290	0.637097	0.657606
C57	C	1.223846	0.307395	0.125463
C58	C	1.723846	0.807395	0.625463
C59	C	1.226101	0.409795	0.125687
C60	C	1.726101	0.909795	0.625687
N61	N	1.210386	0.157014	0.417003
N62	N	1.710386	0.657014	0.917003
N63	N	1.251869	0.120706	-0.164557
N64	N	1.751869	0.620706	0.335443
C65	C	1.335130	0.047762	0.666450
C66	C	1.835130	0.547762	1.166450
C67	C	1.326774	0.055091	0.783934
C68	C	1.826774	0.555091	1.283934
C69	C	1.185313	0.178996	0.769458
C70	C	1.685313	0.678996	1.269458
C71	C	1.193669	0.171667	0.651974
C72	C	1.693669	0.671667	1.151974
C73	C	1.268581	0.106048	0.600474
C74	C	1.768581	0.606048	1.100474
C75	C	1.276941	0.098725	0.482988
C76	C	1.776941	0.598725	0.982988
C77	C	1.135476	0.222625	0.468513
C78	C	1.635476	0.722625	0.968513
C79	C	1.127120	0.229954	0.585998
C80	C	1.627120	0.729954	1.085998
H81	H	0.901719	0.151876	0.278381
H82	H	1.401719	0.651876	0.778381
H83	H	1.124314	0.232414	0.811404
H84	H	1.624314	0.732414	1.311404
H85	H	0.560550	0.125844	-0.025956
H86	H	1.060550	0.625844	0.474044
H87	H	0.730830	0.123729	-0.110994
H88	H	1.230830	0.623729	0.389006
H89	H	0.731434	0.153997	0.363421
H90	H	1.231434	0.653997	0.863421
H91	H	1.066125	0.283377	0.627942
H92	H	1.566125	0.783377	1.127942
H93	H	0.534229	0.148881	0.343224
H94	H	1.034229	0.648881	0.843224
H95	H	1.337941	0.045297	0.441058
H96	H	1.837941	0.545297	0.941058
H97	H	0.928005	0.128843	-0.090793
H98	H	1.428005	0.628843	0.409207
H99	H	1.396133	-0.005661	0.624519
H100	H	1.896133	0.494339	1.124519
H101	H	1.081291	0.270088	0.414782
H102	H	1.581291	0.770088	0.914782
H103	H	1.380963	0.007626	0.837649
H104	H	1.880963	0.507626	1.337649
