data_functionalizedCrystal
_audit_creation_method	'MofGen! by Chris Wilmer'
_symmetry_space_group_name_H-M	'P1'
_symmetry_Int_Tables_number	1
_symmetry_cell_setting	triclinic
loop_
_symmetry_equiv_pos_as_xyz
  x,y,z
_cell_length_a	13.032721
_cell_length_b	13.033688
_cell_length_c	19.805399
_cell_angle_alpha	82.846548
_cell_angle_beta	97.155902
_cell_angle_gamma	76.639755
loop_
_atom_site_label
_atom_site_type_symbol
_atom_site_fract_x
_atom_site_fract_y
_atom_site_fract_z
Zn1	Zn	-0.216412	-1.570060	-0.271569
Zn2	Zn	-0.394055	-1.547384	-0.174856
Zn3	Zn	-0.239028	-1.392444	-0.174842
Zn4	Zn	-0.416575	-1.369855	-0.304436
O5	O	-0.316518	-1.469936	-0.231426
O6	O	-0.221088	-1.715682	-0.244991
O7	O	-0.373531	-1.526794	-0.080144
O8	O	-0.087379	-1.434948	-0.173913
O9	O	-0.351601	-1.699022	-0.173936
O10	O	-0.070763	-1.565442	-0.244978
O11	O	-0.259632	-1.412960	-0.080134
O12	O	-0.281469	-1.240817	-0.205782
O13	O	-0.389983	-1.396449	-0.394786
O14	O	-0.411912	-1.224221	-0.300994
O15	O	-0.242924	-1.543539	-0.370640
O16	O	-0.545691	-1.504891	-0.205805
O17	O	-0.562237	-1.374461	-0.301007
C18	C	-0.351589	-1.193981	-0.256953
C19	C	-0.366619	-1.075923	-0.267892
C20	C	-0.324207	-0.909467	-0.237022
C21	C	-0.308674	-1.031486	-0.225714
C22	C	-0.592503	-1.434793	-0.256986
C23	C	-0.710559	-1.419856	-0.267934
C24	C	-0.754964	-1.477788	-0.225737
C25	C	-0.876980	-1.462351	-0.237052
C26	C	-0.039451	-1.505244	-0.205778
C27	C	0.078619	-1.520291	-0.194848
C28	C	-0.316443	-1.470004	-0.407957
C29	C	-0.316411	-1.470033	-0.483184
C30	C	-0.281301	-0.746969	-0.205792
C31	C	-0.266271	-0.865026	-0.194849
C32	C	-0.239834	-1.546624	-0.505955
C33	C	-0.239802	-1.546639	-0.576640
C34	C	-0.316353	-1.470066	-0.624552
C35	C	-0.392934	-1.393466	-0.601776
C36	C	-0.392960	-1.393448	-0.531093
C37	C	-0.392827	-1.393539	-0.886835
C38	C	-0.392797	-1.393565	-0.957522
C39	C	-0.239669	-1.546730	-0.932382
C40	C	-0.239695	-1.546712	-0.861699
C41	C	-0.316273	-1.470109	-0.838929
C42	C	-0.316305	-1.470093	-0.762285
C43	C	-0.316325	-1.470086	-0.701195
C44	C	-0.316507	-1.469939	-0.055569
C45	C	-0.316214	-1.470153	0.019705
H46	H	-0.205174	-0.917312	-0.150369
H47	H	-0.869069	-1.581325	-0.150344
H48	H	-0.455308	-1.331070	-0.512554
H49	H	-0.385312	-0.857180	-0.281498
H50	H	-0.702650	-1.538818	-0.181235
O51	O	-0.467388	-1.319219	-0.648343
C52	C	-0.528280	-1.370957	-0.689999
H53	H	-0.524221	-1.453766	-0.661570
H54	H	-0.494951	-1.378818	-0.740190
C55	C	-0.650287	-1.203285	-0.741021
C56	C	-0.645309	-1.304989	-0.706102
H57	H	-0.722475	-1.162591	-0.750957
H58	H	-0.609261	-1.168427	-0.712959
H59	H	-0.622507	-1.209850	-0.782843
H60	H	-0.673076	-1.298423	-0.664277
H61	H	-0.686343	-1.339844	-0.734157
H62	H	-0.427726	-1.023642	-0.312373
H63	H	-0.929292	-1.401325	-0.281560
O64	O	-0.773059	-1.347184	-0.321059
C65	C	-0.829420	-1.399570	-0.365126
H66	H	-0.835642	-1.478017	-0.335363
H67	H	-0.785198	-1.416561	-0.410279
C68	C	-0.934673	-1.231524	-0.429025
C69	C	-0.942324	-1.327870	-0.392468
H70	H	-1.004316	-1.187295	-0.445894
H71	H	-0.896699	-1.196230	-0.399339
H72	H	-0.897817	-1.245698	-0.466648
H73	H	-0.979167	-1.313696	-0.354841
H74	H	-0.980306	-1.363160	-0.422149
H75	H	-0.247573	-1.083769	-0.181231
O76	O	-0.165367	-1.621056	-0.459509
C77	C	-0.097788	-1.688675	-0.494769
H78	H	-0.099622	-1.645651	-0.548836
H79	H	-0.126432	-1.764386	-0.498429
C80	C	0.019456	-1.771226	-0.388898
C81	C	0.017211	-1.718380	-0.455303
H82	H	0.090392	-1.789553	-0.364553
H83	H	-0.026075	-1.725672	-0.365142
H84	H	-0.004419	-1.834312	-0.391958
H85	H	0.041073	-1.655288	-0.452243
H86	H	0.062749	-1.763923	-0.479058
H87	H	-0.177447	-1.609010	-0.595176
H88	H	-0.177363	-1.609069	-0.822691
O89	O	-0.165317	-1.621032	-0.954618
C90	C	-0.181715	-1.604648	-1.027278
H91	H	-0.226915	-1.518250	-1.047733
H92	H	-0.230268	-1.660444	-1.046750
C93	C	-0.017465	-1.734207	-1.027592
C94	C	-0.072973	-1.628089	-1.052714
H95	H	0.049611	-1.748671	-1.043284
H96	H	-0.006419	-1.745249	-0.978640
H97	H	-0.057938	-1.780691	-1.043821
H98	H	-0.032507	-1.581607	-1.036479
H99	H	-0.084010	-1.617040	-1.101665
H100	H	-0.455136	-1.331206	-0.996532
H101	H	-0.455195	-1.331178	-0.868305
