data_functionalizedCrystal
_audit_creation_method	'MofGen! by Chris Wilmer'
_symmetry_space_group_name_H-M	'P1'
_symmetry_Int_Tables_number	1
_symmetry_cell_setting	triclinic
loop_
_symmetry_equiv_pos_as_xyz
  x,y,z
_cell_length_a	16.959455
_cell_length_b	10.686285
_cell_length_c	10.685314
_cell_angle_alpha	90.303498
_cell_angle_beta	94.350385
_cell_angle_gamma	85.628621
loop_
_atom_site_label
_atom_site_type_symbol
_atom_site_fract_x
_atom_site_fract_y
_atom_site_fract_z
Zn1	Zn	1.202891	-0.553795	-0.671053
Zn2	Zn	1.702891	-0.053795	-0.171053
Zn3	Zn	1.222984	-0.747537	-0.445227
Zn4	Zn	1.722984	-0.247537	0.054773
Zn5	Zn	1.080008	-0.537779	-0.461301
Zn6	Zn	1.580008	-0.037779	0.038699
Zn7	Zn	1.081565	-0.763496	-0.654946
Zn8	Zn	1.581565	-0.263496	-0.154946
O9	O	1.146862	-0.650652	-0.558132
O10	O	1.646862	-0.150652	-0.058132
O11	O	1.316168	-0.579519	-0.641111
O12	O	1.816168	-0.079519	-0.141111
O13	O	1.211775	-0.706331	-0.271809
O14	O	1.711775	-0.206331	0.228191
O15	O	1.087249	-0.364357	-0.502593
O16	O	1.587249	0.135643	-0.002593
O17	O	1.330930	-0.721861	-0.475197
O18	O	1.830930	-0.221861	0.024803
O19	O	1.177530	-0.376125	-0.656697
O20	O	1.677530	0.123875	-0.156697
O21	O	1.106732	-0.552222	-0.283619
O22	O	1.606732	-0.052222	0.216381
O23	O	0.969603	-0.567696	-0.486974
O24	O	1.469603	-0.067696	0.013026
O25	O	1.089902	-0.749061	-0.832633
O26	O	1.589902	-0.249061	-0.332633
O27	O	0.970747	-0.733530	-0.629244
O28	O	1.470747	-0.233530	-0.129244
O29	O	1.179040	-0.594994	-0.844467
O30	O	1.679040	-0.094994	-0.344467
O31	O	1.213285	-0.925200	-0.459578
O32	O	1.713285	-0.425200	0.040422
O33	O	1.109385	-0.936925	-0.613658
O34	O	1.609385	-0.436925	-0.113658
C35	C	1.163704	-0.976582	-0.533153
C36	C	1.663704	-0.476582	-0.033153
C37	C	1.170980	-1.116019	-0.522509
C38	C	1.670980	-0.616019	-0.022509
C39	C	0.941495	-0.650608	-0.558106
C40	C	1.441495	-0.150608	-0.058106
C41	C	0.853638	-0.650622	-0.558123
C42	C	1.353638	-0.150622	-0.058123
C43	C	0.481533	-0.564249	-0.484224
C44	C	0.981533	-0.064249	0.015776
C45	C	0.482797	-0.737163	-0.632103
C46	C	0.982797	-0.237163	-0.132103
C47	C	0.565342	-0.737145	-0.632097
C48	C	1.065342	-0.237145	-0.132097
C49	C	0.605987	-0.650678	-0.558152
C50	C	1.105987	-0.150678	-0.058152
C51	C	0.564086	-0.564230	-0.484213
C52	C	1.064086	-0.064230	0.015787
C53	C	0.607249	-0.823599	-0.706024
C54	C	1.107249	-0.323599	-0.206024
C55	C	0.689800	-0.823585	-0.706020
C56	C	1.189800	-0.323585	-0.206020
C57	C	0.730446	-0.737112	-0.632081
C58	C	1.230446	-0.237112	-0.132081
C59	C	0.688540	-0.650659	-0.558140
C60	C	1.188540	-0.150659	-0.058140
C61	C	0.729185	-0.564193	-0.484195
C62	C	1.229185	-0.064193	0.015805
C63	C	0.687280	-0.477734	-0.410260
C64	C	1.187280	0.022266	0.089740
C65	C	0.604732	-0.477757	-0.410274
C66	C	1.104732	0.022243	0.089726
C67	C	0.812994	-0.737088	-0.632068
C68	C	1.312994	-0.237088	-0.132068
C69	C	0.811738	-0.564174	-0.484184
C70	C	1.311738	-0.064174	0.015816
C71	C	1.353031	-0.650696	-0.558158
C72	C	1.853031	-0.150696	-0.058158
C73	C	1.440888	-0.650716	-0.558169
C74	C	1.940888	-0.150716	-0.058169
C75	C	1.132403	-0.675594	-0.885341
C76	C	1.632403	-0.175594	-0.385341
C77	C	1.126242	-0.686223	-1.024777
C78	C	1.626242	-0.186223	-0.524777
C79	C	1.129975	-0.323451	-0.583235
C80	C	1.629975	0.176549	-0.083235
C81	C	1.122778	-0.184018	-0.593933
C82	C	1.622778	0.315982	-0.093933
C83	C	1.161306	-0.625716	-0.232203
C84	C	1.661306	-0.125716	0.267797
C85	C	1.167602	-0.614734	-0.092794
C86	C	1.667602	-0.114734	0.407206
H87	H	1.075945	-1.135563	-0.663226
H88	H	1.575945	-0.635563	-0.163226
H89	H	1.217811	-1.164481	-0.453204
H90	H	1.717811	-0.664481	0.046796
H91	H	0.844824	-0.493755	-0.423976
H92	H	1.344824	0.006245	0.076024
F93	F	0.563992	-0.915646	-0.784681
F94	F	1.063992	-0.415646	-0.284681
H95	H	0.723912	-0.893984	-0.766223
H96	H	1.223912	-0.393984	-0.266223
F97	F	0.857589	-0.829104	-0.710741
F98	F	1.357589	-0.329104	-0.210741
F99	F	1.073796	-0.776855	-1.088091
F100	F	1.573796	-0.276855	-0.588091
F101	F	0.730547	-0.385720	-0.331558
F102	F	1.230547	0.114280	0.168442
F103	F	0.560129	-0.385750	-0.331594
F104	F	1.060129	0.114250	0.168406
F105	F	0.436935	-0.472232	-0.405548
F106	F	0.936935	0.027768	0.094452
F107	F	1.220042	-0.524084	-1.029476
F108	F	1.720042	-0.024084	-0.529476
F109	F	0.439540	-0.829201	-0.710772
F110	F	0.939540	-0.329201	-0.210772
