data_functionalizedCrystal
_audit_creation_method	'MofGen! by Chris Wilmer'
_symmetry_space_group_name_H-M	'P1'
_symmetry_Int_Tables_number	1
_symmetry_cell_setting	triclinic
loop_
_symmetry_equiv_pos_as_xyz
  x,y,z
_cell_length_a	18.101398
_cell_length_b	18.101395
_cell_length_c	18.101390
_cell_angle_alpha	90.031336
_cell_angle_beta	90.024681
_cell_angle_gamma	90.026371
loop_
_atom_site_label
_atom_site_type_symbol
_atom_site_fract_x
_atom_site_fract_y
_atom_site_fract_z
Zn1	Zn	1.132124	-0.294895	0.418847
Zn2	Zn	1.632124	0.205105	0.918847
Zn3	Zn	1.132019	-0.418752	0.295009
Zn4	Zn	1.632019	0.081248	0.795009
Zn5	Zn	1.008282	-0.294918	0.295008
Zn6	Zn	1.508282	0.205082	0.795008
Zn7	Zn	1.008233	-0.418689	0.418797
Zn8	Zn	1.508233	0.081311	0.918797
O9	O	1.070164	-0.356813	0.356915
O10	O	1.570164	0.143187	0.856915
O11	O	1.235743	-0.311341	0.402441
O12	O	1.735743	0.188659	0.902441
O13	O	1.115581	-0.402361	0.191376
O14	O	1.615581	0.097639	0.691376
O15	O	1.024774	-0.191282	0.311456
O16	O	1.524774	0.308718	0.811456
O17	O	1.235666	-0.402338	0.311457
O18	O	1.735666	0.097662	0.811457
O19	O	1.115760	-0.191265	0.402440
O20	O	1.615760	0.308735	0.902440
O21	O	1.024672	-0.311381	0.191375
O22	O	1.524672	0.188619	0.691375
O23	O	0.904642	-0.311320	0.311408
O24	O	1.404642	0.188680	0.811408
O25	O	1.024691	-0.402231	0.522437
O26	O	1.524691	0.097769	1.022437
O27	O	0.904607	-0.402254	0.402355
O28	O	1.404607	0.097746	0.902355
O29	O	1.115713	-0.311280	0.522473
O30	O	1.615713	0.188720	1.022473
O31	O	1.115534	-0.522376	0.311409
O32	O	1.615534	-0.022376	0.811409
O33	O	1.024590	-0.522330	0.402356
O34	O	1.524590	-0.022330	0.902356
C35	C	0.877754	-0.356783	0.356877
C36	C	1.377754	0.143217	0.856877
C37	C	0.795440	-0.356788	0.356878
C38	C	1.295440	0.143212	0.856878
C39	C	0.496349	-0.356835	0.356940
C40	C	0.996349	0.143165	0.856940
C41	C	0.527672	-0.299336	0.299997
C42	C	1.027672	0.200664	0.799997
C43	C	0.613290	-0.299490	0.299754
C44	C	1.113290	0.200510	0.799754
C45	C	0.644731	-0.356811	0.356909
C46	C	1.144731	0.143189	0.856909
C47	C	0.613613	-0.434824	0.335587
C48	C	1.113613	0.065176	0.835587
C49	C	0.527968	-0.434505	0.335191
C50	C	1.027968	0.065495	0.835191
C51	C	0.527964	-0.336998	0.435339
C52	C	1.027964	0.163002	0.935339
C53	C	0.613615	-0.335261	0.434911
C54	C	1.113615	0.164739	0.934911
C55	C	0.728591	-0.356803	0.356893
C56	C	1.228591	0.143197	0.856893
C57	C	0.412489	-0.356848	0.356954
C58	C	0.912489	0.143152	0.856954
C59	C	1.070065	-0.549224	0.356893
C60	C	1.570065	-0.049224	0.856893
C61	C	1.070091	-0.631538	0.356909
C62	C	1.570091	-0.131538	0.856909
C63	C	1.070253	-0.930629	0.356949
C64	C	1.570253	-0.430629	0.856949
C65	C	1.013166	-0.899306	0.414312
C66	C	1.513166	-0.399306	0.914312
C67	C	1.012895	-0.813688	0.414133
C68	C	1.512895	-0.313688	0.914133
C69	C	1.070172	-0.782247	0.356930
C70	C	1.570172	-0.282247	0.856930
C71	C	1.049043	-0.813402	0.278878
C72	C	1.549043	-0.313402	0.778878
C73	C	1.048675	-0.899047	0.279221
C74	C	1.548675	-0.399047	0.779221
C75	C	1.148595	-0.898978	0.376950
C76	C	1.648595	-0.398978	0.876950
C77	C	1.148134	-0.813327	0.378661
C78	C	1.648134	-0.313327	0.878661
C79	C	1.070128	-0.698387	0.356914
C80	C	1.570128	-0.198387	0.856914
C81	C	1.070296	-1.014488	0.356959
C82	C	1.570296	-0.514488	0.856959
C83	C	1.263326	-0.356844	0.356954
C84	C	1.763326	0.143156	0.856954
C85	C	1.345640	-0.356857	0.356971
C86	C	1.845640	0.143143	0.856971
C87	C	1.070208	-0.356746	0.550077
C88	C	1.570208	0.143254	1.050077
C89	C	1.070227	-0.356717	0.632391
C90	C	1.570227	0.143283	1.132391
C91	C	1.070284	-0.163652	0.356953
C92	C	1.570284	0.336348	0.856953
C93	C	1.070335	-0.081337	0.356970
C94	C	1.570335	0.418663	0.856970
C95	C	1.070163	-0.356827	0.164505
C96	C	1.570163	0.143173	0.664505
C97	C	1.070288	-0.356648	0.082191
C98	C	1.570288	0.143352	0.582191
C99	C	1.070267	-0.356671	0.931483
C100	C	1.570267	0.143329	1.431483
C101	C	1.127724	-0.299648	0.900180
C102	C	1.627724	0.200352	1.400180
C103	C	1.127545	-0.299437	0.814562
C104	C	1.627545	0.200563	1.314562
C105	C	1.070248	-0.356694	0.783100
C106	C	1.570248	0.143306	1.283100
C107	C	0.992231	-0.335484	0.814166
C108	C	1.492231	0.164516	1.314166
C109	C	0.992575	-0.335057	0.899811
C110	C	1.492575	0.164943	1.399811
C111	C	1.090140	-0.435050	0.899899
C112	C	1.590140	0.064950	1.399899
C113	C	1.091852	-0.434650	0.814249
C114	C	1.591852	0.065350	1.314249
C115	C	1.070232	-0.356708	0.699240
C116	C	1.570232	0.143292	1.199240
C117	C	1.070278	-0.356655	1.015342
C118	C	1.570278	0.143345	1.515342
H119	H	0.633978	-0.478814	0.375763
H120	H	1.133978	0.021186	0.875763
H121	H	0.975078	-0.278826	0.792724
H122	H	1.475078	0.221174	1.292724
H123	H	0.506122	-0.312301	0.242242
H124	H	1.006122	0.187699	0.742242
Br125	Br	0.648363	-0.203069	0.322030
Br126	Br	1.148363	0.296931	0.822030
H127	H	1.146032	-0.454361	0.921548
H128	H	1.646032	0.045639	1.421548
H129	H	0.635027	-0.451937	0.278892
H130	H	1.135027	0.048063	0.778892
H131	H	0.507101	-0.241309	0.313215
H132	H	1.007101	0.258691	0.813215
H133	H	0.633959	-0.277852	0.450989
H134	H	1.133959	0.222148	0.950989
H135	H	0.991407	-0.919086	0.262279
H136	H	1.491407	-0.419086	0.762279
Br137	Br	0.954603	-0.777759	0.250131
Br138	Br	1.454603	-0.277759	0.750131
H139	H	0.633743	-0.312604	0.241661
H140	H	1.133743	0.187396	0.741661
Br141	Br	0.964456	-0.239575	0.933130
Br142	Br	1.464456	0.260425	1.433130
H143	H	0.954826	-0.793261	0.400884
H144	H	1.454826	-0.293261	0.900884
H145	H	1.114736	-0.241908	0.921715
H146	H	1.614736	0.258092	1.421715
Br147	Br	0.492013	-0.243831	0.467651
Br148	Br	0.992013	0.256169	0.967651
H149	H	1.026114	-0.792621	0.472007
H150	H	1.526114	-0.292621	0.972007
Br151	Br	1.114961	-0.933592	0.205551
Br152	Br	1.614961	-0.433592	0.705551
H153	H	1.191127	-0.919234	0.335170
H154	H	1.691127	-0.419234	0.835170
H155	H	1.053046	-0.479420	0.792829
H156	H	1.553046	0.020580	1.292829
H157	H	1.048295	-0.477538	0.920146
H158	H	1.548295	0.022462	1.420146
H159	H	1.149265	-0.450643	0.793944
H160	H	1.649265	0.049357	1.293944
H161	H	0.507956	-0.451326	0.277877
H162	H	1.007956	0.048674	0.777877
H163	H	1.089314	-0.793038	0.234972
H164	H	1.589314	-0.293038	0.734972
H165	H	0.635020	-0.374088	0.479611
H166	H	1.135020	0.125912	0.979611
Br167	Br	0.494204	-0.406800	0.506055
Br168	Br	0.994204	0.093200	1.006055
Br169	Br	0.493425	-0.508329	0.401297
Br170	Br	0.993425	-0.008329	0.901297
Br171	Br	1.180705	-0.934888	0.470196
Br172	Br	1.680705	-0.434888	0.970196
H173	H	1.164068	-0.792961	0.436103
H174	H	1.664068	-0.292961	0.936103
H175	H	1.026255	-0.919850	0.472374
H176	H	1.526255	-0.419850	0.972374
Br177	Br	1.105621	-0.202658	0.780428
Br178	Br	1.605621	0.297342	1.280428
H179	H	0.955450	-0.920888	0.401230
H180	H	1.455450	-0.420888	0.901230
H181	H	1.192917	-0.791921	0.339927
H182	H	1.692917	-0.291921	0.839927
Br183	Br	1.223970	-0.321565	0.779552
Br184	Br	1.723970	0.178435	1.279552
Br185	Br	1.224466	-0.321508	0.934529
Br186	Br	1.724466	0.178492	1.434529
Br187	Br	0.918788	-0.401254	0.934325
Br188	Br	1.418788	0.098746	1.434325
H189	H	0.948259	-0.375737	0.793784
H190	H	1.448259	0.124263	1.293784
