data_functionalizedCrystal
_audit_creation_method	'MofGen! by Chris Wilmer'
_symmetry_space_group_name_H-M	'P1'
_symmetry_Int_Tables_number	1
_symmetry_cell_setting	triclinic
loop_
_symmetry_equiv_pos_as_xyz
  x,y,z
_cell_length_a	6.817900
_cell_length_b	16.418049
_cell_length_c	14.858572
_cell_angle_alpha	95.075873
_cell_angle_beta	104.524003
_cell_angle_gamma	103.389670
loop_
_atom_site_label
_atom_site_type_symbol
_atom_site_fract_x
_atom_site_fract_y
_atom_site_fract_z
V1	V	-4.037872	-0.116414	-0.290289
V2	V	-3.787872	0.133586	-0.040289
V3	V	-3.537872	0.383586	0.209711
V4	V	-3.287872	0.633586	0.459711
O5	O	-4.025632	0.005052	-0.284426
O6	O	-3.775632	0.255052	-0.034426
O7	O	-3.525632	0.505052	0.215574
O8	O	-3.275632	0.755052	0.465574
O9	O	-3.988873	-0.230307	-0.288628
O10	O	-3.738873	0.019693	-0.038628
O11	O	-3.488873	0.269693	0.211372
O12	O	-3.238873	0.519693	0.461372
O13	O	-3.994518	-0.114861	-0.416746
O14	O	-3.744518	0.135139	-0.166746
O15	O	-3.494518	0.385139	0.083254
O16	O	-3.244518	0.635139	0.333254
O17	O	-4.019948	-0.111194	-0.155421
O18	O	-3.769948	0.138806	0.094579
O19	O	-3.519948	0.388806	0.344579
O20	O	-3.269948	0.638806	0.594579
V21	V	-4.520924	-0.101857	-0.274118
V22	V	-4.270924	0.148143	-0.024118
V23	V	-4.020924	0.398143	0.225882
V24	V	-3.770924	0.648143	0.475882
O25	O	-4.300165	-0.148345	-0.325761
O26	O	-4.050165	0.101655	-0.075761
O27	O	-3.800165	0.351655	0.174239
O28	O	-3.550165	0.601655	0.424239
O29	O	-4.708829	-0.069925	-0.238647
O30	O	-4.458829	0.180075	0.011353
O31	O	-4.208829	0.430075	0.261353
O32	O	-3.958829	0.680075	0.511353
O33	O	-4.346717	0.012037	-0.275780
O34	O	-4.096717	0.262037	-0.025780
O35	O	-3.846717	0.512037	0.224220
O36	O	-3.596717	0.762037	0.474220
O37	O	-4.650562	-0.223322	-0.279981
O38	O	-4.400562	0.026678	-0.029981
O39	O	-4.150562	0.276678	0.220019
O40	O	-3.900562	0.526678	0.470019
O41	O	-4.656246	-0.107077	-0.408987
O42	O	-4.406246	0.142923	-0.158987
O43	O	-4.156246	0.392923	0.091013
O44	O	-3.906246	0.642923	0.341013
O45	O	-4.341072	-0.103410	-0.147661
O46	O	-4.091072	0.146590	0.102339
O47	O	-3.841072	0.396590	0.352339
O48	O	-3.591072	0.646590	0.602339
C49	C	-3.833565	-0.258065	-0.284132
C50	C	-3.583565	-0.008065	-0.034132
C51	C	-3.333565	0.241935	0.215868
C52	C	-3.083565	0.491935	0.465868
C53	C	-3.874823	-0.351175	-0.283617
C54	C	-3.624823	-0.101175	-0.033617
C55	C	-3.374823	0.148825	0.216383
C56	C	-3.124823	0.398825	0.466383
C57	C	-4.151994	-0.569671	-0.287100
C58	C	-3.901994	-0.319671	-0.037100
C59	C	-3.651994	-0.069671	0.212900
C60	C	-3.401994	0.180329	0.462900
C61	C	-4.190749	-0.657160	-0.286624
C62	C	-3.940749	-0.407160	-0.036624
C63	C	-3.690749	-0.157160	0.213376
C64	C	-3.440749	0.092840	0.463376
C65	C	-3.826160	-0.648599	-0.277313
C66	C	-3.576160	-0.398599	-0.027313
C67	C	-3.326160	-0.148599	0.222687
C68	C	-3.076160	0.101401	0.472687
C69	C	-3.787412	-0.561113	-0.277796
C70	C	-3.537412	-0.311113	-0.027796
C71	C	-3.287412	-0.061113	0.222204
C72	C	-3.037412	0.188887	0.472204
C73	C	-3.950333	-0.521651	-0.282685
C74	C	-3.700333	-0.271651	-0.032685
C75	C	-3.450333	-0.021651	0.217315
C76	C	-3.200333	0.228349	0.467315
C77	C	-4.027837	-0.696625	-0.281726
C78	C	-3.777837	-0.446625	-0.031726
C79	C	-3.527837	-0.196625	0.218274
C80	C	-3.277837	0.053375	0.468274
C81	C	-4.069856	-0.791484	-0.281210
C82	C	-3.819856	-0.541484	-0.031210
C83	C	-3.569856	-0.291484	0.218790
C84	C	-3.319856	-0.041484	0.468790
C85	C	-3.908314	-0.426786	-0.283203
C86	C	-3.658314	-0.176786	-0.033203
C87	C	-3.408314	0.073214	0.216797
C88	C	-3.158314	0.323214	0.466797
C89	C	-3.840765	-0.110800	-0.447559
C90	C	-3.590765	0.139200	-0.197559
C91	C	-3.340765	0.389200	0.052441
C92	C	-3.090765	0.639200	0.302441
C93	C	-3.886598	-0.110285	-0.550940
C94	C	-3.636598	0.139715	-0.300940
C95	C	-3.386598	0.389715	-0.050940
C96	C	-3.136598	0.639715	0.199060
C97	C	-4.054347	-0.108399	-0.929503
C98	C	-3.804347	0.141601	-0.679503
C99	C	-3.554347	0.391601	-0.429503
C100	C	-3.304347	0.641601	-0.179503
C101	C	-4.007666	-0.108924	-0.824175
C102	C	-3.757666	0.141076	-0.574175
C103	C	-3.507666	0.391076	-0.324175
C104	C	-3.257666	0.641076	-0.074175
C105	C	-3.970474	-0.109343	-0.740225
C106	C	-3.720474	0.140657	-0.490225
C107	C	-3.470474	0.390657	-0.240225
C108	C	-3.220474	0.640657	0.009775
C109	C	-3.923790	-0.109866	-0.634890
C110	C	-3.673790	0.140134	-0.384890
C111	C	-3.423790	0.390134	-0.134890
C112	C	-3.173790	0.640134	0.115110
C113	C	-4.165367	0.039789	-0.280273
C114	C	-3.915367	0.289789	-0.030273
C115	C	-3.665367	0.539789	0.219727
C116	C	-3.415367	0.789789	0.469727
C117	C	-4.103347	0.132900	-0.280794
C118	C	-3.853347	0.382900	-0.030794
C119	C	-3.603347	0.632900	0.219206
C120	C	-3.353347	0.882900	0.469206
C121	C	-4.158167	-0.107473	-0.116844
C122	C	-3.908167	0.142527	0.133156
C123	C	-3.658167	0.392527	0.383156
C124	C	-3.408167	0.642527	0.633156
C125	C	-4.091573	-0.107985	-0.013461
C126	C	-3.841573	0.142015	0.236539
C127	C	-3.591573	0.392015	0.486539
C128	C	-3.341573	0.642015	0.736539
H129	H	-4.284658	-0.537544	-0.291080
H130	H	-4.034658	-0.287544	-0.041080
H131	H	-3.784658	-0.037544	0.208920
H132	H	-3.534658	0.212456	0.458920
H133	H	-4.354959	-0.696255	-0.290222
H134	H	-4.104959	-0.446255	-0.040222
H135	H	-3.854959	-0.196255	0.209778
H136	H	-3.604959	0.053745	0.459778
F137	F	-3.572768	-0.510003	-0.273101
F138	F	-3.322768	-0.260003	-0.023101
F139	F	-3.072768	-0.010003	0.226899
F140	F	-2.822768	0.239997	0.476899
H141	H	-3.693520	-0.680739	-0.273331
H142	H	-3.443520	-0.430739	-0.023331
H143	H	-3.193520	-0.180739	0.226669
H144	H	-2.943520	0.069261	0.476669
