data_functionalizedCrystal
_audit_creation_method	'MofGen! by Chris Wilmer'
_symmetry_space_group_name_H-M	'P1'
_symmetry_Int_Tables_number	1
_symmetry_cell_setting	triclinic
loop_
_symmetry_equiv_pos_as_xyz
  x,y,z
_cell_length_a	10.654546
_cell_length_b	17.666332
_cell_length_c	10.654559
_cell_angle_alpha	90.003826
_cell_angle_beta	95.513896
_cell_angle_gamma	89.983069
loop_
_atom_site_label
_atom_site_type_symbol
_atom_site_fract_x
_atom_site_fract_y
_atom_site_fract_z
O1	O	-1.667858	0.063077	0.176380
O2	O	-1.302380	0.063049	0.193191
O3	O	-1.493516	0.063064	0.002047
O4	O	-1.476722	0.063063	0.367524
O5	O	-1.493482	-0.062833	0.002036
O6	O	-1.302346	-0.062848	0.193180
O7	O	-1.667824	-0.062819	0.176369
Cu8	Cu	-1.485082	-0.074329	0.184774
Cu9	Cu	-1.485122	0.074559	0.184786
O10	O	-1.476688	-0.062834	0.367513
C11	C	-1.255565	0.000097	0.191952
C12	C	-1.116121	0.000087	0.188262
C13	C	-1.036639	0.000094	0.300804
C14	C	-0.905618	0.000102	0.297329
C15	C	-0.933574	0.000097	0.068760
C16	C	-1.064592	0.000084	0.072236
C17	C	-1.020498	0.000100	0.432766
C18	C	-0.889477	0.000107	0.429291
N19	N	-1.485063	-0.179048	0.184764
C20	C	-1.569726	-0.218652	0.100168
C21	C	-1.569733	-0.297899	0.100162
C22	C	-1.485090	-0.337540	0.184774
C23	C	-1.400410	-0.297928	0.269377
C24	C	-1.400397	-0.218682	0.269372
N25	N	-1.470074	-0.461960	0.295764
N26	N	-1.470094	-0.537241	0.295765
C27	C	-1.485123	-0.576304	0.184792
N28	N	-1.500155	-0.537244	0.073815
N29	N	-1.500141	-0.461957	0.073815
C30	C	-1.485094	-0.423470	0.184788
C31	C	-1.569799	-0.701837	0.100182
C32	C	-1.569797	-0.781086	0.100174
C33	C	-1.400480	-0.781113	0.269400
C34	C	-1.400476	-0.701866	0.269397
C35	C	-1.485141	-0.662232	0.184789
C36	C	-0.714639	0.000123	0.177611
C37	C	-0.854081	0.000107	0.181310
C38	C	-1.492264	0.000117	-0.044756
C39	C	-1.488567	0.000121	-0.184199
N40	N	-1.485151	0.179278	0.184786
C41	C	-1.372555	0.000114	-0.235737
C42	C	-1.369089	0.000108	-0.366760
C43	C	-1.597659	0.000120	-0.394695
C44	C	-1.601123	0.000120	-0.263675
C45	C	-1.240591	0.000111	-0.219610
C46	C	-1.237126	0.000105	-0.350632
C47	C	-1.477940	0.000114	0.414316
C48	C	-1.481637	0.000115	0.553759
H49	H	-0.847760	0.052797	0.479018
H50	H	-1.331540	-0.669618	0.338288
N51	N	-0.828949	-0.071883	0.482130
H52	H	-0.734792	-0.069246	0.477647
H53	H	-0.864488	-0.116523	0.431237
N54	N	-1.661126	-0.823802	0.008931
H55	H	-1.648286	-0.880019	0.021767
H56	H	-1.645855	-0.809958	-0.080304
H57	H	-1.200739	0.054468	-0.173964
N58	N	-1.181445	-0.071903	-0.397851
H59	H	-1.157086	-0.106690	-0.324298
H60	H	-1.104214	-0.059337	-0.441816
H61	H	-1.695591	0.000116	-0.221718
H62	H	-1.331557	-0.813388	0.338288
N63	N	-1.168800	0.069888	-0.389545
H64	H	-1.140817	0.101035	-0.312408
H65	H	-1.227282	0.100969	-0.449407
N66	N	-1.661051	-0.340633	0.008922
H67	H	-1.645824	-0.326855	-0.080356
H68	H	-1.750266	-0.326805	0.024331
N69	N	-1.309108	-0.340678	0.360632
H70	H	-1.321964	-0.396890	0.347801
H71	H	-1.324381	-0.326815	0.449864
H72	H	-1.129303	0.000067	-0.019407
H73	H	-1.331453	-0.186436	0.338262
N74	N	-1.661085	-0.659069	0.008927
H75	H	-1.750352	-0.672833	0.024205
H76	H	-1.645734	-0.672879	-0.080306
N77	N	-1.719047	0.000116	-0.480424
H78	H	-1.722722	0.046784	-0.535408
H79	H	-1.793000	0.000092	-0.427806
H80	H	-1.049816	-0.052590	0.484372
N81	N	-1.174711	-0.069676	-0.164293
H82	H	-1.084111	-0.069711	-0.184802
H83	H	-1.218799	-0.116337	-0.201271
H84	H	-1.056169	0.054456	0.474789
N85	N	-0.877983	0.000092	-0.056371
H86	H	-0.824277	0.046764	-0.062909
H87	H	-0.948285	0.000055	-0.127069
N88	N	-1.661036	-0.175904	0.008913
H89	H	-1.714670	-0.213023	-0.044682
H90	H	-1.612470	-0.143042	-0.047062
