data_functionalizedCrystal
_audit_creation_method	'MofGen! by Chris Wilmer'
_symmetry_space_group_name_H-M	'P1'
_symmetry_Int_Tables_number	1
_symmetry_cell_setting	triclinic
loop_
_symmetry_equiv_pos_as_xyz
  x,y,z
_cell_length_a	10.654541
_cell_length_b	19.188924
_cell_length_c	9.130307
_cell_angle_alpha	89.994651
_cell_angle_beta	89.999822
_cell_angle_gamma	83.812946
loop_
_atom_site_label
_atom_site_type_symbol
_atom_site_fract_x
_atom_site_fract_y
_atom_site_fract_z
O1	O	1.665760	0.098053	-0.121762
O2	O	2.165760	0.598053	0.378238
O3	O	1.300082	0.107398	-0.121776
O4	O	1.800082	0.607398	0.378224
O5	O	1.493478	0.001138	-0.121751
O6	O	1.993478	0.501138	0.378249
O7	O	1.472364	0.204312	-0.121786
O8	O	1.972364	0.704312	0.378214
O9	O	1.493472	0.001137	0.121848
O10	O	1.993472	0.501137	0.621848
O11	O	1.300076	0.107396	0.121823
O12	O	1.800076	0.607396	0.621823
O13	O	1.665753	0.098052	0.121837
O14	O	2.165753	0.598052	0.621837
Cu15	Cu	1.482914	0.102724	0.144073
Cu16	Cu	1.982914	0.602724	0.644073
Cu17	Cu	1.482921	0.102725	-0.144011
Cu18	Cu	1.982921	0.602725	0.355989
O19	O	1.472357	0.204311	0.121813
O20	O	1.972357	0.704311	0.621813
C21	C	1.253296	0.106711	0.000022
C22	C	1.753296	0.606711	0.500022
C23	C	1.113896	0.104660	0.000018
C24	C	1.613896	0.604660	0.500018
C25	C	1.083230	0.231721	-0.000022
C26	C	1.583230	0.731721	0.499978
C27	C	1.002410	0.294285	-0.000048
C28	C	1.502410	0.794285	0.499952
C29	C	0.871433	0.292353	-0.000049
C30	C	1.371433	0.792353	0.499951
C31	C	0.821275	0.227850	-0.000020
C32	C	1.321275	0.727850	0.499980
C33	C	0.902096	0.165286	0.000006
C34	C	1.402096	0.665286	0.500006
C35	C	1.033074	0.167225	0.000002
C36	C	1.533074	0.667225	0.500002
C37	C	0.932761	0.038226	0.000057
C38	C	1.432761	0.538226	0.500057
C39	C	1.063738	0.040156	0.000047
C40	C	1.563738	0.540156	0.500047
C41	C	0.882603	-0.026277	0.000086
C42	C	1.382603	0.473723	0.500086
C43	C	0.963425	-0.088843	0.000101
C44	C	1.463425	0.411157	0.500101
C45	C	1.094409	-0.086908	0.000101
C46	C	1.594409	0.413092	0.500101
C47	C	1.144559	-0.022408	0.000073
C48	C	1.644559	0.477592	0.500073
C49	C	1.492793	-0.024878	0.000050
C50	C	1.992793	0.475122	0.500050
C51	C	1.490744	-0.102396	0.000054
C52	C	1.990744	0.397604	0.500054
C53	C	1.489792	-0.138801	-0.132733
C54	C	1.989792	0.361199	0.367267
C55	C	1.487850	-0.211636	-0.132744
C56	C	1.987850	0.288364	0.367256
C57	C	1.486885	-0.248066	0.000039
C58	C	1.986885	0.251934	0.500039
C59	C	1.487831	-0.211652	0.132842
C60	C	1.987831	0.288348	0.632842
C61	C	1.489760	-0.138817	0.132850
C62	C	1.989760	0.361183	0.632850
N63	N	1.555315	-0.367282	0.098868
N64	N	2.055315	0.132718	0.598868
N65	N	1.553485	-0.436472	0.098852
N66	N	2.053485	0.063528	0.598852
C67	C	1.481068	-0.467513	0.000024
C68	C	1.981068	0.032487	0.500024
N69	N	1.410567	-0.426750	-0.098809
N70	N	1.910567	0.073250	0.401191
N71	N	1.412403	-0.357554	-0.098797
N72	N	1.912403	0.142446	0.401203
C73	C	1.484792	-0.327043	0.000045
C74	C	1.984792	0.172957	0.500045
C75	C	1.478008	-0.582894	-0.132783
C76	C	1.978008	-0.082894	0.367217
C77	C	1.476058	-0.655730	-0.132789
C78	C	1.976058	-0.155730	0.367211
C79	C	1.476051	-0.655745	0.132801
C80	C	1.976051	-0.155745	0.632801
C81	C	1.477989	-0.582910	0.132803
C82	C	1.977989	-0.082910	0.632803
C83	C	1.478973	-0.546489	0.000007
C84	C	1.978973	-0.046489	0.500007
C85	C	1.712540	0.098738	0.000036
C86	C	2.212540	0.598738	0.500036
C87	C	1.851940	0.100790	0.000031
C88	C	2.351940	0.600790	0.500031
C89	C	1.473043	0.230327	0.000009
C90	C	1.973043	0.730327	0.500009
C91	C	1.475091	0.307845	-0.000005
C92	C	1.975091	0.807845	0.499995
N93	N	1.482918	0.102723	0.346696
N94	N	1.982918	0.602723	0.846696
N95	N	1.482928	0.102721	-0.346634
N96	N	1.982928	0.602721	0.153366
C97	C	1.654239	0.008658	0.346707
C98	C	2.154239	0.508658	0.846707
C99	C	1.739908	-0.038372	0.423380
C100	C	2.239908	0.461628	0.923380
C101	C	1.739921	-0.038373	0.576713
C102	C	2.239921	0.461627	1.076713
C103	C	1.654253	0.008661	0.653378
C104	C	2.154253	0.508661	1.153378
C105	C	1.568584	0.055691	0.576705
C106	C	2.068584	0.555691	1.076705
C107	C	1.568583	0.055688	0.423368
C108	C	2.068583	0.555688	0.923368
C109	C	1.397259	0.149752	0.576693
C110	C	1.897259	0.649752	1.076693
C111	C	1.397250	0.149757	0.423360
C112	C	1.897250	0.649757	0.923360
C113	C	1.311591	0.196785	0.653358
C114	C	1.811591	0.696785	1.153358
C115	C	1.225926	0.243820	0.576685
C116	C	1.725926	0.743820	1.076685
C117	C	1.225918	0.243819	0.423343
C118	C	1.725918	0.743819	0.923343
C119	C	1.311581	0.196787	0.346687
C120	C	1.811581	0.696787	0.846687
H121	H	1.160208	-0.137856	0.000127
H122	H	1.660208	0.362144	0.500127
Br123	Br	1.311594	0.196782	0.861455
Br124	Br	1.811594	0.696782	1.361455
H125	H	1.475256	-0.685405	0.240915
H126	H	1.975256	-0.185405	0.740915
H127	H	1.654258	0.008652	0.778230
H128	H	2.154258	0.508652	1.278230
Br129	Br	1.109663	0.307639	0.680732
Br130	Br	1.609663	0.807639	1.180732
Br131	Br	0.761741	0.377261	-0.000064
Br132	Br	1.261741	0.877261	0.499936
Br133	Br	1.070485	0.381821	-0.000084
Br134	Br	1.570485	0.881821	0.499916
Br135	Br	1.479276	-0.533499	0.313023
Br136	Br	1.979276	-0.033499	0.813023
Br137	Br	0.895347	-0.176373	0.000159
Br138	Br	1.395347	0.323627	0.500159
Br139	Br	1.856160	-0.102206	0.319335
Br140	Br	2.356160	0.397794	0.819335
H141	H	1.809675	-0.076672	0.639140
H142	H	2.309675	0.423328	1.139140
Br143	Br	1.491047	-0.089407	0.313074
Br144	Br	1.991047	0.410593	0.813074
H145	H	1.156151	0.282114	0.360924
H146	H	1.656151	0.782114	0.860924
Br147	Br	0.643519	0.225229	0.000011
Br148	Br	1.143519	0.725229	0.500011
H149	H	1.478802	-0.553238	-0.240914
H150	H	1.978802	-0.053238	0.259086
Br151	Br	1.322313	-0.019777	0.000059
Br152	Br	1.822313	0.480223	0.500059
Br153	Br	1.654251	0.008665	0.138610
Br154	Br	2.154251	0.508665	0.638610
H155	H	1.189877	0.233301	-0.000054
H156	H	1.689877	0.733301	0.499946
Br157	Br	0.704848	-0.028901	0.000097
Br158	Br	1.204848	0.471099	0.500097
H159	H	1.490590	-0.109151	-0.240866
H160	H	1.990590	0.390849	0.259134
Br161	Br	1.486552	-0.261053	-0.312966
Br162	Br	1.986552	0.238947	0.187034
H163	H	1.475276	-0.685369	-0.240924
H164	H	1.975276	-0.185369	0.259076
H165	H	1.311587	0.196784	0.221835
H166	H	1.811587	0.696784	0.721835
Br167	Br	1.486506	-0.261089	0.313049
Br168	Br	1.986506	0.238911	0.813049
