data_functionalizedCrystal
_audit_creation_method	'MofGen! by Chris Wilmer'
_symmetry_space_group_name_H-M	'P1'
_symmetry_Int_Tables_number	1
_symmetry_cell_setting	triclinic
loop_
_symmetry_equiv_pos_as_xyz
  x,y,z
_cell_length_a	15.944551
_cell_length_b	19.188930
_cell_length_c	15.021413
_cell_angle_alpha	89.998889
_cell_angle_beta	89.997174
_cell_angle_gamma	83.321760
loop_
_atom_site_label
_atom_site_type_symbol
_atom_site_fract_x
_atom_site_fract_y
_atom_site_fract_z
O1	O	1.114192	0.090039	-0.073949
O2	O	1.447525	0.423372	0.259384
O3	O	1.780859	0.756705	0.592717
O4	O	0.869601	0.101141	-0.073973
O5	O	1.202934	0.434474	0.259360
O6	O	1.536267	0.767807	0.592694
O7	O	0.998955	-0.006048	-0.073943
O8	O	1.332288	0.327285	0.259390
O9	O	1.665621	0.660619	0.592724
O10	O	0.984838	0.197227	-0.073979
O11	O	1.318171	0.530560	0.259354
O12	O	1.651505	0.863894	0.592687
O13	O	0.998934	-0.006033	0.074121
O14	O	1.332268	0.327301	0.407454
O15	O	1.665601	0.660634	0.740788
O16	O	0.869580	0.101156	0.074091
O17	O	1.202914	0.434489	0.407425
O18	O	1.536247	0.767823	0.740758
O19	O	1.114171	0.090054	0.074115
O20	O	1.447505	0.423387	0.407448
O21	O	1.780838	0.756721	0.740781
Zn22	Zn	0.991873	0.095607	0.097611
Zn23	Zn	1.325206	0.428941	0.430945
Zn24	Zn	1.658539	0.762274	0.764278
Zn25	Zn	0.991900	0.095587	-0.097470
Zn26	Zn	1.325233	0.428920	0.235864
Zn27	Zn	1.658566	0.762254	0.569197
O28	O	0.984817	0.197242	0.074085
O29	O	1.318151	0.530576	0.407418
O30	O	1.651484	0.863909	0.740752
C31	C	0.838298	0.100687	0.000056
C32	C	1.171632	0.434021	0.333390
C33	C	1.504965	0.767354	0.666723
C34	C	0.745057	0.099306	0.000048
C35	C	1.078391	0.432639	0.333382
C36	C	1.411724	0.765972	0.666715
C37	C	0.530462	0.029563	0.000078
C38	C	0.863795	0.362896	0.333411
C39	C	1.197128	0.696229	0.666745
C40	C	0.469331	0.061941	-0.072931
C41	C	0.802664	0.395275	0.260402
C42	C	1.135997	0.728608	0.593735
C43	C	0.574341	0.096806	0.000059
C44	C	0.907674	0.430139	0.333393
C45	C	1.241008	0.763473	0.666726
C46	C	0.469332	0.061972	0.073048
C47	C	0.802666	0.395306	0.406382
C48	C	1.135999	0.728639	0.739715
C49	C	0.409437	0.094386	0.000074
C50	C	0.742771	0.427720	0.333407
C51	C	1.076104	0.761053	0.666740
C52	C	0.514438	0.129203	-0.073010
C53	C	0.847771	0.462536	0.260323
C54	C	1.181105	0.795870	0.593656
C55	C	0.514446	0.129225	0.073035
C56	C	0.847779	0.462558	0.406368
C57	C	1.181113	0.795891	0.739702
C58	C	0.453332	0.161652	0.000008
C59	C	0.786666	0.494986	0.333341
C60	C	1.119999	0.828319	0.666675
C61	C	0.669338	0.098198	0.000050
C62	C	1.002671	0.431531	0.333383
C63	C	1.336005	0.764864	0.666717
C64	C	0.314441	0.093000	0.000076
C65	C	0.647775	0.426333	0.333410
C66	C	0.981108	0.759666	0.666743
C67	C	0.998487	-0.032052	0.000091
C68	C	1.331821	0.301281	0.333425
C69	C	1.665154	0.634614	0.666758
C70	C	0.997115	-0.109560	0.000099
C71	C	1.330448	0.223773	0.333432
C72	C	1.663782	0.557106	0.666766
C73	C	1.073016	-0.154288	0.000111
C74	C	1.406349	0.179045	0.333444
C75	C	1.739682	0.512379	0.666777
C76	C	1.071726	-0.227115	0.000096
C77	C	1.405060	0.106218	0.333429
C78	C	1.738393	0.439551	0.666763
C79	C	0.994532	-0.255211	0.000088
C80	C	1.327866	0.078122	0.333421
C81	C	1.661199	0.411455	0.666755
C82	C	0.918622	-0.210474	0.000072
C83	C	1.251955	0.122859	0.333405
C84	C	1.585288	0.456193	0.666738
C85	C	0.919913	-0.137648	0.000077
C86	C	1.253246	0.195685	0.333410
C87	C	1.586580	0.529018	0.666744
N88	N	0.935519	-0.363364	0.050472
N89	N	1.268853	-0.030030	0.383805
N90	N	1.602186	0.303303	0.717138
N91	N	0.934298	-0.432546	0.050468
N92	N	1.267631	-0.099212	0.383802
N93	N	1.600964	0.234121	0.717135
C94	C	0.990637	-0.474630	0.000070
C95	C	1.323970	-0.141297	0.333403
C96	C	1.657303	0.192037	0.666736
N97	N	1.048256	-0.444921	-0.050314
N98	N	1.381589	-0.111588	0.283019
N99	N	1.714923	0.221746	0.616352
N100	N	1.049480	-0.375733	-0.050307
N101	N	1.382813	-0.042400	0.283026
N102	N	1.716147	0.290934	0.616360
C103	C	0.993123	-0.334178	0.000082
C104	C	1.326457	-0.000844	0.333415
C105	C	1.659790	0.332489	0.666748
C106	C	1.065145	-0.598326	0.000064
C107	C	1.398478	-0.264993	0.333398
C108	C	1.731811	0.068341	0.666731
C109	C	1.063852	-0.671154	0.000044
C110	C	1.397185	-0.337821	0.333378
C111	C	1.730519	-0.004487	0.666711
C112	C	0.910745	-0.654511	0.000029
C113	C	1.244078	-0.321178	0.333362
C114	C	1.577412	0.012156	0.666696
C115	C	0.912040	-0.581685	0.000040
C116	C	1.245373	-0.248351	0.333373
C117	C	1.578706	0.084982	0.666706
C118	C	0.989242	-0.553597	0.000062
C119	C	1.322575	-0.220263	0.333395
C120	C	1.655908	0.113070	0.666728
C121	C	1.145474	0.090507	0.000083
C122	C	1.478807	0.423840	0.333417
C123	C	1.812141	0.757174	0.666750
C124	C	1.238715	0.091889	0.000086
C125	C	1.572048	0.425222	0.333419
C126	C	1.905381	0.758556	0.666752
C127	C	0.985285	0.223247	0.000048
C128	C	1.318618	0.556580	0.333382
C129	C	1.651952	0.889913	0.666715
C130	C	0.986657	0.300755	0.000035
C131	C	1.319991	0.634088	0.333368
C132	C	1.653324	0.967422	0.666702
N133	N	0.991860	0.095621	0.230749
N134	N	1.325193	0.428954	0.564082
N135	N	1.658527	0.762287	0.897416
N136	N	0.991919	0.095568	-0.230607
N137	N	1.325252	0.428902	0.102726
N138	N	1.658585	0.762235	0.436059
C139	C	0.932038	0.145161	0.470418
C140	C	1.265371	0.478495	0.803752
C141	C	1.598705	0.811828	1.137085
C142	C	1.007887	0.158716	0.529757
C143	C	1.341221	0.492049	0.863091
C144	C	1.674554	0.825383	1.196424
C145	C	0.991882	0.095603	0.412356
C146	C	1.325215	0.428936	0.745689
C147	C	1.658548	0.762270	1.079023
C148	C	0.916053	0.082064	0.529759
C149	C	1.249386	0.415397	0.863092
C150	C	1.582719	0.748731	1.196425
C151	C	0.991896	0.095588	0.587780
C152	C	1.325229	0.428921	0.921113
C153	C	1.658562	0.762255	1.254447
C154	C	1.067770	0.109189	0.470388
C155	C	1.401103	0.442523	0.803722
C156	C	1.734436	0.775856	1.137055
C157	C	0.975885	0.032510	0.470384
C158	C	1.309218	0.365843	0.803718
C159	C	1.642551	0.699177	1.137051
C160	C	1.051789	0.046038	0.529697
C161	C	1.385123	0.379371	0.863030
C162	C	1.718456	0.712705	1.196363
C163	C	0.991872	0.095614	0.311299
C164	C	1.325206	0.428947	0.644632
C165	C	1.658539	0.762280	0.977965
C166	C	0.991914	0.095577	0.688835
C167	C	1.325247	0.428910	1.022169
C168	C	1.658580	0.762243	1.355502
H169	H	1.135880	-0.131424	0.000125
H170	H	1.469213	0.201909	0.333459
H171	H	1.802546	0.535243	0.666792
H172	H	0.850233	-0.545266	0.000035
H173	H	1.183566	-0.211933	0.333369
H174	H	1.516900	0.121401	0.666702
Br175	Br	0.847772	0.215066	0.427032
Br176	Br	1.181105	0.548399	0.760365
Br177	Br	1.514439	0.881732	1.093699
H178	H	1.133536	-0.263540	0.000102
H179	H	1.466869	0.069794	0.333435
H180	H	1.800202	0.403127	0.666769
Br181	Br	1.136237	-0.023830	0.572812
Br182	Br	1.469570	0.309504	0.906146
Br183	Br	1.802903	0.642837	1.239479
Br184	Br	0.547582	0.176562	-0.176000
Br185	Br	0.880915	0.509896	0.157333
Br186	Br	1.214249	0.843229	0.490666
Br187	Br	1.166870	-0.731859	0.000051
Br188	Br	1.500203	-0.398526	0.333384
Br189	Br	1.833536	-0.065192	0.666717
Br190	Br	0.436007	0.014531	-0.175796
Br191	Br	0.769340	0.347864	0.157537
Br192	Br	1.102673	0.681198	0.490870
H193	H	0.855769	-0.233354	0.000063
H194	H	1.189103	0.099979	0.333396
H195	H	1.522436	0.433312	0.666730
Br196	Br	1.169916	-0.560202	0.000103
Br197	Br	1.503249	-0.226869	0.333437
Br198	Br	1.836582	0.106465	0.666770
H199	H	1.021431	0.212066	0.555837
H200	H	1.354764	0.545399	0.889170
H201	H	1.688097	0.878732	1.222503
Br202	Br	0.547811	0.176602	0.175902
Br203	Br	0.881145	0.509935	0.509235
Br204	Br	1.214478	0.843269	0.842568
Br205	Br	0.586325	-0.063465	-0.000020
Br206	Br	0.919658	0.269868	0.333314
Br207	Br	1.252991	0.603201	0.666647
Br208	Br	0.809162	0.062987	0.573231
Br209	Br	1.142495	0.396321	0.906564
Br210	Br	1.475829	0.729654	1.239898
Br211	Br	0.436016	0.014561	0.175922
Br212	Br	0.769350	0.347894	0.509256
Br213	Br	1.102683	0.681228	0.842589
Br214	Br	1.174689	0.128367	0.427112
Br215	Br	1.508022	0.461701	0.760445
Br216	Br	1.841356	0.795034	1.093778
Br217	Br	0.805979	-0.692633	0.000009
Br218	Br	1.139313	-0.359300	0.333342
Br219	Br	1.472646	-0.025967	0.666676
H220	H	0.419965	0.217516	-0.000043
H221	H	0.753298	0.550850	0.333291
H222	H	1.086632	0.884183	0.666624
Br223	Br	0.816897	-0.076942	0.000059
Br224	Br	1.150230	0.256391	0.333392
Br225	Br	1.483563	0.589725	0.666726
Br226	Br	0.953274	-0.056383	0.426880
Br227	Br	1.286607	0.276950	0.760213
Br228	Br	1.619941	0.610283	1.093546
