data_functionalizedCrystal
_audit_creation_method	'MofGen! by Chris Wilmer'
_symmetry_space_group_name_H-M	'P1'
_symmetry_Int_Tables_number	1
_symmetry_cell_setting	triclinic
loop_
_symmetry_equiv_pos_as_xyz
  x,y,z
_cell_length_a	13.339070
_cell_length_b	13.330367
_cell_length_c	13.339070
_cell_angle_alpha	89.998996
_cell_angle_beta	64.370706
_cell_angle_gamma	90.007766
loop_
_atom_site_label
_atom_site_type_symbol
_atom_site_fract_x
_atom_site_fract_y
_atom_site_fract_z
O1	O	1.496812	0.083450	-0.550527
O2	O	1.182002	0.083445	-0.478267
O3	O	1.303277	0.083444	-0.356992
O4	O	1.375537	0.083451	-0.671802
O5	O	1.303252	-0.083403	-0.356982
O6	O	1.181977	-0.083402	-0.478257
O7	O	1.496786	-0.083397	-0.550517
Cu8	Cu	1.339379	-0.098634	-0.514386
Cu9	Cu	1.339409	0.098682	-0.514398
O10	O	1.375512	-0.083396	-0.671791
C11	C	1.140874	0.000021	-0.466056
C12	C	1.018360	0.000019	-0.429672
N13	N	1.339366	-0.237416	-0.514378
C14	C	0.732973	0.000041	-0.712571
C15	C	0.848081	0.000046	-0.746759
C16	C	0.890657	0.000039	-0.667490
C17	C	0.818112	0.000028	-0.554028
C18	C	0.702992	0.000031	-0.519837
C19	C	0.860676	0.000029	-0.474756
C20	C	0.788132	0.000017	-0.361294
C21	C	0.673023	0.000020	-0.327109
C22	C	0.630448	0.000027	-0.406377
C23	C	0.975796	0.000026	-0.508947
C24	C	0.945816	0.000015	-0.316213
C25	C	0.830707	0.000010	-0.282025
C26	C	1.285698	-0.710038	-0.568068
C27	C	1.393148	-0.710007	-0.460728
C28	C	1.393135	-0.604989	-0.460721
C29	C	1.339404	-0.552490	-0.514390
C30	C	1.285685	-0.605010	-0.568066
C31	C	1.446862	-0.552461	-0.407055
C32	C	1.446852	-0.447436	-0.407047
C33	C	1.393113	-0.394936	-0.460710
C34	C	1.339391	-0.447462	-0.514388
C35	C	1.285660	-0.394963	-0.568057
C36	C	1.231931	-0.447488	-0.621728
C37	C	1.231946	-0.552509	-0.621729
C38	C	1.393097	-0.289914	-0.460709
C39	C	1.285648	-0.289935	-0.568054
C40	C	1.537914	0.000029	-0.562728
C41	C	1.660428	0.000037	-0.599111
C42	C	1.291058	0.000022	-0.315872
C43	C	1.254675	0.000025	-0.193358
N44	N	1.339429	0.237463	-0.514399
C45	C	1.387730	0.000028	-0.712912
C46	C	1.424114	0.000031	-0.835426
C47	C	1.537574	0.000029	0.092030
C48	C	1.571761	0.000020	-0.023079
C49	C	1.492493	0.000021	-0.065654
C50	C	1.379030	0.000031	0.006890
C51	C	1.344839	0.000032	0.122010
C52	C	1.299758	0.000025	-0.035674
C53	C	1.186296	0.000035	0.036871
C54	C	1.152111	0.000037	0.151979
C55	C	1.231380	0.000035	0.194555
C56	C	1.333949	0.000024	-0.150794
C57	C	1.141215	0.000028	-0.120813
C58	C	1.107028	0.000037	-0.005705
H59	H	1.034852	0.000031	-0.601328
H60	H	1.241888	-0.247197	-0.611754
O61	O	1.444170	0.000200	-0.221211
C62	C	1.494457	0.086600	-0.202184
H63	H	1.428683	0.146996	-0.161777
H64	H	1.560659	0.115607	-0.284686
H65	H	1.534691	0.067063	-0.144706
H66	H	0.907140	0.000063	-0.839139
H67	H	1.490599	-0.404677	-0.363345
O68	O	0.691429	0.000006	-0.789416
C69	C	0.574272	0.000037	-0.734906
H70	H	0.545669	-0.031556	-0.647419
H71	H	0.540077	-0.048396	-0.783449
H72	H	0.542334	0.080084	-0.729771
H73	H	0.984385	0.000045	-0.695333
H74	H	0.613959	0.000022	-0.234721
H75	H	0.536718	0.000023	-0.378547
O76	O	1.525648	-0.000164	-0.177462
C77	C	1.484167	-0.086560	-0.207686
H78	H	1.466142	-0.146954	-0.141602
H79	H	1.548555	-0.115573	-0.291148
H80	H	1.404263	-0.067018	-0.214748
H81	H	1.490615	-0.595209	-0.363366
H82	H	0.771625	0.000010	-0.189642
H83	H	0.980479	0.000014	-0.251665
H84	H	1.014645	0.000044	0.053377
O85	O	1.233421	-0.761166	-0.620039
C86	C	1.149148	-0.821910	-0.542166
H87	H	1.168777	-0.837638	-0.468538
H88	H	1.144639	-0.895764	-0.583113
H89	H	1.065883	-0.781451	-0.511878
H90	H	1.203550	0.000046	0.288284
O91	O	1.179903	-0.396376	-0.673951
C92	C	1.257738	-0.335634	-0.758257
H93	H	1.331406	-0.319896	-0.738691
H94	H	1.216776	-0.261785	-0.762736
H95	H	1.287972	-0.376102	-0.841517
O96	O	1.445136	-0.238926	-0.408411
C97	C	1.396820	-0.264605	-0.294686
H98	H	1.308743	-0.293506	-0.269401
H99	H	1.393982	-0.195528	-0.243140
H100	H	1.448664	-0.325541	-0.279556
H101	H	1.436902	-0.752755	-0.417038
H102	H	1.602102	0.000019	0.126707
O103	O	1.179679	-0.603645	-0.673704
C104	C	1.095415	-0.664401	-0.595836
H105	H	1.115043	-0.680122	-0.522206
H106	H	1.090924	-0.738258	-0.636788
H107	H	1.012143	-0.623955	-0.565551
H108	H	1.664142	0.000010	-0.082137
O109	O	1.041883	0.000216	0.222403
C110	C	0.991625	0.086616	0.203363
H111	H	1.057419	0.147012	0.162945
H112	H	0.925434	0.115622	0.285861
H113	H	0.951382	0.067080	0.145890
O114	O	1.064350	0.000078	-0.162343
C115	C	1.118855	0.000054	-0.279500
H116	H	1.206348	0.031640	-0.308102
H117	H	1.070317	0.048497	-0.313684
H118	H	1.123975	-0.079990	-0.311451
