data_functionalizedCrystal
_audit_creation_method	'MofGen! by Chris Wilmer'
_symmetry_space_group_name_H-M	'P1'
_symmetry_Int_Tables_number	1
_symmetry_cell_setting	triclinic
loop_
_symmetry_equiv_pos_as_xyz
  x,y,z
_cell_length_a	9.565339
_cell_length_b	14.044220
_cell_length_c	14.044220
_cell_angle_alpha	93.188878
_cell_angle_beta	90.001475
_cell_angle_gamma	89.991240
loop_
_atom_site_label
_atom_site_type_symbol
_atom_site_fract_x
_atom_site_fract_y
_atom_site_fract_z
O1	O	-0.116117	-1.277156	-0.230161
O2	O	0.383883	-0.777156	0.269839
O3	O	-0.116152	-1.000485	-0.221855
O4	O	0.383848	-0.500485	0.278145
O5	O	-0.116121	-1.134668	-0.087672
O6	O	0.383879	-0.634668	0.412328
O7	O	-0.116148	-1.142973	-0.364344
O8	O	0.383852	-0.642973	0.135656
O9	O	0.116399	-1.134678	-0.087680
O10	O	0.616399	-0.634678	0.412320
O11	O	0.116368	-1.000495	-0.221863
O12	O	0.616368	-0.500495	0.278137
O13	O	0.116403	-1.277167	-0.230168
O14	O	0.616403	-0.777167	0.269832
Zn15	Zn	0.153303	-1.138833	-0.226017
Zn16	Zn	0.653303	-0.638833	0.273983
Zn17	Zn	-0.153052	-1.138819	-0.226007
Zn18	Zn	0.346948	-0.638819	0.273993
O19	O	0.116372	-1.142984	-0.364351
O20	O	0.616372	-0.642984	0.135649
C21	C	0.000104	-0.964868	-0.218223
C22	C	0.500104	-0.464868	0.281777
C23	C	0.000091	-0.858725	-0.207379
C24	C	0.500091	-0.358725	0.292621
N25	N	0.362383	-1.138849	-0.226023
N26	N	0.862383	-0.638849	0.273977
C27	C	0.453563	-1.200928	-0.163975
C28	C	0.953563	-0.700928	0.336025
C29	C	0.546724	-1.113090	-0.138138
C30	C	1.046724	-0.613090	0.361862
C31	C	0.546777	-1.226652	-0.251798
C32	C	1.046777	-0.726652	0.248202
C33	C	0.453492	-1.050965	-0.200140
C34	C	0.953492	-0.550965	0.299860
C35	C	0.453537	-1.164586	-0.313842
C36	C	0.953537	-0.664586	0.186158
C37	C	0.546656	-1.076690	-0.288037
C38	C	1.046656	-0.576690	0.211963
N39	N	0.637869	-1.138826	-0.226004
N40	N	1.137869	-0.638826	0.273996
C41	C	0.000139	-1.131037	-0.052054
C42	C	0.500139	-0.631037	0.447946
C43	C	0.000139	-1.120193	0.054088
C44	C	0.500139	-0.620193	0.554088
C45	C	0.000145	-1.312783	-0.233800
C46	C	0.500145	-0.812783	0.266200
C47	C	0.000148	-1.418926	-0.244645
C48	C	0.500148	-0.918926	0.255355
C49	C	0.000120	-0.664388	-0.187553
C50	C	0.500120	-0.164388	0.312447
C51	C	0.000119	-0.613258	-0.264467
C52	C	0.500119	-0.113258	0.235533
C53	C	0.000135	-0.505122	-0.253435
C54	C	0.500135	-0.005122	0.246565
C55	C	0.000104	-0.772534	-0.198583
C56	C	0.500104	-0.272534	0.301417
C57	C	0.000109	-1.146614	-0.399969
C58	C	0.500109	-0.646614	0.100031
C59	C	0.000100	-1.157459	-0.506112
C60	C	0.500100	-0.657459	-0.006112
C61	C	0.000117	-1.100366	0.248426
C62	C	0.500117	-0.600366	0.748426
C63	C	0.000122	-1.177281	0.299556
C64	C	0.500122	-0.677281	0.799556
C65	C	0.000110	-1.166249	0.407692
C66	C	0.500110	-0.666249	0.907692
C67	C	0.000129	-1.111397	0.140280
C68	C	0.500129	-0.611397	0.640280
H69	H	0.412686	-1.253367	-0.111468
H70	H	0.912686	-0.753367	0.388532
H71	H	0.587752	-1.300915	-0.273606
H72	H	1.087752	-0.800915	0.226394
H73	H	0.000038	-1.251414	0.262117
H74	H	0.500038	-0.751414	0.762117
H75	H	0.000104	-1.026239	0.285863
H76	H	0.500104	-0.526239	0.785863
C77	C	0.601590	-1.084009	-0.039184
C78	C	1.101590	-0.584009	0.460816
C79	C	0.747946	-1.083525	-0.040703
C80	C	1.247946	-0.583525	0.459297
C81	C	0.798531	-1.056734	0.050434
C82	C	1.298531	-0.556734	0.550434
H83	H	0.569876	-1.128133	0.004910
H84	H	1.069876	-0.628133	0.504910
H85	H	0.568355	-1.022026	-0.020433
H86	H	1.068355	-0.522026	0.479567
H87	H	0.781167	-1.145499	-0.059442
H88	H	1.281167	-0.645499	0.440558
H89	H	0.779697	-1.039399	-0.084778
H90	H	1.279697	-0.539399	0.415222
H91	H	0.765296	-0.994751	0.069185
H92	H	1.265296	-0.494751	0.569185
H93	H	0.766807	-1.100861	0.094521
H94	H	1.266807	-0.600861	0.594521
H95	H	0.897837	-1.056393	0.049414
H96	H	1.397837	-0.556393	0.549414
H97	H	0.587274	-1.024119	-0.340499
H98	H	1.087274	-0.524119	0.159501
C99	C	0.398826	-0.951984	-0.170929
C100	C	0.898826	-0.451984	0.329071
C101	C	0.252462	-0.953165	-0.171226
C102	C	0.752462	-0.453165	0.328774
C103	C	0.202052	-0.862006	-0.144315
C104	C	0.702052	-0.362006	0.355685
H105	H	0.431302	-0.907763	-0.214682
H106	H	0.931302	-0.407763	0.285318
H107	H	0.431423	-0.933573	-0.108706
H108	H	0.931423	-0.433573	0.391294
H109	H	0.219878	-0.971564	-0.233440
H110	H	0.719878	-0.471564	0.266560
H111	H	0.219948	-0.997366	-0.127473
H112	H	0.719948	-0.497366	0.372527
H113	H	0.234650	-0.843595	-0.082092
H114	H	0.734650	-0.343595	0.417908
H115	H	0.234538	-0.817792	-0.188070
H116	H	0.734538	-0.317792	0.311930
H117	H	0.102741	-0.862797	-0.144504
H118	H	0.602741	-0.362797	0.355496
H119	H	0.000105	-0.650697	-0.338600
H120	H	0.500105	-0.150697	0.161400
H121	H	0.412573	-1.186396	-0.388097
H122	H	0.912573	-0.686396	0.111903
H123	H	0.000135	-0.626951	-0.113425
H124	H	0.500135	-0.126951	0.386575
