data_functionalizedCrystal
_audit_creation_method	'MofGen! by Chris Wilmer'
_symmetry_space_group_name_H-M	'P1'
_symmetry_Int_Tables_number	1
_symmetry_cell_setting	triclinic
loop_
_symmetry_equiv_pos_as_xyz
  x,y,z
_cell_length_a	21.395364
_cell_length_b	18.215405
_cell_length_c	18.215399
_cell_angle_alpha	90.032960
_cell_angle_beta	90.016682
_cell_angle_gamma	90.039836
loop_
_atom_site_label
_atom_site_type_symbol
_atom_site_fract_x
_atom_site_fract_y
_atom_site_fract_z
Zn1	Zn	0.957836	-0.292681	0.416100
Zn2	Zn	0.957763	-0.415757	0.293028
Zn3	Zn	0.853065	-0.292741	0.293048
Zn4	Zn	0.853031	-0.415742	0.416053
O5	O	0.905424	-0.354230	0.354557
O6	O	1.045504	-0.308988	0.399786
O7	O	0.943859	-0.399470	0.190046
O8	O	0.867008	-0.189749	0.309398
O9	O	1.045451	-0.399412	0.309365
O10	O	0.943983	-0.189704	0.399805
O11	O	0.866938	-0.309091	0.190061
O12	O	0.765383	-0.309077	0.309353
O13	O	0.866949	-0.399386	0.519044
O14	O	0.765357	-0.399445	0.399725
O15	O	0.943949	-0.308974	0.519078
O16	O	0.943826	-0.518740	0.309320
O17	O	0.866879	-0.518729	0.399706
C18	C	0.742636	-0.354266	0.354537
C19	C	0.672995	-0.354299	0.354545
C20	C	0.640332	-0.307293	0.401700
C21	C	0.574897	-0.307273	0.401703
C22	C	0.542127	-0.354273	0.354559
C23	C	0.574798	-0.401283	0.307395
C24	C	0.640232	-0.401296	0.307388
C25	C	0.438409	-0.420550	0.348640
C26	C	0.372976	-0.420538	0.348652
C27	C	0.340306	-0.354233	0.354575
C28	C	0.373077	-0.287937	0.360502
C29	C	0.438511	-0.287950	0.360495
C30	C	0.471174	-0.354264	0.354560
C31	C	0.236690	-0.307201	0.401735
C32	C	0.171254	-0.307180	0.401733
C33	C	0.171156	-0.401197	0.307429
C34	C	0.236591	-0.401211	0.307427
C35	C	0.269355	-0.354214	0.354584
C36	C	0.905358	-0.545437	0.354522
C37	C	0.905387	-0.627236	0.354531
C38	C	0.945547	-0.815411	0.307554
C39	C	0.945575	-0.892269	0.307572
C40	C	0.865381	-0.892298	0.401613
C41	C	0.865357	-0.815441	0.401599
C42	C	0.905439	-0.776999	0.354565
C43	C	0.905491	-0.930715	0.354597
C44	C	0.905521	-1.014049	0.354617
C45	C	0.905410	-0.693660	0.354546
C46	C	1.068847	-0.354195	0.354578
C47	C	1.138488	-0.354180	0.354587
C48	C	0.905453	-0.354172	0.546510
C49	C	0.905466	-0.354146	0.628309
C50	C	0.905507	-0.162277	0.354609
C51	C	0.905543	-0.080478	0.354631
C52	C	0.905430	-0.354236	0.163351
C53	C	0.905539	-0.354054	0.081553
C54	C	0.865447	-0.307054	0.816512
C55	C	0.865458	-0.307039	0.893370
C56	C	0.945560	-0.401151	0.893345
C57	C	0.945546	-0.401169	0.816487
C58	C	0.905490	-0.354116	0.778073
C59	C	0.905515	-0.354084	0.931789
C60	C	0.905527	-0.354068	1.015123
C61	C	0.905477	-0.354133	0.694734
H62	H	0.346479	-0.233945	0.365325
H63	H	0.832747	-0.923606	0.439906
H64	H	0.978172	-0.439459	0.924631
H65	H	0.832831	-0.268741	0.785237
C66	C	0.786287	-0.214010	0.885671
C67	C	0.821444	-0.255303	0.935622
H68	H	0.759117	-0.182066	0.911757
H69	H	0.762303	-0.246085	0.855681
H70	H	0.813601	-0.185863	0.855705
H71	H	0.794131	-0.283454	0.965584
H72	H	0.845431	-0.223224	0.965624
H73	H	0.346299	-0.474519	0.343830
C74	C	0.230217	-0.214268	0.494950
C75	C	0.272709	-0.255539	0.453564
H76	H	0.252453	-0.182373	0.526943
H77	H	0.204679	-0.246361	0.523040
H78	H	0.204708	-0.186071	0.462930
H79	H	0.298215	-0.283740	0.485583
H80	H	0.298258	-0.223442	0.425472
H81	H	0.978155	-0.439496	0.785190
H82	H	0.548112	-0.439550	0.269009
H83	H	0.978185	-0.784113	0.269257
H84	H	0.144661	-0.268897	0.440131
H85	H	0.832695	-0.784164	0.439884
C86	C	1.051704	-0.915758	0.271866
C87	C	0.989682	-0.934463	0.255894
H88	H	1.078940	-0.941796	0.239958
H89	H	1.060841	-0.928316	0.321318
H90	H	1.057395	-0.864476	0.265141
H91	H	0.983990	-0.985745	0.262625
H92	H	0.980541	-0.921910	0.206430
C93	C	0.633851	-0.214356	0.494910
C94	C	0.676344	-0.255623	0.453524
H95	H	0.656086	-0.182453	0.526898
H96	H	0.608319	-0.246450	0.523007
H97	H	0.608335	-0.186167	0.462891
H98	H	0.701857	-0.283817	0.485543
H99	H	0.701887	-0.223525	0.425425
H100	H	0.465191	-0.233970	0.365318
C101	C	0.070811	-0.442928	0.265572
C102	C	0.135143	-0.452864	0.255609
H103	H	0.048577	-0.474829	0.233582
H104	H	0.060123	-0.393472	0.254888
H105	H	0.060102	-0.453756	0.315004
H106	H	0.145853	-0.442031	0.206179
H107	H	0.145835	-0.502331	0.266288
C108	C	0.501342	-0.297177	0.500717
C109	C	0.538980	-0.255605	0.453541
H110	H	0.479167	-0.265279	0.532716
H111	H	0.526856	-0.329274	0.528802
H112	H	0.472469	-0.325163	0.472625
H113	H	0.567856	-0.227623	0.481632
H114	H	0.513463	-0.223495	0.425454
C115	C	0.458491	-0.539122	0.401075
C116	C	0.474320	-0.493437	0.342136
H117	H	0.480665	-0.584115	0.397061
H118	H	0.414837	-0.548603	0.400225
H119	H	0.469246	-0.515633	0.445912
H120	H	0.463560	-0.516924	0.297299
H121	H	0.517983	-0.483957	0.342979
C122	C	0.229920	-0.494144	0.214222
C123	C	0.272499	-0.452891	0.255601
H124	H	0.252089	-0.526052	0.182227
H125	H	0.204415	-0.462040	0.186132
H126	H	0.204386	-0.522326	0.246245
H127	H	0.298030	-0.424704	0.223577
H128	H	0.298014	-0.484999	0.283692
H129	H	0.666826	-0.439576	0.268988
