data_functionalizedCrystal
_audit_creation_method	'MofGen! by Chris Wilmer'
_symmetry_space_group_name_H-M	'P1'
_symmetry_Int_Tables_number	1
_symmetry_cell_setting	triclinic
loop_
_symmetry_equiv_pos_as_xyz
  x,y,z
_cell_length_a	16.109301
_cell_length_b	11.295501
_cell_length_c	16.109301
_cell_angle_alpha	94.601157
_cell_angle_beta	83.461481
_cell_angle_gamma	94.597193
loop_
_atom_site_label
_atom_site_type_symbol
_atom_site_fract_x
_atom_site_fract_y
_atom_site_fract_z
O1	O	1.108123	0.098954	0.111857
O2	O	0.866062	0.098973	0.125158
O3	O	0.993741	0.098951	-0.002524
O4	O	0.980443	0.098976	0.239539
O5	O	0.983741	-0.099100	-0.012516
O6	O	0.856062	-0.099078	0.115166
O7	O	1.098123	-0.099097	0.101866
Cu8	Cu	0.976179	-0.117171	0.107604
Cu9	Cu	0.988005	0.117047	0.119420
O10	O	0.970443	-0.099075	0.229548
C11	C	0.830087	-0.000050	0.119623
C12	C	0.737792	-0.000043	0.118008
N13	N	0.967868	-0.281907	0.099292
C14	C	0.515519	-0.000049	0.190016
C15	C	0.428799	-0.000057	0.188491
C16	C	0.448672	-0.000068	0.037002
C17	C	0.535391	-0.000068	0.038527
C18	C	0.568812	-0.000053	0.115037
C19	C	0.395373	-0.000060	0.111987
C20	C	0.301346	-0.000069	0.110334
C21	C	0.662845	-0.000047	0.116690
C22	C	1.056147	-0.531196	0.187595
C23	C	1.049872	-0.655859	0.181307
C24	C	0.949048	-0.655901	0.080425
C25	C	0.955323	-0.531237	0.086712
C26	C	1.008873	-0.468889	0.140300
C27	C	1.015143	-0.344223	0.146592
C28	C	0.914324	-0.344267	0.045706
C29	C	0.908050	-0.468930	0.039418
C30	C	1.134098	-0.000071	0.107400
C31	C	1.226393	-0.000070	0.109015
C32	C	0.988203	-0.000075	-0.038495
C33	C	0.986587	-0.000077	-0.130790
N34	N	0.996323	0.281784	0.127725
C35	C	1.058596	-0.000064	-0.353062
C36	C	1.057072	-0.000054	-0.439782
C37	C	0.905584	-0.000046	-0.419907
C38	C	0.907109	-0.000048	-0.333188
C39	C	0.983617	-0.000062	-0.299769
C40	C	0.980568	-0.000051	-0.473207
C41	C	0.978916	-0.000040	-0.567233
C42	C	0.985270	-0.000071	-0.205737
C43	C	0.975982	-0.000046	0.265518
C44	C	0.977598	-0.000037	0.357814
H45	H	0.542727	-0.000046	0.252314
O46	O	1.108036	-0.470569	0.239748
C47	C	1.060955	-0.398439	0.300086
H48	H	0.992907	-0.436026	0.307096
H49	H	1.087573	-0.397003	0.362797
H50	H	1.064314	-0.303965	0.279156
H51	H	0.385410	-0.000056	0.249547
O52	O	0.831198	0.000013	-0.452233
C53	C	0.765344	-0.000012	-0.386597
H54	H	0.790529	0.037481	-0.325801
H55	H	0.714832	0.057490	-0.401799
H56	H	0.737421	-0.095026	-0.379117
H57	H	0.846048	-0.000043	-0.289794
H58	H	1.118128	-0.000052	-0.483170
O59	O	0.416070	-0.000020	-0.037240
C60	C	0.328100	-0.000045	-0.022511
H61	H	0.309608	0.037453	0.044268
H62	H	0.304391	0.057453	-0.068562
H63	H	0.299166	-0.095060	-0.031331
H64	H	1.120894	-0.000073	-0.325855
H65	H	1.058742	-0.293461	0.190230
H66	H	0.875826	-0.293523	0.007199
O67	O	0.587050	-0.000018	-0.034387
C68	C	0.538957	-0.000051	-0.102244
H69	H	0.476120	0.037449	-0.079238
H70	H	0.573868	0.057443	-0.151875
H71	H	0.527996	-0.095068	-0.130491
H72	H	1.088368	-0.706585	0.219819
H73	H	0.905459	-0.706686	0.036787
H74	H	0.864453	-0.519711	-0.004215
