data_functionalizedCrystal
_audit_creation_method	'MofGen! by Chris Wilmer'
_symmetry_space_group_name_H-M	'P1'
_symmetry_Int_Tables_number	1
_symmetry_cell_setting	triclinic
loop_
_symmetry_equiv_pos_as_xyz
  x,y,z
_cell_length_a	16.625547
_cell_length_b	12.759399
_cell_length_c	12.759393
_cell_angle_alpha	89.969094
_cell_angle_beta	90.026979
_cell_angle_gamma	89.984947
loop_
_atom_site_label
_atom_site_type_symbol
_atom_site_fract_x
_atom_site_fract_y
_atom_site_fract_z
Zn1	Zn	1.232739	0.418217	0.594186
Zn2	Zn	1.732739	0.918217	1.094186
Zn3	Zn	1.232654	0.593933	0.418505
Zn4	Zn	1.732654	1.093933	0.918505
Zn5	Zn	1.097896	0.418268	0.418503
Zn6	Zn	1.597896	0.918268	0.918503
Zn7	Zn	1.097888	0.593854	0.594124
Zn8	Zn	1.597888	1.093854	1.094124
O9	O	1.165294	0.506068	0.506330
O10	O	1.665294	1.006068	1.006330
O11	O	1.345560	0.441538	0.570909
O12	O	1.845560	0.941538	1.070909
O13	O	1.214746	0.570685	0.271484
O14	O	1.714746	1.070685	0.771484
O15	O	1.115821	0.271240	0.441833
O16	O	1.615821	0.771240	0.941833
O17	O	1.345498	0.570635	0.441837
O18	O	1.845498	1.070635	0.941837
O19	O	1.214890	0.271203	0.570907
O20	O	1.714890	0.771203	1.070907
O21	O	1.115739	0.441625	0.271482
O22	O	1.615739	0.941625	0.771482
O23	O	0.985062	0.441549	0.441773
O24	O	1.485062	0.941549	0.941773
O25	O	1.115809	0.570502	0.741153
O26	O	1.615809	1.070502	1.241153
O27	O	0.985057	0.570551	0.570800
O28	O	1.485057	1.070551	1.070800
O29	O	1.214883	0.441462	0.741199
O30	O	1.714883	0.941462	1.241199
O31	O	1.214739	0.740943	0.441776
O32	O	1.714739	1.240943	0.941776
O33	O	1.115727	0.740886	0.570803
O34	O	1.615727	1.240886	1.070803
C35	C	1.165245	0.779036	0.506306
C36	C	1.665245	1.279036	1.006306
C37	C	1.165298	0.895812	0.506331
C38	C	1.665298	1.395812	1.006331
C39	C	0.955803	0.506048	0.506280
C40	C	1.455803	1.006048	1.006280
C41	C	0.866182	0.506064	0.506284
C42	C	1.366182	1.006064	1.006284
C43	C	1.165355	0.505967	0.780363
C44	C	1.665355	1.005967	1.280363
C45	C	1.165380	0.505924	0.897140
C46	C	1.665380	1.005924	1.397140
C47	C	0.793400	0.506066	0.506297
C48	C	1.293400	1.006066	1.006297
C49	C	0.702091	0.506072	0.506323
C50	C	1.202091	1.006072	1.006323
C51	C	0.629315	0.506082	0.506350
C52	C	1.129315	1.006082	1.006350
C53	C	0.538001	0.506089	0.506375
C54	C	1.038001	1.006089	1.006375
C55	C	1.375603	0.506089	0.506380
C56	C	1.875603	1.006089	1.006380
C57	C	1.465224	0.506098	0.506402
C58	C	1.965224	1.006098	1.006402
C59	C	1.165366	0.232035	0.506377
C60	C	1.665366	0.732035	1.006377
C61	C	1.165396	0.115258	0.506397
C62	C	1.665396	0.615258	1.006397
C63	C	1.216912	0.950669	0.439223
C64	C	1.716912	1.450669	0.939223
C65	C	1.216964	1.060393	0.439258
C66	C	1.716964	1.560393	0.939258
C67	C	1.113780	1.060393	0.573512
C68	C	1.613780	1.560393	1.073512
C69	C	1.113733	0.950671	0.573481
C70	C	1.613733	1.450671	1.073481
C71	C	1.165281	0.506093	0.233362
C72	C	1.665281	1.006093	0.733362
C73	C	1.165411	0.505840	0.116586
C74	C	1.665411	1.005840	0.616586
C75	C	1.216972	0.438722	0.952027
C76	C	1.716972	0.938722	1.452027
C77	C	1.216986	0.438677	1.061752
C78	C	1.716986	0.938677	1.561752
C79	C	1.113814	0.573045	1.061691
C80	C	1.613814	1.073045	1.561691
C81	C	1.113797	0.573084	0.951969
C82	C	1.613797	1.073084	1.451969
H83	H	1.258900	0.906005	0.384547
H84	H	1.758900	1.406005	0.884547
O85	O	1.063551	0.897261	0.638527
O86	O	1.563551	1.397261	1.138527
C87	C	1.011458	0.833915	0.578627
C88	C	1.511458	1.333915	1.078627
H89	H	1.039918	0.817516	0.499038
H90	H	1.539918	1.317516	0.999038
H91	H	1.000608	0.756733	0.621385
H92	H	1.500608	1.256733	1.121385
H93	H	0.951725	0.876270	0.567024
H94	H	1.451725	1.376270	1.067024
H95	H	1.071818	0.627726	1.106346
H96	H	1.571818	1.127726	1.606346
H97	H	1.258994	1.105053	0.384614
H98	H	1.758994	1.605053	0.884614
O99	O	1.267140	0.373543	1.115187
O100	O	1.767140	0.873543	1.615187
C101	C	1.319222	0.433339	1.178651
C102	C	1.819222	0.933339	1.678651
H103	H	1.290765	0.512949	1.195065
H104	H	1.790765	1.012949	1.695065
H105	H	1.330046	0.390514	1.255818
H106	H	1.830046	0.890514	1.755818
H107	H	1.378967	0.444904	1.136390
H108	H	1.878967	0.944904	1.636390
H109	H	1.071796	1.105073	0.628182
H110	H	1.571796	1.605073	1.128182
O111	O	1.063791	0.638421	0.898528
O112	O	1.563791	1.138421	1.398528
C113	C	1.109669	0.706321	0.835082
C114	C	1.609669	1.206321	1.335082
H115	H	1.170783	0.669281	0.818678
H116	H	1.670783	1.169281	1.318678
H117	H	1.076813	0.720419	0.757908
H118	H	1.576813	1.220419	1.257908
H119	H	1.118511	0.784168	0.877352
H120	H	1.618511	1.284168	1.377352
O121	O	1.267099	0.373381	0.898928
O122	O	1.767099	0.873381	1.398928
C123	C	1.312650	0.314075	0.970908
C124	C	1.812650	0.814075	1.470908
H125	H	1.279636	0.310408	1.049110
H126	H	1.779636	0.810408	1.549110
H127	H	1.321268	0.231309	0.939225
H128	H	1.821268	0.731309	1.439225
H129	H	1.373880	0.352549	0.982592
H130	H	1.873880	0.852549	1.482592
