data_functionalizedCrystal
_audit_creation_method	'MofGen! by Chris Wilmer'
_symmetry_space_group_name_H-M	'P1'
_symmetry_Int_Tables_number	1
_symmetry_cell_setting	triclinic
loop_
_symmetry_equiv_pos_as_xyz
  x,y,z
_cell_length_a	19.805407
_cell_length_b	25.639233
_cell_length_c	25.639240
_cell_angle_alpha	89.986272
_cell_angle_beta	90.029375
_cell_angle_gamma	89.987426
loop_
_atom_site_label
_atom_site_type_symbol
_atom_site_fract_x
_atom_site_fract_y
_atom_site_fract_z
Zn1	Zn	1.034674	-0.295627	-0.208252
Zn2	Zn	1.534674	0.204373	0.291748
Zn3	Zn	1.034588	-0.208199	-0.295671
Zn4	Zn	1.534588	0.291801	0.204329
Zn5	Zn	0.921499	-0.208205	-0.208247
Zn6	Zn	1.421499	0.291795	0.291753
Zn7	Zn	0.921441	-0.295603	-0.295654
Zn8	Zn	1.421441	0.204397	0.204346
O9	O	0.978051	-0.251909	-0.251956
O10	O	1.478051	0.248091	0.248044
O11	O	1.129379	-0.284036	-0.219857
O12	O	1.629379	0.215964	0.280143
O13	O	1.019575	-0.135034	-0.284079
O14	O	1.519575	0.364966	0.215921
O15	O	0.936572	-0.219815	-0.135082
O16	O	1.436572	0.280185	0.364918
O17	O	1.129316	-0.219803	-0.284083
O18	O	1.629316	0.280197	0.215917
O19	O	1.019721	-0.284043	-0.135086
O20	O	1.519721	0.215957	0.364914
O21	O	0.936489	-0.135039	-0.219849
O22	O	1.436489	0.364961	0.280151
O23	O	0.826775	-0.219792	-0.219833
O24	O	1.326775	0.280208	0.280167
O25	O	0.936473	-0.368772	-0.284055
O26	O	1.436473	0.131228	0.215945
O27	O	0.826732	-0.284003	-0.284050
O28	O	1.326732	0.215997	0.215950
O29	O	1.019665	-0.368789	-0.219841
O30	O	1.519665	0.131211	0.280159
O31	O	1.019519	-0.219780	-0.368834
O32	O	1.519519	0.280220	0.131166
O33	O	0.936390	-0.283996	-0.368821
O34	O	1.436390	0.216004	0.131179
C35	C	0.802195	-0.251896	-0.251939
C36	C	1.302195	0.248104	0.248061
C37	C	0.726963	-0.251903	-0.251945
C38	C	1.226963	0.248097	0.248055
C39	C	0.691652	-0.285400	-0.218562
C40	C	1.191652	0.214600	0.281438
C41	C	0.620964	-0.285402	-0.218564
C42	C	1.120964	0.214598	0.281436
C43	C	0.585587	-0.251909	-0.251954
C44	C	1.085587	0.248091	0.248046
C45	C	0.620903	-0.218408	-0.285338
C46	C	1.120903	0.281592	0.214662
C47	C	0.691590	-0.218404	-0.285333
C48	C	1.191590	0.281596	0.214667
C49	C	0.335829	-0.218424	-0.285362
C50	C	0.835829	0.281576	0.214638
C51	C	0.265137	-0.218432	-0.285366
C52	C	0.765137	0.281568	0.214634
C53	C	0.265203	-0.285422	-0.218594
C54	C	0.765203	0.214578	0.281406
C55	C	0.335890	-0.285418	-0.218588
C56	C	0.835890	0.214582	0.281412
C57	C	0.371200	-0.251915	-0.251971
C58	C	0.871200	0.248085	0.248029
C59	C	0.447848	-0.251913	-0.251966
C60	C	0.947848	0.248087	0.248034
C61	C	0.508940	-0.251914	-0.251961
C62	C	1.008940	0.248086	0.248039
C63	C	0.978072	-0.388282	-0.251947
C64	C	1.478072	0.111718	0.248053
C65	C	0.978082	-0.446396	-0.251943
C66	C	1.478082	0.053604	0.248057
C67	C	1.021455	-0.806773	-0.218407
C68	C	1.521455	-0.306773	0.281593
C69	C	1.021463	-0.861378	-0.218393
C70	C	1.521463	-0.361378	0.281607
O71	O	1.058285	-0.889627	-0.189941
O72	O	1.558285	-0.389627	0.310059
N73	N	0.978156	-0.888678	-0.251820
N74	N	1.478156	-0.388678	0.248180
C75	C	0.934834	-0.861372	-0.285261
C76	C	1.434834	-0.361372	0.214739
O77	O	0.897998	-0.889607	-0.313691
O78	O	1.397998	-0.389607	0.186309
C79	C	0.934822	-0.806768	-0.285272
C80	C	1.434822	-0.306768	0.214728
C81	C	0.978137	-0.779471	-0.251846
C82	C	1.478137	-0.279471	0.248154
C83	C	1.064765	-0.779476	-0.184984
C84	C	1.564765	-0.279476	0.315016
C85	C	1.064757	-0.724875	-0.184999
C86	C	1.564757	-0.224875	0.315001
C87	C	1.021439	-0.697572	-0.218438
C88	C	1.521439	-0.197572	0.281562
C89	C	0.978129	-0.724870	-0.251861
C90	C	1.478129	-0.224870	0.248139
C91	C	0.891497	-0.779463	-0.318709
C92	C	1.391497	-0.279463	0.181291
C93	C	0.891489	-0.724856	-0.318717
C94	C	1.391489	-0.224856	0.181283
C95	C	0.934803	-0.697558	-0.285292
C96	C	1.434803	-0.197558	0.214708
C97	C	0.934804	-0.642967	-0.285315
C98	C	1.434804	-0.142967	0.214685
N99	N	0.978110	-0.615666	-0.251888
N100	N	1.478110	-0.115666	0.248112
C101	C	1.021428	-0.642969	-0.218449
C102	C	1.521428	-0.142969	0.281551
C103	C	0.934860	-0.976042	-0.285233
C104	C	1.434860	-0.476042	0.214767
C105	C	0.934874	-1.030645	-0.285225
C106	C	1.434874	-0.530645	0.214775
C107	C	1.021503	-1.030647	-0.218356
C108	C	1.521503	-0.530647	0.281644
C109	C	1.021491	-0.976044	-0.218368
C110	C	1.521491	-0.476044	0.281632
C111	C	0.978166	-0.948742	-0.251806
C112	C	1.478166	-0.448742	0.248194
C113	C	1.021409	-0.528304	-0.218484
C114	C	1.521409	-0.028304	0.281516
C115	C	1.021400	-0.473698	-0.218504
C116	C	1.521400	0.026302	0.281496
C117	C	0.934769	-0.473701	-0.285370
C118	C	1.434769	0.026299	0.214630
C119	C	0.934781	-0.528301	-0.285353
C120	C	1.434781	-0.028301	0.214647
C121	C	0.978103	-0.555602	-0.251905
C122	C	1.478103	-0.055602	0.248095
O123	O	0.897998	-0.614683	-0.313751
O124	O	1.397998	-0.114683	0.186249
O125	O	1.058251	-0.614727	-0.190018
O126	O	1.558251	-0.114727	0.309982
C127	C	1.154593	-0.251922	-0.251973
C128	C	1.654593	0.248078	0.248027
C129	C	1.229825	-0.251927	-0.251980
C130	C	1.729825	0.248073	0.248020
C131	C	0.977957	-0.251896	-0.387798
C132	C	1.477957	0.248104	0.112202
C133	C	0.977979	-0.251909	-0.445912
C134	C	1.477979	0.248091	0.054088
C135	C	0.978068	-0.116066	-0.251927
C136	C	1.478068	0.383934	0.248073
C137	C	0.978190	-0.057952	-0.251784
C138	C	1.478190	0.442048	0.248216
C139	C	1.021343	-0.285386	-0.697056
C140	C	1.521343	0.214614	-0.197056
C141	C	1.021322	-0.285382	-0.642452
C142	C	1.521322	0.214618	-0.142452
O143	O	1.058114	-0.313829	-0.614174
O144	O	1.558114	0.186171	-0.114174
N145	N	0.978053	-0.251915	-0.615186
N146	N	1.478053	0.248085	-0.115186
C147	C	0.934806	-0.218446	-0.642528
C148	C	1.434806	0.281554	-0.142528
O149	O	0.898001	-0.189979	-0.614322
O150	O	1.398001	0.310021	-0.114322
C151	C	0.934831	-0.218448	-0.697131
C152	C	1.434831	0.281552	-0.197131
C153	C	0.978098	-0.251921	-0.724394
C154	C	1.478098	0.248079	-0.224394
C155	C	1.064607	-0.318856	-0.724320
C156	C	1.564607	0.181144	-0.224320
C157	C	1.064626	-0.318860	-0.778920
C158	C	1.564626	0.181140	-0.278920
C159	C	1.021381	-0.285395	-0.806258
C160	C	1.521381	0.214605	-0.306258
C161	C	0.978117	-0.251926	-0.778994
C162	C	1.478117	0.248074	-0.278994
C163	C	0.891588	-0.184977	-0.724471
C164	C	1.391588	0.315023	-0.224471
C165	C	0.891616	-0.184981	-0.779078
C166	C	1.391616	0.315019	-0.279078
C167	C	0.934883	-0.218454	-0.806341
C168	C	1.434883	0.281546	-0.306341
C169	C	0.934891	-0.218465	-0.860932
C170	C	1.434891	0.281535	-0.360932
N171	N	0.978161	-0.251932	-0.888198
N172	N	1.478161	0.248068	-0.388198
C173	C	1.021405	-0.285397	-0.860861
C174	C	1.521405	0.214603	-0.360861
C175	C	0.934760	-0.218445	-0.527857
C176	C	1.434760	0.281555	-0.027857
C177	C	0.934731	-0.218445	-0.473255
C178	C	1.434731	0.281555	0.026745
C179	C	1.021248	-0.285381	-0.473183
C180	C	1.521248	0.214619	0.026817
C181	C	1.021273	-0.285382	-0.527786
C182	C	1.521273	0.214618	-0.027786
C183	C	0.978029	-0.251912	-0.555123
C184	C	1.478029	0.248088	-0.055123
C185	C	1.021442	-0.285404	-0.975526
C186	C	1.521442	0.214596	-0.475526
C187	C	1.021456	-0.285407	-1.030131
C188	C	1.521456	0.214593	-0.530131
C189	C	0.934942	-0.218470	-1.030198
C190	C	1.434942	0.281530	-0.530198
C191	C	0.934925	-0.218469	-0.975598
C192	C	1.434925	0.281531	-0.475598
C193	C	0.978181	-0.251938	-0.948263
C194	C	1.478181	0.248062	-0.448263
O195	O	0.898121	-0.190032	-0.889246
O196	O	1.398121	0.309968	-0.389246
O197	O	1.058211	-0.313854	-0.889073
O198	O	1.558211	0.186146	-0.389073
C199	C	0.978163	-0.251932	-0.115583
C200	C	1.478163	0.248068	0.384417
C201	C	0.978211	-0.251942	-0.057469
C202	C	1.478211	0.248058	0.442531
H203	H	0.720450	-0.312675	-0.191374
H204	H	1.220450	0.187325	0.308626
H205	H	0.364570	-0.191145	-0.312545
H206	H	0.864570	0.308855	0.187455
H207	H	1.056674	-0.451475	-0.191284
H208	H	1.556674	0.048525	0.308716
H209	H	0.899686	-0.191218	-0.953400
H210	H	1.399686	0.308782	-0.453400
C211	C	0.684429	-0.152192	-0.351343
C212	C	1.184429	0.347808	0.148657
C213	C	0.730406	-0.181587	-0.322032
C214	C	1.230406	0.318413	0.177968
H215	H	0.708394	-0.129464	-0.374002
H216	H	1.208394	0.370536	0.125998
H217	H	0.656865	-0.132234	-0.328537
H218	H	1.156865	0.367766	0.171463
H219	H	0.656855	-0.174945	-0.371377
H220	H	1.156855	0.325055	0.128623
H221	H	0.757977	-0.158833	-0.301996
H222	H	1.257977	0.341167	0.198004
H223	H	0.757982	-0.201547	-0.344842
H224	H	1.257982	0.298453	0.155158
H225	H	1.056684	-0.550525	-0.191246
H226	H	1.556684	-0.050525	0.308754
C227	C	0.156873	-0.315175	-0.188943
C228	C	0.656873	0.184825	0.311057
C229	C	0.226389	-0.322245	-0.181892
C230	C	0.726389	0.177755	0.318108
H231	H	0.132914	-0.337906	-0.166284
H232	H	0.632914	0.162094	0.333716
H233	H	0.145274	-0.322767	-0.224080
H234	H	0.645274	0.177233	0.275920
H235	H	0.145287	-0.280059	-0.181237
H236	H	0.645287	0.219941	0.318763
H237	H	0.237976	-0.357361	-0.189602
H238	H	0.737976	0.142639	0.310398
H239	H	0.237992	-0.314656	-0.146747
H240	H	0.737992	0.185344	0.353253
H241	H	0.856356	-0.157720	-0.702281
H242	H	1.356356	0.342280	-0.202281
C243	C	0.272168	-0.152201	-0.351365
C244	C	0.772168	0.347799	0.148635
C245	C	0.226250	-0.181611	-0.322067
C246	C	0.726250	0.318389	0.177933
H247	H	0.248159	-0.129468	-0.374018
H248	H	0.748159	0.370532	0.125982
H249	H	0.299737	-0.174940	-0.371398
H250	H	0.799737	0.325060	0.128602
H251	H	0.299744	-0.132241	-0.328545
H252	H	0.799744	0.367759	0.171455
H253	H	0.198677	-0.201573	-0.344886
H254	H	0.698677	0.298427	0.155114
H255	H	0.198670	-0.158868	-0.302032
H256	H	0.698670	0.341132	0.197968
H257	H	1.099863	-0.346114	-0.801113
H258	H	1.599863	0.153886	-0.301113
C259	C	0.806097	-0.118816	-0.773660
C260	C	1.306097	0.381184	-0.273660
C261	C	0.844076	-0.148191	-0.809125
C262	C	1.344076	0.351809	-0.309125
H263	H	0.776745	-0.096107	-0.792210
H264	H	1.276745	0.403893	-0.292210
H265	H	0.835599	-0.098837	-0.752353
H266	H	1.335599	0.401163	-0.252353
H267	H	0.780182	-0.141582	-0.752370
H268	H	1.280182	0.358418	-0.252370
H269	H	0.869995	-0.125425	-0.830413
H270	H	1.369995	0.374575	-0.330413
H271	H	0.814570	-0.168171	-0.830441
H272	H	1.314570	0.331829	-0.330441
C273	C	0.925318	-0.589717	-0.355664
C274	C	1.425318	-0.089717	0.144336
C275	C	0.887172	-0.558312	-0.322095
C276	C	1.387172	-0.058312	0.177905
H277	H	0.895921	-0.608240	-0.378345
H278	H	1.395921	-0.108240	0.121655
H279	H	0.951110	-0.613790	-0.335745
H280	H	1.451110	-0.113790	0.164255
H281	H	0.954786	-0.568417	-0.375675
H282	H	1.454786	-0.068417	0.124325
H283	H	0.857707	-0.579613	-0.302081
H284	H	1.357707	-0.079613	0.197919
H285	H	0.861368	-0.534236	-0.342015
H286	H	1.361368	-0.034236	0.157985
C287	C	0.512634	-0.315157	-0.188924
C288	C	1.012634	0.184843	0.311076
C289	C	0.582149	-0.322226	-0.181872
C290	C	1.082149	0.177774	0.318128
H291	H	0.488674	-0.337890	-0.166269
H292	H	0.988674	0.162110	0.333731
H293	H	0.501038	-0.322745	-0.224063
H294	H	1.001038	0.177255	0.275937
H295	H	0.501047	-0.280041	-0.181215
H296	H	1.001047	0.219959	0.318785
H297	H	0.593738	-0.357341	-0.189585
H298	H	1.093738	0.142659	0.310415
H299	H	0.593751	-0.314642	-0.146726
H300	H	1.093751	0.185358	0.353274
H301	H	1.100040	-0.801700	-0.157751
H302	H	1.600040	-0.301700	0.342249
C303	C	1.150376	-0.730379	-0.118897
C304	C	1.650376	-0.230379	0.381103
C305	C	1.112362	-0.694874	-0.148249
C306	C	1.612362	-0.194874	0.351751
H307	H	1.179762	-0.711859	-0.096205
H308	H	1.679762	-0.211859	0.403795
H309	H	1.176252	-0.751674	-0.141676
H310	H	1.676252	-0.251674	0.358324
H311	H	1.120894	-0.751677	-0.098897
H312	H	1.620894	-0.251677	0.401103
H313	H	1.141844	-0.673579	-0.168252
H314	H	1.641844	-0.173579	0.331748
H315	H	1.086485	-0.673570	-0.125468
H316	H	1.586485	-0.173570	0.374532
C317	C	1.054359	-0.373969	-1.046888
C318	C	1.554359	0.126031	-0.546888
C319	C	1.069019	-0.322203	-1.060098
C320	C	1.569019	0.177797	-0.560098
H321	H	1.083726	-0.396683	-1.065385
H322	H	1.583726	0.103317	-0.565385
H323	H	1.008885	-0.381586	-1.055866
H324	H	1.508885	0.118414	-0.555866
H325	H	1.060537	-0.378747	-1.010454
H326	H	1.560537	0.121253	-0.510454
H327	H	1.062837	-0.317424	-1.096531
H328	H	1.562837	0.182576	-0.596531
H329	H	1.114504	-0.314583	-1.051124
H330	H	1.614504	0.185417	-0.551124
H331	H	0.592093	-0.191136	-0.312522
H332	H	1.092093	0.308864	0.187478
C333	C	1.107118	-0.981543	-0.152271
C334	C	1.607118	-0.481543	0.347729
C335	C	1.069097	-0.946041	-0.181621
C336	C	1.569097	-0.446041	0.318379
H337	H	1.136505	-0.963022	-0.129581
H338	H	1.636505	-0.463022	0.370419
H339	H	1.132992	-1.002838	-0.175051
H340	H	1.632992	-0.502838	0.324949
H341	H	1.077640	-1.002842	-0.132268
H342	H	1.577640	-0.502842	0.367732
H343	H	1.098576	-0.924744	-0.201626
H344	H	1.598576	-0.424744	0.298374
H345	H	1.043221	-0.924737	-0.158838
H346	H	1.543221	-0.424737	0.341162
C347	C	1.030764	-0.355740	-0.914100
C348	C	1.530764	0.144260	-0.414100
C349	C	1.068984	-0.322195	-0.945482
C350	C	1.568984	0.177805	-0.445482
H351	H	1.060113	-0.378452	-0.895551
H352	H	1.560113	0.121548	-0.395551
H353	H	1.001267	-0.375715	-0.935415
H354	H	1.501267	0.124285	-0.435415
H355	H	1.005001	-0.335802	-0.890046
H356	H	1.505001	0.164198	-0.390046
H357	H	1.094743	-0.342134	-0.969539
H358	H	1.594743	0.157866	-0.469539
H359	H	1.098493	-0.302219	-0.924166
H360	H	1.598493	0.197781	-0.424166
C361	C	1.059961	-1.114356	-0.188638
C362	C	1.559961	-0.614356	0.311362
C363	C	1.069109	-1.060666	-0.181590
C364	C	1.569109	-0.560666	0.318410
H365	H	1.089345	-1.132888	-0.165938
H366	H	1.589345	-0.632888	0.334062
H367	H	1.069848	-1.123303	-0.223761
H368	H	1.569848	-0.623303	0.276239
H369	H	1.014485	-1.123290	-0.180986
H370	H	1.514485	-0.623290	0.319014
H371	H	1.114583	-1.051731	-0.189246
H372	H	1.614583	-0.551731	0.310754
H373	H	1.059226	-1.051715	-0.146460
H374	H	1.559226	-0.551715	0.353540
H375	H	0.899503	-0.451461	-0.312597
H376	H	1.399503	0.048539	0.187403
C377	C	0.849245	-1.025144	-0.351321
C378	C	1.349245	-0.525144	0.148679
C379	C	0.887266	-1.060647	-0.321971
C380	C	1.387266	-0.560647	0.178029
H381	H	0.819849	-1.043666	-0.374003
H382	H	1.319849	-0.543666	0.125997
H383	H	0.878718	-1.003852	-0.371327
H384	H	1.378718	-0.503852	0.128673
H385	H	0.823375	-1.003843	-0.328537
H386	H	1.323375	-0.503843	0.171463
H387	H	0.913140	-1.081946	-0.344755
H388	H	1.413140	-0.581946	0.155245
H389	H	0.857789	-1.081948	-0.301964
H390	H	1.357789	-0.581948	0.198036
C391	C	0.925387	-0.914638	-0.355582
C392	C	1.425387	-0.414638	0.144418
C393	C	0.887243	-0.946032	-0.321998
C394	C	1.387243	-0.446032	0.178002
H395	H	0.895990	-0.896110	-0.378275
H396	H	1.395990	-0.396110	0.121725
H397	H	0.954862	-0.935942	-0.375574
H398	H	1.454862	-0.435942	0.124426
H399	H	0.951172	-0.890564	-0.335671
H400	H	1.451172	-0.390564	0.164329
H401	H	0.861462	-0.970108	-0.341909
H402	H	1.361462	-0.470108	0.158091
H403	H	0.857757	-0.924726	-0.302004
H404	H	1.357757	-0.424726	0.197996
C405	C	0.805854	-0.773952	-0.384791
C406	C	1.305854	-0.273952	0.115209
C407	C	0.843877	-0.809459	-0.355448
C408	C	1.343877	-0.309459	0.144552
H409	H	0.776450	-0.792471	-0.407470
H410	H	1.276450	-0.292471	0.092530
H411	H	0.835324	-0.752661	-0.404800
H412	H	1.335324	-0.252661	0.095200
H413	H	0.779991	-0.752650	-0.362002
H414	H	1.279991	-0.252650	0.137998
H415	H	0.869744	-0.830758	-0.378237
H416	H	1.369744	-0.330758	0.121763
H417	H	0.814403	-0.830759	-0.335438
H418	H	1.314403	-0.330759	0.164562
C419	C	1.150115	-0.385022	-0.729748
C420	C	1.650115	0.114978	-0.229748
C421	C	1.112143	-0.355649	-0.694276
C422	C	1.612143	0.144351	-0.194276
H423	H	1.179457	-0.407742	-0.711202
H424	H	1.679457	0.092258	-0.211202
H425	H	1.176034	-0.362259	-0.751030
H426	H	1.676034	0.137741	-0.251030
H427	H	1.120603	-0.404993	-0.751062
H428	H	1.620603	0.095007	-0.251062
H429	H	1.141655	-0.335675	-0.672965
H430	H	1.641655	0.164325	-0.172965
H431	H	1.086222	-0.378415	-0.672985
H432	H	1.586222	0.121585	-0.172985
C433	C	0.800414	-0.663451	-0.325998
C434	C	1.300414	-0.163451	0.174002
C435	C	0.843865	-0.694850	-0.355479
C436	C	1.343865	-0.194850	0.144521
H437	H	0.771012	-0.644932	-0.348695
H438	H	1.271012	-0.144932	0.151305
H439	H	0.826203	-0.639375	-0.306102
H440	H	1.326203	-0.139375	0.193898
H441	H	0.774551	-0.684754	-0.303208
H442	H	1.274551	-0.184754	0.196792
H443	H	0.869731	-0.673547	-0.378266
H444	H	1.369731	-0.173547	0.121734
H445	H	0.818073	-0.718929	-0.375384
H446	H	1.318073	-0.218929	0.124616
C447	C	1.106779	-0.351548	-0.522218
C448	C	1.606779	0.148452	-0.022218
C449	C	1.068833	-0.322176	-0.557751
C450	C	1.568833	0.177824	-0.057751
H451	H	1.136144	-0.374262	-0.540716
H452	H	1.636144	0.125738	-0.040716
H453	H	1.077258	-0.371521	-0.500936
H454	H	1.577258	0.128479	-0.000936
H455	H	1.132680	-0.328780	-0.500910
H456	H	1.632680	0.171220	-0.000910
H457	H	1.042928	-0.344944	-0.579057
H458	H	1.542928	0.155056	-0.079057
H459	H	1.098358	-0.302202	-0.579042
H460	H	1.598358	0.197798	-0.079042
H461	H	0.364690	-0.312693	-0.191401
H462	H	0.864690	0.187307	0.308599
H463	H	1.056462	-0.312629	-0.450915
H464	H	1.556462	0.187371	0.049085
C465	C	0.849217	-0.152284	-0.478824
C466	C	1.349217	0.347716	0.021176
C467	C	0.887166	-0.181654	-0.443291
C468	C	1.387166	0.318346	0.056709
H469	H	0.819857	-0.129567	-0.460326
H470	H	1.319857	0.370433	0.039674
H471	H	0.823318	-0.175050	-0.500128
H472	H	1.323318	0.324950	-0.000128
H473	H	0.878742	-0.132310	-0.500110
H474	H	1.378742	0.367690	-0.000110
H475	H	0.857641	-0.201631	-0.422007
H476	H	1.357641	0.298369	0.077993
H477	H	0.913067	-0.158886	-0.421978
H478	H	1.413067	0.341114	0.078022
H479	H	0.899539	-0.191190	-0.550111
H480	H	1.399539	0.308810	-0.050111
C481	C	0.896578	-0.188755	-1.113938
C482	C	1.396578	0.311245	-0.613938
C483	C	0.887413	-0.181682	-1.060255
C484	C	1.387413	0.318318	-0.560255
H485	H	0.867242	-0.166038	-1.132494
H486	H	1.367242	0.333962	-0.632494
H487	H	0.886637	-0.223873	-1.122879
H488	H	1.386637	0.276127	-0.622879
H489	H	0.942071	-0.181141	-1.122850
H490	H	1.442071	0.318859	-0.622850
H491	H	0.841921	-0.189300	-1.051342
H492	H	1.341921	0.310700	-0.551342
H493	H	0.897350	-0.146556	-1.051311
H494	H	1.397350	0.353444	-0.551311
