data_functionalizedCrystal
_audit_creation_method	'MofGen! by Chris Wilmer'
_symmetry_space_group_name_H-M	'P1'
_symmetry_Int_Tables_number	1
_symmetry_cell_setting	triclinic
loop_
_symmetry_equiv_pos_as_xyz
  x,y,z
_cell_length_a	17.699083
_cell_length_b	11.026607
_cell_length_c	16.176319
_cell_angle_alpha	89.996049
_cell_angle_beta	89.998611
_cell_angle_gamma	95.934516
loop_
_atom_site_label
_atom_site_type_symbol
_atom_site_fract_x
_atom_site_fract_y
_atom_site_fract_z
O1	O	1.025155	0.153399	-0.068626
O2	O	1.525155	0.653399	0.431374
O3	O	0.807518	0.173357	-0.068652
O4	O	1.307518	0.673357	0.431348
O5	O	0.898299	-0.013222	-0.068638
O6	O	1.398299	0.486778	0.431362
O7	O	0.934374	0.339978	-0.068640
O8	O	1.434374	0.839978	0.431360
O9	O	0.898282	-0.013234	0.068855
O10	O	1.398282	0.486766	0.568855
O11	O	0.807501	0.173345	0.068841
O12	O	1.307501	0.673345	0.568841
O13	O	1.025137	0.153387	0.068867
O14	O	1.525137	0.653387	0.568867
Cu15	Cu	0.916317	0.163365	0.081408
Cu16	Cu	1.416317	0.663365	0.581408
Cu17	Cu	0.916338	0.163379	-0.081193
Cu18	Cu	1.416338	0.663379	0.418807
O19	O	0.934357	0.339966	0.068853
O20	O	1.434357	0.839966	0.568853
C21	C	0.779214	0.172636	0.000091
C22	C	1.279214	0.672636	0.500091
C23	C	0.694902	0.170490	0.000080
C24	C	1.194902	0.670490	0.500080
C25	C	0.661328	0.280008	0.000080
C26	C	1.161328	0.780008	0.500080
C27	C	0.582106	0.277985	0.000091
C28	C	1.082106	0.777985	0.500091
C29	C	0.536460	0.166443	0.000096
C30	C	1.036460	0.666443	0.500096
C31	C	0.570039	0.056917	0.000099
C32	C	1.070039	0.556917	0.500099
C33	C	0.649259	0.058941	0.000094
C34	C	1.149259	0.558941	0.500094
C35	C	0.250554	0.048751	0.000119
C36	C	0.750554	0.548751	0.500119
C37	C	0.171329	0.046735	0.000121
C38	C	0.671329	0.546735	0.500121
C39	C	0.183402	0.267794	0.000116
C40	C	0.683402	0.767794	0.500116
C41	C	0.262621	0.269819	0.000111
C42	C	0.762621	0.769819	0.500111
C43	C	0.296194	0.160293	0.000118
C44	C	0.796194	0.660293	0.500118
C45	C	0.382094	0.162488	0.000108
C46	C	0.882094	0.662488	0.500108
C47	C	0.450561	0.164247	0.000100
C48	C	0.950561	0.664247	0.500100
C49	C	0.891635	-0.058419	0.000106
C50	C	1.391635	0.441581	0.500106
C51	C	0.871796	-0.193075	0.000101
C52	C	1.371796	0.306925	0.500101
C53	C	0.926576	-0.267042	0.000107
C54	C	1.426576	0.232958	0.500107
C55	C	0.906072	-0.406216	0.000101
C56	C	1.406072	0.093784	0.500101
C57	C	1.053441	0.154108	0.000122
C58	C	1.553441	0.654108	0.500122
C59	C	1.137754	0.156254	0.000127
C60	C	1.637754	0.656254	0.500127
C61	C	0.941021	0.385163	0.000107
C62	C	1.441021	0.885163	0.500107
C63	C	0.960860	0.519819	0.000106
C64	C	1.460860	1.019819	0.500106
N65	N	0.916308	0.163354	0.195773
N66	N	1.416308	0.663354	0.695773
N67	N	0.916352	0.163380	-0.195559
N68	N	1.416352	0.663380	0.304441
C69	C	0.956526	0.080771	0.239044
C70	C	1.456526	0.580771	0.739044
C71	C	0.956530	0.080770	0.325591
C72	C	1.456530	0.580770	0.825591
C73	C	0.916320	0.163358	0.368866
C74	C	1.416320	0.663358	0.868866
C75	C	0.876097	0.245946	0.325590
C76	C	1.376097	0.745946	0.825590
C77	C	0.876089	0.245940	0.239044
C78	C	1.376089	0.745940	0.739044
C79	C	0.876126	0.245969	0.674618
C80	C	1.376126	0.745969	1.174618
C81	C	0.876138	0.245970	0.761169
C82	C	1.376138	0.745970	1.261169
C83	C	0.956566	0.080798	0.761165
C84	C	1.456566	0.580798	1.261165
C85	C	0.956559	0.080792	0.674619
C86	C	1.456559	0.580792	1.174619
C87	C	0.916333	0.163375	0.631350
C88	C	1.416333	0.663375	1.131350
C89	C	0.916328	0.163374	0.537506
C90	C	1.416328	0.663374	1.037506
C91	C	0.916328	0.163366	0.462709
C92	C	1.416328	0.663366	0.962709
H93	H	0.299783	0.360648	0.000103
H94	H	0.799783	0.860648	0.500103
H95	H	0.989277	0.013523	0.360821
H96	H	1.489277	0.513523	0.860821
H97	H	0.277879	-0.040432	0.000126
H98	H	0.777879	0.459568	0.500126
H99	H	0.989318	0.013551	0.796403
H100	H	1.489318	0.513551	1.296403
O101	O	0.995600	0.000426	0.197138
O102	O	1.495600	0.500426	0.697138
C103	C	1.031112	-0.072445	0.253893
C104	C	1.531112	0.427555	0.753893
H105	H	0.999909	-0.073747	0.315589
H106	H	1.499909	0.426253	0.815589
H107	H	1.029457	-0.169345	0.228895
H108	H	1.529457	0.330655	0.728895
H109	H	1.092684	-0.033170	0.263088
H110	H	1.592684	0.466830	0.763088
H111	H	0.134166	-0.044102	0.000127
H112	H	0.634166	0.455898	0.500127
O113	O	0.837044	0.326309	0.632722
O114	O	1.337044	0.826309	1.132722
C115	C	0.801545	0.399184	0.689479
C116	C	1.301545	0.899184	1.189479
H117	H	0.832762	0.400493	0.751165
H118	H	1.332762	0.900493	1.251165
H119	H	0.803194	0.496082	0.664469
H120	H	1.303194	0.996082	1.164469
H121	H	0.739975	0.359909	0.698698
H122	H	1.239975	0.859909	1.198698
O123	O	0.836982	0.326005	0.367718
O124	O	1.336982	0.826005	0.867718
C125	C	0.781450	0.261135	0.417777
C126	C	1.281450	0.761135	0.917777
H127	H	0.798657	0.166154	0.430745
H128	H	1.298657	0.666154	0.930745
H129	H	0.776384	0.311794	0.478634
H130	H	1.276384	0.811794	0.978634
H131	H	0.724404	0.253003	0.384434
H132	H	1.224404	0.753003	0.884434
H133	H	0.676594	-0.030240	0.000094
H134	H	1.176594	0.469760	0.500094
H135	H	0.989305	0.013545	0.639387
H136	H	1.489305	0.513545	1.139387
O137	O	0.837016	0.326028	0.803300
O138	O	1.337016	0.826028	1.303300
C139	C	0.781490	0.261146	0.853360
C140	C	1.281490	0.761146	1.353360
H141	H	0.798705	0.166169	0.866324
H142	H	1.298705	0.666169	1.366324
H143	H	0.776423	0.311800	0.914218
H144	H	1.276423	0.811800	1.414218
H145	H	0.724443	0.253006	0.820018
H146	H	1.224443	0.753006	1.320018
H147	H	0.156058	0.356975	0.000115
H148	H	0.656058	0.856975	0.500115
O149	O	0.837011	0.326282	0.197136
O150	O	1.337011	0.826282	0.697136
C151	C	0.801507	0.399160	0.253888
C152	C	1.301507	0.899160	0.753888
H153	H	0.832721	0.400475	0.315576
H154	H	1.332721	0.900475	0.815576
H155	H	0.803156	0.496056	0.228874
H156	H	1.303156	0.996056	0.728874
H157	H	0.739938	0.359884	0.263104
H158	H	1.239938	0.859884	0.763104
H159	H	0.698488	0.370838	0.000075
H160	H	1.198488	0.870838	0.500075
H161	H	0.843990	-0.445918	0.000088
H162	H	1.343990	0.054082	0.500088
O163	O	0.549616	0.384483	0.000053
O164	O	1.049616	0.884483	0.500053
C165	C	0.606892	0.483365	0.000063
C166	C	1.106892	0.983365	0.500063
H167	H	0.661591	0.452403	-0.025973
H168	H	1.161591	0.952403	0.474027
H169	H	0.588221	0.560088	-0.039855
H170	H	1.088221	1.060088	0.460145
H171	H	0.617178	0.517565	0.066023
H172	H	1.117178	1.017565	0.566023
H173	H	0.532868	-0.033903	0.000115
H174	H	1.032868	0.466097	0.500115
H175	H	0.988654	-0.227333	0.000119
H176	H	1.488654	0.272667	0.500119
H177	H	1.022943	-0.440480	0.000052
H178	H	1.522943	0.059520	0.500052
O179	O	0.797762	-0.240577	-0.000021
O180	O	1.297762	0.259423	0.499979
C181	C	0.783035	-0.312866	-0.071245
C182	C	1.283035	0.187134	0.428755
H183	H	0.838410	-0.344425	-0.094979
H184	H	1.338410	0.155575	0.405021
H185	H	0.741651	-0.395710	-0.055238
H186	H	1.241651	0.104290	0.444762
H187	H	0.757138	-0.256922	-0.121109
H188	H	1.257138	0.243078	0.378891
