data_functionalizedCrystal
_audit_creation_method	'MofGen! by Chris Wilmer'
_symmetry_space_group_name_H-M	'P1'
_symmetry_Int_Tables_number	1
_symmetry_cell_setting	triclinic
loop_
_symmetry_equiv_pos_as_xyz
  x,y,z
_cell_length_a	18.050589
_cell_length_b	14.908932
_cell_length_c	14.908854
_cell_angle_alpha	83.248147
_cell_angle_beta	86.674519
_cell_angle_gamma	86.672174
loop_
_atom_site_label
_atom_site_type_symbol
_atom_site_fract_x
_atom_site_fract_y
_atom_site_fract_z
Zn1	Zn	-0.210768	-1.354218	-0.432092
Zn2	Zn	-0.341750	-1.362828	-0.280746
Zn3	Zn	-0.224351	-1.211584	-0.289466
Zn4	Zn	-0.341703	-1.202805	-0.440778
O5	O	-0.279643	-1.282859	-0.360771
O6	O	-0.222478	-1.482024	-0.404731
O7	O	-0.331882	-1.350043	-0.155240
O8	O	-0.118621	-1.230576	-0.308401
O9	O	-0.318711	-1.488349	-0.293538
O10	O	-0.108641	-1.335368	-0.413187
O11	O	-0.245629	-1.238925	-0.161646
O12	O	-0.245583	-1.083756	-0.316823
O13	O	-0.318630	-1.215612	-0.566289
O14	O	-0.331801	-1.077306	-0.427990
O15	O	-0.222433	-1.326855	-0.559908
O16	O	-0.445673	-1.341530	-0.301960
O17	O	-0.445638	-1.223961	-0.419535
C18	C	-0.290161	-1.047689	-0.374296
C19	C	-0.294678	-0.947081	-0.380103
C20	C	-0.346010	-0.801950	-0.446064
C21	C	-0.341766	-0.896480	-0.440615
C22	C	-0.251832	-0.903146	-0.325035
C23	C	-0.256076	-0.808616	-0.330484
C24	C	-0.303165	-0.758021	-0.391001
C25	C	-0.307405	-0.663490	-0.396454
C26	C	-0.217475	-0.670158	-0.280870
C27	C	-0.213232	-0.764688	-0.275421
C28	C	-0.472601	-1.282750	-0.360762
C29	C	-0.555144	-1.282785	-0.360784
C30	C	-0.754601	-1.218912	-0.424696
C31	C	-0.808730	-1.201612	-0.343372
C32	C	-0.706270	-1.282873	-0.360790
C33	C	-0.799220	-1.300217	-0.442122
C34	C	-0.852250	-1.282956	-0.360804
C35	C	-0.759316	-1.265533	-0.279425
C36	C	-0.749797	-1.364173	-0.378228
C37	C	-0.803905	-1.346908	-0.296845
C38	C	-0.622174	-1.282823	-0.360784
C39	C	-0.936345	-1.283007	-0.360801
C40	C	-0.085930	-1.282991	-0.360798
C41	C	-0.003381	-1.283048	-0.360809
C42	C	-0.269011	-1.269294	-0.596859
C43	C	-0.264480	-1.263513	-0.697466
C44	C	-0.269078	-0.518947	-0.347188
C45	C	-0.264559	-0.619555	-0.341385
C46	C	-0.345778	-1.368379	-0.879846
C47	C	-0.341523	-1.362951	-0.974374
C48	C	-0.251712	-1.247233	-0.981053
C49	C	-0.255967	-1.252662	-0.886525
C50	C	-0.303002	-1.313236	-0.835924
C51	C	-0.307261	-1.318659	-0.741394
C52	C	-0.217446	-1.202947	-0.748074
C53	C	-0.213191	-1.197518	-0.842603
C54	C	-0.290178	-1.296423	-0.125598
C55	C	-0.294492	-1.302379	-0.024982
H56	H	-0.384345	-0.760754	-0.495347
H57	H	-0.213413	-1.197922	-1.022268
H58	H	-0.182585	-0.634382	-0.236037
C59	C	-0.798210	-1.252872	-0.601763
C60	C	-0.823092	-1.319984	-0.534963
H61	H	-0.812943	-1.265075	-0.659080
H62	H	-0.819240	-1.195595	-0.588943
H63	H	-0.745570	-1.252442	-0.602577
H64	H	-0.875733	-1.320410	-0.534145
H65	H	-0.802064	-1.377276	-0.547787
H66	H	-0.724050	-1.432868	-0.393004
H67	H	-0.213500	-0.944357	-0.275757
H68	H	-0.384072	-1.417705	-0.838645
C69	C	-0.374871	-1.406020	-1.116312
C70	C	-0.388539	-1.423569	-1.022655
H71	H	-0.403894	-1.443452	-1.146116
H72	H	-0.387772	-1.344317	-1.135298
H73	H	-0.323677	-1.418404	-1.131039
H74	H	-0.439732	-1.411178	-1.007927
H75	H	-0.375643	-1.485287	-1.003662
H76	H	-0.834478	-1.132899	-0.328637
C77	C	-0.182461	-0.802597	-0.120547
C78	C	-0.161477	-0.820312	-0.208900
H79	H	-0.150511	-0.836941	-0.079481
H80	H	-0.178848	-0.740019	-0.115917
H81	H	-0.232251	-0.818831	-0.106319
H82	H	-0.111688	-0.804071	-0.223131
H83	H	-0.165083	-0.882903	-0.213533
H84	H	-0.345555	-1.367986	-0.700196
H85	H	-0.174894	-1.148203	-0.883815
H86	H	-0.825419	-1.401037	-0.242749
H87	H	-0.182615	-1.158044	-0.712303
C88	C	-0.431081	-0.880391	-0.555413
C89	C	-0.388857	-0.944766	-0.501146
H90	H	-0.460151	-0.910203	-0.592787
H91	H	-0.462873	-0.845777	-0.518045
H92	H	-0.398852	-0.841543	-0.592223
H93	H	-0.421087	-0.983610	-0.464332
H94	H	-0.357062	-0.979396	-0.538519
H95	H	-0.732958	-1.164751	-0.478671
C96	C	-0.395874	-0.666399	-0.510150
C97	C	-0.359163	-0.607873	-0.462974
H98	H	-0.427832	-0.632063	-0.551214
H99	H	-0.360343	-0.701294	-0.542710
H100	H	-0.424356	-0.705521	-0.468520
H101	H	-0.330677	-0.568755	-0.504605
H102	H	-0.394699	-0.572962	-0.430413
H103	H	-0.741725	-1.250816	-0.210635
