data_functionalizedCrystal
_audit_creation_method	'MofGen! by Chris Wilmer'
_symmetry_space_group_name_H-M	'P1'
_symmetry_Int_Tables_number	1
_symmetry_cell_setting	triclinic
loop_
_symmetry_equiv_pos_as_xyz
  x,y,z
_cell_length_a	11.026607
_cell_length_b	12.811434
_cell_length_c	9.482900
_cell_angle_alpha	104.720570
_cell_angle_beta	78.636152
_cell_angle_gamma	96.258809
loop_
_atom_site_label
_atom_site_type_symbol
_atom_site_fract_x
_atom_site_fract_y
_atom_site_fract_z
O1	O	1.622318	0.433145	-0.063778
O2	O	1.269805	0.382336	-0.070480
O3	O	1.458110	0.254479	-0.087333
O4	O	1.434013	0.561001	-0.046925
O5	O	1.419859	0.280583	0.157901
O6	O	1.231554	0.408440	0.174754
O7	O	1.584067	0.459249	0.181455
Cu8	Cu	1.404318	0.436228	0.200496
Cu9	Cu	1.449554	0.405357	-0.089521
O10	O	1.395762	0.587105	0.198308
C11	C	1.205615	0.386014	0.050901
C12	C	1.071337	0.358072	0.047215
C13	C	0.996328	0.435225	0.057385
C14	C	0.857545	0.406347	0.053576
C15	C	1.438808	0.227679	0.030027
C16	C	1.438268	0.108931	0.014364
C17	C	1.458348	-0.072667	-0.141367
C18	C	1.458863	0.038907	-0.126666
C19	C	1.417160	0.067375	0.140702
C20	C	1.416645	-0.044198	0.126000
C21	C	1.437238	-0.114216	-0.015039
C22	C	1.436714	-0.225792	-0.029739
C23	C	1.395020	-0.197321	0.237628
C24	C	1.395535	-0.085747	0.252329
C25	C	1.648258	0.455570	0.060072
C26	C	1.782537	0.483511	0.063748
C27	C	1.415065	0.613905	0.080945
C28	C	1.415606	0.732652	0.096599
N29	N	1.372510	0.457942	0.404479
N30	N	1.481372	0.383636	-0.293504
C31	C	1.440164	0.411754	0.470590
C32	C	1.413708	0.429831	0.640390
H33	H	0.821056	0.570950	0.075284
C34	C	1.251562	0.540527	0.640064
C35	C	1.309062	0.501279	0.733660
H36	H	1.186955	0.584628	0.697648
H37	H	1.310795	0.582084	0.586170
H38	H	1.217923	0.481482	0.572914
H39	H	1.342710	0.560324	0.800804
H40	H	1.249819	0.459720	0.787579
C41	C	1.375819	0.084317	0.403511
C42	C	1.394480	0.144346	0.295723
H43	H	1.361809	0.131837	0.499213
H44	H	1.305871	0.034757	0.391464
H45	H	1.447133	0.045660	0.392968
H46	H	1.323162	0.182997	0.306258
H47	H	1.464435	0.193925	0.307775
H48	H	1.294998	0.510862	0.473584
C49	C	1.353841	-0.157969	0.503394
C50	C	1.371811	-0.242991	0.376503
H51	H	1.339501	-0.186168	0.589124
H52	H	1.425544	-0.109612	0.504288
H53	H	1.284275	-0.120476	0.502834
H54	H	1.441383	-0.280479	0.377057
H55	H	1.300100	-0.291367	0.375609
H56	H	1.032815	0.270636	0.035652
H57	H	1.517668	0.358824	0.401485
C58	C	0.901447	0.222489	0.029343
C59	C	0.805555	0.288306	0.038017
H60	H	0.869345	0.149619	0.019746
H61	H	0.963342	0.227494	-0.054311
H62	H	0.936671	0.245710	0.116728
H63	H	0.770336	0.265091	-0.049373
H64	H	0.743638	0.283296	0.121678
H65	H	1.453474	-0.282800	-0.144581
H66	H	1.475097	-0.129678	-0.256207
C67	C	1.591592	0.307694	0.463017
C68	C	1.585751	0.311900	0.613190
H69	H	1.655956	0.263328	0.405406
H70	H	1.514740	0.278305	0.434475
H71	H	1.608061	0.378599	0.447321
H72	H	1.569272	0.240995	0.628887
H73	H	1.662620	0.341285	0.641741
H74	H	1.476054	0.072730	-0.229536
H75	H	1.034855	0.522658	0.068919
H76	H	1.378774	-0.028724	0.367159
