data_functionalizedCrystal
_audit_creation_method	'MofGen! by Chris Wilmer'
_symmetry_space_group_name_H-M	'P1'
_symmetry_Int_Tables_number	1
_symmetry_cell_setting	triclinic
loop_
_symmetry_equiv_pos_as_xyz
  x,y,z
_cell_length_a	6.817900
_cell_length_b	16.418049
_cell_length_c	17.110486
_cell_angle_alpha	96.329277
_cell_angle_beta	99.060439
_cell_angle_gamma	103.389670
loop_
_atom_site_label
_atom_site_type_symbol
_atom_site_fract_x
_atom_site_fract_y
_atom_site_fract_z
V1	V	-3.976398	-0.115636	-0.246998
O2	O	-3.965399	0.005813	-0.242010
O3	O	-3.927750	-0.229534	-0.245585
O4	O	-3.906264	-0.113745	-0.354597
O5	O	-3.987034	-0.110777	-0.132243
V6	V	-4.462874	-0.101123	-0.233239
O7	O	-4.231178	-0.147473	-0.277180
O8	O	-4.658291	-0.069286	-0.203057
O9	O	-4.288315	0.012775	-0.234653
O10	O	-4.591270	-0.222573	-0.238228
O11	O	-4.569634	-0.105982	-0.347994
O12	O	-4.309801	-0.103014	-0.125640
C13	C	-3.773394	-0.257304	-0.241759
C14	C	-3.814761	-0.350416	-0.241321
C15	C	-4.091195	-0.568902	-0.244285
C16	C	-4.130051	-0.656392	-0.243880
C17	C	-3.767434	-0.647856	-0.235957
C18	C	-3.728583	-0.560369	-0.236368
C19	C	-3.890469	-0.520894	-0.240528
C20	C	-3.968176	-0.695871	-0.239712
C21	C	-4.010303	-0.790731	-0.239273
C22	C	-3.848340	-0.426028	-0.240969
C23	C	-3.745985	-0.109602	-0.380814
C24	C	-3.769925	-0.108809	-0.468778
C25	C	-3.962449	-0.112617	-0.514145
C26	C	-3.984931	-0.111872	-0.596797
C27	C	-3.814889	-0.107324	-0.634081
C28	C	-3.622347	-0.103514	-0.588707
C29	C	-3.599865	-0.104253	-0.506056
C30	C	-3.873698	-0.104877	-0.883430
C31	C	-3.896197	-0.104141	-0.966087
C32	C	-4.258780	-0.112497	-0.974171
C33	C	-4.236283	-0.113241	-0.891519
C34	C	-4.043742	-0.109426	-0.846152
C35	C	-3.837865	-0.106565	-0.718564
C36	C	-4.020765	-0.110179	-0.761669
C37	C	-4.106013	0.040540	-0.238476
C38	C	-4.043883	0.133651	-0.238919
C39	C	-4.133423	-0.107160	-0.099419
C40	C	-4.088722	-0.107949	-0.011454
H41	H	-3.635637	-0.680007	-0.232569
H42	H	-3.565121	-0.521279	-0.233311
H43	H	-4.293499	-0.695477	-0.246941
H44	H	-4.100923	-0.116325	-0.483796
H45	H	-3.699422	-0.102866	-0.748930
H46	H	-4.159210	-0.113879	-0.731309
C47	C	-4.196717	-0.116051	-0.646696
N48	N	-4.356241	-0.119195	-0.684278
H49	H	-4.374753	-0.116943	-0.861168
H50	H	-4.223015	-0.536764	-0.247671
H51	H	-4.415539	-0.115602	-1.011117
C52	C	-3.709124	-0.099134	-1.007096
N53	N	-3.568229	-0.095363	-1.037985
C54	C	-3.661910	-0.100699	-0.833539
N55	N	-3.502384	-0.097558	-0.795960
C56	C	-3.388075	-0.100067	-0.456153
N57	N	-3.228548	-0.096913	-0.418567
H58	H	-3.483895	-0.099806	-0.619069
