data_functionalizedCrystal
_audit_creation_method	'MofGen! by Chris Wilmer'
_symmetry_space_group_name_H-M	'P1'
_symmetry_Int_Tables_number	1
_symmetry_cell_setting	triclinic
loop_
_symmetry_equiv_pos_as_xyz
  x,y,z
_cell_length_a	10.723022
_cell_length_b	14.853567
_cell_length_c	9.798715
_cell_angle_alpha	89.999353
_cell_angle_beta	90.003391
_cell_angle_gamma	84.051078
loop_
_atom_site_label
_atom_site_type_symbol
_atom_site_fract_x
_atom_site_fract_y
_atom_site_fract_z
O1	O	1.655909	0.126439	0.113470
O2	O	1.292634	0.138543	0.113473
O3	O	1.483976	0.001312	0.113475
O4	O	1.464568	0.263669	0.113467
O5	O	1.483961	0.001312	-0.113507
O6	O	1.292620	0.138543	-0.113509
O7	O	1.655895	0.126438	-0.113513
Zn8	Zn	1.474255	0.132491	-0.149549
Zn9	Zn	1.474274	0.132491	0.149510
O10	O	1.464554	0.263669	-0.113515
C11	C	1.246137	0.137663	-0.000017
C12	C	1.107609	0.135028	-0.000016
C13	C	1.483089	-0.032281	-0.000012
C14	C	1.480454	-0.132379	0.000000
C15	C	0.888681	0.209090	-0.000015
C16	C	1.031857	0.211815	-0.000017
C17	C	1.355654	-0.545571	-0.000025
C18	C	1.582972	-0.565653	-0.000027
C19	C	1.585449	-0.471606	-0.000019
C20	C	1.473028	-0.414537	-0.000016
C21	C	1.358128	-0.451515	-0.000021
C22	C	1.700347	-0.434621	-0.000028
C23	C	1.702829	-0.340568	-0.000021
C24	C	1.590406	-0.283498	-0.000008
C25	C	1.475502	-0.320481	-0.000012
C26	C	1.363080	-0.263413	-0.000009
C27	C	1.248175	-0.300394	-0.000003
C28	C	1.245705	-0.394445	-0.000008
C29	C	1.592876	-0.189447	-0.000003
C30	C	1.365555	-0.169357	-0.000005
C31	C	1.702393	0.127319	-0.000019
C32	C	1.840921	0.129954	-0.000012
C33	C	1.465441	0.297263	-0.000025
C34	C	1.468076	0.397360	-0.000028
N35	N	1.474252	0.132490	-0.353649
C36	C	1.554593	0.074616	-0.421425
C37	C	1.554613	0.074613	-0.578588
N38	N	1.474288	0.132485	0.353609
H39	H	0.823574	0.274824	-0.000009
H40	H	1.262101	-0.575686	-0.000014
H41	H	1.405505	0.182038	-0.588115
H42	H	1.072983	0.279571	-0.000028
H43	H	1.066491	0.067269	0.000023
H44	H	1.791874	-0.481092	-0.000043
O45	O	1.645666	0.008978	-0.344157
H46	H	1.743069	0.020872	-0.371467
O47	O	1.645739	0.008978	-0.655771
H48	H	1.592912	-0.035036	-0.720875
O49	O	0.927151	0.042875	-0.000025
H50	H	0.987169	0.040133	0.092481
H51	H	1.405478	0.182032	-0.411974
H52	H	1.796392	-0.310467	-0.000024
O53	O	1.244298	-0.107804	-0.000014
H54	H	1.163990	-0.149322	-0.000024
H55	H	1.156642	-0.253917	-0.000010
O56	O	1.121778	-0.434329	-0.000031
H57	H	1.138948	-0.509315	-0.000058
H58	H	1.674500	-0.612123	-0.000040
H59	H	1.686430	-0.159341	-0.000017
