data_functionalizedCrystal
_audit_creation_method	'MofGen! by Chris Wilmer'
_symmetry_space_group_name_H-M	'P1'
_symmetry_Int_Tables_number	1
_symmetry_cell_setting	triclinic
loop_
_symmetry_equiv_pos_as_xyz
  x,y,z
_cell_length_a	10.654541
_cell_length_b	15.995350
_cell_length_c	9.730217
_cell_angle_alpha	89.998981
_cell_angle_beta	89.999932
_cell_angle_gamma	83.988152
loop_
_atom_site_label
_atom_site_type_symbol
_atom_site_fract_x
_atom_site_fract_y
_atom_site_fract_z
O1	O	1.666302	0.117591	-0.114240
O2	O	1.300677	0.128798	-0.114252
O3	O	1.493484	0.001365	-0.114244
O4	O	1.473495	0.245024	-0.114248
O5	O	1.493478	0.001364	0.114336
O6	O	1.300671	0.128797	0.114328
O7	O	1.666296	0.117590	0.114340
Zn8	Zn	1.483483	0.123193	0.150626
Zn9	Zn	1.483491	0.123195	-0.150538
O10	O	1.473489	0.245023	0.114332
C11	C	1.253887	0.127975	0.000037
C12	C	1.114475	0.125514	0.000032
C13	C	1.084514	0.277895	0.000013
C14	C	1.004039	0.352926	-0.000002
C15	C	0.873052	0.350609	-0.000003
C16	C	0.822537	0.273253	0.000015
C17	C	0.903011	0.198222	0.000030
C18	C	1.034000	0.200547	0.000027
C19	C	0.932972	0.045843	0.000059
C20	C	1.063961	0.048158	0.000050
C21	C	0.882458	-0.031513	0.000077
C22	C	0.962933	-0.106546	0.000082
C23	C	1.093928	-0.104226	0.000082
C24	C	1.144435	-0.026873	0.000065
C25	C	1.492655	-0.029835	0.000043
C26	C	1.490177	-0.122800	0.000035
C27	C	1.481280	-0.460599	0.000039
C28	C	1.343966	-0.413961	-0.000477
C29	C	1.346444	-0.317257	0.000038
C30	C	1.485693	-0.293013	0.000037
C31	C	1.553418	-0.333698	0.130567
C32	C	1.549969	-0.430354	0.130676
C33	C	1.552812	-0.430694	-0.129262
C34	C	1.552779	-0.333749	-0.130988
C35	C	1.488195	-0.198301	0.000039
C36	C	1.478783	-0.555311	0.000046
C37	C	1.713087	0.118413	0.000048
C38	C	1.852498	0.120874	0.000044
C39	C	1.474318	0.276223	0.000042
C40	C	1.476796	0.369188	0.000041
N41	N	1.483487	0.123192	0.356163
N42	N	1.483497	0.123190	-0.356075
C43	C	1.654287	0.010383	0.356160
C44	C	1.739695	-0.046019	0.428098
C45	C	1.739708	-0.046019	0.571978
C46	C	1.654301	0.010387	0.643922
C47	C	1.568892	0.066788	0.571984
C48	C	1.568891	0.066785	0.428101
C49	C	1.398088	0.179592	0.571987
C50	C	1.398079	0.179598	0.428107
C51	C	1.312681	0.235998	0.643932
C52	C	1.227276	0.292405	0.571993
C53	C	1.227268	0.292404	0.428105
C54	C	1.312671	0.236000	0.356169
H55	H	1.293208	-0.289143	-0.093531
O56	O	0.913925	-0.181703	0.000342
C57	C	0.955076	-0.227494	0.118709
H58	H	0.982329	-0.182275	0.201446
H59	H	0.875728	-0.263576	0.158457
H60	H	1.040444	-0.273657	0.091941
H61	H	1.159444	-0.165325	0.000099
H62	H	1.289086	-0.432811	-0.094083
H63	H	0.807528	0.411706	-0.000006
H64	H	1.312676	0.235997	0.239014
H65	H	1.251090	-0.024976	0.000049
H66	H	1.503264	-0.306787	-0.227550
H67	H	1.289324	-0.433873	0.092604
O68	O	1.499447	-0.455469	-0.247426
C69	C	1.565709	-0.427658	-0.361213
H70	H	1.665398	-0.416762	-0.328347
H71	H	1.570600	-0.477345	-0.445582
H72	H	1.514713	-0.366382	-0.401724
H73	H	0.775800	-0.033395	0.000083
H74	H	1.292845	-0.289704	0.093763
O75	O	1.673917	-0.314677	-0.140159
C76	C	1.700771	-0.263801	-0.027811
H77	H	1.633505	-0.273869	0.060347
H78	H	1.802176	-0.281463	0.007256
H79	H	1.688349	-0.194931	-0.060186
H80	H	1.191169	0.279789	-0.000016
H81	H	1.312689	0.235991	0.761086
H82	H	1.500579	-0.448942	0.228250
O83	O	0.695288	0.271046	-0.000218
C84	C	0.643298	0.312079	-0.118584
H85	H	0.719042	0.312069	-0.201335
H86	H	0.562116	0.277700	-0.158310
H87	H	0.606696	0.379648	-0.091824
H88	H	1.650782	-0.462017	0.136597
O89	O	1.675508	-0.316248	0.136549
C90	C	1.733437	-0.353672	0.254897
H91	H	1.680486	-0.408479	0.288851
H92	H	1.835568	-0.377641	0.230596
H93	H	1.731101	-0.305158	0.340940
O94	O	1.497116	-0.300256	0.246416
C95	C	1.369309	-0.315856	0.247908
H96	H	1.356480	-0.372538	0.180291
H97	H	1.339786	-0.329212	0.357686
H98	H	1.308314	-0.258433	0.206957
O99	O	1.673513	-0.468019	-0.130395
C100	C	1.672567	-0.556046	-0.135337
H101	H	1.579164	-0.571922	-0.180345
H102	H	1.753655	-0.584461	-0.202640
H103	H	1.684117	-0.582936	-0.027028
H104	H	1.654295	0.010385	0.239005
H105	H	1.809231	-0.091946	0.369508
O106	O	1.822786	-0.100842	0.641653
C107	C	1.898137	-0.150647	0.547310
H108	H	1.899557	-0.116312	0.444743
H109	H	1.998422	-0.162800	0.588885
H110	H	1.857366	-0.213101	0.532014
O111	O	1.654314	0.010227	0.783686
C112	C	1.628775	-0.069409	0.831752
H113	H	1.654516	-0.118578	0.748834
H114	H	1.687033	-0.086188	0.928008
H115	H	1.524127	-0.067855	0.857283
H116	H	1.157738	0.338323	0.630580
O117	O	1.144253	0.347275	0.358441
C118	C	1.068858	0.397038	0.452800
H119	H	1.120350	0.398304	0.555359
H120	H	1.049679	0.463789	0.411233
H121	H	0.975583	0.369263	0.468108
O122	O	1.053047	0.428088	0.000221
C123	C	1.011897	0.473889	0.118577
H124	H	0.984657	0.428676	0.201331
H125	H	1.091242	0.509980	0.158305
H126	H	0.926522	0.520045	0.091802
