data_functionalizedCrystal
_audit_creation_method	'MofGen! by Chris Wilmer'
_symmetry_space_group_name_H-M	'P1'
_symmetry_Int_Tables_number	1
_symmetry_cell_setting	triclinic
loop_
_symmetry_equiv_pos_as_xyz
  x,y,z
_cell_length_a	17.038272
_cell_length_b	17.038272
_cell_length_c	16.098538
_cell_angle_alpha	92.930266
_cell_angle_beta	92.920305
_cell_angle_gamma	88.888444
loop_
_atom_site_label
_atom_site_type_symbol
_atom_site_fract_x
_atom_site_fract_y
_atom_site_fract_z
O1	O	0.167266	-1.052033	-0.069152
O2	O	0.500599	-0.718699	0.264181
O3	O	0.833933	-0.385366	0.597514
O4	O	0.164557	-0.824222	-0.069177
O5	O	0.497890	-0.490889	0.264156
O6	O	0.831224	-0.157556	0.597490
O7	O	0.052006	-0.936773	-0.069158
O8	O	0.385339	-0.603440	0.264175
O9	O	0.718673	-0.270106	0.597508
O10	O	0.279817	-0.939482	-0.069171
O11	O	0.613150	-0.606148	0.264162
O12	O	0.946484	-0.272815	0.597496
O13	O	0.058553	-0.930197	0.069354
O14	O	0.391886	-0.596863	0.402687
O15	O	0.725220	-0.263530	0.736020
O16	O	0.171104	-0.817646	0.069335
O17	O	0.504437	-0.484312	0.402668
O18	O	0.837771	-0.150979	0.736002
O19	O	0.173813	-1.045456	0.069359
O20	O	0.507146	-0.712123	0.402693
O21	O	0.840480	-0.378789	0.736026
Zn22	Zn	0.173498	-0.930507	0.091339
Zn23	Zn	0.506831	-0.597173	0.424672
Zn24	Zn	0.840165	-0.263840	0.758006
Zn25	Zn	0.164872	-0.939172	-0.091156
Zn26	Zn	0.498205	-0.605838	0.242177
Zn27	Zn	0.831539	-0.272505	0.575510
O28	O	0.286364	-0.932905	0.069341
O29	O	0.619697	-0.599572	0.402674
O30	O	0.953031	-0.266238	0.736007
C31	C	0.165367	-0.791641	0.000076
C32	C	0.498701	-0.458308	0.333409
C33	C	0.832034	-0.124975	0.666743
C34	C	0.158019	-0.704358	0.000067
C35	C	0.491352	-0.371025	0.333400
C36	C	0.824686	-0.037692	0.666733
C37	C	0.025987	-0.931022	0.000097
C38	C	0.359320	-0.597689	0.333431
C39	C	0.692653	-0.264355	0.666764
C40	C	-0.061297	-0.923674	0.000096
C41	C	0.272036	-0.590341	0.333430
C42	C	0.605370	-0.257007	0.666763
N43	N	0.179385	-0.924599	0.215887
N44	N	0.512718	-0.591266	0.549220
N45	N	0.846052	-0.257932	0.882554
C46	C	-0.106906	-0.991137	0.000104
C47	C	0.226428	-0.657804	0.333438
C48	C	0.559761	-0.324471	0.666771
C49	C	-0.188918	-0.984229	0.000096
C50	C	0.144415	-0.650895	0.333429
C51	C	0.477749	-0.317562	0.666762
C52	C	-0.225320	-0.909856	0.000085
C53	C	0.108014	-0.576523	0.333418
C54	C	0.441347	-0.243189	0.666752
C55	C	-0.179705	-0.842388	0.000074
C56	C	0.153628	-0.509054	0.333408
C57	C	0.486962	-0.175721	0.666741
C58	C	-0.097694	-0.849297	0.000077
C59	C	0.235639	-0.515964	0.333410
C60	C	0.568972	-0.182631	0.666744
C61	C	-0.472708	-0.885446	0.000071
C62	C	-0.139375	-0.552113	0.333404
C63	C	0.193958	-0.218779	0.666738
C64	C	-0.554725	-0.878541	0.000071
C65	C	-0.221391	-0.545208	0.333404
C66	C	0.111942	-0.211875	0.666737
C67	C	-0.563932	-1.020383	0.000091
C68	C	-0.230599	-0.687050	0.333424
C69	C	0.102734	-0.353716	0.666757
C70	C	-0.481920	-1.027286	0.000098
C71	C	-0.148586	-0.693953	0.333432
C72	C	0.184747	-0.360619	0.666765
C73	C	-0.436312	-0.959818	0.000083
C74	C	-0.102979	-0.626485	0.333417
C75	C	0.230354	-0.293151	0.666750
C76	C	-0.309149	-0.902792	0.000079
C77	C	0.024184	-0.569459	0.333412
C78	C	0.357517	-0.236126	0.666745
C79	C	-0.352485	-0.966882	0.000084
C80	C	-0.019151	-0.633549	0.333417
C81	C	0.314182	-0.300216	0.666750
C82	C	0.312383	-0.938656	0.000083
C83	C	0.645716	-0.605323	0.333417
C84	C	0.979050	-0.271990	0.666750
C85	C	0.399666	-0.946005	0.000079
C86	C	0.733000	-0.612671	0.333412
C87	C	1.066333	-0.279338	0.666746
C88	C	0.173002	-1.078037	0.000105
C89	C	0.506336	-0.744704	0.333438
C90	C	0.839669	-0.411370	0.666771
C91	C	0.180351	-1.165320	0.000108
C92	C	0.513684	-0.831987	0.333442
C93	C	0.847017	-0.498654	0.666775
C94	C	0.225482	-0.658749	0.000064
C95	C	0.558816	-0.325416	0.333397
C96	C	0.892149	0.007918	0.666730
C97	C	0.218574	-0.576737	0.000075
C98	C	0.551907	-0.243403	0.333409
C99	C	0.885241	0.089930	0.666742
C100	C	0.144201	-0.540335	0.000085
C101	C	0.477534	-0.207002	0.333418
C102	C	0.810868	0.126332	0.666751
C103	C	0.076733	-0.585950	0.000090
C104	C	0.410066	-0.252617	0.333424
C105	C	0.743399	0.080716	0.666757
C106	C	0.083642	-0.667961	0.000084
C107	C	0.416975	-0.334627	0.333418
C108	C	0.750309	-0.001294	0.666751
C109	C	0.119792	-0.292946	0.000108
C110	C	0.453125	0.040387	0.333442
C111	C	0.786458	0.373721	0.666775
C112	C	0.112887	-0.210929	0.000112
C113	C	0.446220	0.122404	0.333445
C114	C	0.779554	0.455737	0.666778
C115	C	0.254729	-0.201722	0.000098
C116	C	0.588063	0.131612	0.333432
C117	C	0.921396	0.464945	0.666765
C118	C	0.261632	-0.283734	0.000088
C119	C	0.594965	0.049599	0.333421
C120	C	0.928299	0.382932	0.666754
C121	C	0.194164	-0.329342	0.000098
C122	C	0.527497	0.003991	0.333431
C123	C	0.860830	0.337325	0.666764
C124	C	0.137138	-0.456505	0.000094
C125	C	0.470471	-0.123172	0.333427
C126	C	0.803804	0.210161	0.666761
C127	C	0.201228	-0.413170	0.000094
C128	C	0.534561	-0.079837	0.333427
C129	C	0.867895	0.253497	0.666761
N130	N	0.158979	-0.945085	-0.215705
N131	N	0.492312	-0.611752	0.117629
N132	N	0.825646	-0.278419	0.450962
C133	C	0.131633	-0.972390	0.259480
C134	C	0.464966	-0.639057	0.592813
C135	C	0.798300	-0.305723	0.926147
C136	C	0.135759	-0.968265	0.346668
C137	C	0.469093	-0.634932	0.680002
C138	C	0.802426	-0.301598	1.013335
C139	C	0.187642	-0.916352	0.390262
C140	C	0.520975	-0.583019	0.723595
C141	C	0.854308	-0.249686	1.056929
C142	C	0.235395	-0.868556	0.346663
C143	C	0.568729	-0.535223	0.679996
C144	C	0.902062	-0.201889	1.013330
C145	C	0.231265	-0.872678	0.259476
C146	C	0.564598	-0.539344	0.592810
C147	C	0.897931	-0.206011	0.926143
C148	C	0.202602	-0.901410	0.653510
C149	C	0.535935	-0.568077	0.986843
C150	C	0.869269	-0.234744	1.320176
C151	C	0.206731	-0.897294	0.740702
C152	C	0.540064	-0.563961	1.074036
C153	C	0.873398	-0.230628	1.407369
C154	C	0.107093	-0.997003	0.740702
C155	C	0.440427	-0.663669	1.074035
C156	C	0.773760	-0.330336	1.407368
C157	C	0.102971	-1.001123	0.653513
C158	C	0.436304	-0.667789	0.986847
C159	C	0.769637	-0.334456	1.320180
C160	C	0.150721	-0.953324	0.609922
C161	C	0.484055	-0.619990	0.943255
C162	C	0.817388	-0.286657	1.276589
C163	C	0.191862	-0.912136	0.479383
C164	C	0.525196	-0.578803	0.812716
C165	C	0.858529	-0.245470	1.146049
C166	C	0.146496	-0.957536	0.520803
C167	C	0.479830	-0.624203	0.854136
C168	C	0.813163	-0.290869	1.187470
H169	H	-0.077274	-1.051699	0.000118
H170	H	0.256060	-0.718366	0.333452
H171	H	0.589393	-0.385033	0.666785
H172	H	-0.226050	-1.039165	0.000104
H173	H	0.107284	-0.705831	0.333438
H174	H	0.440617	-0.372498	0.666771
H175	H	-0.452287	-1.087848	0.000107
H176	H	-0.118954	-0.754515	0.333441
H177	H	0.214379	-0.421181	0.666774
H178	H	-0.338796	-0.842238	0.000072
H179	H	-0.005463	-0.508904	0.333405
H180	H	0.327870	-0.175571	0.666738
H181	H	0.234107	-0.869870	0.514884
H182	H	0.567441	-0.536536	0.848217
H183	H	0.900774	-0.203203	1.181550
H184	H	0.309658	-0.164579	0.000092
H185	H	0.642991	0.168754	0.333425
H186	H	0.976324	0.502088	0.666759
C187	C	0.292441	-0.811427	0.394610
C188	C	0.625774	-0.478094	0.727943
C189	C	0.959108	-0.144760	1.061276
H190	H	0.320276	-0.783542	0.356158
H191	H	0.653610	-0.450209	0.689491
H192	H	0.986943	-0.116876	1.022824
H193	H	0.328648	-0.840218	0.428625
H194	H	0.661982	-0.506884	0.761958
H195	H	0.995315	-0.173551	1.095291
H196	H	0.263580	-0.775257	0.428617
H197	H	0.596913	-0.441924	0.761950
H198	H	0.930247	-0.108591	1.095284
H199	H	-0.209350	-0.781832	0.000060
H200	H	0.123984	-0.448499	0.333394
H201	H	0.457317	-0.115165	0.666727
H202	H	0.060724	-1.043394	0.618021
H203	H	0.394057	-0.710061	0.951354
H204	H	0.727391	-0.376727	1.284688
H205	H	0.286045	-0.688381	0.000056
H206	H	0.619378	-0.355048	0.333389
H207	H	0.952711	-0.021714	0.666722
H208	H	-0.601075	-1.075312	0.000101
H209	H	-0.267741	-0.741978	0.333435
H210	H	0.065592	-0.408645	0.666768
H211	H	-0.584359	-0.817975	0.000075
H212	H	-0.251026	-0.484641	0.333409
H213	H	0.082307	-0.151308	0.666742
C214	C	0.055330	-0.416465	0.000094
C215	C	0.388663	-0.083131	0.333428
C216	C	0.721996	0.250202	0.666761
H217	H	0.016135	-0.455371	0.000096
H218	H	0.349469	-0.122038	0.333430
H219	H	0.682802	0.211296	0.666763
H220	H	0.047409	-0.386947	-0.048205
H221	H	0.380743	-0.053614	0.285129
H222	H	0.714076	0.279719	0.618462
H223	H	0.051971	-0.382379	0.048406
H224	H	0.385304	-0.049046	0.381739
H225	H	0.718638	0.284287	0.715072
H226	H	0.248983	-0.855019	0.776192
H227	H	0.582316	-0.521685	1.109526
H228	H	0.915650	-0.188352	1.442859
H229	H	0.322194	-0.313367	0.000070
H230	H	0.655527	0.019966	0.333404
H231	H	0.988860	0.353300	0.666737
H232	H	0.028706	-0.705095	0.000086
H233	H	0.362039	-0.371762	0.333420
H234	H	0.695373	-0.038429	0.666753
H235	H	0.096876	-1.007180	0.382161
H236	H	0.430209	-0.673846	0.715495
H237	H	0.763542	-0.340513	1.048828
C238	C	-0.422550	-0.811233	0.000069
C239	C	-0.089216	-0.477900	0.333402
C240	C	0.244117	-0.144567	0.666736
H241	H	-0.455977	-0.765952	0.000074
H242	H	-0.122644	-0.432618	0.333407
H243	H	0.210690	-0.099285	0.666741
H244	H	-0.392643	-0.813266	-0.048231
H245	H	-0.059310	-0.479933	0.285103
H246	H	0.274023	-0.146599	0.618436
H247	H	-0.388089	-0.808689	0.048380
H248	H	-0.054756	-0.475356	0.381713
H249	H	0.278578	-0.142022	0.715046
H250	H	-0.060560	-0.794361	0.000070
H251	H	0.272773	-0.461028	0.333404
H252	H	0.606106	-0.127695	0.666737
H253	H	0.089389	-1.014666	0.223992
H254	H	0.422722	-0.681333	0.557325
H255	H	0.756055	-0.347999	0.890659
C256	C	-0.005078	-0.545914	0.000099
C257	C	0.328256	-0.212581	0.333433
C258	C	0.661589	0.120752	0.666766
H259	H	-0.044266	-0.584825	0.000107
H260	H	0.289067	-0.251492	0.333441
H261	H	0.622400	0.081841	0.666774
H262	H	-0.013005	-0.516400	-0.048201
H263	H	0.320328	-0.183067	0.285132
H264	H	0.653661	0.150266	0.618466
H265	H	-0.008437	-0.511827	0.048409
H266	H	0.324897	-0.178494	0.381743
H267	H	0.658230	0.154839	0.715076
H268	H	0.068216	-1.035918	0.776202
H269	H	0.401549	-0.702584	1.109535
H270	H	0.734883	-0.369251	1.442869
H271	H	0.273510	-0.539605	0.000072
H272	H	0.606844	-0.206272	0.333405
H273	H	0.940177	0.127062	0.666739
H274	H	0.241484	-0.862492	0.618024
H275	H	0.574818	-0.529158	0.951358
H276	H	0.908151	-0.195825	1.284691
H277	H	0.104250	-0.999800	0.485307
H278	H	0.437584	-0.666467	0.818640
H279	H	0.770917	-0.333134	1.151973
H280	H	0.270148	-0.833760	0.223984
H281	H	0.603481	-0.500427	0.557317
H282	H	0.936815	-0.167093	0.890650
H283	H	0.052321	-0.181294	0.000118
H284	H	0.385654	0.152039	0.333452
H285	H	0.718988	0.485372	0.666785
C286	C	-0.312449	-1.048689	0.000097
C287	C	0.020884	-0.715356	0.333431
C288	C	0.354218	-0.382022	0.666764
H289	H	-0.351355	-1.087883	0.000099
H290	H	-0.018022	-0.754550	0.333432
H291	H	0.315312	-0.421217	0.666765
H292	H	-0.278366	-1.052032	0.048400
H293	H	0.054967	-0.718698	0.381733
H294	H	0.388300	-0.385365	0.715067
H295	H	-0.282930	-1.056626	-0.048210
H296	H	0.050404	-0.723293	0.285123
H297	H	0.383737	-0.389960	0.618456
C298	C	0.283035	-0.453206	0.000082
C299	C	0.616368	-0.119872	0.333415
C300	C	0.949701	0.213461	0.666748
H301	H	0.322229	-0.414299	0.000083
H302	H	0.655562	-0.080966	0.333417
H303	H	0.988896	0.252367	0.666750
H304	H	0.286387	-0.487294	-0.048222
H305	H	0.619720	-0.153961	0.285111
H306	H	0.953054	0.179372	0.618444
H307	H	0.290962	-0.482719	0.048388
H308	H	0.624296	-0.149385	0.381721
H309	H	0.957629	0.183948	0.715055
H310	H	0.064854	-0.330070	0.000117
H311	H	0.398187	0.003263	0.333450
H312	H	0.731520	0.336596	0.666784
