data_functionalizedCrystal
_audit_creation_method	'MofGen! by Chris Wilmer'
_symmetry_space_group_name_H-M	'P1'
_symmetry_Int_Tables_number	1
_symmetry_cell_setting	triclinic
loop_
_symmetry_equiv_pos_as_xyz
  x,y,z
_cell_length_a	10.654534
_cell_length_b	10.654543
_cell_length_c	9.730223
_cell_angle_alpha	90.000897
_cell_angle_beta	90.004077
_cell_angle_gamma	84.480289
loop_
_atom_site_label
_atom_site_type_symbol
_atom_site_fract_x
_atom_site_fract_y
_atom_site_fract_z
O1	O	-1.667846	-0.176304	-0.114304
O2	O	-1.167846	0.323696	0.385696
O3	O	-1.302365	-0.193131	-0.114300
O4	O	-0.802365	0.306869	0.385700
O5	O	-1.493513	-0.001977	-0.114305
O6	O	-0.993513	0.498023	0.385695
O7	O	-1.476698	-0.367458	-0.114299
O8	O	-0.976698	0.132542	0.385701
O9	O	-1.493501	-0.001972	0.114275
O10	O	-0.993501	0.498028	0.614275
O11	O	-1.302353	-0.193125	0.114280
O12	O	-0.802353	0.306875	0.614280
O13	O	-1.667834	-0.176298	0.114276
O14	O	-1.167834	0.323702	0.614276
Zn15	Zn	-1.485091	-0.184711	0.150570
Zn16	Zn	-0.985091	0.315289	0.650570
Zn17	Zn	-1.485108	-0.184718	-0.150594
Zn18	Zn	-0.985108	0.315282	0.349406
O19	O	-1.476686	-0.367452	0.114281
O20	O	-0.976686	0.132548	0.614281
C21	C	-1.492274	0.044824	-0.000019
C22	C	-0.992274	0.544824	0.499981
C23	C	-1.488586	0.184267	-0.000030
C24	C	-0.988586	0.684267	0.499970
C25	C	-1.255561	-0.191897	-0.000010
C26	C	-0.755561	0.308103	0.499990
C27	C	-1.116116	-0.188213	-0.000009
C28	C	-0.616116	0.311787	0.499991
C29	C	-1.601130	0.263759	-0.000037
C30	C	-1.101130	0.763759	0.499963
C31	C	-1.597657	0.394780	-0.000062
C32	C	-1.097657	0.894780	0.499938
C33	C	-1.369085	0.366804	-0.000068
C34	C	-0.869085	0.866804	0.499932
C35	C	-1.372559	0.235786	-0.000053
C36	C	-0.872559	0.735786	0.499947
C37	C	-1.050605	-0.186476	0.124592
C38	C	-0.550605	0.313524	0.624592
C39	C	-0.919585	-0.182994	0.124596
C40	C	-0.419585	0.317006	0.624596
C41	C	-0.919599	-0.182991	-0.124615
C42	C	-0.419599	0.317009	0.375385
C43	C	-1.050618	-0.186464	-0.124616
C44	C	-0.550618	0.313536	0.375384
C45	C	-0.714637	-0.177543	-0.000012
C46	C	-0.214637	0.322457	0.499988
C47	C	-0.854078	-0.181257	-0.000004
C48	C	-0.354078	0.318743	0.499996
N49	N	-1.485089	-0.184706	0.356106
N50	N	-0.985089	0.315294	0.856106
C51	C	-1.477931	0.585748	-0.000024
C52	C	-0.977931	1.085748	0.499976
C53	C	-1.481638	0.446307	-0.000070
C54	C	-0.981638	0.946307	0.499930
N55	N	-1.485120	-0.184714	-0.356131
N56	N	-0.985120	0.315286	0.143869
C57	C	-1.569759	-0.100099	0.428030
C58	C	-1.069759	0.399901	0.928030
C59	C	-1.569771	-0.100099	0.571913
C60	C	-1.069771	0.399901	1.071913
C61	C	-1.400441	-0.269325	0.571936
C62	C	-0.900441	0.230675	1.071936
C63	C	-1.400423	-0.269317	0.428055
C64	C	-0.900423	0.230683	0.928055
H65	H	-1.689302	0.459499	-0.000070
H66	H	-1.189302	0.959499	0.499930
H67	H	-1.103959	-0.187875	-0.226088
H68	H	-0.603959	0.312125	0.273912
N69	N	-0.848926	-0.181114	0.258987
N70	N	-0.348926	0.318886	0.758987
H71	H	-0.910410	-0.181862	0.337916
H72	H	-0.410410	0.318138	0.837916
H73	H	-0.785656	-0.257846	0.264835
H74	H	-0.285656	0.242154	0.764835
N75	N	-1.121244	-0.188348	0.258990
N76	N	-0.621244	0.311652	0.758990
H77	H	-1.185116	-0.112074	0.264545
H78	H	-0.685116	0.387926	0.764545
H79	H	-1.166010	-0.267558	0.264469
H80	H	-0.666010	0.232442	0.764469
H81	H	-1.638697	-0.031201	0.369452
H82	H	-1.138697	0.468799	0.869452
H83	H	-0.866254	-0.181568	-0.226066
H84	H	-0.366254	0.318432	0.273934
H85	H	-1.274620	0.408767	-0.000084
H86	H	-0.774620	0.908767	0.499916
N87	N	-1.661111	-0.008863	0.649489
N88	N	-1.161111	0.491137	1.149489
H89	H	-1.714746	0.044729	0.582073
H90	H	-1.214746	0.544729	1.082073
H91	H	-1.717040	-0.057485	0.709160
H92	H	-1.217040	0.442515	1.209160
H93	H	-1.331509	-0.338215	0.630531
H94	H	-0.831509	0.161785	1.130531
H95	H	-1.331469	-0.338215	0.369491
H96	H	-0.831469	0.161785	0.869491
H97	H	-1.695606	0.221818	-0.000021
H98	H	-1.195606	0.721818	0.499979
N99	N	-1.251167	0.150035	-0.000055
N100	N	-0.751167	0.650035	0.499945
H101	H	-1.177138	0.202551	-0.000063
H102	H	-0.677138	0.702551	0.499937
H103	H	-1.247624	0.095071	0.084686
H104	H	-0.747624	0.595071	0.584686
