data_functionalizedCrystal
_audit_creation_method	'MofGen! by Chris Wilmer'
_symmetry_space_group_name_H-M	'P1'
_symmetry_Int_Tables_number	1
_symmetry_cell_setting	triclinic
loop_
_symmetry_equiv_pos_as_xyz
  x,y,z
_cell_length_a	11.792241
_cell_length_b	10.654550
_cell_length_c	10.868271
_cell_angle_alpha	90.000241
_cell_angle_beta	89.999844
_cell_angle_gamma	95.660841
loop_
_atom_site_label
_atom_site_type_symbol
_atom_site_fract_x
_atom_site_fract_y
_atom_site_fract_z
O1	O	1.507307	-0.172129	-0.102199
O2	O	1.177007	-0.189870	-0.102228
O3	O	1.349751	0.001761	-0.102208
O4	O	1.334562	-0.363760	-0.102219
O5	O	1.349735	0.001755	0.102436
O6	O	1.176991	-0.189876	0.102417
O7	O	1.507291	-0.172135	0.102445
Zn8	Zn	1.342138	-0.181007	0.134923
Zn9	Zn	1.342159	-0.180998	-0.134705
O10	O	1.334547	-0.363766	0.102426
C11	C	1.134705	-0.188758	0.000091
C12	C	1.008684	-0.185423	0.000080
C13	C	1.348628	0.048553	0.000112
C14	C	1.345291	0.187987	0.000108
N15	N	1.342133	-0.181011	0.318937
C16	C	0.777957	-0.179290	0.000116
C17	C	0.906351	-0.182697	0.000096
C18	C	1.549592	-0.173247	0.000124
C19	C	1.675614	-0.176582	0.000127
C20	C	1.335670	-0.410558	0.000102
C21	C	1.339006	-0.549992	0.000099
C22	C	1.447000	0.267760	0.000120
C23	C	1.443858	0.398772	0.000111
C24	C	1.237290	0.370224	0.000083
C25	C	1.240433	0.239215	0.000083
C26	C	1.551859	0.216532	0.000145
C27	C	1.653577	0.296307	0.000159
C28	C	1.650435	0.427319	0.000150
C29	C	1.545575	0.478556	0.000128
N30	N	1.342174	-0.180984	-0.318719
C31	C	1.342141	-0.181012	0.430275
C32	C	1.342156	-0.181000	0.569952
H33	H	1.738949	0.254580	0.000147
H34	H	1.733258	0.492268	0.000149
C35	C	1.123562	0.426093	0.000132
C36	C	1.142580	0.557900	0.000169
C37	C	1.037840	0.609407	0.000236
H38	H	1.081556	0.398902	-0.071216
H39	H	1.081624	0.398828	0.071521
H40	H	1.184501	0.585154	-0.071212
H41	H	1.184568	0.585127	0.071513
H42	H	0.995902	0.582142	0.071625
H43	H	0.995842	0.582206	-0.071114
H44	H	1.050729	0.698842	0.000273
H45	H	1.157612	0.174261	0.000074
H46	H	1.554429	0.109857	0.000156
H47	H	1.543025	0.585236	0.000107
