data_functionalizedCrystal
_audit_creation_method	'MofGen! by Chris Wilmer'
_symmetry_space_group_name_H-M	'P1'
_symmetry_Int_Tables_number	1
_symmetry_cell_setting	triclinic
loop_
_symmetry_equiv_pos_as_xyz
  x,y,z
_cell_length_a	16.959455
_cell_length_b	16.959454
_cell_length_c	16.959447
_cell_angle_alpha	89.973264
_cell_angle_beta	89.985678
_cell_angle_gamma	90.017022
loop_
_atom_site_label
_atom_site_type_symbol
_atom_site_fract_x
_atom_site_fract_y
_atom_site_fract_z
Zn1	Zn	1.208384	-0.314730	-0.446928
Zn2	Zn	1.208306	-0.446923	-0.314758
Zn3	Zn	1.076212	-0.314755	-0.314766
Zn4	Zn	1.076177	-0.446864	-0.446897
O5	O	1.142270	-0.380818	-0.380837
O6	O	1.318984	-0.332280	-0.429406
O7	O	1.190766	-0.429426	-0.204148
O8	O	1.093792	-0.204141	-0.332314
O9	O	1.318927	-0.429402	-0.332301
O10	O	1.190898	-0.204123	-0.429413
O11	O	1.093717	-0.332323	-0.204154
O12	O	0.965597	-0.332265	-0.332283
O13	O	1.093732	-0.429301	-0.557512
O14	O	0.965571	-0.429325	-0.429359
O15	O	1.190864	-0.332223	-0.557535
O16	O	1.190732	-0.557526	-0.332270
O17	O	1.093657	-0.557482	-0.429352
C18	C	0.936904	-0.380792	-0.380819
C19	C	0.849047	-0.380800	-0.380830
C20	C	0.477560	-0.330238	-0.330395
C21	C	0.477582	-0.431463	-0.431324
C22	C	0.560128	-0.431452	-0.431320
C23	C	0.601394	-0.380834	-0.380851
C24	C	0.560114	-0.330226	-0.330387
C25	C	0.601414	-0.482064	-0.481777
C26	C	0.683965	-0.482055	-0.481773
C27	C	0.725233	-0.431432	-0.431308
C28	C	0.683948	-0.380822	-0.380843
C29	C	0.725213	-0.330204	-0.330374
C30	C	0.683930	-0.279589	-0.279913
C31	C	0.601381	-0.279603	-0.279922
C32	C	0.807781	-0.431418	-0.431299
C33	C	0.807767	-0.330193	-0.330366
C34	C	1.142204	-0.586184	-0.380824
C35	C	1.142248	-0.674041	-0.380844
C36	C	1.091796	-1.045524	-0.431382
C37	C	1.192963	-1.045509	-0.330373
C38	C	1.192936	-0.962963	-0.330365
C39	C	1.142337	-0.921694	-0.380867
C40	C	1.091765	-0.962970	-0.431375
C41	C	1.243501	-0.921680	-0.279852
C42	C	1.243475	-0.839130	-0.279842
C43	C	1.192879	-0.797859	-0.330348
C44	C	1.142306	-0.839140	-0.380859
C45	C	1.091707	-0.797871	-0.431360
C46	C	1.041137	-0.839151	-0.481876
C47	C	1.041170	-0.921699	-0.481881
C48	C	1.192847	-0.715310	-0.330343
C49	C	1.091676	-0.715317	-0.431353
C50	C	1.348438	-0.380845	-0.380856
C51	C	1.436295	-0.380856	-0.380864
C52	C	1.142303	-0.380753	-0.587006
C53	C	1.142317	-0.380725	-0.674862
C54	C	1.142358	-0.174650	-0.380868
C55	C	1.142395	-0.086793	-0.380881
C56	C	1.091839	-0.431185	-1.046328
C57	C	1.192983	-0.330097	-1.046348
C58	C	1.192962	-0.330114	-0.963802
C59	C	1.142380	-0.380668	-0.922515
C60	C	1.091818	-0.431205	-0.963775
C61	C	1.243529	-0.279584	-0.922536
C62	C	1.243510	-0.279599	-0.839985
C63	C	1.192923	-0.330149	-0.798697
C64	C	1.142359	-0.380688	-0.839962
C65	C	1.091776	-0.431242	-0.798675
C66	C	1.041207	-0.481777	-0.839938
C67	C	1.041231	-0.481756	-0.922487
C68	C	1.192899	-0.330171	-0.716149
C69	C	1.091755	-0.431262	-0.716122
C70	C	1.142283	-0.380826	-0.175471
C71	C	1.142422	-0.380631	-0.087615
H72	H	0.841360	-0.288968	-0.289273
Cl73	Cl	1.028230	-1.097416	-0.494888
H74	H	0.443979	-0.472679	-0.472409
Cl75	Cl	1.256571	-1.097391	-0.266890
Cl76	Cl	0.977526	-0.787260	-0.545356
Cl77	Cl	0.549478	-0.215981	-0.216490
Cl78	Cl	0.977669	-0.545284	-0.974365
H79	H	0.443944	-0.289026	-0.289313
H80	H	1.284686	-0.238450	-0.806396
Cl81	Cl	1.028268	-0.494710	-1.098199
H82	H	1.234074	-0.289028	-0.682556
Cl83	Cl	0.549534	-0.545719	-0.545193
H84	H	0.717571	-0.523268	-0.522863
Cl85	Cl	0.977625	-0.545332	-0.788026
H86	H	1.234170	-0.288943	-1.079968
Cl87	Cl	1.307119	-0.216041	-0.974442
Cl88	Cl	0.859677	-0.495047	-0.494726
H89	H	0.717539	-0.238379	-0.238818
H90	H	1.050475	-0.681721	-0.472480
Cl91	Cl	0.977601	-0.973599	-0.545378
Cl92	Cl	1.307111	-0.973565	-0.216375
Cl93	Cl	1.307053	-0.787242	-0.216346
Cl94	Cl	1.256406	-0.663419	-0.266835
H95	H	1.050557	-0.472422	-0.682512
