data_functionalizedCrystal
_audit_creation_method	'MofGen! by Chris Wilmer'
_symmetry_space_group_name_H-M	'P1'
_symmetry_Int_Tables_number	1
_symmetry_cell_setting	triclinic
loop_
_symmetry_equiv_pos_as_xyz
  x,y,z
_cell_length_a	8.559649
_cell_length_b	8.559649
_cell_length_c	7.681481
_cell_angle_alpha	85.069100
_cell_angle_beta	85.087445
_cell_angle_gamma	110.221336
loop_
_atom_site_label
_atom_site_type_symbol
_atom_site_fract_x
_atom_site_fract_y
_atom_site_fract_z
O1	O	-2.109658	-0.037794	-0.146430
O2	O	-1.609658	0.462206	0.353570
O3	O	-1.634173	0.045988	-0.146430
O4	O	-1.134173	0.545988	0.353570
O5	O	-1.913806	-0.233646	-0.146429
O6	O	-1.413806	0.266354	0.353571
O7	O	-1.830024	0.241840	-0.146432
O8	O	-1.330024	0.741840	0.353568
O9	O	-1.948233	-0.268133	0.146429
O10	O	-1.448233	0.231867	0.646429
O11	O	-1.668600	0.011500	0.146428
O12	O	-1.168600	0.511500	0.646428
O13	O	-2.144084	-0.072281	0.146428
O14	O	-1.644084	0.427719	0.646428
Zn15	Zn	-1.911808	-0.035866	0.192925
Zn16	Zn	-1.411808	0.464134	0.692925
Zn17	Zn	-1.866449	0.009573	-0.192928
Zn18	Zn	-1.366449	0.509573	0.307072
O19	O	-1.864451	0.207352	0.146426
O20	O	-1.364451	0.707352	0.646426
C21	C	-1.591077	0.035093	-0.000002
C22	C	-1.091077	0.535093	0.499998
C23	C	-1.411378	0.053992	-0.000002
C24	C	-0.911378	0.553992	0.499998
C25	C	-1.937368	-0.311198	-0.000003
C26	C	-1.437368	0.188802	0.499997
C27	C	-1.956266	-0.490896	-0.000013
C28	C	-1.456266	0.009104	0.499987
C29	C	-1.187180	-0.061387	-0.000002
C30	C	-0.687180	0.438613	0.499998
C31	C	-1.366879	-0.080286	-0.000003
C32	C	-0.866879	0.419714	0.499997
C33	C	-1.840889	0.284905	-0.000004
C34	C	-1.340889	0.784905	0.499996
C35	C	-1.821989	0.464604	-0.000006
C36	C	-1.321989	0.964604	0.499994
N37	N	-1.942776	-0.066880	0.456260
N38	N	-1.442776	0.433120	0.956260
N39	N	-1.835496	0.040571	-0.456262
N40	N	-1.335496	0.540571	0.043738
H41	H	-1.311988	0.183421	-0.000011
H42	H	-0.811988	0.683421	0.499989
N43	N	-1.650553	-0.403774	0.000020
N44	N	-1.150553	0.096226	0.500020
H45	H	-1.660897	-0.289755	0.000018
H46	H	-1.160897	0.210245	0.500018
H47	H	-1.575261	-0.404043	-0.108537
H48	H	-1.075261	0.095957	0.391463
H49	H	-2.085696	-0.590286	0.000002
H50	H	-1.585696	-0.090286	0.500002
H51	H	-1.725985	0.150248	0.468540
H52	H	-1.225985	0.650248	0.968540
N53	N	-1.498518	-0.251719	0.000010
N54	N	-0.998518	0.248281	0.500010
H55	H	-1.498367	-0.327105	0.108574
H56	H	-0.998367	0.172895	0.608574
H57	H	-1.472776	-0.301402	-0.108623
H58	H	-0.972776	0.198598	0.391377
H59	H	-2.052304	-0.176553	0.531466
H60	H	-1.552304	0.323447	1.031466
