data_functionalizedCrystal
_audit_creation_method	'MofGen! by Chris Wilmer'
_symmetry_space_group_name_H-M	'P1'
_symmetry_Int_Tables_number	1
_symmetry_cell_setting	triclinic
loop_
_symmetry_equiv_pos_as_xyz
  x,y,z
_cell_length_a	11.792254
_cell_length_b	11.792241
_cell_length_c	16.776229
_cell_angle_alpha	89.993219
_cell_angle_beta	89.992926
_cell_angle_gamma	84.196007
loop_
_atom_site_label
_atom_site_type_symbol
_atom_site_fract_x
_atom_site_fract_y
_atom_site_fract_z
O1	O	1.506904	0.155639	-0.066288
O2	O	2.006904	0.655639	0.433712
O3	O	1.176565	0.171657	-0.066290
O4	O	1.676565	0.671657	0.433710
O5	O	1.349751	-0.001522	-0.066283
O6	O	1.849751	0.498478	0.433717
O7	O	1.333718	0.328818	-0.066294
O8	O	1.833718	0.828818	0.433706
O9	O	1.349728	-0.001533	0.066293
O10	O	1.849728	0.498467	0.566293
O11	O	1.176542	0.171646	0.066287
O12	O	1.676542	0.671646	0.566287
O13	O	1.506881	0.155628	0.066289
O14	O	2.006881	0.655628	0.566289
Zn15	Zn	1.341708	0.163635	0.087337
Zn16	Zn	1.841708	0.663635	0.587337
Zn17	Zn	1.341738	0.163650	-0.087338
Zn18	Zn	1.841738	0.663650	0.412662
O19	O	1.333695	0.328807	0.066282
O20	O	1.833695	0.828807	0.566282
C21	C	1.134263	0.170642	-0.000002
C22	C	1.634263	0.670642	0.499998
C23	C	1.008250	0.167622	-0.000002
C24	C	1.508250	0.667622	0.499998
C25	C	1.348732	-0.043819	0.000005
C26	C	1.848732	0.456181	0.500005
C27	C	1.345718	-0.169832	0.000004
C28	C	1.845718	0.330168	0.500004
C29	C	1.340175	-0.400545	-0.000009
C30	C	1.840175	0.099455	0.499991
C31	C	1.343255	-0.272160	-0.000002
C32	C	1.843255	0.227840	0.499998
C33	C	0.905913	0.165168	-0.000005
C34	C	1.405913	0.665168	0.499995
C35	C	0.777527	0.162100	-0.000006
C36	C	1.277527	0.662100	0.499994
C37	C	1.549183	0.156643	-0.000001
C38	C	2.049183	0.656643	0.499999
C39	C	1.675196	0.159663	-0.000006
C40	C	2.175196	0.659663	0.499994
C41	C	1.334714	0.371104	-0.000008
C42	C	1.834714	0.871104	0.499992
C43	C	1.337728	0.497118	-0.000012
C44	C	1.837728	0.997118	0.499988
N45	N	1.341695	0.163625	0.206548
N46	N	1.841695	0.663625	0.706548
N47	N	1.341760	0.163651	-0.206549
N48	N	1.841760	0.663651	0.293451
C49	C	1.418406	0.086973	0.248268
C50	C	1.918406	0.586973	0.748268
C51	C	1.418412	0.086972	0.331721
C52	C	1.918412	0.586972	0.831721
C53	C	1.341712	0.163629	0.373451
C54	C	1.841712	0.663629	0.873451
C55	C	1.264994	0.240285	0.331725
C56	C	1.764994	0.740285	0.831725
C57	C	1.264983	0.240280	0.248275
C58	C	1.764983	0.740280	0.748275
C59	C	1.265035	0.240308	0.668273
C60	C	1.765035	0.740308	1.168273
C61	C	1.265054	0.240309	0.751729
C62	C	1.765054	0.740309	1.251729
C63	C	1.418464	0.087000	0.751718
C64	C	1.918464	0.587000	1.251718
C65	C	1.418453	0.086995	0.668268
C66	C	1.918453	0.586995	1.168268
C67	C	1.341731	0.163646	0.626549
C68	C	1.841731	0.663646	1.126549
C69	C	1.341724	0.163644	0.536061
C70	C	1.841724	0.663644	1.036061
C71	C	1.341724	0.163637	0.463938
C72	C	1.841724	0.663637	0.963938
H73	H	1.480868	0.024555	0.214297
H74	H	1.980868	0.524555	0.714297
H75	H	1.202516	0.302696	0.214307
H76	H	1.702516	0.802696	0.714307
H77	H	1.480932	0.024583	0.785695
H78	H	1.980932	0.524583	1.285695
H79	H	1.202567	0.302721	0.634312
H80	H	1.702567	0.802721	1.134312
N81	N	1.501188	0.004337	0.376719
N82	N	2.001188	0.504337	0.876719
H83	H	1.549793	-0.044207	0.337620
H84	H	2.049793	0.455793	0.837620
H85	H	1.551610	0.048181	0.411315
H86	H	2.051610	0.548181	0.911315
N87	N	1.501183	0.004320	0.623258
N88	N	2.001183	0.504320	1.123258
H89	H	1.549780	-0.044242	0.662351
H90	H	2.049780	0.455758	1.162351
H91	H	1.457420	-0.046154	0.588647
H92	H	1.957420	0.453846	1.088647
N93	N	1.182311	0.322986	0.796737
N94	N	1.682311	0.822986	1.296737
H95	H	1.131812	0.279260	0.831375
H96	H	1.631812	0.779260	1.331375
H97	H	1.226068	0.373525	0.831301
H98	H	1.726068	0.873525	1.331301
N99	N	1.182258	0.322959	0.376730
N100	N	1.682258	0.822959	0.876730
H101	H	1.193905	0.311335	0.435927
H102	H	1.693905	0.811335	0.935927
H103	H	1.195854	0.403568	0.362131
H104	H	1.695854	0.903568	0.862131
