data_functionalizedCrystal
_audit_creation_method	'MofGen! by Chris Wilmer'
_symmetry_space_group_name_H-M	'P1'
_symmetry_Int_Tables_number	1
_symmetry_cell_setting	triclinic
loop_
_symmetry_equiv_pos_as_xyz
  x,y,z
_cell_length_a	16.176319
_cell_length_b	17.699083
_cell_length_c	17.699083
_cell_angle_alpha	96.716985
_cell_angle_beta	89.992304
_cell_angle_gamma	90.001389
loop_
_atom_site_label
_atom_site_type_symbol
_atom_site_fract_x
_atom_site_fract_y
_atom_site_fract_z
O1	O	-0.068632	-1.004079	0.095713
O2	O	0.264701	-0.670745	0.429046
O3	O	0.598034	-0.337412	0.762380
O4	O	-0.068660	-0.783700	0.108166
O5	O	0.264674	-0.450367	0.441499
O6	O	0.598007	-0.117034	0.774832
O7	O	-0.068638	-0.900116	-0.008250
O8	O	0.264695	-0.566782	0.325083
O9	O	0.598029	-0.233449	0.658417
O10	O	-0.068654	-0.887663	0.212129
O11	O	0.264679	-0.554330	0.545462
O12	O	0.598013	-0.220997	0.878795
O13	O	0.068855	-0.900100	-0.008257
O14	O	0.402189	-0.566766	0.325076
O15	O	0.735522	-0.233433	0.658409
O16	O	0.068834	-0.783684	0.108158
O17	O	0.402167	-0.450351	0.441492
O18	O	0.735500	-0.117018	0.774825
O19	O	0.068861	-1.004063	0.095706
O20	O	0.402194	-0.670729	0.429039
O21	O	0.735528	-0.337396	0.762372
Cu22	Cu	0.081401	-0.893872	0.101931
Cu23	Cu	0.414735	-0.560539	0.435265
Cu24	Cu	0.748068	-0.227205	0.768598
Cu25	Cu	-0.081200	-0.893891	0.101940
Cu26	Cu	0.252133	-0.560558	0.435273
Cu27	Cu	0.585467	-0.227224	0.768607
O28	O	0.068839	-0.887647	0.212121
O29	O	0.402173	-0.554314	0.545454
O30	O	0.735506	-0.220981	0.878788
C31	C	0.000084	-0.755495	0.107716
C32	C	0.333417	-0.422162	0.441049
C33	C	0.666750	-0.088829	0.774382
C34	C	0.000073	-0.671477	0.106377
C35	C	0.333407	-0.338144	0.439710
C36	C	0.666740	-0.004811	0.773044
N37	N	0.195767	-0.893864	0.101925
N38	N	0.529100	-0.560531	0.435258
N39	N	0.862433	-0.227198	0.768591
N40	N	-0.195565	-0.893905	0.101941
N41	N	0.137768	-0.560571	0.435274
N42	N	0.471101	-0.227238	0.768607
C43	C	0.000109	-0.899662	-0.036451
C44	C	0.333442	-0.566328	0.296883
C45	C	0.666775	-0.232995	0.630216
C46	C	0.000109	-0.898323	-0.120469
C47	C	0.333442	-0.564990	0.212865
C48	C	0.666776	-0.231656	0.546198
C49	C	0.239040	-0.945429	0.050397
C50	C	0.572374	-0.612095	0.383730
C51	C	0.905707	-0.278762	0.717064
C52	C	0.325588	-0.945432	0.050396
C53	C	0.658921	-0.612099	0.383729
C54	C	0.992254	-0.278766	0.717063
C55	C	0.368859	-0.893875	0.101927
C56	C	0.702193	-0.560542	0.435261
C57	C	1.035526	-0.227208	0.768594
C58	C	0.325579	-0.842305	0.153457
C59	C	0.658913	-0.508972	0.486791
C60	C	0.992246	-0.175639	0.820124
C61	C	0.239034	-0.842299	0.153454
C62	C	0.572367	-0.508965	0.486787
C63	C	0.905701	-0.175632	0.820121
C64	C	0.674608	-0.842331	0.153472
C65	C	1.007941	-0.508998	0.486805
C66	C	1.341274	-0.175665	0.820138
C67	C	0.761159	-0.842344	0.153473
C68	C	1.094493	-0.509010	0.486806
C69	C	1.427826	-0.175677	0.820139
C70	C	0.761161	-0.945465	0.050414
C71	C	1.094495	-0.612132	0.383747
C72	C	1.427828	-0.278799	0.717080
C73	C	0.674616	-0.945458	0.050410
C74	C	1.007949	-0.612125	0.383744
C75	C	1.341283	-0.278792	0.717077
C76	C	0.631344	-0.893886	0.101937
C77	C	0.964677	-0.560553	0.435271
C78	C	1.298010	-0.227220	0.768604
C79	C	0.537499	-0.893882	0.101937
C80	C	0.870833	-0.560548	0.435270
C81	C	1.204166	-0.227215	0.768603
C82	C	0.462702	-0.893883	0.101932
C83	C	0.796035	-0.560549	0.435265
C84	C	1.129369	-0.227216	0.768599
C85	C	0.000116	-1.032268	0.096156
C86	C	0.333449	-0.698934	0.429489
C87	C	0.666783	-0.365601	0.762822
C88	C	0.000121	-1.116286	0.097494
C89	C	0.333454	-0.782953	0.430828
C90	C	0.666787	-0.449619	0.764161
C91	C	0.000069	-0.622856	0.174710
C92	C	0.333402	-0.289523	0.508044
C93	C	0.666735	0.043810	0.841377
C94	C	0.000079	-0.543913	0.173448
C95	C	0.333413	-0.210580	0.506782
C96	C	0.666746	0.122754	0.840115
C97	C	0.000089	-0.513592	0.103852
C98	C	0.333422	-0.180259	0.437185
C99	C	0.666756	0.153074	0.770518
C100	C	0.000096	-0.562219	0.035513
C101	C	0.333430	-0.228886	0.368846
C102	C	0.666763	0.104447	0.702180
C103	C	0.000091	-0.641161	0.036776
C104	C	0.333425	-0.307828	0.370109
C105	C	0.666758	0.025505	0.703443
C106	C	0.000117	-0.243856	0.030418
C107	C	0.333450	0.089477	0.363751
C108	C	0.666784	0.422810	0.697085
C109	C	0.000120	-0.164908	0.029160
C110	C	0.333453	0.168425	0.362493
C111	C	0.666786	0.501758	0.695827
C112	C	0.000105	-0.146608	0.167090
C113	C	0.333438	0.186725	0.500423
C114	C	0.666772	0.520058	0.833757
C115	C	0.000100	-0.225550	0.168353
C116	C	0.333434	0.107783	0.501686
C117	C	0.666767	0.441117	0.835020
C118	C	0.000112	-0.274170	0.100015
C119	C	0.333445	0.059163	0.433348
C120	C	0.666778	0.392496	0.766681
C121	C	0.000102	-0.359769	0.101384
C122	C	0.333435	-0.026436	0.434718
C123	C	0.666768	0.306897	0.768051
C124	C	0.000093	-0.427995	0.102481
C125	C	0.333427	-0.094661	0.435815
C126	C	0.666760	0.238672	0.769148
C127	C	0.000119	-0.966656	-0.169090
C128	C	0.333452	-0.633323	0.164244
C129	C	0.666785	-0.299990	0.497577
C130	C	0.000111	-0.965394	-0.248033
C131	C	0.333444	-0.632061	0.085300
C132	C	0.666778	-0.298727	0.418634
C133	C	0.000100	-0.895798	-0.278354
C134	C	0.333433	-0.562464	0.054980
C135	C	0.666767	-0.229131	0.388313
C136	C	0.000088	-0.827459	-0.229727
C137	C	0.333421	-0.494126	0.103607
C138	C	0.666754	-0.160792	0.436940
C139	C	0.000089	-0.828722	-0.150785
C140	C	0.333423	-0.495389	0.182549
C141	C	0.666756	-0.162055	0.515882
C142	C	0.000080	-0.822364	-0.548090
C143	C	0.333414	-0.489030	-0.214756
C144	C	0.666747	-0.155697	0.118577
C145	C	0.000081	-0.821106	-0.627038
C146	C	0.333415	-0.487773	-0.293704
C147	C	0.666748	-0.154439	0.039629
C148	C	0.000102	-0.959036	-0.645338
C149	C	0.333436	-0.625703	-0.312004
C150	C	0.666769	-0.292369	0.021329
C151	C	0.000104	-0.960299	-0.566396
C152	C	0.333437	-0.626966	-0.233063
C153	C	0.666770	-0.293632	0.100271
C154	C	0.000087	-0.891961	-0.517776
C155	C	0.333421	-0.558627	-0.184442
C156	C	0.666754	-0.225294	0.148891
C157	C	0.000094	-0.893330	-0.432177
C158	C	0.333427	-0.559997	-0.098843
C159	C	0.666760	-0.226664	0.234490
C160	C	0.000099	-0.894427	-0.363951
C161	C	0.333433	-0.561094	-0.030618
C162	C	0.666766	-0.227761	0.302715
C163	C	0.000091	-0.888102	0.240322
C164	C	0.333424	-0.554768	0.573655
C165	C	0.666757	-0.221435	0.906989
C166	C	0.000085	-0.889440	0.324340
C167	C	0.333418	-0.556107	0.657673
C168	C	0.666752	-0.222773	0.991007
H169	H	0.203814	-0.987416	0.008438
H170	H	0.537148	-0.654082	0.341771
H171	H	0.870481	-0.320749	0.675104
H172	H	0.000074	-0.764429	-0.651721
H173	H	0.333407	-0.431096	-0.318388
H174	H	0.666741	-0.097762	0.014946
F175	F	0.000061	-0.749632	-0.496354
F176	F	0.333394	-0.416299	-0.163021
F177	F	0.666727	-0.082965	0.170312
F178	F	0.807221	-1.000351	-0.004429
F179	F	1.140554	-0.667018	0.328904
F180	F	1.473888	-0.333685	0.662237
H181	H	0.000128	-0.140225	-0.027517
H182	H	0.333462	0.193108	0.305816
H183	H	0.666795	0.526442	0.639150
F184	F	0.000099	-0.692907	-0.035954
F185	F	0.333433	-0.359574	0.297380
F186	F	0.666766	-0.026241	0.630713
F187	F	0.000129	-0.295592	-0.042314
F188	F	0.333463	0.037742	0.291019
F189	F	0.666796	0.371075	0.624353
H190	H	0.000116	-0.537526	-0.021154
H191	H	0.333449	-0.204193	0.312180
H192	H	0.666783	0.129141	0.645513
H193	H	0.360816	-0.800323	0.195413
H194	H	0.694150	-0.466989	0.528746
H195	H	1.027483	-0.133656	0.862079
H196	H	0.639387	-0.987444	0.008451
H197	H	0.972720	-0.654110	0.341785
H198	H	1.306053	-0.320777	0.675118
F199	F	0.807211	-0.787466	0.208321
F200	F	1.140544	-0.454132	0.541654
F201	F	1.473877	-0.120799	0.874988
F202	F	0.628561	-0.787447	0.208312
F203	F	0.961894	-0.454114	0.541645
F204	F	1.295227	-0.120781	0.874978
F205	F	0.192980	-0.787414	0.208295
F206	F	0.526313	-0.454081	0.541628
F207	F	0.859647	-0.120748	0.874962
F208	F	0.000138	-1.040732	-0.136828
F209	F	0.333472	-0.707398	0.196506
F210	F	0.666805	-0.374065	0.529839
F211	F	0.000123	-1.038124	-0.299776
F212	F	0.333456	-0.704791	0.033557
F213	F	0.666790	-0.371457	0.366891
F214	F	0.000115	-1.034373	-0.534131
F215	F	0.333448	-0.701039	-0.200798
F216	F	0.666781	-0.367706	0.132536
H217	H	0.000060	-0.647537	0.231384
H218	H	0.333394	-0.314204	0.564717
H219	H	0.666727	0.019130	0.898051
F220	F	0.000117	-1.031768	-0.697089
F221	F	0.333450	-0.698435	-0.363756
F222	F	0.666784	-0.365102	-0.030423
H223	H	0.000075	-0.504328	0.229092
H224	H	0.333408	-0.170995	0.562426
H225	H	0.666741	0.162338	0.895759
F226	F	0.000067	-0.753389	-0.261998
F227	F	0.333400	-0.420056	0.071335
F228	F	0.666733	-0.086722	0.404668
H229	H	0.000089	-0.250232	0.225025
H230	H	0.333422	0.083101	0.558359
H231	H	0.666755	0.416434	0.891692
H232	H	0.000081	-0.773078	-0.111198
H233	H	0.333415	-0.439745	0.222136
H234	H	0.666748	-0.106411	0.555469
H235	H	0.360821	-0.987419	0.008438
H236	H	0.694154	-0.654086	0.341771
H237	H	1.027487	-0.320753	0.675105
H238	H	0.000100	-0.107012	0.222734
H239	H	0.333433	0.226322	0.556067
H240	H	0.666767	0.559655	0.889401
