data_functionalizedCrystal
_audit_creation_method	'MofGen! by Chris Wilmer'
_symmetry_space_group_name_H-M	'P1'
_symmetry_Int_Tables_number	1
_symmetry_cell_setting	triclinic
loop_
_symmetry_equiv_pos_as_xyz
  x,y,z
_cell_length_a	15.944557
_cell_length_b	10.654551
_cell_length_c	9.130313
_cell_angle_alpha	89.998448
_cell_angle_beta	90.001614
_cell_angle_gamma	96.006635
loop_
_atom_site_label
_atom_site_type_symbol
_atom_site_fract_x
_atom_site_fract_y
_atom_site_fract_z
O1	O	-1.115454	0.161999	0.121727
O2	O	-0.871021	0.181959	0.121743
O3	O	-0.998857	-0.010832	0.121735
O4	O	-0.987618	0.354791	0.121734
O5	O	-0.998855	-0.010827	-0.121864
O6	O	-0.871019	0.181965	-0.121856
O7	O	-1.115453	0.162004	-0.121872
Cu8	Cu	-0.993236	0.171985	-0.144106
Cu9	Cu	-0.993238	0.171979	0.143977
O10	O	-0.987616	0.354796	-0.121864
C11	C	-0.839721	0.181132	-0.000055
C12	C	-0.746461	0.178643	-0.000048
C13	C	-0.475095	0.051701	-0.000071
C14	C	-0.526030	0.112900	-0.120181
C15	C	-0.410768	0.169769	-0.000083
C16	C	-0.526012	0.112926	0.119989
C17	C	-0.575706	0.174123	-0.000063
C18	C	-0.460474	0.230935	-0.120291
C19	C	-0.460453	0.230945	0.119986
C20	C	-0.511356	0.292230	-0.000153
C21	C	-0.315752	0.167257	-0.000095
C22	C	-0.670719	0.176644	-0.000062
C23	C	-0.998031	-0.057617	-0.000061
C24	C	-0.995561	-0.197028	-0.000051
C25	C	-0.994404	-0.262528	0.132732
C26	C	-0.992076	-0.393519	0.132726
C27	C	-0.992067	-0.393498	-0.132859
C28	C	-0.994389	-0.262509	-0.132851
C29	C	-0.995576	-0.197047	0.265533
C30	C	-0.994419	-0.262548	0.398327
C31	C	-0.992092	-0.393538	0.398320
C32	C	-0.990921	-0.459028	0.265519
C33	C	-0.146753	0.162815	-0.000078
C34	C	-0.240018	0.165252	-0.000096
C35	C	-0.988443	0.401581	-0.000065
C36	C	-0.990912	0.540992	-0.000065
N37	N	-0.993241	0.171988	-0.346729
C38	C	-1.049861	0.086649	-0.423384
C39	C	-1.049859	0.086634	-0.576721
C40	C	-0.936613	0.257309	-0.576734
C41	C	-0.936612	0.257317	-0.423400
C42	C	-1.106490	0.001321	-0.346714
C43	C	-1.163116	-0.084025	-0.423369
C44	C	-1.163113	-0.084040	-0.576706
C45	C	-1.106485	0.001291	-0.653387
N46	N	-0.993239	0.171965	0.346600
H47	H	-0.554641	0.063041	0.221527
O48	O	-0.995672	-0.191923	0.541559
H49	H	-1.053884	-0.143444	0.547922
H50	H	-0.991141	-0.446863	0.506447
H51	H	-0.989013	-0.565687	0.265525
O52	O	-0.532674	0.427019	-0.000245
H53	H	-0.473551	0.492038	-0.001249
H54	H	-0.890505	0.326807	-0.360987
H55	H	-0.431953	0.280763	-0.221945
H56	H	-0.431796	0.280762	0.221533
O57	O	-0.998283	-0.055805	0.265534
H58	H	-0.998971	-0.021286	0.380182
H59	H	-0.890509	0.326783	-0.639178
H60	H	-0.554671	0.063039	-0.221723
H61	H	-0.995314	-0.209174	-0.240975
O62	O	-0.990827	-0.464129	-0.276089
H63	H	-0.989031	-0.566221	-0.253786
O64	O	-1.106483	0.001329	-0.181330
H65	H	-1.155365	-0.072349	-0.140890
H66	H	-1.209216	-0.153505	-0.360927
H67	H	-1.209214	-0.153539	-0.639117
O68	O	-1.106484	0.001283	-0.818774
H69	H	-1.092513	-0.092550	-0.859197
O70	O	-0.453565	-0.082984	-0.000217
H71	H	-0.479946	-0.131709	-0.100073
