data_functionalizedCrystal
_audit_creation_method	'MofGen! by Chris Wilmer'
_symmetry_space_group_name_H-M	'P1'
_symmetry_Int_Tables_number	1
_symmetry_cell_setting	triclinic
loop_
_symmetry_equiv_pos_as_xyz
  x,y,z
_cell_length_a	15.538191
_cell_length_b	19.188940
_cell_length_c	14.750779
_cell_angle_alpha	77.400219
_cell_angle_beta	97.572172
_cell_angle_gamma	65.210404
loop_
_atom_site_label
_atom_site_type_symbol
_atom_site_fract_x
_atom_site_fract_y
_atom_site_fract_z
O1	O	1.230303	-0.206645	-0.079834
O2	O	0.955715	-0.125944	-0.079835
O3	O	1.100930	-0.269941	-0.079827
O4	O	1.085088	-0.062649	-0.079842
O5	O	1.141981	-0.310644	0.079825
O6	O	0.996766	-0.166647	0.079818
O7	O	1.271354	-0.247348	0.079818
Zn8	Zn	1.140577	-0.213460	0.105166
Zn9	Zn	1.086492	-0.159832	-0.105183
O10	O	1.126139	-0.103351	0.079811
C11	C	0.941111	-0.137852	-0.000008
C12	C	0.836435	-0.112702	-0.000008
C13	C	1.120941	-0.316174	-0.000001
C14	C	1.119397	-0.393290	-0.000001
C15	C	0.549663	-0.362563	-0.000006
C16	C	0.451300	-0.338913	-0.000008
C17	C	0.428313	-0.205884	-0.000017
C18	C	0.526677	-0.229525	-0.000010
C19	C	0.587344	-0.307865	-0.000005
C20	C	0.564358	-0.174827	-0.000010
C21	C	0.662712	-0.198465	-0.000008
C22	C	0.723385	-0.276801	-0.000006
C23	C	0.685698	-0.331503	-0.000003
C24	C	0.503687	-0.096485	-0.000021
C25	C	0.541369	-0.041787	-0.000021
C26	C	0.639726	-0.065426	-0.000012
C27	C	0.700399	-0.143762	-0.000011
C28	C	0.677413	-0.010724	-0.000015
C29	C	0.775767	-0.034362	-0.000013
C30	C	0.798753	-0.167400	-0.000009
C31	C	1.130781	-0.965971	0.087002
C32	C	1.132223	-0.893510	0.087008
C33	C	1.110572	-0.835086	-0.000018
C34	C	1.087452	-0.849118	-0.087055
C35	C	1.086001	-0.921576	-0.087058
N36	N	1.149852	-0.723597	-0.064792
N37	N	1.151234	-0.654768	-0.064784
C38	C	1.114940	-0.616774	-0.000014
N39	N	1.077227	-0.650218	0.064761
N40	N	1.075850	-0.719055	0.064755
C41	C	1.112142	-0.756515	-0.000024
C42	C	1.139615	-0.524176	0.087023
C43	C	1.141050	-0.451710	0.087025
C44	C	1.096288	-0.407323	-0.087040
C45	C	1.094844	-0.479784	-0.087040
C46	C	1.116513	-0.538209	-0.000005
C47	C	1.285958	-0.235439	-0.000010
C48	C	1.390632	-0.260588	-0.000016
C49	C	1.106127	-0.057118	-0.000017
C50	C	1.107670	0.020000	-0.000023
N51	N	1.177496	-0.250062	0.248724
N52	N	1.049580	-0.123238	-0.248740
C53	C	0.946471	-0.021046	0.600530
C54	C	0.972348	-0.046691	0.701031
C55	C	1.100962	-0.174172	0.701000
C56	C	1.075092	-0.148539	0.600497
C57	C	0.997847	-0.071975	0.550270
C58	C	1.126468	-0.199467	0.550238
C59	C	1.100604	-0.173835	0.449744
C60	C	1.023363	-0.097273	0.399510
C61	C	0.971982	-0.046342	0.449777
C62	C	1.203718	-0.276029	0.600467
C63	C	1.255095	-0.326958	0.550207
C64	C	1.229226	-0.301327	0.449711
C65	C	1.151985	-0.224766	0.399477
C66	C	1.280607	-0.352258	0.399445
C67	C	1.254742	-0.326626	0.298951
C68	C	1.126120	-0.199133	0.298984
H69	H	0.848154	-0.231194	0.000001
Cl70	Cl	0.907751	0.017347	0.764207
H71	H	1.069820	-0.801543	-0.157912
H72	H	0.491959	0.021999	-0.000029
H73	H	1.343507	-0.414595	0.440353
H74	H	1.078648	-0.359750	-0.157898
H75	H	1.224777	-0.296895	0.682295
Cl76	Cl	0.823142	0.034403	-0.000015
H77	H	1.076031	-0.491206	-0.157905
H78	H	1.159868	-0.440292	0.157895
Cl79	Cl	1.352203	-0.423206	0.613356
Cl80	Cl	1.028999	-0.102883	0.235837
H81	H	0.378903	-0.142098	-0.000025
Cl82	Cl	0.403937	-0.407690	0.000007
Cl83	Cl	0.874860	0.049908	0.386630
H84	H	0.803467	-0.296042	-0.000017
Cl85	Cl	1.161290	-0.875870	0.196420
H86	H	1.067179	-0.932994	-0.157927
H87	H	0.628001	0.053063	-0.000029
Cl88	Cl	0.849349	0.075204	0.537384
Cl89	Cl	0.380040	-0.066769	-0.000024
Cl90	Cl	1.319334	-0.390652	0.235766
H91	H	1.157251	-0.571745	0.157892
H92	H	1.002308	-0.076402	0.317682
Cl93	Cl	1.158012	-1.039412	0.196417
H94	H	0.735099	-0.395297	0.000006
H95	H	1.163859	-0.236510	0.741906
H96	H	0.599064	-0.426357	0.000004
