data_functionalizedCrystal
_audit_creation_method	'MofGen! by Chris Wilmer'
_symmetry_space_group_name_H-M	'P1'
_symmetry_Int_Tables_number	1
_symmetry_cell_setting	triclinic
loop_
_symmetry_equiv_pos_as_xyz
  x,y,z
_cell_length_a	10.908937
_cell_length_b	11.026607
_cell_length_c	10.065875
_cell_angle_alpha	79.268236
_cell_angle_beta	83.441416
_cell_angle_gamma	95.664014
loop_
_atom_site_label
_atom_site_type_symbol
_atom_site_fract_x
_atom_site_fract_y
_atom_site_fract_z
O1	O	1.676465	0.199731	-0.113536
O2	O	1.323532	0.109193	-0.113528
O3	O	1.470747	0.325212	-0.113527
O4	O	1.529250	-0.016287	-0.113538
O5	O	1.442706	0.283884	0.113462
O6	O	1.295491	0.067865	0.113460
O7	O	1.648424	0.158403	0.113453
Zn8	Zn	1.467506	0.106573	0.149496
Zn9	Zn	1.504450	0.161024	-0.149571
O10	O	1.501209	-0.057615	0.113451
C11	C	1.263626	0.080068	-0.000033
C12	C	1.126899	0.054871	-0.000030
C13	C	1.445934	0.347581	-0.000034
C14	C	1.413762	0.475803	-0.000038
C15	C	0.915324	0.120785	-0.000053
C16	C	1.056636	0.146827	-0.000035
C17	C	1.708330	0.187529	-0.000046
C18	C	1.845059	0.212728	-0.000057
N19	N	1.442301	0.069414	0.353601
C20	C	1.526022	-0.079984	-0.000045
C21	C	1.558195	-0.208204	-0.000050
C22	C	1.502597	0.567536	-0.000042
C23	C	1.469347	0.700062	-0.000046
N24	N	1.529663	0.198194	-0.353677
C25	C	1.495671	0.148101	0.421380
C26	C	1.476284	0.119495	0.578547
H27	H	0.870864	0.022791	-0.000070
H28	H	1.101092	0.244830	-0.000034
Br29	Br	1.726002	0.759196	-0.000065
Br30	Br	1.052819	-0.108474	-0.000058
Br31	Br	1.301546	0.732671	-0.000062
H32	H	1.313093	0.495381	-0.000045
Br33	Br	1.630101	0.345574	0.549132
H34	H	1.555711	0.236650	0.363057
H35	H	1.603266	0.547959	-0.000035
Br36	Br	0.919151	0.376070	-0.000058
H37	H	1.416230	0.030948	0.636867
H38	H	1.382250	-0.019128	0.411926
