data_functionalizedCrystal
_audit_creation_method	'MofGen! by Chris Wilmer'
_symmetry_space_group_name_H-M	'P1'
_symmetry_Int_Tables_number	1
_symmetry_cell_setting	triclinic
loop_
_symmetry_equiv_pos_as_xyz
  x,y,z
_cell_length_a	11.026623
_cell_length_b	13.930277
_cell_length_c	10.967953
_cell_angle_alpha	77.874293
_cell_angle_beta	83.619692
_cell_angle_gamma	89.993393
loop_
_atom_site_label
_atom_site_type_symbol
_atom_site_fract_x
_atom_site_fract_y
_atom_site_fract_z
O1	O	-1.614506	-0.006773	0.523503
O2	O	-1.260706	0.003089	0.463891
O3	O	-1.445773	0.027901	0.313887
O4	O	-1.429438	-0.031585	0.673507
O5	O	-1.445747	-0.131759	0.313877
O6	O	-1.260680	-0.156571	0.463881
O7	O	-1.614480	-0.166434	0.523493
Zn8	Zn	-1.437576	-0.186852	0.493685
Zn9	Zn	-1.437610	0.023507	0.493698
O10	O	-1.429412	-0.191245	0.673497
C11	C	-1.215391	-0.074921	0.452888
C12	C	-1.080405	-0.069497	0.420105
N13	N	-1.437561	-0.330416	0.493678
C14	C	-1.007350	-0.084470	0.510622
C15	C	-0.867835	-0.078864	0.476742
C16	C	-1.355658	-0.793670	0.560086
C17	C	-1.519595	-0.771677	0.427308
C18	C	-1.519580	-0.671180	0.427301
C19	C	-1.437605	-0.631924	0.493689
C20	C	-1.355644	-0.693165	0.560084
C21	C	-1.601548	-0.609934	0.360918
C22	C	-1.601537	-0.509431	0.360909
C23	C	-1.519555	-0.470172	0.427290
C24	C	-1.437590	-0.531419	0.493687
C25	C	-1.355615	-0.492162	0.560075
C26	C	-1.273643	-0.553407	0.626465
C27	C	-1.273661	-0.653906	0.626465
C28	C	-1.519536	-0.369673	0.427290
C29	C	-1.355600	-0.391657	0.560073
C30	C	-0.659795	-0.088421	0.534494
C31	C	-0.794781	-0.093839	0.567272
C32	C	-1.444574	-0.044193	0.267127
C33	C	-1.441026	-0.021142	0.127809
N34	N	-1.437634	0.167074	0.493698
C35	C	-1.435757	-0.069762	-0.078303
C36	C	-1.439428	-0.093584	0.065690
C37	C	-1.430611	-0.119149	0.720257
C38	C	-1.434160	-0.142194	0.859575
H39	H	-1.048091	-0.101443	0.613201
H40	H	-1.039664	-0.052505	0.317527
C41	C	-1.184592	-0.510975	0.698672
C42	C	-1.112825	-0.586115	0.756839
C43	C	-1.030794	-0.547062	0.823380
H44	H	-1.133503	-0.462466	0.642422
H45	H	-1.228725	-0.482034	0.760625
H46	H	-1.068695	-0.615041	0.694895
H47	H	-1.163881	-0.634629	0.813109
H48	H	-1.074927	-0.518121	0.885332
H49	H	-0.979714	-0.498554	0.767121
H50	H	-0.982098	-0.598040	0.862864
H51	H	-1.586282	-0.319814	0.373243
C52	C	-1.440976	-0.199771	0.136943
C53	C	-1.338462	-0.215659	0.202663
C54	C	-1.339837	-0.313466	0.268304
H55	H	-1.512971	-0.212953	0.194490
H56	H	-1.439432	-0.242161	0.079333
H57	H	-1.340017	-0.173282	0.260268
H58	H	-1.266451	-0.202498	0.145145
H59	H	-1.338292	-0.355856	0.210694
H60	H	-1.411836	-0.326639	0.325844
H61	H	-1.270277	-0.324261	0.312893
C62	C	-1.436004	-0.248462	-0.069436
C63	C	-1.433843	-0.310669	-0.154651
C64	C	-1.435553	-0.408572	-0.089304
H65	H	-1.366549	-0.259554	-0.024742
H66	H	-1.508105	-0.261590	-0.012006
H67	H	-1.361750	-0.297547	-0.212059
H68	H	-1.503293	-0.299608	-0.199348
H69	H	-1.507654	-0.421699	-0.031875
H70	H	-1.366096	-0.419653	-0.044613
H71	H	-1.434098	-0.450791	-0.147112
H72	H	-1.668296	-0.641901	0.306874
C73	C	-1.690378	-0.443049	0.288453
C74	C	-1.669484	-0.446588	0.161220
C75	C	-1.751284	-0.385482	0.094368
H76	H	-1.771681	-0.464731	0.320104
H77	H	-1.678719	-0.377505	0.297746
H78	H	-1.681153	-0.512119	0.151934
H79	H	-1.588197	-0.424898	0.129533
H80	H	-1.739625	-0.319938	0.103661
H81	H	-1.832582	-0.407169	0.126029
H82	H	-1.737112	-0.387868	0.008032
C83	C	-0.813296	-0.056199	0.340028
C84	C	-0.685761	-0.055112	0.333602
C85	C	-0.635478	-0.034223	0.207686
H86	H	-0.839448	-0.105148	0.299446
H87	H	-0.839532	0.006196	0.299557
H88	H	-0.659535	-0.117499	0.374055
H89	H	-0.659574	-0.006163	0.374157
H90	H	-0.661714	0.028173	0.167215
H91	H	-0.661639	-0.083174	0.167115
H92	H	-0.548941	-0.033473	0.203309
H93	H	-0.835515	-0.110814	0.669858
H94	H	-1.288841	-0.359701	0.614128
H95	H	-1.439680	0.058511	0.074400
C96	C	-1.184815	-0.720570	0.698527
C97	C	-1.202404	-0.816990	0.684351
C98	C	-1.120597	-0.878434	0.750733
H99	H	-1.103507	-0.698982	0.666750
H100	H	-1.198717	-0.718445	0.784962
H101	H	-1.188492	-0.819111	0.597933
H102	H	-1.283695	-0.838607	0.716134
H103	H	-1.134499	-0.876309	0.837168
H104	H	-1.039295	-0.856837	0.718950
H105	H	-1.132527	-0.943862	0.741133
C106	C	-1.608391	-0.814322	0.355047
C107	C	-1.542997	-0.856944	0.263924
C108	C	-1.624754	-0.896232	0.197317
H109	H	-1.659404	-0.862895	0.411278
H110	H	-1.657185	-0.763476	0.315422
H111	H	-1.494224	-0.907785	0.303547
H112	H	-1.491988	-0.808390	0.207666
H113	H	-1.673548	-0.845386	0.157692
H114	H	-1.675763	-0.944801	0.253557
H115	H	-1.580396	-0.925148	0.135475
C116	C	-1.434168	0.036464	-0.149408
C117	C	-1.539395	0.082212	-0.108264
C118	C	-1.537964	0.180068	-0.173738
H119	H	-1.364015	0.069854	-0.134414
H120	H	-1.431993	0.038418	-0.236734
H121	H	-1.541559	0.080263	-0.020959
H122	H	-1.609566	0.048851	-0.123261
H123	H	-1.535789	0.182023	-0.261064
H124	H	-1.467806	0.213449	-0.158739
H125	H	-1.609363	0.211118	-0.145840
H126	H	-1.288914	-0.843537	0.614136
