data_functionalizedCrystal
_audit_creation_method	'MofGen! by Chris Wilmer'
_symmetry_space_group_name_H-M	'P1'
_symmetry_Int_Tables_number	1
_symmetry_cell_setting	triclinic
loop_
_symmetry_equiv_pos_as_xyz
  x,y,z
_cell_length_a	29.839131
_cell_length_b	19.121424
_cell_length_c	19.120904
_cell_angle_alpha	94.747313
_cell_angle_beta	92.409150
_cell_angle_gamma	92.485340
loop_
_atom_site_label
_atom_site_type_symbol
_atom_site_fract_x
_atom_site_fract_y
_atom_site_fract_z
Zn1	Zn	-0.159559	1.058602	-0.352097
Zn2	Zn	-0.231342	1.063508	-0.234435
Zn3	Zn	-0.159574	0.945964	-0.239452
Zn4	Zn	-0.238013	0.940873	-0.357057
O5	O	-0.197122	1.002237	-0.295760
O6	O	-0.166283	1.157715	-0.332314
O7	O	-0.219036	1.052099	-0.136641
O8	O	-0.096703	0.960983	-0.254418
O9	O	-0.219021	1.161319	-0.245868
O10	O	-0.096692	1.043738	-0.337178
O11	O	-0.166308	0.965740	-0.140326
O12	O	-0.172777	0.846826	-0.259227
O13	O	-0.230392	0.952306	-0.454859
O14	O	-0.230406	0.843086	-0.345631
O15	O	-0.172752	1.038801	-0.451215
O16	O	-0.295095	1.047162	-0.250678
O17	O	-0.299997	0.957063	-0.340767
C18	C	-0.202318	0.819425	-0.303512
C19	C	-0.204552	0.741217	-0.306845
C20	C	-0.218681	0.298789	-0.328004
C21	C	-0.216585	0.372274	-0.324860
C22	C	-0.185489	0.410938	-0.278376
C23	C	-0.156490	0.376113	-0.235029
C24	C	-0.158588	0.302629	-0.238171
C25	C	-0.177651	0.632908	-0.266640
C26	C	-0.175554	0.706397	-0.263503
C27	C	-0.235650	0.702553	-0.353333
C28	C	-0.237744	0.629068	-0.356473
C29	C	-0.208747	0.594250	-0.313124
C30	C	-0.183345	0.486052	-0.275162
C31	C	-0.210894	0.519137	-0.316335
C32	C	-0.313847	1.002111	-0.295731
C33	C	-0.363782	1.002121	-0.295739
C34	C	-0.670857	1.049230	-0.248913
C35	C	-0.858528	1.049316	-0.248936
O36	O	-0.880612	1.089271	-0.209101
N37	N	-0.884561	1.002380	-0.295807
C38	C	-0.863674	0.955423	-0.342678
O39	O	-0.890123	0.915508	-0.382550
C40	C	-0.676003	0.955341	-0.342657
C41	C	-0.649973	1.002275	-0.295779
C42	C	-0.644826	1.096161	-0.202039
C43	C	-0.597911	1.096136	-0.202031
C44	C	-0.577027	1.049181	-0.248897
C45	C	-0.603058	1.002251	-0.295771
C46	C	-0.655116	0.908388	-0.389531
C47	C	-0.608196	0.908373	-0.389523
C48	C	-0.582165	0.955307	-0.342645
C49	C	-0.535258	0.955271	-0.342629
N50	N	-0.509225	1.002207	-0.295758
C51	C	-0.530110	1.049162	-0.248892
C52	C	-0.962203	0.955468	-0.342685
C53	C	-1.009121	0.955488	-0.342689
C54	C	-1.003972	1.049382	-0.248948
C55	C	-0.957054	1.049358	-0.248941
C56	C	-0.936170	1.002404	-0.295814
C57	C	-0.431585	1.049106	-0.248879
C58	C	-0.384666	1.049076	-0.248873
C59	C	-0.389819	0.955184	-0.342616
C60	C	-0.436734	0.955212	-0.342620
C61	C	-0.457615	1.002179	-0.295748
O62	O	-0.513144	0.915343	-0.382449
O63	O	-0.503653	1.089081	-0.209037
C64	C	-0.717772	1.049255	-0.248921
C65	C	-0.743803	1.002324	-0.295795
C66	C	-0.722918	0.955369	-0.342661
C67	C	-0.790720	1.002343	-0.295799
C68	C	-0.811604	1.049299	-0.248933
C69	C	-0.785571	1.096234	-0.202063
C70	C	-0.738656	1.096210	-0.202055
C71	C	-0.748951	0.908433	-0.389532
C72	C	-0.795866	0.908461	-0.389535
C73	C	-0.816750	0.955416	-0.342669
C74	C	-0.079941	1.002381	-0.295804
C75	C	-0.030005	1.002443	-0.295823
C76	C	-0.202314	0.994439	-0.479280
C77	C	-0.204527	0.991116	-0.557486
C78	C	-0.191906	1.185761	-0.287978
C79	C	-0.189683	1.263969	-0.284662
C80	C	-0.175557	1.034586	-0.592331
C81	C	-0.177635	1.031455	-0.665814
C82	C	-0.208684	0.984857	-0.704450
C83	C	-0.237655	0.941382	-0.669599
C84	C	-0.235575	0.944510	-0.596118
C85	C	-0.216464	0.973157	-0.926410
C86	C	-0.218543	0.970034	-0.999896
C87	C	-0.158522	1.060106	-0.996105
C88	C	-0.156447	1.063232	-0.922623
C89	C	-0.185415	1.019755	-0.887779
C90	C	-0.210809	0.981657	-0.779561
C91	C	-0.183288	1.022952	-0.812670
C92	C	-0.191916	1.010045	-0.112952
C93	C	-0.189573	1.013504	-0.034741
H94	H	-0.158025	0.517540	-0.237316
F95	F	-0.266407	0.898242	-0.559034
H96	H	-0.134937	1.095502	-1.024483
F97	F	-0.146816	1.077746	-0.702894
H98	H	-0.244001	0.267314	-0.365860
F99	F	-0.150240	1.072537	-0.771549
F100	F	-0.570213	1.146098	-0.152144
F101	F	-0.243855	0.932068	-0.820686
F102	F	-0.247295	0.926884	-0.889336
F103	F	-0.247450	0.409329	-0.370989
H104	H	-0.263067	0.597593	-0.394324
H105	H	-0.457929	0.916997	-0.380794
H106	H	-0.661825	1.134401	-0.163874
H107	H	-0.372807	0.916952	-0.380772
F108	F	-0.585973	0.858397	-0.439415
H109	H	-0.131172	0.407599	-0.197178
H110	H	-0.802584	1.134465	-0.163901
F111	F	-0.266512	0.739615	-0.399460
F112	F	-0.127726	0.265572	-0.192037
H113	H	-0.717465	1.134428	-0.163882
F114	F	-0.142457	0.747545	-0.214024
F115	F	-0.146786	0.595861	-0.220509
F116	F	-0.823565	0.858502	-0.439432
H117	H	-0.448581	1.087353	-0.210713
H118	H	-0.262934	0.903439	-0.701063
H119	H	-0.236214	0.487654	-0.354179
H120	H	-0.363473	1.087295	-0.210696
H121	H	-0.935862	1.087576	-0.210769
H122	H	-1.020984	1.087615	-0.210788
H123	H	-0.131164	1.101179	-0.891170
H124	H	-0.676303	0.870166	-0.427702
F125	F	-1.036820	0.905526	-0.392576
F126	F	-0.726731	0.858455	-0.439416
H127	H	-0.945203	0.917230	-0.380856
F128	F	-0.142512	1.084185	-0.551218
H129	H	-0.243828	0.932086	-1.031352
