data_functionalizedCrystal
_audit_creation_method	'MofGen! by Chris Wilmer'
_symmetry_space_group_name_H-M	'P1'
_symmetry_Int_Tables_number	1
_symmetry_cell_setting	triclinic
loop_
_symmetry_equiv_pos_as_xyz
  x,y,z
_cell_length_a	21.295420
_cell_length_b	21.295417
_cell_length_c	14.908308
_cell_angle_alpha	86.739365
_cell_angle_beta	86.722044
_cell_angle_gamma	90.028757
loop_
_atom_site_label
_atom_site_type_symbol
_atom_site_fract_x
_atom_site_fract_y
_atom_site_fract_z
Zn1	Zn	0.941774	-0.271165	0.510059
Zn2	Zn	0.947764	-0.370367	0.359190
Zn3	Zn	0.842584	-0.265113	0.359218
Zn4	Zn	0.836469	-0.376395	0.509997
O5	O	0.892148	-0.320760	0.434616
O6	O	1.030657	-0.284334	0.490060
O7	O	0.938878	-0.351349	0.232953
O8	O	0.855794	-0.177828	0.379265
O9	O	1.035058	-0.357217	0.379217
O10	O	0.928668	-0.182274	0.490087
O11	O	0.861602	-0.274020	0.232973
O12	O	0.753684	-0.279865	0.379205
O13	O	0.845372	-0.367491	0.636246
O14	O	0.749191	-0.361623	0.489981
O15	O	0.922739	-0.290179	0.636291
O16	O	0.932948	-0.459254	0.379157
O17	O	0.851181	-0.463683	0.489954
C18	C	0.728597	-0.320742	0.434590
C19	C	0.658629	-0.320750	0.434600
C20	C	0.156850	-0.363403	0.492241
C21	C	0.222593	-0.363403	0.492232
C22	C	0.257787	-0.320775	0.434644
C23	C	0.227235	-0.278155	0.377045
C24	C	0.161493	-0.278161	0.377050
N25	N	0.361302	-0.265386	0.427862
N26	N	0.423753	-0.265382	0.427863
C27	C	0.455863	-0.320757	0.434625
N28	N	0.423161	-0.376136	0.441404
N29	N	0.360704	-0.376139	0.441408
C30	C	0.329073	-0.320765	0.434632
C31	C	0.557694	-0.363377	0.492205
C32	C	0.623438	-0.363377	0.492189
C33	C	0.628079	-0.278124	0.377008
C34	C	0.562336	-0.278129	0.377019
C35	C	0.527147	-0.320755	0.434622
C36	C	0.892067	-0.484309	0.434566
C37	C	0.892089	-0.554278	0.434575
C38	C	0.934699	-0.584820	0.376942
C39	C	0.934728	-0.650563	0.376962
C40	C	0.892136	-0.685762	0.434606
C41	C	0.849522	-0.655212	0.492250
C42	C	0.849499	-0.589470	0.492234
N43	N	0.836792	-0.789302	0.441474
N44	N	0.836816	-0.851754	0.441484
C45	C	0.892204	-0.883838	0.434657
N46	N	0.947570	-0.851111	0.427803
N47	N	0.947545	-0.788653	0.427789
C48	C	0.892156	-0.757048	0.434629
C49	C	0.934849	-0.985667	0.377043
C50	C	0.934878	-1.051412	0.377070
C51	C	0.849667	-1.056059	0.492353
C52	C	0.849643	-0.990316	0.492331
C53	C	0.892233	-0.955123	0.434672
C54	C	1.056337	-0.320778	0.434642
C55	C	1.126305	-0.320786	0.434654
C56	C	0.882705	-0.330183	0.669916
C57	C	0.878682	-0.334198	0.770187
C58	C	0.892245	-0.156572	0.434686
C59	C	0.892286	-0.086605	0.434715
C60	C	0.901590	-0.311328	0.200231
C61	C	0.905735	-0.307135	0.099960
C62	C	0.951681	-0.261224	0.958656
C63	C	0.947902	-0.264995	1.052870
C64	C	0.867343	-0.345507	1.052830
C65	C	0.871121	-0.341736	0.958616
C66	C	0.913293	-0.299594	0.911533
C67	C	0.917074	-0.295827	0.817317
C68	C	0.836512	-0.376335	0.817279
C69	C	0.832733	-0.380106	0.911493
H70	H	0.136624	-0.243455	0.330155
C71	C	0.948660	-1.120599	0.255844
C72	C	0.981750	-1.085026	0.313806
H73	H	0.977607	-1.141365	0.216818
H74	H	0.922668	-1.093626	0.221212
H75	H	0.923272	-1.150939	0.290197
H76	H	1.007135	-1.054682	0.279453
H77	H	1.007752	-1.112001	0.348442
C78	C	0.130495	-0.400356	0.644922
C79	C	0.118175	-0.410267	0.555547
H80	H	0.106622	-0.429293	0.684000
H81	H	0.119197	-0.358616	0.658234
H82	H	0.174023	-0.406447	0.653147
H83	H	0.074648	-0.404171	0.547321
H84	H	0.129469	-0.452016	0.542231
H85	H	0.247467	-0.398107	0.539129
C86	C	0.478905	-0.377109	0.613540
C87	C	0.519006	-0.410231	0.555514
H88	H	0.455025	-0.406035	0.652627
H89	H	0.451308	-0.351729	0.579244
H90	H	0.503190	-0.351106	0.648113
H91	H	0.494721	-0.436230	0.520936
H92	H	0.546607	-0.435621	0.589813
C93	C	0.612243	-0.447635	0.606056
C94	C	0.657016	-0.410225	0.555496
H95	H	0.632974	-0.476554	0.645142
H96	H	0.588166	-0.470099	0.566696
H97	H	0.585230	-0.421621	0.640631
H98	H	0.684026	-0.436239	0.520915
H99	H	0.681103	-0.387759	0.594861
H100	H	0.255895	-0.243448	0.330156
C101	C	0.730913	-0.240261	0.325859
C102	C	0.666758	-0.231267	0.313704
H103	H	0.754792	-0.211330	0.286778
H104	H	0.742197	-0.282003	0.312544
H105	H	0.739259	-0.233538	0.386497
H106	H	0.658411	-0.237994	0.253067
H107	H	0.655470	-0.189514	0.327013
H108	H	0.537466	-0.243424	0.330128
H109	H	0.814991	-1.084717	0.539292
C110	C	1.018932	-0.586835	0.262998
C111	C	0.981522	-0.546138	0.313576
H112	H	1.047841	-0.562952	0.223885
H113	H	0.992920	-0.611124	0.228458
H114	H	1.041413	-0.614023	0.302352
H115	H	0.959037	-0.518953	0.274222
H116	H	1.007537	-0.521839	0.348118
C117	C	0.759568	-0.377314	1.081807
C118	C	0.820985	-0.391822	1.104589
H119	H	0.730948	-0.405906	1.113764
H120	H	0.756332	-0.380565	1.018960
H121	H	0.749769	-0.335634	1.097262
H122	H	0.830785	-0.433501	1.089128
H123	H	0.824223	-0.388577	1.167450
H124	H	0.951413	-0.261514	0.778983
C125	C	1.019919	-0.723951	0.364513
C126	C	0.981551	-0.684152	0.313591
H127	H	1.048823	-0.744685	0.325385
H128	H	0.994557	-0.754310	0.398854
H129	H	1.042407	-0.699846	0.403825
H130	H	0.959059	-0.708258	0.274284
H131	H	1.006916	-0.653790	0.279235
C132	C	0.812655	-0.681552	0.644968
C133	C	0.802705	-0.693901	0.555614
H134	H	0.783755	-0.705440	0.684089
H135	H	0.806541	-0.638033	0.653203
H136	H	0.854417	-0.692820	0.658214
H137	H	0.760945	-0.682629	0.542366
H138	H	0.808815	-0.737430	0.547375
H139	H	0.986022	-0.226914	0.920320
H140	H	0.814800	-0.564603	0.539167
C141	C	1.019079	-0.987674	0.263095
C142	C	0.981666	-0.946979	0.313672
H143	H	1.047983	-0.963790	0.223976
H144	H	0.993068	-1.011969	0.228562
H145	H	1.041566	-1.014856	0.302450
H146	H	0.959175	-0.919799	0.274317
H147	H	1.007680	-0.922673	0.348207
H148	H	0.798397	-0.414415	0.949841
C149	C	0.765414	-1.001514	0.606270
C150	C	0.802796	-0.956739	0.555672
H151	H	0.736490	-0.980784	0.645372
H152	H	0.791443	-1.028501	0.640823
H153	H	0.742950	-1.025617	0.566929
H154	H	0.825264	-0.932639	0.595014
H155	H	0.776764	-0.929741	0.521117
C156	C	1.027914	-0.185038	1.043442
C157	C	0.990103	-0.222821	1.104669
H158	H	1.053970	-0.159004	1.075423
H159	H	1.001974	-0.159489	1.006705
H160	H	1.053450	-0.211002	1.006685
H161	H	0.964564	-0.196857	1.141422
H162	H	1.016046	-0.248373	1.141422
C163	C	0.806532	-0.406308	0.672840
C164	C	0.794311	-0.418514	0.765479
H165	H	0.780477	-0.432346	0.640863
H166	H	0.849436	-0.414906	0.657410
H167	H	0.797959	-0.363394	0.657421
H168	H	0.802888	-0.461427	0.780899
H169	H	0.751396	-0.409921	0.780915
