data_functionalizedCrystal
_audit_creation_method	'MofGen! by Chris Wilmer'
_symmetry_space_group_name_H-M	'P1'
_symmetry_Int_Tables_number	1
_symmetry_cell_setting	triclinic
loop_
_symmetry_equiv_pos_as_xyz
  x,y,z
_cell_length_a	8.559649
_cell_length_b	11.295483
_cell_length_c	12.837943
_cell_angle_alpha	85.466833
_cell_angle_beta	82.303802
_cell_angle_gamma	93.526526
loop_
_atom_site_label
_atom_site_type_symbol
_atom_site_fract_x
_atom_site_fract_y
_atom_site_fract_z
O1	O	2.124420	0.099007	-0.042488
O2	O	1.667270	0.099011	0.010406
O3	O	1.885708	0.099010	-0.166137
O4	O	1.905981	0.099008	0.134055
O5	O	1.866519	-0.099041	-0.150652
O6	O	1.648081	-0.099040	0.025891
O7	O	2.105230	-0.099043	-0.027003
Cu8	Cu	1.874903	-0.117125	0.000857
Cu9	Cu	1.897597	0.117093	-0.017455
O10	O	1.886792	-0.099043	0.149539
C11	C	1.598756	-0.000014	0.022157
C12	C	1.423192	-0.000012	0.034088
N13	N	1.858954	-0.281862	0.013736
C14	C	2.028365	-0.531152	-0.123107
C15	C	2.016324	-0.655815	-0.113369
C16	C	1.822823	-0.655855	0.042947
C17	C	1.834864	-0.531191	0.033209
C18	C	1.937640	-0.468844	-0.049821
C19	C	1.949689	-0.344178	-0.059554
C20	C	1.756180	-0.344220	0.096757
C21	C	1.744139	-0.468883	0.106495
C22	C	2.173745	-0.000016	-0.038755
C23	C	2.349309	-0.000010	-0.050687
C24	C	1.869265	-0.000012	-0.196470
C25	C	1.848840	-0.000004	-0.309922
N26	N	1.913558	0.281829	-0.030343
C27	C	1.903236	-0.000018	0.179872
C28	C	1.923662	-0.000018	0.293323
C29	C	1.678104	0.000005	0.553829
C30	C	1.697289	0.000005	0.660428
C31	C	1.981216	-0.000010	0.613120
C32	C	1.962031	-0.000010	0.506522
C33	C	1.810470	-0.000004	0.476881
C34	C	1.791286	-0.000012	0.370281
C35	C	2.075212	-0.000019	0.322975
C36	C	2.094397	-0.000019	0.429574
H37	H	1.420366	-0.000003	-0.132395
H38	H	1.352129	-0.000006	0.115800
Cl39	Cl	1.642132	-0.265879	0.188897
Cl40	Cl	2.078896	-0.265801	-0.163931
H41	H	1.554695	-0.000011	0.529697
Cl42	Cl	2.157585	-0.452771	-0.227475
Cl43	Cl	1.530878	0.000021	0.757160
H44	H	2.104603	-0.000089	0.637280
H45	H	2.217793	-0.000029	0.453723
H46	H	2.182994	-0.000029	0.260311
H47	H	2.090200	-0.706543	-0.173047
H48	H	1.739133	-0.706634	0.110542
Cl49	Cl	1.600755	-0.000010	0.333019
Cl50	Cl	1.614936	-0.547271	0.210868
