data_functionalizedCrystal
_audit_creation_method	'MofGen! by Chris Wilmer'
_symmetry_space_group_name_H-M	'P1'
_symmetry_Int_Tables_number	1
_symmetry_cell_setting	triclinic
loop_
_symmetry_equiv_pos_as_xyz
  x,y,z
_cell_length_a	12.759401
_cell_length_b	14.908520
_cell_length_c	12.759393
_cell_angle_alpha	93.263606
_cell_angle_beta	89.979062
_cell_angle_gamma	93.322137
loop_
_atom_site_label
_atom_site_type_symbol
_atom_site_fract_x
_atom_site_fract_y
_atom_site_fract_z
Zn1	Zn	1.582080	-0.359078	-0.618119
Zn2	Zn	1.571808	-0.509962	-0.452566
Zn3	Zn	1.406376	-0.359126	-0.442458
Zn4	Zn	1.396212	-0.509899	-0.628199
O5	O	1.489119	-0.434516	-0.535335
O6	O	1.727738	-0.379099	-0.596170
O7	O	1.549818	-0.490000	-0.304207
O8	O	1.438236	-0.232875	-0.457311
O9	O	1.720192	-0.489953	-0.474539
O10	O	1.567325	-0.232840	-0.586369
O11	O	1.428275	-0.379181	-0.296781
O12	O	1.258007	-0.379120	-0.467085
O13	O	1.420913	-0.489846	-0.773880
O14	O	1.250540	-0.489892	-0.603548
O15	O	1.557470	-0.379038	-0.766474
O16	O	1.539963	-0.636198	-0.484313
O17	O	1.410953	-0.636152	-0.613349
C18	C	1.216153	-0.434505	-0.535314
C19	C	1.099375	-0.434522	-0.535331
C20	C	1.473269	-0.668908	-0.551045
C21	C	1.466584	-0.769183	-0.557800
C22	C	1.040646	-0.492289	-0.606288
C23	C	0.930922	-0.492292	-0.606309
C24	C	0.938665	-0.376759	-0.464407
C25	C	1.048387	-0.376752	-0.464392
C26	C	1.588499	-0.957595	-0.436237
C27	C	1.582222	-1.051812	-0.442581
C28	C	1.447758	-1.051834	-0.576837
C29	C	1.454036	-0.957617	-0.570493
C30	C	1.524407	-0.910501	-0.500189
C31	C	1.530679	-0.816283	-0.493841
C32	C	1.396221	-0.816307	-0.628101
C33	C	1.389944	-0.910523	-0.634445
C34	C	1.763152	-0.434528	-0.535358
C35	C	1.879928	-0.434533	-0.535367
C36	C	1.489204	-0.434429	-0.809363
C37	C	1.489240	-0.434392	-0.926137
C38	C	1.505060	-0.199208	-0.519588
C39	C	1.511853	-0.098934	-0.512877
C40	C	1.560350	-0.376686	-0.977144
C41	C	1.560371	-0.376647	-1.086866
C42	C	1.418166	-0.492029	-1.094564
C43	C	1.418142	-0.492063	-0.984844
C44	C	1.489100	-0.434537	-0.262369
C45	C	1.489285	-0.434320	-0.145579
H46	H	0.883110	-0.539331	-0.664090
H47	H	0.897137	-0.329727	-0.406650
H48	H	1.645791	-0.919233	-0.378986
H49	H	1.360228	-0.539054	-0.943314
C50	C	1.339974	-0.555469	-1.159145
H51	H	1.350180	-0.547192	-1.231797
H52	H	1.270273	-0.542271	-1.140272
H53	H	1.351248	-0.616093	-1.145219
C54	C	1.608076	-0.764452	-0.416508
H55	H	1.602629	-0.701595	-0.421878
H56	H	1.677635	-0.779826	-0.432982
H57	H	1.591699	-0.779953	-0.346945
H58	H	1.096206	-0.329706	-0.406610
H59	H	1.082157	-0.539327	-0.664053
C60	C	1.652717	-1.103612	-0.372228
H61	H	1.695519	-1.062055	-0.329447
H62	H	1.696026	-1.140308	-0.414928
H63	H	1.610093	-1.140423	-0.328887
C64	C	1.370357	-1.103671	-0.654159
H65	H	1.375797	-1.166527	-0.648771
H66	H	1.386715	-1.088176	-0.723723
H67	H	1.300795	-1.088299	-0.637669
C68	C	1.312541	-0.962351	-0.711775
H69	H	1.275274	-0.920807	-0.748959
H70	H	1.264338	-0.999169	-0.674024
H71	H	1.350267	-0.999040	-0.760067
C72	C	1.325720	-0.764502	-0.698455
H73	H	1.339539	-0.701641	-0.684614
H74	H	1.254106	-0.780009	-0.684059
H75	H	1.340039	-0.779885	-0.770100
C76	C	1.638541	-0.313240	-0.912569
H77	H	1.680887	-0.278860	-0.958666
H78	H	1.681974	-0.347759	-0.872080
H79	H	1.600994	-0.273942	-0.867135
H80	H	1.618274	-0.329655	-1.128391
