data_functionalizedCrystal
_audit_creation_method	'MofGen! by Chris Wilmer'
_symmetry_space_group_name_H-M	'P1'
_symmetry_Int_Tables_number	1
_symmetry_cell_setting	triclinic
loop_
_symmetry_equiv_pos_as_xyz
  x,y,z
_cell_length_a	14.853567
_cell_length_b	17.038272
_cell_length_c	13.330367
_cell_angle_alpha	89.995338
_cell_angle_beta	89.995418
_cell_angle_gamma	87.373243
loop_
_atom_site_label
_atom_site_type_symbol
_atom_site_fract_x
_atom_site_fract_y
_atom_site_fract_z
O1	O	1.204051	0.102086	-0.083355
O2	O	0.942507	0.114247	-0.083372
O3	O	1.071724	-0.005651	-0.083356
O4	O	1.074833	0.221984	-0.083372
O5	O	1.071704	-0.005654	0.083491
O6	O	0.942486	0.114244	0.083475
O7	O	1.204031	0.102083	0.083492
Cu8	Cu	1.073257	0.108164	0.098718
Cu9	Cu	1.073281	0.108167	-0.098598
O10	O	1.074813	0.221981	0.083476
C11	C	0.908866	0.113695	0.000049
C12	C	0.808658	0.112043	0.000043
C13	C	0.390240	0.033841	0.000071
C14	C	0.379678	0.176283	0.000060
C15	C	0.473828	0.177835	0.000056
C16	C	0.526189	0.107390	0.000059
C17	C	0.484399	0.035392	0.000064
C18	C	0.515626	0.249832	0.000041
C19	C	0.609782	0.251388	0.000036
C20	C	0.662144	0.180941	0.000046
C21	C	0.620349	0.108940	0.000052
C22	C	0.672709	0.038495	0.000055
C23	C	0.630915	-0.033507	0.000068
C24	C	0.536762	-0.035055	0.000074
C25	C	0.756298	0.182489	0.000040
C26	C	0.766869	0.040045	0.000048
C27	C	1.068887	-0.034784	0.000067
C28	C	1.060451	-0.121588	0.000067
C29	C	1.137904	-0.171601	0.000073
C30	C	1.129972	-0.253162	0.000063
C31	C	1.044586	-0.284709	0.000054
C32	C	0.967127	-0.234690	0.000045
C33	C	0.975060	-0.153130	0.000047
C34	C	1.016561	-0.530503	0.000038
C35	C	1.008634	-0.612069	0.000038
C36	C	1.171480	-0.630535	0.000055
C37	C	1.179405	-0.548974	0.000063
C38	C	1.101946	-0.498962	0.000049
C39	C	1.036476	-0.368077	0.000047
C40	C	1.110056	-0.415595	0.000049
C41	C	1.237671	0.102636	0.000068
C42	C	1.337879	0.104287	0.000068
C43	C	1.077651	0.251114	0.000050
C44	C	1.086087	0.337918	0.000044
N45	N	1.073246	0.108161	0.237499
N46	N	1.073298	0.108163	-0.237380
C47	C	1.016059	0.161237	0.710115
C48	C	1.130526	0.055091	0.710098
C49	C	1.130516	0.055088	0.605079
C50	C	1.073277	0.108162	0.552574
C51	C	1.016049	0.161237	0.605087
C52	C	1.187750	0.002019	0.552558
C53	C	1.187743	0.002015	0.447534
C54	C	1.130499	0.055085	0.395026
C55	C	1.073267	0.108162	0.447546
C56	C	1.016028	0.161236	0.395041
C57	C	0.958791	0.214310	0.447558
C58	C	0.958805	0.214308	0.552580
C59	C	1.130485	0.055087	0.290005
C60	C	1.016018	0.161237	0.290012
H61	H	0.809495	-0.017321	0.000054
N62	N	0.944384	-0.402106	0.000053
H63	H	0.896515	-0.358050	0.000055
H64	H	0.937554	-0.435538	-0.061801
N65	N	0.459163	0.325813	0.000002
H66	H	0.473234	0.357237	0.061834
H67	H	0.473282	0.357134	-0.061908
N68	N	1.249478	-0.055214	0.609203
H69	H	1.212366	-0.089886	0.652783
H70	H	1.285730	-0.088786	0.559948
H71	H	0.969403	0.204453	0.247269
N72	N	0.897061	0.271556	0.390924
H73	H	0.905747	0.263502	0.316425
H74	H	0.832409	0.262420	0.409286
H75	H	1.179577	-0.389906	0.000034
H76	H	0.337041	0.233636	0.000049
N77	N	0.897075	0.271547	0.609221
H78	H	0.905771	0.263494	0.683719
H79	H	0.911738	0.327035	0.590855
H80	H	0.643802	0.310016	0.000025
N81	N	0.916533	-0.646094	0.000018
H82	H	0.923265	-0.705351	0.000024
H83	H	0.882352	-0.627808	0.061865
N84	N	0.875028	-0.268706	0.000034
H85	H	0.868114	-0.302131	-0.061815
H86	H	0.868155	-0.302097	0.061926
H87	H	0.969455	0.204447	0.752877
N88	N	1.192267	-0.002144	0.766722
H89	H	1.183592	0.005911	0.841222
H90	H	1.177600	-0.057632	0.748379
N91	N	1.249471	-0.055227	0.390893
H92	H	1.285733	-0.088847	0.440093
H93	H	1.212299	-0.089851	0.347334
H94	H	1.177091	0.011879	0.247250
H95	H	0.673560	-0.090863	0.000063
H96	H	0.502724	-0.093675	0.000109
N97	N	0.801371	0.260140	0.000017
H98	H	0.782673	0.291011	0.061862
H99	H	0.868951	0.250371	-0.000023
N100	N	0.345171	-0.043815	0.000099
H101	H	0.277579	-0.034112	0.000108
H102	H	0.363933	-0.074649	-0.061750
N103	N	1.229999	-0.137578	0.000092
H104	H	1.277861	-0.181640	0.000093
H105	H	1.236848	-0.104135	-0.061758
H106	H	1.193043	-0.293879	0.000070
H107	H	0.911989	-0.112410	0.000042
H108	H	1.248935	-0.523295	0.000071
N109	N	1.255015	-0.684481	0.000069
H110	H	1.255363	-0.718727	-0.061783
H111	H	1.310265	-0.652068	0.000113
N112	N	0.933020	-0.476568	0.000027
H113	H	0.877727	-0.508932	0.000026
H114	H	0.932755	-0.442330	0.061879
