data_functionalizedCrystal
_audit_creation_method	'MofGen! by Chris Wilmer'
_symmetry_space_group_name_H-M	'P1'
_symmetry_Int_Tables_number	1
_symmetry_cell_setting	triclinic
loop_
_symmetry_equiv_pos_as_xyz
  x,y,z
_cell_length_a	27.732048
_cell_length_b	27.732048
_cell_length_c	8.965430
_cell_angle_alpha	89.998271
_cell_angle_beta	90.004519
_cell_angle_gamma	82.642655
loop_
_atom_site_label
_atom_site_type_symbol
_atom_site_fract_x
_atom_site_fract_y
_atom_site_fract_z
O1	O	0.057513	0.640927	0.123863
O2	O	0.066259	0.500134	0.123910
O3	O	-0.008511	0.574903	0.123857
O4	O	0.132283	0.566158	0.123917
O5	O	-0.008506	0.574897	-0.124222
O6	O	0.066264	0.500127	-0.124168
O7	O	0.057518	0.640921	-0.124216
Cu8	Cu	0.061892	0.570523	-0.146844
Cu9	Cu	0.061886	0.570531	0.146538
O10	O	0.132288	0.566151	-0.124162
C11	C	0.066078	0.482124	-0.000123
C12	C	0.065525	0.428469	-0.000107
C13	C	0.106229	0.089654	-0.000154
C14	C	0.104178	-0.112006	-0.000168
O15	O	0.141398	-0.143262	-0.000217
N16	N	0.059843	-0.131130	-0.000184
C17	C	0.016017	-0.099835	-0.000207
O18	O	-0.021740	-0.120728	-0.000236
C19	C	0.018068	0.101824	-0.000203
C20	C	0.062407	0.120944	-0.000172
C21	C	0.150563	0.108775	-0.000124
C22	C	0.151075	0.159187	-0.000113
C23	C	0.107253	0.190477	-0.000131
C24	C	0.062919	0.171356	-0.000160
C25	C	-0.025757	0.133117	-0.000236
C26	C	-0.025240	0.183535	-0.000239
C27	C	0.019098	0.202655	-0.000208
C28	C	0.019609	0.253059	-0.000166
N29	N	0.063944	0.272183	-0.000150
C30	C	0.107766	0.240892	-0.000132
C31	C	0.014943	-0.205709	-0.000206
C32	C	0.014430	-0.256124	-0.000204
C33	C	0.102591	-0.268291	-0.000168
C34	C	0.103104	-0.217876	-0.000159
C35	C	0.059278	-0.186585	-0.000189
C36	C	0.108839	0.346761	-0.000106
C37	C	0.109347	0.397178	-0.000089
C38	C	0.021186	0.409341	-0.000132
C39	C	0.020678	0.358929	-0.000142
C40	C	0.064508	0.327639	-0.000134
O41	O	-0.017592	0.284343	-0.000134
O42	O	0.145518	0.261794	-0.000136
C43	C	0.105716	0.039242	-0.000166
C44	C	0.061382	0.020120	-0.000195
C45	C	0.017560	0.051411	-0.000213
C46	C	0.060869	-0.030294	-0.000193
C47	C	0.104691	-0.061585	-0.000175
C48	C	0.149026	-0.042461	-0.000159
C49	C	0.149539	0.007951	-0.000148
C50	C	-0.026775	0.032287	-0.000229
C51	C	-0.027284	-0.018125	-0.000239
C52	C	0.016538	-0.049416	-0.000221
C53	C	-0.026515	0.574716	-0.000187
C54	C	-0.080170	0.574164	-0.000199
C55	C	-0.418985	0.614867	-0.000136
C56	C	-0.620645	0.612816	-0.000114
O57	O	-0.651900	0.650037	-0.000062
N58	N	-0.639768	0.568481	-0.000101
C59	C	-0.608474	0.524656	-0.000083
O60	O	-0.629367	0.486899	-0.000056
C61	C	-0.406815	0.526707	-0.000094
C62	C	-0.387694	0.571045	-0.000122
C63	C	-0.399864	0.659202	-0.000163
C64	C	-0.349452	0.659714	-0.000176
C65	C	-0.318161	0.615892	-0.000163
C66	C	-0.337282	0.571557	-0.000136
C67	C	-0.375521	0.482882	-0.000065
C68	C	-0.325104	0.483399	-0.000064
C69	C	-0.305983	0.527737	-0.000093
C70	C	-0.255580	0.528247	-0.000136
N71	N	-0.236456	0.572583	-0.000149
C72	C	-0.267747	0.616405	-0.000163
C73	C	-0.714348	0.523582	-0.000080
C74	C	-0.764762	0.523069	-0.000080
C75	C	-0.776930	0.611230	-0.000109
C76	C	-0.726514	0.611742	-0.000120
C77	C	-0.695224	0.567917	-0.000094
C78	C	-0.161878	0.617477	-0.000193
C79	C	-0.111461	0.617986	-0.000212
C80	C	-0.099298	0.529825	-0.000176
C81	C	-0.149710	0.529316	-0.000164
C82	C	-0.180999	0.573147	-0.000167
O83	O	-0.224296	0.491047	-0.000172
O84	O	-0.246844	0.654156	-0.000157
C85	C	-0.469397	0.614355	-0.000122
C86	C	-0.488518	0.570021	-0.000095
C87	C	-0.457228	0.526198	-0.000082
C88	C	-0.538933	0.569508	-0.000095
C89	C	-0.570223	0.613330	-0.000109
C90	C	-0.551100	0.657665	-0.000122
C91	C	-0.500688	0.658177	-0.000136
C92	C	-0.476351	0.481863	-0.000068
C93	C	-0.526764	0.481355	-0.000057
C94	C	-0.558054	0.525177	-0.000070
C95	C	0.150292	0.566338	-0.000115
C96	C	0.203947	0.566891	-0.000094
C97	C	0.057699	0.658931	-0.000179
C98	C	0.058252	0.712586	-0.000186
N99	N	0.061895	0.570522	-0.353193
C100	C	0.096463	0.535933	-0.450474
C101	C	0.105516	0.579544	-0.549898
C102	C	0.052846	0.526929	-0.549897
C103	C	0.070970	0.614155	-0.450428
C104	C	0.018281	0.561511	-0.450418
C105	C	0.027316	0.605154	-0.549797
N106	N	0.061878	0.570536	0.352887
H107	H	0.187180	0.174750	-0.000087
O108	O	0.146142	-0.199245	-0.000333
C109	C	0.149089	-0.170459	-0.128834
H110	H	0.110897	-0.157620	-0.171694
H111	H	0.170646	-0.192893	-0.218788
C112	C	0.221689	-0.141821	-0.037153
C113	C	0.174780	-0.126048	-0.089787
H114	H	0.237538	-0.114428	-0.013071
H115	H	0.219705	-0.161217	0.049418
H116	H	0.239647	-0.160517	-0.112123
H117	H	0.156822	-0.107359	-0.014811
H118	H	0.176762	-0.106649	-0.176345
O119	O	-0.069391	0.062611	-0.000175
C120	C	-0.108627	0.034915	-0.000232
H121	H	-0.096064	-0.002807	0.046727
H122	H	-0.122234	0.031427	-0.119253
C123	C	-0.165506	0.106660	0.039378
C124	C	-0.150077	0.060330	0.097064
H125	H	-0.191075	0.122337	0.099388
H126	H	-0.139072	0.125319	0.039410
H127	H	-0.176842	0.103747	-0.059805
H128	H	-0.138735	0.063244	0.196238
H129	H	-0.176510	0.041671	0.097051
H130	H	-0.095896	0.654093	-0.000239
H131	H	-0.165279	0.493213	-0.000182
O132	O	-0.027676	-0.175386	-0.000159
C133	C	-0.066912	-0.203082	-0.000207
H134	H	-0.054349	-0.240802	0.046763
H135	H	-0.080519	-0.206574	-0.119227
C136	C	-0.123792	-0.131337	0.039378
C137	C	-0.108362	-0.177664	0.097080
H138	H	-0.149362	-0.115657	0.099383
H139	H	-0.097359	-0.112676	0.039405
H140	H	-0.135128	-0.134253	-0.059804
H141	H	-0.097022	-0.174746	0.196253
H142	H	-0.134795	-0.196323	0.097072
H143	H	-0.021674	-0.271687	-0.000206
H144	H	0.185643	0.023514	-0.000124
H145	H	-0.780325	0.486964	-0.000083
H146	H	0.078661	0.651035	-0.406919
O147	O	-0.067857	0.213861	-0.000194
C148	C	-0.107096	0.186168	-0.000259
H149	H	-0.094538	0.148446	0.046705
H150	H	-0.120701	0.182681	-0.119283
C151	C	-0.163971	0.257918	0.039333
C152	C	-0.148547	0.211588	0.097026
H153	H	-0.189541	0.273598	0.099336
H154	H	-0.137535	0.276575	0.039371
H155	H	-0.175305	0.255005	-0.059853
H156	H	-0.137208	0.214502	0.196202
H157	H	-0.174982	0.192932	0.097007
H158	H	-0.450879	0.446177	-0.000054
O159	O	-0.022434	0.340432	-0.000219
C160	C	-0.061002	0.378864	-0.000180
H161	H	-0.047712	0.413019	-0.047129
H162	H	-0.074501	0.386091	0.118834
C163	C	-0.119170	0.322993	-0.039826
C164	C	-0.102849	0.364942	-0.097500
H165	H	-0.144984	0.314406	-0.099851
H166	H	-0.093186	0.297101	-0.039846
H167	H	-0.130416	0.329022	0.059352
H168	H	-0.091597	0.358912	-0.196668
H169	H	-0.128831	0.390834	-0.097499
H170	H	-0.061861	0.117558	-0.000263
O171	O	-0.007518	0.640155	-0.601441
C172	C	0.002193	0.686032	-0.550451
H173	H	0.042490	0.684348	-0.522700
H174	H	-0.020305	0.696477	-0.446252
C175	C	-0.060739	0.726380	-0.707083
C176	C	-0.011244	0.724312	-0.673010
H177	H	-0.069029	0.749993	-0.782679
H178	H	-0.067283	0.695472	-0.741433
H179	H	-0.079481	0.735082	-0.620240
H180	H	0.007497	0.715603	-0.759847
H181	H	-0.004697	0.755220	-0.638678
H182	H	-0.018582	0.553865	-0.406687
O183	O	-0.192218	0.660085	-0.000004
C184	C	-0.183600	0.687025	0.128479
H185	H	-0.145266	0.674859	0.171316
H186	H	-0.211129	0.680635	0.218455
C187	C	-0.235865	0.756461	0.036804
C188	C	-0.188780	0.741521	0.089410
H189	H	-0.239063	0.790077	0.012709
H190	H	-0.241673	0.738310	-0.049755
H191	H	-0.258801	0.751132	0.111793
H192	H	-0.165846	0.746844	0.014415
H193	H	-0.182969	0.759674	0.175956
O194	O	0.043777	0.482901	-0.601840
C195	C	0.080327	0.446541	-0.551261
H196	H	0.097940	0.459751	-0.446568
H197	H	0.109056	0.438352	-0.641848
C198	C	0.036018	0.383816	-0.643652
C199	C	0.057648	0.400039	-0.515058
H200	H	0.022030	0.355130	-0.621326
H201	H	0.011395	0.408312	-0.677733
H202	H	0.059963	0.376996	-0.719129
H203	H	0.033703	0.406864	-0.439590
H204	H	0.082268	0.375542	-0.480963
H205	H	-0.014492	0.434827	-0.000141
O206	O	0.191627	-0.072813	-0.000341
C207	C	0.218566	-0.064205	-0.128831
H208	H	0.206412	-0.025868	-0.171663
H209	H	0.212163	-0.091731	-0.218806
C210	C	0.287991	-0.116492	-0.037177
C211	C	0.273065	-0.069404	-0.089777
H212	H	0.321609	-0.119701	-0.013091
H213	H	0.269841	-0.122293	0.049387
H214	H	0.282651	-0.139425	-0.112165
H215	H	0.278400	-0.046472	-0.014782
H216	H	0.291217	-0.063599	-0.176328
O217	O	0.131428	0.501120	-0.398499
C218	C	0.177341	0.510811	-0.449221
H219	H	0.175675	0.551097	-0.477104
H220	H	0.187861	0.488270	-0.553286
C221	C	0.217578	0.447945	-0.292143
C222	C	0.215533	0.497426	-0.326376
H223	H	0.241138	0.439687	-0.216371
H224	H	0.186646	0.441415	-0.257974
H225	H	0.226343	0.429167	-0.378874
H226	H	0.206763	0.516204	-0.239652
H227	H	0.246465	0.503960	-0.360528
O228	O	0.149505	0.588717	-0.601871
C229	C	0.159307	0.634353	-0.549054
H230	H	0.137249	0.644151	-0.443591
H231	H	0.148885	0.663170	-0.638058
C232	C	0.240980	0.620007	-0.643125
C233	C	0.213891	0.632039	-0.513586
H234	H	0.274650	0.618580	-0.621253
H235	H	0.234376	0.589262	-0.678715
H236	H	0.232289	0.644023	-0.717283
H237	H	0.222577	0.608019	-0.439438
H238	H	0.220498	0.662780	-0.477983
O239	O	0.152451	0.415692	0.000139
C240	C	0.179132	0.399672	0.128650
H241	H	0.166219	0.364799	0.171469
H242	H	0.173311	0.428887	0.218622
C243	C	0.249439	0.432649	0.037056
C244	C	0.233583	0.389815	0.089640
H245	H	0.283028	0.426570	0.012997
H246	H	0.231464	0.443443	-0.049522
H247	H	0.244585	0.456990	0.112042
H248	H	0.238432	0.365476	0.014647
H249	H	0.251561	0.379016	0.176205
H250	H	-0.391080	0.446777	-0.000033
H251	H	-0.333889	0.695819	-0.000194
O252	O	-0.683906	0.481039	-0.000263
C253	C	-0.654391	0.478686	-0.128763
H254	H	-0.652117	0.517032	-0.171608
H255	H	-0.670824	0.456737	-0.218726
C256	C	-0.605818	0.406867	-0.037107
C257	C	-0.603022	0.453965	-0.089722
H258	H	-0.574132	0.391616	-0.013028
H259	H	-0.625704	0.408450	0.049464
H260	H	-0.619514	0.388582	-0.112085
H261	H	-0.589333	0.472250	-0.014738
H262	H	-0.583133	0.452384	-0.176280
H263	H	-0.299629	0.447710	-0.000041
H264	H	0.144530	0.321291	-0.000105
O265	O	-0.430206	0.701806	0.000018
C266	C	-0.421590	0.728747	0.128503
H267	H	-0.383257	0.716579	0.171352
H268	H	-0.449123	0.722360	0.218470
C269	C	-0.473848	0.798185	0.036810
C270	C	-0.426765	0.783243	0.089431
H271	H	-0.477042	0.831801	0.012712
H272	H	-0.479654	0.780034	-0.049751
H273	H	-0.496786	0.792858	0.111792
H274	H	-0.403828	0.788564	0.014443
H275	H	-0.420955	0.801396	0.175978
O276	O	0.193180	0.078452	-0.000035
C277	C	0.232414	0.106150	-0.000050
H278	H	0.219847	0.143871	0.046900
H279	H	0.246027	0.109642	-0.119057
C280	C	0.289295	0.034407	0.039609
C281	C	0.273860	0.080735	0.097285
H282	H	0.314862	0.018729	0.099643
H283	H	0.262863	0.015746	0.039613
H284	H	0.300636	0.037323	-0.059563
H285	H	0.262514	0.077818	0.196447
H286	H	0.300292	0.099395	0.097300
H287	H	0.138273	-0.293777	-0.000154
O288	O	-0.581520	0.700222	0.000133
C289	C	-0.611047	0.702553	0.128604
H290	H	-0.592392	0.677696	0.218405
H291	H	-0.647619	0.690316	0.099568
C292	C	-0.642009	0.785737	0.076560
C293	C	-0.619095	0.755211	0.186860
H294	H	-0.646975	0.818219	0.112493
H295	H	-0.622118	0.784166	-0.009997
H296	H	-0.672483	0.775533	0.052374
H297	H	-0.588619	0.765411	0.211031
H298	H	-0.638981	0.756784	0.273423
H299	H	-0.063392	-0.033688	-0.000253
H300	H	-0.710950	0.647846	-0.000142
H301	H	-0.802415	0.646911	-0.000121
H302	H	-0.073812	0.494146	-0.000170
H303	H	-0.542327	0.445246	-0.000046
H304	H	-0.485125	0.694282	-0.000159
