data_functionalizedCrystal
_audit_creation_method	'MofGen! by Chris Wilmer'
_symmetry_space_group_name_H-M	'P1'
_symmetry_Int_Tables_number	1
_symmetry_cell_setting	triclinic
loop_
_symmetry_equiv_pos_as_xyz
  x,y,z
_cell_length_a	9.065215
_cell_length_b	12.784905
_cell_length_c	8.140239
_cell_angle_alpha	89.996744
_cell_angle_beta	89.997429
_cell_angle_gamma	79.061008
loop_
_atom_site_label
_atom_site_type_symbol
_atom_site_fract_x
_atom_site_fract_y
_atom_site_fract_z
O1	O	0.009230	1.410401	-0.136623
O2	O	0.072332	1.101553	-0.136623
O3	O	-0.174799	1.262363	-0.136616
O4	O	0.256361	1.249592	-0.136630
O5	O	-0.174801	1.262354	0.136611
O6	O	0.072331	1.101544	0.136604
O7	O	0.009228	1.410392	0.136604
Zn8	Zn	0.040779	1.255967	0.179985
Zn9	Zn	0.040781	1.255979	-0.180004
O10	O	0.256360	1.249583	0.136597
C11	C	0.076436	1.061989	-0.000009
C12	C	0.088647	0.944113	-0.000009
C13	C	-0.160139	0.745335	-0.000031
C14	C	-0.148673	0.634581	-0.000031
C15	C	0.123044	0.611847	-0.000021
C16	C	0.111578	0.722601	-0.000021
C17	C	-0.030019	0.789342	-0.000023
C18	C	-0.041484	0.900099	-0.000012
C19	C	0.230232	0.877363	-0.000014
C20	C	0.241699	0.766608	-0.000014
C21	C	-0.229607	1.261131	-0.000004
C22	C	-0.392911	1.257464	-0.000009
C23	C	0.311167	1.250814	-0.000018
C24	C	0.474472	1.254482	-0.000024
C25	C	0.005125	1.449957	-0.000013
C26	C	-0.007086	1.567833	-0.000024
N27	N	0.040776	1.255966	0.425667
N28	N	0.040772	1.255987	-0.425686
H29	H	-0.156779	0.954438	-0.000011
H30	H	0.238325	0.557488	-0.000041
H31	H	0.336187	0.913204	0.000000
H32	H	-0.275433	0.799677	-0.000021
H33	H	-0.254631	0.598755	-0.000040
H34	H	0.356982	0.712253	-0.000019
