data_functionalizedCrystal
_audit_creation_method	'MofGen! by Chris Wilmer'
_symmetry_space_group_name_H-M	'P1'
_symmetry_Int_Tables_number	1
_symmetry_cell_setting	triclinic
loop_
_symmetry_equiv_pos_as_xyz
  x,y,z
_cell_length_a	15.297475
_cell_length_b	25.639239
_cell_length_c	15.299448
_cell_angle_alpha	80.298679
_cell_angle_beta	69.206248
_cell_angle_gamma	80.340538
loop_
_atom_site_label
_atom_site_type_symbol
_atom_site_fract_x
_atom_site_fract_y
_atom_site_fract_z
Zn1	Zn	1.512696	-0.282718	-0.771442
Zn2	Zn	1.846029	0.050616	-0.438109
Zn3	Zn	2.179362	0.383949	-0.104775
Zn4	Zn	1.485600	-0.383037	-0.615885
Zn5	Zn	1.818934	-0.049704	-0.282552
Zn6	Zn	2.152267	0.283630	0.050782
Zn7	Zn	1.330244	-0.282702	-0.589069
Zn8	Zn	1.663577	0.050631	-0.255735
Zn9	Zn	1.996910	0.383965	0.077598
Zn10	Zn	1.357091	-0.357196	-0.744504
Zn11	Zn	1.690425	-0.023862	-0.411171
Zn12	Zn	2.023758	0.309471	-0.077837
O13	O	1.421408	-0.326413	-0.680225
O14	O	1.754741	0.006920	-0.346892
O15	O	2.088074	0.340254	-0.013558
O16	O	1.639240	-0.306846	-0.773303
O17	O	1.972573	0.026487	-0.439970
O18	O	2.305906	0.359820	-0.106637
O19	O	1.442417	-0.380536	-0.482177
O20	O	1.775750	-0.047202	-0.148843
O21	O	2.109083	0.286131	0.184490
O22	O	1.354550	-0.209544	-0.613312
O23	O	1.687883	0.123789	-0.279978
O24	O	2.021217	0.457122	0.053355
O25	O	1.619333	-0.380551	-0.659016
O26	O	1.952666	-0.047217	-0.325683
O27	O	2.285999	0.286116	0.007650
O28	O	1.488597	-0.209556	-0.747300
O29	O	1.821930	0.123778	-0.413967
O30	O	2.155263	0.457111	-0.080634
O31	O	1.328277	-0.306820	-0.462475
O32	O	1.661610	0.026513	-0.129141
O33	O	1.994944	0.359847	0.204192
O34	O	1.203667	-0.281762	-0.587191
O35	O	1.537000	0.051571	-0.253858
O36	O	1.870334	0.384904	0.079476
O37	O	1.400308	-0.336508	-0.878229
O38	O	1.733641	-0.003174	-0.544895
O39	O	2.066974	0.330159	-0.211562
O40	O	1.223392	-0.336493	-0.701389
O41	O	1.556725	-0.003159	-0.368056
O42	O	1.890058	0.330174	-0.034722
O43	O	1.514630	-0.281789	-0.898020
O44	O	1.847963	0.051544	-0.564687
O45	O	2.181296	0.384878	-0.231353
O46	O	1.468450	-0.452769	-0.632896
O47	O	1.801783	-0.119436	-0.299563
O48	O	2.135116	0.213898	0.033771
O49	O	1.374035	-0.433783	-0.727392
O50	O	1.707368	-0.100450	-0.394058
O51	O	2.040701	0.232883	-0.060725
C52	C	1.179786	-0.306322	-0.638457
C53	C	1.513119	0.027011	-0.305124
C54	C	1.846453	0.360345	0.028209
C55	C	1.076423	-0.297738	-0.620611
C56	C	1.409756	0.035596	-0.287278
C57	C	1.743090	0.368929	0.046055
C58	C	0.826177	-0.387770	-0.807777
C59	C	1.159510	-0.054436	-0.474444
C60	C	1.492843	0.278897	-0.141110
C61	C	0.923291	-0.395839	-0.824542
C62	C	1.256624	-0.062506	-0.491209
C63	C	1.589957	0.270827	-0.157875
C64	C	0.961579	-0.371314	-0.773561
C65	C	1.294912	-0.037981	-0.440228
C66	C	1.628245	0.295352	-0.106894
C67	C	0.902743	-0.338719	-0.705812
C68	C	1.236076	-0.005386	-0.372478
C69	C	1.569409	0.327948	-0.039145
C70	C	0.805618	-0.330652	-0.689040
C71	C	1.138951	0.002681	-0.355707
C72	C	1.472285	0.336015	-0.022373
C73	C	0.941020	-0.314197	-0.654824
C74	C	1.274354	0.019137	-0.321491
C75	C	1.607687	0.352470	0.011843
C76	C	0.882184	-0.281601	-0.587075
C77	C	1.215517	0.051732	-0.253741
C78	C	1.548851	0.385065	0.079592
C79	C	0.785069	-0.273536	-0.570307
C80	C	1.118403	0.059798	-0.236973
C81	C	1.451736	0.393131	0.096360
C82	C	0.746781	-0.298060	-0.621288
C83	C	1.080115	0.035273	-0.287954
C84	C	1.413448	0.368606	0.045379
C85	C	1.038145	-0.322264	-0.671596
C86	C	1.371478	0.011070	-0.338262
C87	C	1.704812	0.344403	-0.004929
C88	C	1.017586	-0.265146	-0.552859
C89	C	1.350920	0.068187	-0.219525
C90	C	1.684253	0.401521	0.113808
C91	C	0.920472	-0.257077	-0.536094
C92	C	1.253805	0.076257	-0.202761
C93	C	1.587139	0.409590	0.130573
C94	C	1.421244	-0.462246	-0.680155
C95	C	1.754577	-0.128913	-0.346822
C96	C	2.087911	0.204420	-0.013489
C97	C	1.421264	-0.520361	-0.680171
C98	C	1.754598	-0.187027	-0.346838
C99	C	2.087931	0.146306	-0.013505
C100	C	1.470742	-0.890610	-0.631149
C101	C	1.804076	-0.557277	-0.297816
C102	C	2.137409	-0.223944	0.035518
C103	C	1.470781	-0.945217	-0.631168
C104	C	1.804114	-0.611883	-0.297834
C105	C	2.137447	-0.278550	0.035499
O106	O	1.512678	-0.981850	-0.589413
O107	O	1.846012	-0.648517	-0.256079
O108	O	2.179345	-0.315183	0.077254
N109	N	1.421582	-0.962661	-0.680315
N110	N	1.754915	-0.629327	-0.346981
N111	N	2.088249	-0.295994	-0.013648
C112	C	1.372350	-0.925495	-0.729454
C113	C	1.705683	-0.592161	-0.396121
C114	C	2.039016	-0.258828	-0.062788
O115	O	1.330506	-0.945346	-0.771260
O116	O	1.663840	-0.612013	-0.437927
O117	O	1.997173	-0.278680	-0.104593
C118	C	1.372317	-0.870890	-0.729440
C119	C	1.705651	-0.537556	-0.396107
C120	C	2.038984	-0.204223	-0.062774
C121	C	1.421512	-0.853449	-0.680282
C122	C	1.754845	-0.520116	-0.346949
C123	C	2.088178	-0.186783	-0.013616
C124	C	1.519933	-0.873169	-0.581996
C125	C	1.853267	-0.539836	-0.248663
C126	C	2.186600	-0.206503	0.084671
C127	C	1.519894	-0.818567	-0.581976
C128	C	1.853227	-0.485233	-0.248643
C129	C	2.186560	-0.151900	0.084691
C130	C	1.470663	-0.781405	-0.631109
C131	C	1.803996	-0.448072	-0.297776
C132	C	2.137329	-0.114739	0.035557
C133	C	1.421472	-0.798847	-0.680263
C134	C	1.754805	-0.465513	-0.346929
C135	C	2.088138	-0.132180	-0.013596
C136	C	1.323091	-0.833725	-0.778585
C137	C	1.656425	-0.500391	-0.445251
C138	C	1.989758	-0.167058	-0.111918
C139	C	1.323064	-0.779117	-0.778567
C140	C	1.656397	-0.445783	-0.445234
C141	C	1.989731	-0.112450	-0.111901
C142	C	1.372258	-0.761676	-0.729409
C143	C	1.705591	-0.428343	-0.396076
C144	C	2.038925	-0.095010	-0.062743
C145	C	1.372201	-0.707083	-0.729376
C146	C	1.705534	-0.373749	-0.396043
C147	C	2.038868	-0.040416	-0.062709
N148	N	1.421400	-0.689639	-0.680229
N149	N	1.754733	-0.356306	-0.346896
N150	N	2.088066	-0.022972	-0.013562
C151	C	1.470631	-0.726800	-0.631096
C152	C	1.803964	-0.393467	-0.297762
C153	C	2.137297	-0.060134	0.035571
C154	C	1.372422	-1.040170	-0.729481
C155	C	1.705755	-0.706837	-0.396147
C156	C	2.039089	-0.373503	-0.062814
C157	C	1.372448	-1.094774	-0.729489
C158	C	1.705781	-0.761441	-0.396156
C159	C	2.039115	-0.428107	-0.062823
C160	C	1.470881	-1.114492	-0.631204
C161	C	1.804214	-0.781159	-0.297871
C162	C	2.137547	-0.447826	0.035462
C163	C	1.470849	-1.059887	-0.631191
C164	C	1.804182	-0.726554	-0.297857
C165	C	2.137515	-0.393220	0.035476
C166	C	1.421621	-1.022726	-0.680334
C167	C	1.754954	-0.689393	-0.347000
C168	C	2.088287	-0.356059	-0.013667
C169	C	1.470543	-0.612130	-0.631057
C170	C	1.803876	-0.278797	-0.297724
C171	C	2.137209	0.054536	0.035610
C172	C	1.470495	-0.557522	-0.631038
C173	C	1.803829	-0.224189	-0.297705
C174	C	2.137162	0.109145	0.035629
C175	C	1.372067	-0.537809	-0.729327
C176	C	1.705400	-0.204475	-0.395994
C177	C	2.038734	0.128858	-0.062660
C178	C	1.372110	-0.592412	-0.729342
C179	C	1.705443	-0.259079	-0.396009
C180	C	2.038777	0.074255	-0.062675
C181	C	1.421355	-0.629572	-0.680205
C182	C	1.754688	-0.296239	-0.346872
C183	C	2.088021	0.037094	-0.013538
O184	O	1.330328	-0.670419	-0.771113
O185	O	1.663661	-0.337086	-0.437780
O186	O	1.996995	-0.003753	-0.104446
O187	O	1.512477	-0.706941	-0.589307
O188	O	1.845810	-0.373607	-0.255974
O189	O	2.179143	-0.040274	0.077360
C190	C	1.663973	-0.346583	-0.722156
C191	C	1.997306	-0.013250	-0.388823
C192	C	2.330640	0.320084	-0.055489
C193	C	1.767340	-0.355178	-0.740025
C194	C	2.100673	-0.021845	-0.406691
C195	C	2.434007	0.311489	-0.073358
C196	C	1.463486	-0.306268	-0.922815
C197	C	1.796819	0.027066	-0.589481
C198	C	2.130152	0.360399	-0.256148
C199	C	1.481417	-0.297683	-1.026192
C200	C	1.814750	0.035651	-0.692859
C201	C	2.148084	0.368984	-0.359525
C202	C	1.421601	-0.190050	-0.680320
C203	C	1.754934	0.143283	-0.346986
C204	C	2.088268	0.476617	-0.013653
C205	C	1.421683	-0.131940	-0.680360
C206	C	1.755017	0.201393	-0.347027
C207	C	2.088350	0.534727	-0.013693
C208	C	1.549363	-0.265159	-1.085060
C209	C	1.882696	0.068174	-0.751727
C210	C	2.216030	0.401508	-0.418394
C211	C	1.566202	-0.257086	-1.182187
C212	C	1.899536	0.076247	-0.848854
C213	C	2.232869	0.409581	-0.515520
C214	C	1.515103	-0.281539	-1.220456
C215	C	1.848436	0.051795	-0.887123
C216	C	2.181769	0.385128	-0.553789
C217	C	1.447160	-0.314066	-1.161588
C218	C	1.780493	0.019267	-0.828255
C219	C	2.113827	0.352601	-0.494921
C220	C	1.430314	-0.322137	-1.064451
C221	C	1.763647	0.011197	-0.731118
C222	C	2.096980	0.344530	-0.397784
C223	C	1.396053	-0.338516	-1.199847
C224	C	1.729387	-0.005183	-0.866513
C225	C	2.062720	0.328150	-0.533180
C226	C	1.328110	-0.371044	-1.140979
C227	C	1.661444	-0.037710	-0.807645
C228	C	1.994777	0.295623	-0.474312
C229	C	1.311268	-0.379113	-1.043851
C230	C	1.644601	-0.045780	-0.710518
C231	C	1.977934	0.287554	-0.377185
C232	C	1.362368	-0.354660	-1.005583
C233	C	1.695701	-0.021327	-0.672249
C234	C	2.029034	0.312006	-0.338916
C235	C	1.412899	-0.330445	-1.296984
C236	C	1.746233	0.002888	-0.963650
C237	C	2.079566	0.336221	-0.630317
C238	C	1.293850	-0.387423	-1.276374
C239	C	1.627183	-0.054090	-0.943041
C240	C	1.960517	0.279244	-0.609708
C241	C	1.277011	-0.395496	-1.179248
C242	C	1.610344	-0.062163	-0.845914
C243	C	1.943677	0.271170	-0.512581
C244	C	1.379547	-0.346447	-0.438588
C245	C	1.712880	-0.013114	-0.105255
C246	C	2.046214	0.320220	0.228078
C247	C	1.361796	-0.354899	-0.335243
C248	C	1.695129	-0.021566	-0.001909
C249	C	2.028463	0.311767	0.331424
H250	H	1.510554	-0.543325	-0.591004
H251	H	1.843888	-0.209992	-0.257671
H252	H	2.177221	0.123342	0.075662
Br253	Br	1.586758	-0.923594	-0.515308
Br254	Br	1.920092	-0.590261	-0.181975
Br255	Br	2.253425	-0.256927	0.151358
H256	H	1.528817	-0.274963	-1.299541
H257	H	1.862150	0.058371	-0.966208
H258	H	2.195483	0.391704	-0.632875
Br259	Br	1.537613	-1.036224	-0.564473
Br260	Br	1.870947	-0.702891	-0.231140
Br261	Br	2.204280	-0.369558	0.102194
Br262	Br	1.658443	-0.212967	-1.262078
Br263	Br	1.991776	0.120366	-0.928745
Br264	Br	2.325109	0.453699	-0.595412
H265	H	1.348663	-0.361233	-0.926495
H266	H	1.681996	-0.027900	-0.593162
H267	H	2.015329	0.305433	-0.259829
H268	H	0.794992	-0.407738	-0.849273
H269	H	1.128325	-0.074405	-0.515939
H270	H	1.461658	0.258929	-0.182606
Br271	Br	1.093379	-0.382265	-0.796315
Br272	Br	1.426713	-0.048932	-0.462982
Br273	Br	1.760046	0.284401	-0.129649
Br274	Br	1.256255	-0.728686	-0.845270
Br275	Br	1.589588	-0.395353	-0.511936
Br276	Br	1.922921	-0.062020	-0.178603
Br277	Br	0.614980	-0.287105	-0.598546
Br278	Br	0.948313	0.046229	-0.265213
Br279	Br	1.281646	0.379562	0.068121
Br280	Br	1.618668	-0.231954	-1.033114
Br281	Br	1.952001	0.101380	-0.699780
Br282	Br	2.285334	0.434713	-0.366447
Br283	Br	1.586677	-0.794907	-0.515274
Br284	Br	1.920010	-0.461573	-0.181941
Br285	Br	2.253343	-0.128240	0.151393
H286	H	0.971188	-0.422380	-0.879701
H287	H	1.304521	-0.089046	-0.546368
H288	H	1.637855	0.244287	-0.213035
H289	H	1.048759	-0.245177	-0.511344
H290	H	1.382092	0.088156	-0.178011
H291	H	1.715426	0.421490	0.155322
H292	H	0.737165	-0.247001	-0.515131
H293	H	1.070498	0.086333	-0.181798
H294	H	1.403832	0.419666	0.151535
Br295	Br	1.537690	-1.164936	-0.564518
Br296	Br	1.871024	-0.831603	-0.231185
Br297	Br	2.204357	-0.498269	0.102149
H298	H	1.510645	-0.642381	-0.591047
H299	H	1.843978	-0.309047	-0.257714
H300	H	2.177311	0.024286	0.075619
H301	H	1.468217	-0.303960	-1.344905
H302	H	1.801551	0.029373	-1.011571
H303	H	2.134884	0.362706	-0.678238
H304	H	1.255942	-0.405597	-0.995923
H305	H	1.589275	-0.072264	-0.662589
H306	H	1.922608	0.261069	-0.329256
H307	H	0.872554	-0.230537	-0.480932
H308	H	1.205888	0.102796	-0.147598
H309	H	1.539221	0.436129	0.185735
H310	H	1.331980	-0.507543	-0.769327
H311	H	1.665314	-0.174210	-0.435994
H312	H	1.998647	0.159123	-0.102661
H313	H	1.332379	-1.108968	-0.769509
H314	H	1.665712	-0.775635	-0.436175
H315	H	1.999046	-0.442302	-0.102842
Br316	Br	1.305599	-0.989741	-0.796174
Br317	Br	1.638933	-0.656408	-0.462841
Br318	Br	1.972266	-0.323075	-0.129508
H319	H	1.252234	-0.407331	-1.307531
H320	H	1.585568	-0.073997	-0.974197
H321	H	1.918901	0.259336	-0.640864
H322	H	1.283027	-0.847914	-0.818609
H323	H	1.616360	-0.514581	-0.485276
H324	H	1.949693	-0.181248	-0.151943
Br325	Br	1.305320	-0.616082	-0.796030
Br326	Br	1.638653	-0.282749	-0.462697
Br327	Br	1.971986	0.050584	-0.129364
H328	H	1.086040	-0.348803	-0.726758
H329	H	1.419374	-0.015470	-0.393425
H330	H	1.752707	0.317864	-0.060092
Br331	Br	1.184805	-0.439639	-1.099346
Br332	Br	1.518138	-0.106305	-0.766012
Br333	Br	1.851472	0.227028	-0.432679
