data_functionalizedCrystal
_audit_creation_method	'MofGen! by Chris Wilmer'
_symmetry_space_group_name_H-M	'P1'
_symmetry_Int_Tables_number	1
_symmetry_cell_setting	triclinic
loop_
_symmetry_equiv_pos_as_xyz
  x,y,z
_cell_length_a	19.188933
_cell_length_b	19.188930
_cell_length_c	15.455313
_cell_angle_alpha	92.650876
_cell_angle_beta	87.329187
_cell_angle_gamma	83.145175
loop_
_atom_site_label
_atom_site_type_symbol
_atom_site_fract_x
_atom_site_fract_y
_atom_site_fract_z
O1	O	0.929213	0.084112	-0.072111
O2	O	0.725902	0.095844	-0.072121
O3	O	0.833424	-0.011677	-0.072099
O4	O	0.821691	0.191633	-0.072133
O5	O	0.827275	-0.005554	0.072162
O6	O	0.719754	0.101967	0.072140
O7	O	0.923064	0.090235	0.072150
Cu8	Cu	0.820847	0.096660	0.085317
Cu9	Cu	0.828119	0.089419	-0.085288
O10	O	0.815542	0.197756	0.072128
C11	C	0.696817	0.098525	0.000009
C12	C	0.619312	0.097384	0.000006
C13	C	0.069408	0.085901	-0.078620
C14	C	0.142233	0.086969	-0.078623
C15	C	0.175298	0.090845	0.000013
C16	C	0.135535	0.093634	0.078659
C17	C	0.062713	0.092559	0.078660
N18	N	0.281824	0.134747	0.058538
N19	N	0.351002	0.135770	0.058532
C20	C	0.394707	0.094082	0.000014
N21	N	0.366620	0.051342	-0.058511
N22	N	0.297435	0.050323	-0.058507
C23	C	0.254261	0.092010	0.000020
C24	C	0.513426	0.092446	-0.078631
C25	C	0.586252	0.093510	-0.078631
C26	C	0.579552	0.100182	0.078653
C27	C	0.506728	0.099111	0.078651
C28	C	0.473669	0.095246	0.000007
C29	C	0.829969	-0.034626	0.000034
C30	C	0.828828	-0.112131	0.000042
C31	C	0.891919	-0.157054	0.000049
C32	C	0.890848	-0.229878	0.000035
C33	C	0.826682	-0.257775	0.000031
C34	C	0.763583	-0.212842	0.000019
C35	C	0.764657	-0.140020	0.000024
N36	N	0.775542	-0.363697	0.049124
N37	N	0.774527	-0.432876	0.049121
C38	C	0.823445	-0.477185	0.000013
N39	N	0.873426	-0.449703	-0.049079
N40	N	0.874443	-0.380518	-0.049072
C41	C	0.825511	-0.336738	0.000025
C42	C	0.885378	-0.601073	0.000004
C43	C	0.884305	-0.673899	-0.000015
C44	C	0.757038	-0.656861	-0.000022
C45	C	0.758114	-0.584037	-0.000011
C46	C	0.822285	-0.556148	0.000006
C47	C	0.952149	0.087553	0.000018
C48	C	1.029654	0.088694	0.000015
C49	C	0.818997	0.220705	-0.000007
C50	C	0.820138	0.298209	-0.000020
N51	N	0.815738	0.101753	0.205312
N52	N	0.833233	0.084320	-0.205283
C53	C	0.861433	0.056091	0.250715
C54	C	0.857576	0.059949	0.341522
C55	C	0.808026	0.109473	0.386924
C56	C	0.762327	0.155137	0.341514
C57	C	0.766181	0.151275	0.250709
C58	C	0.791388	0.126123	0.658502
C59	C	0.787539	0.129982	0.749314
C60	C	0.882787	0.034793	0.749316
C61	C	0.886640	0.030939	0.658508
C62	C	0.840938	0.076600	0.613107
N63	N	0.804084	0.113419	0.479744
N64	N	0.844878	0.072650	0.520289
H65	H	0.606474	0.103334	0.142680
H66	H	0.486508	0.089297	-0.142668
H67	H	0.919995	-0.002383	0.786290
H68	H	0.901784	0.015766	0.213755
H69	H	0.747188	0.170313	0.786276
F70	F	0.020402	0.095534	0.162358
H71	H	0.711339	-0.235561	0.000014
F72	F	0.170727	0.097756	0.162349
H73	H	0.944173	-0.134351	0.000060
H74	H	0.754177	0.163303	0.621543
F75	F	0.717544	0.199873	0.202389
F76	F	0.628562	0.090531	-0.162330
H77	H	0.721979	0.195458	0.378486
H78	H	0.942225	-0.266462	0.000037
H79	H	0.174606	0.084699	-0.142660
F80	F	0.939377	-0.021769	0.610189
F81	F	0.951458	-0.721710	-0.000013
H82	H	0.042497	0.082752	-0.142658
F83	F	0.464416	0.102093	0.162347
H84	H	0.713279	-0.103443	0.000019
H85	H	0.894783	0.022767	0.378489
H86	H	0.937631	-0.578365	0.000014
F87	F	0.688747	-0.686547	-0.000030
H88	H	0.706738	-0.547459	-0.000012
