data_functionalizedCrystal
_audit_creation_method	'MofGen! by Chris Wilmer'
_symmetry_space_group_name_H-M	'P1'
_symmetry_Int_Tables_number	1
_symmetry_cell_setting	triclinic
loop_
_symmetry_equiv_pos_as_xyz
  x,y,z
_cell_length_a	15.538191
_cell_length_b	12.837942
_cell_length_c	11.892095
_cell_angle_alpha	85.697431
_cell_angle_beta	87.649849
_cell_angle_gamma	108.949483
loop_
_atom_site_label
_atom_site_type_symbol
_atom_site_fract_x
_atom_site_fract_y
_atom_site_fract_z
O1	O	1.225929	0.334285	-0.094016
O2	O	0.962063	0.218501	-0.094016
O3	O	1.088145	0.425094	-0.094009
O4	O	1.099848	0.127693	-0.094023
O5	O	1.077631	0.407888	0.093998
O6	O	0.951549	0.201296	0.093991
O7	O	1.215415	0.317080	0.093990
Zn8	Zn	1.081813	0.256456	0.123841
Zn9	Zn	1.095666	0.279125	-0.123866
O10	O	1.089333	0.110487	0.093984
C11	C	0.922798	0.197785	-0.000012
C12	C	0.821463	0.161701	-0.000012
N13	N	1.072365	0.240988	0.292895
C14	C	1.078935	0.453624	-0.000006
C15	C	1.067145	0.564266	-0.000008
C16	C	0.501494	0.520183	-0.000013
C17	C	0.406274	0.486252	-0.000015
C18	C	0.400964	0.295396	-0.000024
C19	C	0.496185	0.329311	-0.000016
C20	C	0.546443	0.441706	-0.000011
C21	C	0.541134	0.250834	-0.000015
C22	C	0.636347	0.284747	-0.000013
C23	C	0.686611	0.397137	-0.000012
C24	C	0.641656	0.475619	-0.000009
C25	C	0.490874	0.138440	-0.000027
C26	C	0.535823	0.059963	-0.000026
C27	C	0.631037	0.093875	-0.000016
C28	C	0.681302	0.206265	-0.000015
C29	C	0.675993	0.015393	-0.000018
C30	C	0.771206	0.049306	-0.000016
C31	C	0.776515	0.240178	-0.000013
C32	C	1.254680	0.337797	-0.000016
C33	C	1.356015	0.373881	-0.000023
C34	C	1.098544	0.081957	-0.000021
C35	C	1.110334	-0.028684	-0.000027
C36	C	1.208883	0.858557	-0.000032
C37	C	1.197809	0.962516	-0.000034
C38	C	1.033926	0.876147	-0.000022
C39	C	1.045000	0.772188	-0.000020
C40	C	1.132481	0.763398	-0.000023
C41	C	1.143553	0.659435	-0.000013
C42	C	0.979671	0.573069	-0.000009
C43	C	0.968597	0.677028	-0.000011
N44	N	1.105120	0.294604	-0.292920
C45	C	1.170856	0.402294	0.529548
C46	C	1.164259	0.391477	0.647889
C47	C	1.052571	0.208542	0.647921
C48	C	1.059168	0.219359	0.529580
C49	C	1.118313	0.316237	0.470397
C50	C	1.124914	0.327050	0.352053
C51	C	1.013221	0.144119	0.352088
C52	C	1.006625	0.133302	0.470429
H53	H	0.817438	0.331700	-0.000003
F54	F	0.940832	0.885526	-0.000046
H55	H	1.207044	0.461554	0.696046
F56	F	1.187863	0.430153	0.289069
F57	F	1.279128	1.063791	-0.000046
F58	F	0.989619	0.105449	0.710921
H59	H	0.897373	0.684202	-0.000013
F60	F	1.301984	0.849196	-0.000012
F61	F	0.358439	0.569786	-0.000002
H62	H	0.635059	-0.076118	-0.000033
F63	F	0.695149	0.595242	0.000008
H64	H	0.917458	0.495575	0.000007
F65	F	0.943678	0.030203	0.533426
F66	F	0.787947	0.433231	-0.000016
F67	F	0.482326	-0.059651	-0.000037
F68	F	0.554987	0.639806	0.000005
H69	H	0.360031	0.203885	-0.000032
F70	F	0.819046	-0.034218	-0.000017
F71	F	1.233811	0.505392	0.466560
H72	H	0.413346	0.110832	-0.000032
F73	F	0.957304	0.052524	0.289124
H74	H	1.214784	0.652282	-0.000012
