data_functionalizedCrystal
_audit_creation_method	'MofGen! by Chris Wilmer'
_symmetry_space_group_name_H-M	'P1'
_symmetry_Int_Tables_number	1
_symmetry_cell_setting	triclinic
loop_
_symmetry_equiv_pos_as_xyz
  x,y,z
_cell_length_a	14.908571
_cell_length_b	12.645329
_cell_length_c	14.908308
_cell_angle_alpha	86.730911
_cell_angle_beta	89.824947
_cell_angle_gamma	86.714286
loop_
_atom_site_label
_atom_site_type_symbol
_atom_site_fract_x
_atom_site_fract_y
_atom_site_fract_z
Zn1	Zn	1.345315	-0.553226	0.587598
Zn2	Zn	1.845315	-0.053226	1.087598
Zn3	Zn	1.353901	-0.720904	0.437243
Zn4	Zn	1.853901	-0.220904	0.937243
Zn5	Zn	1.203629	-0.532864	0.428595
Zn6	Zn	1.703629	-0.032864	0.928595
Zn7	Zn	1.194929	-0.719645	0.578895
Zn8	Zn	1.694929	-0.219645	1.078895
O9	O	1.274443	-0.631660	0.508083
O10	O	1.774443	-0.131660	1.008083
O11	O	1.472280	-0.584517	0.574914
O12	O	1.972280	-0.084517	1.074914
O13	O	1.341202	-0.687966	0.310271
O14	O	1.841202	-0.187966	0.810271
O15	O	1.222472	-0.387223	0.449710
O16	O	1.722472	0.112777	0.949710
O17	O	1.478588	-0.707710	0.464449
O18	O	1.978588	-0.207710	0.964449
O19	O	1.326568	-0.402182	0.566529
O20	O	1.826568	0.097818	1.066529
O21	O	1.230798	-0.549814	0.303917
O22	O	1.730798	-0.049814	0.803917
O23	O	1.076649	-0.548592	0.441271
O24	O	1.576649	-0.048592	0.941271
O25	O	1.207643	-0.705564	0.705874
O26	O	1.707643	-0.205564	1.205874
O27	O	1.070256	-0.685819	0.551695
O28	O	1.570256	-0.185819	1.051695
O29	O	1.318131	-0.583296	0.712268
O30	O	1.818131	-0.083296	1.212268
O31	O	1.332765	-0.869080	0.456010
O32	O	1.832765	-0.369080	0.956010
O33	O	1.215969	-0.868154	0.560081
O34	O	1.715969	-0.368154	1.060081
C35	C	1.040827	-0.614861	0.494601
C36	C	1.540827	-0.114861	0.994601
C37	C	0.940884	-0.607701	0.488855
C38	C	1.440884	-0.107701	0.988855
C39	C	1.274378	-0.907084	0.508061
C40	C	1.774378	-0.407084	1.008061
C41	C	1.274430	-1.024919	0.508086
C42	C	1.774430	-0.524919	1.008086
C43	C	0.746481	-0.737341	0.592888
C44	C	1.246481	-0.237341	1.092888
C45	C	0.652575	-0.730618	0.587492
C46	C	1.152575	-0.230618	1.087492
C47	C	0.659165	-0.587525	0.472672
C48	C	1.159165	-0.087525	0.972672
C49	C	0.753070	-0.594249	0.478068
C50	C	1.253070	-0.094249	0.978068
C51	C	0.796725	-0.669161	0.538177
C52	C	1.296725	-0.169161	1.038177
C53	C	0.890633	-0.675889	0.543568
C54	C	1.390633	-0.175889	1.043568
C55	C	0.897220	-0.532791	0.428753
C56	C	1.397220	-0.032791	0.928753
C57	C	0.803315	-0.526068	0.423357
C58	C	1.303315	-0.026068	0.923357
C59	C	1.200923	-1.069258	0.573515
C60	C	1.700923	-0.569258	1.073515
C61	C	1.201194	-1.191858	0.573833
C62	C	1.701194	-0.691858	1.073833
C63	C	1.367887	-1.201134	0.539090
C64	C	1.867887	-0.701134	1.039090
C65	C	1.367374	-1.078532	0.539537
C66	C	1.867374	-0.578532	1.039537
C67	C	1.255490	-1.062382	0.411598
C68	C	1.755490	-0.562382	0.911598
C69	C	1.253451	-1.184880	0.412018
C70	C	1.753451	-0.684880	0.912018
C71	C	1.508972	-0.648526	0.521617
C72	C	2.008972	-0.148526	1.021617
C73	C	1.608914	-0.655713	0.527385
C74	C	2.108914	-0.155713	1.027385
C75	C	1.260959	-0.646561	0.742608
C76	C	1.760959	-0.146561	1.242608
C77	C	1.255212	-0.652911	0.842549
C78	C	1.755212	-0.152911	1.342549
C79	C	1.274533	-0.355164	0.508126
C80	C	1.774533	0.144836	1.008126
C81	C	1.274571	-0.237337	0.508144
C82	C	1.774571	0.262663	1.008144
C83	C	1.287927	-0.616744	0.274472
C84	C	1.787927	-0.116744	0.774472
C85	C	1.293848	-0.610108	0.174542
C86	C	1.793848	-0.110108	0.674542
C87	C	1.359463	-0.537501	1.037009
C88	C	1.859463	-0.037501	1.537009
C89	C	1.354067	-0.543463	1.130912
C90	C	1.854067	-0.043463	1.630912
C91	C	1.239019	-0.670793	1.124261
C92	C	1.739019	-0.170793	1.624261
C93	C	1.244416	-0.664830	1.030358
C94	C	1.744416	-0.164830	1.530358
C95	C	1.304641	-0.598183	0.986735
C96	C	1.804641	-0.098183	1.486735
C97	C	1.310041	-0.592226	0.892830
C98	C	1.810041	-0.092226	1.392830
C99	C	1.194990	-0.719549	0.886180
C100	C	1.694990	-0.219549	1.386180
C101	C	1.189593	-0.725512	0.980084
C102	C	1.689593	-0.225512	1.480084
H103	H	0.926175	-0.736888	0.592510
H104	H	1.426175	-0.236888	1.092510
H105	H	1.408505	-0.483240	1.001491
H106	H	1.908505	0.016760	1.501491
H107	H	1.303537	-1.215385	0.360252
H108	H	1.803537	-0.715385	0.860252
H109	H	1.423731	-1.049580	0.494238
H110	H	1.923731	-0.549580	0.994238
H111	H	0.782026	-0.798343	0.641826
H112	H	1.282026	-0.298343	1.141826
H113	H	1.150351	-0.768964	0.845237
H114	H	1.650351	-0.268964	1.345237
H115	H	1.189987	-0.725053	1.159795
H116	H	1.689987	-0.225053	1.659795
H117	H	1.423953	-1.230935	0.493154
H118	H	1.923953	-0.730935	0.993154
H119	H	0.611669	-0.786136	0.632045
H120	H	1.111669	-0.286136	1.132045
H121	H	1.398706	-0.494047	1.171842
H122	H	1.898706	0.005953	1.671842
H123	H	1.384997	-1.237664	0.609052
H124	H	1.884997	-0.737664	1.109052
H125	H	0.938140	-0.477276	0.384202
H126	H	1.438140	0.022724	0.884202
H127	H	1.131834	-1.215981	0.553855
H128	H	1.631834	-0.715981	1.053855
H129	H	1.212873	-1.044003	0.644488
H130	H	1.712873	-0.544003	1.144488
H131	H	1.140558	-0.779772	1.015615
H132	H	1.640558	-0.279772	1.515615
H133	H	1.188849	-1.025193	0.384425
H134	H	1.688849	-0.525193	0.884425
H135	H	0.623604	-0.526529	0.423740
H136	H	1.123604	-0.026529	0.923740
H137	H	1.131291	-1.033812	0.553697
H138	H	1.631291	-0.533812	1.053697
H139	H	0.767758	-0.465074	0.374421
H140	H	1.267758	0.034926	0.874421
H141	H	1.213386	-1.226780	0.645228
H142	H	1.713386	-0.726780	1.145228
H143	H	1.184802	-1.207833	0.388775
H144	H	1.684802	-0.707833	0.888775
H145	H	1.359080	-0.537960	0.857314
H146	H	1.859080	-0.037960	1.357314
H147	H	1.309089	-1.033666	0.362783
H148	H	1.809089	-0.533666	0.862783
H149	H	1.384042	-1.055781	0.610225
H150	H	1.884042	-0.555781	1.110225
