data_functionalizedCrystal
_audit_creation_method	'MofGen! by Chris Wilmer'
_symmetry_space_group_name_H-M	'P1'
_symmetry_Int_Tables_number	1
_symmetry_cell_setting	triclinic
loop_
_symmetry_equiv_pos_as_xyz
  x,y,z
_cell_length_a	14.971482
_cell_length_b	10.723024
_cell_length_c	9.798715
_cell_angle_alpha	90.005403
_cell_angle_beta	89.999734
_cell_angle_gamma	84.040239
loop_
_atom_site_label
_atom_site_type_symbol
_atom_site_fract_x
_atom_site_fract_y
_atom_site_fract_z
O1	O	1.187814	0.162596	0.113470
O2	O	1.687814	0.662596	0.613470
O3	O	0.927518	0.182074	0.113476
O4	O	1.427518	0.682074	0.613476
O5	O	1.063670	-0.009304	0.113468
O6	O	1.563670	0.490696	0.613468
O7	O	1.051662	0.353974	0.113478
O8	O	1.551662	0.853974	0.613478
O9	O	1.063670	-0.009318	-0.113514
O10	O	1.563670	0.490682	0.386486
O11	O	0.927518	0.182060	-0.113506
O12	O	1.427518	0.682060	0.386494
O13	O	1.187814	0.162582	-0.113512
O14	O	1.687814	0.662582	0.386488
Zn15	Zn	1.057666	0.172318	-0.149548
Zn16	Zn	1.557666	0.672318	0.350452
Zn17	Zn	1.057666	0.172337	0.149511
Zn18	Zn	1.557666	0.672337	0.649511
O19	O	1.051662	0.353960	-0.113504
O20	O	1.551662	0.853960	0.386496
C21	C	0.894188	0.181197	-0.000014
C22	C	1.394188	0.681197	0.499986
C23	C	0.794877	0.178589	-0.000012
C24	C	1.294877	0.678589	0.499988
C25	C	0.748226	0.177353	-0.123741
C26	C	1.248226	0.677353	0.376259
C27	C	0.654914	0.174882	-0.123743
C28	C	1.154914	0.674882	0.376257
C29	C	0.608255	0.173657	-0.000014
C30	C	1.108255	0.673657	0.499986
C31	C	0.654913	0.174889	0.123726
C32	C	1.154913	0.674889	0.623726
C33	C	0.748224	0.177351	0.123726
C34	C	1.248224	0.677351	0.623726
C35	C	0.460423	0.169762	0.123717
C36	C	0.960423	0.669762	0.623717
C37	C	0.367106	0.167303	0.123717
C38	C	0.867106	0.667303	0.623717
C39	C	0.367114	0.167294	-0.123752
C40	C	0.867114	0.667294	0.376248
C41	C	0.460424	0.169755	-0.123752
C42	C	0.960424	0.669755	0.376248
C43	C	0.507076	0.170990	-0.000012
C44	C	1.007076	0.670990	0.499988
C45	C	1.062796	-0.055802	-0.000022
C46	C	1.562796	0.444198	0.499978
C47	C	1.060182	-0.194329	-0.000017
C48	C	1.560182	0.305671	0.499983
C49	C	1.136365	-0.270109	-0.000017
C50	C	1.636365	0.229891	0.499983
C51	C	1.133665	-0.413284	-0.000012
C52	C	1.633665	0.086716	0.499988
C53	C	1.221143	0.163459	-0.000019
C54	C	1.721143	0.663459	0.499981
C55	C	1.320455	0.166067	-0.000013
C56	C	1.820455	0.666067	0.499987
C57	C	1.052536	0.400457	-0.000012
C58	C	1.552536	0.900457	0.499988
C59	C	1.055150	0.538984	-0.000008
C60	C	1.555150	1.038984	0.499992
N61	N	1.057672	0.172305	-0.353647
N62	N	1.557672	0.672305	0.146353
N63	N	1.057667	0.172341	0.353611
N64	N	1.557667	0.672341	0.853611
C65	C	1.000267	0.252681	0.578579
C66	C	1.500267	0.752681	1.078579
C67	C	1.000264	0.252701	0.421417
C68	C	1.500264	0.752701	0.921417
H69	H	0.498411	0.170760	-0.224503
H70	H	0.998411	0.670760	0.275497
H71	H	0.992959	-0.235447	-0.000006
H72	H	1.492959	0.264553	0.499994
C73	C	0.933873	0.345628	0.657372
C74	C	1.433873	0.845628	1.157372
N75	N	0.883862	0.415637	0.716718
N76	N	1.383862	0.915637	1.216718
C77	C	0.511737	0.171127	0.259837
C78	C	1.011737	0.671127	0.759837
N79	N	0.550386	0.172164	0.362361
N80	N	1.050386	0.672164	0.862361
C81	C	0.933864	0.345664	0.342682
C82	C	1.433864	0.845664	0.842682
N83	N	0.883849	0.415686	0.283376
N84	N	1.383849	0.915686	0.783376
H85	H	1.106813	0.103519	0.411884
H86	H	1.606813	0.603519	0.911884
H87	H	1.106819	0.103511	0.588025
H88	H	1.606819	0.603511	1.088025
C89	C	0.967035	-0.373058	-0.000006
C90	C	1.467035	0.126942	0.499994
N91	N	0.900666	-0.306799	-0.000002
N92	N	1.400666	0.193201	0.499998
H93	H	0.616916	0.173883	0.224468
H94	H	1.116916	0.673883	0.724468
C95	C	1.227184	-0.214566	-0.000029
C96	C	1.727184	0.285434	0.499971
N97	N	1.295591	-0.172734	-0.000043
N98	N	1.795591	0.327266	0.499957
H99	H	0.616936	0.173855	-0.224496
H100	H	1.116936	0.673855	0.275504
C101	C	0.315796	0.165927	-0.259867
C102	C	0.815796	0.665927	0.240133
N103	N	0.277139	0.164900	-0.362385
N104	N	0.777139	0.664900	0.137615
C105	C	0.315783	0.165950	0.259825
C106	C	0.815783	0.665950	0.759825
N107	N	0.277126	0.164929	0.362345
N108	N	0.777126	0.664929	0.862345
C109	C	0.799542	0.178700	-0.259856
C110	C	1.299542	0.678700	0.240144
N111	N	0.838192	0.179708	-0.362382
N112	N	1.338192	0.679708	0.137618
C113	C	1.221776	-0.501249	-0.000013
C114	C	1.721776	-0.001249	0.499987
N115	N	1.288145	-0.567508	-0.000011
N116	N	1.788145	-0.067508	0.499989
C117	C	0.799539	0.178713	0.259838
C118	C	1.299539	0.678713	0.759838
N119	N	0.838190	0.179736	0.362362
N120	N	1.338190	0.679736	0.862362
