data_functionalizedCrystal
_audit_creation_method	'MofGen! by Chris Wilmer'
_symmetry_space_group_name_H-M	'P1'
_symmetry_Int_Tables_number	1
_symmetry_cell_setting	triclinic
loop_
_symmetry_equiv_pos_as_xyz
  x,y,z
_cell_length_a	16.120530
_cell_length_b	19.120786
_cell_length_c	19.120904
_cell_angle_alpha	89.866497
_cell_angle_beta	89.648943
_cell_angle_gamma	89.436752
loop_
_atom_site_label
_atom_site_type_symbol
_atom_site_fract_x
_atom_site_fract_y
_atom_site_fract_z
Zn1	Zn	1.234714	-0.351016	-0.434804
Zn2	Zn	1.568047	-0.017683	-0.101471
Zn3	Zn	1.901381	0.315651	0.231862
Zn4	Zn	1.235121	-0.463278	-0.312580
Zn5	Zn	1.568454	-0.129945	0.020753
Zn6	Zn	1.901787	0.203389	0.354086
Zn7	Zn	1.102066	-0.340129	-0.312176
Zn8	Zn	1.435399	-0.006796	0.021158
Zn9	Zn	1.768732	0.326537	0.354491
Zn10	Zn	1.090202	-0.461789	-0.423869
Zn11	Zn	1.423536	-0.128456	-0.090536
Zn12	Zn	1.756869	0.204878	0.242797
O13	O	1.165526	-0.404053	-0.370857
O14	O	1.498859	-0.070720	-0.037524
O15	O	1.832192	0.262614	0.295809
O16	O	1.350931	-0.371087	-0.423337
O17	O	1.684264	-0.037754	-0.090003
O18	O	2.017597	0.295580	0.243330
O19	O	1.222606	-0.443009	-0.214631
O20	O	1.555939	-0.109676	0.118702
O21	O	1.889273	0.223657	0.452035
O22	O	1.124456	-0.243676	-0.332850
O23	O	1.457790	0.089657	0.000484
O24	O	1.791123	0.422990	0.333817
O25	O	1.351230	-0.453566	-0.333539
O26	O	1.684563	-0.120232	-0.000206
O27	O	2.017896	0.213101	0.333127
O28	O	1.221912	-0.251675	-0.422944
O29	O	1.555246	0.081659	-0.089611
O30	O	1.888579	0.414992	0.243722
O31	O	1.124851	-0.352532	-0.214334
O32	O	1.458184	-0.019199	0.118999
O33	O	1.791518	0.314134	0.452333
O34	O	0.984329	-0.351088	-0.322246
O35	O	1.317663	-0.017755	0.011087
O36	O	1.650996	0.315578	0.344420
O37	O	1.104237	-0.451027	-0.523215
O38	O	1.437570	-0.117694	-0.189882
O39	O	1.770904	0.215639	0.143451
O40	O	0.975613	-0.440471	-0.404307
O41	O	1.308947	-0.107138	-0.070974
O42	O	1.642280	0.226196	0.262360
O43	O	1.210409	-0.369643	-0.531249
O44	O	1.543742	-0.036310	-0.197916
O45	O	1.877076	0.297024	0.135417
O46	O	1.211103	-0.560978	-0.322936
O47	O	1.544436	-0.227644	0.010397
O48	O	1.877769	0.105689	0.343731
O49	O	1.104631	-0.559884	-0.404699
O50	O	1.437965	-0.226550	-0.071366
O51	O	1.771298	0.106783	0.261967
C52	C	0.949852	-0.394437	-0.362047
C53	C	1.283185	-0.061104	-0.028713
C54	C	1.616518	0.272229	0.304620
C55	C	0.857584	-0.390341	-0.358293
C56	C	1.190917	-0.057008	-0.024960
C57	C	1.524250	0.276326	0.308374
C58	C	0.688649	-0.382847	-0.351447
C59	C	1.021982	-0.049513	-0.018114
C60	C	1.355315	0.283820	0.315220
C61	C	0.643238	-0.425313	-0.390316
C62	C	0.976571	-0.091980	-0.056983
C63	C	1.309904	0.241353	0.276350
C64	C	0.549237	-0.421143	-0.386507
C65	C	0.882570	-0.087810	-0.053174
C66	C	1.215903	0.245523	0.280159
C67	C	0.782658	-0.387016	-0.355255
C68	C	1.115992	-0.053682	-0.021922
C69	C	1.449325	0.279651	0.311411
C70	C	1.156646	-0.585816	-0.362691
C71	C	1.489979	-0.252483	-0.029358
C72	C	1.823312	0.080851	0.303976
C73	C	1.152921	-0.663579	-0.359224
C74	C	1.486255	-0.330246	-0.025891
C75	C	1.819588	0.003088	0.307443
C76	C	1.201870	-0.704216	-0.404538
C77	C	1.535204	-0.370883	-0.071204
C78	C	1.868537	-0.037549	0.262129
C79	C	1.198368	-0.777283	-0.401281
C80	C	1.531701	-0.443949	-0.067948
C81	C	1.865034	-0.110616	0.265386
C82	C	1.145920	-0.809711	-0.352707
C83	C	1.479253	-0.476378	-0.019374
C84	C	1.812586	-0.143045	0.313960
C85	C	1.096965	-0.769069	-0.307392
C86	C	1.430298	-0.435735	0.025942
C87	C	1.763632	-0.102402	0.359275
C88	C	1.100464	-0.696003	-0.310652
C89	C	1.433797	-0.362670	0.022681
C90	C	1.767131	-0.029337	0.356015
C91	C	1.132815	-1.030116	-0.340517
C92	C	1.466148	-0.696783	-0.007184
C93	C	1.799482	-0.363449	0.326149
C94	C	1.129321	-1.103187	-0.337259
C95	C	1.462655	-0.769854	-0.003925
C96	C	1.795988	-0.436520	0.329408
C97	C	1.230723	-1.111396	-0.431149
C98	C	1.564057	-0.778063	-0.097816
C99	C	1.897390	-0.444729	0.235517
C100	C	1.234221	-1.038329	-0.434403
C101	C	1.567554	-0.704995	-0.101069
C102	C	1.900888	-0.371662	0.232264
C103	C	1.185263	-0.997693	-0.389090
C104	C	1.518597	-0.664359	-0.055756
C105	C	1.851930	-0.331026	0.277577
C106	C	1.142340	-0.884397	-0.349376
C107	C	1.475673	-0.551064	-0.016042
C108	C	1.809007	-0.217730	0.317291
C109	C	1.188839	-0.923008	-0.392425
C110	C	1.522173	-0.589675	-0.059092
C111	C	1.855506	-0.256342	0.274242
C112	C	1.382042	-0.413707	-0.379703
C113	C	1.715375	-0.080374	-0.046370
C114	C	2.048709	0.252960	0.286964
C115	C	1.474308	-0.417821	-0.383472
C116	C	1.807642	-0.084487	-0.050139
C117	C	2.140975	0.248846	0.283194
C118	C	1.155954	-0.411384	-0.553325
C119	C	1.489288	-0.078050	-0.219992
C120	C	1.822621	0.255283	0.113342
C121	C	1.151875	-0.414507	-0.631082
C122	C	1.485209	-0.081174	-0.297749
C123	C	1.818542	0.252159	0.035585
C124	C	1.174462	-0.221582	-0.379072
C125	C	1.507796	0.111751	-0.045738
C126	C	1.841129	0.445085	0.287595
C127	C	1.178270	-0.143824	-0.382572
C128	C	1.511604	0.189509	-0.049239
C129	C	1.844937	0.522843	0.284094
C130	C	1.205234	-0.373604	-0.671796
C131	C	1.538568	-0.040271	-0.338463
C132	C	1.871901	0.293062	-0.005129
C133	C	1.201392	-0.376536	-0.744857
C134	C	1.534725	-0.043203	-0.411523
C135	C	1.868059	0.290130	-0.078190
C136	C	1.144194	-0.420376	-0.777202
C137	C	1.477527	-0.087042	-0.443868
C138	C	1.810861	0.246291	-0.110535
C139	C	1.090829	-0.461280	-0.736482
C140	C	1.424163	-0.127947	-0.403149
C141	C	1.757496	0.205387	-0.069815
C142	C	1.094668	-0.458344	-0.663423
C143	C	1.428002	-0.125011	-0.330090
C144	C	1.761335	0.208323	0.003244
C145	C	1.129833	-0.431357	-0.997584
C146	C	1.463167	-0.098024	-0.664251
C147	C	1.796500	0.235309	-0.330917
C148	C	1.126000	-0.434292	-1.070648
C149	C	1.459334	-0.100959	-0.737315
C150	C	1.792667	0.232375	-0.403982
C151	C	1.236562	-0.349547	-1.079018
C152	C	1.569896	-0.016214	-0.745685
C153	C	1.903229	0.317120	-0.412351
C154	C	1.240400	-0.346618	-1.005957
C155	C	1.573733	-0.013284	-0.672624
C156	C	1.907066	0.320049	-0.339290
C157	C	1.187032	-0.387520	-0.965244
C158	C	1.520365	-0.054186	-0.631911
C159	C	1.853699	0.279147	-0.298577
C160	C	1.140267	-0.423375	-0.851881
C161	C	1.473600	-0.090042	-0.518548
C162	C	1.806933	0.243291	-0.185215
C163	C	1.190956	-0.384516	-0.890566
C164	C	1.524289	-0.051182	-0.557232
C165	C	1.857623	0.282151	-0.223899
C166	C	1.175110	-0.396703	-0.189104
C167	C	1.508443	-0.063369	0.144230
C168	C	1.841777	0.269964	0.477563
C169	C	1.179359	-0.393389	-0.111363
C170	C	1.512693	-0.060056	0.221971
C171	C	1.846026	0.273278	0.555304
H172	H	1.238234	-0.810367	-0.438175
H173	H	1.571567	-0.477033	-0.104842
H174	H	1.904900	-0.143700	0.228492
N175	N	1.072266	-0.475480	-0.953696
N176	N	1.405599	-0.142147	-0.620363
N177	N	1.738933	0.191186	-0.287029
H178	H	1.105990	-0.508193	-0.923300
H179	H	1.439323	-0.174860	-0.589967
H180	H	1.772657	0.158473	-0.256633
H181	H	1.036783	-0.444073	-0.923138
H182	H	1.370116	-0.110740	-0.589805
H183	H	1.703450	0.222593	-0.256471
N184	N	0.685254	-0.477626	-0.438177
N185	N	1.018587	-0.144293	-0.104844
N186	N	1.351921	0.189040	0.228490
H187	H	0.668346	-0.526498	-0.424382
H188	H	1.001679	-0.193165	-0.091048
H189	H	1.335012	0.140168	0.242285
H190	H	0.668129	-0.468141	-0.488052
H191	H	1.001462	-0.134808	-0.154719
H192	H	1.334795	0.198526	0.178614
H193	H	0.656931	-0.343361	-0.315311
H194	H	0.990264	-0.010028	0.018022
H195	H	1.323598	0.323305	0.351355
H196	H	1.237523	-0.348819	-0.864227
H197	H	1.570856	-0.015486	-0.530894
H198	H	1.904190	0.317848	-0.197561
H199	H	1.280010	-0.316246	-1.112174
H200	H	1.613344	0.017087	-0.778841
H201	H	1.946677	0.350420	-0.445508
H202	H	1.276928	-1.011927	-0.473955
H203	H	1.610262	-0.678594	-0.140622
H204	H	1.943595	-0.345261	0.192711
H205	H	1.086608	-1.129587	-0.297703
H206	H	1.419941	-0.796254	0.035630
H207	H	1.753275	-0.462921	0.368963
H208	H	1.270581	-1.144489	-0.468041
H209	H	1.603914	-0.811156	-0.134708
H210	H	1.937247	-0.477823	0.198625
N211	N	1.258444	-0.669242	-0.456925
N212	N	1.591778	-0.335909	-0.123591
N213	N	1.925111	-0.002576	0.209742
H214	H	1.288920	-0.706076	-0.485137
H215	H	1.622253	-0.372742	-0.151804
H216	H	1.955586	-0.039409	0.181530
H217	H	1.224377	-0.638733	-0.489246
H218	H	1.557711	-0.305400	-0.155913
H219	H	1.891044	0.027933	0.177420
H220	H	1.079420	-0.469993	-1.096981
H221	H	1.412753	-0.136659	-0.763648
H222	H	1.746087	0.196674	-0.430314
N223	N	1.080021	-0.986293	-0.291640
N224	N	1.413355	-0.652959	0.041693
N225	N	1.746688	-0.319626	0.375027
H226	H	1.046272	-1.017925	-0.260371
H227	H	1.379605	-0.684592	0.072962
H228	H	1.712939	-0.351259	0.406295
H229	H	1.116996	-0.956172	-0.262026
H230	H	1.450330	-0.622839	0.071308
H231	H	1.783663	-0.289506	0.404641
H232	H	1.054257	-0.795478	-0.267844
H233	H	1.387591	-0.462144	0.065489
H234	H	1.720924	-0.128811	0.398822
N235	N	1.245400	-0.888030	-0.444816
N236	N	1.578733	-0.554697	-0.111482
N237	N	1.912066	-0.221363	0.221851
H238	H	1.286832	-0.858268	-0.419334
H239	H	1.620166	-0.524935	-0.086001
H240	H	1.953499	-0.191602	0.247332
H241	H	1.275827	-0.924897	-0.473017
H242	H	1.609160	-0.591563	-0.139684
H243	H	1.942494	-0.258230	0.193649
N244	N	1.047667	-0.652170	-0.261781
N245	N	1.381000	-0.318836	0.071552
N246	N	1.714333	0.014497	0.404886
H247	H	1.013911	-0.683799	-0.230514
H248	H	1.347244	-0.350465	0.102820
H249	H	1.680577	-0.017132	0.436153
H250	H	1.084635	-0.622046	-0.232165
H251	H	1.417969	-0.288712	0.101169
H252	H	1.751302	0.044621	0.434502
N253	N	1.085784	-0.919377	-0.296978
N254	N	1.419118	-0.586043	0.036355
N255	N	1.752451	-0.252710	0.369688
H256	H	1.055306	-0.882549	-0.268761
H257	H	1.388639	-0.549216	0.064573
H258	H	1.721973	-0.215882	0.397906
H259	H	1.044396	-0.949141	-0.322504
H260	H	1.377729	-0.615808	0.010830
H261	H	1.711063	-0.282475	0.344163
H262	H	1.251814	-0.337908	-0.645467
H263	H	1.585147	-0.004575	-0.312133
H264	H	1.918480	0.328759	0.021200
H265	H	1.244845	-0.343230	-0.778003
H266	H	1.578178	-0.009897	-0.444670
H267	H	1.911511	0.323436	-0.111337
H268	H	1.286979	-0.310921	-0.979627
H269	H	1.620312	0.022412	-0.646294
H270	H	1.953645	0.355745	-0.312960
N271	N	1.029128	-0.508548	-0.771376
N272	N	1.362461	-0.175215	-0.438043
N273	N	1.695794	0.158118	-0.104710
H274	H	1.059675	-0.543692	-0.801612
H275	H	1.393008	-0.210358	-0.468279
H276	H	1.726342	0.122975	-0.134945
H277	H	0.995913	-0.533967	-0.734461
H278	H	1.329246	-0.200633	-0.401128
H279	H	1.662579	0.132700	-0.067795
H280	H	1.051209	-0.491644	-0.630274
H281	H	1.384543	-0.158311	-0.296941
H282	H	1.717876	0.175023	0.036393
N283	N	1.078585	-0.470656	-0.886783
N284	N	1.411918	-0.137323	-0.553450
N285	N	1.745252	0.196011	-0.220117
H286	H	1.089693	-0.520708	-0.872356
H287	H	1.423027	-0.187375	-0.539023
H288	H	1.756360	0.145958	-0.205689
H289	H	1.020497	-0.456580	-0.872126
H290	H	1.353831	-0.123246	-0.538793
H291	H	1.687164	0.210087	-0.205460
