data_functionalizedCrystal
_audit_creation_method	'MofGen! by Chris Wilmer'
_symmetry_space_group_name_H-M	'P1'
_symmetry_Int_Tables_number	1
_symmetry_cell_setting	triclinic
loop_
_symmetry_equiv_pos_as_xyz
  x,y,z
_cell_length_a	6.817900
_cell_length_b	19.453103
_cell_length_c	13.212919
_cell_angle_alpha	90.002012
_cell_angle_beta	106.298290
_cell_angle_gamma	101.709178
loop_
_atom_site_label
_atom_site_type_symbol
_atom_site_fract_x
_atom_site_fract_y
_atom_site_fract_z
V1	V	-4.035836	-0.076483	-0.325908
O2	O	-4.032159	0.024943	-0.319205
O3	O	-3.978653	-0.172107	-0.324159
O4	O	-3.995335	-0.065974	-0.467829
O5	O	-4.015362	-0.081924	-0.174541
V6	V	-4.519579	-0.065454	-0.307745
O7	O	-4.296613	-0.100676	-0.365751
O8	O	-4.709000	-0.041261	-0.267903
O9	O	-4.353556	0.030170	-0.309494
O10	O	-4.640653	-0.166879	-0.314448
O11	O	-4.657451	-0.060012	-0.459113
O12	O	-4.336874	-0.075962	-0.165824
C13	C	-3.821261	-0.195709	-0.319142
C14	C	-3.855846	-0.273823	-0.318658
C15	C	-3.842540	-0.060326	-0.502406
C16	C	-3.890651	-0.052367	-0.618430
C17	C	-4.051581	-0.164138	-0.866914
C18	C	-4.096787	-0.156663	-0.975930
C19	C	-4.026285	-0.029944	-0.945480
C20	C	-3.981078	-0.037419	-0.836464
C21	C	-3.993726	-0.104518	-0.797186
C22	C	-3.948505	-0.111992	-0.688167
C23	C	-3.878018	0.014727	-0.657720
C24	C	-3.923224	0.022202	-0.766736
C25	C	-4.054159	-0.313761	-0.323650
C26	C	-4.086661	-0.387158	-0.323206
C27	C	-3.920828	-0.420612	-0.317749
C28	C	-3.722491	-0.380665	-0.312762
C29	C	-3.690000	-0.307270	-0.313217
N30	N	-3.808481	-0.530962	-0.253429
N31	N	-3.839358	-0.600684	-0.252995
C32	C	-4.018712	-0.641746	-0.316380
N33	N	-4.166048	-0.610453	-0.380204
N34	N	-4.135173	-0.540724	-0.380633
C35	C	-3.956040	-0.500196	-0.317256
C36	C	-4.252280	-0.761270	-0.320893
C37	C	-4.284778	-0.834668	-0.320455
C38	C	-3.920597	-0.828173	-0.310000
C39	C	-3.888110	-0.754777	-0.310449
C40	C	-4.053957	-0.721330	-0.315890
C41	C	-4.174289	0.053769	-0.314509
C42	C	-4.118942	0.131883	-0.314999
C43	C	-4.153011	-0.081613	-0.131242
C44	C	-4.084139	-0.089568	-0.015217
H45	H	-4.061855	-0.218772	-0.834933
O46	O	-4.153345	-0.214563	-1.043717
C47	C	-4.354586	-0.217026	-1.112771
H48	H	-4.441878	-0.185424	-1.074819
H49	H	-4.444348	-0.273987	-1.129173
H50	H	-4.340261	-0.193660	-1.190156
O51	O	-3.910939	0.087428	-0.804722
C52	C	-3.850128	0.138448	-0.719795
H53	H	-3.891463	0.113446	-0.648397
H54	H	-3.935525	0.183234	-0.743481
H55	H	-3.674226	0.159921	-0.698834
O56	O	-3.497470	-0.268446	-0.308546
C57	C	-3.510134	-0.229537	-0.399338
H58	H	-3.652847	-0.256123	-0.465679
H59	H	-3.362932	-0.227090	-0.425216
H60	H	-3.524861	-0.173937	-0.380538
H61	H	-4.016016	0.024685	-0.977481
H62	H	-3.830883	0.063274	-0.600933
H63	H	-4.189211	-0.286534	-0.328088
O64	O	-4.279151	-0.426035	-0.327907
C65	C	-4.266470	-0.464909	-0.237080
H66	H	-4.099119	-0.471826	-0.202189
H67	H	-4.375894	-0.518742	-0.259401
H68	H	-4.314143	-0.435594	-0.176206
O69	O	-3.561418	-0.413134	-0.307641
C70	C	-3.485024	-0.396972	-0.395421
H71	H	-3.612233	-0.381326	-0.462113
H72	H	-3.438010	-0.445030	-0.423245
H73	H	-3.343058	-0.351495	-0.371886
O74	O	-3.960957	-0.177151	-0.649941
C75	C	-4.109950	-0.188336	-0.592876
H76	H	-4.130276	-0.135470	-0.564944
H77	H	-4.054145	-0.219767	-0.521567
H78	H	-4.265904	-0.218815	-0.645972
O79	O	-4.413621	-0.728888	-0.326230
C80	C	-4.595625	-0.779881	-0.330520
H81	H	-4.580900	-0.832620	-0.361892
H82	H	-4.737329	-0.763048	-0.385230
H83	H	-4.615822	-0.785210	-0.247910
H84	H	-4.446275	-0.867186	-0.324527
H85	H	-3.785576	-0.855411	-0.305564
O86	O	-3.695483	-0.715897	-0.305445
C87	C	-3.623427	-0.669504	-0.214517
H88	H	-3.762537	-0.660074	-0.188837
H89	H	-3.533030	-0.617364	-0.233053
H90	H	-3.516451	-0.693559	-0.148137
