data_functionalizedCrystal
_audit_creation_method	'MofGen! by Chris Wilmer'
_symmetry_space_group_name_H-M	'P1'
_symmetry_Int_Tables_number	1
_symmetry_cell_setting	triclinic
loop_
_symmetry_equiv_pos_as_xyz
  x,y,z
_cell_length_a	17.640112
_cell_length_b	13.897448
_cell_length_c	17.638773
_cell_angle_alpha	101.189970
_cell_angle_beta	87.800676
_cell_angle_gamma	101.242525
loop_
_atom_site_label
_atom_site_type_symbol
_atom_site_fract_x
_atom_site_fract_y
_atom_site_fract_z
Zn1	Zn	1.247758	-0.124000	-0.195076
Zn2	Zn	1.222017	-0.260330	-0.068096
Zn3	Zn	1.095106	-0.136719	-0.093724
Zn4	Zn	1.120740	-0.322943	-0.220675
O5	O	1.171405	-0.210998	-0.144393
O6	O	1.350614	-0.110558	-0.156793
O7	O	1.183681	-0.223052	0.034776
O8	O	1.115401	-0.000042	-0.107181
O9	O	1.331702	-0.210719	-0.063501
O10	O	1.227554	0.009302	-0.181644
O11	O	1.090441	-0.132236	0.015947
O12	O	0.992236	-0.192949	-0.132003
O13	O	1.159090	-0.317434	-0.323550
O14	O	1.011069	-0.329767	-0.225273
O15	O	1.252410	-0.171271	-0.304743
O16	O	1.208537	-0.403625	-0.088323
O17	O	1.134129	-0.449627	-0.200422
C18	C	0.974098	-0.269533	-0.184197
C19	C	0.889693	-0.294602	-0.201244
C20	C	0.563038	-0.020541	-0.014898
C21	C	0.483729	-0.044118	-0.030926
C22	C	0.503360	-0.186723	-0.127881
C23	C	0.582673	-0.163155	-0.111863
C24	C	0.612506	-0.080063	-0.055370
C25	C	0.632141	-0.222678	-0.152336
C26	C	0.711446	-0.199114	-0.136317
C27	C	0.741285	-0.116028	-0.079825
C28	C	0.691811	-0.056500	-0.039351
C29	C	0.602306	-0.305773	-0.208824
C30	C	0.651773	-0.365296	-0.249297
C31	C	0.731081	-0.341729	-0.233282
C32	C	0.760920	-0.258643	-0.176790
C33	C	0.780555	-0.401257	-0.273756
C34	C	0.859861	-0.377694	-0.257736
C35	C	0.840226	-0.235079	-0.160771
C36	C	1.171345	-0.461625	-0.144382
C37	C	1.171394	-0.568828	-0.144388
C38	C	1.171484	-0.765109	-0.144420
C39	C	1.171432	-0.655885	-0.144405
C40	C	1.369483	-0.152235	-0.104433
C41	C	1.453892	-0.127194	-0.087405
C42	C	1.211481	-0.249918	-0.342472
C43	C	1.228558	-0.266504	-0.426881
C44	C	1.171489	0.040610	-0.144416
C45	C	1.171525	0.147830	-0.144426
C46	C	1.301170	-0.337158	-0.536051
C47	C	1.285117	-0.321568	-0.456737
C48	C	1.188032	-0.227002	-0.476334
C49	C	1.204080	-0.242580	-0.555652
C50	C	1.260649	-0.297659	-0.585504
C51	C	1.163559	-0.203081	-0.605104
C52	C	1.179602	-0.218662	-0.684415
C53	C	1.236167	-0.273742	-0.714273
C54	C	1.276692	-0.313240	-0.664814
C55	C	1.106986	-0.148008	-0.575251
C56	C	1.066465	-0.108510	-0.624703
C57	C	1.082512	-0.124084	-0.704015
C58	C	1.139077	-0.179164	-0.733873
C59	C	1.041987	-0.084586	-0.753474
C60	C	1.058030	-0.100167	-0.832784
C61	C	1.155120	-0.194745	-0.813184
C62	C	1.131530	-0.172147	0.052925
C63	C	1.114599	-0.155246	0.137364
H64	H	0.864519	-0.167406	-0.114780
H65	H	0.537730	-0.324956	-0.221865
H66	H	0.900139	-0.426162	-0.290694
O67	O	1.356120	-0.390604	-0.565179
C68	C	1.423819	-0.456580	-0.678690
C69	C	1.361589	-0.396013	-0.645801
H70	H	1.428249	-0.460991	-0.743879
H71	H	1.481938	-0.418422	-0.650805
H72	H	1.407299	-0.535234	-0.665733
H73	H	1.378036	-0.317352	-0.658748
H74	H	1.303487	-0.434250	-0.673686
O75	O	0.591892	0.060183	0.040031
C76	C	0.564063	0.199182	0.134492
C77	C	0.531282	0.107790	0.072319
H78	H	0.515079	0.237711	0.160604
H79	H	0.593098	0.173855	0.181802
H80	H	0.608300	0.253683	0.107056
H81	H	0.487017	0.053251	0.099685
H82	H	0.502295	0.133191	0.025016
H83	H	1.201191	-0.239586	-0.837490
O84	O	0.474400	-0.267541	-0.182674
C85	C	0.457600	-0.446088	-0.224267
C86	C	0.490413	-0.354655	-0.162141
H87	H	0.470548	-0.516540	-0.207696
H88	H	0.392411	-0.452797	-0.228769
H89	H	0.485597	-0.436600	-0.282364
H90	H	0.462474	-0.364078	-0.104010
H91	H	0.555604	-0.347975	-0.157706
O92	O	1.324574	-0.359980	-0.408802
C93	C	1.422519	-0.455508	-0.397744
C94	C	1.377913	-0.412036	-0.452112
H95	H	1.465643	-0.497624	-0.432741
H96	H	1.454792	-0.392193	-0.352611
H97	H	1.380099	-0.508952	-0.367630
H98	H	1.420281	-0.358605	-0.482279
H99	H	1.345629	-0.475403	-0.497198
O100	O	1.133133	-0.173485	-0.447201
C101	C	1.065356	-0.107614	-0.333712
C102	C	1.127559	-0.168225	-0.366598
H103	H	1.060818	-0.103360	-0.268543
H104	H	1.081869	-0.028904	-0.346561
H105	H	1.007286	-0.145770	-0.361701
H106	H	1.185652	-0.130155	-0.338628
H107	H	1.110980	-0.246934	-0.353758
O108	O	1.011464	-0.055135	-0.595624
C109	C	0.890801	-0.054992	-0.526801
C110	C	0.953041	-0.115548	-0.559679
H111	H	0.843543	-0.103817	-0.497747
H112	H	0.918125	0.013063	-0.482596
H113	H	0.864634	-0.029405	-0.575778
H114	H	0.979230	-0.141205	-0.510755
H115	H	0.925676	-0.183555	-0.603905
H116	H	0.443455	0.004365	0.002031
O117	O	1.331642	-0.366686	-0.693942
C118	C	1.399341	-0.432663	-0.807453
C119	C	1.337112	-0.372096	-0.774564
H120	H	1.403772	-0.437074	-0.872642
H121	H	1.457460	-0.394505	-0.779568
H122	H	1.382821	-0.511317	-0.794496
H123	H	1.353558	-0.293435	-0.787511
H124	H	1.279009	-0.410333	-0.802449
H125	H	1.093918	-0.135335	-0.510672
H126	H	0.805861	-0.096846	-0.066782
H127	H	0.995923	-0.039749	-0.729157
O128	O	0.622770	-0.445892	-0.304262
C129	C	0.553949	-0.505794	-0.424830
C130	C	0.586772	-0.414435	-0.362646
H131	H	0.524823	-0.480397	-0.472040
H132	H	0.602904	-0.544295	-0.451073
H133	H	0.509771	-0.560343	-0.397377
H134	H	0.630939	-0.359816	-0.390040
H135	H	0.537775	-0.376013	-0.336408
H136	H	1.249229	-0.286426	-0.778854
O137	O	1.018551	-0.061860	-0.880766
C138	C	0.894308	-0.058161	-0.931138
C139	C	0.938924	-0.101598	-0.876754
H140	H	0.829924	-0.090288	-0.927925
H141	H	0.904454	0.026643	-0.912860
H142	H	0.915532	-0.078735	-0.992938
H143	H	0.917728	-0.081100	-0.814938
H144	H	0.928778	-0.186394	-0.895097
O145	O	0.720665	0.024223	0.015577
C146	C	0.692836	0.163223	0.110039
C147	C	0.660055	0.071831	0.047865
H148	H	0.643852	0.201752	0.136150
H149	H	0.721871	0.137895	0.157349
H150	H	0.737073	0.217724	0.082603
H151	H	0.615790	0.017291	0.075232
H152	H	0.631069	0.097232	0.000563
H153	H	0.756252	-0.468916	-0.319746
