data_functionalizedCrystal
_audit_creation_method	'MofGen! by Chris Wilmer'
_symmetry_space_group_name_H-M	'P1'
_symmetry_Int_Tables_number	1
_symmetry_cell_setting	triclinic
loop_
_symmetry_equiv_pos_as_xyz
  x,y,z
_cell_length_a	15.995300
_cell_length_b	14.853569
_cell_length_c	13.330367
_cell_angle_alpha	89.994419
_cell_angle_beta	89.999902
_cell_angle_gamma	83.553686
loop_
_atom_site_label
_atom_site_type_symbol
_atom_site_fract_x
_atom_site_fract_y
_atom_site_fract_z
O1	O	0.109326	1.196199	-0.083367
O2	O	0.122347	0.933720	-0.083378
O3	O	-0.006046	1.072158	-0.083377
O4	O	0.237718	1.057761	-0.083368
O5	O	-0.006049	1.072138	0.083470
O6	O	0.122344	0.933700	0.083469
O7	O	0.109323	1.196179	0.083480
Cu8	Cu	0.115833	1.064938	0.098709
Cu9	Cu	0.115837	1.064961	-0.098607
O10	O	0.237716	1.057741	0.083479
C11	C	0.121755	0.900122	0.000044
C12	C	0.119987	0.800041	0.000039
C13	C	-0.037243	1.071561	0.000043
C14	C	-0.130198	1.069801	0.000033
C15	C	0.042889	0.763784	0.000033
C16	C	0.195423	0.742259	0.000050
C17	C	0.193764	0.648227	0.000051
C18	C	0.116666	0.611970	0.000045
C19	C	0.041227	0.669744	0.000037
C20	C	0.269201	0.590446	0.000069
C21	C	0.267545	0.496409	0.000071
C22	C	0.190446	0.460149	0.000057
C23	C	0.115004	0.517930	0.000049
C24	C	0.037906	0.481672	0.000042
C25	C	-0.037537	0.539451	0.000026
C26	C	-0.035872	0.633484	0.000023
C27	C	0.188781	0.366116	0.000060
C28	C	0.036244	0.387632	0.000046
C29	C	-0.300385	1.066549	0.000042
C30	C	-0.347736	1.165121	0.000044
C31	C	-0.444426	1.163322	0.000427
C32	C	-0.467945	1.063350	0.000051
C33	C	-0.426870	1.014434	0.095138
C34	C	-0.330233	1.016928	0.095214
C35	C	-0.329956	1.015491	-0.094529
C36	C	-0.426900	1.015500	-0.095775
C37	C	-0.562643	1.061536	0.000059
C38	C	-0.205687	1.068360	0.000041
C39	C	0.268913	1.058338	0.000057
C40	C	0.361868	1.060099	0.000061
C41	C	0.109914	1.229777	0.000056
C42	C	0.111683	1.329858	0.000054
N43	N	0.115830	1.064928	0.237490
N44	N	0.115833	1.064979	-0.237389
C45	C	0.172666	1.003658	0.710113
C46	C	0.059000	1.126289	0.710082
C47	C	0.058997	1.126279	0.605063
C48	C	0.115831	1.064958	0.552565
C49	C	0.172667	1.003648	0.605085
C50	C	0.002168	1.187594	0.552536
C51	C	0.002164	1.187587	0.447511
C52	C	0.058994	1.126261	0.395010
C53	C	0.115832	1.064948	0.447537
C54	C	0.172666	1.003628	0.395039
C55	C	0.229500	0.942309	0.447563
C56	C	0.229498	0.942323	0.552585
C57	C	0.058997	1.126248	0.289989
C58	C	0.172666	1.003617	0.290010
H59	H	-0.026539	0.358119	0.000036
Br60	Br	0.300051	0.791466	0.000064
H61	H	-0.100310	0.509917	0.000015
Br62	Br	-0.059493	0.842192	0.000006
Br63	Br	0.249791	0.920438	0.781389
Br64	Br	-0.018121	1.209515	0.781325
H65	H	-0.097293	0.680535	0.000012
Br66	Br	0.373827	0.639657	0.000076
H67	H	0.328975	0.449373	0.000082
H68	H	0.250205	0.319077	0.000082
Br69	Br	-0.295717	1.069587	-0.214693
H70	H	-0.328023	1.204162	0.068083
Br71	Br	-0.474065	1.070341	0.213538
H72	H	-0.472844	1.201758	-0.067719
Br73	Br	-0.450507	0.891996	0.100588
H74	H	-0.329210	1.204736	-0.068143
H75	H	-0.472229	1.201575	0.068991
Br76	Br	-0.299626	1.075652	0.214141
Br77	Br	-0.276579	0.896291	0.101980
H78	H	-0.454199	1.051222	-0.166122
Br79	Br	-0.452707	0.894057	-0.105902
H80	H	-0.298270	0.942812	-0.095438
H81	H	0.012726	1.176177	0.247228
Br82	Br	0.249795	0.920385	0.218770
H83	H	0.275771	0.892400	0.595357
Br84	Br	0.306637	0.859100	0.376304
H85	H	-0.044114	1.237514	0.404752
Br86	Br	-0.074953	1.270820	0.623779
