data_functionalizedCrystal
_audit_creation_method	'MofGen! by Chris Wilmer'
_symmetry_space_group_name_H-M	'P1'
_symmetry_Int_Tables_number	1
_symmetry_cell_setting	triclinic
loop_
_symmetry_equiv_pos_as_xyz
  x,y,z
_cell_length_a	21.295411
_cell_length_b	15.298093
_cell_length_c	21.295419
_cell_angle_alpha	80.325640
_cell_angle_beta	89.994777
_cell_angle_gamma	99.657499
loop_
_atom_site_label
_atom_site_type_symbol
_atom_site_fract_x
_atom_site_fract_y
_atom_site_fract_z
Zn1	Zn	-0.189337	1.379255	-0.417231
Zn2	Zn	-0.084100	1.379191	-0.522475
Zn3	Zn	-0.102310	1.228391	-0.399014
Zn4	Zn	-0.207548	1.228423	-0.504253
O5	O	-0.145824	1.303815	-0.460743
O6	O	-0.160135	1.505480	-0.446442
O7	O	0.001569	1.359147	-0.506100
O8	O	-0.113854	1.248417	-0.313343
O9	O	-0.082818	1.505433	-0.523764
O10	O	-0.177792	1.359256	-0.326727
O11	O	-0.011810	1.248355	-0.415394
O12	O	-0.131512	1.102161	-0.397724
O13	O	-0.293217	1.248471	-0.492707
O14	O	-0.208830	1.102185	-0.475042
O15	O	-0.279837	1.359287	-0.428772
O16	O	-0.100477	1.359178	-0.608145
O17	O	-0.191173	1.248409	-0.594758
C18	C	-0.145836	1.303814	-0.624295
C19	C	-0.145852	1.303897	-0.694273
C20	C	-0.310005	1.303890	-0.460739
C21	C	-0.379969	1.303922	-0.460737
C22	C	-0.174124	1.069442	-0.432430
C23	C	-0.186246	0.969177	-0.420332
C24	C	-0.405871	1.361621	-0.427444
C25	C	-0.471613	1.361620	-0.427417
C26	C	-0.511451	1.303929	-0.460694
C27	C	-0.485543	1.246218	-0.493989
C28	C	-0.419803	1.246215	-0.494010
N29	N	-0.615518	1.297009	-0.514927
N30	N	-0.677969	1.297017	-0.514905
C31	C	-0.709525	1.303934	-0.460631
N32	N	-0.676270	1.310860	-0.406380
N33	N	-0.613813	1.310856	-0.406403
C34	C	-0.582737	1.303926	-0.460675
C35	C	-0.806712	1.361635	-0.427306
C36	C	-0.872456	1.361628	-0.427276
C37	C	-0.886385	1.246231	-0.493855
C38	C	-0.820642	1.246234	-0.493878
C39	C	-0.780809	1.303941	-0.460605
C40	C	0.017725	1.303792	-0.460708
C41	C	0.087710	1.303935	-0.460554
C42	C	-0.117414	1.539103	-0.489167
C43	C	-0.105307	1.639368	-0.501280
C44	C	-0.232189	1.922099	-0.374383
C45	C	-0.243565	1.827894	-0.363000
C46	C	-0.209002	1.780758	-0.397569
C47	C	-0.163060	1.827836	-0.443523
C48	C	-0.151680	1.922050	-0.454903
C49	C	-0.128492	1.780709	-0.478090
C50	C	-0.082551	1.827787	-0.524043
C51	C	-0.071173	1.921991	-0.535422
C52	C	-0.105737	1.969127	-0.500853
C53	C	-0.139873	1.686495	-0.466709
C54	C	-0.059364	1.686446	-0.547230
C55	C	-0.047988	1.780651	-0.558612
C56	C	-0.145823	1.303840	-0.296556
C57	C	-0.145822	1.303851	-0.226589
C58	C	-0.193040	1.246180	-0.186757
C59	C	-0.193047	1.246188	-0.121015
C60	C	-0.145828	1.303858	-0.095107
C61	C	-0.098606	1.361540	-0.134949
C62	C	-0.098603	1.361537	-0.200690
N63	N	-0.089898	1.310756	0.007277
N64	N	-0.089903	1.310755	0.069729
C65	C	-0.145834	1.303875	0.102965
N66	N	-0.201763	1.296979	0.071393
N67	N	-0.201758	1.296976	0.008936
C68	C	-0.145826	1.303869	-0.023823
C69	C	-0.193064	1.246210	0.214083
C70	C	-0.193072	1.246225	0.279824
C71	C	-0.098625	1.361573	0.265890
C72	C	-0.098622	1.361562	0.200149
C73	C	-0.145841	1.303876	0.174249
H74	H	-0.373442	1.408609	-0.400350
H75	H	-0.060152	1.408501	-0.233122
H76	H	-0.799553	1.199254	-0.520993
H77	H	-0.060180	1.408532	0.286983
H78	H	-0.231519	1.199251	0.192993
H79	H	-0.231525	1.199265	0.312257
H80	H	-0.492707	1.408603	-0.400302
H81	H	-0.280971	1.789570	-0.325585
H82	H	-0.010582	1.818995	-0.596028
H83	H	-0.398716	1.199225	-0.521120
H84	H	-0.517984	1.199243	-0.521081
H85	H	-0.231499	1.199224	-0.088578
H86	H	-0.033760	1.960319	-0.572835
H87	H	-0.918821	1.199249	-0.520943
H88	H	-0.031220	1.648068	-0.575379
H89	H	-0.774278	1.408618	-0.400209
H90	H	-0.177278	1.648174	-0.429292
H91	H	-0.231488	1.199204	-0.207839
H92	H	-0.060170	1.408520	0.167716
H93	H	-0.218264	1.704053	-0.388297
H94	H	-0.260322	1.960486	-0.346238
H95	H	-0.096485	2.045837	-0.510126
H96	H	-0.060159	1.408498	-0.113852
H97	H	-0.893543	1.408612	-0.400162
