data_functionalizedCrystal
_audit_creation_method	'MofGen! by Chris Wilmer'
_symmetry_space_group_name_H-M	'P1'
_symmetry_Int_Tables_number	1
_symmetry_cell_setting	triclinic
loop_
_symmetry_equiv_pos_as_xyz
  x,y,z
_cell_length_a	14.971482
_cell_length_b	19.188924
_cell_length_c	17.666332
_cell_angle_alpha	90.007291
_cell_angle_beta	90.008698
_cell_angle_gamma	83.377286
loop_
_atom_site_label
_atom_site_type_symbol
_atom_site_fract_x
_atom_site_fract_y
_atom_site_fract_z
O1	O	1.186469	0.090974	0.062942
O2	O	0.926011	0.101873	0.062946
O3	O	1.063760	-0.005208	0.062935
O4	O	1.048721	0.198055	0.062953
O5	O	1.063736	-0.005211	-0.062962
O6	O	0.925987	0.101870	-0.062951
O7	O	1.186445	0.090971	-0.062955
Cu8	Cu	1.056214	0.096420	-0.074448
Cu9	Cu	1.056242	0.096424	0.074440
O10	O	1.048697	0.198052	-0.062944
C11	C	0.892677	0.101384	-0.000002
C12	C	0.793387	0.099925	-0.000001
C13	C	0.746733	0.099236	-0.068628
C14	C	0.653442	0.097854	-0.068629
C15	C	0.606806	0.097166	-0.000002
C16	C	0.653467	0.097853	0.068631
C17	C	0.746757	0.099230	0.068631
C18	C	0.459020	0.094984	0.068626
C19	C	0.365723	0.093608	0.068626
C20	C	0.365705	0.093608	-0.068634
C21	C	0.458995	0.094985	-0.068634
C22	C	0.505650	0.095673	-0.000001
C23	C	1.063262	-0.031223	-0.000014
C24	C	1.061803	-0.108732	-0.000016
C25	C	1.061135	-0.145131	0.068611
C26	C	1.059752	-0.217958	0.068616
C27	C	1.059054	-0.254385	-0.000008
C28	C	1.059717	-0.217977	-0.068644
C29	C	1.061091	-0.145150	-0.068648
N30	N	1.107786	-0.373893	-0.051085
N31	N	1.106483	-0.443076	-0.051076
C32	C	1.054911	-0.473808	-0.000001
N33	N	1.004703	-0.432745	0.051078
N34	N	1.006011	-0.363556	0.051071
C35	C	1.057563	-0.333354	-0.000012
C36	C	1.052742	-0.589174	0.068637
C37	C	1.051353	-0.662002	0.068639
C38	C	1.051327	-0.662020	-0.068623
C39	C	1.052707	-0.589193	-0.068624
C40	C	1.053418	-0.552775	0.000008
C41	C	1.219780	0.091460	-0.000005
C42	C	1.319069	0.092919	-0.000001
C43	C	1.049195	0.224067	0.000007
C44	C	1.050653	0.301576	0.000014
N45	N	1.056200	0.096417	-0.179167
C46	C	1.110272	0.138836	-0.218768
C47	C	1.110286	0.138834	-0.298015
C48	C	1.056212	0.096421	-0.337660
C49	C	1.002137	0.053994	-0.298050
C50	C	1.002131	0.053991	-0.218804
N51	N	0.977876	0.094450	-0.462098
N52	N	0.977884	0.094456	-0.537379
C53	C	1.056228	0.096424	-0.576424
N54	N	1.134565	0.098399	-0.537344
N55	N	1.134556	0.098397	-0.462057
C56	C	1.056213	0.096418	-0.423589
C57	C	1.110320	0.138843	-0.701953
C58	C	1.110337	0.138836	-0.781202
C59	C	1.002179	0.053999	-0.781235
C60	C	1.002171	0.054002	-0.701988
C61	C	1.056240	0.096428	-0.662351
N62	N	1.056263	0.096421	0.179159
H63	H	0.784742	0.099792	0.124514
H64	H	0.496963	0.095550	-0.124516
H65	H	1.059146	-0.247640	-0.124519
C66	C	1.061834	-0.105110	-0.144140
H67	H	1.061224	-0.137232	-0.185012
H68	H	1.010225	-0.071414	-0.146994
H69	H	1.114528	-0.081989	-0.146993
H70	H	1.053316	-0.559521	0.124521
H71	H	1.050804	-0.691637	0.124526
C72	C	0.942698	0.007346	-0.824834
H73	H	0.950441	0.013425	-0.877703
H74	H	0.959504	-0.040405	-0.811851
H75	H	0.881445	0.020246	-0.811856
H76	H	0.327754	0.093048	0.124508
H77	H	1.154303	0.173380	-0.186501
C78	C	1.050552	-0.702080	-0.144109
H79	H	1.049640	-0.750667	-0.134279
H80	H	0.998623	-0.684863	-0.172304
H81	H	1.102925	-0.695435	-0.172310
H82	H	1.053258	-0.559557	-0.124507
C83	C	1.169759	0.185504	-0.341585
H84	H	1.201953	0.210774	-0.306629
H85	H	1.211040	0.156953	-0.372501
H86	H	1.132962	0.217589	-0.372495
C87	C	0.798027	0.099981	-0.144119
H88	H	0.756878	0.099362	-0.184990
H89	H	0.827441	0.141197	-0.146979
H90	H	0.841398	0.059824	-0.146966
C91	C	0.942654	0.007343	-0.341655
H92	H	0.950394	0.013425	-0.394523
H93	H	0.959462	-0.040409	-0.328676
H94	H	0.881402	0.020242	-0.328674
C95	C	0.314337	0.093161	-0.144128
H96	H	0.252082	0.092329	-0.134301
H97	H	0.322766	0.134168	-0.172101
H98	H	0.336445	0.052793	-0.172549
H99	H	0.497003	0.095544	0.124514
H100	H	0.958098	0.019448	-0.186561
H101	H	1.154347	0.173388	-0.669680
C102	C	0.602172	0.097107	0.144121
H103	H	0.643322	0.097712	0.184993
H104	H	0.558800	0.137257	0.146971
H105	H	0.572760	0.055884	0.146977
C106	C	1.061902	-0.105074	0.144102
H107	H	1.061297	-0.137186	0.184975
H108	H	1.114583	-0.081942	0.146957
H109	H	1.010281	-0.071384	0.146953
C110	C	1.169818	0.185500	-0.824763
H111	H	1.202010	0.210769	-0.789804
H112	H	1.211103	0.156945	-0.855673
H113	H	1.133030	0.217586	-0.855679
C114	C	0.942656	0.007371	-0.658421
H115	H	0.950393	0.013447	-0.605548
H116	H	0.881417	0.020283	-0.671430
H117	H	0.959449	-0.040389	-0.671402
C118	C	0.602125	0.097102	-0.144119
H119	H	0.643259	0.097718	-0.184990
H120	H	0.572717	0.055881	-0.146982
H121	H	0.558747	0.137254	-0.146963
H122	H	1.059202	-0.247600	0.124502
