data_functionalizedCrystal
_audit_creation_method	'MofGen! by Chris Wilmer'
_symmetry_space_group_name_H-M	'P1'
_symmetry_Int_Tables_number	1
_symmetry_cell_setting	triclinic
loop_
_symmetry_equiv_pos_as_xyz
  x,y,z
_cell_length_a	17.699083
_cell_length_b	16.992695
_cell_length_c	16.776229
_cell_angle_alpha	89.993259
_cell_angle_beta	89.998886
_cell_angle_gamma	86.975619
loop_
_atom_site_label
_atom_site_type_symbol
_atom_site_fract_x
_atom_site_fract_y
_atom_site_fract_z
O1	O	1.010251	0.099146	-0.066177
O2	O	1.510251	0.599146	0.433823
O3	O	0.790676	0.112045	-0.066203
O4	O	1.290676	0.612045	0.433797
O5	O	0.899583	-0.008546	-0.066184
O6	O	1.399583	0.491454	0.433816
O7	O	0.901344	0.219736	-0.066196
O8	O	1.401344	0.719736	0.433804
O9	O	0.899568	-0.008553	0.066393
O10	O	1.399568	0.491447	0.566393
O11	O	0.790660	0.112037	0.066374
O12	O	1.290660	0.612037	0.566374
O13	O	1.010235	0.099138	0.066400
O14	O	1.510235	0.599138	0.566400
Zn15	Zn	0.900445	0.105587	0.087436
Zn16	Zn	1.400445	0.605587	0.587436
Zn17	Zn	0.900466	0.105596	-0.087239
Zn18	Zn	1.400466	0.605596	0.412761
O19	O	0.901328	0.219729	0.066381
O20	O	1.401328	0.719729	0.566381
C21	C	0.762442	0.111579	0.000082
C22	C	1.262442	0.611579	0.500082
C23	C	0.678338	0.110192	0.000072
C24	C	1.178338	0.610192	0.500072
C25	C	0.634124	0.180976	0.000069
C26	C	1.134124	0.680976	0.500069
C27	C	0.555099	0.179669	0.000079
C28	C	1.055099	0.679669	0.500079
C29	C	0.520290	0.107576	0.000087
C30	C	1.020290	0.607576	0.500087
C31	C	0.564510	0.036787	0.000093
C32	C	1.064510	0.536787	0.500093
C33	C	0.643533	0.038095	0.000089
C34	C	1.143533	0.538095	0.500089
C35	C	0.245818	0.031509	0.000113
C36	C	0.745818	0.531509	0.500113
C37	C	0.166789	0.030206	0.000116
C38	C	0.666789	0.530206	0.500116
C39	C	0.157384	0.173082	0.000104
C40	C	0.657384	0.673082	0.500104
C41	C	0.236408	0.174391	0.000099
C42	C	0.736408	0.674391	0.500099
C43	C	0.280621	0.103602	0.000109
C44	C	0.780621	0.603602	0.500109
C45	C	0.366308	0.105020	0.000099
C46	C	0.866308	0.605020	0.500099
C47	C	0.434604	0.106157	0.000091
C48	C	0.934604	0.606157	0.500091
C49	C	0.897311	-0.037758	0.000104
C50	C	1.397311	0.462242	0.500104
C51	C	0.890554	-0.124789	0.000103
C52	C	1.390554	0.375211	0.500103
C53	C	0.955751	-0.175154	0.000112
C54	C	1.455751	0.324846	0.500112
C55	C	0.949398	-0.256928	0.000104
C56	C	1.449398	0.243072	0.500104
C57	C	0.877846	-0.288336	0.000092
C58	C	1.377846	0.211664	0.500092
C59	C	0.812643	-0.237965	0.000081
C60	C	1.312643	0.262035	0.500081
C61	C	0.818998	-0.156192	0.000084
C62	C	1.318998	0.343808	0.500084
C63	C	0.851510	-0.531884	0.000078
C64	C	1.351510	-0.031884	0.500078
C65	C	0.845160	-0.613663	0.000078
C66	C	1.345160	-0.113663	0.500078
C67	C	0.981915	-0.632621	0.000099
C68	C	1.481915	-0.132621	0.500099
C69	C	0.988263	-0.550845	0.000106
C70	C	1.488263	-0.050845	0.500106
C71	C	0.923061	-0.500481	0.000091
C72	C	1.423061	-0.000481	0.500091
N73	N	0.871350	-0.371923	0.000086
N74	N	1.371350	0.128077	0.500086
N75	N	0.929558	-0.416897	0.000091
N76	N	1.429558	0.083103	0.500091
C77	C	1.038469	0.099604	0.000113
C78	C	1.538469	0.599604	0.500113
C79	C	1.122574	0.100991	0.000118
C80	C	1.622574	0.600991	0.500118
C81	C	0.903601	0.248941	0.000091
C82	C	1.403601	0.748941	0.500091
C83	C	0.910358	0.335972	0.000087
C84	C	1.410358	0.835972	0.500087
N85	N	0.900437	0.105579	0.206647
N86	N	1.400437	0.605579	0.706647
N87	N	0.900481	0.105597	-0.206450
N88	N	1.400481	0.605597	0.293550
C89	C	0.948678	0.052204	0.248373
C90	C	1.448678	0.552204	0.748373
C91	C	0.948682	0.052203	0.331825
C92	C	1.448682	0.552203	0.831825
C93	C	0.900448	0.105582	0.373550
C94	C	1.400448	0.605582	0.873550
C95	C	0.852202	0.158961	0.331819
C96	C	1.352202	0.658961	0.831819
C97	C	0.852194	0.158957	0.248368
C98	C	1.352194	0.658957	0.748368
C99	C	0.852230	0.158976	0.668366
C100	C	1.352230	0.658976	1.168366
C101	C	0.852243	0.158977	0.751822
C102	C	1.352243	0.658977	1.251822
C103	C	0.948718	0.052222	0.751823
C104	C	1.448718	0.552222	1.251823
C105	C	0.948710	0.052219	0.668372
C106	C	1.448710	0.552219	1.168372
C107	C	0.900461	0.105594	0.626648
C108	C	1.400461	0.605594	1.126648
C109	C	0.900456	0.105593	0.536160
C110	C	1.400456	0.605593	1.036160
C111	C	0.900456	0.105588	0.464037
C112	C	1.400456	0.605588	0.964037
H113	H	0.536162	-0.021912	0.000112
H114	H	1.036162	0.478088	0.500112
O115	O	0.743121	-0.268436	-0.000073
O116	O	1.243121	0.231564	0.499927
C117	C	0.703080	-0.242664	-0.068731
C118	C	1.203080	0.257336	0.431269
H119	H	0.744841	-0.225726	-0.116716
H120	H	1.244841	0.274274	0.383284
H121	H	0.667890	-0.292139	-0.091785
H122	H	1.167890	0.207861	0.408215
H123	H	0.664130	-0.189289	-0.053214
H124	H	1.164130	0.310711	0.446786
O125	O	0.686453	-0.030685	-0.000053
O126	O	1.186453	0.469315	0.499947
C127	C	0.669991	-0.074472	-0.068702
C128	C	1.169991	0.425528	0.431298
H129	H	0.645513	-0.033029	-0.116695
H130	H	1.145513	0.466971	0.383305
H131	H	0.724094	-0.106014	-0.091749
H132	H	1.224094	0.393986	0.408251
H133	H	0.627057	-0.119778	-0.053173
H134	H	1.127057	0.380222	0.446827
O135	O	0.805418	0.210784	0.372471
O136	O	1.305418	0.710784	0.872471
C137	C	0.815756	0.199332	0.455075
C138	C	1.315756	0.699332	0.955075
H139	H	0.874152	0.169952	0.466470
H140	H	1.374152	0.669952	0.966470
H141	H	0.810928	0.258719	0.486780
H142	H	1.310928	0.758719	0.986780
H143	H	0.770549	0.160066	0.478771
H144	H	1.270549	0.660066	0.978771
H145	H	0.987959	0.008740	0.214406
H146	H	1.487959	0.508740	0.714406
O147	O	0.133096	-0.039898	0.000164
O148	O	0.633096	0.460102	0.500164
C149	C	0.189063	-0.102098	0.000154
C150	C	0.689063	0.397902	0.500154
H151	H	0.244017	-0.080227	0.025249
H152	H	0.744017	0.419773	0.525249
H153	H	0.169517	-0.152437	0.038653
H154	H	0.669517	0.347563	0.538653
H155	H	0.198913	-0.123929	-0.063447
H156	H	0.698913	0.376071	0.436553
H157	H	1.034999	-0.673635	0.000110
H158	H	1.534999	-0.173635	0.500110
O159	O	0.775592	-0.644044	0.000023
O160	O	1.275592	-0.144044	0.500023
C161	C	0.719404	-0.582057	0.000027
C162	C	1.219404	-0.082057	0.500027
H163	H	0.743981	-0.526541	-0.025066
H164	H	1.243981	-0.026541	0.474934
H165	H	0.669759	-0.599054	-0.038478
H166	H	1.169759	-0.099054	0.461522
H167	H	0.699038	-0.570454	0.063624
H168	H	1.199038	-0.070454	0.563624
H169	H	0.812910	0.202420	0.214396
H170	H	1.312910	0.702420	0.714396
H171	H	1.002489	-0.297933	0.000112
H172	H	1.502489	0.202067	0.500112
O173	O	1.025316	-0.144778	0.000086
O174	O	1.525316	0.355222	0.500086
C175	C	1.081497	-0.206771	0.000109
C176	C	1.581497	0.293229	0.500109
H177	H	1.056923	-0.262278	-0.024993
H178	H	1.556923	0.237722	0.475007
H179	H	1.131158	-0.189772	-0.038379
H180	H	1.631158	0.310228	0.461621
H181	H	1.101841	-0.218391	0.063713
H182	H	1.601841	0.281609	0.563713
H183	H	1.046528	-0.525279	0.000115
H184	H	1.546528	-0.025279	0.500115
H185	H	0.765906	-0.115186	0.000077
H186	H	1.265906	0.384814	0.500077
O187	O	0.270342	0.244353	0.000046
O188	O	0.770342	0.744353	0.500046
C189	C	0.349571	0.230328	0.000057
C190	C	0.849571	0.730328	0.500057
H191	H	0.364403	0.169108	-0.025031
H192	H	0.864403	0.669108	0.474969
H193	H	0.376596	0.276446	-0.038448
H194	H	0.876596	0.776446	0.461552
H195	H	0.371780	0.234091	0.063657
H196	H	0.871780	0.734091	0.563657
H197	H	0.987989	0.008755	0.634402
H198	H	1.487989	0.508755	1.134402
O199	O	0.667813	0.251077	0.000095
O200	O	1.167813	0.751077	0.500095
C201	C	0.611839	0.313271	0.000075
C202	C	1.111839	0.813271	0.500075
H203	H	0.556889	0.291392	0.025180
H204	H	1.056889	0.791392	0.525180
H205	H	0.631381	0.363612	0.038561
H206	H	1.131381	0.863612	0.538561
H207	H	0.601984	0.335102	-0.063529
H208	H	1.101984	0.835102	0.436471
H209	H	0.988002	0.008759	0.785804
H210	H	1.488002	0.508759	1.285804
O211	O	0.788195	-0.482938	-0.000072
O212	O	1.288195	0.017062	0.499928
C213	C	0.787790	-0.435050	-0.068726
C214	C	1.287790	0.064950	0.431274
H215	H	0.824686	-0.465064	-0.116712
H216	H	1.324686	0.034936	0.383288
H217	H	0.727389	-0.425744	-0.091781
H218	H	1.227389	0.074256	0.408219
H219	H	0.810964	-0.375621	-0.053201
H220	H	1.310964	0.124379	0.446799
O221	O	0.995624	0.000333	0.372234
O222	O	1.495624	0.500333	0.872234
C223	C	1.038188	-0.046787	0.317511
C224	C	1.538188	0.453213	0.817511
H225	H	1.040969	-0.014646	0.258018
H226	H	1.540969	0.485354	0.758018
H227	H	1.097906	-0.058809	0.341614
H228	H	1.597906	0.441191	0.841614
H229	H	1.010109	-0.105006	0.308653
H230	H	1.510109	0.394994	0.808653
H231	H	0.519103	0.237308	0.000075
H232	H	1.019103	0.737308	0.500075
H233	H	0.121377	0.230722	0.000100
H234	H	0.621377	0.730722	0.500100
O235	O	0.288837	-0.037203	0.000007
O236	O	0.788837	0.462797	0.500007
C237	C	0.334812	-0.040730	-0.068668
C238	C	0.834812	0.459270	0.431332
H239	H	0.342574	0.021494	-0.091560
H240	H	0.842574	0.521494	0.408440
H241	H	0.392370	-0.070056	-0.053229
H242	H	0.892370	0.429944	0.446771
H243	H	0.306672	-0.076478	-0.116746
H244	H	0.806672	0.423522	0.383254
H245	H	0.812962	0.202447	0.785794
H246	H	1.312962	0.702447	1.285794
O247	O	0.805343	0.210902	0.627966
O248	O	1.305343	0.710902	1.127966
C249	C	0.762764	0.258003	0.682691
C250	C	1.262764	0.758003	1.182691
H251	H	0.793854	0.258849	0.742171
H252	H	1.293854	0.758849	1.242171
H253	H	0.754999	0.320631	0.658573
H254	H	1.254999	0.820631	1.158573
H255	H	0.705010	0.232619	0.691582
H256	H	1.205010	0.732619	1.191582
