data_functionalizedCrystal
_audit_creation_method	'MofGen! by Chris Wilmer'
_symmetry_space_group_name_H-M	'P1'
_symmetry_Int_Tables_number	1
_symmetry_cell_setting	triclinic
loop_
_symmetry_equiv_pos_as_xyz
  x,y,z
_cell_length_a	19.077142
_cell_length_b	19.077114
_cell_length_c	19.076919
_cell_angle_alpha	85.527261
_cell_angle_beta	89.925643
_cell_angle_gamma	90.115975
loop_
_atom_site_label
_atom_site_type_symbol
_atom_site_fract_x
_atom_site_fract_y
_atom_site_fract_z
Zn1	Zn	-1.044038	0.340467	-0.453547
Zn2	Zn	-0.544038	0.840467	0.046453
Zn3	Zn	-1.043948	0.453617	-0.340392
Zn4	Zn	-0.543948	0.953617	0.159608
Zn5	Zn	-0.931650	0.331038	-0.330974
Zn6	Zn	-0.431650	0.831038	0.169026
Zn7	Zn	-0.921788	0.453191	-0.453124
Zn8	Zn	-0.421788	0.953191	0.046876
O9	O	-0.985356	0.394578	-0.394509
O10	O	-0.485356	0.894578	0.105491
O11	O	-1.142185	0.359601	-0.442655
O12	O	-0.642185	0.859601	0.057345
O13	O	-1.033141	0.433589	-0.240666
O14	O	-0.533141	0.933589	0.259334
O15	O	-0.950723	0.233814	-0.343469
O16	O	-0.450723	0.733814	0.156531
O17	O	-1.142119	0.442732	-0.359520
O18	O	-0.642119	0.942732	0.140480
O19	O	-1.033294	0.240742	-0.433523
O20	O	-0.533294	0.740742	0.066477
O21	O	-0.950636	0.343531	-0.233747
O22	O	-0.450636	0.843531	0.266253
O23	O	-0.832182	0.343118	-0.343059
O24	O	-0.332182	0.843118	0.156941
O25	O	-0.933915	0.442005	-0.551656
O26	O	-0.433915	0.942005	-0.051656
O27	O	-0.824937	0.432862	-0.432802
O28	O	-0.324937	0.932862	0.067198
O29	O	-1.023731	0.359188	-0.551967
O30	O	-0.523731	0.859188	-0.051967
O31	O	-1.023579	0.552035	-0.359110
O32	O	-0.523579	1.052035	0.140890
O33	O	-0.933828	0.551722	-0.441934
O34	O	-0.433828	1.051722	0.058066
C35	C	-0.803108	0.386921	-0.386863
C36	C	-0.303108	0.886921	0.113137
C37	C	-0.725140	0.383663	-0.383609
C38	C	-0.225140	0.883663	0.116391
C39	C	-0.977642	0.577413	-0.401514
C40	C	-0.477642	1.077413	0.098486
C41	C	-0.974405	0.655635	-0.404537
C42	C	-0.474405	1.155635	0.095463
C43	C	-0.684757	0.428923	-0.428737
C44	C	-0.184757	0.928923	0.071263
C45	C	-0.611498	0.425852	-0.425683
C46	C	-0.111498	0.925852	0.074317
C47	C	-0.578624	0.377525	-0.377497
C48	C	-0.078624	0.877525	0.122503
C49	C	-0.619013	0.332260	-0.332367
C50	C	-0.119013	0.832260	0.167633
C51	C	-0.692270	0.335328	-0.335425
C52	C	-0.192270	0.835328	0.164575
C53	C	-0.359930	0.363329	-0.363351
C54	C	0.140070	0.863329	0.136649
C55	C	-0.286667	0.360266	-0.360295
C56	C	0.213333	0.860266	0.139705
C57	C	-0.279158	0.453858	-0.453612
C58	C	0.220842	0.953858	0.046388
C59	C	-0.352417	0.456924	-0.456663
C60	C	0.147583	0.956924	0.043337
C61	C	-0.392799	0.411657	-0.411536
C62	C	0.107201	0.911657	0.088464
N63	N	-0.503742	0.374386	-0.374372
N64	N	-0.003742	0.874386	0.125628
N65	N	-0.467680	0.414792	-0.414664
N66	N	0.032320	0.914792	0.085336
C67	C	-0.168316	0.402262	-0.402177
C68	C	0.331684	0.902262	0.097823
C69	C	-0.246284	0.405526	-0.405423
C70	C	0.253716	0.905526	0.094577
C71	C	-1.019646	0.692526	-0.362875
C72	C	-0.519646	1.192526	0.137125
C73	C	-1.016605	0.766023	-0.365722
C74	C	-0.516605	1.266023	0.134278
C75	C	-0.968320	0.802628	-0.410230
C76	C	-0.468320	1.302628	0.089770
C77	C	-0.923077	0.765732	-0.451897
C78	C	-0.423077	1.265732	0.048103
C79	C	-0.926121	0.692236	-0.449053
C80	C	-0.426121	1.192236	0.050947
C81	C	-0.954203	1.022422	-0.423360
C82	C	-0.454203	1.522422	0.076640
C83	C	-0.951161	1.095923	-0.426200
C84	C	-0.451161	1.595923	0.073800
C85	C	-1.044690	1.096209	-0.340026
C86	C	-0.544690	1.596209	0.159974
C87	C	-1.047728	1.022712	-0.337182
C88	C	-0.547728	1.522712	0.162818
C89	C	-1.002487	0.985822	-0.378852
C90	C	-0.502487	1.485822	0.121148
N91	N	-0.965209	0.877754	-0.413140
N92	N	-0.465209	1.377754	0.086860
N93	N	-1.005602	0.910698	-0.375945
N94	N	-0.505602	1.410698	0.124055
C95	C	-0.977733	0.401601	-0.578059
C96	C	-0.477733	0.901601	-0.078059
C97	C	-0.974485	0.404593	-0.656277
C98	C	-0.474485	0.904593	-0.156277
C99	C	-0.993112	1.211031	-0.387501
C100	C	-0.493112	1.711031	0.112499
C101	C	-0.996402	1.132814	-0.384537
C102	C	-0.496402	1.632814	0.115463
C103	C	-1.019719	0.362883	-0.693187
C104	C	-0.519719	0.862883	-0.193187
C105	C	-1.016658	0.365692	-0.766681
C106	C	-0.516658	0.865692	-0.266681
C107	C	-0.968366	0.410215	-0.803263
C108	C	-0.468366	0.910215	-0.303263
C109	C	-0.923127	0.451928	-0.766348
C110	C	-0.423127	0.951928	-0.266348
C111	C	-0.926185	0.449115	-0.692856
C112	C	-0.426185	0.949115	-0.192856
C113	C	-0.954203	0.423248	-1.023045
C114	C	-0.454203	0.923248	-0.523045
C115	C	-0.951150	0.426060	-1.096543
C116	C	-0.451150	0.926060	-0.596543
C117	C	-1.044681	0.339822	-1.096871
C118	C	-0.544681	0.839822	-0.596871
C119	C	-1.047737	0.337016	-1.023377
C120	C	-0.547737	0.837016	-0.523377
C121	C	-1.002496	0.378726	-0.986468
C122	C	-0.502496	0.878726	-0.486468
N123	N	-0.965238	0.413089	-0.878386
N124	N	-0.465238	0.913089	-0.378386
N125	N	-1.005621	0.375848	-0.911346
N126	N	-0.505621	0.875848	-0.411346
C127	C	-0.992992	0.387534	-0.211673
C128	C	-0.492992	0.887534	0.288327
C129	C	-0.996384	0.384349	-0.133453
C130	C	-0.496384	0.884349	0.366547
H131	H	-0.578621	0.462708	-0.462430
H132	H	-0.078621	0.962708	0.037570
H133	H	-1.058962	0.662727	-0.326629
H134	H	-0.558962	1.162727	0.173371
O135	O	-0.731530	0.291294	-0.291684
O136	O	-0.231530	0.791294	0.208316
C137	C	-0.774172	0.249227	-0.331853
C138	C	-0.274172	0.749227	0.168147
H139	H	-0.749984	0.246163	-0.386201
H140	H	-0.249984	0.746163	0.113799
H141	H	-0.778334	0.194095	-0.304448
H142	H	-0.278334	0.694095	0.195552
H143	H	-0.828677	0.273403	-0.337392
H144	H	-0.328677	0.773403	0.162608
O145	O	-1.060697	0.801736	-0.325287
O146	O	-0.560697	1.301736	0.174713
C147	C	-1.130671	0.787171	-0.343020
C148	C	-0.630671	1.287171	0.156980
H149	H	-1.133105	0.734905	-0.368101
H150	H	-0.633105	1.234905	0.131899
H151	H	-1.164406	0.783959	-0.293500
H152	H	-0.664406	1.283959	0.206500
H153	H	-1.151084	0.830870	-0.381795
H154	H	-0.651084	1.330870	0.118205
O155	O	-1.094701	0.987267	-0.293938
O156	O	-0.594701	1.487267	0.206062
C157	C	-1.133971	1.035589	-0.257764
C158	C	-0.633971	1.535589	0.242236
H159	H	-1.133006	1.089170	-0.288715
H160	H	-0.633006	1.589170	0.211285
H161	H	-1.190436	1.016345	-0.251804
H162	H	-0.690436	1.516345	0.248196
H163	H	-1.110227	1.040325	-0.203523
H164	H	-0.610227	1.540325	0.296477
H165	H	-0.392801	0.326475	-0.326600
H166	H	0.107199	0.826475	0.173400
O167	O	-0.910228	0.986507	-0.463728
O168	O	-0.410228	1.486507	0.036272
C169	C	-0.868370	0.940628	-0.420080
C170	C	-0.368370	1.440628	0.079920
H171	H	-0.895825	0.928621	-0.367386
H172	H	-0.395825	1.428621	0.132614
H173	H	-0.859897	0.889641	-0.446341
H174	H	-0.359897	1.389641	0.053659
H175	H	-0.815541	0.966520	-0.411221
H176	H	-0.315541	1.466520	0.088779
O177	O	-1.088613	1.132155	-0.299629
O178	O	-0.588613	1.632155	0.200371
C179	C	-1.075565	1.204873	-0.311670
C180	C	-0.575565	1.704873	0.188330
H181	H	-1.049870	1.216018	-0.365378
H182	H	-0.549870	1.716018	0.134622
H183	H	-1.127155	1.234784	-0.310233
H184	H	-0.627155	1.734784	0.189767
H185	H	-1.039122	1.222620	-0.269137
H186	H	-0.539122	1.722620	0.230863
O187	O	-0.904238	1.131375	-0.469503
O188	O	-0.404238	1.631375	0.030497
C189	C	-0.864950	1.083056	-0.505662
C190	C	-0.364950	1.583056	-0.005662
H191	H	-0.895746	1.031938	-0.507299
H192	H	-0.395746	1.531938	-0.007299
H193	H	-0.854249	1.106083	-0.561607
H194	H	-0.354249	1.606083	-0.061607
H195	H	-0.813086	1.072074	-0.477322
H196	H	-0.313086	1.572074	0.022678
O197	O	-0.904173	0.469327	-1.131970
O198	O	-0.404173	0.969327	-0.631970
C199	C	-0.864908	0.505551	-1.083636
C200	C	-0.364908	1.005551	-0.583636
H201	H	-0.865874	0.474620	-1.030044
H202	H	-0.365874	0.974620	-0.530044
H203	H	-0.808443	0.511545	-1.102841
H204	H	-0.308443	1.011545	-0.602841
H205	H	-0.888657	0.559777	-1.078939
H206	H	-0.388657	1.059777	-0.578939
O207	O	-0.876266	0.801371	-0.495174
O208	O	-0.376266	1.301371	0.004826
C209	C	-0.912517	0.847235	-0.543985
C210	C	-0.412517	1.347235	-0.043985
H211	H	-0.966270	0.859495	-0.521864
H212	H	-0.466270	1.359495	-0.021864
H213	H	-0.881405	0.898097	-0.554192
H214	H	-0.381405	1.398097	-0.054192
H215	H	-0.919190	0.821200	-0.595366
H216	H	-0.419190	1.321200	-0.095366
O217	O	-0.876154	0.495194	-0.801772
O218	O	-0.376154	0.995194	-0.301772
C219	C	-0.836896	0.531419	-0.753433
C220	C	-0.336896	1.031419	-0.253433
H221	H	-0.837864	0.500487	-0.699842
H222	H	-0.337864	1.000487	-0.199842
H223	H	-0.780429	0.537418	-0.772632
H224	H	-0.280429	1.037418	-0.272632
H225	H	-0.860649	0.585644	-0.748736
H226	H	-0.360649	1.085644	-0.248736
O227	O	-1.066558	0.319528	-0.657679
O228	O	-0.566558	0.819528	-0.157679
C229	C	-1.053455	0.249438	-0.672330
C230	C	-0.553455	0.749438	-0.172330
H231	H	-0.996727	0.244307	-0.690040
H232	H	-0.496727	0.744307	-0.190040
H233	H	-1.062979	0.213074	-0.622926
H234	H	-0.562979	0.713074	-0.122926
H235	H	-1.090063	0.234258	-0.715870
H236	H	-0.590063	0.734258	-0.215870
O237	O	-0.882105	0.656505	-0.489550
O238	O	-0.382105	1.156505	0.010450
C239	C	-0.838847	0.704572	-0.529458
C240	C	-0.338847	1.204572	-0.029458
H241	H	-0.835461	0.755771	-0.502557
H242	H	-0.335461	1.255771	-0.002557
H243	H	-0.784144	0.681343	-0.533789
H244	H	-0.284144	1.181343	-0.033789
H245	H	-0.861954	0.715470	-0.584298
H246	H	-0.361954	1.215470	-0.084298
H247	H	-0.889344	0.483073	-0.662804
H248	H	-0.389344	0.983073	-0.162804
H249	H	-0.592241	0.292908	-0.293136
H250	H	-0.092241	0.792908	0.206864
H251	H	-1.053494	0.331728	-0.796730
H252	H	-0.553494	0.831728	-0.296730
H253	H	-0.917374	0.457222	-0.993004
H254	H	-0.417374	0.957222	-0.493004
H255	H	-1.081513	0.305864	-1.126930
H256	H	-0.581513	0.805864	-0.626930
O257	O	-0.716575	0.475889	-0.475608
O258	O	-0.216575	0.975889	0.024392
C259	C	-0.665219	0.515188	-0.514773
C260	C	-0.165219	1.015188	-0.014773
H261	H	-0.614111	0.484275	-0.513970
H262	H	-0.114111	0.984275	-0.013970
H263	H	-0.683773	0.525787	-0.571381
H264	H	-0.183773	1.025787	-0.071381
H265	H	-0.656245	0.567279	-0.490638
H266	H	-0.156245	1.067279	0.009362
O267	O	-0.384237	0.503890	-0.503534
O268	O	0.115763	1.003890	-0.003534
C269	C	-0.332883	0.543193	-0.542698
C270	C	0.167117	1.043193	-0.042698
H271	H	-0.281775	0.512281	-0.541902
H272	H	0.218225	1.012281	-0.041902
H273	H	-0.351441	0.553797	-0.599305
H274	H	0.148559	1.053797	-0.099305
H275	H	-0.323908	0.595281	-0.518559
H276	H	0.176092	1.095281	-0.018559
H277	H	-0.259904	0.320904	-0.321060
H278	H	0.240096	0.820904	0.178940
O279	O	-0.239825	0.497751	-0.497420
O280	O	0.260175	0.997751	0.002580
C281	C	-0.168117	0.484696	-0.484380
C282	C	0.331883	0.984696	0.015620
H283	H	-0.161349	0.429056	-0.458919
H284	H	0.338651	0.929056	0.041081
H285	H	-0.137894	0.490401	-0.536108
H286	H	0.362106	0.990401	-0.036108
H287	H	-0.147121	0.524073	-0.447568
H288	H	0.352879	1.024073	0.052432
O289	O	-1.094667	0.293702	-0.987949
O290	O	-0.594667	0.793702	-0.487949
C291	C	-1.133949	0.257502	-1.036288
C292	C	-0.633949	0.757502	-0.536288
H293	H	-1.103142	0.255861	-1.087376
H294	H	-0.603142	0.755861	-0.587376
H295	H	-1.144661	0.201560	-1.013249
H296	H	-0.644661	0.701560	-0.513249
H297	H	-1.185807	0.285810	-1.047328
H298	H	-0.685807	0.785810	-0.547328
