data_functionalizedCrystal
_audit_creation_method	'MofGen! by Chris Wilmer'
_symmetry_space_group_name_H-M	'P1'
_symmetry_Int_Tables_number	1
_symmetry_cell_setting	triclinic
loop_
_symmetry_equiv_pos_as_xyz
  x,y,z
_cell_length_a	17.699083
_cell_length_b	10.540510
_cell_length_c	16.176319
_cell_angle_alpha	89.995706
_cell_angle_beta	89.998611
_cell_angle_gamma	83.898163
loop_
_atom_site_label
_atom_site_type_symbol
_atom_site_fract_x
_atom_site_fract_y
_atom_site_fract_z
O1	O	1.005112	0.160523	-0.068626
O2	O	0.784868	0.181407	-0.068653
O3	O	0.900027	-0.013836	-0.068638
O4	O	0.889954	0.355766	-0.068640
O5	O	0.900011	-0.013848	0.068855
O6	O	0.784852	0.181395	0.068841
O7	O	1.005096	0.160510	0.068867
Cu8	Cu	0.894973	0.170951	0.081408
Cu9	Cu	0.894992	0.170966	-0.081194
O10	O	0.889938	0.355754	0.068853
C11	C	0.756658	0.180653	0.000091
C12	C	0.672626	0.178408	0.000080
C13	C	0.899268	-0.061132	0.000106
C14	C	0.897022	-0.202041	0.000101
C15	C	0.624743	0.293011	0.000080
C16	C	0.545786	0.290894	0.000091
C17	C	0.514714	0.174172	0.000096
C18	C	0.562603	0.059560	0.000099
C19	C	0.641558	0.061678	0.000094
C20	C	0.244185	0.051015	0.000119
C21	C	0.165223	0.048905	0.000121
C22	C	0.148412	0.280231	0.000116
C23	C	0.227368	0.282349	0.000111
C24	C	0.275250	0.167737	0.000118
C25	C	0.360864	0.170034	0.000108
C26	C	0.429101	0.171874	0.000100
C27	C	0.977022	-0.420960	0.000426
C28	C	0.979418	-0.274408	0.000112
C29	C	0.854853	-0.246021	-0.078418
C30	C	0.853041	-0.392749	-0.078479
C31	C	0.851307	-0.392540	0.077876
C32	C	0.855215	-0.246271	0.078910
C33	C	1.033306	0.161265	0.000122
C34	C	1.117339	0.163510	0.000127
C35	C	0.890696	0.403050	0.000106
C36	C	0.892942	0.543959	0.000106
N37	N	0.894965	0.170940	0.195773
N38	N	0.895006	0.170967	-0.195559
C39	C	0.945973	0.084522	0.239044
C40	C	0.945977	0.084521	0.325591
C41	C	0.894976	0.170945	0.368866
C42	C	0.843962	0.257367	0.325589
C43	C	0.843955	0.257362	0.239044
C44	C	0.843988	0.257391	0.674618
C45	C	0.844001	0.257393	0.761169
C46	C	0.946010	0.084550	0.761165
C47	C	0.946003	0.084544	0.674619
C48	C	0.894987	0.170962	0.631350
C49	C	0.894982	0.170961	0.537506
C50	C	0.894983	0.170953	0.462708
H51	H	0.650035	0.388060	0.000075
N52	N	0.133469	-0.070318	0.000127
N53	N	0.091284	-0.097304	-0.057826
H54	H	0.068855	-0.181500	-0.057823
N55	N	0.293077	-0.066066	0.000123
N56	N	0.265322	-0.170270	0.000123
H57	H	0.299854	-0.252964	0.000124
H58	H	0.987547	0.014180	0.796403
N59	N	0.775730	-0.420171	-0.082951
N60	N	0.723284	-0.330978	-0.086022
H61	H	0.668683	-0.350339	-0.089180
H62	H	0.506802	0.384216	0.000089
N63	N	0.893713	-0.211087	0.151776
N64	N	0.951725	-0.153647	0.145752
H65	H	0.978918	-0.128793	0.197213
N66	N	0.791886	0.345669	0.805362
N67	N	0.721924	0.344059	0.795709
H68	H	0.685119	0.406401	0.826920
H69	H	0.795059	-0.196104	0.083644
H70	H	0.789443	-0.413559	0.078397
N71	N	0.889223	-0.443888	-0.152085
N72	N	0.894435	-0.561297	-0.165436
H73	H	0.919992	-0.597412	-0.217420
H74	H	0.537298	-0.035477	0.000115
H75	H	0.987507	0.014151	0.203815
N76	N	0.259105	0.401579	0.000126
N77	N	0.301285	0.428556	0.058086
H78	H	0.323698	0.512766	0.058101
H79	H	1.009116	-0.463507	0.056736
H80	H	0.802433	0.327731	0.360829
H81	H	0.884151	-0.215695	-0.136844
N82	N	0.998071	-0.003797	0.369769
N83	N	0.996396	-0.121116	0.360080
H84	H	1.033189	-0.183508	0.391272
H85	H	0.109417	0.373553	0.000115
N86	N	0.690462	-0.055399	0.000103
N87	N	0.662711	-0.159608	0.000112
H88	H	0.697248	-0.242298	0.000124
H89	H	0.802419	0.327731	0.203814
H90	H	0.987535	0.014174	0.639387
H91	H	1.012413	-0.245672	0.056396
N92	N	0.778764	-0.185156	-0.082090
N93	N	0.767025	-0.066224	-0.085557
H94	H	0.713287	-0.023233	-0.088149
H95	H	0.802451	0.327757	0.639395
N96	N	1.017063	-0.476266	-0.069807
N97	N	0.983944	-0.541407	-0.120095
H98	H	1.012220	-0.580469	-0.169699
H99	H	1.012618	-0.246604	-0.056263
N100	N	0.883969	-0.446402	0.152531
N101	N	0.938336	-0.532256	0.149322
H102	H	0.961412	-0.570301	0.202043
