data_functionalizedCrystal
_audit_creation_method	'MofGen! by Chris Wilmer'
_symmetry_space_group_name_H-M	'P1'
_symmetry_Int_Tables_number	1
_symmetry_cell_setting	triclinic
loop_
_symmetry_equiv_pos_as_xyz
  x,y,z
_cell_length_a	12.759401
_cell_length_b	16.120444
_cell_length_c	12.759393
_cell_angle_alpha	92.863363
_cell_angle_beta	89.982620
_cell_angle_gamma	92.926596
loop_
_atom_site_label
_atom_site_type_symbol
_atom_site_fract_x
_atom_site_fract_y
_atom_site_fract_z
Zn1	Zn	1.584952	-0.331853	-0.615151
Zn2	Zn	1.575904	-0.471291	-0.448366
Zn3	Zn	1.409255	-0.331897	-0.439493
Zn4	Zn	1.400301	-0.471227	-0.624004
O5	O	1.492603	-0.401567	-0.531754
O6	O	1.730772	-0.350358	-0.593035
O7	O	1.553758	-0.452846	-0.300171
O8	O	1.440096	-0.215225	-0.455376
O9	O	1.724125	-0.452803	-0.470499
O10	O	1.569180	-0.215193	-0.584431
O11	O	1.431322	-0.350433	-0.293652
O12	O	1.261047	-0.350371	-0.463960
O13	O	1.424835	-0.452693	-0.769848
O14	O	1.254468	-0.452736	-0.599519
O15	O	1.560497	-0.350295	-0.763344
O16	O	1.545075	-0.587948	-0.479083
O17	O	1.416061	-0.587901	-0.608123
C18	C	1.219637	-0.401552	-0.531738
C19	C	1.102859	-0.401565	-0.531758
C20	C	1.044594	-0.454952	-0.602238
C21	C	0.934869	-0.454962	-0.602250
C22	C	0.941685	-0.348197	-0.461293
C23	C	1.051408	-0.348183	-0.461287
C24	C	1.040657	-0.516595	-0.683615
C25	C	0.930933	-0.516605	-0.683627
C26	C	1.478643	-0.618175	-0.545550
C27	C	1.472767	-0.710841	-0.551487
C28	C	1.523342	-0.921786	-0.501180
C29	C	1.462058	-0.880497	-0.562338
C30	C	1.468019	-0.786091	-0.556298
C31	C	1.517383	-1.016200	-0.507218
C32	C	1.766635	-0.401583	-0.531770
C33	C	1.883411	-0.401590	-0.531776
C34	C	1.492677	-0.401482	-0.805782
C35	C	1.492708	-0.401446	-0.922556
C36	C	1.506646	-0.184113	-0.517927
C37	C	1.512630	-0.091447	-0.512034
C38	C	1.428985	-0.348110	-0.974029
C39	C	1.429018	-0.348085	-1.083752
C40	C	1.556507	-0.454735	-1.090519
C41	C	1.556467	-0.454763	-0.980798
C42	C	1.355383	-0.286534	-0.970123
C43	C	1.355416	-0.286509	-1.079845
C44	C	1.492594	-0.401591	-0.258788
C45	C	1.492781	-0.401393	-0.141999
H46	H	1.071569	-0.499375	-0.763924
H47	H	1.098844	-0.304705	-0.403902
H48	H	0.898412	-0.493558	-0.759509
O49	O	1.591205	-0.879471	-0.433161
C50	C	1.566956	-0.900743	-0.329765
H51	H	1.522664	-0.964030	-0.331525
H52	H	1.515973	-0.851825	-0.291275
C53	C	1.723568	-0.826839	-0.264274
C54	C	1.669175	-0.904572	-0.266436
H55	H	1.786620	-0.829197	-0.225207
H56	H	1.739903	-0.812504	-0.333934
H57	H	1.681071	-0.786082	-0.232202
H58	H	1.711667	-0.945325	-0.298519
H59	H	1.652849	-0.918913	-0.196780
O60	O	0.891870	-0.296269	-0.392798
C61	C	0.966828	-0.249162	-0.330569
H62	H	1.045242	-0.246308	-0.373420
H63	H	0.976508	-0.279616	-0.252651
C64	C	0.833400	-0.163927	-0.257333
C65	C	0.929707	-0.160416	-0.309967
H66	H	0.810501	-0.109185	-0.244620
H67	H	0.782898	-0.195666	-0.299254
H68	H	0.841479	-0.189309	-0.192407
H69	H	0.921624	-0.135044	-0.374897
H70	H	0.980207	-0.128671	-0.268056
H71	H	1.608341	-0.498207	-0.938894
H72	H	1.608419	-0.498143	-1.137953
H73	H	1.070739	-0.577897	-0.658241
O74	O	1.386533	-0.209539	-1.110617
C75	C	1.477868	-0.214899	-1.172299
H76	H	1.482463	-0.280944	-1.207725
H77	H	1.549911	-0.198486	-1.121118
C78	C	1.468470	-0.072591	-1.217450
C79	C	1.474108	-0.153707	-1.260968
H80	H	1.466154	-0.034843	-1.272142
H81	H	1.406938	-0.068978	-1.175890
H82	H	1.528507	-0.058926	-1.174799
H83	H	1.414066	-0.167375	-1.303606
H84	H	1.535630	-0.157321	-1.302536
H85	H	1.272884	-0.303824	-0.941448
H86	H	1.388481	-0.225211	-0.932195
H87	H	1.276636	-0.309621	-1.115346
H88	H	0.896996	-0.581159	-0.665813
O89	O	1.394146	-0.923032	-0.630120
C90	C	1.403248	-1.009188	-0.621148
H91	H	1.436978	-1.021003	-0.540841
H92	H	1.457633	-1.033820	-0.685063
C93	C	1.252735	-1.039554	-0.732123
C94	C	1.294154	-1.054066	-0.633486
H95	H	1.185443	-1.067239	-0.739738
H96	H	1.246605	-0.981509	-0.738171
H97	H	1.298066	-1.060081	-0.785375
H98	H	1.248831	-1.033531	-0.580236
H99	H	1.300274	-1.112109	-0.627429
