data_functionalizedCrystal
_audit_creation_method	'MofGen! by Chris Wilmer'
_symmetry_space_group_name_H-M	'P1'
_symmetry_Int_Tables_number	1
_symmetry_cell_setting	triclinic
loop_
_symmetry_equiv_pos_as_xyz
  x,y,z
_cell_length_a	19.805407
_cell_length_b	12.645330
_cell_length_c	19.805399
_cell_angle_alpha	89.978279
_cell_angle_beta	89.982197
_cell_angle_gamma	90.015008
loop_
_atom_site_label
_atom_site_type_symbol
_atom_site_fract_x
_atom_site_fract_y
_atom_site_fract_z
Zn1	Zn	1.034777	-0.422140	-0.382715
Zn2	Zn	1.034709	-0.599418	-0.269539
Zn3	Zn	0.921591	-0.422161	-0.269543
Zn4	Zn	0.921572	-0.599353	-0.382689
O5	O	0.978162	-0.510768	-0.326121
O6	O	1.129484	-0.445674	-0.367711
O7	O	1.019683	-0.575940	-0.174823
O8	O	0.936642	-0.273811	-0.284569
O9	O	1.129434	-0.575920	-0.284561
O10	O	1.019799	-0.273795	-0.367716
O11	O	0.936576	-0.445710	-0.174826
O12	O	0.826872	-0.445647	-0.284543
O13	O	0.936609	-0.575810	-0.477409
O14	O	0.826858	-0.575830	-0.367671
O15	O	1.019780	-0.445612	-0.477428
O16	O	1.019664	-0.747757	-0.284535
O17	O	0.936543	-0.747709	-0.367666
C18	C	0.802306	-0.510735	-0.326105
C19	C	0.727074	-0.510746	-0.326114
C20	C	0.691757	-0.443047	-0.369476
C21	C	0.621068	-0.443053	-0.369479
C22	C	0.585699	-0.510763	-0.326122
C23	C	0.621021	-0.578465	-0.282755
C24	C	0.691708	-0.578454	-0.282750
C25	C	0.335948	-0.578513	-0.282776
C26	C	0.265256	-0.578522	-0.282786
C27	C	0.265308	-0.443112	-0.369505
C28	C	0.335995	-0.443100	-0.369500
C29	C	0.371311	-0.510798	-0.326130
C30	C	0.447960	-0.510790	-0.326127
C31	C	0.509051	-0.510778	-0.326128
C32	C	0.978113	-0.786198	-0.326112
C33	C	0.978154	-0.904028	-0.326131
C34	C	0.926078	-1.071606	-0.378590
C35	C	0.925811	-0.949047	-0.378421
C36	C	0.958847	-0.948614	-0.254799
C37	C	0.958529	-1.071213	-0.255117
C38	C	1.049854	-1.071124	-0.344425
C39	C	1.049415	-0.948517	-0.345985
C40	C	1.154705	-0.510802	-0.326138
C41	C	1.229937	-0.510817	-0.326146
C42	C	0.978200	-0.510701	-0.502664
C43	C	0.978216	-0.510673	-0.577896
C44	C	0.978230	-0.234263	-0.326146
C45	C	0.978259	-0.116433	-0.326156
C46	C	1.021524	-0.442875	-0.613252
C47	C	1.021531	-0.442845	-0.683940
C48	C	0.978233	-0.510617	-0.719272
C49	C	0.934920	-0.578418	-0.683912
C50	C	0.934910	-0.578443	-0.613224
C51	C	0.934958	-0.578319	-0.968985
C52	C	0.934973	-0.578291	-1.039677
C53	C	1.021579	-0.442721	-1.039701
C54	C	1.021570	-0.442746	-0.969014
C55	C	0.978254	-0.510542	-0.933659
C56	C	0.978247	-0.510573	-0.857011
C57	C	0.978244	-0.510592	-0.795919
C58	C	0.978163	-0.510758	-0.150266
C59	C	0.978278	-0.510488	-0.075034
H60	H	0.236545	-0.387986	-0.404816
C61	C	0.374787	-0.652987	-0.235071
N62	N	0.404042	-0.709085	-0.199138
H63	H	1.090340	-0.917867	-0.310576
H64	H	0.872734	-0.919807	-0.366318
C65	C	0.582222	-0.368582	-0.417183
N66	N	0.552964	-0.312487	-0.453116
H67	H	0.906193	-1.099899	-0.239641
C68	C	0.374898	-0.368610	-0.417193
N69	N	0.404198	-0.312497	-0.453114
C70	C	1.007639	-1.111280	-0.200534
N71	N	1.044623	-1.141454	-0.159419
C72	C	0.887285	-0.652959	-0.722779
N73	N	0.851405	-0.709104	-0.752054
H74	H	0.899638	-0.633640	-0.584439
C75	C	0.887308	-0.652894	-0.930105
N76	N	0.851415	-0.709065	-0.900818
H77	H	0.720550	-0.387912	-0.404784
C78	C	0.226350	-0.653003	-0.235082
N79	N	0.197047	-0.709099	-0.199153
C80	C	0.582112	-0.652946	-0.235061
N81	N	0.552806	-0.709050	-0.199139
C82	C	0.854818	-1.113330	-0.362443
N83	N	0.801145	-1.144754	-0.350277
H84	H	0.720463	-0.633580	-0.247439
C85	C	0.888877	-0.907265	-0.233515
N86	N	0.836172	-0.876123	-0.217488
C87	C	0.942127	-0.908315	-0.449877
N88	N	0.954413	-0.877640	-0.503701
H89	H	0.995649	-0.919455	-0.214664
C90	C	1.073645	-1.112793	-0.413503
N91	N	1.091557	-1.144178	-0.465536
C92	C	1.069101	-0.909099	-0.416891
N93	N	1.083932	-0.879389	-0.470293
H94	H	1.056785	-0.387690	-0.584490
C95	C	0.942240	-1.111356	-0.450280
N96	N	0.954413	-1.141305	-0.504279
H97	H	1.088731	-1.100112	-0.306235
H98	H	1.056799	-0.387640	-0.712723
H99	H	1.056830	-0.387562	-0.940250
C100	C	1.069219	-0.368130	-1.078597
N101	N	1.105100	-0.311949	-1.107892
H102	H	0.899712	-0.633482	-1.068442
