data_functionalizedCrystal
_audit_creation_method	'MofGen! by Chris Wilmer'
_symmetry_space_group_name_H-M	'P1'
_symmetry_Int_Tables_number	1
_symmetry_cell_setting	triclinic
loop_
_symmetry_equiv_pos_as_xyz
  x,y,z
_cell_length_a	15.944551
_cell_length_b	16.992694
_cell_length_c	15.455301
_cell_angle_alpha	87.178730
_cell_angle_beta	93.000753
_cell_angle_gamma	92.916519
loop_
_atom_site_label
_atom_site_type_symbol
_atom_site_fract_x
_atom_site_fract_y
_atom_site_fract_z
O1	O	0.181590	-1.043460	0.072026
O2	O	0.179637	-0.815176	0.072051
O3	O	0.058756	-0.935552	0.072030
O4	O	0.302470	-0.923084	0.072047
O5	O	0.051777	-0.929413	-0.072232
O6	O	0.172658	-0.809037	-0.072211
O7	O	0.174611	-1.037322	-0.072237
Cu8	Cu	0.172997	-0.922619	-0.085396
Cu9	Cu	0.181251	-0.929878	0.085211
O10	O	0.295492	-0.916946	-0.072215
C11	C	0.023938	-0.931965	-0.000101
C12	C	-0.069412	-0.930413	-0.000102
C13	C	0.173634	-0.782894	-0.000077
C14	C	0.166134	-0.695850	-0.000067
C15	C	0.180614	-1.069604	-0.000107
C16	C	0.188114	-1.156648	-0.000110
C17	C	-0.289521	-0.852090	-0.000081
C18	C	-0.351540	-0.885434	-0.071215
C19	C	-0.240326	-0.927606	-0.000095
C20	C	-0.344641	-0.891504	0.071016
C21	C	-0.405420	-0.924889	-0.000084
C22	C	-0.301118	-0.960969	-0.071287
C23	C	-0.294211	-0.967031	0.071008
C24	C	-0.356210	-1.000429	-0.000144
C25	C	-0.145219	-0.929169	-0.000101
C26	C	-0.500526	-0.923332	-0.000084
C27	C	0.330310	-0.920533	-0.000082
C28	C	0.423660	-0.922085	-0.000076
N29	N	0.167192	-0.917519	-0.205392
C30	C	0.238500	-0.645613	-0.000063
C31	C	0.231447	-0.563826	-0.000075
C32	C	0.152029	-0.532277	-0.000086
C33	C	0.079658	-0.582520	-0.000093
C34	C	0.086711	-0.664305	-0.000087
C35	C	0.122796	-0.288676	-0.000111
C36	C	0.115749	-0.206884	-0.000115
C37	C	0.267538	-0.188196	-0.000099
C38	C	0.274585	-0.269985	-0.000087
C39	C	0.202214	-0.320220	-0.000099
N40	N	0.144818	-0.448677	-0.000096
N41	N	0.209425	-0.403818	-0.000095
C42	C	0.219165	-0.963146	-0.250784
C43	C	0.214771	-0.959299	-0.341592
C44	C	0.158407	-0.909821	-0.387006
C45	C	0.106428	-0.864193	-0.341608
C46	C	0.110819	-0.868044	-0.250801
C47	C	0.139462	-0.893208	-0.658588
C48	C	0.135076	-0.889358	-0.749401
C49	C	0.243418	-0.984466	-0.749379
C50	C	0.247808	-0.988309	-0.658571
C51	C	0.195826	-0.942684	-0.613181
N52	N	0.153915	-0.905886	-0.479827
N53	N	0.200314	-0.946624	-0.520362
N54	N	0.187049	-0.934985	0.205207
H55	H	-0.376699	-0.850935	-0.131346
H56	H	0.303170	-0.671294	-0.000054
C57	C	0.037543	-0.089809	-0.000129
C58	C	0.028446	-0.172203	-0.000133
H59	H	-0.016351	-0.068399	-0.000134
H60	H	0.065138	-0.070438	-0.050428
H61	H	0.070001	-0.074711	0.050187
H62	H	-0.004008	-0.187301	-0.050453
H63	H	0.000838	-0.191581	0.050171
C64	C	0.028411	-0.795742	-0.740300
C65	C	0.073111	-0.834971	-0.799320
H66	H	-0.009844	-0.762171	-0.771119
H67	H	0.066598	-0.765114	-0.704881
H68	H	-0.001849	-0.833338	-0.704884
H69	H	0.103375	-0.797375	-0.834732
H70	H	0.034918	-0.865601	-0.834754
H71	H	0.068497	-0.830890	-0.213844
C72	C	-0.279214	-0.724941	-0.074741
C73	C	-0.250227	-0.767471	-0.000164
H74	H	-0.254950	-0.672704	-0.074795
H75	H	-0.338699	-0.723354	-0.075250
H76	H	-0.263639	-0.749915	-0.124755
H77	H	-0.265808	-0.742500	0.049851
H78	H	-0.190729	-0.769054	0.000354
C79	C	-0.012745	-0.504539	0.074057
C80	C	-0.007641	-0.547844	-0.000103
H81	H	-0.066643	-0.483138	0.074054
H82	H	0.029338	-0.462917	0.074052
H83	H	-0.004404	-0.538199	0.124359
H84	H	-0.015976	-0.514182	-0.050405
H85	H	-0.049737	-0.589470	-0.000106
H86	H	0.339256	-0.295666	-0.000069
H87	H	0.027784	-0.705208	-0.000090
H88	H	-0.281900	-0.990321	-0.131492
H89	H	-0.385163	-1.063165	-0.000191
C90	C	-0.281890	-0.977072	0.226605
C91	C	-0.260208	-1.013565	0.152184
H92	H	-0.260890	-1.005795	0.276724
H93	H	-0.341342	-0.976025	0.227477
H94	H	-0.258128	-0.924650	0.226091
H95	H	-0.283975	-1.065986	0.152696
H96	H	-0.200744	-1.014621	0.151312
C97	C	0.325808	-1.056774	-0.259893
C98	C	0.281122	-1.017535	-0.200869
H99	H	0.364053	-1.090357	-0.229078
H100	H	0.356070	-1.019189	-0.295308
H101	H	0.287605	-1.087397	-0.295314
H102	H	0.319325	-0.986907	-0.165452
H103	H	0.250859	-1.055125	-0.165440
C104	C	0.222230	-1.060434	-0.443686
C105	C	0.271902	-1.009458	-0.391482
H106	H	0.257503	-1.091406	-0.474480
H107	H	0.188043	-1.030419	-0.483729
H108	H	0.187466	-1.094058	-0.408250
H109	H	0.306661	-0.975829	-0.426919
H110	H	0.306103	-1.039475	-0.351435
H111	H	-0.363952	-0.862113	0.131159
H112	H	0.060531	-0.823911	-0.378591
C113	C	0.132035	-0.792059	-0.556516
C114	C	0.082345	-0.843025	-0.608715
H115	H	0.096775	-0.761073	-0.525725
H116	H	0.166809	-0.758455	-0.591948
H117	H	0.166212	-0.822088	-0.516463
H118	H	0.048173	-0.812997	-0.648772
H119	H	0.047556	-0.876633	-0.573280
H120	H	0.326458	-0.147286	-0.000091
C121	C	0.382191	-0.553569	-0.000047
C122	C	0.310994	-0.508606	-0.000066
H123	H	0.431301	-0.519477	-0.000037
H124	H	0.379354	-0.583724	-0.050348
H125	H	0.384207	-0.587992	0.050268
H126	H	0.308973	-0.474188	-0.050385
H127	H	0.313830	-0.478438	0.050239
C128	C	-0.027947	-0.298922	-0.000121
C129	C	0.043247	-0.343888	-0.000117
H130	H	-0.077058	-0.333012	-0.000120
H131	H	-0.029970	-0.264501	-0.050426
H132	H	-0.025099	-0.268767	0.050189
H133	H	0.040402	-0.374039	-0.050431
H134	H	0.045271	-0.378324	0.050193
C135	C	0.354447	-1.081944	-0.667675
C136	C	0.309759	-1.042704	-0.608655
H137	H	0.392690	-1.115528	-0.636856
H138	H	0.384711	-1.044361	-0.703088
H139	H	0.316246	-1.112568	-0.703097
H140	H	0.347960	-1.012076	-0.573236
H141	H	0.279493	-1.080292	-0.573227
H142	H	0.285738	-1.021612	-0.786346
