data_functionalizedCrystal
_audit_creation_method	'MofGen! by Chris Wilmer'
_symmetry_space_group_name_H-M	'P1'
_symmetry_Int_Tables_number	1
_symmetry_cell_setting	triclinic
loop_
_symmetry_equiv_pos_as_xyz
  x,y,z
_cell_length_a	20.875641
_cell_length_b	21.606444
_cell_length_c	21.606444
_cell_angle_alpha	59.999875
_cell_angle_beta	62.441257
_cell_angle_gamma	62.438238
loop_
_atom_site_label
_atom_site_type_symbol
_atom_site_fract_x
_atom_site_fract_y
_atom_site_fract_z
Zr1	Zr	0.081200	0.599127	0.599089
O2	O	0.179992	0.632921	0.503763
O3	O	0.050918	0.499228	0.628313
O4	O	0.180001	0.503799	0.632882
O5	O	-0.050917	0.726597	0.495589
O6	O	0.180005	0.503800	0.734731
O7	O	0.050909	0.628349	0.499194
O8	O	-0.050901	0.495622	0.726558
O9	O	0.179989	0.734775	0.503762
O10	O	0.038002	0.564801	0.716784
O11	O	-0.037992	0.638122	0.638084
O12	O	0.113986	0.643505	0.643464
O13	O	0.037992	0.716825	0.564764
Zr14	Zr	-0.081195	0.755822	0.755778
Zr15	Zr	0.081206	0.599128	0.761528
Zr16	Zr	-0.081201	0.755820	0.593339
Zr17	Zr	0.081195	0.761572	0.599087
Zr18	Zr	-0.081190	0.593376	0.755780
O19	O	-0.050913	0.855721	0.726554
O20	O	0.180001	0.632923	0.734730
O21	O	-0.050921	0.855719	0.495587
O22	O	-0.179987	0.722028	0.851104
O23	O	0.050926	0.499229	0.859280
O24	O	-0.179995	0.722026	0.620137
O25	O	0.050922	0.628352	0.859278
O26	O	-0.179996	0.851149	0.721985
O27	O	-0.180000	0.851148	0.620135
O28	O	-0.050904	0.726600	0.855673
O29	O	0.179994	0.734776	0.632879
O30	O	-0.179988	0.620173	0.721988
O31	O	-0.179984	0.620174	0.851105
O32	O	-0.050897	0.495623	0.855676
O33	O	0.050902	0.859325	0.499191
O34	O	0.050906	0.859326	0.628308
O35	O	-0.113981	0.711444	0.711403
O36	O	-0.037987	0.638123	0.790103
O37	O	0.037997	0.716826	0.716782
O38	O	-0.037997	0.790147	0.638082
C39	C	0.000009	0.474280	0.677436
C40	C	0.000011	0.405318	0.677437
C41	C	0.039681	0.334646	0.718515
C42	C	0.039676	0.269851	0.718518
C43	C	0.000005	0.275729	0.677437
C44	C	-0.039669	0.346408	0.636357
C45	C	-0.039668	0.411201	0.636359
C46	C	-0.039676	0.085105	0.636347
C47	C	-0.039672	0.020304	0.636347
C48	C	0.039668	-0.056245	0.718507
C49	C	0.039669	0.008548	0.718509
C50	C	-0.000008	0.079221	0.677432
C51	C	-0.000003	0.149478	0.677431
C52	C	0.000004	0.205473	0.677433
C53	C	-0.203130	0.670280	0.670243
C54	C	-0.272071	0.667838	0.667803
C55	C	-0.344125	0.704962	0.704928
C56	C	-0.408901	0.702671	0.702628
C57	C	-0.401620	0.663250	0.663206
C58	C	-0.329558	0.626125	0.626077
C59	C	-0.264784	0.628421	0.628373
C60	C	-0.591088	0.652282	0.652230
C61	C	-0.655869	0.649986	0.649939
C62	C	-0.735208	0.726533	0.726489
C63	C	-0.670429	0.728823	0.728785
C64	C	-0.598374	0.691701	0.691653
N65	N	-0.467829	0.660905	0.660856
N66	N	-0.532166	0.694051	0.693999
C67	C	0.203135	0.684669	0.684623
C68	C	0.272076	0.687110	0.687064
C69	C	-0.000005	0.677473	0.474247
C70	C	-0.000007	0.677472	0.405288
C71	C	-0.000004	0.880669	0.677431
C72	C	-0.000006	0.949631	0.677430
C73	C	-0.039668	0.636388	0.411161
C74	C	-0.039668	0.636391	0.346364
C75	C	-0.000004	0.677474	0.275694
C76	C	0.039658	0.718564	0.269822
C77	C	0.039653	0.718564	0.334618
C78	C	0.039675	0.718563	0.008504
C79	C	0.039678	0.718557	-0.056293
C80	C	-0.039647	0.636389	0.020250
C81	C	-0.039651	0.636390	0.085046
C82	C	0.000007	0.677482	0.079169
C83	C	0.000006	0.677479	0.149430
C84	C	0.000002	0.677473	0.205434
C85	C	0.000010	0.677476	0.880620
C86	C	0.000012	0.677476	0.949579
C87	C	0.203142	0.481474	0.684626
C88	C	0.272085	0.414954	0.687067
C89	C	0.000017	0.474281	0.880622
C90	C	0.000021	0.405320	0.949582
C91	C	-0.203123	0.670281	0.873429
C92	C	-0.272061	0.667840	0.939949
C93	C	0.203128	0.684667	0.481437
C94	C	0.272066	0.687108	0.414918
C95	C	-0.000011	0.880667	0.474245
C96	C	-0.000016	0.949629	0.405285
C97	C	-0.203136	0.873474	0.670241
C98	C	-0.272080	0.939995	0.667800
C99	C	0.344131	0.424797	0.649941
C100	C	0.408917	0.362301	0.652238
C101	C	0.401655	0.289961	0.691657
C102	C	0.329601	0.280118	0.728787
C103	C	0.264817	0.342614	0.726494
C104	C	0.039696	0.334655	0.943695
C105	C	0.039715	0.269852	1.008485
C106	C	0.000056	0.275716	1.079161
C107	C	-0.039620	0.346389	1.085046
C108	C	-0.039635	0.411190	1.020257
C109	C	-0.264767	0.628421	1.012274
C110	C	-0.329536	0.626131	1.074783
C111	C	-0.401599	0.663255	1.064964
C112	C	-0.408891	0.702679	0.992631
C113	C	-0.344123	0.704974	0.930124
C114	C	0.264772	0.726535	0.342592
C115	C	0.329542	0.728846	0.280084
C116	C	0.401604	0.691725	0.289903
C117	C	0.408896	0.652297	0.362236
C118	C	0.344128	0.649991	0.424743
C119	C	-0.039684	1.020294	0.411172
C120	C	-0.039686	1.085097	0.346382
C121	C	-0.000024	1.079233	0.275707
C122	C	0.039649	1.008561	0.269821
C123	C	0.039655	0.943759	0.334610
C124	C	-0.264794	1.012323	0.628374
C125	C	-0.329567	1.074832	0.626065
C126	C	-0.401626	1.065012	0.663187
C127	C	-0.408911	0.992677	0.702614
C128	C	-0.344138	0.930169	0.704918
H129	H	0.071977	0.212308	0.751968
H130	H	-0.532426	0.622055	0.621994
O131	O	-0.471509	1.132412	0.660706
H132	H	-0.505686	1.131123	0.634663
O133	O	-0.187052	0.588377	0.588354
H134	H	-0.155661	0.545654	0.629546
H135	H	0.206156	0.334589	0.756724
H136	H	-0.071909	0.351152	1.142599
O137	O	0.486628	0.372922	0.612186
H138	H	0.493210	0.404607	0.551437
H139	H	-0.467590	0.984692	0.732838
H140	H	-0.350082	0.871278	0.737027
O141	O	-0.082442	0.487407	1.026610
H142	H	-0.110022	0.480589	1.086641
H143	H	0.000073	0.222945	1.131910
O144	O	0.082422	1.002247	0.193587
H145	H	0.110015	0.942223	0.200369
O146	O	-0.082455	0.352754	0.592042
H147	H	-0.075784	0.295827	0.598933
H148	H	-0.467573	0.732904	0.984647
H149	H	0.071989	0.329852	0.751965
H150	H	-0.071987	1.025083	0.468713
O151	O	0.471537	0.222560	0.694130
H152	H	0.454390	0.170600	0.727784
O153	O	-0.082431	0.592078	0.161270
H154	H	-0.110016	0.563514	0.154468
H155	H	0.071955	0.886223	0.329806
H156	H	0.467577	0.622074	0.370222
O157	O	-0.187076	1.022923	0.588326
H158	H	-0.192904	1.083723	0.560518
O159	O	-0.082450	0.592072	0.487380
H160	H	-0.042402	0.549630	0.520216
H161	H	-0.206096	0.598187	1.020283
H162	H	-0.323634	0.594031	0.593975
O163	O	-0.082433	0.592068	0.352696
H164	H	-0.110002	0.563489	0.412723
O165	O	0.321773	0.202093	0.771294
H166	H	0.378929	0.160296	0.766637
O167	O	-0.321702	1.152846	0.583541
H168	H	-0.290257	1.160546	0.607596
O169	O	0.082457	0.002211	0.762817
H170	H	0.110036	-0.057819	0.791388
O171	O	-0.082427	0.592068	0.026593
H172	H	-0.126277	0.630570	-0.002573
O173	O	0.082463	-0.132472	0.762816
H174	H	0.075795	-0.176543	0.755921
O175	O	0.351999	0.607452	0.502752
H176	H	0.412991	0.582023	0.499070
H177	H	-0.323585	0.594025	1.133674
H178	H	-0.071979	0.025098	0.602892
O179	O	0.187052	0.766580	0.331993
H180	H	0.192874	0.794389	0.271195
H181	H	-0.454331	0.661381	1.115867
O182	O	0.471456	0.694216	0.222478
H183	H	0.522795	0.661785	0.241450
O184	O	0.082456	0.762871	0.002165
H185	H	0.110046	0.791428	-0.057862
H186	H	-0.071969	0.468745	0.602906
O187	O	-0.082459	0.161325	0.592036
H188	H	-0.110034	0.154524	0.563463
H189	H	-0.350063	0.737061	0.737032
H190	H	-0.793881	0.756758	0.756719
H191	H	0.071949	0.752019	0.212277
H192	H	0.071978	0.752015	-0.113838
H193	H	-0.467568	0.732901	0.732859
O194	O	0.082486	0.328320	0.867471
H195	H	0.059580	0.296034	0.860067
O196	O	-0.678281	0.771330	0.771314
H197	H	-0.739269	0.796761	0.796744
H198	H	0.071939	0.752028	0.329831
O199	O	-0.351994	0.747474	0.852115
H200	H	-0.412986	0.772889	0.855797
H201	H	0.350059	0.483695	0.617838
O202	O	0.321668	0.771357	0.202073
H203	H	0.260676	0.796764	0.205753
O204	O	-0.648019	0.607473	0.607412
H205	H	-0.587032	0.582052	0.581969
O206	O	0.082503	0.193632	1.002129
H207	H	0.110064	0.200447	0.942098
O208	O	-0.082488	1.161317	0.352738
H209	H	-0.110077	1.154500	0.412768
H210	H	-0.000034	1.132005	0.222957
