data_functionalizedCrystal
_audit_creation_method	'MofGen! by Chris Wilmer'
_symmetry_space_group_name_H-M	'P1'
_symmetry_Int_Tables_number	1
_symmetry_cell_setting	triclinic
loop_
_symmetry_equiv_pos_as_xyz
  x,y,z
_cell_length_a	10.685976
_cell_length_b	13.031981
_cell_length_c	10.686551
_cell_angle_alpha	100.978188
_cell_angle_beta	90.348485
_cell_angle_gamma	93.390724
loop_
_atom_site_label
_atom_site_type_symbol
_atom_site_fract_x
_atom_site_fract_y
_atom_site_fract_z
Zn1	Zn	1.889377	-0.504690	0.490769
Zn2	Zn	2.389377	-0.004690	0.990769
Zn3	Zn	1.842483	-0.691540	0.254687
Zn4	Zn	2.342483	-0.191540	0.754687
Zn5	Zn	1.663826	-0.502730	0.297421
Zn6	Zn	2.163826	-0.002730	0.797421
Zn7	Zn	1.653299	-0.664865	0.484273
Zn8	Zn	2.153299	-0.164865	0.984273
O9	O	1.762246	-0.590956	0.381788
O10	O	2.262246	-0.090956	0.881788
O11	O	2.056724	-0.541460	0.444287
O12	O	2.556724	-0.041460	0.944287
O13	O	1.803564	-0.676837	0.083357
O14	O	2.303564	-0.176837	0.583357
O15	O	1.717777	-0.356939	0.343672
O16	O	2.217777	0.143061	0.843672
O17	O	2.022271	-0.678737	0.270839
O18	O	2.522271	-0.178737	0.770839
O19	O	1.883488	-0.358379	0.485724
O20	O	2.383488	0.141621	0.985724
O21	O	1.672306	-0.538119	0.114753
O22	O	2.172306	-0.038119	0.614753
O23	O	1.488862	-0.512254	0.337373
O24	O	1.988862	-0.012254	0.837373
O25	O	1.699835	-0.633274	0.662134
O26	O	2.199835	-0.133274	1.162134
O27	O	1.481128	-0.631374	0.474652
O28	O	1.981128	-0.131374	0.974652
O29	O	1.873280	-0.515594	0.666907
O30	O	2.373280	-0.015594	1.166907
O31	O	1.793356	-0.834052	0.264539
O32	O	2.293356	-0.334052	0.764539
O33	O	1.654363	-0.814455	0.433215
O34	O	2.154363	-0.314455	0.933215
C35	C	1.439990	-0.568707	0.409945
C36	C	1.939990	-0.068707	0.909945
C37	C	1.302127	-0.559213	0.422017
C38	C	1.802127	-0.059213	0.922017
C39	C	1.717665	-0.862124	0.343560
C40	C	2.217665	-0.362124	0.843560
C41	C	1.698710	-0.978136	0.327238
C42	C	2.198710	-0.478136	0.827238
C43	C	1.772207	-1.030479	0.390326
C44	C	2.272207	-0.530479	0.890326
C45	C	1.752618	-1.150383	0.373458
C46	C	2.252618	-0.650383	0.873458
C47	C	2.085760	-0.613292	0.353521
C48	C	2.585760	-0.113292	0.853521
C49	C	2.223623	-0.622811	0.341475
C50	C	2.723623	-0.122811	0.841475
C51	C	1.790614	-0.571677	0.711698
C52	C	2.290614	-0.071677	1.211698
C53	C	1.802702	-0.563462	0.852286
C54	C	2.302702	-0.063462	1.352286
C55	C	1.807038	-0.318730	0.420190
C56	C	2.307038	0.181270	0.920190
C57	C	1.826125	-0.202724	0.436554
C58	C	2.326125	0.297276	0.936554
C59	C	1.734073	-0.610089	0.053165
C60	C	2.234073	-0.110089	0.553165
C61	C	1.722273	-0.618027	-0.087402
C62	C	2.222273	-0.118027	0.412598
H63	H	1.849630	-0.986525	0.456831
H64	H	2.349630	-0.486525	0.956831
H65	H	1.621278	-1.022091	0.260745
H66	H	2.121278	-0.522091	0.760745
H67	H	1.261886	-0.684535	0.263281
H68	H	1.761886	-0.184535	0.763281
H69	H	1.880820	-0.510462	0.908209
H70	H	2.380820	-0.010462	1.408209
Cl71	Cl	1.243062	-0.463931	0.542755
Cl72	Cl	1.743062	0.036069	1.042755
Cl73	Cl	1.633062	-1.218234	0.270787
Cl74	Cl	2.133062	-0.718234	0.770787
Cl75	Cl	1.601680	-0.699864	0.826268
Cl76	Cl	2.101680	-0.199864	1.326268
Cl77	Cl	1.945676	-1.134875	0.539234
Cl78	Cl	2.445676	-0.634875	1.039234
