data_functionalizedCrystal
_audit_creation_method	'MofGen! by Chris Wilmer'
_symmetry_space_group_name_H-M	'P1'
_symmetry_Int_Tables_number	1
_symmetry_cell_setting	triclinic
loop_
_symmetry_equiv_pos_as_xyz
  x,y,z
_cell_length_a	18.101395
_cell_length_b	12.827893
_cell_length_c	12.827885
_cell_angle_alpha	90.021189
_cell_angle_beta	89.967435
_cell_angle_gamma	89.970686
loop_
_atom_site_label
_atom_site_type_symbol
_atom_site_fract_x
_atom_site_fract_y
_atom_site_fract_z
Zn1	Zn	-0.294828	-1.597556	-0.590883
Zn2	Zn	-0.418687	-1.597402	-0.416136
Zn3	Zn	-0.294860	-1.422797	-0.416151
Zn4	Zn	-0.418628	-1.422734	-0.590830
O5	O	-0.356751	-1.510122	-0.503500
O6	O	-0.311269	-1.743771	-0.567719
O7	O	-0.402300	-1.574202	-0.269902
O8	O	-0.191223	-1.446070	-0.439358
O9	O	-0.402268	-1.743658	-0.439332
O10	O	-0.191199	-1.574464	-0.567733
O11	O	-0.311325	-1.445920	-0.269913
O12	O	-0.311267	-1.276553	-0.439307
O13	O	-0.402167	-1.445963	-0.737073
O14	O	-0.402199	-1.276507	-0.567642
O15	O	-0.311212	-1.574403	-0.737112
O16	O	-0.522312	-1.574141	-0.439280
O17	O	-0.522269	-1.445814	-0.567627
C18	C	-0.356731	-1.238612	-0.503471
C19	C	-0.356740	-1.122459	-0.503483
C20	C	-0.311789	-1.070730	-0.567110
C21	C	-0.311798	-0.950680	-0.567125
C22	C	-0.549162	-1.509982	-0.503469
C23	C	-0.631476	-1.510018	-0.503491
C24	C	-0.930566	-1.510247	-0.503547
C25	C	-0.899245	-1.429695	-0.584500
C26	C	-0.813627	-1.429312	-0.584247
C27	C	-0.782184	-1.510134	-0.503520
C28	C	-0.813342	-1.480314	-0.393385
C29	C	-0.898987	-1.479795	-0.393869
C30	C	-0.898911	-1.620796	-0.531760
C31	C	-0.813260	-1.620146	-0.534176
C32	C	-0.698325	-1.510071	-0.503498
C33	C	-1.014426	-1.510307	-0.503562
C34	C	-0.163589	-1.510291	-0.503554
C35	C	-0.081275	-1.510363	-0.503577
C36	C	-0.356679	-1.510193	-0.776070
C37	C	-0.356649	-1.510224	-0.892223
C38	C	-0.356766	-0.782692	-0.503521
C39	C	-0.356756	-0.898845	-0.503509
C40	C	-0.311592	-1.446799	-1.064058
C41	C	-0.311622	-1.446766	-0.944008
C42	C	-0.356769	-1.510111	-0.231990
C43	C	-0.356591	-1.510284	-0.115837
H44	H	-0.395246	-0.943325	-0.449039
H45	H	-0.395229	-1.077869	-0.449019
F46	F	-0.786086	-1.453695	-0.690989
H47	H	-0.919787	-1.448166	-0.666429
F48	F	-0.261498	-0.892537	-0.638333
F49	F	-0.927472	-1.323245	-0.560399
F50	F	-0.261476	-1.129006	-0.638297
H51	H	-0.273099	-1.392411	-0.899479
F52	F	-0.786928	-1.322207	-0.559825
H53	H	-0.395136	-1.564615	-1.071291
H54	H	-0.919030	-1.398984	-0.369970
F55	F	-0.786725	-1.554587	-0.312394
F56	F	-0.926075	-1.553146	-0.312338
H57	H	-0.791957	-1.400359	-0.369057
F58	F	-0.786638	-1.649542	-0.640119
H59	H	-0.920454	-1.647982	-0.610702
H60	H	-0.791852	-1.683337	-0.479511
F61	F	-0.261201	-1.375792	-1.122279
F62	F	-0.925397	-1.699244	-0.454707
H63	H	-0.395177	-1.564577	-0.936746
