data_functionalizedCrystal
_audit_creation_method	'MofGen! by Chris Wilmer'
_symmetry_space_group_name_H-M	'P1'
_symmetry_Int_Tables_number	1
_symmetry_cell_setting	triclinic
loop_
_symmetry_equiv_pos_as_xyz
  x,y,z
_cell_length_a	19.077105
_cell_length_b	21.295417
_cell_length_c	19.077271
_cell_angle_alpha	87.717260
_cell_angle_beta	89.912562
_cell_angle_gamma	87.725910
loop_
_atom_site_label
_atom_site_type_symbol
_atom_site_fract_x
_atom_site_fract_y
_atom_site_fract_z
Zn1	Zn	1.058158	-0.304636	0.440390
Zn2	Zn	1.062810	-0.405822	0.322876
Zn3	Zn	0.945400	-0.296175	0.318185
Zn4	Zn	0.940611	-0.405468	0.435628
O5	O	1.001745	-0.353025	0.379270
O6	O	1.157106	-0.321747	0.428758
O7	O	1.051186	-0.387884	0.223924
O8	O	0.960415	-0.209211	0.334426
O9	O	1.160524	-0.396088	0.342421
O10	O	1.043258	-0.215427	0.424209
O11	O	0.964925	-0.307327	0.220477
O12	O	0.846434	-0.306984	0.329808
O13	O	0.952253	-0.395485	0.534590
O14	O	0.842915	-0.387281	0.416093
O15	O	1.038615	-0.321404	0.538089
O16	O	1.046543	-0.493861	0.337803
O17	O	0.956763	-0.493601	0.420641
C18	C	0.819179	-0.346177	0.371925
C19	C	0.741075	-0.343262	0.368799
C20	C	1.001657	-0.516572	0.379231
C21	C	1.001682	-0.586541	0.379240
C22	C	0.702572	-0.383758	0.412184
C23	C	0.629185	-0.381012	0.409251
C24	C	0.594304	-0.337773	0.362929
C25	C	0.632813	-0.297273	0.319542
C26	C	0.706198	-0.300016	0.322479
C27	C	0.375020	-0.325075	0.349337
C28	C	0.301630	-0.322335	0.346401
C29	C	0.298008	-0.406074	0.436111
C30	C	0.371394	-0.408816	0.439042
C31	C	0.409897	-0.368314	0.395658
N32	N	0.519291	-0.334966	0.359927
N33	N	0.484908	-0.371118	0.398663
C34	C	1.044792	-0.622588	0.426021
C35	C	1.044816	-0.688332	0.426040
C36	C	1.001738	-0.718027	0.379264
C37	C	0.958620	-0.681972	0.332479
C38	C	0.958592	-0.616230	0.332467
N39	N	0.998916	-0.818955	0.317556
N40	N	0.998947	-0.881408	0.317570
C41	C	1.001819	-0.916106	0.379299
N42	N	1.004674	-0.885992	0.441016
N43	N	1.004647	-0.823533	0.441002
C44	C	1.001764	-0.789313	0.379273
C45	C	1.044957	-1.023439	0.426104
C46	C	1.044976	-1.089185	0.426124
C47	C	0.958784	-1.082824	0.332558
C48	C	0.958761	-1.017080	0.332544
C49	C	1.001851	-0.987392	0.379317
C50	C	1.185024	-0.359901	0.386644
C51	C	1.263126	-0.362831	0.389786
C52	C	0.994381	-0.359349	0.562548
C53	C	0.991243	-0.362044	0.640650
C54	C	1.001852	-0.188841	0.379325
C55	C	1.001897	-0.118875	0.379349
C56	C	1.034730	-0.324741	0.679165
C57	C	1.031773	-0.327271	0.752550
C58	C	0.985331	-0.367106	0.787419
C59	C	0.941839	-0.404410	0.748898
C60	C	0.944793	-0.401877	0.675515
C61	C	0.971671	-0.378814	1.006697
C62	C	0.968722	-0.381346	1.080087
C63	C	1.058655	-0.304206	1.083734
C64	C	1.061608	-0.301679	1.010348
C65	C	1.018113	-0.338980	0.971834
N66	N	0.982309	-0.369694	0.862430
N67	N	1.021133	-0.336389	0.896824
C68	C	1.009074	-0.346740	1.196704
C69	C	1.012209	-0.344044	1.118602
H70	H	0.730967	-0.418970	0.449902
H71	H	0.904023	-0.436842	0.777294
H72	H	1.099427	-0.269243	0.981964
H73	H	0.273232	-0.287118	0.308684
F74	F	0.912936	-1.114423	0.282777
F75	F	0.595687	-0.251250	0.270246
H76	H	0.923661	-0.987729	0.294448
F77	F	1.090814	-0.991841	0.475885
H78	H	1.072550	-0.292305	0.650781
H79	H	1.079876	-0.598418	0.464108
F80	F	0.912706	-0.577865	0.282675
H81	H	0.923545	-0.706154	0.294396
H82	H	1.080081	-1.118533	0.464222
H83	H	1.067186	-0.296897	0.783907
H84	H	1.094065	-0.273837	1.115100
H85	H	0.930902	-0.413786	1.108474
H86	H	0.936265	-0.409197	0.975348
H87	H	0.406360	-0.292099	0.314005
H88	H	0.909374	-0.432246	0.644156
H89	H	0.597839	-0.413988	0.444579
H90	H	0.399790	-0.444028	0.476761
H91	H	0.737546	-0.267037	0.287154
H92	H	1.079915	-0.717686	0.464143
F93	F	0.257026	-0.449177	0.482279
