data_functionalizedCrystal
_audit_creation_method	'MofGen! by Chris Wilmer'
_symmetry_space_group_name_H-M	'P1'
_symmetry_Int_Tables_number	1
_symmetry_cell_setting	triclinic
loop_
_symmetry_equiv_pos_as_xyz
  x,y,z
_cell_length_a	19.077068
_cell_length_b	19.077142
_cell_length_c	19.076919
_cell_angle_alpha	89.925643
_cell_angle_beta	94.470751
_cell_angle_gamma	89.885450
loop_
_atom_site_label
_atom_site_type_symbol
_atom_site_fract_x
_atom_site_fract_y
_atom_site_fract_z
Zn1	Zn	-0.340467	-1.044046	-0.453535
Zn2	Zn	0.159533	-0.544046	0.046465
Zn3	Zn	-0.453617	-1.043960	-0.340376
Zn4	Zn	0.046383	-0.543960	0.159624
Zn5	Zn	-0.331038	-0.931658	-0.330962
Zn6	Zn	0.168962	-0.431658	0.169038
Zn7	Zn	-0.453191	-0.921799	-0.453108
Zn8	Zn	0.046809	-0.421799	0.046892
O9	O	-0.394578	-0.985366	-0.394495
O10	O	0.105422	-0.485366	0.105505
O11	O	-0.359601	-1.142194	-0.442642
O12	O	0.140399	-0.642194	0.057358
O13	O	-0.433589	-1.033152	-0.240651
O14	O	0.066411	-0.533152	0.259349
O15	O	-0.233814	-0.950729	-0.343461
O16	O	0.266186	-0.450729	0.156539
O17	O	-0.442732	-1.142130	-0.359505
O18	O	0.057268	-0.642130	0.140495
O19	O	-0.240742	-1.033300	-0.433514
O20	O	0.259258	-0.533300	0.066486
O21	O	-0.343531	-0.950645	-0.233735
O22	O	0.156469	-0.450645	0.266265
O23	O	-0.343117	-0.832191	-0.343047
O24	O	0.156883	-0.332191	0.156953
O25	O	-0.442005	-0.933926	-0.551640
O26	O	0.057995	-0.433926	-0.051640
O27	O	-0.432862	-0.824948	-0.432787
O28	O	0.067138	-0.324948	0.067213
O29	O	-0.359188	-1.023740	-0.551954
O30	O	0.140812	-0.523740	-0.051954
O31	O	-0.552035	-1.023592	-0.359091
O32	O	-0.052035	-0.523592	0.140909
O33	O	-0.551722	-0.933842	-0.441915
O34	O	-0.051722	-0.433842	0.058085
C35	C	-0.386921	-0.803118	-0.386849
C36	C	0.113079	-0.303118	0.113151
C37	C	-0.383663	-0.725150	-0.383596
C38	C	0.116337	-0.225150	0.116404
C39	C	-0.428922	-0.684768	-0.428722
C40	C	0.071078	-0.184768	0.071278
C41	C	-0.425852	-0.611509	-0.425668
C42	C	0.074148	-0.111509	0.074332
C43	C	-0.377525	-0.578633	-0.377484
C44	C	0.122475	-0.078633	0.122516
C45	C	-0.332260	-0.619021	-0.332356
C46	C	0.167740	-0.119021	0.167644
C47	C	-0.335328	-0.692278	-0.335414
C48	C	0.164672	-0.192278	0.164586
C49	C	-0.363329	-0.359939	-0.363338
C50	C	0.136671	0.140061	0.136662
C51	C	-0.360266	-0.286676	-0.360282
C52	C	0.139734	0.213324	0.139718
C53	C	-0.453858	-0.279169	-0.453596
C54	C	0.046142	0.220831	0.046404
C55	C	-0.456924	-0.352428	-0.456647
C56	C	0.043076	0.147572	0.043353
C57	C	-0.411657	-0.392810	-0.411521
C58	C	0.088343	0.107190	0.088479
N59	N	-0.374386	-0.503751	-0.374359
N60	N	0.125614	-0.003751	0.125641
N61	N	-0.414792	-0.467691	-0.414650
N62	N	0.085208	0.032309	0.085350
C63	C	-0.577413	-0.977656	-0.401494
C64	C	-0.077413	-0.477656	0.098506
C65	C	-0.655634	-0.974421	-0.404515
C66	C	-0.155634	-0.474421	0.095485
C67	C	-0.692526	-1.019663	-0.362850
C68	C	-0.192526	-0.519663	0.137150
C69	C	-0.766023	-1.016624	-0.365696
C70	C	-0.266023	-0.516624	0.134304
C71	C	-0.802628	-0.968340	-0.410202
C72	C	-0.302628	-0.468340	0.089798
C73	C	-0.765732	-0.923096	-0.451871
C74	C	-0.265732	-0.423096	0.048129
C75	C	-0.692236	-0.926139	-0.449029
C76	C	-0.192236	-0.426139	0.050971
C77	C	-1.022422	-0.954229	-0.423325
C78	C	-0.522422	-0.454229	0.076675
C79	C	-1.095922	-0.951188	-0.426162
C80	C	-0.595922	-0.451188	0.073838
C81	C	-1.096209	-1.044718	-0.339988
C82	C	-0.596209	-0.544718	0.160012
C83	C	-1.022711	-1.047753	-0.337147
C84	C	-0.522711	-0.547753	0.162853
C85	C	-0.985822	-1.002512	-0.378818
C86	C	-0.485822	-0.502512	0.121182
N87	N	-0.877754	-0.965231	-0.413109
N88	N	-0.377754	-0.465231	0.086891
N89	N	-0.910697	-1.005625	-0.375914
N90	N	-0.410697	-0.505625	0.124086
C91	C	-0.211031	-0.993124	-0.387485
C92	C	0.288969	-0.493124	0.112515
C93	C	-0.132814	-0.996430	-0.384498
C94	C	0.367186	-0.496430	0.115502
C95	C	-0.401601	-0.977743	-0.578045
C96	C	0.098399	-0.477743	-0.078045
C97	C	-0.404593	-0.974495	-0.656263
C98	C	0.095407	-0.474495	-0.156263
C99	C	-0.402262	-0.168326	-0.402163
C100	C	0.097738	0.331674	0.097837
C101	C	-0.405526	-0.246294	-0.405409
C102	C	0.094474	0.253706	0.094591
C103	C	-0.362883	-1.019728	-0.693174
C104	C	0.137117	-0.519728	-0.193174
C105	C	-0.365691	-1.016667	-0.766668
C106	C	0.134309	-0.516667	-0.266668
C107	C	-0.410215	-0.968376	-0.803249
C108	C	0.089785	-0.468376	-0.303249
C109	C	-0.451927	-0.923138	-0.766332
C110	C	0.048073	-0.423138	-0.266332
C111	C	-0.449114	-0.926196	-0.692840
C112	C	0.050886	-0.426196	-0.192840
C113	C	-0.423248	-0.954214	-1.023031
C114	C	0.076752	-0.454214	-0.523031
C115	C	-0.426060	-0.951161	-1.096528
C116	C	0.073940	-0.451161	-0.596528
C117	C	-0.339822	-1.044689	-1.096859
C118	C	0.160178	-0.544689	-0.596859
C119	C	-0.337016	-1.047745	-1.023365
C120	C	0.162984	-0.547745	-0.523365
C121	C	-0.378726	-1.002505	-0.986454
C122	C	0.121274	-0.502505	-0.486454
N123	N	-0.413089	-0.965248	-0.878372
N124	N	0.086911	-0.465248	-0.378372
N125	N	-0.375848	-1.005630	-0.911333
N126	N	0.124152	-0.505630	-0.411333
C127	C	-0.387534	-0.993001	-0.211659
C128	C	0.112466	-0.493001	0.288341
C129	C	-0.384349	-0.996394	-0.133440
C130	C	0.115651	-0.496394	0.366560
H131	H	-0.298469	-0.725157	-0.298671
H132	H	0.201531	-0.225157	0.201329
H133	H	-1.126252	-1.081552	-0.306062
H134	H	-0.626252	-0.581552	0.193938
H135	H	-0.662200	-0.889299	-0.482957
H136	H	-0.162200	-0.389299	0.017043
H137	H	-0.300762	-1.087071	-0.993586
H138	H	0.199238	-0.587071	-0.493586
H139	H	-0.462708	-0.578632	-0.462414
H140	H	0.037292	-0.078632	0.037586
C141	C	-0.540101	-0.915926	-1.003529
C142	C	-0.040101	-0.415926	-0.503529
C143	C	-0.469093	-0.904478	-0.982471
C144	C	0.030907	-0.404478	-0.482471
H145	H	-0.568402	-0.885218	-0.978486
H146	H	-0.068402	-0.385218	-0.478486
H147	H	-0.548139	-0.907205	-1.052530
H148	H	-0.048139	-0.407205	-0.552530
H149	H	-0.551920	-0.963118	-0.993842
H150	H	-0.051920	-0.463118	-0.493842
H151	H	-0.457272	-0.857287	-0.992164
H152	H	0.042728	-0.357287	-0.492164
H153	H	-0.461050	-0.913194	-0.933460
H154	H	0.038950	-0.413194	-0.433460
C155	C	-0.435021	-0.852953	-1.175587
C156	C	0.064979	-0.352953	-0.675587
C157	C	-0.474997	-0.898068	-1.136737
C158	C	0.025003	-0.398068	-0.636737
H159	H	-0.465233	-0.820180	-1.200412
H160	H	0.034767	-0.320180	-0.700412
H161	H	-0.402139	-0.828618	-1.144619
H162	H	0.097861	-0.328618	-0.644619
H163	H	-0.410590	-0.879467	-1.208088
H164	H	0.089410	-0.379467	-0.708088
H165	H	-0.499424	-0.871554	-1.104233
H166	H	0.000576	-0.371554	-0.604233
H167	H	-0.507891	-0.922405	-1.167709
H168	H	-0.007891	-0.422405	-0.667709
C169	C	-0.320273	-0.270471	-0.238918
C170	C	0.179727	0.229529	0.261082
C171	C	-0.307137	-0.250528	-0.307326
C172	C	0.192863	0.249472	0.192674
H173	H	-0.287472	-0.248154	-0.206230
H174	H	0.212528	0.251846	0.293770
H175	H	-0.366633	-0.256907	-0.229849
H176	H	0.133367	0.243093	0.270151
H177	H	-0.315609	-0.319879	-0.234280
H178	H	0.184391	0.180121	0.265720
H179	H	-0.311806	-0.201120	-0.311965
H180	H	0.188194	0.298880	0.188035
H181	H	-0.260765	-0.264088	-0.316398
H182	H	0.239235	0.235912	0.183602
H183	H	-0.992909	-1.087070	-0.300906
H184	H	-0.492909	-0.587070	0.199094
C185	C	-0.936257	-0.862888	-0.425869
C186	C	-0.436257	-0.362888	0.074131
C187	C	-0.981872	-0.904497	-0.469120
C188	C	-0.481872	-0.404497	0.030880
H189	H	-0.911218	-0.832188	-0.454143
H190	H	-0.411218	-0.332188	0.045857
H191	H	-0.962666	-0.836169	-0.395179
H192	H	-0.462666	-0.336169	0.104821
H193	H	-0.903944	-0.892090	-0.398961
H194	H	-0.403944	-0.392090	0.101039
H195	H	-1.014189	-0.875295	-0.496025
H196	H	-0.514189	-0.375295	0.003975
H197	H	-0.955461	-0.931218	-0.499823
H198	H	-0.455461	-0.431218	0.000177
C199	C	-1.088262	-0.859053	-0.511075
C200	C	-0.588262	-0.359053	-0.011075
C201	C	-1.136161	-0.898117	-0.475094
C202	C	-0.636161	-0.398117	0.024906
H203	H	-1.113106	-0.826295	-0.541285
H204	H	-0.613106	-0.326295	-0.041285
H205	H	-1.057335	-0.834700	-0.478168
H206	H	-0.557335	-0.334700	0.021832
H207	H	-1.061870	-0.889673	-0.538185
H208	H	-0.561870	-0.389673	-0.038185
H209	H	-1.162550	-0.867497	-0.447980
H210	H	-0.662550	-0.367497	0.052020
H211	H	-1.167100	-0.922471	-0.508006
H212	H	-0.667100	-0.422471	-0.008006
H213	H	-0.305864	-1.081520	-1.126919
H214	H	0.194136	-0.581520	-0.626919
C215	C	-0.549123	-0.337646	-0.548580
C216	C	-0.049123	0.162354	-0.048580
C217	C	-0.510045	-0.388563	-0.509614
C218	C	-0.010045	0.111437	-0.009614
H219	H	-0.581916	-0.359956	-0.581281
H220	H	-0.081916	0.140044	-0.081281
H221	H	-0.573620	-0.309211	-0.517712
H222	H	-0.073620	0.190789	-0.017712
H223	H	-0.518333	-0.309248	-0.573184
H224	H	-0.018333	0.190752	-0.073184
H225	H	-0.540835	-0.416957	-0.485006
H226	H	-0.040835	0.083043	0.014994
H227	H	-0.485547	-0.417010	-0.540487
H228	H	0.014453	0.082990	-0.040487
C229	C	-0.353225	-0.446643	-0.271751
C230	C	0.146775	0.053357	0.228249
C231	C	-0.313576	-0.404318	-0.313731
C232	C	0.186424	0.095682	0.186269
H233	H	-0.322507	-0.474045	-0.241127
H234	H	0.177493	0.025955	0.258873
H235	H	-0.381612	-0.417890	-0.244767
H236	H	0.118388	0.082110	0.255233
H237	H	-0.382439	-0.476709	-0.300891
H238	H	0.117561	0.023291	0.199109
H239	H	-0.284366	-0.374249	-0.284591
H240	H	0.215634	0.125751	0.215409
H241	H	-0.285177	-0.433075	-0.340718
H242	H	0.214823	0.066925	0.159282
C243	C	-0.851567	-0.905923	-0.549300
C244	C	-0.351567	-0.405923	-0.049300
C245	C	-0.805968	-0.870021	-0.500792
C246	C	-0.305968	-0.370021	-0.000792
H247	H	-0.876409	-0.873154	-0.579497
H248	H	-0.376409	-0.373154	-0.079497
H249	H	-0.825171	-0.936526	-0.576414
H250	H	-0.325171	-0.436526	-0.076414
H251	H	-0.884053	-0.932430	-0.524884
H252	H	-0.384053	-0.432430	-0.024884
H253	H	-0.773478	-0.843518	-0.525208
H254	H	-0.273478	-0.343518	-0.025208
H255	H	-0.832366	-0.839406	-0.473675
H256	H	-0.332366	-0.339406	0.026325
C257	C	-0.292287	-0.602840	-0.210991
C258	C	0.207713	-0.102840	0.289009
C259	C	-0.279136	-0.582886	-0.279391
C260	C	0.220864	-0.082886	0.220609
H261	H	-0.259487	-0.580535	-0.178293
H262	H	0.240513	-0.080535	0.321707
H263	H	-0.338647	-0.589270	-0.201927
H264	H	0.161353	-0.089270	0.298073
H265	H	-0.287634	-0.652250	-0.206363
H266	H	0.212366	-0.152250	0.293637
H267	H	-0.283795	-0.533476	-0.284021
H268	H	0.216205	-0.033476	0.215979
H269	H	-0.232764	-0.596452	-0.288459
H270	H	0.267236	-0.096452	0.211541
H271	H	-0.662727	-1.058978	-0.326606
H272	H	-0.162727	-0.558978	0.173394
C273	C	-0.536883	-0.830995	-0.758618
C274	C	-0.036883	-0.330995	-0.258618
C275	C	-0.500869	-0.870054	-0.806540
C276	C	-0.000869	-0.370054	-0.306540
H277	H	-0.567096	-0.798222	-0.783441
H278	H	-0.067096	-0.298222	-0.283441
H279	H	-0.563986	-0.861611	-0.732266
H280	H	-0.063986	-0.361611	-0.232266
H281	H	-0.503990	-0.806654	-0.727655
H282	H	-0.003990	-0.306654	-0.227655
H283	H	-0.533762	-0.894400	-0.837500
H284	H	-0.033762	-0.394400	-0.337500
H285	H	-0.473764	-0.839434	-0.832904
H286	H	0.026236	-0.339434	-0.332904
H287	H	-0.326629	-1.059053	-0.663395
H288	H	0.173371	-0.559053	-0.163395
H289	H	-0.796056	-1.053465	-0.331768
H290	H	-0.296056	-0.553465	0.168232
H291	H	-0.331728	-1.053502	-0.796718
H292	H	0.168272	-0.553502	-0.296718
H293	H	-0.483072	-0.889356	-0.662787
H294	H	0.016928	-0.389356	-0.162787
H295	H	-0.468278	-0.711529	-0.467956
H296	H	0.031722	-0.211529	0.032044
H297	H	-0.490710	-0.246283	-0.490335
H298	H	0.009290	0.253717	0.009665
