data_functionalizedCrystal
_audit_creation_method	'MofGen! by Chris Wilmer'
_symmetry_space_group_name_H-M	'P1'
_symmetry_Int_Tables_number	1
_symmetry_cell_setting	triclinic
loop_
_symmetry_equiv_pos_as_xyz
  x,y,z
_cell_length_a	31.640172
_cell_length_b	14.809374
_cell_length_c	14.809374
_cell_angle_alpha	73.428020
_cell_angle_beta	89.995465
_cell_angle_gamma	65.405046
loop_
_atom_site_label
_atom_site_type_symbol
_atom_site_fract_x
_atom_site_fract_y
_atom_site_fract_z
Zr1	Zr	0.469572	0.867192	0.014943
O2	O	0.418245	1.010590	-0.096059
O3	O	0.477609	0.705784	0.032324
O4	O	0.495322	0.841201	-0.120075
O5	O	0.395317	0.901955	0.195490
O6	O	0.564878	0.841186	-0.120082
O7	O	0.400533	0.875172	0.056339
O8	O	0.533193	0.598949	0.152531
O9	O	0.427001	1.144192	-0.077123
O10	O	0.542245	0.778832	0.059843
O11	O	0.486444	0.798831	0.163696
O12	O	0.507299	0.958267	-0.015734
O13	O	0.451497	0.978266	0.088118
Zr14	Zr	0.572186	0.909883	0.236860
Zr15	Zr	0.580505	0.867168	0.014931
Zr16	Zr	0.461253	0.909906	0.236872
Zr17	Zr	0.483537	1.080271	0.045144
Zr18	Zr	0.558221	0.696803	0.206659
O19	O	0.564149	1.071291	0.219479
O20	O	0.575978	1.010556	-0.096076
O21	O	0.406417	1.071324	0.219496
O22	O	0.623513	0.766485	0.347862
O23	O	0.635342	0.705750	0.032307
O24	O	0.465781	0.766518	0.347879
O25	O	0.646442	0.875120	0.056313
O26	O	0.546436	0.935873	0.371878
O27	O	0.476881	0.935888	0.371885
O28	O	0.641226	0.901902	0.195464
O29	O	0.515178	1.144173	-0.077133
O30	O	0.526580	0.632902	0.328936
O31	O	0.614757	0.632883	0.328926
O32	O	0.621370	0.598931	0.152522
O33	O	0.420389	1.178144	0.099281
O34	O	0.508566	1.178125	0.099272
O35	O	0.534460	0.818807	0.267537
O36	O	0.590261	0.798809	0.163685
O37	O	0.555314	0.978244	0.088107
O38	O	0.499513	0.998242	0.191960
C39	C	0.503411	0.622007	0.088125
C40	C	0.497483	0.531549	0.075303
C41	C	0.523941	0.435287	0.132523
C42	C	0.517814	0.341792	0.119273
C43	C	0.382119	0.888567	0.125917
C44	C	0.335025	0.888577	0.125922
C45	C	0.045890	0.873762	0.049241
C46	C	-0.131097	0.873747	0.049232
O47	O	-0.151530	0.861152	-0.015946
N48	N	-0.156101	0.888503	0.125890
C49	C	-0.136855	0.903258	0.202560
O50	O	-0.162181	0.915799	0.267767
C51	C	0.040133	0.903266	0.202572
C52	C	0.065133	0.888519	0.125903
C53	C	0.070890	0.859015	-0.027420
C54	C	0.115133	0.859025	-0.027419
C55	C	0.134376	0.873782	0.049243
C56	C	0.109376	0.888529	0.125904
C57	C	0.059380	0.918014	0.279243
C58	C	0.103631	0.918012	0.279240
C59	C	0.128631	0.903265	0.202572
C60	C	0.172862	0.903296	0.202567
N61	N	0.197866	0.888539	0.125909
C62	C	0.178623	0.873782	0.049246
C63	C	-0.229776	0.903255	0.202547
C64	C	-0.274023	0.903255	0.202544
C65	C	-0.268262	0.873741	0.049216
C66	C	-0.224016	0.873749	0.049217
C67	C	-0.204772	0.888498	0.125888
C68	C	0.271536	0.873805	0.049254
C69	C	0.315782	0.873820	0.049259
C70	C	0.310018	0.903328	0.202589
C71	C	0.265775	0.903318	0.202581
C72	C	0.246536	0.888552	0.125908
O73	O	0.193326	0.915872	0.267716
O74	O	0.203961	0.861221	-0.015941
C75	C	0.001647	0.873753	0.049240
C76	C	-0.023353	0.888500	0.125902
C77	C	-0.004110	0.903257	0.202564
C78	C	-0.067600	0.888500	0.125898
C79	C	-0.086843	0.873743	0.049236
C80	C	-0.061839	0.858986	-0.027423
C81	C	-0.017596	0.858996	-0.027422
C82	C	-0.029114	0.918013	0.279223
C83	C	-0.073357	0.918004	0.279215
C84	C	-0.092600	0.903247	0.202553
C85	C	0.659640	0.888508	0.125886
C86	C	0.706734	0.888498	0.125881
C87	C	0.531285	0.835108	-0.151699
C88	C	0.534817	0.816974	-0.245913
C89	C	0.538347	1.155067	0.163678
C90	C	0.544276	1.245525	0.176500
C91	C	0.519056	0.897902	-0.325409
C92	C	0.522705	0.879162	-0.422786
C93	C	0.510473	0.941967	0.403502
C94	C	0.506942	0.960100	0.497716
C95	C	0.642172	0.621978	0.088110
C96	C	0.683337	0.531510	0.075283
C97	C	0.493006	0.675437	0.365725
C98	C	0.483545	0.603112	0.447118
C99	C	0.631766	0.675407	0.365710
C100	C	0.669400	0.603073	0.447098
C101	C	0.409993	1.101667	-0.113907
C102	C	0.372359	1.174002	-0.195295
C103	C	0.399587	1.155097	0.163693
C104	C	0.358421	1.245565	0.176520
C105	C	0.548753	1.101638	-0.113922
C106	C	0.558213	1.173962	-0.195315
C107	C	0.677606	0.478596	0.015047
C108	C	0.716282	0.393599	0.002976
C109	C	0.760690	0.361514	0.051148
C110	C	0.766421	0.414437	0.111388
C111	C	0.727745	0.499436	0.123452
C112	C	0.504166	0.579577	0.539555
C113	C	0.495276	0.511634	0.616043
C114	C	0.465767	0.467222	0.600092
C115	C	0.445144	0.490763	0.507646
C116	C	0.454032	0.558711	0.431161
C117	C	0.716205	0.558665	0.431109
C118	C	0.751572	0.490709	0.507576
C119	C	0.740131	0.467157	0.600030
C120	C	0.693321	0.511573	0.616018
C121	C	0.657956	0.579533	0.539553
C122	C	0.325554	1.218420	-0.179305
C123	C	0.290189	1.286402	-0.255768
C124	C	0.301630	1.309959	-0.348221
C125	C	0.348440	1.265537	-0.364210
C126	C	0.383804	1.197562	-0.287747
C127	C	0.364154	1.298486	0.236748
C128	C	0.325480	1.383501	0.248798
C129	C	0.281073	1.415589	0.200623
C130	C	0.275341	1.362663	0.140387
C131	C	0.314016	1.277654	0.128333
C132	C	0.587724	1.218354	-0.179335
C133	C	0.596622	1.286301	-0.255806
C134	C	0.576006	1.309860	-0.348256
C135	C	0.546494	1.265460	-0.364236
C136	C	0.537599	1.197509	-0.287766
H137	H	0.470295	0.544747	0.016509
H138	H	0.583252	1.365192	-0.410514
H139	H	0.619845	0.615682	0.552584
H140	H	0.529710	1.284653	-0.439519
H141	H	0.421118	0.454593	0.494672
N142	N	0.802399	0.269828	0.038131
H143	H	0.816323	0.213418	0.101544
H144	H	0.826762	0.293546	0.011433
N145	N	0.544165	0.768999	-0.428110
H146	H	0.520286	0.757812	-0.463106
H147	H	0.554185	0.717637	-0.361652
H148	H	0.490746	1.043265	-0.498259
N149	N	0.505762	1.149650	-0.305019
H150	H	0.478175	1.171060	-0.268617
H151	H	0.523763	1.070940	-0.282822
N152	N	0.556275	0.706818	-0.251244
H153	H	0.532396	0.695631	-0.286239
H154	H	0.566295	0.655456	-0.184786
H155	H	0.249585	1.484810	0.210447
H156	H	0.239180	1.388802	0.101167
N157	N	0.629712	0.513189	-0.036914
H158	H	0.631957	0.466765	-0.076905
H159	H	0.617807	0.588027	-0.079311
N160	N	0.497601	1.008055	-0.320071
H161	H	0.464137	1.046078	-0.352686
H162	H	0.516290	1.045983	-0.352677
H163	H	0.357750	1.284726	-0.439494
H164	H	0.055227	0.846994	-0.089849
H165	H	0.732418	0.542510	0.172508
N166	N	0.431762	0.584151	0.331470
H167	H	0.411712	0.545720	0.332983
H168	H	0.457115	0.561854	0.290229
H169	H	0.684012	0.492386	0.691304
N170	N	0.628453	1.334176	-0.238549
H171	H	0.615080	1.376970	-0.194447
H172	H	0.630957	1.380743	-0.301053
N173	N	0.710095	0.336530	-0.061998
H174	H	0.676093	0.369753	-0.090673
H175	H	0.719818	0.260783	-0.024328
H176	H	0.768932	0.411818	0.662284
N177	N	0.535995	0.627466	0.556781
H178	H	0.522623	0.670264	0.600881
H179	H	0.538491	0.674033	0.494269
H180	H	0.512073	0.492476	0.691310
H181	H	0.571463	0.232320	0.235305
H182	H	0.802582	0.388300	0.150605
H183	H	0.309341	1.234568	0.079292
N184	N	0.342745	0.857920	-0.033438
H185	H	0.323839	0.848568	-0.082000
H186	H	0.373639	0.793583	-0.009952
H187	H	0.458534	0.411896	0.662380
N188	N	0.728551	0.584049	0.331396
H189	H	0.763570	0.545598	0.332884
H190	H	0.718427	0.661849	0.304393
N191	N	0.802056	0.442810	0.490320
H192	H	0.803933	0.468037	0.420146
H193	H	0.814719	0.364099	0.512595
H194	H	0.551127	0.422090	0.191322
N195	N	0.313207	1.193017	-0.079594
H196	H	0.278189	1.231481	-0.081080
H197	H	0.329893	1.215321	-0.038406
N198	N	0.239705	1.334303	-0.238511
H199	H	0.237827	1.309052	-0.168341
H200	H	0.220481	1.312910	-0.274976
H201	H	0.272830	1.365309	-0.410473
N202	N	-0.209032	0.919174	0.285252
H203	H	-0.203211	0.983530	0.261851
H204	H	-0.178411	0.856087	0.315482
N205	N	0.434286	1.149652	-0.305001
H206	H	0.436163	1.174893	-0.375174
H207	H	0.446944	1.070943	-0.282741
H208	H	0.490624	0.354998	0.060474
N209	N	0.412049	1.263888	0.288706
H210	H	0.411043	1.243228	0.359542
H211	H	0.421482	1.323298	0.269376
N212	N	0.331667	1.440573	0.313768
H213	H	0.365667	1.407334	0.342462
H214	H	0.311475	1.436282	0.366170
N215	N	0.609962	1.192954	-0.079626
H216	H	0.630008	1.231391	-0.081121
H217	H	0.630144	1.115151	-0.052633
H218	H	0.255877	0.861778	-0.013180
H219	H	0.135486	0.847012	-0.089847
H220	H	-0.283938	0.861727	-0.013206
N221	N	-0.197053	0.857844	-0.033473
H222	H	-0.215963	0.848500	-0.082036
H223	H	-0.166162	0.793501	-0.009988
H224	H	0.039031	0.930021	0.341673
N225	N	-0.300989	0.919179	0.285227
H226	H	-0.282080	0.928524	0.333789
H227	H	-0.307064	0.856123	0.315398
H228	H	0.119297	0.930020	0.341678
H229	H	0.245417	0.915342	0.265005
H230	H	0.002756	0.846987	-0.089852
N231	N	0.330777	0.919247	0.285270
H232	H	0.362600	0.917009	0.273632
H233	H	0.334197	0.861986	0.345575
H234	H	-0.093711	0.930021	0.341648
N235	N	-0.082606	0.843083	-0.110109
H236	H	-0.088428	0.778729	-0.086693
H237	H	-0.060043	0.833788	-0.158655
N238	N	-0.008359	0.933911	0.361921
H239	H	-0.030915	0.943251	0.410480
H240	H	-0.002534	0.998254	0.338445
