data_functionalizedCrystal
_audit_creation_method	'MofGen! by Chris Wilmer'
_symmetry_space_group_name_H-M	'P1'
_symmetry_Int_Tables_number	1
_symmetry_cell_setting	triclinic
loop_
_symmetry_equiv_pos_as_xyz
  x,y,z
_cell_length_a	18.215407
_cell_length_b	12.594516
_cell_length_c	18.215407
_cell_angle_alpha	90.007506
_cell_angle_beta	90.009037
_cell_angle_gamma	90.016501
loop_
_atom_site_label
_atom_site_type_symbol
_atom_site_fract_x
_atom_site_fract_y
_atom_site_fract_z
Zn1	Zn	1.125039	-0.423894	0.416146
Zn2	Zn	1.375039	-0.173894	0.666146
Zn3	Zn	1.625039	0.076106	0.916146
Zn4	Zn	1.875039	0.326106	1.166146
Zn5	Zn	1.124989	-0.601846	0.293092
Zn6	Zn	1.374989	-0.351846	0.543092
Zn7	Zn	1.624989	-0.101846	0.793092
Zn8	Zn	1.874989	0.148154	1.043092
Zn9	Zn	1.001994	-0.423883	0.293093
Zn10	Zn	1.251994	-0.173883	0.543093
Zn11	Zn	1.501994	0.076117	0.793093
Zn12	Zn	1.751994	0.326117	1.043093
Zn13	Zn	1.001956	-0.601832	0.416117
Zn14	Zn	1.251956	-0.351832	0.666117
Zn15	Zn	1.501956	-0.101832	0.916117
Zn16	Zn	1.751956	0.148168	1.166117
O17	O	1.063495	-0.512864	0.354612
O18	O	1.313495	-0.262864	0.604612
O19	O	1.563495	-0.012864	0.854612
O20	O	1.813495	0.237136	1.104612
O21	O	1.228016	-0.447510	0.399834
O22	O	1.478016	-0.197510	0.649834
O23	O	1.728016	0.052490	0.899834
O24	O	1.978016	0.302490	1.149834
O25	O	1.108669	-0.578240	0.190108
O26	O	1.358669	-0.328240	0.440108
O27	O	1.608669	-0.078240	0.690108
O28	O	1.858669	0.171760	0.940108
O29	O	1.018353	-0.274939	0.309429
O30	O	1.268353	-0.024939	0.559429
O31	O	1.518353	0.225061	0.809429
O32	O	1.768353	0.475061	1.059429
O33	O	1.227980	-0.578250	0.309427
O34	O	1.477980	-0.328250	0.559427
O35	O	1.727980	-0.078250	0.809427
O36	O	1.977980	0.171750	1.059427
O37	O	1.108753	-0.274947	0.399835
O38	O	1.358753	-0.024947	0.649835
O39	O	1.608753	0.225053	0.899835
O40	O	1.858753	0.475053	1.149835
O41	O	1.018305	-0.447492	0.190109
O42	O	1.268305	-0.197492	0.440109
O43	O	1.518305	0.052508	0.690109
O44	O	1.768305	0.302508	0.940109
O45	O	0.899005	-0.447478	0.309401
O46	O	1.149005	-0.197478	0.559401
O47	O	1.399005	0.052522	0.809401
O48	O	1.649005	0.302522	1.059401
O49	O	1.018288	-0.578227	0.519105
O50	O	1.268288	-0.328227	0.769105
O51	O	1.518288	-0.078227	1.019105
O52	O	1.768288	0.171773	1.269105
O53	O	0.898977	-0.578216	0.399786
O54	O	1.148977	-0.328216	0.649786
O55	O	1.398977	-0.078216	0.899786
O56	O	1.648977	0.171784	1.149786
O57	O	1.108716	-0.447496	0.519126
O58	O	1.358716	-0.197496	0.769126
O59	O	1.608716	0.052504	1.019126
O60	O	1.858716	0.302504	1.269126
O61	O	1.108632	-0.750790	0.309399
O62	O	1.358632	-0.500790	0.559399
O63	O	1.608632	-0.250790	0.809399
O64	O	1.858632	-0.000790	1.059399
O65	O	1.018240	-0.750780	0.399785
O66	O	1.268240	-0.500780	0.649785
O67	O	1.518240	-0.250780	0.899785
O68	O	1.768240	-0.000780	1.149785
C69	C	0.872288	-0.512845	0.354591
C70	C	1.122288	-0.262845	0.604591
C71	C	1.372288	-0.012845	0.854591
C72	C	1.622288	0.237155	1.104591
C73	C	0.790489	-0.512863	0.354599
C74	C	1.040489	-0.262863	0.604599
C75	C	1.290489	-0.012863	0.854599
C76	C	1.540489	0.237137	1.104599
C77	C	0.602300	-0.581046	0.401603
C78	C	0.852300	-0.331046	0.651603
C79	C	1.102300	-0.081046	0.901603
C80	C	1.352300	0.168954	1.151603
C81	C	0.525441	-0.581049	0.401613
C82	C	0.775441	-0.331049	0.651613
C83	C	1.025441	-0.081049	0.901613
C84	C	1.275441	0.168951	1.151613
C85	C	0.525441	-0.444701	0.307636
C86	C	0.775441	-0.194701	0.557636
C87	C	1.025441	0.055299	0.807636
C88	C	1.275441	0.305299	1.057636
C89	C	0.602298	-0.444693	0.307631
C90	C	0.852298	-0.194693	0.557631
C91	C	1.102298	0.055307	0.807631
C92	C	1.352298	0.305307	1.057631
C93	C	0.640726	-0.512871	0.354614
C94	C	0.890726	-0.262871	0.604614
C95	C	1.140726	-0.012871	0.854614
C96	C	1.390726	0.237129	1.104614
C97	C	0.487010	-0.512883	0.354628
C98	C	0.737010	-0.262883	0.604628
C99	C	0.987010	-0.012883	0.854628
C100	C	1.237010	0.237117	1.104628
C101	C	0.403676	-0.512886	0.354637
C102	C	0.653676	-0.262886	0.604637
C103	C	0.903676	-0.012886	0.854637
C104	C	1.153676	0.237114	1.104637
C105	C	0.724065	-0.512867	0.354605
C106	C	0.974065	-0.262867	0.604605
C107	C	1.224065	-0.012867	0.854605
C108	C	1.474065	0.237133	1.104605
C109	C	1.063446	-0.789405	0.354605
C110	C	1.313446	-0.539405	0.604605
C111	C	1.563446	-0.289405	0.854605
C112	C	1.813446	-0.039405	1.104605
C113	C	1.063493	-0.907710	0.354626
C114	C	1.313493	-0.657710	0.604626
C115	C	1.563493	-0.407710	0.854626
C116	C	1.813493	-0.157710	1.104626
C117	C	1.014324	-0.976996	0.403752
C118	C	1.264324	-0.726996	0.653752
C119	C	1.514324	-0.476996	0.903752
C120	C	1.764324	-0.226996	1.153752
C121	C	0.996407	-1.047830	0.336599
C122	C	1.246407	-0.797830	0.586599
C123	C	1.496407	-0.547830	0.836599
C124	C	1.746407	-0.297830	1.086599
C125	C	1.081477	-1.047675	0.421790
C126	C	1.331477	-0.797675	0.671790
C127	C	1.581477	-0.547675	0.921790
C128	C	1.831477	-0.297675	1.171790
C129	C	1.045541	-0.976986	0.287438
C130	C	1.295541	-0.726986	0.537438
C131	C	1.545541	-0.476986	0.787438
C132	C	1.795541	-0.226986	1.037438
C133	C	1.130641	-0.976824	0.372674
C134	C	1.380641	-0.726824	0.622674
C135	C	1.630641	-0.476824	0.872674
C136	C	1.880641	-0.226824	1.122674
C137	C	1.112750	-1.047626	0.305475
C138	C	1.362750	-0.797626	0.555475
C139	C	1.612750	-0.547626	0.805475
C140	C	1.862750	-0.297626	1.055475
C141	C	1.255448	-0.512883	0.354633
C142	C	1.505448	-0.262883	0.604633
C143	C	1.755448	-0.012883	0.854633
C144	C	2.005448	0.237117	1.104633
C145	C	1.337246	-0.512891	0.354643
C146	C	1.587246	-0.262891	0.604643
C147	C	1.837246	-0.012891	0.854643
C148	C	2.087246	0.237109	1.104643
C149	C	1.063503	-0.512861	0.546565
C150	C	1.313503	-0.262861	0.796565
C151	C	1.563503	-0.012861	1.046565
C152	C	1.813503	0.237139	1.296565
C153	C	1.063507	-0.512860	0.628364
C154	C	1.313507	-0.262860	0.878364
C155	C	1.563507	-0.012860	1.128364
C156	C	1.813507	0.237140	1.378364
C157	C	1.063563	-0.235243	0.354635
C158	C	1.313563	0.014757	0.604635
C159	C	1.563563	0.264757	0.854635
C160	C	1.813563	0.514757	1.104635
C161	C	1.063592	-0.116937	0.354645
C162	C	1.313592	0.133063	0.604645
C163	C	1.563592	0.383063	0.854645
C164	C	1.813592	0.633063	1.104645
C165	C	1.110572	-0.444797	0.893433
C166	C	1.360572	-0.194797	1.143433
C167	C	1.610572	0.055203	1.393433
C168	C	1.860572	0.305203	1.643433
C169	C	1.110578	-0.444797	0.816575
C170	C	1.360578	-0.194797	1.066575
C171	C	1.610578	0.055203	1.316575
C172	C	1.860578	0.305203	1.566575
C173	C	1.016420	-0.580940	0.816542
C174	C	1.266420	-0.330940	1.066542
C175	C	1.516420	-0.080940	1.316542
C176	C	1.766420	0.169060	1.566542
C177	C	1.016419	-0.580945	0.893400
C178	C	1.266419	-0.330945	1.143400
C179	C	1.516419	-0.080945	1.393400
C180	C	1.766419	0.169055	1.643400
C181	C	1.063494	-0.512868	0.931843
C182	C	1.313494	-0.262868	1.181843
C183	C	1.563494	-0.012868	1.431843
C184	C	1.813494	0.237132	1.681843
C185	C	1.063500	-0.512862	0.778127
C186	C	1.313500	-0.262862	1.028127
C187	C	1.563500	-0.012862	1.278127
C188	C	1.813500	0.237138	1.528127
C189	C	1.063505	-0.512862	0.694793
C190	C	1.313505	-0.262862	0.944793
C191	C	1.563505	-0.012862	1.194793
C192	C	1.813505	0.237138	1.444793
C193	C	1.063490	-0.512869	1.015182
C194	C	1.313490	-0.262869	1.265182
C195	C	1.563490	-0.012869	1.515182
C196	C	1.813490	0.237131	1.765182
C197	C	1.063483	-0.512885	1.163405
C198	C	1.313483	-0.262885	1.413405
C199	C	1.563483	-0.012885	1.663405
C200	C	1.813483	0.237115	1.913405
C201	C	1.063487	-0.512870	1.081607
C202	C	1.313487	-0.262870	1.331607
C203	C	1.563487	-0.012870	1.581607
C204	C	1.813487	0.237130	1.831607
H205	H	0.633586	-0.636558	0.439862
H206	H	0.883586	-0.386558	0.689862
H207	H	1.133586	-0.136558	0.939862
H208	H	1.383586	0.113442	1.189862
H209	H	0.494158	-0.636562	0.439877
H210	H	0.744158	-0.386562	0.689877
H211	H	0.994158	-0.136562	0.939877
H212	H	1.244158	0.113438	1.189877
H213	H	0.633586	-0.389171	0.269366
H214	H	0.883586	-0.139171	0.519366
H215	H	1.133586	0.110829	0.769366
H216	H	1.383586	0.360829	1.019366
H217	H	0.972669	-0.945982	0.445236
H218	H	1.222669	-0.695982	0.695236
H219	H	1.472669	-0.445982	0.945236
H220	H	1.722669	-0.195982	1.195236
N221	N	0.921247	-1.089134	0.316373
N222	N	1.171247	-0.839134	0.566373
N223	N	1.421247	-0.589134	0.816373
N224	N	1.671247	-0.339134	1.066373
H225	H	0.884101	-1.063448	0.353501
H226	H	1.134101	-0.813448	0.603501
H227	H	1.384101	-0.563448	0.853501
H228	H	1.634101	-0.313448	1.103501
H229	H	0.922025	-1.169315	0.316047
H230	H	1.172025	-0.919315	0.566047
H231	H	1.422025	-0.669315	0.816047
H232	H	1.672025	-0.419315	1.066047
H233	H	1.030305	-0.946064	0.230630
H234	H	1.280305	-0.696064	0.480630
H235	H	1.530305	-0.446064	0.730630
H236	H	1.780305	-0.196064	0.980630
H237	H	0.494144	-0.389194	0.269383
H238	H	0.744144	-0.139194	0.519383
H239	H	0.994144	0.110806	0.769383
H240	H	1.244144	0.360806	1.019383
H241	H	1.154373	-1.078444	0.263890
H242	H	1.404373	-0.828444	0.513890
H243	H	1.654373	-0.578444	0.763890
H244	H	1.904373	-0.328444	1.013890
N245	N	1.205783	-0.935481	0.392914
N246	N	1.455783	-0.685481	0.642914
N247	N	1.705783	-0.435481	0.892914
N248	N	1.955783	-0.185481	1.142914
H249	H	1.202023	-0.890198	0.438524
H250	H	1.452023	-0.640198	0.688524
H251	H	1.702023	-0.390198	0.938524
H252	H	1.952023	-0.140198	1.188524
H253	H	1.225802	-0.891395	0.351153
H254	H	1.475802	-0.641395	0.601153
H255	H	1.725802	-0.391395	0.851153
H256	H	1.975802	-0.141395	1.101153
H257	H	1.096647	-1.078726	0.478583
H258	H	1.346647	-0.828726	0.728583
H259	H	1.596647	-0.578726	0.978583
H260	H	1.846647	-0.328726	1.228583
H261	H	0.978081	-0.636382	0.924674
H262	H	1.228081	-0.386382	1.174674
H263	H	1.478081	-0.136382	1.424674
H264	H	1.728081	0.113618	1.674674
H265	H	0.978092	-0.636365	0.785232
H266	H	1.228092	-0.386365	1.035232
H267	H	1.478092	-0.136365	1.285232
H268	H	1.728092	0.113635	1.535232
N269	N	1.161347	-0.371371	0.934892
N270	N	1.411347	-0.121371	1.184892
N271	N	1.661347	0.128629	1.434892
N272	N	1.911347	0.378629	1.684892
H273	H	1.213925	-0.387903	0.921524
H274	H	1.463925	-0.137903	1.171524
H275	H	1.713925	0.112097	1.421524
H276	H	1.963925	0.362097	1.671524
H277	H	1.154142	-0.381727	0.989397
H278	H	1.404142	-0.131727	1.239397
H279	H	1.654142	0.118273	1.489397
H280	H	1.904142	0.368273	1.739397
N281	N	1.161357	-0.371383	0.775146
N282	N	1.411357	-0.121383	1.025146
N283	N	1.661357	0.128617	1.275146
N284	N	1.911357	0.378617	1.525146
H285	H	1.191178	-0.328261	0.811165
H286	H	1.441178	-0.078261	1.061165
H287	H	1.691178	0.171739	1.311165
H288	H	1.941178	0.421739	1.561165
H289	H	1.131413	-0.322125	0.743255
H290	H	1.381413	-0.072125	0.993255
H291	H	1.631413	0.177875	1.243255
H292	H	1.881413	0.427875	1.493255
