data_functionalizedCrystal
_audit_creation_method	'MofGen! by Chris Wilmer'
_symmetry_space_group_name_H-M	'P1'
_symmetry_Int_Tables_number	1
_symmetry_cell_setting	triclinic
loop_
_symmetry_equiv_pos_as_xyz
  x,y,z
_cell_length_a	18.050589
_cell_length_b	12.827893
_cell_length_c	12.827885
_cell_angle_alpha	89.978811
_cell_angle_beta	90.029551
_cell_angle_gamma	89.973760
loop_
_atom_site_label
_atom_site_type_symbol
_atom_site_fract_x
_atom_site_fract_y
_atom_site_fract_z
Zn1	Zn	-0.295663	-1.597576	0.590904
Zn2	Zn	0.204337	-1.097576	1.090904
Zn3	Zn	-0.419871	-1.597431	0.416165
Zn4	Zn	0.080129	-1.097431	0.916165
Zn5	Zn	-0.295695	-1.422818	0.416172
Zn6	Zn	0.204305	-0.922818	0.916172
Zn7	Zn	-0.419811	-1.422764	0.590859
Zn8	Zn	0.080189	-0.922764	1.090859
O9	O	-0.357760	-1.510147	0.503525
O10	O	0.142240	-1.010147	1.003525
O11	O	-0.312151	-1.743793	0.567740
O12	O	0.187849	-1.243793	1.067740
O13	O	-0.403437	-1.574230	0.269930
O14	O	0.096563	-1.074230	0.769930
O15	O	-0.191766	-1.446083	0.439372
O16	O	0.308234	-0.946083	0.939372
O17	O	-0.403406	-1.743687	0.439360
O18	O	0.096594	-1.243687	0.939360
O19	O	-0.191742	-1.574478	0.567747
O20	O	0.308258	-1.074478	1.067747
O21	O	-0.312205	-1.445943	0.269935
O22	O	0.187795	-0.945943	0.769935
O23	O	-0.312147	-1.276575	0.439328
O24	O	0.187853	-0.776575	0.939328
O25	O	-0.403304	-1.445991	0.737101
O26	O	0.096696	-0.945991	1.237101
O27	O	-0.403335	-1.276535	0.567670
O28	O	0.096665	-0.776535	1.067670
O29	O	-0.312093	-1.574425	0.737134
O30	O	0.187907	-1.074425	1.237134
O31	O	-0.523787	-1.574178	0.439317
O32	O	-0.023787	-1.074178	0.939317
O33	O	-0.523744	-1.445851	0.567664
O34	O	-0.023744	-0.945851	1.067664
C35	C	-0.357739	-1.238638	0.503496
C36	C	0.142261	-0.738638	1.003496
C37	C	-0.357748	-1.122484	0.503508
C38	C	0.142252	-0.622484	1.003508
C39	C	-0.402940	-1.070708	0.566916
C40	C	0.097060	-0.570708	1.066916
C41	C	-0.402950	-0.950657	0.566930
C42	C	0.097050	-0.450657	1.066930
C43	C	-0.550712	-1.510021	0.503507
C44	C	-0.050712	-1.010021	1.003507
C45	C	-0.633258	-1.510063	0.503535
C46	C	-0.133258	-1.010063	1.003535
C47	C	-0.832712	-1.440347	0.573306
C48	C	-0.332712	-0.940347	1.073306
C49	C	-0.882158	-1.414870	0.477948
C50	C	-0.382158	-0.914870	0.977948
C51	C	-0.784388	-1.510166	0.503549
C52	C	-0.284388	-1.010166	1.003549
C53	C	-0.882023	-1.535694	0.598917
C54	C	-0.382023	-1.035694	1.098917
C55	C	-0.930373	-1.510263	0.503570
C56	C	-0.430373	-1.010263	1.003570
C57	C	-0.832748	-1.484639	0.408140
C58	C	-0.332748	-0.984639	0.908140
C59	C	-0.832608	-1.605506	0.529174
C60	C	-0.332608	-1.105506	1.029174
C61	C	-0.882032	-1.580066	0.433751
C62	C	-0.382032	-1.080066	0.933751
C63	C	-0.700290	-1.510107	0.503538
C64	C	-0.200290	-1.010107	1.003538
C65	C	-1.014470	-1.510322	0.503570
C66	C	-0.514470	-1.010322	1.003570
C67	C	-0.164054	-1.510303	0.503565
C68	C	0.335946	-1.010303	1.003565
C69	C	-0.081508	-1.510369	0.503582
C70	C	0.418492	-1.010369	1.003582
C71	C	-0.357688	-1.510219	0.776095
C72	C	0.142312	-1.010219	1.276095
C73	C	-0.357658	-1.510249	0.892248
C74	C	0.142342	-1.010249	1.392248
C75	C	-0.357775	-0.782718	0.503546
C76	C	0.142225	-0.282718	1.003546
C77	C	-0.357766	-0.898871	0.503534
C78	C	0.142234	-0.398871	1.003534
C79	C	-0.357777	-1.510137	0.232015
C80	C	0.142223	-1.010137	0.732015
C81	C	-0.357598	-1.510309	0.115862
C82	C	0.142402	-1.010309	0.615862
C83	C	-0.312515	-1.573809	0.944049
C84	C	0.187485	-1.073809	1.444049
C85	C	-0.312483	-1.573842	1.064100
C86	C	0.187517	-1.073842	1.564100
H87	H	-0.441643	-0.906131	0.621213
H88	H	0.058357	-0.406131	1.121213
Br89	Br	-0.422033	-1.419578	0.966453
Br90	Br	0.077967	-0.919578	1.466453
Br91	Br	-0.917900	-1.678550	0.335337
Br92	Br	-0.417900	-1.178550	0.835337
Br93	Br	-0.467420	-1.144947	0.657382
Br94	Br	0.032580	-0.644947	1.157382
H95	H	-0.319076	-0.943391	0.449241
H96	H	0.180924	-0.443391	0.949241
Br97	Br	-0.796826	-1.448565	0.273688
Br98	Br	-0.296826	-0.948565	0.773688
Br99	Br	-0.918431	-1.280557	0.441821
Br100	Br	-0.418431	-0.780557	0.941821
H101	H	-0.319062	-1.077936	0.449237
H102	H	0.180938	-0.577936	0.949237
Br103	Br	-0.248112	-1.664440	0.869844
Br104	Br	0.251888	-1.164440	1.369844
H105	H	-0.810829	-1.686069	0.550874
H106	H	-0.310829	-1.186069	1.050874
H107	H	-0.811055	-1.381217	0.632213
H108	H	-0.311055	-0.881217	1.132213
H109	H	-0.903668	-1.557247	0.679561
H110	H	-0.403668	-1.057247	1.179561
Br111	Br	-0.248068	-1.664554	1.138341
Br112	Br	0.251932	-1.164554	1.638341
H113	H	-0.396252	-1.455894	1.071321
H114	H	0.103748	-0.955894	1.571321
