data_functionalizedCrystal
_audit_creation_method	'MofGen! by Chris Wilmer'
_symmetry_space_group_name_H-M	'P1'
_symmetry_Int_Tables_number	1
_symmetry_cell_setting	triclinic
loop_
_symmetry_equiv_pos_as_xyz
  x,y,z
_cell_length_a	19.902436
_cell_length_b	23.196402
_cell_length_c	23.196401
_cell_angle_alpha	59.997914
_cell_angle_beta	90.002325
_cell_angle_gamma	60.003050
loop_
_atom_site_label
_atom_site_type_symbol
_atom_site_fract_x
_atom_site_fract_y
_atom_site_fract_z
Zr1	Zr	0.647248	0.631085	-0.075716
O2	O	0.539952	0.751357	-0.167762
O3	O	0.680137	0.510817	-0.047500
O4	O	0.680115	0.631104	-0.167778
O5	O	0.539995	0.631053	0.047395
O6	O	0.790681	0.631115	-0.167789
O7	O	0.539974	0.631069	-0.047484
O8	O	0.790720	0.415943	0.047366
O9	O	0.539955	0.846226	-0.167760
O10	O	0.776681	0.560292	-0.035473
O11	O	0.694182	0.560271	0.035342
O12	O	0.694156	0.701894	-0.106269
O13	O	0.611658	0.701874	-0.035454
Zr14	Zr	0.823620	0.631077	0.075587
Zr15	Zr	0.823587	0.631103	-0.075733
Zr16	Zr	0.647280	0.631059	0.075605
Zr17	Zr	0.647253	0.782390	-0.075713
Zr18	Zr	0.823615	0.479772	0.075585
O19	O	0.790731	0.751345	0.047371
O20	O	0.790684	0.751382	-0.167787
O21	O	0.539999	0.751320	0.047397
O22	O	0.930916	0.510805	0.167633
O23	O	0.930869	0.510842	-0.047525
O24	O	0.680183	0.510780	0.167659
O25	O	0.930873	0.631109	-0.047523
O26	O	0.790753	0.631058	0.167649
O27	O	0.680187	0.631046	0.167661
O28	O	0.930894	0.631093	0.047356
O29	O	0.680122	0.846240	-0.167775
O30	O	0.790746	0.415922	0.167646
O31	O	0.930913	0.415936	0.167632
O32	O	0.930887	0.415957	0.047352
O33	O	0.539981	0.846205	-0.047481
O34	O	0.680148	0.846219	-0.047495
O35	O	0.776712	0.560267	0.106141
O36	O	0.859210	0.560288	0.035326
O37	O	0.776686	0.701891	-0.035471
O38	O	0.694187	0.701870	0.035345
C39	C	0.735428	0.441822	-0.000067
C40	C	0.735426	0.377589	-0.000068
C41	C	0.674526	-0.032990	-0.052327
C42	C	0.674519	0.027367	-0.052327
C43	C	0.735441	0.005282	-0.000065
C44	C	0.796362	-0.077169	0.052212
C45	C	0.796363	-0.137524	0.052214
C46	C	0.809791	0.060866	0.016217
C47	C	0.809791	0.121222	0.016210
C48	C	0.735440	0.191435	-0.000067
C49	C	0.661083	0.201294	-0.016353
C50	C	0.661084	0.140939	-0.016351
C51	C	0.735447	0.070721	-0.000061
C52	C	0.674512	0.339323	-0.052337
C53	C	0.674504	0.399679	-0.052332
C54	C	0.796354	0.295140	0.052204
C55	C	0.796355	0.234786	0.052202
C56	C	0.735434	0.256883	-0.000072
C57	C	0.514860	0.631059	-0.000042
C58	C	0.439999	0.631051	-0.000034
C59	C	0.167951	0.631091	-0.000074
C60	C	0.248499	0.541766	0.044373
C61	C	0.326402	0.541709	0.044623
C62	C	0.302917	0.631071	-0.000054
C63	C	0.248806	0.675422	0.032522
C64	C	0.171244	0.674851	0.032847
C65	C	0.170081	0.676704	-0.077116
C66	C	0.248959	0.675026	-0.076994
C67	C	0.379192	0.631064	-0.000044
C68	C	0.091674	0.631101	-0.000082
C69	C	0.956008	0.631103	-0.000086
C70	C	1.030869	0.631111	-0.000094
C71	C	0.735393	0.631113	-0.189343
C72	C	0.735379	0.631124	-0.253583
C73	C	0.735440	0.820340	-0.000061
C74	C	0.735442	0.884573	-0.000060
C75	C	0.796293	0.631132	-0.283752
C76	C	0.796311	0.631116	-0.344099
C77	C	0.735403	0.631108	-0.374282
C78	C	0.674484	0.631096	-0.344103
C79	C	0.674472	0.631104	-0.283754
C80	C	0.661070	0.678596	-0.493656
C81	C	0.661081	0.678593	-0.554007
C82	C	0.735439	0.631079	-0.560418
C83	C	0.809791	0.583579	-0.506477
C84	C	0.809779	0.583587	-0.446128
C85	C	0.735409	0.631099	-0.439721
C86	C	0.796378	0.631068	-0.656022
C87	C	0.796397	0.631046	-0.716367
C88	C	0.674563	0.631035	-0.716374
C89	C	0.674551	0.631048	-0.656026
C90	C	0.735458	0.631068	-0.625855
C91	C	0.735475	0.631048	0.189215
C92	C	0.735489	0.631037	0.253455
C93	C	0.956002	0.441844	-0.000089
C94	C	1.030861	0.377619	-0.000098
C95	C	0.735469	0.441789	0.189212
C96	C	0.735481	0.377546	0.253451
C97	C	0.956043	0.441812	0.189190
C98	C	1.030915	0.377576	0.253421
C99	C	0.514825	0.820350	-0.189318
C100	C	0.439952	0.884586	-0.253549
C101	C	0.514866	0.820317	-0.000039
C102	C	0.440007	0.884543	-0.000031
C103	C	0.735399	0.820372	-0.189340
C104	C	0.735387	0.884616	-0.253579
C105	C	1.022936	0.347460	-0.037064
C106	C	1.093267	0.287122	-0.037087
C107	C	1.171522	0.256940	-0.000138
C108	C	1.179445	0.287105	0.036830
C109	C	1.109115	0.347446	0.036848
C110	C	0.778566	0.347374	0.320580
C111	C	0.778574	0.287019	0.380945
C112	C	0.735501	0.256832	0.374179
C113	C	0.692411	0.287009	0.307042
C114	C	0.692398	0.347368	0.246679
C115	C	1.109147	0.347420	0.246620
C116	C	1.179505	0.287072	0.306966
C117	C	1.171629	0.256876	0.374113
C118	C	1.093389	0.287037	0.380912
C119	C	1.023033	0.347389	0.320567
C120	C	0.361721	0.914749	-0.246748
C121	C	0.291363	0.975116	-0.307094
C122	C	0.299239	1.005315	-0.374241
C123	C	0.377479	0.975150	-0.381041
C124	C	0.447835	0.914788	-0.320695
C125	C	0.447932	0.914708	0.036930
C126	C	0.377601	0.975062	0.036935
C127	C	0.299346	1.005247	-0.000016
C128	C	0.291423	0.975079	-0.036981
C129	C	0.361753	0.914730	-0.036990
C130	C	0.778468	0.914784	-0.246790
C131	C	0.778473	0.975140	-0.307143
C132	C	0.735392	1.005331	-0.374285
C133	C	0.692310	0.975157	-0.381073
C134	C	0.692310	0.914798	-0.320720
H135	H	0.600541	0.148969	-0.029609
F136	F	0.646543	0.379469	0.175236
F137	F	0.735397	1.069572	-0.438512
F138	F	1.117548	0.379550	0.175163
H139	H	0.355292	0.890164	-0.192079
H140	H	0.383882	0.999746	-0.435719
F141	F	0.297733	0.632755	-0.108803
F142	F	0.646456	1.007302	-0.452535
H143	H	0.845954	0.277156	0.094761
H144	H	0.959223	0.372034	-0.067161
H145	H	0.845969	-0.204652	0.094778
F146	F	1.085019	0.254892	0.452381
F147	F	0.224352	1.069558	-0.438461
H148	H	0.845888	0.631146	-0.259188
F149	F	1.246516	0.192643	0.438332
F150	F	0.224730	0.760244	-0.123922
H151	H	0.813666	0.262455	0.435605
H152	H	0.735518	0.207684	0.423336
H153	H	1.243170	0.262522	0.066912
F154	F	0.861196	-0.100673	0.107836
F155	F	1.084817	0.255027	-0.076432
F156	F	0.646447	0.882704	-0.327956
H157	H	0.959336	0.371933	0.326115
F158	F	0.208131	1.007210	-0.076302
H159	H	1.228783	0.207806	-0.000157
F160	F	1.262766	0.254980	0.299714
F161	F	0.531093	0.882689	-0.327945
F162	F	0.171511	0.633637	0.106948
F163	F	0.208102	1.007207	-0.299842
H164	H	0.511645	0.890136	0.067024
F165	F	1.117562	0.379533	0.076199
H166	H	0.355289	0.890171	-0.067085
H167	H	0.813641	0.371946	0.326103
F168	F	0.386051	1.007156	0.076282
F169	F	0.224501	1.069476	0.000001
H170	H	0.813555	0.999701	-0.301603
F171	F	0.609684	-0.009469	-0.107959
H172	H	0.813550	0.890212	-0.192125
H173	H	0.624903	0.094500	-0.094882
F174	F	0.646573	0.254873	0.299852
H175	H	0.600539	0.258465	-0.029609
H176	H	0.624897	0.466807	-0.094895
F177	F	0.609674	0.362837	-0.107970
H178	H	0.870336	0.113191	0.029466
F179	F	0.888931	-0.013854	0.033534
F180	F	0.861192	0.147045	0.107831
H181	H	0.624893	0.631088	-0.368680
H182	H	0.845974	0.631081	-0.631454
H183	H	0.250189	0.506709	0.022637
F184	F	0.377890	0.496223	0.016067
H185	H	0.365508	0.506579	0.101461
F186	F	0.096687	0.760511	-0.006735
F187	F	0.222960	0.761304	-0.007755
F188	F	0.297774	0.635146	0.105921
F189	F	0.249495	0.496156	0.118210
H190	H	0.167085	0.648125	-0.104328
F191	F	0.861236	0.631048	-0.748473
F192	F	0.861147	0.631124	-0.376213
F193	F	0.888907	0.533031	-0.388720
F194	F	0.095873	0.762715	-0.120605
H195	H	0.870341	0.544889	-0.511694
F196	F	0.609715	0.631045	-0.623918
F197	F	0.609744	0.631019	-0.748491
H198	H	0.600540	0.717274	-0.597924
F199	F	0.581927	0.729216	-0.486864
H200	H	0.624868	0.631098	-0.259189
