data_functionalizedCrystal
_audit_creation_method	'MofGen! by Chris Wilmer'
_symmetry_space_group_name_H-M	'P1'
_symmetry_Int_Tables_number	1
_symmetry_cell_setting	triclinic
loop_
_symmetry_equiv_pos_as_xyz
  x,y,z
_cell_length_a	19.188905
_cell_length_b	19.188930
_cell_length_c	18.266242
_cell_angle_alpha	89.988525
_cell_angle_beta	89.983837
_cell_angle_gamma	83.139668
loop_
_atom_site_label
_atom_site_type_symbol
_atom_site_fract_x
_atom_site_fract_y
_atom_site_fract_z
O1	O	0.926160	0.087085	-0.061010
O2	O	1.426160	0.587085	0.438990
O3	O	0.722847	0.098838	-0.060986
O4	O	1.222847	0.598838	0.439014
O5	O	0.830371	-0.008694	-0.060984
O6	O	1.330371	0.491306	0.439016
O7	O	0.818636	0.194618	-0.061011
O8	O	1.318636	0.694618	0.438989
O9	O	0.830353	-0.008700	0.060778
O10	O	1.330353	0.491300	0.560778
O11	O	0.722828	0.098833	0.060776
O12	O	1.222828	0.598833	0.560776
O13	O	0.926142	0.087080	0.060752
O14	O	1.426142	0.587080	0.560752
Zn15	Zn	0.824482	0.092955	0.080097
Zn16	Zn	1.324482	0.592955	0.580097
Zn17	Zn	0.824506	0.092963	-0.080330
Zn18	Zn	1.324506	0.592963	0.419670
O19	O	0.818618	0.194612	0.060751
O20	O	1.318618	0.694612	0.560751
C21	C	0.696826	0.098458	-0.000102
C22	C	1.196826	0.598458	0.499898
C23	C	0.619321	0.097324	-0.000092
C24	C	1.119321	0.597324	0.499908
C25	C	0.582939	0.096782	-0.066466
C26	C	1.082939	0.596782	0.433534
C27	C	0.510115	0.095709	-0.066475
C28	C	1.010115	0.595709	0.433525
C29	C	0.473678	0.095164	-0.000106
C30	C	0.973678	0.595164	0.499894
C31	C	0.510068	0.095709	0.066277
C32	C	1.010068	0.595709	0.566277
C33	C	0.582890	0.096789	0.066284
C34	C	1.082890	0.596789	0.566284
N35	N	0.364651	0.053733	0.049292
N36	N	0.864651	0.553733	0.549292
N37	N	0.295474	0.052705	0.049280
N38	N	0.795474	0.552705	0.549280
C39	C	0.254272	0.091911	-0.000123
C40	C	0.754272	0.591911	0.499877
N41	N	0.284861	0.132174	-0.049526
N42	N	0.784861	0.632174	0.450474
N43	N	0.354045	0.133199	-0.049517
N44	N	0.854045	0.633199	0.450483
C45	C	0.394716	0.093993	-0.000106
C46	C	0.894716	0.593993	0.499894
C47	C	0.138926	0.090207	-0.066512
C48	C	0.638926	0.590207	0.433488
C49	C	0.066100	0.089138	-0.066518
C50	C	0.566100	0.589138	0.433482
C51	C	0.066056	0.089132	0.066236
C52	C	0.566056	0.589132	0.566236
C53	C	0.138879	0.090207	0.066240
C54	C	0.638879	0.590207	0.566240
C55	C	0.175310	0.090742	-0.000136
C56	C	0.675310	0.590742	0.499864
C57	C	0.829982	-0.034708	-0.000101
C58	C	1.329982	0.465292	0.499899
C59	C	0.828841	-0.112213	-0.000095
C60	C	1.328841	0.387787	0.499905
C61	C	0.891933	-0.157142	-0.000099
C62	C	1.391933	0.342858	0.499901
C63	C	0.890861	-0.229966	-0.000110
C64	C	1.390861	0.270034	0.499890
C65	C	0.826694	-0.257857	-0.000103
C66	C	1.326694	0.242143	0.499897
C67	C	0.763594	-0.212917	-0.000103
C68	C	1.263594	0.287083	0.499897
C69	C	0.764668	-0.140095	-0.000099
C70	C	1.264668	0.359905	0.499901
N71	N	0.777640	-0.365859	0.041341
N72	N	1.277640	0.134141	0.541341
N73	N	0.776624	-0.435038	0.041338
N74	N	1.276624	0.064962	0.541338
C75	C	0.823456	-0.477265	-0.000118
C76	C	1.323456	0.022735	0.499882
N77	N	0.871352	-0.447702	-0.041561
N78	N	1.371352	0.052298	0.458439
N79	N	0.872369	-0.378517	-0.041556
N80	N	1.372369	0.121483	0.458444
C81	C	0.825523	-0.336819	-0.000108
C82	C	1.325523	0.163181	0.499892
C83	C	0.885390	-0.601159	-0.000135
C84	C	1.385390	-0.101159	0.499865
C85	C	0.884315	-0.673984	-0.000151
C86	C	1.384315	-0.173984	0.499849
C87	C	0.757047	-0.656933	-0.000137
C88	C	1.257047	-0.156933	0.499863
C89	C	0.758123	-0.584110	-0.000128
C90	C	1.258123	-0.084110	0.499872
C91	C	0.822296	-0.556228	-0.000124
C92	C	1.322296	-0.056228	0.499876
C93	C	0.952163	0.087460	-0.000134
C94	C	1.452163	0.587460	0.499866
C95	C	1.029668	0.088594	-0.000148
C96	C	1.529668	0.588594	0.499852
C97	C	0.819007	0.220626	-0.000134
C98	C	1.319007	0.720626	0.499866
C99	C	0.820148	0.298131	-0.000145
C100	C	1.320148	0.798131	0.499855
N101	N	0.824471	0.092950	0.189583
N102	N	1.324471	0.592950	0.689583
N103	N	0.824523	0.092962	-0.189817
N104	N	1.324523	0.592962	0.310183
C105	C	0.872098	0.045358	0.227893
C106	C	1.372098	0.545358	0.727893
C107	C	0.872103	0.045355	0.304538
C108	C	1.372103	0.545355	0.804538
C109	C	0.824487	0.092956	0.342870
C110	C	1.324487	0.592956	0.842870
C111	C	0.776851	0.140551	0.304552
C112	C	1.276851	0.640551	0.804552
C113	C	0.776843	0.140549	0.227908
C114	C	1.276843	0.640549	0.727908
N115	N	0.815411	0.154764	0.463195
N116	N	1.315411	0.654764	0.963195
N117	N	0.815423	0.154764	0.536003
N118	N	1.315423	0.654764	1.036003
C119	C	0.824506	0.092966	0.573793
C120	C	1.324506	0.592966	1.073793
N121	N	0.833592	0.031165	0.536024
N122	N	1.333592	0.531165	1.036024
N123	N	0.833584	0.031165	0.463209
N124	N	1.333584	0.531165	0.963209
C125	C	0.824490	0.092963	0.425977
C126	C	1.324490	0.592963	0.925977
C127	C	0.872141	0.045366	0.695210
C128	C	1.372141	0.545366	1.195210
C129	C	0.872141	0.045362	0.771856
C130	C	1.372141	0.545362	1.271856
C131	C	0.776892	0.140565	0.771868
C132	C	1.276892	0.640565	1.271868
C133	C	0.776889	0.140563	0.695223
C134	C	1.276889	0.640563	1.195223
C135	C	0.824517	0.092964	0.656898
C136	C	1.324517	0.592964	1.156898
H137	H	0.036479	0.088702	-0.120570
H138	H	0.536479	0.588702	0.379430
C139	C	0.724514	0.192927	0.814029
C140	C	1.224514	0.692927	1.314029
N141	N	0.685061	0.232367	0.845789
N142	N	1.185061	0.732367	1.345789
H143	H	0.612597	0.097218	-0.120515
H144	H	1.112597	0.597218	0.379485
C145	C	0.924484	-0.007009	0.185740
C146	C	1.424484	0.492991	0.685740
N147	N	0.963940	-0.046454	0.153990
N148	N	1.463940	0.453546	0.653990
H149	H	0.910922	0.006603	0.803048
H150	H	1.410922	0.506603	1.303048
H151	H	0.706747	-0.547527	-0.000121
H152	H	1.206747	-0.047527	0.499879
C153	C	0.724545	0.192969	0.653081
C154	C	1.224545	0.692969	1.153081
N155	N	0.685132	0.232459	0.621340
N156	N	1.185132	0.732459	1.121340
H157	H	0.711349	-0.235631	-0.000099
H158	H	1.211349	0.264369	0.499901
H159	H	0.713289	-0.103513	-0.000096
H160	H	1.213289	0.396487	0.499904
H161	H	0.480487	0.095269	-0.120527
H162	H	0.980487	0.595269	0.379473
H163	H	0.910888	0.006598	0.335735
H164	H	1.410888	0.506598	0.835735
C165	C	0.955981	-0.570486	-0.000141
C166	C	1.455981	-0.070486	0.499859
N167	N	1.009151	-0.547385	-0.000148
N168	N	1.509151	-0.047385	0.499852
C169	C	0.025979	0.088533	0.139243
C170	C	0.525979	0.588533	0.639243
N171	N	-0.004211	0.088083	0.194234
N172	N	0.495789	0.588083	0.694234
H173	H	0.480396	0.095267	0.120315
H174	H	0.980396	0.595267	0.620315
C175	C	0.953725	-0.723407	-0.000152
C176	C	1.453725	-0.223407	0.499848
N177	N	1.006006	-0.760634	-0.000148
N178	N	1.506006	-0.260634	0.499852
H179	H	0.612511	0.097231	0.120336
H180	H	1.112511	0.597231	0.620336
H181	H	0.704801	-0.679641	-0.000135
H182	H	1.204801	-0.179641	0.499865
H183	H	0.168589	0.090650	-0.120559
H184	H	0.668589	0.590650	0.379441
C185	C	0.178902	0.090793	0.139258
C186	C	0.678902	0.590793	0.639258
N187	N	0.209047	0.091235	0.194259
N188	N	0.709047	0.591235	0.694259
C189	C	0.924526	-0.006999	0.653050
C190	C	1.424526	0.493001	1.153050
N191	N	0.963982	-0.046442	0.621297
N192	N	1.463982	0.453558	1.121297
H193	H	0.944187	-0.134445	-0.000097
H194	H	1.444187	0.365555	0.499903
H195	H	0.942239	-0.266555	-0.000116
H196	H	1.442239	0.233445	0.499884
H197	H	0.738080	0.179308	0.335766
H198	H	1.238080	0.679308	0.835766
C199	C	0.724477	0.192936	0.185766
C200	C	1.224477	0.692936	0.685766
N201	N	0.685046	0.232407	0.154024
N202	N	1.185046	0.732407	0.654024
