data_functionalizedCrystal
_audit_creation_method	'MofGen! by Chris Wilmer'
_symmetry_space_group_name_H-M	'P1'
_symmetry_Int_Tables_number	1
_symmetry_cell_setting	triclinic
loop_
_symmetry_equiv_pos_as_xyz
  x,y,z
_cell_length_a	18.101398
_cell_length_b	21.295417
_cell_length_c	18.101389
_cell_angle_alpha	90.021518
_cell_angle_beta	90.024327
_cell_angle_gamma	90.024968
loop_
_atom_site_label
_atom_site_type_symbol
_atom_site_fract_x
_atom_site_fract_y
_atom_site_fract_z
Zn1	Zn	1.132128	-0.250755	0.418823
Zn2	Zn	1.382128	-0.000755	0.668823
Zn3	Zn	1.632128	0.249245	0.918823
Zn4	Zn	1.882128	0.499245	1.168823
Zn5	Zn	1.132027	-0.356008	0.294975
Zn6	Zn	1.382027	-0.106008	0.544975
Zn7	Zn	1.632027	0.143992	0.794975
Zn8	Zn	1.882027	0.393992	1.044975
Zn9	Zn	1.008287	-0.250748	0.294984
Zn10	Zn	1.258287	-0.000748	0.544984
Zn11	Zn	1.508287	0.249252	0.794984
Zn12	Zn	1.758287	0.499252	1.044984
Zn13	Zn	1.008241	-0.355981	0.418763
Zn14	Zn	1.258241	-0.105981	0.668763
Zn15	Zn	1.508241	0.144019	0.918763
Zn16	Zn	1.758241	0.394019	1.168763
O17	O	1.070171	-0.303373	0.356886
O18	O	1.320171	-0.053373	0.606886
O19	O	1.570171	0.196627	0.856886
O20	O	1.820171	0.446627	1.106886
O21	O	1.235748	-0.264731	0.402415
O22	O	1.485748	-0.014731	0.652415
O23	O	1.735748	0.235269	0.902415
O24	O	1.985748	0.485269	1.152415
O25	O	1.115590	-0.342054	0.191343
O26	O	1.365590	-0.092054	0.441343
O27	O	1.615590	0.157946	0.691343
O28	O	1.865590	0.407946	0.941343
O29	O	1.024777	-0.162660	0.311440
O30	O	1.274777	0.087340	0.561440
O31	O	1.524777	0.337340	0.811440
O32	O	1.774777	0.587340	1.061440
O33	O	1.235673	-0.342060	0.311424
O34	O	1.485673	-0.092060	0.561424
O35	O	1.735673	0.157940	0.811424
O36	O	1.985673	0.407940	1.061424
O37	O	1.115762	-0.162664	0.402424
O38	O	1.365762	0.087336	0.652424
O39	O	1.615762	0.337336	0.902424
O40	O	1.865762	0.587336	1.152424
O41	O	1.024679	-0.264720	0.191350
O42	O	1.274679	-0.014720	0.441350
O43	O	1.524679	0.235280	0.691350
O44	O	1.774679	0.485280	0.941350
O45	O	0.904648	-0.264694	0.311382
O46	O	1.154648	-0.014694	0.561382
O47	O	1.404648	0.235306	0.811382
O48	O	1.654648	0.485306	1.061382
O49	O	1.024698	-0.342014	0.522404
O50	O	1.274698	-0.092014	0.772404
O51	O	1.524698	0.157986	1.022404
O52	O	1.774698	0.407986	1.272404
O53	O	0.904614	-0.342008	0.402322
O54	O	1.154614	-0.092008	0.652322
O55	O	1.404614	0.157992	0.902322
O56	O	1.654614	0.407992	1.152322
O57	O	1.115717	-0.264705	0.522448
O58	O	1.365717	-0.014705	0.772448
O59	O	1.615717	0.235295	1.022448
O60	O	1.865717	0.485295	1.272448
O61	O	1.115545	-0.444094	0.311366
O62	O	1.365545	-0.194094	0.561366
O63	O	1.615545	0.055906	0.811366
O64	O	1.865545	0.305906	1.061366
O65	O	1.024600	-0.444074	0.402313
O66	O	1.274600	-0.194074	0.652313
O67	O	1.524600	0.055926	0.902313
O68	O	1.774600	0.305926	1.152313
C69	C	0.877760	-0.303348	0.356847
C70	C	1.127760	-0.053348	0.606847
C71	C	1.377760	0.196652	0.856847
C72	C	1.627760	0.446652	1.106847
C73	C	0.795446	-0.303352	0.356848
C74	C	1.045446	-0.053352	0.606848
C75	C	1.295446	0.196648	0.856848
C76	C	1.545446	0.446648	1.106848
C77	C	0.496355	-0.303391	0.356911
C78	C	0.746355	-0.053391	0.606911
C79	C	0.996355	0.196609	0.856911
C80	C	1.246355	0.446609	1.106911
C81	C	0.527677	-0.254504	0.299973
C82	C	0.777677	-0.004504	0.549973
C83	C	1.027677	0.245496	0.799973
C84	C	1.277677	0.495496	1.049973
C85	C	0.613295	-0.254635	0.299730
C86	C	0.863295	-0.004635	0.549730
C87	C	1.113295	0.245365	0.799730
C88	C	1.363295	0.495365	1.049730
C89	C	0.644738	-0.303371	0.356880
C90	C	0.894738	-0.053371	0.606880
C91	C	1.144738	0.196629	0.856880
C92	C	1.394738	0.446629	1.106880
C93	C	0.613622	-0.369679	0.335551
C94	C	0.863622	-0.119679	0.585551
C95	C	1.113622	0.130321	0.835551
C96	C	1.363622	0.380321	1.085551
C97	C	0.527976	-0.369407	0.335155
C98	C	0.777976	-0.119407	0.585155
C99	C	1.027976	0.130593	0.835155
C100	C	1.277976	0.380593	1.085155
C101	C	0.527969	-0.286547	0.435311
C102	C	0.777969	-0.036547	0.685311
C103	C	1.027969	0.213453	0.935311
C104	C	1.277969	0.463453	1.185311
C105	C	0.613620	-0.285070	0.434883
C106	C	0.863620	-0.035070	0.684883
C107	C	1.113620	0.214930	0.934883
C108	C	1.363620	0.464930	1.184883
C109	C	0.728597	-0.303364	0.356864
C110	C	0.978597	-0.053364	0.606864
C111	C	1.228597	0.196636	0.856864
C112	C	1.478597	0.446636	1.106864
C113	C	0.412496	-0.303403	0.356925
C114	C	0.662496	-0.053403	0.606925
C115	C	0.912496	0.196597	0.856925
C116	C	1.162496	0.446597	1.106925
C117	C	1.070076	-0.466925	0.356849
C118	C	1.320076	-0.216925	0.606849
C119	C	1.570076	0.033075	0.856849
C120	C	1.820076	0.283075	1.106849
C121	C	1.070104	-0.536893	0.356857
C122	C	1.320104	-0.286893	0.606857
C123	C	1.570104	-0.036893	0.856857
C124	C	1.820104	0.213107	1.106857
C125	C	1.117453	-0.569705	0.404266
C126	C	1.367453	-0.319705	0.654266
C127	C	1.617453	-0.069705	0.904266
C128	C	1.867453	0.180295	1.154266
C129	C	1.117479	-0.635447	0.404285
C130	C	1.367479	-0.385447	0.654285
C131	C	1.617479	-0.135447	0.904285
C132	C	1.867479	0.114553	1.154285
C133	C	1.070164	-0.668375	0.356881
C134	C	1.320164	-0.418375	0.606881
C135	C	1.570164	-0.168375	0.856881
C136	C	1.820164	0.081625	1.106881
C137	C	1.022806	-0.635555	0.309468
C138	C	1.272806	-0.385555	0.559468
C139	C	1.522806	-0.135555	0.809468
C140	C	1.772806	0.114445	1.059468
C141	C	1.022776	-0.569814	0.309456
C142	C	1.272776	-0.319814	0.559456
C143	C	1.522776	-0.069814	0.809456
C144	C	1.772776	0.180186	1.059456
N145	N	1.064571	-0.771628	0.292068
N146	N	1.314571	-0.521628	0.542068
N147	N	1.564571	-0.271628	0.792068
N148	N	1.814571	-0.021628	1.042068
N149	N	1.064604	-0.834080	0.292081
N150	N	1.314604	-0.584080	0.542081
N151	N	1.564604	-0.334080	0.792081
N152	N	1.814604	-0.084080	1.042081
C153	C	1.070250	-0.866450	0.356914
C154	C	1.320250	-0.616450	0.606914
C155	C	1.570250	-0.366450	0.856914
C156	C	1.820250	-0.116450	1.106914
N157	N	1.075877	-0.834010	0.421735
N158	N	1.325877	-0.584010	0.671735
N159	N	1.575877	-0.334010	0.921735
N160	N	1.825877	-0.084010	1.171735
N161	N	1.075848	-0.771553	0.421721
N162	N	1.325848	-0.521553	0.671721
N163	N	1.575848	-0.271553	0.921721
N164	N	1.825848	-0.021553	1.171721
C165	C	1.070191	-0.739661	0.356888
C166	C	1.320191	-0.489661	0.606888
C167	C	1.570191	-0.239661	0.856888
C168	C	1.820191	0.010339	1.106888
C169	C	1.117630	-0.970547	0.404347
C170	C	1.367630	-0.720547	0.654347
C171	C	1.617630	-0.470547	0.904347
C172	C	1.867630	-0.220547	1.154347
C173	C	1.117651	-1.036291	0.404367
C174	C	1.367651	-0.786291	0.654367
C175	C	1.617651	-0.536291	0.904367
C176	C	1.867651	-0.286291	1.154367
C177	C	1.022982	-1.036398	0.309543
C178	C	1.272982	-0.786398	0.559543
C179	C	1.522982	-0.536398	0.809543
C180	C	1.772982	-0.286398	1.059543
C181	C	1.022957	-0.970656	0.309530
C182	C	1.272957	-0.720656	0.559530
C183	C	1.522957	-0.470656	0.809530
C184	C	1.772957	-0.220656	1.059530
C185	C	1.070285	-0.937734	0.356931
C186	C	1.320285	-0.687734	0.606931
C187	C	1.570285	-0.437734	0.856931
C188	C	1.820285	-0.187734	1.106931
C189	C	1.263333	-0.303399	0.356925
C190	C	1.513333	-0.053399	0.606925
C191	C	1.763333	0.196601	0.856925
C192	C	2.013333	0.446601	1.106925
C193	C	1.345647	-0.303410	0.356942
C194	C	1.595647	-0.053410	0.606942
C195	C	1.845647	0.196590	0.856942
C196	C	2.095647	0.446590	1.106942
C197	C	1.070214	-0.303357	0.550048
C198	C	1.320214	-0.053357	0.800048
C199	C	1.570214	0.196643	1.050048
C200	C	1.820214	0.446643	1.300048
C201	C	1.070232	-0.303350	0.632362
C202	C	1.320232	-0.053350	0.882362
C203	C	1.570232	0.196650	1.132362
C204	C	1.820232	0.446650	1.382362
C205	C	1.070286	-0.139183	0.356940
C206	C	1.320286	0.110817	0.606940
C207	C	1.570286	0.360817	0.856940
C208	C	1.820286	0.610817	1.106940
C209	C	1.070335	-0.069215	0.356963
C210	C	1.320335	0.180785	0.606963
C211	C	1.570335	0.430785	0.856963
C212	C	1.820335	0.680785	1.106963
C213	C	1.070171	-0.303344	0.164476
C214	C	1.320171	-0.053344	0.414476
C215	C	1.570171	0.196656	0.664476
C216	C	1.820171	0.446656	0.914476
C217	C	1.070296	-0.303173	0.082162
C218	C	1.320296	-0.053173	0.332162
C219	C	1.570296	0.196827	0.582162
C220	C	1.820296	0.446827	0.832162
C221	C	1.070275	-0.303232	0.931453
C222	C	1.320275	-0.053232	1.181453
C223	C	1.570275	0.196768	1.431453
C224	C	1.820275	0.446768	1.681453
C225	C	1.012811	-0.351719	0.900101
C226	C	1.262811	-0.101719	1.150101
C227	C	1.512811	0.148281	1.400101
C228	C	1.762811	0.398281	1.650101
C229	C	1.012966	-0.351944	0.814482
C230	C	1.262966	-0.101944	1.064482
C231	C	1.512966	0.148056	1.314482
C232	C	1.762966	0.398056	1.564482
C233	C	1.070253	-0.303291	0.783071
C234	C	1.320253	-0.053291	1.033071
C235	C	1.570253	0.196709	1.283071
C236	C	1.820253	0.446709	1.533071
C237	C	1.148279	-0.321303	0.814175
C238	C	1.398279	-0.071303	1.064175
C239	C	1.648279	0.178697	1.314175
C240	C	1.898279	0.428697	1.564175
C241	C	1.147959	-0.321621	0.899820
C242	C	1.397959	-0.071621	1.149820
C243	C	1.647959	0.178379	1.399820
C244	C	1.897959	0.428379	1.649820
C245	C	1.050392	-0.236626	0.899882
C246	C	1.300392	0.013374	1.149882
C247	C	1.550392	0.263374	1.399882
C248	C	1.800392	0.513374	1.649882
C249	C	1.048656	-0.237011	0.814231
C250	C	1.298656	0.012989	1.064231
C251	C	1.548656	0.262989	1.314231
C252	C	1.798656	0.512989	1.564231
C253	C	1.070245	-0.303323	0.699211
C254	C	1.320245	-0.053323	0.949211
C255	C	1.570245	0.196677	1.199211
C256	C	1.820245	0.446677	1.449211
C257	C	1.070288	-0.303202	1.015313
C258	C	1.320288	-0.053202	1.265313
C259	C	1.570288	0.196798	1.515313
C260	C	1.820288	0.446798	1.765313
H261	H	0.635026	-0.318083	0.479580
H262	H	0.885026	-0.068083	0.729580
H263	H	1.135026	0.181917	0.979580
H264	H	1.385026	0.431917	1.229580
H265	H	1.165426	-0.369476	0.792730
H266	H	1.415426	-0.119476	1.042730
H267	H	1.665426	0.130524	1.292730
H268	H	1.915426	0.380524	1.542730
H269	H	0.984404	-0.943938	0.270922
H270	H	1.234404	-0.693938	0.520922
H271	H	1.484404	-0.443938	0.770922
H272	H	1.734404	-0.193938	1.020922
H273	H	1.164815	-0.370312	0.919800
H274	H	1.414815	-0.120312	1.169800
H275	H	1.664815	0.129688	1.419800
H276	H	1.914815	0.379688	1.669800
H277	H	0.507714	-0.322155	0.477735
H278	H	0.757714	-0.072155	0.727735
H279	H	1.007714	0.177845	0.977735
H280	H	1.257714	0.427845	1.227735
H281	H	1.026093	-0.401314	0.793997
H282	H	1.276093	-0.151314	1.043997
H283	H	1.526093	0.098686	1.293997
H284	H	1.776093	0.348686	1.543997
H285	H	1.155988	-0.542902	0.442865
H286	H	1.405988	-0.292902	0.692865
H287	H	1.655988	-0.042902	0.942865
H288	H	1.905988	0.207098	1.192865
Br289	Br	1.221561	-0.264293	0.780274
Br290	Br	1.471561	-0.014293	1.030274
Br291	Br	1.721561	0.235707	1.280274
Br292	Br	1.971561	0.485707	1.530274
H293	H	1.156030	-0.662168	0.442900
H294	H	1.406030	-0.412168	0.692900
H295	H	1.656030	-0.162168	0.942900
H296	H	1.906030	0.087832	1.192900
H297	H	0.984452	-1.063207	0.270951
H298	H	1.234452	-0.813207	0.520951
H299	H	1.484452	-0.563207	0.770951
H300	H	1.734452	-0.313207	1.020951
H301	H	0.635037	-0.384213	0.278855
H302	H	0.885037	-0.134213	0.528855
H303	H	1.135037	0.115787	0.778855
H304	H	1.385037	0.365787	1.028855
Br305	Br	0.958585	-0.680241	0.245140
Br306	Br	1.208585	-0.430241	0.495140
Br307	Br	1.458585	-0.180241	0.745140
Br308	Br	1.708585	0.069759	0.995140
H309	H	1.156166	-0.943742	0.442946
H310	H	1.406166	-0.693742	0.692946
H311	H	1.656166	-0.443742	0.942946
H312	H	1.906166	-0.193742	1.192946
Br313	Br	1.181905	-1.080823	0.468725
Br314	Br	1.431905	-0.830823	0.718725
Br315	Br	1.681905	-0.580823	0.968725
Br316	Br	1.931905	-0.330823	1.218725
H317	H	0.955107	-0.340671	0.793450
H318	H	1.205107	-0.090671	1.043450
H319	H	1.455107	0.159329	1.293450
H320	H	1.705107	0.409329	1.543450
H321	H	0.507965	-0.383693	0.277840
H322	H	0.757965	-0.133693	0.527840
H323	H	1.007965	0.116307	0.777840
H324	H	1.257965	0.366307	1.027840
H325	H	0.954777	-0.340562	0.920687
H326	H	1.204777	-0.090562	1.170687
H327	H	1.454777	0.159438	1.420687
H328	H	1.704777	0.409438	1.670687
H329	H	1.025808	-0.400788	0.921623
H330	H	1.275808	-0.150788	1.171623
H331	H	1.525808	0.099212	1.421623
H332	H	1.775808	0.349212	1.671623
H333	H	0.506396	-0.239037	0.454702
H334	H	0.756396	0.010963	0.704702
H335	H	1.006396	0.260963	0.954702
H336	H	1.256396	0.510963	1.204702
H337	H	0.994484	-0.220216	0.921469
H338	H	1.244484	0.029784	1.171469
H339	H	1.494484	0.279784	1.421469
H340	H	1.744484	0.529784	1.671469
Br341	Br	1.221693	-0.265276	0.934397
Br342	Br	1.471693	-0.015276	1.184397
Br343	Br	1.721693	0.234724	1.434397
Br344	Br	1.971693	0.484724	1.684397
H345	H	0.506128	-0.265512	0.242217
H346	H	0.756128	-0.015512	0.492217
H347	H	1.006128	0.234488	0.742217
H348	H	1.256128	0.484488	0.992217
Br349	Br	0.952945	-0.214373	0.780358
Br350	Br	1.202945	0.035627	1.030358
Br351	Br	1.452945	0.285627	1.280358
Br352	Br	1.702945	0.535627	1.530358
Br353	Br	0.958509	-0.525280	0.245113
Br354	Br	1.208509	-0.275280	0.495113
Br355	Br	1.458509	-0.025280	0.745113
Br356	Br	1.708509	0.224720	0.995113
H357	H	1.087456	-0.198968	0.792849
H358	H	1.337456	0.051032	1.042849
H359	H	1.587456	0.301032	1.292849
H360	H	1.837456	0.551032	1.542849
H361	H	1.092246	-0.200501	0.920160
H362	H	1.342246	0.049499	1.170160
H363	H	1.592246	0.299499	1.420160
H364	H	1.842246	0.549499	1.670160
H365	H	0.634334	-0.205465	0.313100
H366	H	0.884334	0.044535	0.563100
H367	H	1.134334	0.294535	0.813100
H368	H	1.384334	0.544535	1.063100
H369	H	0.507256	-0.407065	0.374817
H370	H	0.757256	-0.157065	0.624817
H371	H	1.007256	0.092935	0.874817
H372	H	1.257256	0.342935	1.124817
Br373	Br	0.493392	-0.172295	0.322008
Br374	Br	0.743392	0.077705	0.572008
Br375	Br	0.993392	0.327705	0.822008
Br376	Br	1.243392	0.577705	1.072008
H377	H	0.633987	-0.407079	0.375724
H378	H	0.883987	-0.157079	0.625724
H379	H	1.133987	0.092921	0.875724
H380	H	1.383987	0.342921	1.125724
Br381	Br	0.647393	-0.273188	0.202901
Br382	Br	0.897393	-0.023188	0.452901
Br383	Br	1.147393	0.226812	0.702901
Br384	Br	1.397393	0.476812	0.952901
H385	H	0.633963	-0.236275	0.450966
H386	H	0.883963	0.013725	0.700966
H387	H	1.133963	0.263725	0.950966
H388	H	1.383963	0.513725	1.200966
