data_functionalizedCrystal
_audit_creation_method	'MofGen! by Chris Wilmer'
_symmetry_space_group_name_H-M	'P1'
_symmetry_Int_Tables_number	1
_symmetry_cell_setting	triclinic
loop_
_symmetry_equiv_pos_as_xyz
  x,y,z
_cell_length_a	11.792254
_cell_length_b	10.654541
_cell_length_c	9.130307
_cell_angle_alpha	90.000178
_cell_angle_beta	89.996518
_cell_angle_gamma	95.658737
loop_
_atom_site_label
_atom_site_type_symbol
_atom_site_fract_x
_atom_site_fract_y
_atom_site_fract_z
O1	O	0.159404	-1.667396	-0.121755
O2	O	0.174595	-1.301875	-0.121768
O3	O	0.001851	-1.493497	-0.121751
O4	O	0.332149	-1.475773	-0.121772
O5	O	0.001849	-1.493491	0.121848
O6	O	0.174594	-1.301868	0.121831
O7	O	0.159402	-1.667390	0.121844
Cu8	Cu	0.166998	-1.484628	0.144080
Cu9	Cu	0.167000	-1.484636	-0.144004
O10	O	0.332147	-1.475767	0.121827
C11	C	0.173480	-1.255076	0.000030
C12	C	0.170144	-1.115642	0.000025
C13	C	-0.040444	-1.492377	0.000048
C14	C	-0.166464	-1.489036	0.000047
C15	C	0.160518	-1.714188	0.000043
C16	C	0.163853	-1.853622	0.000038
C17	C	-0.268807	-1.486320	0.000041
C18	C	-0.397202	-1.482925	0.000028
C19	C	0.374441	-1.476887	0.000024
C20	C	0.500462	-1.480228	0.000016
N21	N	0.166996	-1.484632	0.346703
C22	C	0.376707	-1.087097	-0.000007
C23	C	0.478417	-1.007321	-0.000028
C24	C	0.475276	-0.876311	-0.000029
C25	C	0.370414	-0.825077	-0.000005
C26	C	0.268704	-0.904854	0.000017
C27	C	0.271857	-1.035865	0.000014
C28	C	0.062144	-0.933399	0.000059
C29	C	0.065282	-1.064408	0.000050
C30	C	-0.042719	-0.882165	0.000084
C31	C	-0.144431	-0.961942	0.000095
C32	C	-0.141286	-1.092959	0.000095
C33	C	-0.036428	-1.144185	0.000072
N34	N	0.166993	-1.484642	-0.346627
C35	C	0.014075	-1.654384	0.346708
C36	C	-0.062382	-1.739268	0.423377
C37	C	-0.062383	-1.739280	0.576710
C38	C	0.014080	-1.654397	0.653378
C39	C	0.090537	-1.569513	0.576709
C40	C	0.090531	-1.569512	0.423372
C41	C	0.243450	-1.399758	0.576704
C42	C	0.243458	-1.399749	0.423370
C43	C	0.319912	-1.314875	0.653371
C44	C	0.396377	-1.229995	0.576702
C45	C	0.396375	-1.229987	0.423359
C46	C	0.319915	-1.314865	0.346701
H47	H	0.379275	-1.193771	-0.000038
Cl48	Cl	0.492483	-1.123289	0.673088
Cl49	Cl	0.319909	-1.314882	0.846135
Cl50	Cl	0.014064	-1.654397	0.846142
Cl51	Cl	0.603141	-0.776017	-0.000043
H52	H	0.367866	-0.718401	0.000012
H53	H	-0.224111	-1.157907	0.000118
Cl54	Cl	0.610237	-1.071735	-0.000060
H55	H	-0.033857	-1.250858	0.000054
H56	H	0.458631	-1.160859	0.360943
H57	H	-0.045269	-0.775489	0.000091
H58	H	-0.124639	-1.808377	0.360941
Cl59	Cl	0.319910	-1.314868	0.153938
Cl60	Cl	0.014083	-1.654393	0.153944
H61	H	-0.124644	-1.808395	0.639135
Cl62	Cl	-0.276243	-0.897527	0.000139
