data_functionalizedCrystal
_audit_creation_method	'MofGen! by Chris Wilmer'
_symmetry_space_group_name_H-M	'P1'
_symmetry_Int_Tables_number	1
_symmetry_cell_setting	triclinic
loop_
_symmetry_equiv_pos_as_xyz
  x,y,z
_cell_length_a	21.395362
_cell_length_b	21.395361
_cell_length_c	21.395356
_cell_angle_alpha	90.030681
_cell_angle_beta	90.047076
_cell_angle_gamma	90.048968
loop_
_atom_site_label
_atom_site_type_symbol
_atom_site_fract_x
_atom_site_fract_y
_atom_site_fract_z
Zn1	Zn	-0.957854	0.249149	-0.354641
Zn2	Zn	-0.624520	0.582482	-0.021308
Zn3	Zn	-0.291187	0.915816	0.312026
Zn4	Zn	-0.957758	0.353926	-0.249858
Zn5	Zn	-0.624425	0.687259	0.083475
Zn6	Zn	-0.291091	1.020592	0.416809
Zn7	Zn	-0.853070	0.249199	-0.249835
Zn8	Zn	-0.519737	0.582533	0.083498
Zn9	Zn	-0.186404	0.915866	0.416832
Zn10	Zn	-0.853038	0.353926	-0.354555
Zn11	Zn	-0.519704	0.687259	-0.021222
Zn12	Zn	-0.186371	1.020593	0.312111
O13	O	-0.905430	0.301550	-0.302222
O14	O	-0.572097	0.634883	0.031111
O15	O	-0.238763	0.968217	0.364444
O16	O	-1.045519	0.263027	-0.340787
O17	O	-0.712186	0.596360	-0.007454
O18	O	-0.378852	0.929693	0.325880
O19	O	-0.943844	0.340054	-0.162177
O20	O	-0.610511	0.673388	0.171156
O21	O	-0.277178	1.006721	0.504490
O22	O	-0.867024	0.161515	-0.263764
O23	O	-0.533690	0.494848	0.069570
O24	O	-0.200357	0.828181	0.402903
O25	O	-1.045449	0.340005	-0.263803
O26	O	-0.712115	0.673339	0.069530
O27	O	-0.378782	1.006672	0.402863
O28	O	-0.944008	0.161478	-0.340765
O29	O	-0.610674	0.494811	-0.007431
O30	O	-0.277341	0.828144	0.325902
O31	O	-0.866931	0.263112	-0.162160
O32	O	-0.533598	0.596446	0.171173
O33	O	-0.200264	0.929779	0.504507
O34	O	-0.765388	0.263113	-0.263681
O35	O	-0.432055	0.596446	0.069653
O36	O	-0.098721	0.929779	0.402986
O37	O	-0.866968	0.340006	-0.442245
O38	O	-0.533635	0.673340	-0.108911
O39	O	-0.200302	1.006673	0.224422
O40	O	-0.765364	0.340055	-0.340618
O41	O	-0.432031	0.673388	-0.007285
O42	O	-0.098697	1.006722	0.326048
O43	O	-0.943976	0.263027	-0.442308
O44	O	-0.610643	0.596360	-0.108974
O45	O	-0.277309	0.929694	0.224359
O46	O	-0.943813	0.441604	-0.263720
O47	O	-0.610480	0.774937	0.069613
O48	O	-0.277146	1.108270	0.402946
O49	O	-0.866875	0.441604	-0.340641
O50	O	-0.533542	0.774937	-0.007308
O51	O	-0.200209	1.108271	0.326026
C52	C	-0.742642	0.301590	-0.302138
C53	C	-0.409309	0.634923	0.031195
C54	C	-0.075976	0.968257	0.364529
C55	C	-0.673001	0.301622	-0.302117
C56	C	-0.339668	0.634955	0.031217
C57	C	-0.006334	0.968289	0.364550
C58	C	-0.640292	0.341740	-0.342116
C59	C	-0.306958	0.675074	-0.008783
C60	C	0.026375	1.008407	0.324551
C61	C	-0.574856	0.341728	-0.342139
C62	C	-0.241523	0.675061	-0.008806
C63	C	0.091810	1.008394	0.324527
C64	C	-0.542133	0.301603	-0.302152
C65	C	-0.208799	0.634937	0.031181
C66	C	0.124534	0.968270	0.364515
C67	C	-0.574850	0.261477	-0.262150
C68	C	-0.241516	0.594811	0.071183
C69	C	0.091817	0.928144	0.404516
C70	C	-0.640284	0.261487	-0.262133
C71	C	-0.306951	0.594820	0.071201
C72	C	0.026383	0.928153	0.404534
C73	C	-0.438409	0.296569	-0.245740
C74	C	-0.105076	0.629903	0.087594
C75	C	0.228258	0.963236	0.420927
C76	C	-0.372976	0.296564	-0.245756
C77	C	-0.039643	0.629898	0.087577
C78	C	0.293691	0.963231	0.420910
C79	C	-0.340312	0.301571	-0.302207
C80	C	-0.006979	0.634904	0.031126
C81	C	0.326355	0.968238	0.364460
C82	C	-0.373089	0.306596	-0.358643
C83	C	-0.039756	0.639929	-0.025309
C84	C	0.293578	0.973262	0.308024
C85	C	-0.438523	0.306605	-0.358625
C86	C	-0.105190	0.639938	-0.025292
C87	C	0.228144	0.973272	0.308042
C88	C	-0.471180	0.301588	-0.302167
C89	C	-0.137847	0.634922	0.031166
C90	C	0.195486	0.968255	0.364500
C91	C	-0.236650	0.341678	-0.342235
C92	C	0.096683	0.675011	-0.008901
C93	C	0.430016	1.008344	0.324432
C94	C	-0.171214	0.341661	-0.342259
C95	C	0.162120	0.674994	-0.008925
C96	C	0.495453	1.008327	0.324408
C97	C	-0.171208	0.261413	-0.262264
C98	C	0.162125	0.594747	0.071069
C99	C	0.495458	0.928080	0.404402
C100	C	-0.236644	0.261427	-0.262246
C101	C	0.096690	0.594760	0.071088
C102	C	0.430023	0.928094	0.404421
C103	C	-0.269361	0.301563	-0.302230
C104	C	0.063973	0.634896	0.031104
C105	C	0.397306	0.968229	0.364437
C106	C	-0.905347	0.464338	-0.302187
C107	C	-0.572014	0.797671	0.031146
C108	C	-0.238681	1.131004	0.364479
C109	C	-0.905369	0.533979	-0.302194
C110	C	-0.572036	0.867312	0.031140
C111	C	-0.238702	1.200646	0.364473
C112	C	-0.068853	0.301521	-0.302289
C113	C	0.264480	0.634854	0.031044
C114	C	0.597813	0.968187	0.364377
C115	C	-0.138494	0.301535	-0.302272
C116	C	0.194839	0.634868	0.031061
C117	C	0.528172	0.968202	0.364395
C118	C	-0.905479	0.301511	-0.465646
C119	C	-0.572146	0.634844	-0.132312
C120	C	-0.238813	0.968178	0.201021
C121	C	-0.905500	0.301495	-0.535287
C122	C	-0.572167	0.634828	-0.201954
C123	C	-0.238834	0.968161	0.131380
C124	C	-0.905530	0.138127	-0.302271
C125	C	-0.572197	0.471460	0.031062
C126	C	-0.238863	0.804793	0.364396
C127	C	-0.905573	0.068485	-0.302292
C128	C	-0.572239	0.401819	0.031041
C129	C	-0.238906	0.735152	0.364375
C130	C	-0.945466	0.566671	-0.262182
C131	C	-0.612133	0.900004	0.071151
C132	C	-0.278799	1.233338	0.404485
C133	C	-0.945495	0.632106	-0.262196
C134	C	-0.612162	0.965440	0.071137
C135	C	-0.278828	1.298773	0.404471
C136	C	-0.905416	0.664847	-0.302215
C137	C	-0.572083	0.998180	0.031118
C138	C	-0.238750	1.331514	0.364452
C139	C	-0.865317	0.632147	-0.342234
C140	C	-0.531983	0.965480	-0.008901
C141	C	-0.198650	1.298814	0.324432
C142	C	-0.865293	0.566713	-0.342224
C143	C	-0.531960	0.900046	-0.008890
C144	C	-0.198626	1.233380	0.324443
C145	C	-0.849001	0.768580	-0.307102
C146	C	-0.515668	1.101913	0.026232
C147	C	-0.182335	1.435246	0.359565
C148	C	-0.849024	0.834012	-0.307108
C149	C	-0.515691	1.167346	0.026225
C150	C	-0.182357	1.500679	0.359558
C151	C	-0.905489	0.866668	-0.302252
C152	C	-0.572156	1.200001	0.031082
C153	C	-0.238823	1.533334	0.364415
C154	C	-0.961934	0.833882	-0.297376
C155	C	-0.628600	1.167216	0.035957
C156	C	-0.295267	1.500549	0.369291
C157	C	-0.961910	0.768448	-0.297365
C158	C	-0.628577	1.101781	0.035968
C159	C	-0.295244	1.435115	0.369301
C160	C	-0.905438	0.735799	-0.302231
C161	C	-0.572104	1.069133	0.031102
C162	C	-0.238771	1.402466	0.364435
C163	C	-0.945621	0.970312	-0.262253
C164	C	-0.612288	1.303646	0.071080
C165	C	-0.278954	1.636979	0.404413
C166	C	-0.945651	1.035749	-0.262272
C167	C	-0.612318	1.369082	0.071062
C168	C	-0.278985	1.702416	0.404395
C169	C	-0.865467	1.035789	-0.342307
C170	C	-0.532134	1.369122	-0.008973
C171	C	-0.198800	1.702455	0.324360
C172	C	-0.865443	0.970353	-0.342292
C173	C	-0.532109	1.303687	-0.008958
C174	C	-0.198776	1.637020	0.324375
C175	C	-0.905519	0.937619	-0.302262
C176	C	-0.572185	1.270952	0.031072
C177	C	-0.238852	1.604286	0.364405
C178	C	-0.865462	0.261426	-0.567981
C179	C	-0.532129	0.594760	-0.234648
C180	C	-0.198795	0.928093	0.098685
C181	C	-0.865460	0.261415	-0.633417
C182	C	-0.532127	0.594748	-0.300084
C183	C	-0.198793	0.928081	0.033250
C184	C	-0.905507	0.301465	-0.666155
C185	C	-0.572174	0.634798	-0.332822
C186	C	-0.238840	0.968131	0.000511
C187	C	-0.945548	0.341541	-0.633453
C188	C	-0.612215	0.674874	-0.300120
C189	C	-0.278881	1.008207	0.033214
C190	C	-0.945545	0.341556	-0.568019
C191	C	-0.612211	0.674889	-0.234686
C192	C	-0.278878	1.008222	0.098648
C193	C	-0.961959	0.306373	-0.769865
C194	C	-0.628626	0.639706	-0.436531
C195	C	-0.295292	0.973039	-0.103198
C196	C	-0.961964	0.306353	-0.835298
C197	C	-0.628630	0.639687	-0.501964
C198	C	-0.295297	0.973020	-0.168631
C199	C	-0.905517	0.301422	-0.867976
C200	C	-0.572184	0.634756	-0.534643
C201	C	-0.238851	0.968089	-0.201310
C202	C	-0.849065	0.296498	-0.835214
C203	C	-0.515732	0.629831	-0.501881
C204	C	-0.182398	0.963164	-0.168547
C205	C	-0.849062	0.296513	-0.769780
C206	C	-0.515728	0.629846	-0.436446
C207	C	-0.182395	0.963179	-0.103113
C208	C	-0.905515	0.301453	-0.737108
C209	C	-0.572182	0.634787	-0.403775
C210	C	-0.238848	0.968120	-0.070441
C211	C	-0.865474	0.261340	-0.971623
C212	C	-0.532140	0.594673	-0.638290
C213	C	-0.198807	0.928006	-0.304957
C214	C	-0.865470	0.261332	-1.037060
C215	C	-0.532137	0.594666	-0.703727
C216	C	-0.198804	0.927999	-0.370393
C217	C	-0.945564	0.341455	-1.037095
C218	C	-0.612231	0.674788	-0.703762
C219	C	-0.278898	1.008122	-0.370428
C220	C	-0.945562	0.341465	-0.971660
C221	C	-0.612228	0.674799	-0.638326
C222	C	-0.278895	1.008132	-0.304993
C223	C	-0.905517	0.301404	-0.938928
C224	C	-0.572184	0.634738	-0.605594
C225	C	-0.238851	0.968071	-0.272261
C226	C	-0.905417	0.301543	-0.139435
C227	C	-0.572084	0.634877	0.193899
C228	C	-0.238750	0.968210	0.527232
C229	C	-0.905517	0.301383	-0.069794
C230	C	-0.572184	0.634717	0.263539
C231	C	-0.238851	0.968050	0.596873
H232	H	-0.465208	0.310694	-0.404577
H233	H	-0.131874	0.644028	-0.071243
H234	H	0.201459	0.977361	0.262090
H235	H	-0.978155	0.374150	-0.660113
H236	H	-0.644821	0.707483	-0.326780
H237	H	-0.311488	1.040817	0.006554
N238	N	-0.988730	0.384775	-0.532752
N239	N	-0.655397	0.718108	-0.199418
N240	N	-0.322063	1.051441	0.133915
H241	H	-1.014099	0.410147	-0.563419
H242	H	-0.680765	0.743480	-0.230085
H243	H	-0.347432	1.076814	0.103248
H244	H	-1.017741	0.359269	-0.505635
H245	H	-0.684408	0.692603	-0.172301
H246	H	-0.351074	1.025936	0.161032
H247	H	-0.803017	0.741998	-0.311059
H248	H	-0.469684	1.075331	0.022274
H249	H	-0.136350	1.408665	0.355608
N250	N	-0.822090	0.667456	-0.385400
N251	N	-0.488756	1.000789	-0.052067
N252	N	-0.155423	1.334122	0.281267
H253	H	-0.828187	0.713869	-0.379334
H254	H	-0.494854	1.047203	-0.046001
H255	H	-0.161520	1.380536	0.287332
H256	H	-0.777343	0.656078	-0.375588
H257	H	-0.444010	0.989411	-0.042254
H258	H	-0.110677	1.322744	0.291079
H259	H	-0.832867	0.228720	-0.944972
H260	H	-0.499533	0.562053	-0.611638
H261	H	-0.166200	0.895387	-0.278305
H262	H	-0.666926	0.374421	-0.374675
H263	H	-0.333593	0.707754	-0.041342
H264	H	-0.000259	1.041088	0.291991
N265	N	-1.022841	0.869093	-0.292138
N266	N	-0.689508	1.202426	0.041195
N267	N	-0.356175	1.535760	0.374528
H268	H	-1.044175	0.857710	-0.251614
H269	H	-0.710842	1.191043	0.081720
H270	H	-0.377508	1.524377	0.415053
H271	H	-1.014244	0.915508	-0.292915
H272	H	-0.680910	1.248842	0.040418
H273	H	-0.347577	1.582175	0.373751
H274	H	-0.978149	0.658729	-0.229614
H275	H	-0.644816	0.992063	0.103719
H276	H	-0.311482	1.325396	0.437053
N277	N	-0.675565	0.218221	-0.218981
N278	N	-0.342232	0.551554	0.114353
N279	N	-0.008899	0.884887	0.447686
H280	H	-0.721983	0.224318	-0.225035
H281	H	-0.388649	0.557651	0.108298
H282	H	-0.055316	0.890984	0.441631
H283	H	-0.664187	0.173483	-0.228818
H284	H	-0.330854	0.506817	0.104515
H285	H	0.002480	0.840150	0.437849
N286	N	-0.822279	0.218119	-1.072327
N287	N	-0.488946	0.551452	-0.738993
N288	N	-0.155613	0.884785	-0.405660
H289	H	-0.796914	0.192744	-1.041659
H290	H	-0.463580	0.526077	-0.708326
H291	H	-0.130247	0.859411	-0.374993
H292	H	-0.847803	0.189114	-1.099508
H293	H	-0.514470	0.522447	-0.766174
H294	H	-0.181137	0.855781	-0.432841
H295	H	-0.978255	0.943659	-0.229660
H296	H	-0.644922	1.276993	0.103673
H297	H	-0.311589	1.610326	0.437006
H298	H	-0.263276	0.228761	-0.229671
H299	H	0.070058	0.562095	0.103663
H300	H	0.403391	0.895428	0.436996
N301	N	-0.539566	0.384998	-0.385284
N302	N	-0.206233	0.718332	-0.051950
N303	N	0.127100	1.051665	0.281383
H304	H	-0.570222	0.410424	-0.410611
H305	H	-0.236888	0.743757	-0.077278
H306	H	0.096445	1.077091	0.256056
H307	H	-0.512361	0.413953	-0.359728
H308	H	-0.179028	0.747286	-0.026395
H309	H	0.154305	1.080620	0.306938
N310	N	-0.988699	0.531365	-0.219019
N311	N	-0.655366	0.864699	0.114315
N312	N	-0.322032	1.198032	0.447648
H313	H	-0.979000	0.542795	-0.174239
H314	H	-0.645666	0.876128	0.159094
H315	H	-0.312333	1.209461	0.492427
H316	H	-1.033445	0.542712	-0.228871
H317	H	-0.700112	0.876045	0.104463
H318	H	-0.366778	1.209379	0.437796
N319	N	-0.271944	0.384962	-0.385359
N320	N	0.061390	0.718295	-0.052026
N321	N	0.394723	1.051628	0.281307
H322	H	-0.241291	0.410372	-0.410707
H323	H	0.092043	0.743705	-0.077374
H324	H	0.425376	1.077039	0.255960
H325	H	-0.299153	0.359500	-0.414393
H326	H	0.034180	0.692834	-0.081059
H327	H	0.367514	1.026167	0.252274
H328	H	-0.978307	1.062366	-0.229691
H329	H	-0.644973	1.395699	0.103643
H330	H	-0.311640	1.729033	0.436976
H331	H	-0.978173	0.374063	-1.063750
H332	H	-0.644839	0.707397	-0.730417
H333	H	-0.311506	1.040730	-0.397083
N334	N	-0.822237	1.071087	-0.385475
N335	N	-0.488904	1.404420	-0.052142
N336	N	-0.155571	1.737754	0.281192
H337	H	-0.847695	1.098184	-0.414550
H338	H	-0.514361	1.431517	-0.081217
H339	H	-0.181028	1.764850	0.252117
H340	H	-0.793231	1.098254	-0.359937
H341	H	-0.459898	1.431587	-0.026603
H342	H	-0.126565	1.764920	0.306730
H343	H	-0.832789	0.943734	-0.374870
H344	H	-0.499456	1.277067	-0.041537
H345	H	-0.166123	1.610400	0.291796
N346	N	-0.788148	0.869372	-0.312357
N347	N	-0.454814	1.202705	0.020976
N348	N	-0.121481	1.536038	0.354309
H349	H	-0.752374	0.838757	-0.315438
H350	H	-0.419041	1.172090	0.017895
H351	H	-0.085708	1.505424	0.351228
H352	H	-0.789039	0.896496	-0.350966
H353	H	-0.455705	1.229829	-0.017633
H354	H	-0.122372	1.563163	0.315701
N355	N	-0.988752	0.384672	-0.936387
N356	N	-0.655419	0.718006	-0.603053
N357	N	-0.322086	1.051339	-0.269720
H358	H	-0.963270	0.413719	-0.909209
H359	H	-0.629936	0.747052	-0.575876
H360	H	-0.296603	1.080385	-0.242543
H361	H	-1.014117	0.410002	-0.967089
H362	H	-0.680783	0.743336	-0.633756
H363	H	-0.347450	1.076669	-0.300423
N364	N	-0.822043	0.531447	-0.385379
N365	N	-0.488710	0.864781	-0.052046
N366	N	-0.155376	1.198114	0.281287
H367	H	-0.796657	0.562115	-0.410736
H368	H	-0.463324	0.895448	-0.077403
H369	H	-0.129991	1.228782	0.255931
H370	H	-0.793050	0.504354	-0.359830
H371	H	-0.459717	0.837687	-0.026496
H372	H	-0.126384	1.171021	0.306837
H373	H	-0.346495	0.310671	-0.404610
H374	H	-0.013162	0.644005	-0.071277
H375	H	0.320171	0.977338	0.262057
H376	H	-1.007931	0.310360	-0.861968
H377	H	-0.674597	0.643694	-0.528634
H378	H	-0.341264	0.977027	-0.195301
N379	N	-0.822273	0.218212	-0.532687
N380	N	-0.488940	0.551545	-0.199354
N381	N	-0.155606	0.884879	0.133979
H382	H	-0.777500	0.227946	-0.544039
H383	H	-0.444167	0.561279	-0.210706
H384	H	-0.110833	0.894612	0.122628
H385	H	-0.828395	0.224312	-0.486283
H386	H	-0.495061	0.557646	-0.152950
H387	H	-0.161728	0.890979	0.180384
N388	N	-0.135931	0.384935	-0.385401
N389	N	0.197402	0.718269	-0.052067
N390	N	0.530736	1.051602	0.281266
H391	H	-0.166589	0.410363	-0.410723
H392	H	0.166745	0.743697	-0.077390
H393	H	0.500078	1.077030	0.255944
H394	H	-0.108726	0.413887	-0.359842
H395	H	0.224607	0.747221	-0.026509
H396	H	0.557941	1.080554	0.306824
H397	H	-1.007928	0.310383	-0.743263
H398	H	-0.674595	0.643716	-0.409930
H399	H	-0.341262	0.977049	-0.076596
N400	N	-0.135926	0.218136	-0.219131
N401	N	0.197408	0.551470	0.114203
N402	N	0.530741	0.884803	0.447536
H403	H	-0.147370	0.173384	-0.228942
H404	H	0.185963	0.506718	0.104392
H405	H	0.519297	0.840051	0.437725
H406	H	-0.089520	0.224268	-0.225229
H407	H	0.243813	0.557602	0.108104
H408	H	0.577146	0.890935	0.441437
N409	N	-0.788172	0.291191	-0.870441
N410	N	-0.454839	0.624525	-0.537108
N411	N	-0.121505	0.957858	-0.203775
H412	H	-0.760120	0.327433	-0.859005
H413	H	-0.426787	0.660767	-0.525671
H414	H	-0.093454	0.994100	-0.192338
H415	H	-0.766924	0.250631	-0.859035
H416	H	-0.433591	0.583964	-0.525702
H417	H	-0.100257	0.917298	-0.192369
H418	H	-0.346294	0.292477	-0.199803
H419	H	-0.012961	0.625810	0.133530
H420	H	0.320373	0.959143	0.466864
H421	H	-0.464998	0.292490	-0.199768
H422	H	-0.131665	0.625823	0.133566
H423	H	0.201668	0.959156	0.466899
N424	N	-0.822274	0.218198	-0.668691
N425	N	-0.488940	0.551531	-0.335358
N426	N	-0.155607	0.884864	-0.002024
H427	H	-0.796905	0.192823	-0.638026
H428	H	-0.463572	0.526156	-0.304693
H429	H	-0.130238	0.859489	0.028641
H430	H	-0.847803	0.189194	-0.695868
H431	H	-0.514469	0.522527	-0.362534
H432	H	-0.181136	0.855860	-0.029201
N433	N	-0.788180	0.291194	-0.734442
N434	N	-0.454847	0.624527	-0.401109
N435	N	-0.121514	0.957861	-0.067775
H436	H	-0.752420	0.288064	-0.765068
H437	H	-0.419087	0.621397	-0.431735
H438	H	-0.085753	0.954731	-0.098401
H439	H	-0.782334	0.329374	-0.707273
H440	H	-0.449001	0.662707	-0.373940
H441	H	-0.115667	0.996040	-0.040607
N442	N	-0.539558	0.218208	-0.219014
N443	N	-0.206224	0.551541	0.114320
N444	N	0.127109	0.884875	0.447653
H445	H	-0.512459	0.189204	-0.244531
H446	H	-0.179126	0.522537	0.088802
H447	H	0.154208	0.855870	0.422136
H448	H	-0.512394	0.243683	-0.189949
H449	H	-0.179061	0.577016	0.143384
H450	H	0.154273	0.910350	0.476717
N451	N	-1.022784	0.733085	-0.292109
N452	N	-0.689450	1.066419	0.041224
N453	N	-0.356117	1.399752	0.374558
H454	H	-1.058560	0.763696	-0.289034
H455	H	-0.725227	1.097030	0.044300
H456	H	-0.391894	1.430363	0.377633
H457	H	-1.028569	0.705903	-0.330288
H458	H	-0.695236	1.039236	0.003045
H459	H	-0.361903	1.372570	0.336378
