data_functionalizedCrystal
_audit_creation_method	'MofGen! by Chris Wilmer'
_symmetry_space_group_name_H-M	'P1'
_symmetry_Int_Tables_number	1
_symmetry_cell_setting	triclinic
loop_
_symmetry_equiv_pos_as_xyz
  x,y,z
_cell_length_a	11.026607
_cell_length_b	11.026607
_cell_length_c	10.065875
_cell_angle_alpha	100.731764
_cell_angle_beta	79.302338
_cell_angle_gamma	108.586017
loop_
_atom_site_label
_atom_site_type_symbol
_atom_site_fract_x
_atom_site_fract_y
_atom_site_fract_z
O1	O	1.741286	0.518966	-0.113490
O2	O	1.374706	0.458202	-0.113493
O3	O	1.527614	0.305294	-0.113487
O4	O	1.588379	0.671873	-0.113496
O5	O	1.498489	0.334601	0.113501
O6	O	1.345582	0.487509	0.113495
O7	O	1.712161	0.548273	0.113497
Zn8	Zn	1.524247	0.522544	0.149535
Zn9	Zn	1.562620	0.483931	-0.149531
O10	O	1.559254	0.701180	0.113491
C11	C	1.312485	0.461645	0.000001
C12	C	1.170471	0.428228	0.000000
C13	C	1.116822	0.520498	-0.000003
C14	C	0.970043	0.485962	-0.000004
C15	C	1.501842	0.272288	0.000005
C16	C	1.468426	0.130273	0.000000
C17	C	1.560695	0.076624	-0.000001
C18	C	1.526160	-0.070155	-0.000006
C19	C	1.774384	0.544829	0.000001
C20	C	1.916399	0.578244	-0.000007
C21	C	1.585026	0.734186	-0.000004
C22	C	1.618444	0.876199	-0.000008
N23	N	1.498068	0.548898	0.353640
N24	N	1.588808	0.457569	-0.353635
C25	C	1.553502	0.493090	0.421421
C26	C	1.533366	0.513385	0.578587
H27	H	0.907318	0.381388	-0.000036
H28	H	1.363864	0.067539	-0.000009
C29	C	1.759707	-0.039070	0.000006
H30	H	1.764389	0.048468	0.000021
H31	H	1.811105	-0.066909	-0.079145
H32	H	1.790769	-0.046482	0.079176
C33	C	1.673102	0.372757	0.567594
H34	H	1.675603	0.370264	0.472294
H35	H	1.637517	0.287683	0.590934
H36	H	1.758217	0.408035	0.590944
C37	C	1.413817	0.633743	0.432419
H38	H	1.411344	0.636261	0.527718
H39	H	1.328701	0.598514	0.409087
H40	H	1.449449	0.718817	0.409064
C41	C	1.384895	-0.154882	-0.000016
H42	H	1.331486	-0.102191	-0.000026
H43	H	1.357861	-0.197149	0.079133
H44	H	1.378189	-0.217569	-0.079188
C45	C	1.701952	0.161360	0.000005
H46	H	1.706631	0.248897	0.000017
H47	H	1.753346	0.133519	-0.079148
H48	H	1.733021	0.153953	0.079173
H49	H	1.179554	0.625061	0.000002
H50	H	1.615864	0.430280	0.363099
H51	H	1.470989	0.576187	0.636906
C52	C	1.001121	0.719512	-0.000006
H53	H	0.948425	0.772921	0.000002
H54	H	1.063758	0.726170	-0.079158
H55	H	1.043433	0.746603	0.079163
C56	C	1.085736	0.286970	-0.000004
H57	H	0.998202	0.282288	-0.000016
H58	H	1.093203	0.255950	0.079149
H59	H	1.113521	0.235524	-0.079172
