data_functionalizedCrystal
_audit_creation_method	'MofGen! by Chris Wilmer'
_symmetry_space_group_name_H-M	'P1'
_symmetry_Int_Tables_number	1
_symmetry_cell_setting	triclinic
loop_
_symmetry_equiv_pos_as_xyz
  x,y,z
_cell_length_a	21.295420
_cell_length_b	21.295417
_cell_length_c	16.120297
_cell_angle_alpha	87.131911
_cell_angle_beta	87.121576
_cell_angle_gamma	90.025484
loop_
_atom_site_label
_atom_site_type_symbol
_atom_site_fract_x
_atom_site_fract_y
_atom_site_fract_z
Zn1	Zn	0.944280	-0.268742	0.471363
Zn2	Zn	0.949531	-0.368672	0.331944
Zn3	Zn	0.844350	-0.263414	0.331967
Zn4	Zn	0.838976	-0.373967	0.471309
O5	O	0.894284	-0.318699	0.401646
O6	O	1.033065	-0.282011	0.452882
O7	O	0.940025	-0.350264	0.215284
O8	O	0.857657	-0.176033	0.350491
O9	O	1.036923	-0.355430	0.350451
O10	O	0.931075	-0.179947	0.452904
O11	O	0.862749	-0.272932	0.215301
O12	O	0.755548	-0.278066	0.350438
O13	O	0.848498	-0.364454	0.587978
O14	O	0.751600	-0.359288	0.452812
O15	O	0.925865	-0.287145	0.588018
O16	O	0.934815	-0.457463	0.350398
O17	O	0.853590	-0.461353	0.452789
C18	C	0.730734	-0.318674	0.401622
C19	C	0.660765	-0.318679	0.401632
C20	C	0.159293	-0.280568	0.455080
C21	C	0.225036	-0.280564	0.455080
C22	C	0.259924	-0.318719	0.401665
C23	C	0.229065	-0.356893	0.348261
C24	C	0.163323	-0.356902	0.348268
N25	N	0.365914	-0.320668	0.328667
N26	N	0.428366	-0.320657	0.328662
C27	C	0.458000	-0.318697	0.401640
N28	N	0.422823	-0.316737	0.474626
N29	N	0.360366	-0.316745	0.474629
C30	C	0.331210	-0.318714	0.401651
C31	C	0.560137	-0.280523	0.455045
C32	C	0.625881	-0.280523	0.455047
C33	C	0.629909	-0.356849	0.348220
C34	C	0.564166	-0.356853	0.348226
C35	C	0.529284	-0.318686	0.401637
C36	C	0.894206	-0.482249	0.401603
C37	C	0.894229	-0.552217	0.401613
C38	C	0.932433	-0.587066	0.454978
C39	C	0.932454	-0.652810	0.454999
C40	C	0.894279	-0.683701	0.401640
C41	C	0.856066	-0.648844	0.348271
C42	C	0.856041	-0.583102	0.348258
N43	N	0.892317	-0.784168	0.328679
N44	N	0.892345	-0.846620	0.328694
C45	C	0.894351	-0.881777	0.401677
N46	N	0.896340	-0.852122	0.474647
N47	N	0.896316	-0.789665	0.474631
C48	C	0.894301	-0.754986	0.401648
C49	C	0.932580	-0.987912	0.455069
C50	C	0.932597	-1.053657	0.455091
C51	C	0.856213	-1.049690	0.348356
C52	C	0.856192	-0.983947	0.348341
C53	C	0.894379	-0.953062	0.401697
C54	C	1.058474	-0.318724	0.401670
C55	C	1.128441	-0.318735	0.401680
C56	C	0.885996	-0.326985	0.619093
C57	C	0.882465	-0.330515	0.711757
C58	C	0.894380	-0.154511	0.401706
C59	C	0.894420	-0.084544	0.401732
C60	C	0.902576	-0.310400	0.185044
C61	C	0.906230	-0.306692	0.092381
C62	C	0.875993	-0.336948	0.881414
C63	C	0.912699	-0.300261	0.922729
C64	C	0.909099	-0.303840	1.017132
C65	C	0.879593	-0.333370	0.787002
H66	H	0.130896	-0.249493	0.498576
C67	C	0.822239	-0.881409	0.300932
C68	C	0.814201	-0.945635	0.289675
H69	H	0.796309	-0.857758	0.264717
H70	H	0.864995	-0.870144	0.288778
H71	H	0.810853	-0.872765	0.356936
H72	H	0.825592	-0.954279	0.233672
H73	H	0.771435	-0.956904	0.301823
C74	C	0.844266	-0.444542	0.908385
C75	C	0.829926	-0.382980	0.929365
H76	H	0.815825	-0.472959	0.937993
H77	H	0.886020	-0.454279	0.922617
H78	H	0.840667	-0.448138	0.850315
H79	H	0.833530	-0.379382	0.987434
H80	H	0.788162	-0.373239	0.915139
H81	H	0.650999	-0.249445	0.498538
C82	C	0.925158	-0.211934	0.824716
C83	C	0.958771	-0.254224	0.874783
H84	H	0.953600	-0.183515	0.795113
H85	H	0.896479	-0.189122	0.858685
H86	H	0.902608	-0.234487	0.786383
H87	H	0.981317	-0.231671	0.913120
H88	H	0.987461	-0.277038	0.840811
C89	C	0.214458	-0.205110	0.560663
C90	C	0.258958	-0.238606	0.513780
H91	H	0.235401	-0.179206	0.596898
H92	H	0.187601	-0.233786	0.592494
H93	H	0.190199	-0.179613	0.524391
H94	H	0.283214	-0.264107	0.550053
H95	H	0.285826	-0.209927	0.481948
H96	H	0.963708	-1.082030	0.498551
H97	H	0.257475	-0.387961	0.304772
C98	C	0.655498	-0.381970	0.206976
C99	C	0.668250	-0.398792	0.289504
H100	H	0.679168	-0.407869	0.170731
H101	H	0.666750	-0.339205	0.194880
H102	H	0.611927	-0.387437	0.199347
H103	H	0.711820	-0.393320	0.297135
H104	H	0.657002	-0.441568	0.301605
H105	H	0.539047	-0.387929	0.304738
C106	C	0.851612	-0.504940	0.236094
C107	C	0.814048	-0.544790	0.289592
H108	H	0.825685	-0.481285	0.199880
H109	H	0.880273	-0.529363	0.204245
H110	H	0.874345	-0.477140	0.267879
H111	H	0.791318	-0.572594	0.257808
H112	H	0.785375	-0.520365	0.321444
C113	C	0.144600	-0.461894	0.307407
C114	C	0.129409	-0.398855	0.289561
H115	H	0.123664	-0.487792	0.271157
H116	H	0.131691	-0.473300	0.363392
H117	H	0.188746	-0.467344	0.299758
H118	H	0.085262	-0.393404	0.297215
H119	H	0.142313	-0.387446	0.233562
C120	C	0.562756	-0.205087	0.560649
C121	C	0.521790	-0.238582	0.513766
H122	H	0.539082	-0.179199	0.596905
H123	H	0.589781	-0.179580	0.524385
H124	H	0.587182	-0.233769	0.592465
H125	H	0.497367	-0.209900	0.481945
H126	H	0.494754	-0.264091	0.550035
C127	C	0.822331	-1.148702	0.300989
C128	C	0.814244	-1.083638	0.289706
H129	H	0.796420	-1.169661	0.264779
H130	H	0.810955	-1.161592	0.356990
H131	H	0.865101	-1.158978	0.288836
H132	H	0.771475	-1.073361	0.301866
H133	H	0.825615	-1.070743	0.233693
C134	C	1.007940	-0.597596	0.560478
C135	C	0.974403	-0.553119	0.513631
H136	H	1.033847	-0.576636	0.596691
H137	H	1.033432	-0.621844	0.524187
H138	H	0.979284	-0.624466	0.592337
H139	H	1.003060	-0.526252	0.481767
H140	H	0.948910	-0.528860	0.549927
H141	H	0.963559	-0.681189	0.498464
C142	C	0.771880	-0.722410	0.336598
C143	C	0.814103	-0.682798	0.289617
H144	H	0.745974	-0.743373	0.300386
H145	H	0.746387	-0.698155	0.372879
H146	H	0.794645	-0.752573	0.368381
H147	H	0.791339	-0.652632	0.257839
H148	H	0.839599	-0.707054	0.253321
C149	C	1.008072	-0.998435	0.560589
C150	C	0.974542	-0.953959	0.513731
H151	H	1.033972	-0.977474	0.596809
H152	H	1.033570	-1.022683	0.524306
H153	H	0.979411	-1.025305	0.592441
H154	H	1.003203	-0.927092	0.481874
H155	H	0.949042	-0.929701	0.550018
