data_functionalizedCrystal
_audit_creation_method	'MofGen! by Chris Wilmer'
_symmetry_space_group_name_H-M	'P1'
_symmetry_Int_Tables_number	1
_symmetry_cell_setting	triclinic
loop_
_symmetry_equiv_pos_as_xyz
  x,y,z
_cell_length_a	13.033293
_cell_length_b	13.032721
_cell_length_c	18.215399
_cell_angle_alpha	97.154738
_cell_angle_beta	82.790882
_cell_angle_gamma	105.184121
loop_
_atom_site_label
_atom_site_type_symbol
_atom_site_fract_x
_atom_site_fract_y
_atom_site_fract_z
Zn1	Zn	1.570202	-0.216841	-0.576181
Zn2	Zn	1.903535	0.116492	-0.242848
Zn3	Zn	2.236869	0.449826	0.090486
Zn4	Zn	1.547521	-0.394482	-0.466968
Zn5	Zn	1.880854	-0.061148	-0.133635
Zn6	Zn	2.214188	0.272185	0.199698
Zn7	Zn	1.392567	-0.239410	-0.439233
Zn8	Zn	1.725901	0.093923	-0.105899
Zn9	Zn	2.059234	0.427256	0.227434
Zn10	Zn	1.369981	-0.416947	-0.576096
Zn11	Zn	1.703314	-0.083613	-0.242763
Zn12	Zn	2.036648	0.249720	0.090570
O13	O	1.470068	-0.316920	-0.514620
O14	O	1.803401	0.016413	-0.181286
O15	O	2.136734	0.349747	0.152047
O16	O	1.715835	-0.221558	-0.573337
O17	O	2.049169	0.111775	-0.240004
O18	O	2.382502	0.445108	0.093330
O19	O	1.526926	-0.373955	-0.360305
O20	O	1.860260	-0.040621	-0.026972
O21	O	2.193593	0.292712	0.306361
O22	O	1.435076	-0.087774	-0.445827
O23	O	1.768409	0.245560	-0.112494
O24	O	2.101742	0.578893	0.220840
O25	O	1.699171	-0.352070	-0.493099
O26	O	2.032505	-0.018737	-0.159765
O27	O	2.365838	0.314597	0.173568
O28	O	1.565583	-0.071192	-0.546443
O29	O	1.898916	0.262141	-0.213109
O30	O	2.232250	0.595475	0.120224
O31	O	1.413082	-0.260025	-0.339928
O32	O	1.746416	0.073309	-0.006594
O33	O	2.079749	0.406642	0.326739
O34	O	1.240929	-0.281808	-0.445745
O35	O	1.574263	0.051525	-0.112411
O36	O	1.907596	0.384859	0.220922
O37	O	1.396580	-0.390359	-0.679092
O38	O	1.729914	-0.057025	-0.345758
O39	O	2.063247	0.276308	-0.012425
O40	O	1.224335	-0.412243	-0.546298
O41	O	1.557668	-0.078910	-0.212965
O42	O	1.891002	0.254423	0.120369
O43	O	1.543682	-0.243342	-0.679154
O44	O	1.877015	0.089992	-0.345821
O45	O	2.210349	0.423325	-0.012487
O46	O	1.505025	-0.546105	-0.493017
O47	O	1.838359	-0.212771	-0.159683
O48	O	2.171692	0.120562	0.173650
O49	O	1.374587	-0.562609	-0.573192
O50	O	1.707921	-0.229276	-0.239859
O51	O	2.041254	0.104057	0.093474
C52	C	1.194091	-0.351913	-0.493003
C53	C	1.527424	-0.018580	-0.159670
C54	C	1.860758	0.314753	0.173664
C55	C	1.076023	-0.366909	-0.483775
C56	C	1.409357	-0.033576	-0.150441
C57	C	1.742690	0.299758	0.182892
C58	C	1.031617	-0.309120	-0.519438
C59	C	1.364951	0.024213	-0.186105
C60	C	1.698284	0.357547	0.147229
C61	C	0.909589	-0.324618	-0.509901
C62	C	1.242922	0.008716	-0.176568
C63	C	1.576255	0.342049	0.156766
C64	C	1.434923	-0.592895	-0.536123
C65	C	1.768256	-0.259561	-0.202790
C66	C	2.101590	0.073772	0.130543
C67	C	1.419985	-0.710946	-0.545355
C68	C	1.753318	-0.377612	-0.212022
C69	C	2.086652	-0.044279	0.121312
C70	C	1.477920	-0.755368	-0.509839
C71	C	1.811254	-0.422035	-0.176506
C72	C	2.144587	-0.088702	0.156828
C73	C	1.462483	-0.877380	-0.519380
C74	C	1.795816	-0.544047	-0.186046
C75	C	2.129149	-0.210713	0.147287
C76	C	1.747122	-0.281791	-0.536321
C77	C	2.080456	0.051543	-0.202988
C78	C	2.413789	0.384876	0.130346
C79	C	1.865186	-0.266821	-0.545569
C80	C	2.198520	0.066513	-0.212236
C81	C	2.531853	0.399846	0.121098
C82	C	1.470142	-0.316838	-0.706572
C83	C	1.803475	0.016495	-0.373239
C84	C	2.136808	0.349828	-0.039905
C85	C	1.470173	-0.316804	-0.788371
C86	C	1.803507	0.016530	-0.455037
C87	C	2.136840	0.349863	-0.121704
C88	C	1.505379	-0.039864	-0.493050
C89	C	1.838712	0.293470	-0.159717
C90	C	2.172045	0.626803	0.173616
C91	C	1.520426	0.078201	-0.483859
C92	C	1.853760	0.411535	-0.150525
C93	C	2.187093	0.744868	0.182808
C94	C	1.546802	-0.240185	-0.976595
C95	C	1.880135	0.093148	-0.643262
C96	C	2.213468	0.426481	-0.309929
C97	C	1.546818	-0.240153	-1.053453
C98	C	1.880152	0.093180	-0.720119
C99	C	2.213485	0.426514	-0.386786
C100	C	1.393641	-0.393248	-1.053377
C101	C	1.726974	-0.059915	-0.720044
C102	C	2.060308	0.273418	-0.386710
C103	C	1.393621	-0.393275	-0.976520
C104	C	1.726954	-0.059942	-0.643187
C105	C	2.060287	0.273391	-0.309854
C106	C	1.470207	-0.316745	-0.938132
C107	C	1.803540	0.016589	-0.604799
C108	C	2.136873	0.349922	-0.271465
C109	C	1.470244	-0.316685	-1.091846
C110	C	1.803577	0.016648	-0.758513
C111	C	2.136910	0.349982	-0.425179
C112	C	1.470261	-0.316650	-1.175178
C113	C	1.803595	0.016683	-0.841845
C114	C	2.136928	0.350016	-0.508512
C115	C	1.470188	-0.316778	-0.854794
C116	C	1.803522	0.016556	-0.521461
C117	C	2.136855	0.349889	-0.188128
C118	C	1.470065	-0.316917	-0.323413
C119	C	1.803398	0.016417	0.009921
C120	C	2.136732	0.349750	0.343254
C121	C	1.470277	-0.316626	-0.241607
C122	C	1.803611	0.016707	0.091726
C123	C	2.136944	0.350041	0.425059
H124	H	1.023700	-0.427855	-0.446180
H125	H	1.357034	-0.094522	-0.112847
H126	H	1.690367	0.238811	0.220486
Cl127	Cl	1.325762	-0.791679	-0.603211
Cl128	Cl	1.659096	-0.458345	-0.269878
Cl129	Cl	1.992429	-0.125012	0.063455
Cl130	Cl	1.368256	-0.958109	-0.577239
Cl131	Cl	1.701589	-0.624776	-0.243905
Cl132	Cl	2.034923	-0.291443	0.089428
Cl133	Cl	1.297372	-0.489458	-1.101643
Cl134	Cl	1.630705	-0.156124	-0.768309
Cl135	Cl	1.964038	0.177209	-0.434976
H136	H	1.331240	-0.455619	-0.945202
H137	H	1.664574	-0.122286	-0.611869
H138	H	1.997907	0.211048	-0.278535
H139	H	1.083941	-0.248168	-0.557028
H140	H	1.417275	0.085165	-0.223694
H141	H	1.750608	0.418499	0.109639
H142	H	1.538955	-0.703073	-0.472372
H143	H	1.872288	-0.369740	-0.139039
H144	H	2.205621	-0.036407	0.194294
Cl145	Cl	1.614665	-0.841071	-0.426007
Cl146	Cl	1.947998	-0.507737	-0.092674
Cl147	Cl	2.281331	-0.174404	0.240659
H148	H	0.857269	-0.385568	-0.472304
H149	H	1.190602	-0.052235	-0.138970
H150	H	1.523936	0.281099	0.194363
Cl151	Cl	1.643122	-0.143911	-1.101805
Cl152	Cl	1.976455	0.189423	-0.768471
Cl153	Cl	2.309788	0.522756	-0.435138
H154	H	1.609161	-0.177867	-0.945341
H155	H	1.942494	0.155467	-0.612008
H156	H	2.275827	0.488800	-0.278675
Cl157	Cl	0.945956	-0.172704	-0.603608
Cl158	Cl	1.279290	0.160630	-0.270275
Cl159	Cl	1.612623	0.493963	0.063058
