data_functionalizedCrystal
_audit_creation_method	'MofGen! by Chris Wilmer'
_symmetry_space_group_name_H-M	'P1'
_symmetry_Int_Tables_number	1
_symmetry_cell_setting	triclinic
loop_
_symmetry_equiv_pos_as_xyz
  x,y,z
_cell_length_a	16.974885
_cell_length_b	11.295483
_cell_length_c	16.992695
_cell_angle_alpha	94.374931
_cell_angle_beta	92.976847
_cell_angle_gamma	90.460040
loop_
_atom_site_label
_atom_site_type_symbol
_atom_site_fract_x
_atom_site_fract_y
_atom_site_fract_z
O1	O	1.055317	-0.002580	-0.100039
O2	O	1.555317	0.497420	0.399961
O3	O	0.827026	0.019402	-0.111600
O4	O	1.327026	0.519402	0.388400
O5	O	0.940256	0.008490	0.008327
O6	O	1.440256	0.508490	0.508327
O7	O	0.942087	0.008332	-0.219965
O8	O	1.442087	0.508332	0.280035
O9	O	0.930310	-0.188602	-0.002190
O10	O	1.430310	0.311398	0.497810
O11	O	0.817080	-0.177690	-0.122117
O12	O	1.317080	0.322310	0.377883
O13	O	1.045371	-0.199672	-0.110556
O14	O	1.545371	0.300328	0.389444
Cu15	Cu	0.930317	-0.206677	-0.117297
Cu16	Cu	1.430317	0.293323	0.382703
Cu17	Cu	0.942080	0.026407	-0.104859
Cu18	Cu	1.442080	0.526407	0.395141
O19	O	0.932141	-0.188760	-0.230482
O20	O	1.432141	0.311240	0.269518
C21	C	0.792707	-0.076318	-0.116224
C22	C	1.292707	0.423682	0.383776
C23	C	0.705264	-0.067898	-0.114325
C24	C	1.205264	0.432102	0.385675
C25	C	0.213642	-0.008890	-0.102989
C26	C	0.713642	0.491110	0.397011
C27	C	0.295803	-0.016817	-0.104775
C28	C	0.795803	0.483183	0.395225
C29	C	0.331453	-0.128217	-0.111406
C30	C	0.831453	0.371783	0.388594
C31	C	0.284939	-0.231696	-0.116244
C32	C	0.784939	0.268304	0.383756
C33	C	0.202780	-0.223768	-0.114453
C34	C	0.702780	0.276232	0.385547
C35	C	0.576590	-0.163449	-0.117372
C36	C	1.076590	0.336551	0.382628
C37	C	0.658755	-0.171370	-0.119165
C38	C	1.158755	0.328630	0.380835
C39	C	0.669614	0.043510	-0.107694
C40	C	1.169614	0.543510	0.392306
C41	C	0.587453	0.051429	-0.105908
C42	C	1.087453	0.551429	0.394092
C43	C	0.540945	-0.052051	-0.110743
C44	C	1.040945	0.447949	0.389257
N45	N	0.415435	-0.136323	-0.113234
N46	N	0.915435	0.363677	0.386766
N47	N	0.456966	-0.043944	-0.108909
N48	N	0.956966	0.456056	0.391091
N49	N	0.922050	-0.370617	-0.126044
N50	N	1.422050	0.129383	0.373956
C51	C	1.009864	-0.628369	-0.033092
C52	C	1.509864	-0.128369	0.466908
C53	C	1.003622	-0.752432	-0.039708
C54	C	1.503622	-0.252432	0.460292
C55	C	0.903320	-0.742805	-0.145888
C56	C	1.403320	-0.242805	0.354112
C57	C	0.909562	-0.618743	-0.139272
C58	C	1.409562	-0.118743	0.360728
C59	C	0.962837	-0.561530	-0.082873
C60	C	1.462837	-0.061530	0.417127
C61	C	0.969082	-0.437466	-0.076261
C62	C	1.469082	0.062534	0.423739
C63	C	0.868777	-0.427841	-0.182437
C64	C	1.368777	0.072159	0.317563
C65	C	0.862535	-0.551903	-0.189053
C66	C	1.362535	-0.051903	0.310947
C67	C	1.079690	-0.103949	-0.105931
C68	C	1.579690	0.396051	0.394069
C69	C	1.167133	-0.112361	-0.107830
C70	C	1.667133	0.387639	0.392170
C71	C	0.932928	-0.089830	0.032290
C72	C	1.432928	0.410170	0.532290
C73	C	0.925903	-0.089153	0.119363
C74	C	1.425903	0.410847	0.619363
N75	N	0.950353	0.190346	-0.096105
N76	N	1.450353	0.690346	0.403895
C77	C	0.939469	-0.090438	-0.254445
C78	C	1.439469	0.409562	0.245555
C79	C	0.946495	-0.091107	-0.341517
C80	C	1.446495	0.408893	0.158483
C81	C	0.993688	-0.095681	0.169330
C82	C	1.493688	0.404319	0.669330
C83	C	0.987083	-0.095034	0.251144
C84	C	1.487083	0.404966	0.751144
C85	C	0.912691	-0.087866	0.282988
C86	C	1.412691	0.412134	0.782988
C87	C	0.844901	-0.081334	0.233015
C88	C	1.344901	0.418666	0.733015
C89	C	0.851507	-0.081973	0.151203
C90	C	1.351507	0.418027	0.651203
C91	C	0.885311	-0.085214	0.526697
C92	C	1.385311	0.414786	1.026697
C93	C	0.878709	-0.084579	0.608515
C94	C	1.378709	0.415421	1.108515
C95	C	1.020892	-0.098276	0.626639
C96	C	1.520892	0.401724	1.126639
C97	C	1.027492	-0.098922	0.544824
C98	C	1.527492	0.401078	1.044824
C99	C	0.959702	-0.092383	0.494858
C100	C	1.459702	0.407617	0.994858
N101	N	0.905938	-0.087208	0.366615
N102	N	1.405938	0.412792	0.866615
N103	N	0.966456	-0.093033	0.411234
N104	N	1.466456	0.406967	0.911234
H105	H	0.558432	0.142142	-0.100507
H106	H	1.058432	0.642142	0.399493
C107	C	0.844673	-0.805743	-0.207874
C108	C	1.344673	-0.305743	0.292126
H109	H	0.817539	-0.748168	-0.236560
H110	H	1.317539	-0.248168	0.263440
H111	H	0.872545	-0.857092	-0.243249
H112	H	1.372545	-0.357092	0.256751
H113	H	0.807727	-0.850784	-0.182034
H114	H	1.307727	-0.350784	0.317966
C115	C	1.055351	-0.825957	0.015049
C116	C	1.555351	-0.325957	0.515049
H117	H	1.044000	-0.908039	0.003037
H118	H	1.544000	-0.408039	0.503037
H119	H	1.109421	-0.810715	0.007381
H120	H	1.609421	-0.310715	0.507381
H121	H	1.044530	-0.804489	0.068518
H122	H	1.544530	-0.304489	0.568518
H123	H	0.538734	-0.247710	-0.121297
H124	H	1.038734	0.252290	0.378703
H125	H	0.819158	-0.598500	-0.234971
H126	H	1.319158	-0.098500	0.265029
H127	H	0.164912	-0.308025	-0.118403
H128	H	0.664912	0.191975	0.381597
C129	C	0.817054	-0.354316	-0.237208
C130	C	1.317054	0.145684	0.262792
H131	H	0.828400	-0.272234	-0.225192
H132	H	1.328400	0.227766	0.274808
H133	H	0.827875	-0.375795	-0.290671
H134	H	1.327875	0.124205	0.209329
H135	H	0.762977	-0.369547	-0.229540
H136	H	1.262977	0.130453	0.270460
H137	H	1.053248	-0.581786	0.012826
H138	H	1.553248	-0.081786	0.512826
C139	C	0.810747	-0.078021	0.471742
C140	C	1.310747	0.421979	0.971742
H141	H	0.825331	-0.079411	0.418457
H142	H	1.325331	0.420589	0.918457
H143	H	0.776981	-0.143830	0.477758
H144	H	1.276981	0.356170	0.977758
H145	H	0.783931	-0.006361	0.485098
H146	H	1.283931	0.493639	0.985098
C147	C	1.075518	-0.103569	0.134304
C148	C	1.575518	0.396431	0.634304
H149	H	1.069746	-0.103027	0.078423
H150	H	1.569746	0.396973	0.578423
H151	H	1.107115	-0.037549	0.155100
H152	H	1.607115	0.462451	0.655100
H153	H	1.100172	-0.175017	0.147773
H154	H	1.600172	0.324983	0.647773
H155	H	0.184622	0.081824	-0.097595
H156	H	0.684622	0.581824	0.402405
H157	H	1.012463	-0.390884	-0.030340
H158	H	1.512463	0.109116	0.469660
C159	C	1.061647	-0.102227	0.306104
C160	C	1.561647	0.397773	0.806104
H161	H	1.106896	-0.106605	0.275420
H162	H	1.606896	0.393395	0.775420
H163	H	1.065501	-0.033534	0.342061
H164	H	1.565501	0.466466	0.842061
H165	H	1.058549	-0.171002	0.334729
H166	H	1.558549	0.328998	0.834729
H167	H	1.088069	-0.104758	0.518903
H168	H	1.588069	0.395242	1.018903
H169	H	1.076083	-0.103598	0.667330
H170	H	1.576083	0.396402	1.167330
C171	C	0.346962	0.096998	-0.099465
C172	C	0.846962	0.596998	0.400535
H173	H	0.400999	0.076325	-0.101475
H174	H	0.900999	0.576325	0.398525
H175	H	0.332596	0.142737	-0.142502
H176	H	0.832596	0.642737	0.357498
H177	H	0.338860	0.142144	-0.051130
H178	H	0.838860	0.642144	0.448870
H179	H	0.818126	-0.078761	0.634438
H180	H	1.318126	0.421239	1.134438
C181	C	0.763071	-0.073454	0.268041
C182	C	1.263071	0.426546	0.768041
H183	H	0.768843	-0.074021	0.323921
H184	H	1.268843	0.425979	0.823921
H185	H	0.738410	-0.002016	0.254575
H186	H	1.238410	0.497984	0.754575
H187	H	0.731479	-0.139486	0.247242
H188	H	1.231479	0.360514	0.747242
H189	H	0.707489	0.127757	-0.103757
H190	H	1.207489	0.627757	0.396243
H191	H	0.796309	-0.076657	0.110520
H192	H	1.296309	0.423343	0.610520
H193	H	0.313972	-0.322400	-0.121639
H194	H	0.813972	0.177600	0.378361
C195	C	0.697972	-0.293915	-0.126420
C196	C	1.197972	0.206085	0.373580
H197	H	0.658509	-0.354409	-0.129025
H198	H	1.158509	0.145591	0.370975
H199	H	0.726678	-0.301203	-0.173032
H200	H	1.226678	0.198797	0.326968
H201	H	0.732917	-0.301737	-0.081657
H202	H	1.232917	0.198263	0.418343
