data_functionalizedCrystal
_audit_creation_method	'MofGen! by Chris Wilmer'
_symmetry_space_group_name_H-M	'P1'
_symmetry_Int_Tables_number	1
_symmetry_cell_setting	triclinic
loop_
_symmetry_equiv_pos_as_xyz
  x,y,z
_cell_length_a	16.992694
_cell_length_b	10.489741
_cell_length_c	15.455313
_cell_angle_alpha	92.692689
_cell_angle_beta	87.142206
_cell_angle_gamma	87.603699
loop_
_atom_site_label
_atom_site_type_symbol
_atom_site_fract_x
_atom_site_fract_y
_atom_site_fract_z
O1	O	1.045321	0.265388	-0.072021
O2	O	0.817021	0.262418	-0.072047
O3	O	0.936366	0.078758	-0.072028
O4	O	0.925976	0.449049	-0.072040
O5	O	0.929541	0.089214	0.072233
O6	O	0.810196	0.272874	0.072214
O7	O	1.038496	0.275845	0.072240
Cu8	Cu	0.923723	0.275314	0.085399
Cu9	Cu	0.931794	0.262948	-0.085206
O10	O	0.919151	0.459505	0.072221
C11	C	0.784374	0.263826	0.000081
C12	C	0.697266	0.252430	0.000071
C13	C	0.647647	0.362380	0.000068
C14	C	0.565799	0.351666	0.000081
C15	C	0.533573	0.231001	0.000089
C16	C	0.583198	0.121044	0.000095
C17	C	0.665044	0.131759	0.000089
C18	C	0.289723	0.186590	0.000114
C19	C	0.207871	0.175882	0.000117
C20	C	0.190477	0.406505	0.000105
C21	C	0.272325	0.417210	0.000094
C22	C	0.321944	0.307253	0.000104
N23	N	0.449911	0.220047	0.000099
N24	N	0.405603	0.318209	0.000100
C25	C	0.932168	0.036386	0.000102
C26	C	0.929821	-0.105448	0.000100
C27	C	0.853885	-0.180195	0.000085
C28	C	0.886392	-0.264041	0.071217
C29	C	0.893138	-0.274324	-0.071013
C30	C	0.962356	-0.187422	0.071291
C31	C	0.969095	-0.197700	-0.071003
C32	C	1.001656	-0.281512	0.000146
C33	C	1.071143	0.274436	0.000111
C34	C	1.158251	0.285832	0.000115
C35	C	0.923349	0.501877	0.000090
C36	C	0.925697	0.643710	0.000086
N37	N	0.918052	0.284011	0.205394
N38	N	0.937472	0.254242	-0.205201
C39	C	0.968772	0.206019	0.250796
C40	C	0.964490	0.212608	0.341603
C41	C	0.909492	0.297199	0.387007
C42	C	0.858766	0.375195	0.341598
C43	C	0.863045	0.368597	0.250793
C44	C	0.891025	0.325640	0.658585
C45	C	0.886752	0.332234	0.749397
C46	C	0.992475	0.169646	0.749396
C47	C	0.996751	0.163062	0.658589
C48	C	0.946023	0.241053	0.613188
N49	N	0.905116	0.303939	0.479826
N50	N	0.950396	0.234305	0.520370
H51	H	0.330113	0.097055	0.000123
C52	C	0.682478	0.493508	0.000102
C53	C	0.621499	0.587503	0.000127
C54	C	0.653552	0.708317	0.000172
H55	H	0.716405	0.499019	-0.050194
H56	H	0.711649	0.506197	0.050427
H57	H	0.592342	0.574819	-0.050193
H58	H	0.587567	0.582034	0.050419
H59	H	0.682723	0.721006	0.050497
H60	H	0.687479	0.713815	-0.050125
H61	H	0.612183	0.772108	0.000197
H62	H	0.863844	-0.312443	-0.131155
H63	H	0.991610	-0.149433	0.131495
H64	H	0.821742	0.432106	0.213827
H65	H	0.851416	-0.293490	0.131347
C66	C	1.084982	-0.340093	0.000383
C67	C	1.120833	-0.295771	0.074993
C68	C	1.197586	-0.349724	0.075251
H69	H	1.114620	-0.316351	-0.049603
H70	H	1.083086	-0.430510	-0.000050
H71	H	1.122732	-0.205374	0.075419
H72	H	1.091218	-0.319511	0.124992
H73	H	1.195691	-0.440140	0.074818
H74	H	1.227218	-0.325978	0.025262
H75	H	1.221918	-0.319668	0.125877
C76	C	1.028513	0.114047	0.201662
C77	C	1.071999	0.047131	0.260864
C78	C	1.127031	-0.037621	0.215636
H79	H	1.063172	0.160599	0.166225
H80	H	1.001680	0.055377	0.166267
H81	H	1.098830	0.105793	0.296243
H82	H	1.037361	0.000554	0.296302
H83	H	1.100199	-0.096291	0.180242
H84	H	1.161685	0.008941	0.180201
H85	H	1.156538	-0.083042	0.255797
C86	C	1.056138	0.070531	0.609416
C87	C	1.016065	-0.015610	0.557559
C88	C	1.070656	-0.101124	0.512345
H89	H	1.085554	0.024925	0.649551
H90	H	1.090930	0.116567	0.573772
H91	H	0.981286	-0.061641	0.593200
H92	H	0.986652	0.029960	0.517408
H93	H	1.105449	-0.055088	0.476701
H94	H	1.100070	-0.146720	0.552485
H95	H	1.043476	-0.159573	0.477148
C96	C	1.015566	-0.158441	-0.151286
C97	C	0.979057	-0.202357	-0.225568
C98	C	1.021831	-0.166197	-0.299547
H99	H	1.067797	-0.194590	-0.151913
H100	H	1.017102	-0.067962	-0.150459
H101	H	0.977530	-0.292818	-0.226395
H102	H	0.926829	-0.166213	-0.224970
H103	H	1.023367	-0.075718	-0.298720
H104	H	1.074061	-0.202349	-0.300166
H105	H	0.997062	-0.195978	-0.349956
H106	H	1.005790	0.149100	0.378569
C107	C	1.047669	0.085112	0.798640
C108	C	1.125919	0.112146	0.776556
C109	C	1.176784	0.034299	0.821908
H110	H	1.039469	-0.002060	0.783800
H111	H	1.037299	0.101157	0.859232
H112	H	1.136285	0.096091	0.715977
H113	H	1.134144	0.199303	0.791398
H114	H	1.166414	0.050345	0.882500
H115	H	1.168577	-0.052868	0.807065
H116	H	1.229882	0.052639	0.806937
H117	H	0.525401	0.441198	0.000077
H118	H	0.813982	0.444065	0.378571
C119	C	0.826946	0.424101	0.798538
C120	C	0.783417	0.490961	0.739344
C121	C	0.728312	0.575578	0.784581
H122	H	0.853698	0.482823	0.833957
H123	H	0.792328	0.377414	0.833951
H124	H	0.818030	0.537646	0.703946
H125	H	0.756648	0.432272	0.703924
H126	H	0.693694	0.528891	0.819994
H127	H	0.755071	0.634292	0.819998
H128	H	0.698766	0.620944	0.744425
H129	H	0.849721	0.389146	0.621627
H130	H	0.150069	0.496026	0.000099
C131	C	0.307196	0.548302	-0.000055
C132	C	0.285508	0.609871	-0.074268
C133	C	0.317601	0.730646	-0.074436
H134	H	0.363048	0.539138	-0.000107
H135	H	0.287811	0.597639	0.050223
H136	H	0.304898	0.560546	-0.124533
H137	H	0.229661	0.619068	-0.074232
H138	H	0.298216	0.779984	-0.024158
H139	H	0.373453	0.721470	-0.074486
H140	H	0.302885	0.772441	-0.124784
C141	C	0.172731	0.044978	0.000092
C142	C	0.090435	0.059134	0.000069
C143	C	0.058038	-0.061419	0.000034
H144	H	0.187255	0.002902	0.050390
H145	H	0.192048	-0.004320	-0.050230
H146	H	0.071126	0.108413	0.050386
H147	H	0.075889	0.101189	-0.050225
H148	H	0.077354	-0.110718	-0.050289
H149	H	0.072567	-0.103486	0.050333
H150	H	0.002198	-0.051832	0.000010
H151	H	0.556953	0.022797	0.000114
H152	H	0.705444	0.042227	0.000090
H153	H	0.791448	-0.135971	0.000150
