data_functionalizedCrystal
_audit_creation_method	'MofGen! by Chris Wilmer'
_symmetry_space_group_name_H-M	'P1'
_symmetry_Int_Tables_number	1
_symmetry_cell_setting	triclinic
loop_
_symmetry_equiv_pos_as_xyz
  x,y,z
_cell_length_a	12.759401
_cell_length_b	12.827892
_cell_length_c	12.759393
_cell_angle_alpha	90.029972
_cell_angle_beta	90.019676
_cell_angle_gamma	90.015818
loop_
_atom_site_label
_atom_site_type_symbol
_atom_site_fract_x
_atom_site_fract_y
_atom_site_fract_z
Zn1	Zn	1.606261	-0.415971	0.593989
Zn2	Zn	1.939595	-0.082637	0.927322
Zn3	Zn	2.272928	0.250696	1.260655
Zn4	Zn	1.606150	-0.590748	0.418310
Zn5	Zn	1.939484	-0.257415	0.751644
Zn6	Zn	2.272817	0.075919	1.084977
Zn7	Zn	1.430560	-0.416023	0.418328
Zn8	Zn	1.763893	-0.082690	0.751661
Zn9	Zn	2.097227	0.250644	1.084994
Zn10	Zn	1.430550	-0.590672	0.593951
Zn11	Zn	1.763883	-0.257338	0.927285
Zn12	Zn	2.097216	0.075995	1.260618
O13	O	1.518380	-0.503353	0.506144
O14	O	1.851714	-0.170020	0.839478
O15	O	2.185047	0.163313	1.172811
O16	O	1.753268	-0.439165	0.570693
O17	O	2.086601	-0.105832	0.904026
O18	O	2.419934	0.227501	1.237359
O19	O	1.582816	-0.567624	0.271291
O20	O	1.916149	-0.234291	0.604625
O21	O	2.249482	0.099043	0.937958
O22	O	1.453918	-0.269780	0.441652
O23	O	1.787251	0.063553	0.774986
O24	O	2.120585	0.396887	1.108319
O25	O	1.753186	-0.567573	0.441623
O26	O	2.086519	-0.234240	0.774956
O27	O	2.419853	0.099093	1.108289
O28	O	1.583005	-0.269741	0.570710
O29	O	1.916338	0.063592	0.904043
O30	O	2.249672	0.396925	1.237376
O31	O	1.453810	-0.439254	0.271304
O32	O	1.787144	-0.105921	0.604637
O33	O	2.120477	0.227412	0.937971
O34	O	1.283538	-0.439180	0.441616
O35	O	1.616871	-0.105847	0.774949
O36	O	1.950204	0.227486	1.108283
O37	O	1.453900	-0.567443	0.740977
O38	O	1.787234	-0.234110	1.074311
O39	O	2.120567	0.099223	1.407644
O40	O	1.283530	-0.567494	0.570646
O41	O	1.616863	-0.234161	0.903979
O42	O	1.950197	0.099173	1.237313
O43	O	1.582995	-0.439091	0.741005
O44	O	1.916328	-0.105758	1.074338
O45	O	2.249662	0.227575	1.407671
O46	O	1.582806	-0.736974	0.441587
O47	O	1.916139	-0.403641	0.774920
O48	O	2.249472	-0.070307	1.108253
O49	O	1.453793	-0.736918	0.570629
O50	O	1.787126	-0.403584	0.903963
O51	O	2.120459	-0.070251	1.237296
C52	C	1.245413	-0.503335	0.506130
C53	C	1.578746	-0.170002	0.839463
C54	C	1.912080	0.163331	1.172796
C55	C	1.128636	-0.503353	0.506148
C56	C	1.461970	-0.170019	0.839482
C57	C	1.795303	0.163314	1.172815
C58	C	1.073817	-0.436611	0.573459
C59	C	1.407151	-0.103278	0.906792
C60	C	1.740484	0.230055	1.240125
C61	C	0.964093	-0.436622	0.573466
C62	C	1.297427	-0.103289	0.906799
C63	C	1.630760	0.230045	1.240132
C64	C	0.964017	-0.570124	0.438849
C65	C	1.297350	-0.236791	0.772182
C66	C	1.630683	0.096542	1.105515
C67	C	1.073739	-0.570108	0.438837
C68	C	1.407072	-0.236774	0.772171
C69	C	1.740405	0.096559	1.105504
C70	C	1.518315	-0.774863	0.506125
C71	C	1.851648	-0.441530	0.839458
C72	C	2.184981	-0.108197	1.172792
C73	C	1.518383	-0.891016	0.506152
C74	C	1.851716	-0.557683	0.839485
C75	C	2.185049	-0.224350	1.172818
C76	C	1.582231	-0.942699	0.570071
C77	C	1.915564	-0.609365	0.903404
C78	C	2.248897	-0.276032	1.236738
C79	C	1.582302	-1.062749	0.570100
C80	C	1.915636	-0.729416	0.903433
C81	C	2.248969	-0.396082	1.236767
C82	C	1.792414	-0.503372	0.506160
C83	C	2.125747	-0.170039	0.839493
C84	C	2.459080	0.163295	1.172827
C85	C	1.909190	-0.503380	0.506167
C86	C	2.242524	-0.170047	0.839500
C87	C	2.575857	0.163287	1.172833
C88	C	1.518459	-0.503253	0.780178
C89	C	1.851792	-0.169920	1.113511
C90	C	2.185126	0.163414	1.446845
C91	C	1.518492	-0.503210	0.896955
C92	C	1.851826	-0.169877	1.230288
C93	C	2.185159	0.163456	1.563621
C94	C	1.518475	-0.230783	0.506187
C95	C	1.851808	0.102550	0.839520
C96	C	2.185142	0.435884	1.172854
C97	C	1.518515	-0.114630	0.506205
C98	C	1.851849	0.218703	0.839538
C99	C	2.185182	0.552037	1.172872
C100	C	1.518362	-0.503378	0.233177
C101	C	1.851696	-0.170044	0.566510
C102	C	2.185029	0.163289	0.899844
C103	C	1.518533	-0.503126	0.116401
C104	C	1.851866	-0.169793	0.449734
C105	C	2.185199	0.163541	0.783068
C106	C	1.585717	-0.436367	0.951833
C107	C	1.919050	-0.103033	1.285166
C108	C	2.252384	0.230300	1.618499
C109	C	1.585735	-0.436322	1.061557
C110	C	1.919068	-0.102988	1.394890
C111	C	2.252401	0.230345	1.728223
C112	C	1.451301	-0.569973	1.061515
C113	C	1.784634	-0.236639	1.394849
C114	C	2.117967	0.096694	1.728182
C115	C	1.451278	-0.570012	0.951793
C116	C	1.784612	-0.236678	1.285127
C117	C	2.117945	0.096655	1.618460
H118	H	1.118512	-0.382252	0.628264
H119	H	1.451845	-0.048919	0.961597
H120	H	1.785179	0.284415	1.294931
H121	H	1.118374	-0.624457	0.384019
H122	H	1.451707	-0.291124	0.717353
H123	H	1.785040	0.042209	1.050686
Br124	Br	0.889507	-0.660717	0.347504
Br125	Br	1.222840	-0.327384	0.680838
Br126	Br	1.556173	0.005949	1.014171
Br127	Br	1.673241	-0.868324	0.661265
Br128	Br	2.006574	-0.534991	0.994598
Br129	Br	2.339907	-0.201658	1.327932
H130	H	0.919465	-0.382273	0.628275
H131	H	1.252798	-0.048940	0.961608
H132	H	1.586131	0.284394	1.294941
H133	H	1.463768	-0.935646	0.451455
H134	H	1.797102	-0.602312	0.784788
H135	H	2.130435	-0.268979	1.118122
H136	H	1.640444	-0.381970	0.907186
H137	H	1.973778	-0.048636	1.240520
H138	H	2.307111	0.284697	1.573853
H139	H	1.636969	-1.107195	0.624820
H140	H	1.970302	-0.773862	0.958153
H141	H	2.303635	-0.440528	1.291486
Br142	Br	1.427407	-1.040565	0.414978
Br143	Br	1.760741	-0.707231	0.748311
Br144	Br	2.094074	-0.373898	1.081645
H145	H	1.640474	-0.381889	1.106233
H146	H	1.973807	-0.048556	1.439567
H147	H	2.307141	0.284778	1.772900
H148	H	1.396580	-0.624362	1.106178
H149	H	1.729913	-0.291029	1.439512
H150	H	2.063246	0.042304	1.772845
H151	H	1.396529	-0.624443	0.907110
H152	H	1.729862	-0.291110	1.240444
H153	H	2.063195	0.042224	1.573777
