data_functionalizedCrystal
_audit_creation_method	'MofGen! by Chris Wilmer'
_symmetry_space_group_name_H-M	'P1'
_symmetry_Int_Tables_number	1
_symmetry_cell_setting	triclinic
loop_
_symmetry_equiv_pos_as_xyz
  x,y,z
_cell_length_a	19.188930
_cell_length_b	14.853567
_cell_length_c	13.330367
_cell_angle_alpha	90.008763
_cell_angle_beta	89.979247
_cell_angle_gamma	83.389856
loop_
_atom_site_label
_atom_site_type_symbol
_atom_site_fract_x
_atom_site_fract_y
_atom_site_fract_z
O1	O	-0.926524	-0.112539	0.083738
O2	O	-0.723263	-0.127691	0.083668
O3	O	-0.830323	0.011145	0.083708
O4	O	-0.819464	-0.251375	0.083698
O5	O	-0.830306	0.011123	-0.083139
O6	O	-0.723247	-0.127713	-0.083179
O7	O	-0.926507	-0.112562	-0.083109
Cu8	Cu	-0.824875	-0.120139	-0.098379
Cu9	Cu	-0.824895	-0.120113	0.098937
O10	O	-0.819448	-0.251397	-0.083149
C11	C	-0.697242	-0.127211	0.000236
C12	C	-0.619733	-0.125738	0.000209
C13	C	-0.829823	0.044720	0.000287
C14	C	-0.828348	0.144795	0.000295
C15	C	-0.952528	-0.113041	0.000325
C16	C	-1.030038	-0.114514	0.000358
C17	C	-0.575080	-0.207203	0.000222
C18	C	-0.502252	-0.205819	0.000233
C19	C	-0.474079	-0.122966	0.000252
C20	C	-0.518741	-0.041491	0.000233
C21	C	-0.591568	-0.042877	0.000212
N22	N	-0.365893	-0.059628	0.057080
N23	N	-0.296710	-0.058317	0.057102
C24	C	-0.254657	-0.118785	0.000313
N25	N	-0.284398	-0.180628	-0.056486
N26	N	-0.353587	-0.181942	-0.056504
C27	C	-0.395112	-0.121454	0.000274
C28	C	-0.131035	-0.198755	0.000336
C29	C	-0.058205	-0.197367	0.000341
C30	C	-0.074696	-0.033038	0.000352
C31	C	-0.147524	-0.034427	0.000337
C32	C	-0.175689	-0.117288	0.000334
N33	N	-0.824867	-0.120157	-0.237160
C34	C	-0.819948	-0.284972	0.000274
C35	C	-0.821422	-0.385048	0.000272
C36	C	-0.758520	0.556941	0.000252
C37	C	-0.885709	0.578929	0.000296
C38	C	-0.887095	0.484903	0.000302
C39	C	-0.824193	0.426891	0.000282
C40	C	-0.759904	0.462906	0.000255
C41	C	-0.951383	0.448881	0.000319
C42	C	-0.952772	0.354850	0.000324
C43	C	-0.889869	0.296836	0.000311
C44	C	-0.825577	0.332856	0.000285
C45	C	-0.762675	0.274845	0.000265
C46	C	-0.698383	0.310863	0.000247
C47	C	-0.697001	0.404892	0.000242
C48	C	-0.891251	0.202807	0.000315
C49	C	-0.764059	0.180810	0.000269
C50	C	-0.867300	-0.174641	-0.709759
C51	C	-0.782511	-0.065549	-0.709775
C52	C	-0.782501	-0.065563	-0.604757
C53	C	-0.824892	-0.120116	-0.552235
C54	C	-0.867293	-0.174654	-0.604731
C55	C	-0.740106	-0.011019	-0.552252
C56	C	-0.740094	-0.011030	-0.447227
C57	C	-0.782482	-0.065588	-0.394704
C58	C	-0.824884	-0.120130	-0.447207
C59	C	-0.867275	-0.174682	-0.394685
C60	C	-0.909674	-0.229229	-0.447186
C61	C	-0.909680	-0.229212	-0.552207
C62	C	-0.782476	-0.065605	-0.289682
C63	C	-0.867268	-0.174696	-0.289657
N64	N	-0.824909	-0.120088	0.237719
H65	H	-0.598007	-0.274675	0.000222
H66	H	-0.183881	0.031910	0.000332
H67	H	-0.465889	-0.272159	0.000241
Cl68	Cl	-0.616184	0.450178	0.000222
Cl69	Cl	-0.920594	-0.243217	-0.775757
H70	H	-0.495798	0.025968	0.000262
H71	H	-0.706174	0.586271	0.000241
Cl72	Cl	-0.619309	0.237923	0.000213
H73	H	-0.627925	0.023463	0.000202
Cl74	Cl	-0.166445	-0.302920	0.000323
H75	H	-0.747957	-0.021191	-0.246940
Cl76	Cl	-0.002069	-0.299790	0.000352
H77	H	-1.002595	0.496121	0.000326
Cl78	Cl	-0.039286	0.071121	0.000363
Cl79	Cl	-0.686816	0.057555	-0.618283
Cl80	Cl	-0.686781	0.057525	-0.381236
H81	H	-0.936921	0.626167	0.000304
H82	H	-0.943596	0.173485	0.000324
H83	H	-1.005123	0.325533	0.000340
H84	H	-0.712835	0.133582	0.000256
Cl85	Cl	-0.920559	-0.243286	-0.223638
H86	H	-0.944192	-0.273642	-0.404409
Cl87	Cl	-0.962976	-0.297780	-0.618214
H88	H	-0.748003	-0.021129	-0.752544
