data_functionalizedCrystal
_audit_creation_method	'MofGen! by Chris Wilmer'
_symmetry_space_group_name_H-M	'P1'
_symmetry_Int_Tables_number	1
_symmetry_cell_setting	triclinic
loop_
_symmetry_equiv_pos_as_xyz
  x,y,z
_cell_length_a	19.121063
_cell_length_b	18.050591
_cell_length_c	18.050582
_cell_angle_alpha	90.023995
_cell_angle_beta	92.415032
_cell_angle_gamma	87.537533
loop_
_atom_site_label
_atom_site_type_symbol
_atom_site_fract_x
_atom_site_fract_y
_atom_site_fract_z
Zn1	Zn	-0.279788	-1.122674	-0.432692
Zn2	Zn	0.220212	-0.622674	0.067308
Zn3	Zn	-0.397232	-1.117288	-0.313791
Zn4	Zn	0.102768	-0.617288	0.186209
Zn5	Zn	-0.279785	-0.998493	-0.308497
Zn6	Zn	0.220215	-0.498493	0.191503
Zn7	Zn	-0.397189	-0.993146	-0.437918
Zn8	Zn	0.102811	-0.493146	0.062082
O9	O	-0.338498	-1.057900	-0.373225
O10	O	0.161502	-0.557900	0.126775
O11	O	-0.295387	-1.225883	-0.416949
O12	O	0.204613	-0.725883	0.083051
O13	O	-0.381669	-1.101513	-0.209165
O14	O	0.118331	-0.601513	0.290835
O15	O	-0.181501	-1.019458	-0.320569
O16	O	0.318499	-0.519458	0.179431
O17	O	-0.381672	-1.221926	-0.329593
O18	O	0.118328	-0.721926	0.170407
O19	O	-0.181503	-1.110693	-0.411815
O20	O	0.318497	-0.610693	0.088185
O21	O	-0.295381	-1.014235	-0.205275
O22	O	0.204619	-0.514235	0.294725
O23	O	-0.295339	-0.893860	-0.325636
O24	O	0.204661	-0.393860	0.174364
O25	O	-0.381598	-1.010345	-0.541149
O26	O	0.118402	-0.510345	-0.041149
O27	O	-0.381595	-0.889932	-0.420721
O28	O	0.118405	-0.389932	0.079279
O29	O	-0.295345	-1.105508	-0.537309
O30	O	0.204655	-0.605508	-0.037309
O31	O	-0.495511	-1.096328	-0.334660
O32	O	0.004489	-0.596328	0.165340
O33	O	-0.495479	-1.005122	-0.425855
O34	O	0.004521	-0.505122	0.074145
C35	C	-0.338463	-0.864950	-0.373172
C36	C	0.161537	-0.364950	0.126828
C37	C	-0.338465	-0.782404	-0.373167
C38	C	0.161535	-0.282404	0.126833
C39	C	-0.520979	-1.049581	-0.381416
C40	C	-0.020979	-0.549581	0.118584
C41	C	-0.599045	-1.046089	-0.384944
C42	C	-0.099045	-0.546089	0.115056
C43	C	-0.291494	-0.585071	-0.321561
C44	C	0.208506	-0.085071	0.178439
C45	C	-0.355552	-0.532762	-0.306167
C46	C	0.144448	-0.032762	0.193833
C47	C	-0.338479	-0.631273	-0.373193
C48	C	0.161521	-0.131273	0.126807
C49	C	-0.274436	-0.536499	-0.388578
C50	C	0.225564	-0.036499	0.111422
C51	C	-0.338486	-0.485287	-0.373217
C52	C	0.161514	0.014713	0.126783
C53	C	-0.402570	-0.580050	-0.357766
C54	C	0.097430	-0.080050	0.142234
C55	C	-0.321411	-0.583793	-0.440207
C56	C	0.178589	-0.083793	0.059793
C57	C	-0.385513	-0.531505	-0.424841
C58	C	0.114487	-0.031505	0.075159
C59	C	-0.338473	-0.715371	-0.373178
C60	C	0.161527	-0.215371	0.126822
C61	C	-0.338499	-0.401190	-0.373233
C62	C	0.161501	0.098810	0.126767
C63	C	-0.635713	-1.091972	-0.339161
C64	C	-0.135713	-0.591972	0.160839
C65	C	-0.709065	-1.088693	-0.342484
C66	C	-0.209065	-0.588693	0.157516
C67	C	-0.745746	-1.039527	-0.391588
C68	C	-0.245746	-0.539527	0.108412
C69	C	-0.709072	-0.993642	-0.437376
C70	C	-0.209072	-0.493642	0.062624
C71	C	-0.635722	-0.996925	-0.434056
C72	C	-0.135722	-0.496925	0.065944
C73	C	-0.967215	-1.027239	-0.403989
C74	C	-0.467215	-0.527239	0.096011
C75	C	-1.040571	-1.023958	-0.407304
C76	C	-0.540571	-0.523958	0.092696
C77	C	-1.040558	-1.119010	-0.312413
C78	C	-0.540558	-0.619010	0.187587
C79	C	-0.967207	-1.122286	-0.309094
C80	C	-0.467207	-0.622286	0.190906
C81	C	-0.930539	-1.076404	-0.354885
C82	C	-0.430539	-0.576404	0.145115
C83	C	-0.820723	-1.036172	-0.394984
C84	C	-0.320723	-0.536172	0.105016
C85	C	-0.855564	-1.079763	-0.351492
C86	C	-0.355564	-0.579763	0.148508
C87	C	-0.155305	-1.066273	-0.365018
C88	C	0.344695	-0.566273	0.134982
C89	C	-0.077239	-1.069840	-0.361521
C90	C	0.422761	-0.569840	0.138479
C91	C	-0.338467	-1.057931	-0.566929
C92	C	0.161533	-0.557931	-0.066929
C93	C	-0.338454	-1.057944	-0.649474
C94	C	0.161546	-0.557944	-0.149474
C95	C	-0.338522	-0.251605	-0.373264
C96	C	0.161478	0.248395	0.126736
C97	C	-0.338502	-0.334151	-0.373245
C98	C	0.161498	0.165849	0.126755
C99	C	-0.385295	-1.006235	-0.851010
C100	C	0.114705	-0.506235	-0.351010
C101	C	-0.402471	-1.073215	-0.901186
C102	C	0.097529	-0.573215	-0.401186
C103	C	-0.338400	-1.057983	-0.800602
C104	C	0.161600	-0.557983	-0.300602
C105	C	-0.321205	-0.991040	-0.897508
C106	C	0.178795	-0.491040	-0.397508
C107	C	-0.338350	-1.058014	-0.946585
C108	C	0.161650	-0.558014	-0.446585
C109	C	-0.355610	-1.124997	-0.849692
C110	C	0.144390	-0.624997	-0.349692
C111	C	-0.274314	-1.042778	-0.846008
C112	C	0.225686	-0.542778	-0.346008
C113	C	-0.291466	-1.109806	-0.896161
C114	C	0.208534	-0.609806	-0.396161
C115	C	-0.338431	-1.057963	-0.716505
C116	C	0.161569	-0.557963	-0.216505
C117	C	-0.338319	-1.058041	-1.030680
C118	C	0.161681	-0.558041	-0.530680
C119	C	-0.338479	-1.057915	-0.180272
C120	C	0.161521	-0.557915	0.319728
C121	C	-0.338294	-1.058055	-0.097718
C122	C	0.161706	-0.558055	0.402282
H123	H	-0.251807	-0.608518	-0.277856
H124	H	0.248193	-0.108518	0.222144
H125	H	-0.456749	-0.599185	-0.344700
H126	H	0.043251	-0.099185	0.155300
H127	H	-0.370194	-1.181637	-0.828755
H128	H	0.129806	-0.681637	-0.328755
H129	H	-0.220280	-0.517234	-0.401556
H130	H	0.279720	-0.017234	0.098444
H131	H	-1.070421	-1.156366	-0.275134
H132	H	-0.570421	-0.656366	0.224866
Cl133	Cl	-0.299082	-0.618389	-0.527663
Cl134	Cl	0.200918	-0.118389	-0.027663
H135	H	-0.306682	-0.934415	-0.918538
H136	H	0.193318	-0.434415	-0.418538
Cl137	Cl	-0.921129	-0.969557	-0.461554
Cl138	Cl	-0.421129	-0.469557	0.038446
H139	H	-0.825696	-1.119797	-0.311515
H140	H	-0.325696	-0.619797	0.188485
H141	H	-0.937343	-1.162321	-0.269110
H142	H	-0.437343	-0.662321	0.230890
Cl143	Cl	-0.377853	-0.498192	-0.218687
Cl144	Cl	0.122147	0.001808	0.281313
Cl145	Cl	-0.446930	-0.495503	-0.492274
Cl146	Cl	0.053070	0.004497	0.007726
Cl147	Cl	-0.589624	-0.939244	-0.491617
Cl148	Cl	-0.089624	-0.439244	0.008383
H149	H	-0.605852	-1.132005	-0.299173
H150	H	-0.105852	-0.632005	0.200827
H151	H	-0.456645	-1.086095	-0.925327
H152	H	0.043355	-0.586095	-0.425327
H153	H	-0.251787	-1.153630	-0.915917
H154	H	0.248213	-0.653630	-0.415917
Cl155	Cl	-0.755160	-1.146380	-0.284928
Cl156	Cl	-0.255160	-0.646380	0.215072
Cl157	Cl	-1.086683	-0.962134	-0.469029
Cl158	Cl	-0.586683	-0.462134	0.030971
Cl159	Cl	-0.190696	-1.022862	-0.808708
Cl160	Cl	0.309304	-0.522862	-0.308708
H161	H	-0.738944	-0.953613	-0.477361
H162	H	-0.238944	-0.453613	0.022639
H163	H	-0.850597	-0.996139	-0.434963
H164	H	-0.350597	-0.496139	0.065037
H165	H	-0.425003	-0.962510	-0.831119
H166	H	0.074997	-0.462510	-0.331119
