data_functionalizedCrystal
_audit_creation_method	'MofGen! by Chris Wilmer'
_symmetry_space_group_name_H-M	'P1'
_symmetry_Int_Tables_number	1
_symmetry_cell_setting	triclinic
loop_
_symmetry_equiv_pos_as_xyz
  x,y,z
_cell_length_a	20.875621
_cell_length_b	21.606444
_cell_length_c	21.606444
_cell_angle_alpha	59.998557
_cell_angle_beta	87.027421
_cell_angle_gamma	58.326227
loop_
_atom_site_label
_atom_site_type_symbol
_atom_site_fract_x
_atom_site_fract_y
_atom_site_fract_z
Zr1	Zr	0.618110	0.677350	-0.112128
O2	O	0.515721	0.806450	-0.205815
O3	O	0.649475	0.548250	-0.083414
O4	O	0.649508	0.677352	-0.212526
O5	O	0.515687	0.677346	0.025151
O6	O	0.755068	0.677353	-0.217814
O7	O	0.515688	0.677348	-0.076702
O8	O	0.755008	0.446413	0.013145
O9	O	0.515747	0.908285	-0.205808
O10	O	0.741657	0.601351	-0.075106
O11	O	0.662878	0.601348	0.004852
O12	O	0.662918	0.753349	-0.147162
O13	O	0.584140	0.753347	-0.067204
Zr14	Zr	0.786464	0.677346	0.041883
Zr15	Zr	0.786465	0.677350	-0.120561
Zr16	Zr	0.618109	0.677346	0.050316
Zr17	Zr	0.618151	0.839765	-0.112117
Zr18	Zr	0.786423	0.514931	0.041872
O19	O	0.755099	0.806446	0.013169
O20	O	0.755101	0.806451	-0.217805
O21	O	0.515720	0.806445	0.025160
O22	O	0.888852	0.548246	0.135570
O23	O	0.888854	0.548251	-0.095404
O24	O	0.649473	0.548245	0.147561
O25	O	0.888887	0.677350	-0.095395
O26	O	0.755065	0.677344	0.142282
O27	O	0.649506	0.677343	0.147569
O28	O	0.888886	0.677348	0.006458
O29	O	0.649567	0.908286	-0.212511
O30	O	0.755007	0.446410	0.142266
O31	O	0.888826	0.446411	0.135563
O32	O	0.888827	0.446414	0.006442
O33	O	0.515746	0.908282	-0.076687
O34	O	0.649566	0.908283	-0.083389
O35	O	0.741656	0.601347	0.076918
O36	O	0.820434	0.601349	-0.003040
O37	O	0.741695	0.753348	-0.075096
O38	O	0.662917	0.753345	0.004862
C39	C	0.702235	0.474191	-0.035136
C40	C	0.702218	0.405241	-0.035141
C41	C	0.760485	-0.074228	0.018091
C42	C	0.760468	-0.009420	0.018084
C43	C	0.702319	0.079070	-0.035115
C44	C	0.644186	0.102753	-0.088315
C45	C	0.644207	0.037945	-0.088311
C46	C	0.644102	0.364116	-0.088334
C47	C	0.644085	0.428923	-0.088333
C48	C	0.760364	0.316750	0.018061
C49	C	0.760384	0.251943	0.018066
C50	C	0.702255	0.275631	-0.035137
C51	C	0.702275	0.205358	-0.035130
C52	C	0.702295	0.149343	-0.035119
C53	C	0.491700	0.677347	-0.024574
C54	C	0.420229	0.677347	-0.020994
C55	C	0.386652	0.677350	-0.075426
C56	C	0.319500	0.677345	-0.072058
C57	C	0.285923	0.677343	-0.014262
C58	C	0.319506	0.677337	0.040175
C59	C	0.386660	0.677336	0.036810
C60	C	0.085082	0.677342	0.001822
C61	C	0.017922	0.677346	0.005181
C62	C	0.017921	0.677353	-0.107052
C63	C	0.085074	0.677356	-0.110414
C64	C	0.118654	0.677345	-0.055975
N65	N	0.217281	0.677341	-0.010820
N66	N	0.187298	0.677341	-0.059415
C67	C	0.912873	0.677349	-0.045670
C68	C	0.984344	0.677349	-0.049250
C69	C	0.702288	0.677353	-0.238315
C70	C	0.702289	0.677354	-0.307277
C71	C	0.702339	0.880505	-0.035108
C72	C	0.702356	0.949455	-0.035104
C73	C	0.760442	0.677356	-0.342588
C74	C	0.760444	0.677350	-0.407381
C75	C	0.702290	0.677348	-0.436865
C76	C	0.644133	0.677344	-0.401548
C77	C	0.644135	0.677344	-0.336753
C78	C	0.644126	0.677343	-0.662857
C79	C	0.644128	0.677346	-0.727658
C80	C	0.760436	0.677350	-0.733486
C81	C	0.760438	0.677349	-0.668691
C82	C	0.702284	0.677340	-0.633377
C83	C	0.702283	0.677345	-0.563120
C84	C	0.702287	0.677350	-0.507123
C85	C	0.702286	0.677343	0.168071
C86	C	0.702285	0.677341	0.237032
C87	C	0.912822	0.474192	-0.045684
C88	C	0.984275	0.405243	-0.049269
C89	C	0.702234	0.474186	0.168057
C90	C	0.702216	0.405235	0.237014
C91	C	0.912820	0.474187	0.157509
C92	C	0.984274	0.405236	0.222886
C93	C	0.491753	0.880509	-0.227753
C94	C	0.420300	0.949460	-0.293130
C95	C	0.491752	0.880504	-0.024560
C96	C	0.420299	0.949453	-0.020976
C97	C	0.702340	0.880510	-0.238301
C98	C	0.702358	0.949461	-0.307258
C99	C	0.976710	0.372864	-0.088577
C100	C	1.043841	0.308088	-0.091959
C101	C	1.118538	0.275687	-0.056030
C102	C	1.126102	0.308072	-0.016721
C103	C	1.058971	0.372851	-0.013342
C104	C	0.743328	0.372854	0.307021
C105	C	0.743309	0.308076	0.371820
C106	C	0.702180	0.275675	0.366610
C107	C	0.661063	0.308063	0.296595
C108	C	0.661079	0.372844	0.231798
C109	C	1.058957	0.372857	0.211850
C110	C	1.126101	0.308079	0.273272
C111	C	1.118560	0.275677	0.345730
C112	C	1.043869	0.308063	0.356764
C113	C	0.976726	0.372844	0.295343
C114	C	0.345617	0.981847	-0.282095
C115	C	0.278472	1.046645	-0.343517
C116	C	0.286013	1.079050	-0.415974
C117	C	0.360705	1.046661	-0.427009
C118	C	0.427848	0.981868	-0.365587
C119	C	0.427864	0.981839	0.018325
C120	C	0.360732	1.046633	0.021690
C121	C	0.286036	1.079036	-0.014242
C122	C	0.278472	1.046648	-0.053548
C123	C	0.345603	0.981859	-0.056917
C124	C	0.743494	0.981841	-0.302024
C125	C	0.743526	1.046619	-0.366811
C126	C	0.702417	1.079021	-0.436831
C127	C	0.661280	1.046635	-0.442064
C128	C	0.661253	0.981854	-0.377278
H129	H	0.596727	0.500980	-0.131654
O130	O	0.117779	0.677377	-0.166516
C131	C	0.184266	0.677345	-0.157800
H132	H	0.179159	0.704915	-0.123108
H133	H	0.239491	0.607511	-0.128297
C134	C	0.195466	0.700544	-0.277603
C135	C	0.189189	0.734412	-0.235000
H136	H	0.198506	0.735741	-0.325223
H137	H	0.150674	0.700562	-0.283475
H138	H	0.241486	0.642349	-0.253009
H139	H	0.143165	0.792601	-0.259590
H140	H	0.233974	0.734405	-0.229134
O141	O	1.066434	0.404194	0.141519
C142	C	1.146755	0.361666	0.144966
H143	H	1.182561	0.335048	0.200957
H144	H	1.166525	0.305341	0.138750
C145	C	1.115445	0.459950	0.012721
C146	C	1.159421	0.427262	0.081489
H147	H	1.123259	0.500410	-0.026436
H148	H	1.061331	0.488600	0.010398
H149	H	1.131925	0.413004	0.007551
H150	H	1.142935	0.474206	0.086661
H151	H	1.213534	0.398622	0.083811
O152	O	0.817049	-0.160145	0.069804
C153	C	0.868339	-0.167147	0.116765
H154	H	0.865562	-0.104502	0.086669
H155	H	0.850020	-0.177510	0.169854
C156	C	0.956273	-0.322359	0.173968
C157	C	0.952867	-0.245421	0.137001
H158	H	1.008414	-0.370644	0.186454
H159	H	0.921716	-0.317643	0.142332
H160	H	0.941003	-0.330983	0.218205
H161	H	0.968128	-0.236792	0.092761
H162	H	0.987429	-0.250137	0.168630
O163	O	0.816831	-0.032322	0.069788
C164	C	0.781225	0.001778	0.112633
H165	H	0.717719	0.060184	0.079658
H166	H	0.782555	-0.050881	0.166651
C167	C	0.904318	-0.040468	0.171510
C168	C	0.826321	0.031271	0.131007
H169	H	0.932137	-0.022278	0.182847
H170	H	0.928308	-0.063445	0.142647
H171	H	0.905416	-0.084344	0.216519
H172	H	0.825224	0.075142	0.085994
H173	H	0.802332	0.054257	0.159863
H174	H	0.596784	0.677337	-0.425554
O175	O	1.198664	0.276719	0.262575
C176	C	1.239976	0.292549	0.295608
H177	H	1.196415	0.349318	0.300797
H178	H	1.279830	0.231399	0.353369
C179	C	1.343612	0.246037	0.240286
C180	C	1.290110	0.315766	0.246653
H181	H	1.374540	0.260354	0.210090
H182	H	1.315781	0.235368	0.218033
H183	H	1.376816	0.195084	0.288423
H184	H	1.256901	0.366714	0.198517
H185	H	1.317936	0.326444	0.268897
O186	O	0.816736	0.293847	0.069764
C187	C	0.781134	0.327946	0.112610
H188	H	0.717627	0.386349	0.079640
H189	H	0.782470	0.275284	0.166631
C190	C	0.904229	0.285709	0.171474
C191	C	0.826230	0.357444	0.130976
H192	H	0.932047	0.303901	0.182806
H193	H	0.928216	0.262732	0.142609
H194	H	0.905332	0.241830	0.216486
H195	H	0.825128	0.401316	0.085961
H196	H	0.802244	0.380429	0.159833
H197	H	1.173239	0.222928	0.395737
H198	H	0.339432	0.955493	-0.088918
H199	H	0.915894	0.399244	-0.117845
H200	H	0.112416	0.677335	0.046147
H201	H	0.776794	0.281713	0.428822
H202	H	0.596774	0.677338	-0.634111
H203	H	0.488657	0.955499	-0.374582
H204	H	0.596768	0.383413	-0.131653
H205	H	0.777024	1.072981	-0.362536
O206	O	0.621263	0.404272	0.163748
C207	C	0.674058	0.388408	0.121260
H208	H	0.728175	0.380359	0.143281
H209	H	0.692449	0.326102	0.125748
C210	C	0.567316	0.476006	0.011996
C211	C	0.633780	0.466127	0.039038
H212	H	0.542470	0.523944	-0.038723
H213	H	0.531746	0.486692	0.040621
H214	H	0.582651	0.424079	0.015742
H215	H	0.618444	0.518050	0.035300
H216	H	0.669347	0.455453	0.010411
H217	H	0.488680	0.955461	0.047591
H218	H	1.037667	0.281728	-0.123969
O219	O	1.198646	0.276723	0.018093
C220	C	1.207290	0.345843	-0.011477
H221	H	1.164788	0.400925	-0.069823
H222	H	1.193969	0.371382	0.025997
C223	C	1.344341	0.244788	0.056081
C224	C	1.292144	0.312437	-0.015584
H225	H	1.396683	0.224182	0.053550
H226	H	1.338518	0.198220	0.076005
H227	H	1.333231	0.266080	0.087301
H228	H	1.303248	0.291142	-0.046800
H229	H	1.297971	0.359000	-0.035513
H230	H	0.413999	0.677331	0.081134
O231	O	0.367884	1.078208	-0.497445
C232	C	0.292602	1.142350	-0.549282
H233	H	0.248096	1.131705	-0.521785
H234	H	0.275513	1.210111	-0.568690
C235	C	0.348234	1.148334	-0.650606
C236	C	0.293572	1.135255	-0.616835
H237	H	0.348832	1.143961	-0.692277
H238	H	0.398953	1.105122	-0.615683
H239	H	0.333986	1.204801	-0.666773
H240	H	0.307826	1.078784	-0.600660
H241	H	0.242855	1.178457	-0.651756
H242	H	0.776970	0.955469	-0.245016
O243	O	0.286900	0.677453	0.096298
C244	C	0.264245	0.752846	0.093865
H245	H	0.299988	0.777975	0.063555
H246	H	0.199107	0.805636	0.062954
C247	C	0.235310	0.699084	0.211137
C248	C	0.279214	0.729943	0.173914
H249	H	0.244539	0.684958	0.260515
H250	H	0.250570	0.648291	0.212775
H251	H	0.181031	0.743081	0.185370
H252	H	0.333492	0.685942	0.199677
H253	H	0.263963	0.780728	0.172282
H254	H	0.596843	0.174808	-0.131634
O255	O	0.205950	1.077973	-0.088390
C256	C	0.197311	1.008845	-0.058766
H257	H	0.257742	0.944034	-0.032756
H258	H	0.165235	1.007975	-0.014313
C259	C	0.075349	1.101657	-0.153538
C260	C	0.149571	1.022056	-0.121597
H261	H	0.045898	1.109807	-0.192294
H262	H	0.081167	1.148231	-0.173495
H263	H	0.048629	1.100923	-0.116487
H264	H	0.176293	1.022796	-0.158646
H265	H	0.143757	0.975482	-0.101648
H266	H	-0.009414	0.677345	0.052249
H267	H	0.627751	0.955497	-0.381550
H268	H	0.702445	1.131771	-0.489578
O269	O	1.036653	0.276591	0.427188
C270	C	1.073030	0.292439	0.465211
H271	H	1.118779	0.300530	0.438157
H272	H	1.026873	0.354717	0.462158
C273	C	1.057131	0.204752	0.580644
C274	C	1.113324	0.214683	0.547419
H275	H	1.081983	0.156791	0.631355
H276	H	1.032620	0.194078	0.555027
H277	H	1.018670	0.256656	0.578092
H278	H	1.151778	0.162783	0.549963
H279	H	1.137842	0.225346	0.573039
O280	O	1.183770	0.212863	-0.059395
C281	C	1.228791	0.244500	-0.093178
H282	H	1.189397	0.319091	-0.129159
H283	H	1.277400	0.220939	-0.048159
C284	C	1.313907	0.118510	-0.098100
C285	C	1.265521	0.210125	-0.142297
H286	H	1.336567	0.097303	-0.128397
H287	H	1.283578	0.097193	-0.075337
H288	H	1.354408	0.098888	-0.060587
H289	H	1.225016	0.229745	-0.179804
H290	H	1.295845	0.231444	-0.165068
O291	O	0.587662	0.061100	-0.140016
C292	C	0.536343	0.153100	-0.186984
H293	H	0.539088	0.182850	-0.156895
H294	H	0.554657	0.177251	-0.240073
C295	C	0.448464	0.144244	-0.244174
C296	C	0.451831	0.180783	-0.207216
H297	H	0.396334	0.161321	-0.256658
H298	H	0.483040	0.082262	-0.212533
H299	H	0.463731	0.164374	-0.288411
H300	H	0.436575	0.160644	-0.162976
H301	H	0.417251	0.242763	-0.238850
O302	O	0.904239	0.404162	0.306201
C303	C	0.911991	0.361679	0.383326
H304	H	0.971908	0.296023	0.414863
H305	H	0.906495	0.404167	0.402696
C306	C	0.773355	0.427210	0.360069
C307	C	0.846944	0.346567	0.398804
H308	H	0.733229	0.417891	0.369618
H309	H	0.768131	0.455835	0.308109
H310	H	0.768786	0.462608	0.376216
H311	H	0.851516	0.311175	0.382650
H312	H	0.852167	0.317936	0.450762
O313	O	1.066186	0.404410	0.024798
C314	C	0.990924	0.468513	0.020104
H315	H	0.946406	0.496876	-0.031258
H316	H	0.973815	0.437504	0.072224
C317	C	1.046640	0.507277	0.077037
C318	C	0.991962	0.542117	0.013949
H319	H	1.047280	0.552678	0.073243
H320	H	1.097346	0.464087	0.080202
H321	H	1.032376	0.481436	0.120464
H322	H	1.006233	0.567947	-0.029475
H323	H	0.941258	0.585313	0.010777
H324	H	0.366907	1.072992	0.053700
O325	O	0.621197	0.276447	0.291671
C326	C	0.629999	0.212334	0.363879
H327	H	0.685522	0.184033	0.404036
H328	H	0.576870	0.243315	0.383049
C329	C	0.568190	0.173440	0.313296
C330	C	0.636387	0.138675	0.362616
H331	H	0.572126	0.128004	0.312516
H332	H	0.562256	0.216636	0.264647
H333	H	0.523922	0.199257	0.329276
H334	H	0.680651	0.112869	0.346629
H335	H	0.642328	0.095472	0.411262
H336	H	0.413983	0.677357	-0.122492
H337	H	0.231335	1.131808	-0.465981
H338	H	0.627810	1.073027	-0.499084
H339	H	0.339461	0.955466	-0.223101
H340	H	0.292162	0.677348	-0.116380
H341	H	0.217662	1.073005	-0.334518
H342	H	0.807734	0.179892	0.061388
O343	O	0.817012	0.677320	-0.314031
C344	C	0.868329	0.677341	-0.359104
H345	H	0.865552	0.649784	-0.391374
H346	H	0.850037	0.747171	-0.399996
C347	C	0.956254	0.654105	-0.269877
C348	C	0.952849	0.620252	-0.309506
H349	H	1.008390	0.618893	-0.239285
H350	H	0.921680	0.654094	-0.239511
H351	H	0.941008	0.712295	-0.303961
H352	H	0.968086	0.562067	-0.275423
H353	H	0.987428	0.620252	-0.339866
H354	H	0.807798	0.677351	-0.436131
H355	H	0.231380	1.131791	-0.011492
H356	H	-0.009425	0.677360	-0.151373
H357	H	0.807790	0.677353	-0.762243
O358	O	0.817007	0.677312	-0.640131
C359	C	0.868326	0.677333	-0.685202
H360	H	0.865551	0.649778	-0.717474
H361	H	0.850036	0.747162	-0.726092
C362	C	0.956249	0.654092	-0.595969
C363	C	0.952845	0.620242	-0.635601
H364	H	1.008384	0.618879	-0.565374
H365	H	0.921674	0.654081	-0.565605
H366	H	0.941004	0.712282	-0.630051
H367	H	0.968081	0.562057	-0.601519
H368	H	0.987426	0.620241	-0.665958
H369	H	0.596769	0.677343	-0.751662
H370	H	0.596781	0.677341	-0.308002
H371	H	0.776820	0.399227	0.311278
H372	H	0.702174	0.222926	0.419377
