data_functionalizedCrystal
_audit_creation_method	'MofGen! by Chris Wilmer'
_symmetry_space_group_name_H-M	'P1'
_symmetry_Int_Tables_number	1
_symmetry_cell_setting	triclinic
loop_
_symmetry_equiv_pos_as_xyz
  x,y,z
_cell_length_a	18.050590
_cell_length_b	12.645330
_cell_length_c	12.645323
_cell_angle_alpha	89.972994
_cell_angle_beta	89.993192
_cell_angle_gamma	90.001812
loop_
_atom_site_label
_atom_site_type_symbol
_atom_site_fract_x
_atom_site_fract_y
_atom_site_fract_z
Zn1	Zn	1.135428	-0.422338	-0.598982
Zn2	Zn	1.468762	-0.089004	-0.265648
Zn3	Zn	1.802095	0.244329	0.067685
Zn4	Zn	1.135356	-0.599626	-0.421715
Zn5	Zn	1.468690	-0.266292	-0.088382
Zn6	Zn	1.802023	0.067041	0.244952
Zn7	Zn	1.011231	-0.422343	-0.421775
Zn8	Zn	1.344564	-0.089010	-0.088442
Zn9	Zn	1.677898	0.244324	0.244892
Zn10	Zn	1.011229	-0.599526	-0.598980
Zn11	Zn	1.344563	-0.266193	-0.265646
Zn12	Zn	1.677896	0.067141	0.067687
O13	O	1.073311	-0.510958	-0.510363
O14	O	1.406645	-0.177625	-0.177029
O15	O	1.739978	0.155709	0.156304
O16	O	1.239343	-0.445895	-0.575443
O17	O	1.572677	-0.112561	-0.242109
O18	O	1.906010	0.220772	0.091224
O19	O	1.118862	-0.576153	-0.273376
O20	O	1.452195	-0.242819	0.059958
O21	O	1.785528	0.090514	0.393291
O22	O	1.027737	-0.273995	-0.445308
O23	O	1.361070	0.059338	-0.111974
O24	O	1.694404	0.392672	0.221359
O25	O	1.239290	-0.576147	-0.445206
O26	O	1.572624	-0.242814	-0.111872
O27	O	1.905957	0.090519	0.221461
O28	O	1.118984	-0.273991	-0.575501
O29	O	1.452318	0.059342	-0.242167
O30	O	1.785651	0.392676	0.091166
O31	O	1.027667	-0.445904	-0.273420
O32	O	1.361001	-0.112571	0.059914
O33	O	1.694334	0.220763	0.393247
O34	O	0.907306	-0.445807	-0.445306
O35	O	1.240640	-0.112474	-0.111973
O36	O	1.573973	0.220859	0.221361
O37	O	1.027734	-0.575978	-0.747327
O38	O	1.361067	-0.242644	-0.413994
O39	O	1.694401	0.090689	-0.080660
O40	O	0.907305	-0.575983	-0.575497
O41	O	1.240638	-0.242650	-0.242164
O42	O	1.573972	0.090684	0.091169
O43	O	1.118982	-0.445798	-0.747329
O44	O	1.452316	-0.112465	-0.413995
O45	O	1.785649	0.220869	-0.080662
O46	O	1.118860	-0.747960	-0.445204
O47	O	1.452193	-0.414626	-0.111870
O48	O	1.785526	-0.081293	0.221463
O49	O	1.027664	-0.747886	-0.575439
O50	O	1.360997	-0.414553	-0.242106
O51	O	1.694331	-0.081220	0.091228
C52	C	1.073274	-0.786388	-0.510338
C53	C	1.406607	-0.453054	-0.177004
C54	C	1.739941	-0.119721	0.156329
C55	C	1.073326	-0.904218	-0.510362
C56	C	1.406659	-0.570884	-0.177029
C57	C	1.739993	-0.237551	0.156304
C58	C	0.880359	-0.510886	-0.510408
C59	C	1.213692	-0.177552	-0.177075
C60	C	1.547026	0.155781	0.156258
C61	C	0.797813	-0.510880	-0.510453
C62	C	1.131147	-0.177547	-0.177120
C63	C	1.464480	0.155786	0.156214
C64	C	1.130605	-1.071784	-0.428265
C65	C	1.463939	-0.738450	-0.094932
C66	C	1.797272	-0.405117	0.238402
C67	C	1.130792	-0.949223	-0.428466
C68	C	1.464125	-0.615890	-0.095133
C69	C	1.797458	-0.282557	0.238201
C70	C	1.094553	-0.948606	-0.622099
C71	C	1.427886	-0.615272	-0.288766
C72	C	1.761219	-0.281939	0.044568
C73	C	1.095007	-1.071204	-0.621663
C74	C	1.428341	-0.737871	-0.288330
C75	C	1.761674	-0.404537	0.045003
C76	C	0.994798	-1.071524	-0.481825
C77	C	1.328131	-0.738191	-0.148491
C78	C	1.661465	-0.404857	0.184842
C79	C	0.995174	-0.948920	-0.479318
C80	C	1.328508	-0.615586	-0.145985
C81	C	1.661841	-0.282253	0.187348
C82	C	0.598384	-0.581872	-0.581083
C83	C	0.931717	-0.248539	-0.247750
C84	C	1.265050	0.084794	0.085584
C85	C	0.548974	-0.485209	-0.607165
C86	C	0.882308	-0.151876	-0.273832
C87	C	1.215641	0.181457	0.059501
C88	C	0.646683	-0.510939	-0.510401
C89	C	0.980016	-0.177606	-0.177068
C90	C	1.313350	0.155727	0.156265
C91	C	0.549010	-0.607658	-0.484318
C92	C	0.882344	-0.274325	-0.150985
C93	C	1.215677	0.059009	0.182349
C94	C	0.500698	-0.511005	-0.510353
C95	C	0.834031	-0.177672	-0.177020
C96	C	1.167365	0.155662	0.156313
C97	C	0.598361	-0.414225	-0.536534
C98	C	0.931695	-0.080892	-0.203201
C99	C	1.265028	0.252442	0.130133
C100	C	0.598401	-0.536739	-0.413642
C101	C	0.931735	-0.203405	-0.080309
C102	C	1.265068	0.129928	0.253025
C103	C	0.549015	-0.440009	-0.439687
C104	C	0.882348	-0.106675	-0.106354
C105	C	1.215681	0.226658	0.226979
C106	C	0.730781	-0.510903	-0.510432
C107	C	1.064115	-0.177570	-0.177098
C108	C	1.397448	0.155764	0.156235
C109	C	0.416601	-0.511031	-0.510323
C110	C	0.749935	-0.177697	-0.176989
C111	C	1.083268	0.155636	0.156344
C112	C	1.267017	-0.511032	-0.510318
C113	C	1.600350	-0.177698	-0.176984
C114	C	1.933684	0.155635	0.156349
C115	C	1.349563	-0.511063	-0.510298
C116	C	1.682896	-0.177729	-0.176965
C117	C	2.016229	0.155604	0.156368
C118	C	1.073366	-0.510876	-0.786868
C119	C	1.406699	-0.177543	-0.453535
C120	C	1.740033	0.155791	-0.120202
C121	C	1.073389	-0.510841	-0.904698
C122	C	1.406723	-0.177508	-0.571365
C123	C	1.740056	0.155825	-0.238032
C124	C	1.073369	-0.234453	-0.510411
C125	C	1.406702	0.098881	-0.177078
C126	C	1.740036	0.432214	0.156256
C127	C	1.073393	-0.116623	-0.510432
C128	C	1.406727	0.216711	-0.177098
C129	C	1.740060	0.550044	0.156235
C130	C	1.015808	-0.592351	-1.072262
C131	C	1.349141	-0.259018	-0.738928
C132	C	1.682474	0.074316	-0.405595
C133	C	1.015959	-0.592755	-0.949702
C134	C	1.349292	-0.259421	-0.616368
C135	C	1.682625	0.073912	-0.283035
C136	C	1.151642	-0.541181	-0.949186
C137	C	1.484976	-0.207847	-0.615853
C138	C	1.818309	0.125486	-0.282519
C139	C	1.151326	-0.541692	-1.071784
C140	C	1.484660	-0.208359	-0.738451
C141	C	1.817993	0.124975	-0.405118
C142	C	1.053458	-0.398536	-1.071908
C143	C	1.386791	-0.065203	-0.738575
C144	C	1.720124	0.268131	-0.405242
C145	C	1.051712	-0.399208	-0.949302
C146	C	1.385045	-0.065875	-0.615969
C147	C	1.718379	0.267458	-0.282636
C148	C	1.073300	-0.510963	-0.234933
C149	C	1.406633	-0.177630	0.098400
C150	C	1.739966	0.155703	0.431734
C151	C	1.073420	-0.510700	-0.117103
C152	C	1.406753	-0.177366	0.216230
C153	C	1.740087	0.155967	0.549563
H154	H	1.117511	-0.919217	-0.345614
H155	H	1.450844	-0.585883	-0.012281
H156	H	1.784177	-0.252550	0.321052
Cl157	Cl	0.631923	-0.570422	-0.287354
Cl158	Cl	0.965256	-0.237088	0.045980
Cl159	Cl	1.298589	0.096245	0.379313
H160	H	0.994125	-0.376328	-0.920227
H161	H	1.327458	-0.042995	-0.586893
H162	H	1.660791	0.290338	-0.253560
H163	H	0.957932	-0.573767	-0.919623
H164	H	1.291265	-0.240433	-0.586290
H165	H	1.624598	0.092900	-0.252957
H166	H	1.090608	-0.335155	-0.918668
H167	H	1.423941	-0.001822	-0.585335
H168	H	1.757275	0.331511	-0.252001
Cl169	Cl	1.032172	-0.903606	-0.719152
Cl170	Cl	1.365505	-0.570272	-0.385818
Cl171	Cl	1.698838	-0.236939	-0.052485
Cl172	Cl	0.515540	-0.733897	-0.450286
Cl173	Cl	0.848873	-0.400563	-0.116952
Cl174	Cl	1.182206	-0.067230	0.216381
Cl175	Cl	0.515754	-0.347337	-0.347370
Cl176	Cl	0.849087	-0.014004	-0.014037
Cl177	Cl	1.182421	0.319330	0.319297
Cl178	Cl	1.035911	-0.719914	-1.119907
Cl179	Cl	1.369245	-0.386581	-0.786574
Cl180	Cl	1.702578	-0.053248	-0.453240
H181	H	0.979169	-0.919919	-0.397090
H182	H	1.312502	-0.586585	-0.063757
H183	H	1.645836	-0.253252	0.269577
Cl184	Cl	0.631854	-0.674327	-0.673465
Cl185	Cl	0.965188	-0.340994	-0.340132
Cl186	Cl	1.298521	-0.007661	-0.006799
H187	H	1.151354	-0.917833	-0.646739
H188	H	1.484687	-0.584500	-0.313406
H189	H	1.818020	-0.251166	0.019928
Cl190	Cl	1.177447	-0.668285	-1.115947
Cl191	Cl	1.510780	-0.334951	-0.782614
Cl192	Cl	1.844114	-0.001618	-0.449281
Cl193	Cl	0.925948	-0.563314	-1.117792
Cl194	Cl	1.259281	-0.229981	-0.784459
Cl195	Cl	1.592614	0.103353	-0.451126
Cl196	Cl	0.966890	-0.355846	-1.119651
Cl197	Cl	1.300223	-0.022512	-0.786318
Cl198	Cl	1.633556	0.310821	-0.452985
Cl199	Cl	1.178215	-0.666448	-0.901795
Cl200	Cl	1.511549	-0.333115	-0.568461
Cl201	Cl	1.844882	0.000219	-0.235128
H202	H	0.950247	-0.918293	-0.534779
H203	H	1.283581	-0.584960	-0.201445
H204	H	1.616914	-0.251627	0.131888
Cl205	Cl	0.928983	-1.116294	-0.574217
Cl206	Cl	1.262317	-0.782961	-0.240884
Cl207	Cl	1.595650	-0.449628	0.092450
H208	H	1.189005	-0.919831	-0.447385
H209	H	1.522338	-0.586498	-0.114052
H210	H	1.855671	-0.253164	0.219281
Cl211	Cl	0.964995	-1.119391	-0.358222
Cl212	Cl	1.298329	-0.786057	-0.024888
Cl213	Cl	1.631662	-0.452724	0.308445
H214	H	0.527264	-0.463409	-0.688972
H215	H	0.860597	-0.130076	-0.355639
H216	H	1.193930	0.203258	-0.022306
Cl217	Cl	1.118242	-0.304613	-1.116679
Cl218	Cl	1.451576	0.028721	-0.783346
Cl219	Cl	1.784909	0.362054	-0.450013
H220	H	1.029137	-0.675906	-0.920379
H221	H	1.362470	-0.342573	-0.587046
H222	H	1.695804	-0.009239	-0.253713
Cl223	Cl	1.220002	-1.119245	-0.457146
Cl224	Cl	1.553335	-0.785912	-0.123813
Cl225	Cl	1.886668	-0.452579	0.209521
Cl226	Cl	0.631686	-0.287947	-0.570710
Cl227	Cl	0.965019	0.045387	-0.237376
Cl228	Cl	1.298352	0.378720	0.095957
H229	H	1.195708	-0.484804	-1.101448
H230	H	1.529041	-0.151470	-0.768114
H231	H	1.862375	0.181863	-0.434781
Cl232	Cl	1.219697	-0.452270	-0.904184
Cl233	Cl	1.553030	-0.118937	-0.570851
Cl234	Cl	1.886364	0.214396	-0.237518
Cl235	Cl	1.183705	-1.115254	-0.659077
Cl236	Cl	1.517038	-0.781921	-0.325744
Cl237	Cl	1.850372	-0.448587	0.007590
H238	H	1.055162	-1.100861	-0.684991
H239	H	1.388496	-0.767527	-0.351658
H240	H	1.721829	-0.434194	-0.018325
Cl241	Cl	1.110364	-1.117411	-0.299970
Cl242	Cl	1.443697	-0.784078	0.033364
Cl243	Cl	1.777030	-0.450745	0.366697
