data_functionalizedCrystal
_audit_creation_method	'MofGen! by Chris Wilmer'
_symmetry_space_group_name_H-M	'P1'
_symmetry_Int_Tables_number	1
_symmetry_cell_setting	triclinic
loop_
_symmetry_equiv_pos_as_xyz
  x,y,z
_cell_length_a	15.944551
_cell_length_b	15.944551
_cell_length_c	13.930277
_cell_angle_alpha	90.010789
_cell_angle_beta	89.996314
_cell_angle_gamma	83.498738
loop_
_atom_site_label
_atom_site_type_symbol
_atom_site_fract_x
_atom_site_fract_y
_atom_site_fract_z
O1	O	0.108320	1.114528	0.079926
O2	O	0.121676	0.869978	0.079908
O3	O	-0.007277	0.998931	0.079909
O4	O	0.237273	0.985575	0.079925
O5	O	-0.007257	0.998912	-0.079753
O6	O	0.121696	0.869959	-0.079754
O7	O	0.108340	1.114509	-0.079736
Zn8	Zn	0.115021	0.992231	-0.105095
Zn9	Zn	0.114995	0.992256	0.105267
O10	O	0.237293	0.985556	-0.079737
C11	C	-0.038561	0.998367	0.000078
C12	C	-0.131807	0.996705	0.000077
C13	C	0.121132	0.838675	0.000075
C14	C	0.119470	0.745429	0.000067
C15	C	0.108885	1.145813	0.000100
C16	C	0.110547	1.239059	0.000113
C17	C	-0.346663	0.912801	0.000084
C18	C	-0.407671	0.951754	-0.078636
C19	C	-0.302533	0.993698	0.000084
C20	C	-0.407674	0.951792	0.078778
C21	C	-0.467445	0.990787	0.000095
C22	C	-0.362312	1.032673	-0.078701
C23	C	-0.362308	1.032700	0.078784
C24	C	-0.423298	1.071711	0.000045
C25	C	-0.207530	0.995372	0.000077
C26	C	-0.562446	0.989119	0.000096
C27	C	0.268577	0.986120	0.000097
C28	C	0.361823	0.987782	0.000104
C29	C	0.194451	1.453915	0.000097
C30	C	0.155479	1.514945	0.078815
C31	C	0.113554	1.409784	0.000100
C32	C	0.155479	1.514904	-0.078599
C33	C	0.116465	1.574697	0.000082
C34	C	0.074560	1.469586	0.078883
C35	C	0.074571	1.469539	-0.078602
C36	C	0.035540	1.530550	0.000135
C37	C	0.111880	1.314782	0.000110
C38	C	0.118133	1.669698	0.000078
N39	N	0.115038	0.992220	-0.248661
C40	C	0.165957	1.043211	-0.700912
C41	C	0.063999	0.941327	-0.700917
C42	C	0.064013	0.941314	-0.600421
C43	C	0.114998	0.992252	-0.550166
C44	C	0.165970	1.043202	-0.600407
C45	C	0.013035	0.890372	-0.550173
C46	C	0.013046	0.890357	-0.449671
C47	C	0.064037	0.941291	-0.399414
C48	C	0.115011	0.992242	-0.449661
C49	C	0.165997	1.043180	-0.399406
C50	C	0.216977	1.094128	-0.449652
C51	C	0.216961	1.094135	-0.550150
C52	C	0.064053	0.941283	-0.298916
C53	C	0.166010	1.043171	-0.298901
N54	N	0.114971	0.992274	0.248833
H55	H	-0.427771	0.917530	-0.145193
N56	N	0.011997	0.889247	-0.247577
N57	N	0.012019	0.889240	-0.157846
H58	H	-0.024746	0.852486	-0.121587
N59	N	0.218077	1.095218	-0.247568
N60	N	0.185312	1.150747	-0.191471
H61	H	0.222082	1.187507	-0.155216
H62	H	-0.313356	0.845652	0.000000
H63	H	0.189689	1.535067	0.145368
N64	N	-0.337245	1.075543	-0.162295
N65	N	-0.391477	1.104839	-0.221828
H66	H	-0.373773	1.135113	-0.280868
H67	H	0.040366	1.449605	0.145510
H68	H	-0.456457	1.138919	0.000005
H69	H	-0.342186	1.066894	0.145344
H70	H	-0.028464	0.848872	-0.408770
N71	N	0.198415	1.540106	-0.162089
N72	N	0.206016	1.616346	-0.175819
H73	H	0.236343	1.634143	-0.234780
H74	H	0.022483	0.899862	-0.741841
H75	H	0.258486	1.135604	-0.408721
N76	N	-0.039050	0.838362	-0.601520
N77	N	-0.039053	0.838382	-0.691251
H78	H	-0.075842	0.801650	-0.727520
N79	N	-0.432884	0.908851	0.162254
N80	N	-0.405113	0.833357	0.176252
H81	H	-0.422916	0.803023	0.235203
H82	H	0.261600	1.420609	0.000180
N83	N	0.031678	1.444264	-0.162084
N84	N	-0.043434	1.472980	-0.176900
H85	H	-0.073723	1.455127	-0.235866
N86	N	-0.048772	1.572142	0.000190
N87	N	-0.097622	1.560440	0.067839
H88	H	-0.157167	1.589815	0.067882
N89	N	0.269023	1.146171	-0.601489
N90	N	0.268997	1.146175	-0.691220
H91	H	0.305762	1.182927	-0.727483
N92	N	0.218015	1.095265	-0.752229
N93	N	0.208006	1.173538	-0.740979
H94	H	0.244772	1.210304	-0.777222
