data_functionalizedCrystal
_audit_creation_method	'MofGen! by Chris Wilmer'
_symmetry_space_group_name_H-M	'P1'
_symmetry_Int_Tables_number	1
_symmetry_cell_setting	triclinic
loop_
_symmetry_equiv_pos_as_xyz
  x,y,z
_cell_length_a	15.944551
_cell_length_b	15.021413
_cell_length_c	15.944499
_cell_angle_alpha	89.992737
_cell_angle_beta	83.488174
_cell_angle_gamma	90.002826
loop_
_atom_site_label
_atom_site_type_symbol
_atom_site_fract_x
_atom_site_fract_y
_atom_site_fract_z
O1	O	1.114509	0.073933	0.108323
O2	O	0.869957	0.073954	0.121680
O3	O	0.998933	0.073944	-0.007276
O4	O	0.985532	0.073942	0.237280
O5	O	0.998913	-0.074120	-0.007258
O6	O	0.869936	-0.074110	0.121698
O7	O	1.114488	-0.074132	0.108342
Zn8	Zn	0.992209	-0.097629	0.115023
Zn9	Zn	0.992236	0.097452	0.114999
O10	O	0.985511	-0.074122	0.237298
C11	C	0.838653	-0.000075	0.121135
C12	C	0.745407	-0.000067	0.119472
N13	N	0.992197	-0.230767	0.115039
C14	C	0.530566	-0.000083	0.035566
C15	C	0.469548	0.072920	0.074520
C16	C	0.574681	-0.000077	0.116465
C17	C	0.469550	-0.073060	0.074558
C18	C	0.409769	-0.000091	0.113554
C19	C	0.514892	0.072986	0.155442
C20	C	0.514901	-0.073059	0.155468
C21	C	0.453901	-0.000038	0.194481
C22	C	0.669683	-0.000068	0.118140
C23	C	0.314768	-0.000094	0.111886
C24	C	0.932549	-0.470446	0.174640
C25	C	1.008446	-0.529787	0.190948
C26	C	0.992218	-0.412374	0.115018
C27	C	0.916341	-0.529774	0.098729
C28	C	0.992232	-0.587798	0.115000
C29	C	1.068154	-0.470409	0.131363
C30	C	0.975999	-0.470391	0.039112
C31	C	1.051951	-0.529705	0.055387
C32	C	0.992209	-0.311316	0.115031
C33	C	0.992250	-0.688853	0.114986
C34	C	1.145792	-0.000100	0.108887
C35	C	1.239038	-0.000103	0.110550
C36	C	0.998375	-0.000086	-0.038562
C37	C	0.996730	-0.000079	-0.131810
N38	N	0.992255	0.230589	0.114976
C39	C	1.071662	-0.000090	-0.423346
C40	C	1.032700	-0.073093	-0.362312
C41	C	0.990753	-0.000088	-0.467446
C42	C	1.032699	0.072886	-0.362336
C43	C	0.993694	-0.000082	-0.302538
C44	C	0.951769	-0.073152	-0.407640
C45	C	0.951779	0.072893	-0.407671
C46	C	0.912758	-0.000128	-0.346654
C47	C	0.989062	-0.000093	-0.562446
C48	C	0.995379	-0.000084	-0.207539
C49	C	0.986070	-0.000090	0.268583
C50	C	0.987715	-0.000091	0.361832
H51	H	0.449453	0.134639	0.040296
H52	H	1.132341	-0.444441	0.145209
H53	H	1.138808	-0.000166	-0.456676
O54	O	0.414415	-0.000112	0.274695
C55	C	0.438557	-0.076414	0.317535
H56	H	0.501868	-0.101610	0.286037
H57	H	0.444562	-0.058800	0.386142
H58	H	0.388765	-0.130531	0.315070
O59	O	1.112107	-0.560600	-0.004867
C60	C	1.073715	-0.612257	-0.063724
H61	H	1.004619	-0.592199	-0.062349
H62	H	1.107616	-0.600614	-0.129676
H63	H	1.077866	-0.685727	-0.046740
O64	O	0.959444	-0.439275	-0.037400
C65	C	0.879348	-0.469488	-0.054326
H66	H	0.839471	-0.486178	0.007600
H67	H	0.846771	-0.415158	-0.088642
H68	H	0.887034	-0.531555	-0.095622
H69	H	0.852168	-0.555853	0.084961
H70	H	1.066914	-0.134816	-0.342213
O71	O	0.538887	-0.146781	0.196140
C72	C	0.516033	-0.223604	0.153289
H73	H	0.509281	-0.206113	0.084804
H74	H	0.566955	-0.276579	0.155347
H75	H	0.453386	-0.250243	0.185063
O76	O	0.911021	-0.146833	-0.431609
C77	C	0.909942	-0.145952	-0.519904
H78	H	0.963867	-0.102694	-0.550124
H79	H	0.917864	-0.216734	-0.545354
H80	H	0.847225	-0.117717	-0.535634
O81	O	0.832574	-0.000325	-0.307097
C82	C	0.790227	-0.077382	-0.330208
H83	H	0.838442	-0.130939	-0.352128
H84	H	0.746891	-0.102860	-0.273501
H85	H	0.751108	-0.060657	-0.383681
H86	H	0.917594	0.134619	-0.427791
O87	O	1.073666	0.146420	-0.338364
C88	C	1.143693	0.120207	-0.297634
H89	H	1.163601	0.049989	-0.318438
H90	H	1.198304	0.168145	-0.315175
H91	H	1.125803	0.121290	-0.226357
O92	O	0.570424	0.000117	-0.044498
C93	C	0.621854	0.076431	-0.056656
H94	H	0.638054	0.101510	0.007037
H95	H	0.682458	0.058879	-0.098353
H96	H	0.586640	0.130611	-0.088482
O97	O	0.538881	0.146673	0.196163
C98	C	0.627178	0.145798	0.197223
H99	H	0.657380	0.102534	0.143307
H100	H	0.652637	0.216581	0.189274
H101	H	0.642917	0.117573	0.259945
H102	H	0.882139	-0.444426	0.225102
O103	O	0.445697	-0.146663	0.033620
C104	C	0.485105	-0.146368	-0.050136
H105	H	0.544512	-0.103632	-0.054167
H106	H	0.502806	-0.217365	-0.070265
H107	H	0.439865	-0.117870	-0.093702
O108	O	1.024686	-0.560878	0.267575
C109	C	0.961636	-0.530673	0.330267
H110	H	0.902044	-0.514019	0.300145
H111	H	0.947001	-0.584994	0.379701
H112	H	0.984876	-0.468586	0.361651
