data_functionalizedCrystal
_audit_creation_method	'MofGen! by Chris Wilmer'
_symmetry_space_group_name_H-M	'P1'
_symmetry_Int_Tables_number	1
_symmetry_cell_setting	triclinic
loop_
_symmetry_equiv_pos_as_xyz
  x,y,z
_cell_length_a	9.065215
_cell_length_b	9.065218
_cell_length_c	8.140239
_cell_angle_alpha	90.002028
_cell_angle_beta	90.002285
_cell_angle_gamma	85.015291
loop_
_atom_site_label
_atom_site_type_symbol
_atom_site_fract_x
_atom_site_fract_y
_atom_site_fract_z
O1	O	1.960400	0.216334	0.136592
O2	O	2.293734	0.549667	0.469925
O3	O	2.627067	0.883001	0.803259
O4	O	1.531115	0.234085	0.136598
O5	O	1.864448	0.567418	0.469932
O6	O	2.197782	0.900752	0.803265
O7	O	1.754631	0.010567	0.136590
O8	O	2.087964	0.343900	0.469924
O9	O	2.421298	0.677234	0.803257
O10	O	1.736884	0.439852	0.136600
O11	O	2.070218	0.773185	0.469933
O12	O	2.403551	1.106519	0.803267
O13	O	1.754618	0.010564	-0.136637
O14	O	2.087952	0.343898	0.196697
O15	O	2.421285	0.677231	0.530030
O16	O	1.531103	0.234082	-0.136629
O17	O	1.864436	0.567416	0.196704
O18	O	2.197769	0.900749	0.530038
O19	O	1.960388	0.216331	-0.136635
O20	O	2.293721	0.549665	0.196698
O21	O	2.627055	0.882998	0.530032
Zn22	Zn	1.745743	0.225206	-0.180013
Zn23	Zn	2.079077	0.558540	0.153321
Zn24	Zn	2.412410	0.891873	0.486654
Zn25	Zn	1.745760	0.225210	0.179976
Zn26	Zn	2.079093	0.558543	0.513309
Zn27	Zn	2.412426	0.891877	0.846642
O28	O	1.736872	0.439849	-0.136627
O29	O	2.070205	0.773183	0.196706
O30	O	2.403539	1.106516	0.530040
C31	C	1.476122	0.232379	-0.000014
C32	C	1.809455	0.565712	0.333319
C33	C	2.142789	0.899045	0.666652
C34	C	1.312279	0.227281	-0.000012
C35	C	1.645612	0.560614	0.333321
C36	C	1.978946	0.893947	0.666655
C37	C	2.015381	0.218038	-0.000019
C38	C	2.348714	0.551371	0.333315
C39	C	2.682047	0.884704	0.666648
C40	C	2.179224	0.223136	-0.000010
C41	C	2.512557	0.556469	0.333323
C42	C	2.845891	0.889802	0.666656
C43	C	1.752919	-0.044421	-0.000021
C44	C	2.086252	0.288913	0.333312
C45	C	2.419586	0.622246	0.666646
C46	C	1.747819	-0.208264	-0.000014
C47	C	2.081153	0.125070	0.333319
C48	C	2.414486	0.458403	0.666653
C49	C	1.738584	0.494837	-0.000012
C50	C	2.071917	0.828171	0.333321
C51	C	2.405250	1.161504	0.666654
C52	C	1.743683	0.658680	-0.000008
C53	C	2.077017	0.992014	0.333325
C54	C	2.410350	1.325347	0.666658
N55	N	1.745743	0.225203	-0.425695
N56	N	2.079076	0.558537	-0.092362
N57	N	2.412409	0.891870	0.240971
N58	N	1.745772	0.225202	0.425658
N59	N	2.079105	0.558535	0.758992
N60	N	2.412438	0.891868	1.092325
