data_functionalizedCrystal
_audit_creation_method	'MofGen! by Chris Wilmer'
_symmetry_space_group_name_H-M	'P1'
_symmetry_Int_Tables_number	1
_symmetry_cell_setting	triclinic
loop_
_symmetry_equiv_pos_as_xyz
  x,y,z
_cell_length_a	10.654551
_cell_length_b	10.654550
_cell_length_c	11.295483
_cell_angle_alpha	94.136004
_cell_angle_beta	85.855475
_cell_angle_gamma	84.485087
loop_
_atom_site_label
_atom_site_type_symbol
_atom_site_fract_x
_atom_site_fract_y
_atom_site_fract_z
O1	O	1.676225	0.168021	-0.099006
O2	O	1.310747	0.184826	-0.099012
O3	O	1.501889	-0.006315	-0.099005
O4	O	1.485083	0.359162	-0.099014
O5	O	1.485100	0.010447	0.099045
O6	O	1.293958	0.201588	0.099038
O7	O	1.659436	0.184784	0.099044
Cu8	Cu	1.475164	0.194716	0.117124
Cu9	Cu	1.495019	0.174893	-0.117093
O10	O	1.468295	0.375925	0.099036
C11	C	1.255555	0.191973	0.000012
C12	C	1.116112	0.188280	0.000010
C13	C	0.910428	0.192200	0.107969
C14	C	1.041449	0.195680	0.107969
C15	C	1.059747	0.177412	-0.107956
C16	C	0.928728	0.173940	-0.107955
C17	C	0.835773	0.199588	0.215935
C18	C	0.892129	0.210458	0.323902
C19	C	1.023149	0.213939	0.323902
C20	C	1.097814	0.206549	0.215936
C21	C	1.492261	-0.044732	0.000019
C22	C	1.488569	-0.184176	0.000015
C23	C	1.601110	-0.263661	0.000020
C24	C	1.597634	-0.394682	0.000012
C25	C	1.369066	-0.366721	-0.000002
C26	C	1.372544	-0.235702	-0.000002
C27	C	1.717135	-0.212134	0.000037
C28	C	1.829685	-0.291620	0.000044
C29	C	1.826209	-0.422642	0.000035
C30	C	1.710183	-0.474177	0.000020
C31	C	1.714629	0.177636	0.000017
C32	C	1.854072	0.181328	0.000011
C33	C	1.477923	0.414342	0.000010
C34	C	1.481615	0.553784	0.000007
N35	N	1.461209	0.208658	0.281860
N36	N	1.508984	0.160941	-0.281829
C37	C	1.609442	0.060509	0.531155
C38	C	1.598905	0.071054	0.655819
C39	C	1.429592	0.240287	0.655852
C40	C	1.440129	0.229742	0.531189
C41	C	1.530059	0.139851	0.468845
C42	C	1.540601	0.129313	0.344179
C43	C	1.371283	0.298539	0.344215
C44	C	1.360745	0.309084	0.468879
H45	H	1.120549	0.171394	-0.195857
Br46	Br	0.852235	0.159198	-0.254472
Br47	Br	1.307534	0.362257	0.740473
H48	H	1.204497	0.209398	0.215945
Br49	Br	1.219808	-0.127822	-0.000014
H50	H	1.306647	0.363148	0.293468
H51	H	0.729089	0.196752	0.215947
Br52	Br	0.790801	0.220510	0.470420
H53	H	1.719978	-0.105451	0.000048
H54	H	1.924152	-0.249653	0.000026
H55	H	1.917854	-0.487357	0.000029
H56	H	1.069028	0.222803	0.411813
H57	H	1.707363	-0.580866	0.000001
Br58	Br	1.238698	0.431067	0.553496
H59	H	1.274603	-0.408692	-0.000013
H60	H	1.613829	0.056123	0.293420
Br61	Br	1.731503	-0.061464	0.446543
Br62	Br	1.706639	-0.036635	0.740381
