data_functionalizedCrystal
_audit_creation_method	'MofGen! by Chris Wilmer'
_symmetry_space_group_name_H-M	'P1'
_symmetry_Int_Tables_number	1
_symmetry_cell_setting	triclinic
loop_
_symmetry_equiv_pos_as_xyz
  x,y,z
_cell_length_a	11.169416
_cell_length_b	17.639874
_cell_length_c	11.169409
_cell_angle_alpha	101.172648
_cell_angle_beta	90.030874
_cell_angle_gamma	78.767693
loop_
_atom_site_label
_atom_site_type_symbol
_atom_site_fract_x
_atom_site_fract_y
_atom_site_fract_z
Zn1	Zn	-0.106515	-1.208360	0.308344
Zn2	Zn	-0.307278	-1.208287	0.107688
Zn3	Zn	-0.147188	-1.076185	0.148173
Zn4	Zn	-0.347756	-1.076190	0.348804
O5	O	-0.227184	-1.142255	0.228252
O6	O	-0.099185	-1.318948	0.247850
O7	O	-0.286123	-1.190731	-0.054881
O8	O	0.026166	-1.093747	0.169430
O9	O	-0.246685	-1.318895	0.100430
O10	O	0.056048	-1.190855	0.287107
O11	O	-0.168506	-1.093676	-0.025137
O12	O	-0.207755	-0.965588	0.208663
O13	O	-0.315673	-1.093755	0.511377
O14	O	-0.355112	-0.965591	0.356066
O15	O	-0.138435	-1.190860	0.481651
O16	O	-0.480606	-1.190735	0.139662
O17	O	-0.510345	-1.093685	0.316809
C18	C	-0.539019	-1.142224	0.228253
C19	C	-0.672400	-1.142283	0.228271
C20	C	-0.290240	-0.936913	0.291149
C21	C	-0.317245	-0.849066	0.318085
C22	C	-0.021937	-0.560031	0.023572
C23	C	-0.047336	-0.477485	0.048898
C24	C	-0.200990	-0.477544	0.202124
C25	C	-0.175600	-0.560090	0.176815
C26	C	-0.086073	-0.601327	0.087536
C27	C	-0.239735	-0.601387	0.240779
C28	C	-0.214351	-0.683927	0.215467
C29	C	-0.124831	-0.725170	0.126190
C30	C	-0.060689	-0.683867	0.062224
C31	C	-0.329268	-0.560149	0.330051
C32	C	-0.393404	-0.601446	0.394015
C33	C	-0.368014	-0.683987	0.368709
C34	C	-0.278494	-0.725230	0.279433
C35	C	-0.432156	-0.725289	0.432675
C36	C	-0.406772	-0.807829	0.407363
C37	C	-0.253109	-0.807769	0.254120
C38	C	0.085874	-1.142308	0.228271
C39	C	0.219281	-1.142331	0.228280
C40	C	-0.227032	-1.142316	0.541276
C41	C	-0.226968	-1.142342	0.674668
C42	C	-0.163868	-0.348400	0.165098
C43	C	-0.136847	-0.436247	0.138154
C44	C	-0.227235	-1.142240	-0.083568
C45	C	-0.226915	-1.142368	-0.217006
H46	H	-0.180190	-0.841347	0.181439
H47	H	-0.273886	-0.443957	0.274811
C48	C	-0.097130	-0.814785	0.098484
C49	C	-0.005022	-0.842058	0.006589
C50	C	0.020517	-0.924606	-0.018977
H51	H	-0.070635	-0.833584	0.170130
H52	H	-0.168784	-0.833484	0.071808
H53	H	0.066618	-0.823368	0.033269
H54	H	-0.031491	-0.823280	-0.065077
H55	H	-0.051137	-0.943304	-0.045653
H56	H	0.047007	-0.943397	0.052676
H57	H	0.083006	-0.943121	-0.081337
C58	C	-0.490673	-0.556813	0.490959
C59	C	-0.541419	-0.610649	0.541546
C60	C	-0.631032	-0.569564	0.630852
H61	H	-0.454838	-0.524631	0.553295
H62	H	-0.552892	-0.524613	0.454878
H63	H	-0.479212	-0.642834	0.577628
H64	H	-0.577279	-0.642832	0.479241
H65	H	-0.693250	-0.537365	0.594770
H66	H	-0.595186	-0.537384	0.693179
H67	H	-0.665482	-0.606085	0.665178
H68	H	0.004906	-0.443865	-0.003188
C69	C	0.075099	-0.604773	-0.073550
C70	C	0.042895	-0.584672	-0.186178
C71	C	0.132237	-0.625883	-0.275676
H72	H	0.151621	-0.591292	-0.051882
H73	H	0.081011	-0.659852	-0.079542
H74	H	0.036998	-0.529606	-0.180185
H75	H	-0.033612	-0.598155	-0.207884
H76	H	0.138149	-0.680962	-0.281668
H77	H	0.208753	-0.612399	-0.253996
H78	H	0.110394	-0.612256	-0.352106
H79	H	0.012231	-0.717445	-0.010458
C80	C	-0.356619	-0.470533	0.357665
C81	C	-0.250807	-0.443219	0.396888
C82	C	-0.275966	-0.360671	0.422354
H83	H	-0.382991	-0.451734	0.285986
H84	H	-0.419083	-0.451863	0.420034
H85	H	-0.188364	-0.461881	0.334524
H86	H	-0.224419	-0.461997	0.468574
H87	H	-0.338430	-0.342002	0.484723
H88	H	-0.302339	-0.341879	0.350670
H89	H	-0.204181	-0.342128	0.448981
C90	C	-0.476486	-0.852529	0.476988
C91	C	-0.560295	-0.798750	0.560617
C92	C	-0.624529	-0.839899	0.624787
H93	H	-0.518936	-0.884717	0.421256
H94	H	-0.420751	-0.884728	0.519543
H95	H	-0.616023	-0.766565	0.518065
H96	H	-0.517878	-0.766560	0.616375
H97	H	-0.568794	-0.872098	0.667342
H98	H	-0.666972	-0.872086	0.569045
H99	H	-0.681393	-0.803417	0.681544
H100	H	-0.505057	-0.691702	0.505357
