data_functionalizedCrystal
_audit_creation_method	'MofGen! by Chris Wilmer'
_symmetry_space_group_name_H-M	'P1'
_symmetry_Int_Tables_number	1
_symmetry_cell_setting	triclinic
loop_
_symmetry_equiv_pos_as_xyz
  x,y,z
_cell_length_a	14.044220
_cell_length_b	8.559649
_cell_length_c	7.681481
_cell_angle_alpha	94.930900
_cell_angle_beta	96.253297
_cell_angle_gamma	98.516229
loop_
_atom_site_label
_atom_site_type_symbol
_atom_site_fract_x
_atom_site_fract_y
_atom_site_fract_z
O1	O	1.220005	-0.394955	-0.146232
O2	O	1.720005	0.105045	0.353768
O3	O	0.945035	-0.381202	-0.146277
O4	O	1.445035	0.118798	0.353723
O5	O	1.106745	-0.158929	-0.146249
O6	O	1.606745	0.341071	0.353751
O7	O	1.058295	-0.617228	-0.146260
O8	O	1.558295	-0.117228	0.353740
O9	O	1.126654	-0.131503	0.146613
O10	O	1.626654	0.368497	0.646613
O11	O	0.964943	-0.353776	0.146584
O12	O	1.464943	0.146224	0.646584
O13	O	1.239914	-0.367530	0.146629
O14	O	1.739914	0.132470	0.646629
Zn15	Zn	1.105590	-0.356298	0.193105
Zn16	Zn	1.605590	0.143702	0.693105
Zn17	Zn	1.079359	-0.392433	-0.192752
Zn18	Zn	1.579359	0.107567	0.307248
O19	O	1.078204	-0.589802	0.146601
O20	O	1.578204	-0.089802	0.646601
C21	C	0.920113	-0.361467	0.000148
C22	C	1.420113	0.138533	0.500148
C23	C	0.816193	-0.343505	0.000131
C24	C	1.316193	0.156495	0.500131
N25	N	1.123498	-0.331637	0.456442
N26	N	1.623498	0.168363	0.956442
C27	C	1.120371	-0.086210	0.000179
C28	C	1.620371	0.413790	0.500179
C29	C	1.131300	0.089612	0.000171
C30	C	1.631300	0.589612	0.500171
C31	C	0.625925	-0.310660	0.000166
C32	C	1.125925	0.189340	0.500166
C33	C	0.559018	-0.438066	0.000171
C34	C	1.059018	0.061934	0.500171
C35	C	0.453146	-0.419790	0.000190
C36	C	0.953146	0.080210	0.500190
C37	C	0.731807	-0.328933	0.000146
C38	C	1.231807	0.171067	0.500146
C39	C	1.264836	-0.387265	0.000201
C40	C	1.764836	0.112735	0.500201
C41	C	1.368754	-0.405228	0.000206
C42	C	1.868754	0.094772	0.500206
C43	C	1.064577	-0.662522	0.000169
C44	C	1.564577	-0.162522	0.500169
C45	C	1.053648	-0.838345	0.000166
C46	C	1.553648	-0.338345	0.500166
N47	N	1.061459	-0.417082	-0.456090
N48	N	1.561459	0.082918	0.043910
H49	H	0.603695	-0.187869	0.000179
H50	H	1.103695	0.312131	0.500179
H51	H	0.978806	0.088825	0.000159
H52	H	1.478806	0.588825	0.500159
H53	H	1.206148	0.162452	0.000198
H54	H	1.706148	0.662452	0.500198
N55	N	0.982018	-0.526493	0.449547
N56	N	1.482018	-0.026493	0.949547
N57	N	0.970920	-0.541769	0.284957
N58	N	1.470920	-0.041769	0.784957
H59	H	0.914815	-0.619044	0.218300
H60	H	1.414815	-0.119044	0.718300
N61	N	1.202949	-0.222232	0.550813
N62	N	1.702949	0.277768	1.050813
N63	N	1.214050	-0.206954	0.715403
N64	N	1.714050	0.293046	1.215403
H65	H	1.270158	-0.129683	0.782056
H66	H	1.770158	0.370317	1.282056
H67	H	0.581249	-0.560867	0.000159
H68	H	1.081249	-0.060867	0.500159
