data_functionalizedCrystal
_audit_creation_method	'MofGen! by Chris Wilmer'
_symmetry_space_group_name_H-M	'P1'
_symmetry_Int_Tables_number	1
_symmetry_cell_setting	triclinic
loop_
_symmetry_equiv_pos_as_xyz
  x,y,z
_cell_length_a	10.489746
_cell_length_b	10.489741
_cell_length_c	11.804365
_cell_angle_alpha	101.953620
_cell_angle_beta	78.031858
_cell_angle_gamma	84.540238
loop_
_atom_site_label
_atom_site_type_symbol
_atom_site_fract_x
_atom_site_fract_y
_atom_site_fract_z
O1	O	1.719562	0.154502	-0.098945
O2	O	1.348373	0.171383	-0.098965
O3	O	1.542412	-0.022653	-0.098947
O4	O	1.525523	0.348538	-0.098962
O5	O	1.491328	0.028377	0.099104
O6	O	1.297289	0.222413	0.099087
O7	O	1.668479	0.205532	0.099106
Cu8	Cu	1.478220	0.218632	0.117180
Cu9	Cu	1.538632	0.158283	-0.117038
O10	O	1.474439	0.399569	0.099089
C11	C	1.275300	0.195621	0.000058
C12	C	1.133673	0.191799	0.000051
C13	C	0.980809	0.066081	0.000073
C14	C	1.033018	0.154097	0.097717
C15	C	1.083338	0.103814	-0.097547
C16	C	0.933503	0.273101	0.097805
C17	C	0.983841	0.222778	-0.097546
C18	C	1.035994	0.310888	0.000121
C19	C	1.515594	-0.044670	0.000078
C20	C	1.511778	-0.186300	0.000075
C21	C	1.388317	-0.254446	0.000060
C22	C	1.421453	-0.321406	0.097713
C23	C	1.471847	-0.371693	-0.097550
C24	C	1.544944	-0.251374	0.097809
C25	C	1.595343	-0.301674	-0.097542
C26	C	1.628562	-0.368600	0.000134
C27	C	1.741552	0.181294	0.000081
C28	C	1.883181	0.185114	0.000080
C29	C	1.501258	0.421585	0.000062
C30	C	1.505076	0.563213	0.000056
N31	N	1.435738	0.261078	0.281917
N32	N	1.581123	0.115827	-0.281775
C33	C	1.683137	0.013875	0.655888
C34	C	1.715272	-0.018241	0.531229
C35	C	1.645391	0.051586	0.468895
C36	C	1.543369	0.153534	0.531232
C37	C	1.511237	0.185660	0.655903
C38	C	1.473492	0.223371	0.468910
C39	C	1.371470	0.325319	0.531247
C40	C	1.339343	0.357439	0.655906
C41	C	1.409224	0.287612	0.718240
C42	C	1.505624	0.191245	0.344239
C43	C	1.333725	0.363030	0.344254
C44	C	1.301589	0.395146	0.468913
H45	H	0.868907	0.344610	0.180451
H46	H	1.740031	-0.042962	0.706649
H47	H	1.671561	0.025433	0.367392
H48	H	1.276823	0.419892	0.293502
H49	H	1.256281	0.440461	0.706660
H50	H	0.956062	-0.037394	0.000176
H51	H	1.798338	-0.101244	0.480479
C52	C	1.390007	0.454064	0.896816
C53	C	1.373891	0.322921	0.855272
H54	H	1.368185	0.475859	0.981414
H55	H	1.478956	0.465039	0.868615
H56	H	1.333788	0.510233	0.868607
H57	H	1.430117	0.266751	0.883474
H58	H	1.284928	0.311934	0.883485
H59	H	1.055200	0.125120	0.180274
C60	C	1.115430	0.498897	0.101511
C61	C	1.069038	0.450726	0.000183
H62	H	1.135838	0.585223	0.101547
H63	H	1.049551	0.501316	0.170884
H64	H	1.192381	0.442829	0.100808
H65	H	0.992081	0.506789	0.000891
H66	H	1.134922	0.448315	-0.069207
C67	C	1.030624	0.172961	-0.311159
C68	C	0.953846	0.261833	-0.208996
H69	H	1.012099	0.197060	-0.379969
H70	H	1.121231	0.174893	-0.312361
H71	H	1.010592	0.086660	-0.310440
H72	H	0.973885	0.348133	-0.209710
H73	H	0.863218	0.259914	-0.207794
C74	C	1.143346	-0.120787	-0.208787
C75	C	1.170724	0.007245	-0.208996
H76	H	1.197286	-0.180406	-0.277592
H77	H	1.160884	-0.144327	-0.139454
H78	H	1.053301	-0.124459	-0.209192
H79	H	1.260767	0.010920	-0.208582
H80	H	1.153195	0.030792	-0.278347
H81	H	1.440887	-0.423932	-0.180116
C82	C	1.387757	-0.400679	0.276909
C83	C	1.322193	-0.334572	0.209154
H84	H	1.326473	-0.408796	0.345707
H85	H	1.427481	-0.485795	0.230605
H86	H	1.453770	-0.352262	0.300381
H87	H	1.256187	-0.382994	0.185675
H88	H	1.282448	-0.249441	0.255467
H89	H	1.588690	0.108239	0.293495
C90	C	1.176021	0.520660	0.660024
C91	C	1.189457	0.507215	0.537442
H92	H	1.106801	0.589853	0.702329
H93	H	1.156126	0.440662	0.680451
H94	H	1.256023	0.540607	0.680427
H95	H	1.109459	0.487259	0.517038
H96	H	1.209345	0.587231	0.517008
C97	C	1.160505	-0.196117	0.102566
C98	C	1.251256	-0.187378	0.000180
H99	H	1.075894	-0.154701	0.102645
H100	H	1.156957	-0.286099	0.103263
H101	H	1.187110	-0.153455	0.171227
H102	H	1.224656	-0.230048	-0.068482
H103	H	1.254801	-0.097379	-0.000528
H104	H	1.730150	-0.418007	0.000194
C105	C	1.589757	-0.048086	0.208415
C106	C	1.586619	-0.181011	0.209391
H107	H	1.615474	-0.004646	0.277306
H108	H	1.651185	-0.041402	0.139170
H109	H	1.504730	-0.008057	0.208129
H110	H	1.671648	-0.221042	0.209668
H111	H	1.525188	-0.187703	0.278654
H112	H	1.668833	-0.291900	-0.180099
