data_functionalizedCrystal
_audit_creation_method	'MofGen! by Chris Wilmer'
_symmetry_space_group_name_H-M	'P1'
_symmetry_Int_Tables_number	1
_symmetry_cell_setting	triclinic
loop_
_symmetry_equiv_pos_as_xyz
  x,y,z
_cell_length_a	21.395362
_cell_length_b	13.031981
_cell_length_c	21.395355
_cell_angle_alpha	97.199817
_cell_angle_beta	90.043940
_cell_angle_gamma	97.204883
loop_
_atom_site_label
_atom_site_type_symbol
_atom_site_fract_x
_atom_site_fract_y
_atom_site_fract_z
Zn1	Zn	0.926274	-0.415794	0.322901
Zn2	Zn	0.912901	-0.590555	0.204806
Zn3	Zn	0.821486	-0.415842	0.218098
Zn4	Zn	0.808181	-0.590577	0.309509
O5	O	0.867211	-0.503192	0.263828
O6	O	1.012181	-0.438947	0.307277
O7	O	0.900746	-0.567390	0.118890
O8	O	0.846551	-0.269571	0.243168
O9	O	1.002356	-0.567343	0.220513
O10	O	0.923538	-0.269535	0.320166
O11	O	0.833583	-0.439030	0.128656
O12	O	0.732041	-0.439051	0.230182
O13	O	0.823875	-0.567380	0.398964
O14	O	0.722266	-0.567427	0.297341
O15	O	0.910638	-0.438968	0.408803
O16	O	0.887846	-0.736823	0.207527
O17	O	0.810908	-0.736839	0.284452
C18	C	0.704419	-0.503247	0.263751
C19	C	0.634774	-0.503296	0.263732
C20	C	0.846499	-0.774756	0.243108
C21	C	0.837696	-0.890932	0.234265
C22	C	0.596981	-0.570230	0.298634
C23	C	0.531547	-0.570205	0.298664
C24	C	0.503909	-0.503256	0.263779
C25	C	0.541711	-0.436309	0.228874
C26	C	0.607143	-0.436329	0.228851
C27	C	0.400824	-0.494836	0.208016
C28	C	0.335392	-0.494823	0.208038
C29	C	0.302093	-0.503188	0.263854
C30	C	0.334233	-0.511587	0.319647
C31	C	0.399666	-0.511607	0.319623
C32	C	0.432959	-0.503226	0.263802
C33	C	0.193349	-0.570098	0.298792
C34	C	0.127915	-0.570065	0.298823
C35	C	0.138079	-0.436174	0.229028
C36	C	0.203513	-0.436202	0.229002
C37	C	0.231143	-0.503169	0.263883
C38	C	0.871838	-0.942626	0.268456
C39	C	0.862741	-1.062700	0.259317
C40	C	1.030638	-0.503137	0.263906
C41	C	1.100281	-0.503114	0.263939
C42	C	0.867264	-0.503171	0.427253
C43	C	0.867287	-0.503162	0.496895
C44	C	0.888020	-0.230568	0.284643
C45	C	0.896888	-0.114391	0.293514
C46	C	0.867199	-0.503138	0.101045
C47	C	0.867320	-0.502852	0.031426
C48	C	0.912463	-0.436295	0.534733
C49	C	0.912465	-0.436250	0.600172
C50	C	0.867297	-0.503091	0.627769
C51	C	0.822114	-0.569962	0.589923
C52	C	0.822109	-0.569998	0.524486
C53	C	0.855172	-0.597205	0.724261
C54	C	0.855182	-0.597172	0.789697
C55	C	0.867310	-0.502980	0.829598
C56	C	0.879442	-0.408820	0.804057
C57	C	0.879437	-0.408855	0.738620
C58	C	0.867298	-0.503059	0.698724
C59	C	0.912491	-0.436059	0.938393
C60	C	0.912489	-0.436012	1.003833
C61	C	0.822140	-0.569734	0.993583
C62	C	0.822139	-0.569771	0.928144
C63	C	0.867318	-0.502935	0.900553
H64	H	0.619473	-0.624759	0.327038
H65	H	0.845307	-0.673843	0.810487
F66	F	0.892345	-0.308646	0.711439
H67	H	0.309228	-0.487990	0.162607
F68	F	0.436256	-0.485935	0.148604
F69	F	0.960571	-0.364923	0.909026
F70	F	0.774058	-0.640945	0.887873
F71	F	0.774064	-0.640864	1.022950
H72	H	0.845130	-0.673888	0.691779
H73	H	0.932854	-1.069759	0.329558
H74	H	0.785336	-0.624381	0.612398
H75	H	0.801727	-0.935569	0.198229
F76	F	0.960544	-0.365157	0.505372
F77	F	0.960540	-0.365061	0.640450
H78	H	0.500770	-0.624710	0.327089
F79	F	0.512295	-0.365053	0.191750
H80	H	0.785318	-0.624448	0.493679
H81	H	0.889319	-0.332120	0.836544
F82	F	0.298800	-0.520486	0.379056
F83	F	0.647367	-0.365085	0.191701
F84	F	0.433869	-0.520542	0.379001
H85	H	0.907802	-0.897991	0.304498
F86	F	0.960580	-0.364851	1.044102
H87	H	0.215848	-0.624621	0.327198
F88	F	0.087693	-0.641304	0.335978
H89	H	0.234284	-0.381702	0.200577
H90	H	0.115577	-0.381658	0.200627
H91	H	0.826769	-1.107333	0.223279
