data_functionalizedCrystal
_audit_creation_method	'MofGen! by Chris Wilmer'
_symmetry_space_group_name_H-M	'P1'
_symmetry_Int_Tables_number	1
_symmetry_cell_setting	triclinic
loop_
_symmetry_equiv_pos_as_xyz
  x,y,z
_cell_length_a	6.817900
_cell_length_b	9.108949
_cell_length_c	12.200875
_cell_angle_alpha	98.159128
_cell_angle_beta	107.143593
_cell_angle_gamma	111.764586
loop_
_atom_site_label
_atom_site_type_symbol
_atom_site_fract_x
_atom_site_fract_y
_atom_site_fract_z
V1	V	-4.126530	-0.225760	-0.379892
O2	O	-4.052340	0.010468	-0.349822
O3	O	-4.134881	-0.447279	-0.399259
O4	O	-4.095400	-0.222455	-0.535555
O5	O	-4.092094	-0.215912	-0.212583
V6	V	-4.600566	-0.197485	-0.357212
O7	O	-4.408598	-0.287785	-0.429642
O8	O	-4.768695	-0.135461	-0.307462
O9	O	-4.369008	0.024033	-0.337845
O10	O	-4.792152	-0.433713	-0.387282
O11	O	-4.752398	-0.207333	-0.524521
O12	O	-4.408489	-0.200791	-0.201549
C13	C	-3.993129	-0.501275	-0.398934
C14	C	-4.081360	-0.682370	-0.415806
C15	C	-3.942766	-0.214488	-0.572791
C16	C	-3.998973	-0.213251	-0.700190
C17	C	-4.101842	-0.210988	-0.933442
C18	C	-4.044590	-0.212246	-0.803644
C19	C	-4.174104	0.078021	-0.338168
C20	C	-4.065113	0.259114	-0.321303
C21	C	-4.224466	-0.208763	-0.164308
C22	C	-4.147495	-0.209992	-0.036906
H23	H	-3.983711	-0.652432	-0.227484
H24	H	-4.162771	-0.770815	-0.509619
