data_functionalizedCrystal
_audit_creation_method	'MofGen! by Chris Wilmer'
_symmetry_space_group_name_H-M	'P1'
_symmetry_Int_Tables_number	1
_symmetry_cell_setting	triclinic
loop_
_symmetry_equiv_pos_as_xyz
  x,y,z
_cell_length_a	15.944551
_cell_length_b	12.837942
_cell_length_c	11.892095
_cell_angle_alpha	85.697431
_cell_angle_beta	86.105155
_cell_angle_gamma	90.836161
loop_
_atom_site_label
_atom_site_type_symbol
_atom_site_fract_x
_atom_site_fract_y
_atom_site_fract_z
O1	O	1.130053	-0.127078	-0.093883
O2	O	0.886824	-0.143559	-0.093911
O3	O	1.003045	0.015584	-0.093891
O4	O	1.013832	-0.286221	-0.093904
O5	O	0.993353	0.002336	0.094115
O6	O	0.877132	-0.156808	0.094095
O7	O	1.120361	-0.140326	0.094122
Zn8	Zn	0.997208	-0.150670	0.123958
Zn9	Zn	1.009977	-0.133215	-0.123747
O10	O	1.004140	-0.299470	0.094102
C11	C	0.850629	-0.149499	0.000088
C12	C	0.757219	-0.147447	0.000078
C13	C	0.994555	0.047581	0.000111
C14	C	0.983687	0.162659	0.000108
N15	N	0.988499	-0.162583	0.293011
C16	C	0.534078	-0.043899	0.000104
C17	C	0.481683	-0.085452	-0.092595
C18	C	0.586196	-0.143736	0.000091
C19	C	0.472152	-0.098537	0.092764
C20	C	0.420995	-0.140145	0.000109
C21	C	0.535035	-0.185310	-0.092684
C22	C	0.525505	-0.198388	0.092758
C23	C	0.473135	-0.240011	0.000036
C24	C	0.681364	-0.145802	0.000080
C25	C	0.325829	-0.138086	0.000112
C26	C	1.156556	-0.134386	0.000121
C27	C	1.249966	-0.136438	0.000124
C28	C	1.012630	-0.331466	0.000098
C29	C	1.023498	-0.446544	0.000094
C30	C	1.114340	0.403609	0.000099
C31	C	1.104133	0.511736	0.000096
C32	C	0.953066	0.487042	0.000091
C33	C	0.963274	0.378915	0.000094
C34	C	1.043913	0.337203	0.000100
C35	C	1.054119	0.229073	0.000111
C36	C	0.903054	0.204382	0.000097
C37	C	0.892846	0.312509	0.000094
N38	N	1.018692	-0.121294	-0.292800
C39	C	1.079287	-0.038343	0.529675
C40	C	1.073206	-0.046677	0.648016
C41	C	0.970253	-0.187580	0.648036
C42	C	0.976334	-0.179246	0.529695
C43	C	1.030853	-0.104626	0.470519
C44	C	1.036938	-0.096297	0.352176
C45	C	0.933981	-0.237194	0.352198
C46	C	0.927900	-0.245528	0.470539
H47	H	0.560789	0.038966	-0.000007
H48	H	1.161482	0.565801	0.000092
C49	C	1.190993	0.223630	-0.096545
C50	C	1.142755	0.183216	0.000108
H51	H	1.245712	0.195315	-0.096552
H52	H	1.194992	0.297521	-0.096538
H53	H	1.164994	0.205445	-0.162096
H54	H	1.168751	0.201408	0.065658
H55	H	1.138759	0.109309	0.000111
H56	H	0.544971	-0.246103	0.171128
H57	H	0.883509	-0.306280	0.518734
H58	H	1.179999	0.369646	0.000115
C59	C	0.850905	-0.219340	0.781154
C60	C	0.910326	-0.269588	0.713106
H61	H	0.813913	-0.269969	0.821332
H62	H	0.819611	-0.172933	0.734987
H63	H	0.878896	-0.181052	0.833308
H64	H	0.882336	-0.307870	0.660946
H65	H	0.941624	-0.316013	0.759277
C66	C	0.659773	-0.236224	-0.197678
C67	C	0.572027	-0.234800	-0.198605
H68	H	0.682610	-0.266769	-0.263073
H69	H	0.675093	-0.276082	-0.131944
H70	H	0.681125	-0.166782	-0.197409
H71	H	0.550675	-0.304244	-0.198866
H72	H	0.556700	-0.194943	-0.264357
H73	H	0.887414	0.521025	0.000074
C74	C	0.347239	-0.048435	0.197960
C75	C	0.435019	-0.048971	0.198560
H76	H	0.324319	-0.017824	0.263267
H77	H	0.326308	-0.118095	0.198080
H78	H	0.331559	-0.009007	0.132130
H79	H	0.450699	-0.088406	0.264386
H80	H	0.455958	0.020701	0.198450
H81	H	0.894545	-0.291169	0.304019
H82	H	0.827192	0.346487	0.000085
H83	H	0.845706	0.150301	0.000106
H84	H	0.446614	-0.322950	-0.000019
C85	C	0.486262	0.081671	-0.198213
C86	C	0.455418	-0.020995	-0.198383
H87	H	0.470044	0.121467	-0.263516
H88	H	0.545849	0.081360	-0.198633
H89	H	0.463799	0.111817	-0.132380
H90	H	0.477886	-0.051144	-0.264213
H91	H	0.395820	-0.020689	-0.197974
H92	H	1.081333	-0.035541	0.303995
C93	C	1.180447	0.100091	0.541536
C94	C	1.139215	0.043673	0.464620
H95	H	1.217440	0.150729	0.501373
H96	H	1.211741	0.053666	0.587684
H97	H	1.140119	0.134155	0.587704
H98	H	1.179542	0.009603	0.418458
H99	H	1.107919	0.090105	0.418454
H100	H	1.112645	0.007298	0.696177
