data_functionalizedCrystal
_audit_creation_method	'MofGen! by Chris Wilmer'
_symmetry_space_group_name_H-M	'P1'
_symmetry_Int_Tables_number	1
_symmetry_cell_setting	triclinic
loop_
_symmetry_equiv_pos_as_xyz
  x,y,z
_cell_length_a	21.883469
_cell_length_b	21.882911
_cell_length_c	21.879399
_cell_angle_alpha	60.006540
_cell_angle_beta	60.013207
_cell_angle_gamma	59.992231
loop_
_atom_site_label
_atom_site_type_symbol
_atom_site_fract_x
_atom_site_fract_y
_atom_site_fract_z
O1	O	0.084645	-0.892842	0.746620
O2	O	0.584645	-0.392842	1.246620
O3	O	0.031867	-0.695139	0.601571
O4	O	0.531867	-0.195139	1.101571
O5	O	0.157054	-0.820237	0.601476
O6	O	0.657054	-0.320237	1.101476
O7	O	-0.040542	-0.767744	0.746716
O8	O	0.459458	-0.267744	1.246716
O9	O	0.198586	-0.778715	0.642912
O10	O	0.698586	-0.278715	1.142912
O11	O	0.073399	-0.653617	0.643007
O12	O	0.573399	-0.153617	1.143007
O13	O	0.126177	-0.851320	0.788056
O14	O	0.626177	-0.351320	1.288056
Cu15	Cu	0.103580	-0.748677	0.719315
Cu16	Cu	0.603580	-0.248677	1.219315
Cu17	Cu	0.054464	-0.797782	0.670313
Cu18	Cu	0.554464	-0.297782	1.170313
O19	O	0.000990	-0.726222	0.788151
O20	O	0.500990	-0.226222	1.288151
N21	N	0.138128	-0.714145	0.753785
N22	N	0.638128	-0.214145	1.253785
N23	N	0.019923	-0.832320	0.635843
N24	N	0.519923	-0.332320	1.135843
C25	C	0.190018	-0.547369	0.805644
C26	C	0.690018	-0.047369	1.305644
C27	C	0.190029	-0.662289	0.805630
C28	C	0.690029	-0.162289	1.305630
C29	C	0.218780	-0.633565	0.834353
C30	C	0.718780	-0.133565	1.334353
C31	C	0.344122	-0.611968	0.768360
C32	C	0.844122	-0.111968	1.268360
C33	C	0.422474	-0.638085	0.742222
C34	C	0.922474	-0.138085	1.242222
C35	C	0.422504	-0.764859	0.790561
C36	C	0.922504	-0.264859	1.290561
C37	C	0.344154	-0.738739	0.816702
C38	C	0.844154	-0.238739	1.316702
C39	C	0.208899	-0.508180	0.728617
C40	C	0.708899	-0.008180	1.228617
C41	C	0.182748	-0.429822	0.702522
C42	C	0.682748	0.070178	1.202522
C43	C	0.118843	-0.429847	0.830485
C44	C	0.618843	0.070153	1.330485
C45	C	0.144993	-0.508205	0.856580
C46	C	0.644993	-0.008205	1.356580
C47	C	0.112994	-0.643364	0.824587
C48	C	0.612994	-0.143364	1.324587
C49	C	0.086865	-0.669476	0.798467
C50	C	0.586865	-0.169476	1.298467
C51	C	0.214799	-0.733437	0.734451
C52	C	0.714799	-0.233437	1.234451
C53	C	0.240932	-0.707325	0.760562
C54	C	0.740932	-0.207325	1.260562
C55	C	0.113084	-0.643389	0.959747
C56	C	0.613084	-0.143389	1.459747
C57	C	0.087018	-0.669524	1.038102
C58	C	0.587018	-0.169524	1.538102
C59	C	0.214996	-0.733501	1.038048
C60	C	0.714996	-0.233501	1.538048
C61	C	0.241061	-0.707367	0.959690
C62	C	0.741061	-0.207367	1.459690
C63	C	0.190103	-0.662308	0.920542
C64	C	0.690103	-0.162308	1.420542
C65	C	0.304966	-0.662293	0.805598
C66	C	0.804966	-0.162293	1.305598
C67	C	-0.117460	-0.854702	0.612901
C68	C	0.382540	-0.354702	1.112901
C69	C	-0.002405	-0.854864	0.498145
C70	C	0.497595	-0.354864	0.998145
C71	C	-0.002621	-0.969735	0.613108
C72	C	0.497379	-0.469735	1.113108
C73	C	-0.002603	-0.854858	0.613180
C74	C	0.497397	-0.354858	1.113180
C75	C	-0.031272	-0.883541	0.584334
C76	C	0.468728	-0.383541	1.084334
N77	N	0.460550	-0.714150	0.753681
N78	N	0.960550	-0.214150	1.253681
O79	O	0.699805	-0.721060	0.574973
O80	O	1.199805	-0.221060	1.074973
O81	O	0.700047	-0.866553	0.772482
O82	O	1.200047	-0.366553	1.272482
O83	O	0.699952	-0.866219	0.647213
O84	O	1.199952	-0.366219	1.147213
O85	O	0.699900	-0.721394	0.700242
O86	O	1.199900	-0.221394	1.200242
O87	O	0.575478	-0.824800	0.688791
O88	O	1.075478	-0.324800	1.188791
O89	O	0.575573	-0.825134	0.814060
O90	O	1.075573	-0.325134	1.314060
O91	O	0.575331	-0.679641	0.616551
O92	O	1.075331	-0.179641	1.116551
Cu93	Cu	0.564087	-0.748606	0.719102
Cu94	Cu	1.064087	-0.248606	1.219102
Cu95	Cu	0.711292	-0.797588	0.669931
Cu96	Cu	1.211292	-0.297588	1.169931
O97	O	0.575426	-0.679975	0.741820
O98	O	1.075426	-0.179975	1.241820
N99	N	0.814828	-0.832044	0.635345
N100	N	1.314828	-0.332044	1.135345
N101	N	0.138106	-0.391772	0.753815
N102	N	0.638106	0.108228	1.253815
O103	O	-0.040520	-0.152377	0.746758
O104	O	0.459480	0.347623	1.246758
O105	O	0.156993	-0.152371	0.601281
O106	O	0.656993	0.347629	1.101281
O107	O	0.031698	-0.152390	0.601639
O108	O	0.531698	0.347610	1.101639
O109	O	0.084775	-0.152358	0.746401
O110	O	0.584775	0.347642	1.246401
O111	O	0.073234	-0.276876	0.643130
O112	O	0.573234	0.223124	1.143130
O113	O	0.198529	-0.276856	0.642772
O114	O	0.698529	0.223144	1.142772
O115	O	0.001015	-0.276863	0.788249
O116	O	0.501015	0.223137	1.288249
Cu117	Cu	0.103564	-0.288226	0.719299
Cu118	Cu	0.603564	0.211774	1.219299
Cu119	Cu	0.054444	-0.141007	0.670231
Cu120	Cu	0.554444	0.358993	1.170231
O121	O	0.126310	-0.276844	0.787892
O122	O	0.626310	0.223156	1.287892
N123	N	0.019892	-0.037461	0.635717
N124	N	0.519892	0.462539	1.135717
N125	N	0.138332	-0.714192	1.076133
N126	N	0.638332	-0.214192	1.576133
O127	O	0.131293	-0.892804	1.315506
O128	O	0.631293	-0.392804	1.815506
O129	O	-0.014162	-0.695219	1.315533
O130	O	0.485838	-0.195219	1.815533
O131	O	-0.013826	-0.820490	1.315480
O132	O	0.486174	-0.320490	1.815480
O133	O	0.130957	-0.767533	1.315559
O134	O	0.630957	-0.267533	1.815559
O135	O	0.027651	-0.778981	1.191001
O136	O	0.527651	-0.278981	1.691001
O137	O	0.027314	-0.653710	1.191054
O138	O	0.527314	-0.153710	1.691054
O139	O	0.172770	-0.851295	1.191026
O140	O	0.672770	-0.351295	1.691026
Cu141	Cu	0.103829	-0.748713	1.179674
Cu142	Cu	0.603829	-0.248713	1.679674
Cu143	Cu	0.054778	-0.797802	1.326885
Cu144	Cu	0.554778	-0.297802	1.826885
O145	O	0.172434	-0.726024	1.191079
O146	O	0.672434	-0.226024	1.691079
N147	N	0.020275	-0.832331	1.430426
N148	N	0.520275	-0.332331	1.930426
C149	C	0.047687	-0.649466	0.602306
C150	C	0.547687	-0.149466	1.102306
C151	C	0.202716	-0.804385	0.602188
C152	C	0.702716	-0.304385	1.102188
C153	C	0.110357	-0.896993	0.787321
C154	C	0.610357	-0.396993	1.287321
C155	C	-0.044672	-0.742074	0.787439
C156	C	0.455328	-0.242074	1.287439
C157	C	0.637839	-0.865879	0.818154
C158	C	1.137839	-0.365879	1.318154
C159	C	0.637724	-0.865466	0.663023
C160	C	1.137724	-0.365466	1.163023
C161	C	0.637536	-0.680313	0.570880
C162	C	1.137536	-0.180313	1.070880
C163	C	0.637655	-0.680728	0.726010
C164	C	1.137655	-0.180728	1.226010
C165	C	0.202592	-0.214459	0.601942
C166	C	0.702592	0.285541	1.101942
C167	C	0.047481	-0.214636	0.602435
C168	C	0.547481	0.285364	1.102435
C169	C	-0.044635	-0.214620	0.787537
C170	C	0.455365	0.285380	1.287537
C171	C	0.110528	-0.214598	0.787096
C172	C	0.610528	0.285402	1.287096
C173	C	-0.013455	-0.649572	1.253296
C174	C	0.486545	-0.149572	1.753296
C175	C	-0.013030	-0.804697	1.253206
C176	C	0.486970	-0.304697	1.753206
C177	C	0.172063	-0.896942	1.253263
C178	C	0.672063	-0.396942	1.753263
C179	C	0.171648	-0.741808	1.253325
C180	C	0.671648	-0.241808	1.753325
H181	H	0.024299	-0.654107	1.070013
H182	H	0.524299	-0.154107	1.570013
C183	C	-0.121260	-0.214622	0.849241
C184	C	0.378740	0.285378	1.349241
H185	H	-0.121307	-0.214619	0.892685
H186	H	0.378693	0.285381	1.392685
H187	H	-0.159356	-0.171216	0.832088
H188	H	0.340644	0.328784	1.332088
H189	H	-0.130381	-0.258044	0.861026
H190	H	0.369619	0.241956	1.361026
C191	C	0.279379	-0.819494	0.540567
C192	C	0.779379	-0.319494	1.040567
H193	H	0.279501	-0.776164	0.497070
H194	H	0.779501	-0.276164	0.997070
H195	H	0.317452	-0.831340	0.557750
H196	H	0.817452	-0.331340	1.057750
H197	H	0.288471	-0.860295	0.528856
H198	H	0.788471	-0.360295	1.028856
H199	H	-0.059121	-0.592825	1.253304
H200	H	0.440879	-0.092825	1.753304
H201	H	-0.058496	-0.816008	1.253133
H202	H	0.441504	-0.316008	1.753133
C203	C	0.637627	-0.619261	0.741333
C204	C	1.137627	-0.119261	1.241333
H205	H	0.637571	-0.575689	0.698079
H206	H	1.137571	-0.075689	1.198079
H207	H	0.594242	-0.607642	0.782182
H208	H	1.094242	-0.107642	1.282182
H209	H	0.681062	-0.636529	0.753179
H210	H	1.181062	-0.136529	1.253179
C211	C	0.032138	-0.214646	0.540993
C212	C	0.532138	0.285354	1.040993
H213	H	0.075386	-0.214641	0.497426
H214	H	0.575386	0.285359	0.997426
H215	H	0.020266	-0.258059	0.558288
H216	H	0.520266	0.241941	1.058288
H217	H	-0.008700	-0.171231	0.529351
H218	H	0.491300	0.328769	1.029351
C219	C	0.125578	-0.973714	0.848862
C220	C	0.625578	-0.473714	1.348862
H221	H	0.175125	-1.005067	0.830642
H222	H	0.675125	-0.505067	1.330642
H223	H	0.119986	-0.967234	0.891409
H224	H	0.619986	-0.467234	1.391409
H225	H	0.091018	-0.996181	0.862493
H226	H	0.591018	-0.496181	1.362493
H227	H	0.259199	-0.214112	0.556156
H228	H	0.759199	0.285888	1.056156
H229	H	0.121892	-0.214588	0.832572
H230	H	0.621892	0.285412	1.332572
C231	C	0.325785	-0.728182	0.916570
C232	C	0.825785	-0.228182	1.416570
H233	H	0.352397	-0.758751	0.951109
H234	H	0.852397	-0.258751	1.451109
H235	H	0.338619	-0.754760	0.885998
H236	H	0.838619	-0.254760	1.385998
H237	H	0.338610	-0.683869	0.886009
H238	H	0.838610	-0.183869	1.386009
H239	H	0.637900	-0.911553	0.874882
H240	H	1.137900	-0.411553	1.374882
C241	C	0.233757	-0.973599	1.253250
C242	C	0.733757	-0.473599	1.753250
H243	H	0.215681	-1.005042	1.253234
H244	H	0.715681	-0.505042	1.753234
H245	H	0.276286	-0.967048	1.209849
H246	H	0.776286	-0.467048	1.709849
H247	H	0.247356	-0.996004	1.296672
H248	H	0.747356	-0.496004	1.796672
C249	C	0.233098	-0.726507	1.253341
C250	C	0.733098	-0.226507	1.753341
H251	H	0.214808	-0.676940	1.253347
H252	H	0.714808	-0.176940	1.753347
H253	H	0.246741	-0.761040	1.296748
H254	H	0.746741	-0.261040	1.796748
H255	H	0.275655	-0.732089	1.209925
H256	H	0.775655	-0.232089	1.709925
H257	H	0.071582	-0.606692	0.927876
H258	H	0.571582	-0.106692	1.427876
H259	H	-0.101428	-0.730886	0.833046
H260	H	0.398572	-0.230886	1.333046
C261	C	0.271052	-0.783056	1.081102
C262	C	0.771052	-0.283056	1.581102
H263	H	0.320654	-0.790582	1.046528
H264	H	0.820654	-0.290582	1.546528
H265	H	0.263543	-0.759142	1.111674
H266	H	0.763543	-0.259142	1.611674
H267	H	0.263549	-0.830029	1.111658
H268	H	0.763549	-0.330029	1.611658
H269	H	0.637745	-0.910963	0.651673
H270	H	1.137745	-0.410963	1.151673
C271	C	0.637432	-0.618600	0.494258
C272	C	1.137432	-0.118600	0.994258
H273	H	0.637398	-0.575140	0.494200
H274	H	1.137398	-0.075140	0.994200
H275	H	0.680821	-0.635730	0.456150
H276	H	1.180821	-0.135730	0.956150
H277	H	0.594001	-0.606846	0.485160
H278	H	1.094001	-0.106846	0.985160
C279	C	0.002129	-0.648657	0.819304
C280	C	0.502129	-0.148657	1.319304
H281	H	-0.006143	-0.670651	0.797287
H282	H	0.493857	-0.170651	1.297287
H283	H	-0.019855	-0.666684	0.872171
H284	H	0.480145	-0.166684	1.372171
H285	H	-0.019891	-0.595783	0.801292
H286	H	0.480109	-0.095783	1.301292
C287	C	0.270794	-0.782977	0.684883
C288	C	0.770794	-0.282977	1.184883
H289	H	0.320414	-0.790502	0.677335
H290	H	0.820414	-0.290502	1.177335
H291	H	0.263285	-0.829943	0.708798
H292	H	0.763285	-0.329943	1.208798
H293	H	0.263236	-0.759038	0.637923
H294	H	0.763236	-0.259038	1.137923
H295	H	0.303660	-0.722726	0.745118
H296	H	0.803660	-0.222726	1.245118
C297	C	0.301083	-0.794100	0.857661
C298	C	0.801083	-0.294100	1.357661
H299	H	0.335646	-0.843368	0.860521
H300	H	0.835646	-0.343368	1.360521
H301	H	0.270543	-0.792105	0.906753
H302	H	0.770543	-0.292105	1.406753
H303	H	0.270496	-0.780986	0.830970
H304	H	0.770496	-0.280986	1.330970
H305	H	0.071542	-0.606694	0.861281
H306	H	0.571542	-0.106694	1.361281
H307	H	0.454413	-0.827107	0.799589
H308	H	0.954413	-0.327107	1.299589
H309	H	0.454353	-0.597104	0.711898
H310	H	0.954353	-0.097104	1.211898
H311	H	0.036413	-0.592673	0.556752
H312	H	0.536413	-0.092673	1.056752
H313	H	0.312222	-0.549720	0.759316
H314	H	0.812222	-0.049720	1.259316
H315	H	0.245557	-0.540066	0.687141
H316	H	0.745557	-0.040066	1.187141
H317	H	0.198119	-0.397913	0.639797
H318	H	0.698119	0.102087	1.139797
H319	H	0.082193	-0.397958	0.871963
H320	H	0.582193	0.102042	1.371963
H321	H	0.129609	-0.540114	0.919306
H322	H	0.629609	-0.040114	1.419306
