data_functionalizedCrystal
_audit_creation_method	'MofGen! by Chris Wilmer'
_symmetry_space_group_name_H-M	'P1'
_symmetry_Int_Tables_number	1
_symmetry_cell_setting	triclinic
loop_
_symmetry_equiv_pos_as_xyz
  x,y,z
_cell_length_a	10.489741
_cell_length_b	15.944551
_cell_length_c	8.965430
_cell_angle_alpha	89.999468
_cell_angle_beta	89.998843
_cell_angle_gamma	84.018956
loop_
_atom_site_label
_atom_site_type_symbol
_atom_site_fract_x
_atom_site_fract_y
_atom_site_fract_z
O1	O	1.692411	0.118500	-0.123951
O2	O	1.321061	0.129624	-0.123974
O3	O	1.516876	0.001848	-0.123948
O4	O	1.496595	0.246276	-0.123977
O5	O	1.516860	0.001857	0.124130
O6	O	1.321044	0.129633	0.124105
O7	O	1.692394	0.118509	0.124128
Cu8	Cu	1.506718	0.124071	0.146768
Cu9	Cu	1.506737	0.124061	-0.146614
O10	O	1.496578	0.246285	0.124102
C11	C	1.273532	0.128788	0.000062
C12	C	1.131938	0.126275	0.000054
C13	C	1.064925	0.044975	0.000077
C14	C	0.972274	0.083376	-0.122240
C15	C	0.972291	0.083403	0.122346
C16	C	1.041152	0.164709	-0.122364
C17	C	1.041179	0.164726	0.122332
C18	C	0.948554	0.203186	-0.000015
C19	C	1.516026	-0.029446	0.000091
C20	C	1.513502	-0.122708	0.000092
C21	C	1.386093	-0.338330	0.000063
C22	C	1.445249	-0.398988	0.122385
C23	C	1.508935	-0.293461	0.000080
C24	C	1.445294	-0.398979	-0.122201
C25	C	1.504515	-0.458400	0.000062
C26	C	1.568126	-0.352890	0.122503
C27	C	1.568154	-0.352875	-0.122193
C28	C	1.627399	-0.413515	0.000158
C29	C	1.511478	-0.198443	0.000092
C30	C	1.501982	-0.553417	0.000061
C31	C	1.739922	0.119345	0.000088
C32	C	1.881517	0.121858	0.000087
C33	C	1.497429	0.277579	0.000059
C34	C	1.499953	0.370841	0.000049
N35	N	1.506713	0.124078	0.353117
N36	N	1.506752	0.124048	-0.352963
C37	C	1.416127	0.183150	0.450411
C38	C	1.531388	0.200146	0.549830
C39	C	1.391501	0.107089	0.549826
C40	C	1.622032	0.141112	0.450347
C41	C	1.482069	0.048022	0.450334
C42	C	1.597413	0.064986	0.549708
H43	H	0.941783	0.048992	0.225756
O44	O	1.629908	-0.328508	-0.245711
C45	C	1.564835	-0.351758	-0.374429
H46	H	1.460844	-0.359148	-0.345130
H47	H	1.567957	-0.300816	-0.463190
H48	H	1.613081	-0.414110	-0.419054
H49	H	1.393328	-0.419372	-0.225622
H50	H	0.898203	0.270090	-0.000090
O51	O	1.264393	-0.299420	-0.000005
C52	C	1.199192	-0.323901	-0.127771
H53	H	1.246804	-0.386987	-0.169959
H54	H	1.094982	-0.330383	-0.098169
H55	H	1.203068	-0.274132	-0.218497
H56	H	1.719502	0.155545	0.406834
O57	O	1.383141	-0.423443	0.245590
C58	C	1.276779	-0.464798	0.201677
H59	H	1.292827	-0.490597	0.083823
H60	H	1.264880	-0.519006	0.281683
H61	H	1.186625	-0.418233	0.204018
H62	H	1.620032	-0.332584	0.226030
H63	H	1.729454	-0.446060	0.000234
H64	H	1.461162	-0.016264	0.406597
H65	H	1.339592	0.233152	0.406812
O66	O	1.125480	-0.034710	0.000018
C67	C	1.259239	-0.031257	0.001292
H68	H	1.281448	0.031872	0.049036
H69	H	1.306587	-0.084633	0.073295
H70	H	1.297842	-0.038219	-0.117422
O71	O	1.556073	0.276918	0.601911
C72	C	1.460346	0.339035	0.551300
H73	H	1.369846	0.308371	0.523403
H74	H	1.438143	0.388331	0.642308
H75	H	1.495640	0.370635	0.447267
O76	O	1.275356	0.089850	0.602131
C77	C	1.290609	0.015601	0.688547
H78	H	1.393338	0.004933	0.731399
H79	H	1.221650	0.022179	0.787131
H80	H	1.269174	-0.040347	0.616994
H81	H	1.071741	0.199101	0.225741
O82	O	1.689082	0.005461	0.601340
C83	C	1.810334	0.023665	0.550345
H84	H	1.806689	0.093649	0.522602
H85	H	1.884911	0.007198	0.641061
H86	H	1.837450	-0.015130	0.446139
H87	H	1.071510	0.199079	-0.225891
O88	O	0.935925	0.042202	-0.245488
C89	C	0.995784	-0.041182	-0.245069
H90	H	1.023490	-0.060505	-0.126038
H91	H	0.926769	-0.085422	-0.291261
H92	H	1.085493	-0.045047	-0.317567
