data_functionalizedCrystal
_audit_creation_method	'MofGen! by Chris Wilmer'
_symmetry_space_group_name_H-M	'P1'
_symmetry_Int_Tables_number	1
_symmetry_cell_setting	triclinic
loop_
_symmetry_equiv_pos_as_xyz
  x,y,z
_cell_length_a	14.971506
_cell_length_b	12.811415
_cell_length_c	14.048226
_cell_angle_alpha	84.562719
_cell_angle_beta	89.993237
_cell_angle_gamma	83.833801
loop_
_atom_site_label
_atom_site_type_symbol
_atom_site_fract_x
_atom_site_fract_y
_atom_site_fract_z
O1	O	1.187321	0.136885	-0.090982
O2	O	0.926970	0.153243	-0.092395
O3	O	1.063695	-0.007720	-0.078495
O4	O	1.050596	0.297848	-0.104882
O5	O	1.063678	-0.007730	0.079827
O6	O	0.926953	0.153234	0.065928
O7	O	1.187305	0.136876	0.067340
Zn8	Zn	1.057126	0.145053	0.091771
Zn9	Zn	1.057148	0.145066	-0.116825
O10	O	1.050580	0.297839	0.053440
C11	C	0.893635	0.152503	-0.013170
C12	C	0.794333	0.150299	-0.012980
C13	C	0.356293	0.236453	-0.020429
C14	C	0.449599	0.238515	-0.020611
C15	C	0.506552	0.143943	-0.012441
C16	C	0.470196	0.047302	-0.004097
C17	C	0.376891	0.045241	-0.003921
C18	C	0.664671	0.051605	-0.004460
C19	C	0.757982	0.053666	-0.004634
C20	C	0.737378	0.244879	-0.021150
C21	C	0.644074	0.242818	-0.020975
C22	C	0.607724	0.146177	-0.012629
C23	C	1.062952	-0.046830	0.004041
C24	C	1.060753	-0.163352	0.014097
C25	C	1.056623	-0.382286	-0.139629
C26	C	1.054557	-0.491769	-0.130186
C27	C	1.054549	-0.491800	0.042428
C28	C	1.056615	-0.382317	0.032984
C29	C	1.057653	-0.327565	-0.058048
C30	C	1.059726	-0.218081	-0.067491
C31	C	1.059711	-0.218114	0.105122
C32	C	1.057645	-0.327596	0.114566
C33	C	1.220639	0.137616	-0.011887
C34	C	1.319942	0.139819	-0.012083
C35	C	1.051322	0.336949	-0.029098
C36	C	1.053521	0.453471	-0.039160
N37	N	1.057118	0.145044	0.234132
N38	N	1.057163	0.145067	-0.259186
C39	C	1.117679	0.073799	0.290103
C40	C	1.117685	0.073798	0.389760
C41	C	1.057134	0.145049	0.433445
C42	C	0.996566	0.216297	0.377468
C43	C	0.996557	0.216292	0.277813
C44	C	0.996592	0.216305	0.585181
C45	C	0.996602	0.216312	0.684844
C46	C	1.117720	0.073811	0.697129
C47	C	1.117711	0.073806	0.597474
C48	C	1.057144	0.145056	0.541503
H49	H	0.635079	-0.027090	0.002331
Br50	Br	0.327557	-0.085909	0.007402
Br51	Br	0.498928	0.369666	-0.031948
Br52	Br	1.053107	-0.566120	0.165960
H53	H	1.060553	-0.173548	0.171552
H54	H	1.056796	-0.372190	0.188681
Br55	Br	1.199867	-0.022896	0.230826
Br56	Br	1.061141	-0.143775	-0.191031
H57	H	1.167035	0.015797	0.742707
H58	H	1.166998	0.015785	0.435331
H59	H	1.053715	-0.536318	-0.196618
Br60	Br	1.199895	-0.022881	0.538183
Br61	Br	1.058051	-0.307976	-0.263167
Br62	Br	0.835276	-0.074683	0.006450
H63	H	0.766979	0.323568	-0.027945
H64	H	0.947294	0.274330	0.720407
H65	H	0.309927	0.313465	-0.027076
Br66	Br	0.566779	0.371167	-0.032056
H67	H	0.947269	0.274321	0.539613
Br68	Br	0.914380	0.312989	0.436751
H69	H	0.947241	0.274305	0.232242
Br70	Br	0.547489	-0.081048	0.006987
