data_functionalizedCrystal
_audit_creation_method	'MofGen! by Chris Wilmer'
_symmetry_space_group_name_H-M	'P1'
_symmetry_Int_Tables_number	1
_symmetry_cell_setting	triclinic
loop_
_symmetry_equiv_pos_as_xyz
  x,y,z
_cell_length_a	16.625546
_cell_length_b	21.395364
_cell_length_c	21.395356
_cell_angle_alpha	90.017542
_cell_angle_beta	89.971853
_cell_angle_gamma	89.980031
loop_
_atom_site_label
_atom_site_type_symbol
_atom_site_fract_x
_atom_site_fract_y
_atom_site_fract_z
Zn1	Zn	-0.321072	-0.957845	-0.354279
Zn2	Zn	-0.455910	-0.957777	-0.249502
Zn3	Zn	-0.321089	-0.853075	-0.249514
Zn4	Zn	-0.455860	-0.853044	-0.354240
O5	O	-0.388483	-0.905435	-0.301884
O6	O	-0.338972	-1.045514	-0.340391
O7	O	-0.438053	-0.943873	-0.161825
O8	O	-0.208254	-0.867014	-0.263433
O9	O	-0.438037	-1.045464	-0.263412
O10	O	-0.208242	-0.943988	-0.340403
O11	O	-0.339001	-0.866948	-0.161834
O12	O	-0.338953	-0.765393	-0.263395
O13	O	-0.437953	-0.866962	-0.441923
O14	O	-0.437969	-0.765371	-0.340337
O15	O	-0.338924	-0.943959	-0.441952
O16	O	-0.568736	-0.943843	-0.263374
O17	O	-0.568699	-0.866896	-0.340325
C18	C	-0.388458	-0.742648	-0.301863
C19	C	-0.388467	-0.673007	-0.301869
C20	C	-0.597974	-0.905376	-0.301857
C21	C	-0.687595	-0.905408	-0.301867
C22	C	-0.440121	-0.171215	-0.341897
C23	C	-0.440122	-0.236651	-0.341892
C24	C	-0.388488	-0.269368	-0.301894
C25	C	-0.336864	-0.236645	-0.261887
C26	C	-0.336870	-0.171211	-0.261889
C27	C	-0.315827	-0.373050	-0.297044
C28	C	-0.315819	-0.438483	-0.297046
C29	C	-0.388471	-0.471189	-0.301883
C30	C	-0.461132	-0.438454	-0.306731
C31	C	-0.461138	-0.373020	-0.306733
C32	C	-0.388477	-0.340321	-0.301887
C33	C	-0.440098	-0.574857	-0.341878
C34	C	-0.440101	-0.640293	-0.341868
C35	C	-0.336835	-0.640287	-0.261867
C36	C	-0.336839	-0.574851	-0.261874
C37	C	-0.388470	-0.542140	-0.301883
C38	C	-1.015770	-0.905517	-0.301932
C39	C	-0.924462	-0.905485	-0.301916
C40	C	-0.851685	-0.905462	-0.301899
C41	C	-0.760371	-0.905431	-0.301884
C42	C	-0.178174	-0.905512	-0.301924
C43	C	-0.088553	-0.905545	-0.301941
C44	C	-0.388431	-0.905464	-0.465307
C45	C	-0.388409	-0.905477	-0.534948
C46	C	-0.388503	-0.068859	-0.301901
C47	C	-0.388500	-0.138500	-0.301898
C48	C	-0.336716	-0.945628	-1.036761
C49	C	-0.336736	-0.945623	-0.971325
C50	C	-0.388301	-0.905531	-0.938587
C51	C	-0.439866	-0.865451	-0.971289
C52	C	-0.439851	-0.865462	-1.036723
C53	C	-0.394684	-0.849062	-0.834910
C54	C	-0.394693	-0.849051	-0.769477
C55	C	-0.388353	-0.905498	-0.736766
C56	C	-0.381986	-0.961960	-0.769496
C57	C	-0.381971	-0.961970	-0.834930
C58	C	-0.388324	-0.905515	-0.867634
C59	C	-0.336816	-0.945573	-0.633119
C60	C	-0.336842	-0.945569	-0.567682
C61	C	-0.439968	-0.865392	-0.567647
C62	C	-0.439947	-0.865401	-0.633083
C63	C	-0.388367	-0.905491	-0.665815
C64	C	-0.388476	-0.905443	-0.139096
C65	C	-0.388271	-0.905552	-0.069455
H66	H	-0.482165	-0.144586	-0.374474
C67	C	-0.496690	-0.821291	-0.531643
H68	H	-0.489313	-0.827021	-0.487990
H69	H	-0.550863	-0.830443	-0.542356
H70	H	-0.484876	-0.779197	-0.542363
H71	H	-0.481925	-0.832764	-0.659703
H72	H	-0.256654	-0.465130	-0.293106
H73	H	-0.399877	-0.803077	-0.742833
C74	C	-0.541055	-0.474419	-0.312051
H75	H	-0.584326	-0.445553	-0.314942
H76	H	-0.548084	-0.499930	-0.276132
H77	H	-0.540064	-0.499959	-0.348373
C78	C	-0.496892	-0.538869	-0.385879
H79	H	-0.489495	-0.495213	-0.380158
H80	H	-0.551052	-0.549575	-0.376635
H81	H	-0.485155	-0.549612	-0.427994
H82	H	-0.399848	-0.803092	-0.861537
C83	C	-0.280003	-0.989740	-1.072765
H84	H	-0.287377	-0.984008	-1.116419
H85	H	-0.291822	-1.031828	-1.062037
H86	H	-0.225822	-0.980592	-1.062059
H87	H	-0.256662	-0.346425	-0.293095
H88	H	-0.481835	-0.832826	-1.063343
C89	C	-0.496585	-0.821349	-0.935280
H90	H	-0.489204	-0.827078	-0.891627
H91	H	-0.550759	-0.830501	-0.945990
H92	H	-0.484772	-0.779255	-0.946002
C93	C	-0.496902	-0.272645	-0.385896
H94	H	-0.527648	-0.243792	-0.409727
H95	H	-0.531994	-0.298158	-0.361885
H96	H	-0.466087	-0.298184	-0.413236
C97	C	-0.375008	-1.024055	-0.733524
H98	H	-0.375936	-1.015966	-0.689866
H99	H	-0.325919	-1.044105	-0.744262
H100	H	-0.418873	-1.050399	-0.744242
H101	H	-0.482142	-0.666929	-0.374438
C102	C	-0.541055	-0.337011	-0.312060
H103	H	-0.530649	-0.293358	-0.311373
H104	H	-0.574917	-0.347714	-0.277931
H105	H	-0.566898	-0.347740	-0.350172
C106	C	-0.280076	-0.135220	-0.217898
H107	H	-0.287475	-0.091564	-0.223628
H108	H	-0.225917	-0.145962	-0.227142
H109	H	-0.291808	-0.145921	-0.175779
H110	H	-0.294796	-0.666925	-0.229298
C111	C	-0.280040	-0.538860	-0.217889
H112	H	-0.287439	-0.495204	-0.223618
H113	H	-0.225882	-0.549603	-0.227138
H114	H	-0.291767	-0.549562	-0.175770
C115	C	-0.280063	-0.272629	-0.217892
H116	H	-0.249322	-0.243770	-0.194067
H117	H	-0.244968	-0.298169	-0.241908
H118	H	-0.310863	-0.298140	-0.190548
C119	C	-0.280013	-0.989701	-0.935354
H120	H	-0.249288	-1.013574	-0.964219
H121	H	-0.310855	-1.016988	-0.909819
H122	H	-0.244889	-0.965726	-0.909838
C123	C	-0.374980	-1.024070	-0.870934
H124	H	-0.375875	-1.015989	-0.914588
H125	H	-0.418848	-1.050408	-0.860204
H126	H	-0.325893	-1.044121	-0.860229
H127	H	-0.294816	-0.978216	-0.659770
C128	C	-0.280128	-0.989655	-0.531718
H129	H	-0.249404	-1.013527	-0.560586
H130	H	-0.310977	-1.016944	-0.506190
H131	H	-0.245001	-0.965689	-0.506196
