data_functionalizedCrystal
_audit_creation_method	'MofGen! by Chris Wilmer'
_symmetry_space_group_name_H-M	'P1'
_symmetry_Int_Tables_number	1
_symmetry_cell_setting	triclinic
loop_
_symmetry_equiv_pos_as_xyz
  x,y,z
_cell_length_a	15.298114
_cell_length_b	15.299816
_cell_length_c	11.169409
_cell_angle_alpha	99.647603
_cell_angle_beta	99.666835
_cell_angle_gamma	69.256891
loop_
_atom_site_label
_atom_site_type_symbol
_atom_site_fract_x
_atom_site_fract_y
_atom_site_fract_z
Zn1	Zn	1.485572	-0.615756	-0.477842
Zn2	Zn	1.985572	-0.115756	0.022158
Zn3	Zn	1.512356	-0.771234	-0.306803
Zn4	Zn	2.012356	-0.271234	0.193197
Zn5	Zn	1.330078	-0.588932	-0.306852
Zn6	Zn	1.830078	-0.088932	0.193148
Zn7	Zn	1.356935	-0.744294	-0.537081
Zn8	Zn	1.856935	-0.244294	-0.037081
O9	O	1.421235	-0.680054	-0.407145
O10	O	1.921235	-0.180054	0.092855
O11	O	1.619244	-0.658881	-0.430341
O12	O	2.119244	-0.158881	0.069659
O13	O	1.488146	-0.747099	-0.138878
O14	O	1.988146	-0.247099	0.361122
O15	O	1.328256	-0.462403	-0.304763
O16	O	1.828256	0.037597	0.195237
O17	O	1.638922	-0.773110	-0.304680
O18	O	2.138922	-0.273110	0.195320
O19	O	1.442497	-0.482110	-0.430388
O20	O	1.942497	0.017890	0.069612
O21	O	1.354227	-0.613163	-0.138914
O22	O	1.854227	-0.113163	0.361086
O23	O	1.203522	-0.587041	-0.362205
O24	O	1.703522	-0.087041	0.137795
O25	O	1.374030	-0.727195	-0.697155
O26	O	1.874030	-0.227195	-0.197155
O27	O	1.223254	-0.701185	-0.531353
O28	O	1.723254	-0.201185	-0.031353
O29	O	1.468539	-0.632759	-0.653632
O30	O	1.968539	-0.132759	-0.153632
O31	O	1.514188	-0.897748	-0.362122
O32	O	2.014188	-0.397748	0.137878
O33	O	1.400001	-0.877955	-0.531306
O34	O	1.900001	-0.377955	-0.031306
C35	C	1.179650	-0.638279	-0.453213
C36	C	1.679650	-0.138279	0.046787
C37	C	1.076302	-0.620430	-0.472955
C38	C	1.576302	-0.120430	0.027045
C39	C	0.825895	-0.807630	-0.266348
C40	C	1.325895	-0.307630	0.233652
C41	C	0.922995	-0.824399	-0.247792
C42	C	1.422995	-0.324399	0.252208
C43	C	0.961327	-0.773409	-0.304081
C44	C	1.461327	-0.273409	0.195919
C45	C	0.902549	-0.705646	-0.378930
C46	C	1.402549	-0.205646	0.121070
C47	C	0.805438	-0.688870	-0.397481
C48	C	1.305438	-0.188870	0.102519
C49	C	0.940870	-0.654649	-0.435214
C50	C	1.440870	-0.154649	0.064786
C51	C	0.882091	-0.586886	-0.510062
C52	C	1.382091	-0.086886	-0.010062
C53	C	0.784991	-0.570114	-0.528611
C54	C	1.284991	-0.070114	-0.028611
C55	C	0.746659	-0.621104	-0.472321
C56	C	1.246659	-0.121104	0.027679
C57	C	1.037980	-0.671425	-0.416662
C58	C	1.537980	-0.171425	0.083338
C59	C	1.017523	-0.552664	-0.547795
C60	C	1.517523	-0.052664	-0.047795
C61	C	0.920423	-0.535895	-0.566352
C62	C	1.420423	-0.035895	-0.066352
C63	C	1.462941	-0.921586	-0.453158
C64	C	1.962941	-0.421586	0.046842
C65	C	1.480867	-1.024929	-0.472867
C66	C	1.980867	-0.524929	0.027133
C67	C	1.293720	-1.275533	-0.266576
C68	C	1.793720	-0.775533	0.233424
C69	C	1.276872	-1.178436	-0.248063
C70	C	1.776872	-0.678436	0.251937
C71	C	1.327870	-1.140055	-0.304262
C72	C	1.827870	-0.640055	0.195738
C73	C	1.395718	-1.198779	-0.378978
C74	C	1.895718	-0.698779	0.121022
C75	C	1.412562	-1.295885	-0.397501
C76	C	1.912562	-0.795885	0.102499
C77	C	1.446712	-1.160406	-0.435186
C78	C	1.946712	-0.660406	0.064814
C79	C	1.514559	-1.219131	-0.509903
C80	C	2.014559	-0.719131	-0.009903
C81	C	1.531401	-1.316227	-0.528421
C82	C	2.031401	-0.816227	-0.028421
C83	C	1.480404	-1.354609	-0.472222
C84	C	1.980404	-0.854609	0.027778
C85	C	1.429867	-1.063301	-0.416663
C86	C	1.929867	-0.563301	0.083337
C87	C	1.548709	-1.083653	-0.547588
C88	C	2.048709	-0.583653	-0.047588
C89	C	1.565557	-1.180750	-0.566102
C90	C	2.065557	-0.680750	-0.066102
C91	C	1.663765	-0.721993	-0.360897
C92	C	2.163765	-0.221993	0.139103
C93	C	1.767116	-0.739864	-0.341189
C94	C	2.267116	-0.239864	0.158811
C95	C	1.421292	-0.679964	-0.720153
C96	C	1.921292	-0.179964	-0.220153
C97	C	1.421316	-0.679926	-0.853539
C98	C	1.921316	-0.179926	-0.353539
C99	C	1.379393	-0.437583	-0.360973
C100	C	1.879393	0.062417	0.139027
C101	C	1.361562	-0.334257	-0.341298
C102	C	1.861562	0.165743	0.158702
C103	C	1.421221	-0.680086	-0.095331
C104	C	1.921221	-0.180086	0.404669
C105	C	1.421332	-0.679894	0.038139
C106	C	1.921332	-0.179894	0.538139
H107	H	0.872552	-0.480722	-0.627294
H108	H	1.372552	0.019278	-0.127294
H109	H	1.374625	-1.015495	-0.355829
H110	H	1.874625	-0.515495	0.144171
Cl111	Cl	1.306363	-1.017933	-0.281468
Cl112	Cl	1.806363	-0.517933	0.218532
Cl113	Cl	1.229604	-1.323787	-0.195957
Cl114	Cl	1.729604	-0.823787	0.304043
H115	H	1.048731	-0.511141	-0.593627
H116	H	1.548731	-0.011141	-0.093627
H117	H	0.667594	-0.607457	-0.487431
H118	H	1.167594	-0.107457	0.012569
H119	H	1.221630	-1.130626	-0.187231
H120	H	1.721630	-0.630626	0.312769
H121	H	0.737134	-0.514930	-0.589548
H122	H	1.237134	-0.014930	-0.089548
Cl123	Cl	1.111861	-0.756611	-0.322572
Cl124	Cl	1.611861	-0.256611	0.177428
Cl125	Cl	0.996877	-0.909564	-0.153673
Cl126	Cl	1.496877	-0.409564	0.346327
H127	H	1.494121	-1.433673	-0.487287
H128	H	1.994121	-0.933673	0.012713
Cl129	Cl	1.616678	-1.390047	-0.622378
Cl130	Cl	2.116678	-0.890047	-0.122378
H131	H	1.620799	-1.228577	-0.626937
H132	H	2.120799	-0.728577	-0.126937
H133	H	1.590234	-1.052404	-0.593353
H134	H	2.090234	-0.552404	-0.093353
H135	H	1.040391	-0.787066	-0.288967
H136	H	1.540391	-0.287066	0.211033
H137	H	0.794675	-0.849133	-0.220517
H138	H	1.294675	-0.349133	0.279483
