data_functionalizedCrystal
_audit_creation_method	'MofGen! by Chris Wilmer'
_symmetry_space_group_name_H-M	'P1'
_symmetry_Int_Tables_number	1
_symmetry_cell_setting	triclinic
loop_
_symmetry_equiv_pos_as_xyz
  x,y,z
_cell_length_a	27.440280
_cell_length_b	23.096457
_cell_length_c	23.096457
_cell_angle_alpha	60.008701
_cell_angle_beta	90.008258
_cell_angle_gamma	59.994523
loop_
_atom_site_label
_atom_site_type_symbol
_atom_site_fract_x
_atom_site_fract_y
_atom_site_fract_z
Zr1	Zr	0.469495	0.633676	-0.075975
O2	O	0.391661	0.754472	-0.168417
O3	O	0.493354	0.512887	-0.047641
O4	O	0.493332	0.633675	-0.168426
O5	O	0.391702	0.633683	0.047651
O6	O	0.573534	0.633666	-0.168430
O7	O	0.391683	0.633685	-0.047631
O8	O	0.573573	0.417598	0.047634
O9	O	0.391663	0.849750	-0.168413
O10	O	0.563385	0.562560	-0.035555
O11	O	0.503545	0.562565	0.035556
O12	O	0.503520	0.704778	-0.106654
O13	O	0.443680	0.704783	-0.035543
Zr14	Zr	0.597438	0.633659	0.075983
Zr15	Zr	0.597408	0.633661	-0.075981
Zr16	Zr	0.469526	0.633674	0.075988
Zr17	Zr	0.469498	0.785633	-0.075969
Zr18	Zr	0.597435	0.481701	0.075976
O19	O	0.573580	0.754448	0.047648
O20	O	0.573537	0.754451	-0.168425
O21	O	0.391704	0.754469	0.047656
O22	O	0.675273	0.512862	0.168424
O23	O	0.675229	0.512866	-0.047649
O24	O	0.493397	0.512883	0.168432
O25	O	0.675232	0.633652	-0.047643
O26	O	0.573601	0.633660	0.168434
O27	O	0.493399	0.633669	0.168437
O28	O	0.675251	0.633650	0.047639
O29	O	0.493337	0.849739	-0.168417
O30	O	0.573597	0.417596	0.168425
O31	O	0.675271	0.417584	0.168420
O32	O	0.675246	0.417586	0.047629
O33	O	0.391687	0.849748	-0.047622
O34	O	0.493361	0.849737	-0.047626
O35	O	0.563414	0.562557	0.106661
O36	O	0.623253	0.562552	0.035551
O37	O	0.563388	0.704769	-0.035549
O38	O	0.503548	0.704775	0.035562
C39	C	0.533463	0.443592	-0.000004
C40	C	0.533461	0.379082	-0.000007
C41	C	0.564693	0.348778	-0.037129
C42	C	0.564699	0.288156	-0.037123
C43	C	0.533461	0.257851	-0.000005
C44	C	0.502228	0.288159	0.037125
C45	C	0.502228	0.348775	0.037124
N46	N	0.482615	0.195462	-0.005150
N47	N	0.482616	0.137881	-0.005153
C48	C	0.533461	0.075219	0.000001
N49	N	0.584303	0.072321	0.005145
N50	N	0.584301	0.129910	0.005144
C51	C	0.533458	0.192124	0.000001
C52	C	0.564702	-0.020819	-0.037116
C53	C	0.564709	-0.081446	-0.037105
C54	C	0.502233	-0.081435	0.037138
C55	C	0.502231	-0.020815	0.037132
C56	C	0.533464	0.009492	0.000001
C57	C	0.373467	0.633686	0.000011
C58	C	0.319165	0.633692	0.000013
C59	C	-0.017543	0.633650	-0.052489
C60	C	-0.068561	0.633644	-0.052489
O61	O	-0.094945	0.633614	-0.097117
N62	N	-0.094069	0.633645	0.000001
C63	C	-0.068552	0.633643	0.052500
O64	O	-0.094932	0.633642	0.097148
C65	C	-0.017532	0.633643	0.052503
C66	C	0.007969	0.633651	0.000004
C67	C	0.007958	0.633657	-0.104983
C68	C	0.058972	0.633664	-0.104983
C69	C	0.084484	0.633665	-0.052489
C70	C	0.058983	0.633658	0.000004
C71	C	0.007986	0.633635	0.105004
C72	C	0.059009	0.633635	0.105002
C73	C	0.084510	0.633642	0.052504
C74	C	0.135508	0.633666	0.052498
N75	N	0.161016	0.633665	0.000007
C76	C	0.135504	0.633665	-0.052487
C77	C	-0.175696	0.633642	0.052491
C78	C	-0.226717	0.633647	0.052486
C79	C	-0.226722	0.633647	-0.052503
C80	C	-0.175702	0.633647	-0.052500
C81	C	-0.150188	0.633641	0.000000
C82	C	0.242636	0.633681	-0.052483
C83	C	0.293653	0.633692	-0.052481
C84	C	0.293655	0.633688	0.052510
C85	C	0.242641	0.633681	0.052506
C86	C	0.217134	0.633675	0.000006
O87	O	0.161926	0.633692	0.097104
O88	O	0.161895	0.633655	-0.097122
C89	C	0.693466	0.633649	-0.000003
C90	C	0.747769	0.633643	-0.000006
C91	C	0.533429	0.633671	-0.190080
C92	C	0.533416	0.633672	-0.254592
C93	C	0.533471	0.823743	0.000012
C94	C	0.533472	0.888253	0.000014
C95	C	0.502170	0.707906	-0.322009
C96	C	0.502185	0.707907	-0.382626
C97	C	0.533438	0.633670	-0.375821
C98	C	0.564691	0.559426	-0.308392
C99	C	0.564680	0.559427	-0.247778
N100	N	0.529125	0.578414	-0.443379
N101	N	0.529133	0.578418	-0.500962
C102	C	0.533475	0.633662	-0.558446
N103	N	0.537798	0.688915	-0.556178
N104	N	0.537787	0.688913	-0.498590
C105	C	0.533454	0.633661	-0.441543
C106	C	0.502244	0.707903	-0.691593
C107	C	0.502263	0.707901	-0.752209
C108	C	0.564765	0.559418	-0.677974
C109	C	0.564750	0.559422	-0.617360
C110	C	0.533486	0.633667	-0.624174
C111	C	0.533505	0.633664	0.190087
C112	C	0.533518	0.633663	0.254600
C113	C	0.693462	0.443573	-0.000011
C114	C	0.747763	0.379057	-0.000016
C115	C	0.533501	0.443589	0.190079
C116	C	0.533512	0.379078	0.254589
C117	C	0.693500	0.443570	0.190072
C118	C	0.747814	0.379053	0.254580
C119	C	0.373433	0.823765	-0.190065
C120	C	0.319119	0.888282	-0.254572
C121	C	0.373471	0.823761	0.000019
C122	C	0.319170	0.888278	0.000024
C123	C	0.533433	0.823746	-0.190072
C124	C	0.533421	0.888257	-0.254582
C125	C	0.742013	0.348764	-0.037141
C126	C	0.793030	0.288153	-0.037160
C127	C	0.849796	0.257831	-0.000050
C128	C	0.855545	0.288131	0.037076
C129	C	0.804529	0.348745	0.037091
C130	C	0.564768	0.348779	0.322006
C131	C	0.564777	0.288172	0.382626
C132	C	0.533533	0.257862	0.375827
C133	C	0.502273	0.288167	0.308403
C134	C	0.502261	0.348777	0.247785
C135	C	0.804562	0.348752	0.247754
C136	C	0.855600	0.288140	0.308360
C137	C	0.849890	0.257825	0.375791
C138	C	0.793137	0.288132	0.382615
C139	C	0.742099	0.348748	0.322010
C140	C	0.262372	0.918590	-0.247747
C141	C	0.211333	0.979221	-0.308353
C142	C	0.217044	1.009539	-0.375783
C143	C	0.273797	0.979228	-0.382608
C144	C	0.324834	0.918602	-0.322002
C145	C	0.324920	0.918577	0.037142
C146	C	0.273904	0.979205	0.037145
C147	C	0.217138	1.009529	0.000032
C148	C	0.211388	0.979227	-0.037091
C149	C	0.262405	0.918604	-0.037097
C150	C	0.564672	0.918548	-0.247760
C151	C	0.564672	0.979155	-0.308368
C152	C	0.533419	1.009474	-0.375797
C153	C	0.502168	0.979177	-0.382617
C154	C	0.502171	0.918567	-0.322010
H155	H	0.590136	0.003856	-0.067347
H156	H	0.165163	1.003925	-0.067307
H157	H	0.257714	0.893935	-0.067322
H158	H	0.175481	1.058904	-0.425126
C159	C	0.599065	-0.114780	-0.077941
H160	H	0.617660	-0.088040	-0.100059
H161	H	0.628639	-0.172008	-0.045909
H162	H	0.572084	-0.104840	-0.113063
C163	C	-0.020049	0.633613	0.162760
H164	H	0.002465	0.633601	0.194025
H165	H	-0.059946	0.681099	0.141215
H166	H	-0.019947	0.586109	0.188686
C167	C	0.467853	0.012551	0.077937
H168	H	0.472325	0.052994	0.072618
H169	H	0.426749	0.036200	0.059596
H170	H	0.483283	-0.030953	0.126775
C171	C	0.214583	0.633687	0.110245
H172	H	0.237085	0.633688	0.141507
H173	H	0.174685	0.681175	0.088683
H174	H	0.214682	0.586185	0.136177
H175	H	0.590122	0.893872	-0.192861
C176	C	0.679577	0.382111	-0.077971
H177	H	0.683468	0.355388	-0.100087
H178	H	0.658377	0.372178	-0.045937
H179	H	0.658372	0.439343	-0.113093
C180	C	0.467749	1.012580	-0.456790
H181	H	0.449126	0.985874	-0.452180
H182	H	0.438192	1.069807	-0.481931
H183	H	0.494688	1.002669	-0.482015
C184	C	0.148911	1.012551	-0.300837
H185	H	0.119329	1.053007	-0.346586
H186	H	0.144443	0.969033	-0.275657
H187	H	0.144450	1.036188	-0.275641
H188	H	0.590120	1.003816	-0.302801
C189	C	-0.254783	0.633626	-0.110235
H190	H	-0.288815	0.633612	-0.102707
H191	H	-0.266422	0.681113	-0.155554
H192	H	-0.226423	0.586123	-0.108047
C193	C	-0.020100	0.633663	-0.162734
H194	H	0.002399	0.633673	-0.193995
H195	H	-0.020014	0.586174	-0.141187
H196	H	-0.059997	0.681164	-0.188665
H197	H	0.476715	0.768362	-0.327564
H198	H	0.476721	0.893911	-0.327574
H199	H	0.278439	1.003921	-0.437517
C200	C	0.087068	0.633638	0.162750
H201	H	0.064567	0.633641	0.194008
H202	H	0.126965	0.586151	0.188677
H203	H	0.086968	0.681141	0.141185
C204	C	0.599054	0.382107	-0.077960
H205	H	0.594580	0.422551	-0.072649
H206	H	0.640161	0.338586	-0.059634
H207	H	0.583612	0.405759	-0.126795
H208	H	-0.154942	0.633653	-0.095248
C209	C	-0.254766	0.633648	0.110230
H210	H	-0.232259	0.633644	0.141493
H211	H	-0.294663	0.681136	0.088674
H212	H	-0.254668	0.586146	0.136161
C213	C	0.599093	0.477766	-0.543198
H214	H	0.594608	0.488398	-0.508073
H215	H	0.583654	0.447287	-0.537915
H216	H	0.640208	0.447238	-0.537848
H217	H	0.788337	0.263490	-0.067393
H218	H	0.533421	1.058827	-0.425142
H219	H	-0.154927	0.633643	0.095242
H220	H	0.590132	0.263478	-0.067352
H221	H	0.278596	1.003867	0.067377
H222	H	0.901807	0.263470	0.302791
C223	C	0.467866	0.254830	0.077951
H224	H	0.472334	0.214395	0.072629
H225	H	0.483303	0.231181	0.126782
H226	H	0.426756	0.298354	0.059618
H227	H	0.314434	0.633692	0.095248
H228	H	0.476794	0.373449	0.067353
C229	C	0.387253	0.885260	-0.329519
H230	H	0.383339	0.911996	-0.378360
H231	H	0.408473	0.895180	-0.307419
H232	H	0.408452	0.828030	-0.307428
C233	C	0.387357	0.885232	0.077970
H234	H	0.383466	0.911972	0.100069
H235	H	0.408565	0.828004	0.113095
H236	H	0.408554	0.895166	0.045928
H237	H	0.476739	0.768359	-0.437526
C238	C	0.161025	1.076210	0.000046
H239	H	0.172585	1.089903	0.027475
H240	H	0.137932	1.123510	-0.047238
H241	H	0.137947	1.056343	0.019928
H242	H	0.476811	0.373438	0.192893
H243	H	0.476799	-0.106109	0.067360
C244	C	0.321704	0.633694	-0.110228
H245	H	0.299204	0.633683	-0.141485
H246	H	0.321612	0.681187	-0.136156
H247	H	0.361602	0.586197	-0.088663
H248	H	0.695895	0.373411	0.327577
C249	C	0.214582	0.633682	-0.110236
H250	H	0.237079	0.633695	-0.141499
H251	H	0.214673	0.586190	-0.088685
H252	H	0.174684	0.681180	-0.136165
C253	C	0.599062	0.477765	-0.300902
H254	H	0.617672	0.433552	-0.252066
H255	H	0.572095	0.474687	-0.323017
H256	H	0.628636	0.474671	-0.322992
C257	C	0.087022	0.633661	-0.162726
H258	H	0.064519	0.633651	-0.193980
H259	H	0.086933	0.681151	-0.188657
H260	H	0.126919	0.586161	-0.141160
H261	H	0.590213	0.498973	-0.672432
H262	H	0.590125	0.498975	-0.192882
H263	H	0.476821	0.768354	-0.807105
H264	H	0.476787	0.768357	-0.697142
C265	C	0.905908	0.191150	-0.000064
H266	H	0.894348	0.177449	-0.027485
H267	H	0.928992	0.211004	-0.019936
H268	H	0.928996	0.143847	0.047226
H269	H	0.901771	0.263434	0.067290
C270	C	0.599170	0.254840	0.456783
H271	H	0.617783	0.281565	0.452145
H272	H	0.572214	0.264781	0.481980
H273	H	0.628742	0.197607	0.481969
H274	H	0.809219	0.373402	0.067327
H275	H	0.533547	0.208510	0.425192
C276	C	0.599130	0.382119	0.329499
H277	H	0.617737	0.355396	0.378336
H278	H	0.628696	0.372185	0.307400
H279	H	0.572149	0.439351	0.307396
C280	C	0.906034	0.191143	0.442450
H281	H	0.940647	0.177437	0.428721
H282	H	0.906052	0.211000	0.469879
H283	H	0.906047	0.143843	0.469868
C284	C	0.467915	0.254811	0.300933
H285	H	0.472409	0.214368	0.346694
H286	H	0.426804	0.298317	0.275752
H287	H	0.483349	0.231150	0.275755
C288	C	0.256079	0.885260	-0.173581
H289	H	0.214969	0.912010	-0.178206
H290	H	0.274682	0.828033	-0.148388
H291	H	0.274693	0.895198	-0.148398
C292	C	0.810855	0.382090	0.173589
H293	H	0.851964	0.355362	0.178214
H294	H	0.792249	0.372156	0.148397
H295	H	0.792244	0.439321	0.148405
H296	H	0.788496	0.263441	0.437525
