data_functionalizedCrystal
_audit_creation_method	'MofGen! by Chris Wilmer'
_symmetry_space_group_name_H-M	'P1'
_symmetry_Int_Tables_number	1
_symmetry_cell_setting	triclinic
loop_
_symmetry_equiv_pos_as_xyz
  x,y,z
_cell_length_a	10.686285
_cell_length_b	10.685980
_cell_length_c	12.759393
_cell_angle_alpha	94.395466
_cell_angle_beta	94.398003
_cell_angle_gamma	89.665709
loop_
_atom_site_label
_atom_site_type_symbol
_atom_site_fract_x
_atom_site_fract_y
_atom_site_fract_z
Zn1	Zn	-0.352362	1.956334	0.696632
Zn2	Zn	-0.562180	1.972332	0.508600
Zn3	Zn	-0.368504	1.746546	0.506526
Zn4	Zn	-0.578151	1.762643	0.669814
O5	O	-0.465299	1.859464	0.595393
O6	O	-0.366756	2.134009	0.683781
O7	O	-0.536560	1.942339	0.361297
O8	O	-0.190815	1.760943	0.542100
O9	O	-0.520908	2.145762	0.545635
O10	O	-0.178956	1.915073	0.681770
O11	O	-0.394267	1.776455	0.359773
O12	O	-0.409753	1.573129	0.516095
O13	O	-0.548128	1.788379	0.820400
O14	O	-0.563780	1.584956	0.636062
O15	O	-0.382242	1.930683	0.840103
O16	O	-0.739846	1.957948	0.519630
O17	O	-0.751580	1.803891	0.638073
C18	C	-0.490252	1.533523	0.572944
C19	C	-0.500957	1.394087	0.563363
C20	C	-0.791228	1.884436	0.576192
C21	C	-0.930653	1.895234	0.568020
C22	C	-0.138095	1.834428	0.614695
C23	C	0.001339	1.823759	0.622920
C24	C	-0.465166	1.859542	0.869440
C25	C	-0.465109	1.859575	0.986223
C26	C	-0.440250	2.186677	0.617931
C27	C	-0.429576	2.326116	0.627535
C28	C	-0.465336	1.859451	0.322423
C29	C	-0.465021	1.859634	0.205678
C30	C	-0.378724	1.933683	1.051347
C31	C	-0.378676	1.933710	1.161076
C32	C	-0.551410	1.785517	1.140545
C33	C	-0.551451	1.785485	1.030818
C34	C	-0.279001	2.019245	1.063201
C35	C	-0.278953	2.019272	1.172930
H36	H	-0.360266	1.374595	0.689804
H37	H	-0.950222	1.754306	0.676175
C38	C	-0.594591	1.328589	0.479227
N39	N	-0.665117	1.279256	0.415858
C40	C	-0.996097	1.989060	0.496061
N41	N	-1.045390	2.059728	0.441863
C42	C	-0.646380	1.704020	1.189611
N43	N	-0.717913	1.642635	1.226567
H44	H	-0.621790	1.725134	0.977797
H45	H	-0.183844	1.985786	1.037371
C46	C	-0.316463	2.147518	1.023030
N47	N	-0.344672	2.244137	0.992774
H48	H	-0.189310	1.977414	1.210015
C49	C	-0.304060	2.153227	1.220130
N50	N	-0.322974	2.254119	1.255681
