data_functionalizedCrystal
_audit_creation_method	'MofGen! by Chris Wilmer'
_symmetry_space_group_name_H-M	'P1'
_symmetry_Int_Tables_number	1
_symmetry_cell_setting	triclinic
loop_
_symmetry_equiv_pos_as_xyz
  x,y,z
_cell_length_a	18.101389
_cell_length_b	16.120490
_cell_length_c	16.120484
_cell_angle_alpha	90.164100
_cell_angle_beta	92.879328
_cell_angle_gamma	87.085916
loop_
_atom_site_label
_atom_site_type_symbol
_atom_site_fract_x
_atom_site_fract_y
_atom_site_fract_z
Zn1	Zn	-0.492954	1.254462	-0.395775
Zn2	Zn	-0.375048	1.247309	-0.534811
Zn3	Zn	-0.362556	1.115405	-0.388709
Zn4	Zn	-0.492279	1.108314	-0.527720
O5	O	-0.430709	1.181373	-0.461754
O6	O	-0.482824	1.369879	-0.420144
O7	O	-0.269757	1.229785	-0.515440
O8	O	-0.374907	1.139813	-0.273282
O9	O	-0.396199	1.364623	-0.522293
O10	O	-0.470711	1.241978	-0.278474
O11	O	-0.260579	1.132876	-0.408099
O12	O	-0.374253	0.998099	-0.401224
O13	O	-0.596002	1.127728	-0.510208
O14	O	-0.469560	0.992889	-0.503355
O15	O	-0.596498	1.235102	-0.413268
O16	O	-0.395545	1.222909	-0.650234
O17	O	-0.481674	1.120791	-0.645025
C18	C	-0.420478	0.965322	-0.450754
C19	C	-0.416120	0.872894	-0.446068
C20	C	-0.453318	0.659923	-0.486054
C21	C	-0.408162	0.703670	-0.437520
C22	C	-0.412591	0.797835	-0.442278
C23	C	-0.448889	0.565750	-0.481297
C24	C	-0.623873	1.181422	-0.461735
C25	C	-0.706187	1.181443	-0.461727
C26	C	-1.005274	1.181499	-0.461574
C27	C	-0.973618	1.113731	-0.522350
C28	C	-0.888020	1.113890	-0.522656
C29	C	-0.856894	1.181470	-0.461650
C30	C	-0.893148	1.267879	-0.489891
C31	C	-0.978794	1.267498	-0.490294
C32	C	-0.968886	1.163628	-0.372453
C33	C	-0.883164	1.161653	-0.372862
C34	C	-0.773035	1.181460	-0.461692
C35	C	-1.089133	1.181516	-0.461534
C36	C	-0.238297	1.181375	-0.461715
C37	C	-0.155980	1.181527	-0.461497
C38	C	-0.440980	1.398267	-0.472797
C39	C	-0.445357	1.490694	-0.477504
C40	C	-0.439909	1.170327	-0.677802
C41	C	-0.443873	1.165678	-0.770233
C42	C	-0.451126	1.157194	-0.939465
C43	C	-0.410312	1.205700	-0.983210
C44	C	-0.414347	1.200980	-1.077376
C45	C	-0.447091	1.161913	-0.845290
C46	C	-0.421491	1.192484	-0.244863
C47	C	-0.417562	1.197219	-0.152437
H48	H	-0.366177	0.670404	-0.392397
H49	H	-1.002419	1.283168	-0.555575
H50	H	-0.489095	1.112125	-0.972733
H51	H	-0.495299	0.693187	-0.531174
H52	H	-0.999972	1.319463	-0.448190
H53	H	-0.863287	1.049676	-0.504468
H54	H	-0.990500	1.049313	-0.504304
H55	H	-0.998601	1.125043	-0.587912
H56	H	-0.871020	1.125328	-0.588623
C57	C	-0.359006	1.266585	-0.938265
N58	N	-0.320361	1.312439	-0.904409
H59	H	-0.873200	1.319534	-0.447211
C60	C	-0.869087	1.289536	-0.577185
N61	N	-0.850966	1.305843	-0.642938
C62	C	-0.992787	1.080296	-0.338867
N63	N	-1.010790	1.017525	-0.313581
H64	H	-0.859025	1.098086	-0.351646
H65	H	-0.861688	1.207765	-0.324818
H66	H	-0.989339	1.213041	-0.327117
