data_functionalizedCrystal
_audit_creation_method	'MofGen! by Chris Wilmer'
_symmetry_space_group_name_H-M	'P1'
_symmetry_Int_Tables_number	1
_symmetry_cell_setting	triclinic
loop_
_symmetry_equiv_pos_as_xyz
  x,y,z
_cell_length_a	16.992694
_cell_length_b	13.262508
_cell_length_c	15.455313
_cell_angle_alpha	71.426176
_cell_angle_beta	92.857794
_cell_angle_gamma	87.430197
loop_
_atom_site_label
_atom_site_type_symbol
_atom_site_fract_x
_atom_site_fract_y
_atom_site_fract_z
O1	O	1.042053	0.221433	0.019779
O2	O	0.813789	0.218954	0.020389
O3	O	0.935396	0.065713	0.056525
O4	O	0.920447	0.374673	-0.016356
O5	O	0.928442	0.074438	-0.089795
O6	O	0.806835	0.227678	-0.125930
O7	O	1.035100	0.230157	-0.126540
Cu8	Cu	0.920333	0.229714	-0.139595
Cu9	Cu	0.928556	0.219397	0.033444
O10	O	0.913493	0.383398	-0.162676
C11	C	0.781125	0.220129	-0.052015
C12	C	0.694158	0.210621	-0.049762
C13	C	0.931720	0.030359	-0.007264
C14	C	0.931119	-0.087983	0.020658
C15	C	0.643184	0.302359	-0.071403
C16	C	0.561468	0.293420	-0.069307
C17	C	0.530728	0.192741	-0.045562
C18	C	0.581708	0.100996	-0.023922
C19	C	0.663422	0.109936	-0.026026
C20	C	0.287425	0.155685	-0.036844
C21	C	0.205705	0.146751	-0.034740
C22	C	0.185471	0.339177	-0.080126
C23	C	0.267188	0.348108	-0.082222
C24	C	0.318160	0.256363	-0.060587
N25	N	0.447202	0.183601	-0.043416
N26	N	0.401684	0.265505	-0.062740
C27	C	0.914259	-0.402560	-0.219680
C28	C	0.914817	-0.291371	-0.245915
C29	C	0.918893	-0.240518	-0.179274
C30	C	0.922410	-0.300866	-0.086393
C31	C	0.921845	-0.412065	-0.060156
C32	C	0.926479	-0.250024	-0.019750
C33	C	0.929996	-0.310371	0.073130
C34	C	0.929432	-0.421559	0.099364
C35	C	0.925356	-0.472412	0.032723
C36	C	0.927044	-0.138824	-0.045988
C37	C	0.934630	-0.148330	0.113536
C38	C	0.934072	-0.259519	0.139771
C39	C	1.067764	0.228982	-0.054134
C40	C	1.154732	0.238490	-0.056381
C41	C	0.917168	0.418752	-0.098885
C42	C	0.917770	0.537093	-0.126801
N43	N	0.914554	0.236971	-0.261302
C44	C	0.966235	0.171896	-0.291351
C45	C	0.961872	0.177395	-0.383456
C46	C	0.905832	0.247974	-0.445511
C47	C	0.854146	0.313052	-0.415456
C48	C	0.858506	0.307547	-0.323352
C49	C	0.887015	0.271705	-0.722688
C50	C	0.882660	0.277207	-0.814798
C51	C	0.990386	0.141548	-0.782791
C52	C	0.994743	0.136054	-0.690687
C53	C	0.943055	0.201128	-0.660640
N54	N	0.901373	0.253598	-0.539657
N55	N	0.947511	0.195497	-0.566493
N56	N	0.934341	0.212132	0.155153
H57	H	0.519968	0.368123	-0.086928
C58	C	0.300996	0.458856	-0.108353
H59	H	0.258933	0.512214	-0.120952
H60	H	0.334872	0.463306	-0.059097
H61	H	0.330031	0.469378	-0.161150
H62	H	1.003954	0.124405	-0.407920
C63	C	0.792505	0.390690	-0.483714
H64	H	0.797315	0.384657	-0.542875
H65	H	0.741019	0.373732	-0.464843
H66	H	0.801165	0.461590	-0.485546
C67	C	0.719496	0.009027	-0.002221
H68	H	0.772563	0.028771	-0.006883
H69	H	0.712682	-0.035017	0.058473
H70	H	0.707842	-0.028920	-0.043586
H71	H	0.816421	0.360537	-0.298888
C72	C	0.830181	0.343310	-0.689649
H73	H	0.840799	0.329927	-0.625908
H74	H	0.837421	0.416004	-0.721680
H75	H	0.777259	0.328166	-0.700961
H76	H	0.143961	0.413870	-0.097742
H77	H	0.556672	0.019021	-0.004602
H78	H	0.924174	-0.089699	-0.121612
H79	H	0.668206	0.384343	-0.090738
C80	C	0.937952	-0.325904	0.241935
H81	H	0.940471	-0.279702	0.277871
H82	H	0.892168	-0.365261	0.254508
H83	H	0.983631	-0.373696	0.256457
H84	H	0.911962	-0.242244	-0.321538
C85	C	0.821014	0.354844	-0.883062
H86	H	0.825829	0.348809	-0.942220
H87	H	0.769528	0.337883	-0.864194
H88	H	0.829669	0.425746	-0.884896
C89	C	0.171892	0.036000	-0.008622
H90	H	0.213952	-0.017360	0.003955
H91	H	0.142856	0.025469	0.044168
H92	H	0.138016	0.031563	-0.057890
H93	H	0.919346	-0.149983	-0.200640
H94	H	1.011871	0.114428	-0.240831
H95	H	1.032467	0.088567	-0.807265
C96	C	0.909769	-0.458492	-0.292976
H97	H	0.907752	-0.406630	-0.352050
H98	H	0.955116	-0.505908	-0.285067
H99	H	0.863653	-0.497433	-0.287041
C100	C	0.343485	0.054769	-0.013040
H101	H	0.313471	-0.006469	0.001411
H102	H	0.373363	0.057297	-0.063943
H103	H	0.378200	0.051211	0.038114
H104	H	0.932288	-0.470691	0.174993
C105	C	0.924713	-0.594718	0.061583
H106	H	0.927383	-0.623378	0.126443
H107	H	0.877450	-0.613864	0.037061
H108	H	0.968914	-0.622370	0.039061
H109	H	0.937943	-0.106926	0.167801
C110	C	1.056383	0.058410	-0.622431
H111	H	1.086533	0.020433	-0.653518
H112	H	1.090392	0.097369	-0.596188
H113	H	1.030246	0.009510	-0.575484
