data_functionalizedCrystal
_audit_creation_method	'MofGen! by Chris Wilmer'
_symmetry_space_group_name_H-M	'P1'
_symmetry_Int_Tables_number	1
_symmetry_cell_setting	triclinic
loop_
_symmetry_equiv_pos_as_xyz
  x,y,z
_cell_length_a	12.594517
_cell_length_b	12.594516
_cell_length_c	12.594509
_cell_angle_alpha	90.026199
_cell_angle_beta	90.011478
_cell_angle_gamma	90.011939
loop_
_atom_site_label
_atom_site_type_symbol
_atom_site_fract_x
_atom_site_fract_y
_atom_site_fract_z
Zn1	Zn	1.627267	-0.423827	0.601595
Zn2	Zn	1.627158	-0.601837	0.423623
Zn3	Zn	1.449271	-0.423860	0.423655
Zn4	Zn	1.449253	-0.601751	0.601584
O5	O	1.538237	-0.512819	0.512614
O6	O	1.776198	-0.447463	0.577979
O7	O	1.603522	-0.578278	0.274681
O8	O	1.472935	-0.274910	0.447277
O9	O	1.776118	-0.578246	0.447223
O10	O	1.603708	-0.274886	0.578009
O11	O	1.472830	-0.447519	0.274705
O12	O	1.300323	-0.447436	0.447266
O13	O	1.472905	-0.578099	0.750531
O14	O	1.300310	-0.578131	0.577989
O15	O	1.603691	-0.447379	0.750540
O16	O	1.603505	-0.750772	0.447212
O17	O	1.472799	-0.750708	0.577959
C18	C	1.261696	-0.512779	0.512630
C19	C	1.143391	-0.512787	0.512663
C20	C	1.074161	-0.584012	0.583626
C21	C	1.003353	-0.486966	0.609800
C22	C	1.003400	-0.609913	0.486464
C23	C	1.074140	-0.415689	0.538888
C24	C	1.074194	-0.538702	0.415507
C25	C	1.003417	-0.441590	0.441645
C26	C	1.538167	-0.789360	0.512604
C27	C	1.538235	-0.907665	0.512635
C28	C	1.467137	-0.976923	0.583698
C29	C	1.441204	-1.047786	0.486580
C30	C	1.564265	-1.047601	0.609770
C31	C	1.512250	-0.976971	0.415465
C32	C	1.635357	-0.976779	0.538721
C33	C	1.609460	-1.047610	0.441535
C34	C	1.815858	-0.512860	0.512599
C35	C	1.934163	-0.512878	0.512592
C36	C	1.538308	-0.512726	0.790235
C37	C	1.538339	-0.512686	0.908541
C38	C	1.538336	-0.235198	0.512648
C39	C	1.538378	-0.116893	0.512662
C40	C	1.538227	-0.512835	0.236073
C41	C	1.538403	-0.512575	0.117768
C42	C	1.467227	-0.583744	0.977789
C43	C	1.564347	-0.609757	1.048564
C44	C	1.441294	-0.486609	1.048565
C45	C	1.635510	-0.538750	0.977757
C46	C	1.512391	-0.415556	0.977752
C47	C	1.609579	-0.441532	1.048495
H48	H	0.972551	-0.381327	0.381603
N49	N	1.113252	-0.566204	0.312501
N50	N	1.090636	-0.654294	0.272712
H51	H	1.118221	-0.673729	0.199962
N52	N	1.738272	-0.937594	0.566441
N53	N	1.754839	-0.839801	0.570086
H54	H	1.827522	-0.812121	0.589676
N55	N	1.338254	-1.086936	0.458913
N56	N	1.322057	-1.184722	0.453735
H57	H	1.249347	-1.212371	0.434201
N58	N	1.338299	-0.458997	1.087564
N59	N	1.264551	-0.440105	1.023889
H60	H	1.191807	-0.420612	1.051428
N61	N	1.113166	-0.659438	0.658975
N62	N	1.089252	-0.755360	0.650084
H63	H	1.116811	-0.808625	0.703296
N64	N	1.391567	-0.937974	0.658961
N65	N	1.316851	-0.880041	0.628813
H66	H	1.263476	-0.852532	0.681961
N67	N	0.964418	-0.712909	0.458715
N68	N	0.987100	-0.791361	0.515078
H69	H	0.959571	-0.864104	0.495489
H70	H	1.669813	-0.381393	1.079345
N71	N	1.112931	-0.312662	0.566788
N72	N	1.049107	-0.239292	0.586597
H73	H	1.076503	-0.166530	0.606305
H74	H	1.490197	-0.946074	0.333307
H75	H	1.669647	-1.078453	0.381382
N76	N	1.591798	-1.086525	0.712809
N77	N	1.535252	-1.063858	0.791156
H78	H	1.554688	-1.091346	0.863930
H79	H	0.972236	-0.465078	0.691933
N80	N	1.591935	-0.712728	1.087610
N81	N	1.672530	-0.724308	1.144367
H82	H	1.692011	-0.797032	1.171941
N83	N	1.391848	-0.659251	0.938849
N84	N	1.401603	-0.755357	0.961570
H85	H	1.348371	-0.808686	0.934069
N86	N	1.484772	-0.312600	0.938711
N87	N	1.396665	-0.272940	0.961358
H88	H	1.377148	-0.200225	0.933785
H89	H	1.717630	-0.560853	0.946785
