data_functionalizedCrystal
_audit_creation_method	'MofGen! by Chris Wilmer'
_symmetry_space_group_name_H-M	'P1'
_symmetry_Int_Tables_number	1
_symmetry_cell_setting	triclinic
loop_
_symmetry_equiv_pos_as_xyz
  x,y,z
_cell_length_a	21.395364
_cell_length_b	18.050589
_cell_length_c	21.395356
_cell_angle_alpha	90.022373
_cell_angle_beta	89.983509
_cell_angle_gamma	89.950351
loop_
_atom_site_label
_atom_site_type_symbol
_atom_site_fract_x
_atom_site_fract_y
_atom_site_fract_z
Zn1	Zn	0.957792	0.295378	-0.354287
Zn2	Zn	1.291125	0.628712	-0.020953
Zn3	Zn	1.624459	0.962045	0.312380
Zn4	Zn	0.957702	0.419571	-0.249520
Zn5	Zn	1.291035	0.752905	0.083813
Zn6	Zn	1.624369	1.086238	0.417147
Zn7	Zn	0.853022	0.295432	-0.249523
Zn8	Zn	1.186355	0.628765	0.083810
Zn9	Zn	1.519688	0.962099	0.417143
Zn10	Zn	0.852969	0.419564	-0.354260
Zn11	Zn	1.186302	0.752897	-0.020927
Zn12	Zn	1.519636	1.086230	0.312407
O13	O	0.905371	0.357486	-0.301898
O14	O	1.238705	0.690820	0.031436
O15	O	1.572038	1.024153	0.364769
O16	O	1.045458	0.311834	-0.340399
O17	O	1.378791	0.645167	-0.007066
O18	O	1.712125	0.978500	0.326268
O19	O	0.943800	0.403129	-0.161842
O20	O	1.277134	0.736463	0.171491
O21	O	1.610467	1.069796	0.504824
O22	O	0.866980	0.191500	-0.263433
O23	O	1.200313	0.524833	0.069900
O24	O	1.533646	0.858167	0.403233
O25	O	1.045392	0.403078	-0.263427
O26	O	1.378725	0.736411	0.069906
O27	O	1.712059	1.069744	0.403240
O28	O	0.943954	0.191461	-0.340402
O29	O	1.277287	0.524794	-0.007069
O30	O	1.610621	0.858128	0.326264
O31	O	0.866892	0.311925	-0.161845
O32	O	1.200226	0.645258	0.171488
O33	O	1.533559	0.978592	0.504822
O34	O	0.765337	0.311917	-0.263407
O35	O	1.098670	0.645251	0.069926
O36	O	1.432004	0.978584	0.403259
O37	O	0.866890	0.403064	-0.441942
O38	O	1.200223	0.736398	-0.108608
O39	O	1.533556	1.069731	0.224725
O40	O	0.765298	0.403116	-0.340357
O41	O	1.098631	0.736450	-0.007024
O42	O	1.431965	1.069783	0.326310
O43	O	0.943903	0.311826	-0.441961
O44	O	1.277236	0.645160	-0.108628
O45	O	1.610569	0.978493	0.224706
O46	O	0.943749	0.523495	-0.263401
O47	O	1.277082	0.856828	0.069932
O48	O	1.610416	1.190161	0.403265
O49	O	0.866802	0.523489	-0.340353
O50	O	1.200136	0.856822	-0.007020
O51	O	1.533469	1.190156	0.326313
C52	C	0.742584	0.357522	-0.301880
C53	C	1.075917	0.690856	0.031453
C54	C	1.409250	1.024189	0.364787
C55	C	0.672942	0.357556	-0.301887
C56	C	1.006276	0.690889	0.031446
C57	C	1.339609	1.024222	0.364779
C58	C	0.640286	0.310123	-0.342028
C59	C	0.973619	0.643456	-0.008695
C60	C	1.306953	0.976789	0.324638
C61	C	0.574851	0.310103	-0.342031
C62	C	0.908184	0.643436	-0.008698
C63	C	1.241517	0.976770	0.324636
C64	C	0.542074	0.357529	-0.301899
C65	C	0.875407	0.690863	0.031435
C66	C	1.208741	1.024196	0.364768
C67	C	0.574738	0.404966	-0.261750
C68	C	0.908072	0.738299	0.071584
C69	C	1.241405	1.071632	0.404917
C70	C	0.640172	0.404979	-0.261744
C71	C	0.973506	0.738312	0.071589
C72	C	1.306839	1.071646	0.404923
C73	C	0.438346	0.424411	-0.296867
C74	C	0.771680	0.757744	0.036466
C75	C	1.105013	1.091077	0.369800
C76	C	0.372913	0.424399	-0.296877
C77	C	0.706247	0.757732	0.036456
C78	C	1.039580	1.091065	0.369790
C79	C	0.340253	0.357489	-0.301913
C80	C	0.673587	0.690822	0.031421
C81	C	1.006920	1.024155	0.364754
C82	C	0.373034	0.290588	-0.306951
C83	C	0.706367	0.623922	0.026382
C84	C	1.039701	0.957255	0.359715
C85	C	0.438468	0.290601	-0.306946
C86	C	0.771802	0.623935	0.026388
C87	C	1.105135	0.957268	0.359721
C88	C	0.471122	0.357520	-0.301900
C89	C	0.804455	0.690854	0.031433
C90	C	1.137788	1.024187	0.364767
C91	C	0.236644	0.310030	-0.342059
C92	C	0.569978	0.643364	-0.008725
C93	C	0.903311	0.976697	0.324608
C94	C	0.171208	0.310009	-0.342057
C95	C	0.504541	0.643343	-0.008723
C96	C	0.837874	0.976676	0.324610
C97	C	0.171097	0.404879	-0.261779
C98	C	0.504430	0.738212	0.071555
C99	C	0.837763	1.071545	0.404888
C100	C	0.236532	0.404893	-0.261777
C101	C	0.569865	0.738226	0.071556
C102	C	0.903199	1.071560	0.404889
C103	C	0.269302	0.357470	-0.301921
C104	C	0.602635	0.690803	0.031413
C105	C	0.935969	1.024136	0.364746
C106	C	0.905277	0.550438	-0.301888
C107	C	1.238610	0.883772	0.031446
C108	C	1.571944	1.217105	0.364779
C109	C	0.905294	0.632984	-0.301904
C110	C	1.238628	0.966318	0.031429
C111	C	1.571961	1.299651	0.364762
C112	C	0.863473	0.832459	-0.343737
C113	C	1.196806	1.165792	-0.010404
C114	C	1.530139	1.499125	0.322930
C115	C	0.848198	0.881903	-0.286564
C116	C	1.181531	1.215236	0.046769
C117	C	1.514864	1.548569	0.380103
C118	C	0.905341	0.784115	-0.301913
C119	C	1.238675	1.117448	0.031420
C120	C	1.572008	1.450781	0.364754
C121	C	0.920633	0.881752	-0.359093
C122	C	1.253966	1.215086	-0.025760
C123	C	1.587300	1.548419	0.307574
C124	C	0.905386	0.930100	-0.301926
C125	C	1.238719	1.263433	0.031407
C126	C	1.572052	1.596766	0.364740
C127	C	0.890037	0.832471	-0.244710
C128	C	1.223370	1.165805	0.088624
C129	C	1.556703	1.499138	0.421957
C130	C	0.962498	0.832317	-0.317277
C131	C	1.295832	1.165650	0.016056
C132	C	1.629165	1.498983	0.349389
C133	C	0.947245	0.881738	-0.260065
C134	C	1.280579	1.215071	0.073268
C135	C	1.613912	1.548405	0.406602
C136	C	0.905314	0.700016	-0.301906
C137	C	1.238648	1.033350	0.031427
C138	C	1.571981	1.366683	0.364760
C139	C	0.905413	1.014196	-0.301927
C140	C	1.238746	1.347529	0.031406
C141	C	1.572080	1.680863	0.364740
C142	C	1.068794	0.357451	-0.301916
C143	C	1.402128	0.690784	0.031418
C144	C	1.735461	1.024117	0.364751
C145	C	1.138436	0.357435	-0.301923
C146	C	1.471769	0.690769	0.031410
C147	C	1.805102	1.024102	0.364743
C148	C	0.905400	0.357439	-0.465321
C149	C	1.238734	0.690772	-0.131988
C150	C	1.572067	1.024105	0.201346
C151	C	0.905413	0.357418	-0.534962
C152	C	1.238746	0.690752	-0.201629
C153	C	1.572079	1.024085	0.131704
C154	C	0.905459	1.163781	-0.301922
C155	C	1.238792	1.497114	0.031411
C156	C	1.572125	1.830447	0.364745
C157	C	0.905435	1.081235	-0.301934
C158	C	1.238768	1.414568	0.031399
C159	C	1.572101	1.747901	0.364733
C160	C	0.945572	0.309792	-1.036770
C161	C	1.278906	0.643125	-0.703436
C162	C	1.612239	0.976459	-0.370103
C163	C	0.945567	0.309810	-0.971334
C164	C	1.278901	0.643143	-0.638001
C165	C	1.612234	0.976477	-0.304668
C166	C	0.905466	0.357319	-0.938601
C167	C	1.238800	0.690653	-0.605267
C168	C	1.572133	1.023986	-0.271934
C169	C	0.865379	0.404828	-0.971308
C170	C	1.198712	0.738161	-0.637975
C171	C	1.532045	1.071494	-0.304641
C172	C	0.865389	0.404814	-1.036742
C173	C	1.198723	0.738147	-0.703409
C174	C	1.532056	1.071480	-0.370075
C175	C	0.848997	0.363218	-0.834925
C176	C	1.182330	0.696551	-0.501592
C177	C	1.515664	1.029885	-0.168259
C178	C	0.848985	0.363227	-0.769492
C179	C	1.182319	0.696560	-0.436159
C180	C	1.515652	1.029893	-0.102826
C181	C	0.905434	0.357367	-0.736780
C182	C	1.238768	0.690700	-0.403447
C183	C	1.572101	1.024033	-0.070113
C184	C	0.961896	0.351482	-0.769509
C185	C	1.295230	0.684816	-0.436175
C186	C	1.628563	1.018149	-0.102842
C187	C	0.961907	0.351468	-0.834943
C188	C	1.295240	0.684802	-0.501609
C189	C	1.628574	1.018135	-0.168276
C190	C	0.905451	0.357340	-0.867648
C191	C	1.238784	0.690673	-0.534315
C192	C	1.572117	1.024007	-0.200982
C193	C	0.945517	0.309884	-0.633128
C194	C	1.278850	0.643218	-0.299795
C195	C	1.612184	0.976551	0.033539
C196	C	0.945513	0.309908	-0.567691
C197	C	1.278847	0.643241	-0.234358
C198	C	1.612180	0.976574	0.098975
C199	C	0.865319	0.404921	-0.567666
C200	C	1.198652	0.738255	-0.234333
C201	C	1.531986	1.071588	0.099001
C202	C	0.865328	0.404902	-0.633102
C203	C	1.198662	0.738235	-0.299768
C204	C	1.531995	1.071569	0.033565
C205	C	0.905427	0.357380	-0.665829
C206	C	1.238760	0.690713	-0.332495
C207	C	1.572093	1.024046	0.000838
C208	C	0.905378	0.357480	-0.139110
C209	C	1.238712	0.690814	0.194223
C210	C	1.572045	1.024147	0.527557
C211	C	0.905487	0.357291	-0.069469
C212	C	1.238821	0.690625	0.263864
C213	C	1.572154	1.023958	0.597198
H214	H	0.263327	0.271411	-0.374742
H215	H	0.596660	0.604744	-0.041408
H216	H	0.929994	0.938077	0.291925
Br217	Br	0.804386	0.796390	-0.402606
Br218	Br	1.137719	1.129723	-0.069273
Br219	Br	1.471053	1.463057	0.264060
H220	H	0.978167	0.271188	-0.659776
H221	H	1.311500	0.604522	-0.326442
H222	H	1.644834	0.937855	0.006891
Br223	Br	1.043009	0.795988	-0.338962
Br224	Br	1.376343	1.129322	-0.005629
Br225	Br	1.709676	1.462655	0.327705
Br226	Br	0.810904	0.469411	-0.523249
Br227	Br	1.144238	0.802744	-0.189916
Br228	Br	1.477571	1.136077	0.143418
Br229	Br	0.126887	0.245625	-0.396534
Br230	Br	0.460220	0.578958	-0.063201
Br231	Br	0.793554	0.912291	0.270132
Br232	Br	0.684495	0.469354	-0.207259
Br233	Br	1.017828	0.802687	0.126074
Br234	Br	1.351162	1.136020	0.459407
Br235	Br	0.280855	0.469264	-0.207292
Br236	Br	0.614188	0.802597	0.126041
Br237	Br	0.947521	1.135931	0.459375
H238	H	0.346444	0.236103	-0.311052
H239	H	0.679777	0.569437	0.022281
H240	H	1.013110	0.902770	0.355615
Br241	Br	0.482955	0.199813	-0.313782
Br242	Br	0.816288	0.533147	0.019552
Br243	Br	1.149622	0.866480	0.352885
H244	H	0.832684	0.443578	-0.659726
H245	H	1.166018	0.776911	-0.326392
H246	H	1.499351	1.110245	0.006941
Br247	Br	0.999973	0.245344	-0.926947
Br248	Br	1.333307	0.578677	-0.593613
Br249	Br	1.666640	0.912010	-0.260280
H250	H	0.799883	0.903699	-0.273581
H251	H	1.133217	1.237032	0.059753
H252	H	1.466550	1.570366	0.393086
H253	H	0.464933	0.478901	-0.292766
H254	H	0.798266	0.812234	0.040568
H255	H	1.131600	1.145568	0.373901
H256	H	0.933549	0.903400	-0.407444
H257	H	1.266883	1.236733	-0.074111
H258	H	1.600216	1.570067	0.259222
Br259	Br	1.000017	0.245329	-1.081182
Br260	Br	1.333350	0.578662	-0.747849
Br261	Br	1.666684	0.911996	-0.414516
H262	H	1.007880	0.346679	-0.861588
H263	H	1.341214	0.680012	-0.528254
H264	H	1.674547	1.013345	-0.194921
Br265	Br	1.038512	0.343542	-0.725122
Br266	Br	1.371846	0.676875	-0.391789
Br267	Br	1.705179	1.010208	-0.058455
Br268	Br	1.006295	0.917577	-0.201060
Br269	Br	1.339628	1.250910	0.132274
Br270	Br	1.672961	1.584244	0.465607
H271	H	0.978160	0.271230	-0.541069
H272	H	1.311493	0.604563	-0.207735
H273	H	1.644826	0.937897	0.125598
H274	H	0.144411	0.443494	-0.229102
H275	H	0.477744	0.776827	0.104231
H276	H	0.811077	1.110161	0.437564
H277	H	0.803011	0.368018	-0.742849
H278	H	1.136344	0.701351	-0.409516
H279	H	1.469677	1.034684	-0.076183
Br280	Br	0.772380	0.371162	-0.879314
Br281	Br	1.105713	0.704496	-0.545980
Br282	Br	1.439047	1.037829	-0.212647
H283	H	0.346228	0.478873	-0.292777
H284	H	0.679562	0.812206	0.040556
H285	H	1.012895	1.145540	0.373890
H286	H	0.548047	0.443580	-0.229073
H287	H	0.881381	0.776913	0.104260
H288	H	1.214714	1.110247	0.437593
H289	H	0.832729	0.443511	-0.944652
H290	H	1.166062	0.776845	-0.611319
H291	H	1.499396	1.110178	-0.277985
H292	H	0.832746	0.443494	-1.063366
H293	H	1.166080	0.776828	-0.730032
H294	H	1.499413	1.110161	-0.396699
H295	H	0.877064	0.810913	-0.196345
H296	H	1.210398	1.144247	0.136988
H297	H	1.543731	1.477580	0.470321
H298	H	0.666963	0.271507	-0.374716
H299	H	1.000297	0.604840	-0.041382
H300	H	1.333630	0.938173	0.291951
H301	H	0.548257	0.271474	-0.374718
H302	H	0.881590	0.604807	-0.041384
H303	H	1.214923	0.938140	0.291949
