data_functionalizedCrystal
_audit_creation_method	'MofGen! by Chris Wilmer'
_symmetry_space_group_name_H-M	'P1'
_symmetry_Int_Tables_number	1
_symmetry_cell_setting	triclinic
loop_
_symmetry_equiv_pos_as_xyz
  x,y,z
_cell_length_a	14.853567
_cell_length_b	13.930277
_cell_length_c	14.853567
_cell_angle_alpha	89.999243
_cell_angle_beta	96.365070
_cell_angle_gamma	90.004245
loop_
_atom_site_label
_atom_site_type_symbol
_atom_site_fract_x
_atom_site_fract_y
_atom_site_fract_z
O1	O	1.196368	0.079756	-0.117704
O2	O	0.933909	0.079772	-0.131725
O3	O	1.072149	0.079767	0.006516
O4	O	1.058128	0.079762	-0.255944
O5	O	1.072130	-0.079895	0.006519
O6	O	0.933890	-0.079890	-0.131722
O7	O	1.196349	-0.079905	-0.117701
Zn8	Zn	1.065116	-0.105247	-0.124711
Zn9	Zn	1.065142	0.105114	-0.124715
O10	O	1.058109	-0.079900	-0.255941
C11	C	0.900311	-0.000057	-0.131088
C12	C	0.800227	-0.000051	-0.129184
N13	N	1.065106	-0.248814	-0.124708
C14	C	0.387693	-0.000070	-0.039019
C15	C	0.366412	-0.000073	-0.203251
C16	C	0.460446	-0.000070	-0.205042
C17	C	0.518108	-0.000066	-0.123819
C18	C	0.481736	-0.000065	-0.040806
C19	C	0.496825	-0.000061	-0.288053
C20	C	0.590864	-0.000057	-0.289846
C21	C	0.648528	-0.000060	-0.208623
C22	C	0.612150	-0.000060	-0.125607
C23	C	0.669812	-0.000056	-0.044384
C24	C	0.633437	-0.000063	0.038633
C25	C	0.539399	-0.000067	0.040417
C26	C	0.742565	-0.000055	-0.210407
C27	C	0.763855	-0.000050	-0.046172
C28	C	1.003926	-0.701081	-0.185904
C29	C	1.126382	-0.701055	-0.063519
C30	C	1.126371	-0.600559	-0.063516
C31	C	1.065138	-0.550319	-0.124709
C32	C	1.003916	-0.600576	-0.185904
C33	C	1.187598	-0.550295	-0.002328
C34	C	1.187591	-0.449793	-0.002323
C35	C	1.126353	-0.399552	-0.063512
C36	C	1.065127	-0.449814	-0.124710
C37	C	1.003894	-0.399575	-0.185902
C38	C	0.942664	-0.449835	-0.247096
C39	C	0.942677	-0.550334	-0.247094
C40	C	1.126339	-0.299053	-0.063515
C41	C	1.003883	-0.299070	-0.185903
C42	C	1.229947	-0.000075	-0.118337
C43	C	1.330031	-0.000075	-0.120241
C44	C	1.071504	-0.000061	0.040106
C45	C	1.069601	-0.000053	0.140189
N46	N	1.065160	0.248680	-0.124711
C47	C	1.058754	-0.000070	-0.289531
C48	C	1.060657	-0.000072	-0.389615
C49	C	0.979435	-0.000066	0.552723
C50	C	1.143668	-0.000076	0.574004
C51	C	1.145458	-0.000070	0.479971
C52	C	1.064235	-0.000064	0.422309
C53	C	0.981223	-0.000063	0.458680
C54	C	1.228469	-0.000080	0.443591
C55	C	1.230262	-0.000076	0.349552
C56	C	1.149039	-0.000063	0.291889
C57	C	1.066023	-0.000061	0.328266
C58	C	0.984800	-0.000055	0.270604
C59	C	0.901783	-0.000047	0.306979
C60	C	0.899999	-0.000050	0.401017
C61	C	1.150823	-0.000059	0.197851
C62	C	0.986588	-0.000052	0.176561
H63	H	0.810798	-0.000050	0.019971
H64	H	1.209795	-0.000088	0.620958
C65	C	0.787044	-0.000048	0.108803
C66	C	0.696825	-0.000059	0.127912
H67	H	0.826177	-0.000051	0.163919
H68	H	0.798070	0.055629	0.074776
H69	H	0.798071	-0.055726	0.074766
H70	H	0.685796	0.055623	0.161943
H71	H	0.685795	-0.055742	0.161953
C72	C	0.835968	-0.082120	-0.307694
C73	C	0.782552	-0.000047	-0.301649
H74	H	0.860657	-0.082111	-0.364024
H75	H	0.799721	-0.137788	-0.303590
H76	H	0.883765	-0.082112	-0.259573
H77	H	0.734751	-0.000059	-0.349766
H78	H	0.818801	0.055635	-0.305762
H79	H	0.920445	-0.000043	0.129618
C80	C	0.821620	-0.540265	-0.368059
C81	C	0.875376	-0.605581	-0.314352
H82	H	0.780068	-0.574377	-0.409577
H83	H	0.859175	-0.501061	-0.400562
H84	H	0.789147	-0.501071	-0.330461
H85	H	0.907854	-0.644770	-0.351951
H86	H	0.837816	-0.644801	-0.281847
C87	C	0.404697	-0.000061	0.116077
C88	C	0.499413	-0.000064	0.131663
H89	H	0.380011	-0.000051	0.172409
H90	H	0.384917	-0.055737	0.082639
H91	H	0.384929	0.055619	0.082625
H92	H	0.519182	-0.055748	0.165110
H93	H	0.519201	0.055617	0.165116
H94	H	0.892811	-0.408919	-0.296924
C95	C	1.248099	-0.082144	0.104447
C96	C	1.242068	-0.000070	0.157870
H97	H	1.304436	-0.082151	0.079772
H98	H	1.199991	-0.082127	0.056651
H99	H	1.243975	-0.137817	0.140695
H100	H	1.246185	0.055603	0.121620
H101	H	1.290189	-0.000079	0.205673
C102	C	0.248312	0.081996	-0.296511
C103	C	0.303029	-0.000077	-0.292526
H104	H	0.209175	0.081987	-0.351626
H105	H	0.285442	0.137664	-0.293806
H106	H	0.213197	0.081988	-0.246811
H107	H	0.338149	-0.000065	-0.342223
H108	H	0.265895	-0.055759	-0.295240
C109	C	1.308631	-0.459873	0.118658
C110	C	1.254885	-0.394552	0.064947
H111	H	1.350169	-0.425766	0.160192
H112	H	1.341110	-0.499057	0.081070
H113	H	1.271061	-0.499087	0.151149
H114	H	1.292455	-0.355342	0.032450
H115	H	1.222404	-0.355352	0.102540
H116	H	0.358072	-0.000080	0.028572
C117	C	0.881271	-0.814120	-0.205238
C118	C	0.936626	-0.756325	-0.253165
H119	H	0.839727	-0.848230	-0.246764
H120	H	0.848798	-0.774917	-0.167661
H121	H	0.917749	-0.858420	-0.168797
H122	H	0.900149	-0.712020	-0.289601
H123	H	0.969101	-0.795532	-0.290758
C124	C	0.560372	-0.000069	-0.452007
C125	C	0.630844	-0.000062	-0.381095
H126	H	0.585057	-0.000081	-0.508340
H127	H	0.524144	0.055607	-0.447899
H128	H	0.524131	-0.055749	-0.447882
H129	H	0.667081	0.055622	-0.385217
H130	H	0.667087	-0.055744	-0.385206
C131	C	1.145795	-0.814075	0.059132
C132	C	1.193682	-0.756280	0.003742
H133	H	1.187345	-0.848168	0.100662
H134	H	1.109345	-0.858381	0.022682
H135	H	1.108230	-0.774867	0.091628
H136	H	1.231242	-0.795489	-0.028759
H137	H	1.230148	-0.711969	0.040197
C138	C	1.207003	-0.663312	0.120325
C139	C	1.254895	-0.605526	0.064932
H140	H	1.248550	-0.697410	0.161854
H141	H	1.170545	-0.707614	0.083877
H142	H	1.169445	-0.624097	0.152822
H143	H	1.292449	-0.644742	0.032430
H144	H	1.291369	-0.561220	0.101385
H145	H	1.176196	-0.258136	-0.013696
H146	H	0.449870	-0.000054	-0.354180
C147	C	0.808536	0.082037	0.188872
C148	C	0.812504	-0.000038	0.243592
H149	H	0.753417	0.082043	0.149742
H150	H	0.858228	0.082022	0.153759
H151	H	0.811257	0.137709	0.226007
H152	H	0.809790	-0.055711	0.206457
H153	H	0.762798	-0.000032	0.278708
C154	C	0.824339	-0.000070	0.535719
C155	C	0.808753	-0.000055	0.441003
H156	H	0.768008	-0.000082	0.560405
H157	H	0.857783	0.055603	0.555501
H158	H	0.857786	-0.055752	0.555486
H159	H	0.775312	0.055631	0.421236
H160	H	0.775295	-0.055734	0.421213
H161	H	0.911844	-0.000055	0.582344
H162	H	0.954016	-0.258171	-0.235731
C163	C	1.321740	0.081988	0.561691
C164	C	1.317743	-0.000090	0.506974
H165	H	1.376859	0.081983	0.600821
H166	H	1.272049	0.081987	0.596804
H167	H	1.319038	0.137658	0.524553
H168	H	1.320438	-0.055761	0.544112
H169	H	1.367448	-0.000098	0.471858
H170	H	1.297860	-0.000082	0.319944
