data_functionalizedCrystal
_audit_creation_method	'MofGen! by Chris Wilmer'
_symmetry_space_group_name_H-M	'P1'
_symmetry_Int_Tables_number	1
_symmetry_cell_setting	triclinic
loop_
_symmetry_equiv_pos_as_xyz
  x,y,z
_cell_length_a	21.295420
_cell_length_b	21.295417
_cell_length_c	18.215399
_cell_angle_alpha	89.967848
_cell_angle_beta	89.980259
_cell_angle_gamma	90.026289
loop_
_atom_site_label
_atom_site_type_symbol
_atom_site_fract_x
_atom_site_fract_y
_atom_site_fract_z
Zn1	Zn	0.962325	-0.250687	-0.416093
Zn2	Zn	1.295659	0.082647	-0.082759
Zn3	Zn	1.628992	0.415980	0.250574
Zn4	Zn	0.962237	-0.355958	-0.293017
Zn5	Zn	1.295570	-0.022624	0.040316
Zn6	Zn	1.628903	0.310709	0.373649
Zn7	Zn	0.857057	-0.250699	-0.293040
Zn8	Zn	1.190391	0.082635	0.040293
Zn9	Zn	1.523724	0.415968	0.373627
Zn10	Zn	0.857018	-0.355914	-0.416042
Zn11	Zn	1.190351	-0.022581	-0.082709
Zn12	Zn	1.523684	0.310753	0.250624
O13	O	0.909659	-0.303314	-0.354548
O14	O	1.242993	0.030019	-0.021215
O15	O	1.576326	0.363352	0.312119
O16	O	1.050403	-0.264664	-0.399778
O17	O	1.383736	0.068669	-0.066444
O18	O	1.717069	0.402002	0.266889
O19	O	0.948264	-0.342018	-0.190036
O20	O	1.281597	-0.008685	0.143297
O21	O	1.614930	0.324649	0.476631
O22	O	0.871075	-0.162608	-0.309394
O23	O	1.204408	0.170726	0.023940
O24	O	1.537742	0.504059	0.357273
O25	O	1.050338	-0.342006	-0.309355
O26	O	1.383671	-0.008673	0.023979
O27	O	1.717004	0.324660	0.357312
O28	O	0.948415	-0.162599	-0.399800
O29	O	1.281748	0.170735	-0.066467
O30	O	1.615081	0.504068	0.266867
O31	O	0.870989	-0.264685	-0.190053
O32	O	1.204322	0.068649	0.143281
O33	O	1.537656	0.401982	0.476614
O34	O	0.768963	-0.264642	-0.309345
O35	O	1.102296	0.068691	0.023988
O36	O	1.435629	0.402024	0.357322
O37	O	0.871008	-0.341932	-0.519033
O38	O	1.204341	-0.008599	-0.185700
O39	O	1.537674	0.324735	0.147633
O40	O	0.768934	-0.341944	-0.399714
O41	O	1.102267	-0.008610	-0.066381
O42	O	1.435600	0.324723	0.266952
O43	O	0.948377	-0.264622	-0.519070
O44	O	1.281710	0.068711	-0.185737
O45	O	1.615043	0.402045	0.147597
O46	O	0.948225	-0.444041	-0.309306
O47	O	1.281559	-0.110708	0.024027
O48	O	1.614892	0.222625	0.357361
O49	O	0.870922	-0.444009	-0.399692
O50	O	1.204255	-0.110676	-0.066359
O51	O	1.537588	0.222657	0.266975
C52	C	0.746108	-0.303290	-0.354527
C53	C	1.079441	0.030043	-0.021194
C54	C	1.412774	0.363377	0.312139
C55	C	0.676140	-0.303295	-0.354536
C56	C	1.009473	0.030038	-0.021202
C57	C	1.342806	0.363372	0.312131
C58	C	0.176715	-0.263137	-0.401719
C59	C	0.510048	0.070196	-0.068385
C60	C	0.843381	0.403530	0.264948
C61	C	0.242457	-0.263132	-0.401719
C62	C	0.575791	0.070201	-0.068385
C63	C	0.909124	0.403534	0.264948
C64	C	0.275300	-0.303333	-0.354565
C65	C	0.608633	0.030000	-0.021232
C66	C	0.941967	0.363333	0.312102
C67	C	0.242395	-0.343553	-0.307421
C68	C	0.575728	-0.010220	0.025912
C69	C	0.909062	0.323113	0.359245
C70	C	0.176654	-0.343561	-0.307428
C71	C	0.509987	-0.010228	0.025905
C72	C	0.843320	0.323105	0.359239
N73	N	0.378495	-0.308079	-0.290125
N74	N	0.711828	0.025254	0.043208
N75	N	1.045161	0.358588	0.376541
N76	N	0.440946	-0.308068	-0.290121
N77	N	0.774279	0.025266	0.043212
N78	N	1.107613	0.358599	0.376545
C79	C	0.473375	-0.303313	-0.354543
C80	C	0.806708	0.030021	-0.021210
C81	C	1.140041	0.363354	0.312123
N82	N	0.440993	-0.298557	-0.418972
N83	N	0.774326	0.034777	-0.085638
N84	N	1.107659	0.368110	0.247695
N85	N	0.378536	-0.298565	-0.418975
N86	N	0.711869	0.034769	-0.085642
N87	N	1.045202	0.368102	0.247692
C88	C	0.346585	-0.303329	-0.354553
C89	C	0.679919	0.030004	-0.021220
C90	C	1.013252	0.363337	0.312114
C91	C	0.577558	-0.263093	-0.401688
C92	C	0.910891	0.070240	-0.068354
C93	C	1.244224	0.403574	0.264979
C94	C	0.643301	-0.263093	-0.401689
C95	C	0.976635	0.070241	-0.068356
C96	C	1.309968	0.403574	0.264978
C97	C	0.643238	-0.343511	-0.307385
C98	C	0.976571	-0.010177	0.025948
C99	C	1.309904	0.323156	0.359282
C100	C	0.577495	-0.343514	-0.307391
C101	C	0.910828	-0.010181	0.025943
C102	C	1.244162	0.323152	0.359276
C103	C	0.544659	-0.303302	-0.354541
C104	C	0.877992	0.030031	-0.021208
C105	C	1.211326	0.363365	0.312126
C106	C	0.909577	-0.466866	-0.354507
C107	C	1.242910	-0.133532	-0.021174
C108	C	1.576243	0.199801	0.312159
C109	C	0.909599	-0.536834	-0.354514
C110	C	1.242932	-0.203501	-0.021181
C111	C	1.576266	0.129833	0.312152
C112	C	0.949887	-0.569696	-0.307499
C113	C	1.283220	-0.236363	0.025835
C114	C	1.616553	0.096970	0.359168
C115	C	0.949916	-0.635439	-0.307515
C116	C	1.283250	-0.302106	0.025818
C117	C	1.616583	0.031228	0.359151
C118	C	0.909647	-0.668316	-0.354540
C119	C	1.242980	-0.334983	-0.021206
C120	C	1.576313	-0.001650	0.312127
C121	C	0.869356	-0.635446	-0.401565
C122	C	1.202689	-0.302113	-0.068231
C123	C	1.536023	0.031221	0.265102
C124	C	0.869332	-0.569705	-0.401552
C125	C	1.202666	-0.236371	-0.068219
C126	C	1.535999	0.096962	0.265115
N127	N	0.854579	-0.771578	-0.360143
N128	N	1.187913	-0.438245	-0.026810
N129	N	1.521246	-0.104911	0.306523
N130	N	0.854604	-0.834030	-0.360151
N131	N	1.187937	-0.500696	-0.026818
N132	N	1.521270	-0.167363	0.306516
C133	C	0.909717	-0.866391	-0.354582
C134	C	1.243051	-0.533058	-0.021249
C135	C	1.576384	-0.199724	0.312085
N136	N	0.964807	-0.833942	-0.348991
N137	N	1.298140	-0.500609	-0.015657
N138	N	1.631473	-0.167275	0.317676
N139	N	0.964781	-0.771485	-0.348979
N140	N	1.298115	-0.438151	-0.015646
N141	N	1.631448	-0.104818	0.317688
C142	C	0.909668	-0.739602	-0.354559
C143	C	1.243002	-0.406268	-0.021226
C144	C	1.576335	-0.072935	0.312108
C145	C	0.950040	-0.970539	-0.307582
C146	C	1.283374	-0.637206	0.025752
C147	C	1.616707	-0.303872	0.359085
C148	C	0.950071	-1.036283	-0.307603
C149	C	1.283404	-0.702949	0.025730
C150	C	1.616738	-0.369616	0.359063
C151	C	0.869505	-1.036289	-0.401649
C152	C	1.202839	-0.702955	-0.068316
C153	C	1.536172	-0.369622	0.265018
C154	C	0.869480	-0.970546	-0.401631
C155	C	1.202814	-0.637213	-0.068298
C156	C	1.536147	-0.303880	0.265035
C157	C	0.909747	-0.937675	-0.354594
C158	C	1.243080	-0.604342	-0.021260
C159	C	1.576414	-0.271009	0.312073
C160	C	1.073849	-0.303339	-0.354569
C161	C	1.407183	0.029995	-0.021236
C162	C	1.740516	0.363328	0.312097
C163	C	1.143818	-0.303349	-0.354578
C164	C	1.477151	0.029984	-0.021245
C165	C	1.810484	0.363317	0.312088
C166	C	0.909698	-0.303271	-0.546501
C167	C	1.243031	0.030063	-0.213168
C168	C	1.576364	0.363396	0.120166
C169	C	0.909714	-0.303252	-0.628300
C170	C	1.243047	0.030081	-0.294967
C171	C	1.576381	0.363414	0.038367
C172	C	0.909759	-0.139124	-0.354605
C173	C	1.243093	0.194209	-0.021272
C174	C	1.576426	0.527543	0.312062
C175	C	0.909802	-0.069156	-0.354629
C176	C	1.243135	0.264178	-0.021296
C177	C	1.576468	0.597511	0.312037
C178	C	0.950014	-0.262959	-0.816514
C179	C	1.283348	0.070374	-0.483181
C180	C	1.616681	0.403707	-0.149848
C181	C	0.950022	-0.262941	-0.893373
C182	C	1.283355	0.070392	-0.560040
C183	C	1.616689	0.403726	-0.226707
C184	C	0.869458	-0.343448	-0.893323
C185	C	1.202791	-0.010115	-0.559990
C186	C	1.536125	0.323219	-0.226657
C187	C	0.869448	-0.343463	-0.816466
C188	C	1.202781	-0.010129	-0.483133
C189	C	1.536114	0.323204	-0.149799
C190	C	0.909730	-0.303219	-0.778064
C191	C	1.243063	0.030114	-0.444730
C192	C	1.576396	0.363447	-0.111397
C193	C	0.909747	-0.303186	-0.931780
C194	C	1.243081	0.030147	-0.598446
C195	C	1.576414	0.363480	-0.265113
C196	C	0.909755	-0.303167	-1.015113
C197	C	1.243088	0.030167	-0.681780
C198	C	1.576422	0.363500	-0.348447
C199	C	0.909721	-0.303238	-0.694725
C200	C	1.243054	0.030095	-0.361391
C201	C	1.576388	0.363429	-0.028058
C202	C	0.909657	-0.303312	-0.163342
C203	C	1.242991	0.030021	0.169992
C204	C	1.576324	0.363355	0.503325
C205	C	0.909763	-0.303153	-0.081543
C206	C	1.243096	0.030180	0.251790
C207	C	1.576430	0.363514	0.585123
H208	H	0.982676	-0.542935	-0.269200
H209	H	1.316009	-0.209601	0.064134
H210	H	1.649343	0.123732	0.397467
N211	N	0.993461	-0.219556	-0.775097
N212	N	1.326794	0.113778	-0.441763
N213	N	1.660128	0.447111	-0.108430
H214	H	1.022615	-0.245151	-0.743212
H215	H	1.355949	0.088182	-0.409878
H216	H	1.689282	0.421515	-0.076545
H217	H	1.018939	-0.194061	-0.811171
H218	H	1.352272	0.139273	-0.477838
H219	H	1.685606	0.472606	-0.144504
N220	N	0.825991	-0.386892	-0.775000
N221	N	1.159324	-0.053559	-0.441667
N222	N	1.492657	0.279775	-0.108334
H223	H	0.851547	-0.416074	-0.743103
H224	H	1.184881	-0.082741	-0.409770
H225	H	1.518214	0.250592	-0.076437
H226	H	0.796836	-0.361267	-0.743161
H227	H	1.130169	-0.027934	-0.409828
H228	H	1.463502	0.305399	-0.076494
N229	N	0.993523	-1.071733	-0.256889
N230	N	1.326857	-0.738399	0.076444
N231	N	1.660190	-0.405066	0.409778
H232	H	1.022694	-1.098964	-0.286831
H233	H	1.356027	-0.765630	0.046502
H234	H	1.689361	-0.432297	0.379836
H235	H	1.018983	-1.040892	-0.227099
H236	H	1.352317	-0.707559	0.106234
H237	H	1.685650	-0.374226	0.439568
N238	N	0.277810	-0.386914	-0.256559
N239	N	0.611144	-0.053580	0.076774
N240	N	0.944477	0.279753	0.410107
H241	H	0.305090	-0.416112	-0.286401
H242	H	0.638424	-0.082779	0.046933
H243	H	0.971757	0.250554	0.380266
H244	H	0.305044	-0.361246	-0.222514
H245	H	0.638377	-0.027913	0.110819
H246	H	0.971710	0.305420	0.444153
N247	N	0.141299	-0.219760	-0.452563
N248	N	0.474632	0.113573	-0.119230
N249	N	0.807966	0.446906	0.214104
H250	H	0.172119	-0.194282	-0.482424
H251	H	0.505452	0.139051	-0.149090
H252	H	0.838786	0.472384	0.184243
H253	H	0.114022	-0.245414	-0.486575
H254	H	0.447355	0.087920	-0.153241
H255	H	0.780689	0.421253	0.180092
H256	H	0.269248	-0.230384	-0.440105
H257	H	0.602581	0.102950	-0.106772
H258	H	0.935914	0.436283	0.226562
N259	N	0.993465	-0.219511	-0.934846
N260	N	1.326798	0.113823	-0.601513
N261	N	1.660131	0.447156	-0.268179
H262	H	1.018977	-0.194019	-0.898853
H263	H	1.352311	0.139315	-0.565520
H264	H	1.685644	0.472648	-0.232187
H265	H	1.022586	-0.245125	-0.966737
H266	H	1.355920	0.088208	-0.633404
H267	H	1.689253	0.421541	-0.300071
H268	H	0.149869	-0.376308	-0.269040
H269	H	0.483202	-0.042975	0.064294
H270	H	0.816536	0.290358	0.397627
N271	N	0.542136	-0.219727	-0.452542
N272	N	0.875469	0.113606	-0.119209
N273	N	1.208802	0.446940	0.214125
H274	H	0.572955	-0.194255	-0.482411
H275	H	0.906288	0.139079	-0.149078
H276	H	1.239621	0.472412	0.184256
H277	H	0.514860	-0.245390	-0.486545
H278	H	0.848194	0.087943	-0.153212
H279	H	1.181527	0.421277	0.180121
N280	N	0.678787	-0.219724	-0.452541
N281	N	1.012120	0.113610	-0.119208
N282	N	1.345454	0.446943	0.214125
H283	H	0.648007	-0.194252	-0.482409
H284	H	0.981340	0.139081	-0.149075
H285	H	1.314674	0.472414	0.184258
H286	H	0.706066	-0.190560	-0.422643
H287	H	1.039399	0.142773	-0.089310
H288	H	1.372732	0.476106	0.244024
N289	N	0.826075	-1.071740	-0.452376
N290	N	1.159409	-0.738406	-0.119042
N291	N	1.492742	-0.405073	0.214291
H292	H	0.832204	-1.118374	-0.445252
H293	H	1.165538	-0.785040	-0.111919
H294	H	1.498871	-0.451707	0.221414
H295	H	0.781118	-1.060294	-0.440872
H296	H	1.114452	-0.726961	-0.107539
H297	H	1.447785	-0.393628	0.225794
H298	H	0.836524	-0.542948	-0.439839
H299	H	1.169858	-0.209614	-0.106505
H300	H	1.503191	0.123719	0.226828
N301	N	0.993469	-0.935080	-0.256853
N302	N	1.326803	-0.601746	0.076480
N303	N	1.660136	-0.268413	0.409813
H304	H	1.019000	-0.965876	-0.227074
H305	H	1.352334	-0.632543	0.106259
H306	H	1.685667	-0.299210	0.439592
H307	H	1.022574	-0.907757	-0.286834
H308	H	1.355908	-0.574424	0.046499
H309	H	1.689241	-0.241091	0.379832
N310	N	0.678651	-0.386877	-0.256531
N311	N	1.011984	-0.053543	0.076802
N312	N	1.345318	0.279790	0.410136
H313	H	0.725290	-0.380772	-0.263681
H314	H	1.058624	-0.047439	0.069653
H315	H	1.391957	0.285895	0.402986
H316	H	0.667145	-0.377026	-0.203992
H317	H	1.000479	-0.043692	0.129341
H318	H	1.333812	0.289641	0.462674
N319	N	0.542005	-0.386879	-0.256540
N320	N	0.875339	-0.053546	0.076793
N321	N	1.208672	0.279788	0.410127
H322	H	0.553434	-0.431867	-0.267871
H323	H	0.886767	-0.098534	0.065463
H324	H	1.220101	0.234799	0.398796
H325	H	0.553444	-0.376989	-0.203998
H326	H	0.886777	-0.043656	0.129335
H327	H	1.220111	0.289677	0.462669
N328	N	0.993372	-0.670894	-0.256805
N329	N	1.326705	-0.337561	0.076529
N330	N	1.660038	-0.004228	0.409862
H331	H	1.018877	-0.640095	-0.227006
H332	H	1.352211	-0.306761	0.106327
H333	H	1.685544	0.026572	0.439660
H334	H	0.967770	-0.698212	-0.222729
H335	H	1.301103	-0.364879	0.110604
H336	H	1.634436	-0.031545	0.443937
N337	N	0.825924	-0.670902	-0.452287
N338	N	1.159257	-0.337569	-0.118954
N339	N	1.492590	-0.004235	0.214380
H340	H	0.832050	-0.717536	-0.445159
H341	H	1.165383	-0.384203	-0.111826
H342	H	1.498717	-0.050869	0.221507
H343	H	0.780968	-0.659453	-0.440783
H344	H	1.114301	-0.326120	-0.107450
H345	H	1.447634	0.007213	0.225884
N346	N	0.826022	-0.935097	-0.452336
N347	N	1.159355	-0.601763	-0.119003
N348	N	1.492689	-0.268430	0.214331
H349	H	0.800514	-0.965898	-0.482128
H350	H	1.133847	-0.632565	-0.148795
H351	H	1.467181	-0.299232	0.184538
H352	H	0.796897	-0.907864	-0.422340
H353	H	1.130230	-0.574531	-0.089006
H354	H	1.463563	-0.241197	0.244327
H355	H	0.836663	-0.376214	-0.924600
H356	H	1.169997	-0.042881	-0.591267
H357	H	1.503330	0.290452	-0.257934
