data_functionalizedCrystal
_audit_creation_method	'MofGen! by Chris Wilmer'
_symmetry_space_group_name_H-M	'P1'
_symmetry_Int_Tables_number	1
_symmetry_cell_setting	triclinic
loop_
_symmetry_equiv_pos_as_xyz
  x,y,z
_cell_length_a	14.908571
_cell_length_b	29.839131
_cell_length_c	14.908308
_cell_angle_alpha	86.738717
_cell_angle_beta	89.824947
_cell_angle_gamma	86.737317
loop_
_atom_site_label
_atom_site_type_symbol
_atom_site_fract_x
_atom_site_fract_y
_atom_site_fract_z
Zn1	Zn	1.345126	-0.234441	0.587534
Zn2	Zn	1.353655	-0.305498	0.437159
Zn3	Zn	1.203447	-0.225812	0.428533
Zn4	Zn	1.194683	-0.304964	0.578811
O5	O	1.274228	-0.267679	0.508009
O6	O	1.472080	-0.247701	0.574847
O7	O	1.340967	-0.291540	0.310191
O8	O	1.222340	-0.164094	0.449665
O9	O	1.478346	-0.299907	0.464367
O10	O	1.326430	-0.170433	0.566482
O11	O	1.230610	-0.232995	0.303854
O12	O	1.076461	-0.232477	0.441208
O13	O	1.207402	-0.298997	0.705792
O14	O	1.070022	-0.290630	0.551616
O15	O	1.317932	-0.247184	0.712201
O16	O	1.332468	-0.368290	0.455909
O17	O	1.215672	-0.367898	0.559980
C18	C	1.040617	-0.260560	0.494530
C19	C	0.940676	-0.257526	0.488784
C20	C	1.274068	-0.384395	0.507955
C21	C	1.274080	-0.434330	0.507967
C22	C	0.746229	-0.312463	0.592802
C23	C	0.652326	-0.309614	0.587407
C24	C	0.658964	-0.248976	0.472604
C25	C	0.752867	-0.251825	0.477999
C26	C	0.796497	-0.283570	0.538099
C27	C	0.890402	-0.286422	0.543489
C28	C	0.897038	-0.225781	0.428692
C29	C	0.803135	-0.222932	0.423297
C30	C	1.335143	-0.744176	0.453910
C31	C	1.335252	-0.931853	0.453951
O32	O	1.387043	-0.956286	0.407948
N33	N	1.274410	-0.955128	0.508088
C34	C	1.213541	-0.931481	0.562223
O35	O	1.161800	-0.955585	0.608278
C36	C	1.213437	-0.743805	0.562186
C37	C	1.274276	-0.720532	0.508038
C38	C	1.395978	-0.720903	0.399768
C39	C	1.395947	-0.673987	0.399754
C40	C	1.335081	-0.650343	0.453883
C41	C	1.274245	-0.673615	0.508025
C42	C	1.152572	-0.720159	0.616325
C43	C	1.152553	-0.673237	0.616312
C44	C	1.213393	-0.649964	0.562165
C45	C	1.213348	-0.603055	0.562140
N46	N	1.274189	-0.579780	0.508003
C47	C	1.335056	-0.603424	0.453875
C48	C	1.213598	-1.030014	0.562237
C49	C	1.213623	-1.076933	0.562245
C50	C	1.335336	-1.077302	0.453975
C51	C	1.335306	-1.030382	0.453962
C52	C	1.274440	-1.006739	0.508100
C53	C	1.334986	-0.504895	0.453850
C54	C	1.334947	-0.457974	0.453839
C55	C	1.213238	-0.457609	0.562112
C56	C	1.213273	-0.504526	0.562121
C57	C	1.274154	-0.528168	0.507987
O58	O	1.161590	-0.578594	0.608127
O59	O	1.386803	-0.579313	0.407842
C60	C	1.335174	-0.791093	0.453923
C61	C	1.274339	-0.814366	0.508065
C62	C	1.213472	-0.790722	0.562194
C63	C	1.274363	-0.861284	0.508074
C64	C	1.335230	-0.884928	0.453945
C65	C	1.396072	-0.861654	0.399808
C66	C	1.396041	-0.814737	0.399794
C67	C	1.152630	-0.813996	0.616331
C68	C	1.152666	-0.860913	0.616339
C69	C	1.213532	-0.884557	0.562211
C70	C	1.508750	-0.274826	0.521542
C71	C	1.608690	-0.277872	0.527309
C72	C	1.260738	-0.273993	0.742533
C73	C	1.254989	-0.276684	0.842474
C74	C	1.274411	-0.150508	0.508085
C75	C	1.274490	-0.100577	0.508117
C76	C	1.287717	-0.261358	0.274401
C77	C	1.293639	-0.258546	0.174471
C78	C	1.359279	-0.227777	1.036946
C79	C	1.353881	-0.230304	1.130849
C80	C	1.238790	-0.284262	1.124184
C81	C	1.244189	-0.281735	1.030281
C82	C	1.304436	-0.253492	0.986666
C83	C	1.309839	-0.250968	0.892761
C84	C	1.194744	-0.304924	0.886097
C85	C	1.189345	-0.307450	0.980000
H86	H	0.781753	-0.338314	0.641733
H87	H	1.408340	-0.204783	1.001435
H88	H	1.445491	-0.655041	0.355666
H89	H	0.767599	-0.197085	0.374367
H90	H	1.103115	-0.879858	0.660431
H91	H	1.384490	-0.439027	0.409742
H92	H	1.140292	-0.330444	1.015524
O93	O	1.368260	-0.223466	0.850427
C94	C	1.347362	-0.178715	0.872286
H95	H	1.274049	-0.174958	0.893956
H96	H	1.392448	-0.169907	0.929582
C97	C	1.452707	-0.151421	0.762878
C98	C	1.362661	-0.146805	0.789486
H99	H	1.462147	-0.131736	0.711805
H100	H	1.466789	-0.181570	0.748153
H101	H	1.490268	-0.144081	0.810632
H102	H	1.325102	-0.154150	0.741737
H103	H	1.348572	-0.116656	0.804201
H104	H	1.150089	-0.325864	0.845148
O105	O	1.407250	-0.205310	1.179558
C106	C	1.461563	-0.179832	1.120921
H107	H	1.468497	-0.196526	1.054153
H108	H	1.429259	-0.144443	1.109055
C109	C	1.546644	-0.156753	1.245097
C110	C	1.555168	-0.177259	1.163093
H111	H	1.604383	-0.155163	1.271111
H112	H	1.510051	-0.173916	1.284603
H113	H	1.519721	-0.127264	1.235197
H114	H	1.582080	-0.206748	1.172995
H115	H	1.591768	-0.160100	1.123590
O116	O	0.932883	-0.317198	0.601920
C117	C	0.983879	-0.294877	0.663219
H118	H	0.999795	-0.260386	0.632433
H119	H	0.943877	-0.290686	0.727789
C120	C	1.052574	-0.365112	0.722352
C121	C	1.072129	-0.322751	0.684537
H122	H	1.107008	-0.382306	0.735506
H123	H	1.018214	-0.380151	0.681056
H124	H	1.019236	-0.361613	0.776156
H125	H	1.105455	-0.326251	0.630728
H126	H	1.106496	-0.307714	0.725824
O127	O	0.945969	-0.197776	0.375510
C128	C	1.003568	-0.223392	0.320445
H129	H	1.015791	-0.258737	0.352845
H130	H	0.971184	-0.225386	0.251717
C131	C	1.078709	-0.157521	0.269576
C132	C	1.093727	-0.200932	0.309373
H133	H	1.134323	-0.143667	0.262742
H134	H	1.039902	-0.140263	0.306671
H135	H	1.051720	-0.159189	0.212307
H136	H	1.120705	-0.199264	0.366645
H137	H	1.132542	-0.218190	0.272287
H138	H	1.164032	-1.010767	0.606324
O139	O	1.154605	-1.099523	0.614972
C140	C	1.169011	-1.091028	0.705725
H141	H	1.240569	-1.080406	0.714461
H142	H	1.119427	-1.062974	0.726397
C143	C	1.067177	-1.147040	0.754406
C144	C	1.155068	-1.133998	0.765137
H145	H	1.058572	-1.173545	0.791055
H146	H	1.057468	-1.152762	0.693264
H147	H	1.025867	-1.123659	0.771632
H148	H	1.196376	-1.157377	0.747900
H149	H	1.164783	-1.128281	0.826278
O150	O	1.455231	-0.792204	0.347176
C151	C	1.508938	-0.823141	0.299394
H152	H	1.509912	-0.857662	0.336418
H153	H	1.479999	-0.825323	0.229183
C154	C	1.604182	-0.764958	0.246555
C155	C	1.605385	-0.807356	0.292032
H156	H	1.663675	-0.755221	0.242010
H157	H	1.567998	-0.744115	0.278743
H158	H	1.580063	-0.766782	0.188051
H159	H	1.629494	-0.805531	0.350539
H160	H	1.641576	-0.828199	0.259853
O161	O	1.180334	-0.311680	1.166703
C162	C	1.187307	-0.308380	1.260364
H163	H	1.255987	-0.296132	1.277200
H164	H	1.132488	-0.283541	1.283935
C165	C	1.091848	-0.369915	1.287412
C166	C	1.176205	-0.354876	1.308091
H167	H	1.084995	-0.398595	1.316854
H168	H	1.087146	-0.372137	1.224311
H169	H	1.046174	-0.349212	1.307055
H170	H	1.221876	-0.375576	1.288438
H171	H	1.180914	-0.352658	1.371190
O172	O	0.603405	-0.337697	0.640413
C173	C	0.552010	-0.363654	0.585999
H174	H	0.541856	-0.345500	0.517106
H175	H	0.588737	-0.397767	0.578080
C176	C	0.472443	-0.392748	0.714935
C177	C	0.459966	-0.370449	0.630322
H178	H	0.415667	-0.396942	0.742277
H179	H	0.507071	-0.375262	0.751596
H180	H	0.503052	-0.421173	0.708324
H181	H	0.429368	-0.342022	0.636935
H182	H	0.425331	-0.387930	0.593663
O183	O	1.394155	-0.527786	0.401179
C184	C	1.447850	-0.497177	0.353411
H185	H	1.411176	-0.462547	0.348146
H186	H	1.514213	-0.495109	0.390327
C187	C	1.511444	-0.555845	0.264943
C188	C	1.466397	-0.513313	0.258469
H189	H	1.522889	-0.565799	0.206380
H190	H	1.475272	-0.576467	0.297127
H191	H	1.566741	-0.554116	0.295710
H192	H	1.411096	-0.515044	0.227713
H193	H	1.502561	-0.492691	0.226278
O194	O	1.394371	-1.007821	0.401241
C195	C	1.379937	-1.016295	0.310482
H196	H	1.345494	-1.049273	0.306605
H197	H	1.335469	-0.987692	0.277487
C198	C	1.513068	-0.979133	0.265909
C199	C	1.470771	-1.019641	0.261148
H200	H	1.569098	-0.981196	0.235475
H201	H	1.522792	-0.973423	0.327055
H202	H	1.476002	-0.955302	0.238415
H203	H	1.507832	-1.043470	0.288651
H204	H	1.461056	-1.025355	0.200005
O205	O	1.093441	-0.742691	0.669011
C206	C	1.039712	-0.711751	0.716764
H207	H	1.076347	-0.679493	0.722009
H208	H	0.973341	-0.703835	0.679849
C209	C	0.976193	-0.771841	0.805269
C210	C	1.021192	-0.732223	0.811717
H211	H	0.964765	-0.784470	0.863839
H212	H	1.012388	-0.792686	0.773095
H213	H	0.920889	-0.765239	0.774502
H214	H	1.076499	-0.738827	0.842473
H215	H	0.985005	-0.711380	0.843899
H216	H	0.623424	-0.223127	0.423680
H217	H	1.102990	-0.653989	0.660401
H218	H	1.384896	-1.096561	0.409901
O219	O	1.154139	-0.527068	0.614798
C220	C	1.100393	-0.496134	0.662550
H221	H	1.137012	-0.463872	0.667798
H222	H	1.034022	-0.488225	0.625630
C223	C	1.036895	-0.556233	0.751048
C224	C	1.081876	-0.516610	0.757500
H225	H	1.025469	-0.568863	0.809616
H226	H	1.073102	-0.577074	0.718875
H227	H	0.981592	-0.549637	0.720278
H228	H	1.137183	-0.523207	0.788259
H229	H	1.045678	-0.495770	0.789681
H230	H	1.163678	-0.438351	0.606181
H231	H	1.445548	-0.740149	0.355689
H232	H	1.445629	-0.880912	0.355732
H233	H	1.103066	-0.794749	0.660410
