data_functionalizedCrystal
_audit_creation_method	'MofGen! by Chris Wilmer'
_symmetry_space_group_name_H-M	'P1'
_symmetry_Int_Tables_number	1
_symmetry_cell_setting	triclinic
loop_
_symmetry_equiv_pos_as_xyz
  x,y,z
_cell_length_a	12.645331
_cell_length_b	12.645329
_cell_length_c	16.625539
_cell_angle_alpha	89.974372
_cell_angle_beta	89.979221
_cell_angle_gamma	90.016957
loop_
_atom_site_label
_atom_site_type_symbol
_atom_site_fract_x
_atom_site_fract_y
_atom_site_fract_z
Zn1	Zn	1.620709	-0.422066	-0.455929
Zn2	Zn	1.620596	-0.599352	-0.321102
Zn3	Zn	1.443430	-0.422100	-0.321109
Zn4	Zn	1.443405	-0.599285	-0.455892
O5	O	1.532035	-0.510701	-0.388508
O6	O	1.769042	-0.445598	-0.438057
O7	O	1.597057	-0.575882	-0.208271
O8	O	1.467004	-0.273748	-0.339011
O9	O	1.768958	-0.575849	-0.339000
O10	O	1.597251	-0.273724	-0.438063
O11	O	1.466894	-0.445656	-0.208276
O12	O	1.295079	-0.445590	-0.338975
O13	O	1.466962	-0.575734	-0.568729
O14	O	1.295061	-0.575767	-0.438000
O15	O	1.597226	-0.445532	-0.568756
O16	O	1.597033	-0.747691	-0.338964
O17	O	1.466852	-0.747641	-0.437993
C18	C	1.256605	-0.510676	-0.388485
C19	C	1.138775	-0.510691	-0.388494
C20	C	1.531956	-0.786131	-0.388492
C21	C	1.532020	-0.903961	-0.388512
C22	C	1.450084	-0.948856	-0.450775
C23	C	1.450423	-1.071416	-0.451045
C24	C	1.643942	-1.071730	-0.411411
C25	C	1.643370	-0.949132	-0.411837
C26	C	1.503216	-0.949249	-0.303247
C27	C	1.500849	-1.071858	-0.303728
C28	C	0.971187	-0.428420	-0.326541
C29	C	1.093747	-0.428632	-0.326268
C30	C	1.094255	-0.622364	-0.365282
C31	C	0.971657	-0.621915	-0.364860
C32	C	0.971622	-0.482351	-0.473897
C33	C	1.094228	-0.479856	-0.473423
C34	C	1.808540	-0.510727	-0.388532
C35	C	1.926370	-0.510738	-0.388542
C36	C	1.532104	-0.510622	-0.598817
C37	C	1.532133	-0.510588	-0.688438
C38	C	1.532143	-0.234196	-0.388542
C39	C	1.532189	-0.116366	-0.388557
C40	C	1.532182	-0.510470	-1.016614
C41	C	1.532166	-0.510506	-0.925305
C42	C	1.532158	-0.510530	-0.852529
C43	C	1.532141	-0.510565	-0.761215
C44	C	1.532027	-0.510703	-0.179017
C45	C	1.532203	-0.510438	-0.089396
H46	H	1.367565	-1.101602	-0.436760
H47	H	1.366916	-0.919481	-0.436647
N48	N	1.578055	-0.912821	-0.245039
N49	N	1.569192	-0.940039	-0.173064
H50	H	1.622049	-0.914307	-0.131958
H51	H	1.468942	-0.917979	-0.513594
N52	N	1.397665	-1.108454	-0.282109
N53	N	1.319951	-1.086150	-0.325343
H54	H	1.247075	-1.112001	-0.310080
H55	H	1.124913	-0.646851	-0.303553
N56	N	1.675113	-1.110158	-0.488749
N57	N	1.615219	-1.170405	-0.527167
H58	H	1.637228	-1.197545	-0.581789
H59	H	1.556191	-1.102471	-0.254882
N60	N	0.932849	-0.381982	-0.500375
N61	N	0.871384	-0.330150	-0.456651
H62	H	0.843998	-0.259261	-0.475343
H63	H	1.469595	-1.100671	-0.514229
H64	H	1.123848	-0.345822	-0.340817
H65	H	0.941723	-0.345360	-0.340934
H66	H	0.940342	-0.446974	-0.263662
N67	N	1.722691	-1.108261	-0.356302
N68	N	1.799107	-1.161650	-0.381289
H69	H	1.854724	-1.187452	-0.342368
H70	H	1.123332	-0.397677	-0.490926
N71	N	1.402668	-0.910575	-0.277090
N72	N	1.351013	-0.849156	-0.320978
H73	H	1.279999	-0.821837	-0.302512
N74	N	1.722586	-0.911873	-0.357404
N75	N	1.778123	-0.976417	-0.319225
H76	H	1.834073	-0.950108	-0.280784
H77	H	1.667752	-0.920459	-0.474159
H78	H	1.123028	-0.447395	-0.263017
N79	N	1.132615	-0.549647	-0.534459
N80	N	1.193702	-0.623578	-0.516276
H81	H	1.220785	-0.672899	-0.559376
H82	H	0.943014	-0.645988	-0.302461
N83	N	0.934474	-0.701469	-0.419036
N84	N	0.999071	-0.757149	-0.457033
H85	H	0.972816	-0.813338	-0.495291
H86	H	1.123423	-0.685337	-0.409023
H87	H	0.942641	-0.542308	-0.520093
