data_functionalizedCrystal
_audit_creation_method	'MofGen! by Chris Wilmer'
_symmetry_space_group_name_H-M	'P1'
_symmetry_Int_Tables_number	1
_symmetry_cell_setting	triclinic
loop_
_symmetry_equiv_pos_as_xyz
  x,y,z
_cell_length_a	13.448316
_cell_length_b	14.971486
_cell_length_c	14.971494
_cell_angle_alpha	96.384157
_cell_angle_beta	89.995115
_cell_angle_gamma	90.001801
loop_
_atom_site_label
_atom_site_type_symbol
_atom_site_fract_x
_atom_site_fract_y
_atom_site_fract_z
O1	O	-0.082574	-1.186951	0.116564
O2	O	-0.082600	-0.926551	0.130523
O3	O	-0.082584	-1.063726	-0.006656
O4	O	-0.082590	-1.049776	0.253743
O5	O	0.082800	-1.063709	-0.006664
O6	O	0.082784	-0.926534	0.130515
O7	O	0.082810	-1.186934	0.116556
Cu8	Cu	0.097898	-1.056732	0.123534
Cu9	Cu	-0.097688	-1.056753	0.123544
O10	O	0.082794	-1.049758	0.253735
C11	C	0.000088	-0.893218	0.129895
C12	C	0.000078	-0.793921	0.128024
N13	N	0.235462	-1.056724	0.123527
C14	C	0.000106	-1.063093	-0.039985
C15	C	0.000102	-1.061219	-0.139281
N16	N	-0.235252	-1.056768	0.123545
C17	C	0.287510	-1.117484	0.062809
C18	C	0.391613	-1.117490	0.062808
C19	C	0.443667	-1.056739	0.123530
C20	C	0.391612	-0.995973	0.184251
C21	C	0.287510	-0.995963	0.184247
C22	C	0.608592	-0.995997	0.184257
C23	C	0.712700	-0.996007	0.184263
C24	C	0.712694	-1.117524	0.062819
C25	C	0.608593	-1.117515	0.062814
C26	C	0.556545	-1.056749	0.123536
C27	C	0.000120	-1.220267	0.117184
C28	C	0.000123	-1.319564	0.119055
C29	C	0.000078	-0.736698	0.208613
C30	C	0.000092	-0.643398	0.206850
C31	C	0.000101	-0.607323	0.124497
C32	C	0.000104	-0.664554	0.043902
C33	C	0.000096	-0.757851	0.045666
C34	C	0.000118	-0.470091	0.040231
C35	C	0.000124	-0.376787	0.038466
C36	C	0.000114	-0.355638	0.201415
C37	C	0.000106	-0.448936	0.203179
C38	C	0.000108	-0.506160	0.122583
C39	C	-0.090050	-1.060350	-0.185921
C40	C	-0.090052	-1.058584	-0.279221
C41	C	0.000100	-1.057693	-0.325879
C42	C	0.090259	-1.058559	-0.279232
C43	C	0.090259	-1.060319	-0.185933
C44	C	0.090252	-1.054893	-0.473695
C45	C	0.090252	-1.053135	-0.567000
C46	C	-0.090059	-1.053158	-0.566982
C47	C	-0.090059	-1.054918	-0.473684
C48	C	0.000100	-1.055786	-0.427043
C49	C	0.000101	-1.050392	0.287064
C50	C	0.000100	-1.052266	0.386360
H51	H	0.245134	-1.166959	0.013366
H52	H	0.000096	-0.804442	-0.019958
H53	H	0.000090	-0.478304	0.270238
H54	H	0.163662	-1.057828	-0.317227
H55	H	0.434000	-0.946503	0.233689
H56	H	0.245134	-0.946485	0.233688
H57	H	0.755077	-0.946537	0.233708
H58	H	0.000117	-0.309041	0.267038
H59	H	0.755078	-1.167001	0.013377
H60	H	-0.163463	-1.061080	-0.147940
H61	H	-0.163463	-1.057880	-0.317191
H62	H	0.000125	-0.635174	-0.023152
H63	H	0.163669	-1.055580	-0.435721
H64	H	-0.163468	-1.055650	-0.435698
H65	H	-0.163470	-1.052449	-0.604961
H66	H	0.000132	-0.347418	-0.028593
H67	H	0.163661	-1.052402	-0.604985
H68	H	0.163670	-1.061014	-0.147959
H69	H	0.000091	-0.596810	0.272473
H70	H	0.433990	-1.166965	0.013367
H71	H	0.566211	-1.166987	0.013374
H72	H	0.566218	-0.946512	0.233701
H73	H	0.000070	-0.766062	0.275674
H74	H	0.000121	-0.516681	-0.025399
