data_functionalizedCrystal
_audit_creation_method	'MofGen! by Chris Wilmer'
_symmetry_space_group_name_H-M	'P1'
_symmetry_Int_Tables_number	1
_symmetry_cell_setting	triclinic
loop_
_symmetry_equiv_pos_as_xyz
  x,y,z
_cell_length_a	17.639874
_cell_length_b	17.639220
_cell_length_c	17.639306
_cell_angle_alpha	114.289147
_cell_angle_beta	92.197205
_cell_angle_gamma	70.343913
loop_
_atom_site_label
_atom_site_type_symbol
_atom_site_fract_x
_atom_site_fract_y
_atom_site_fract_z
Zn1	Zn	-1.230692	-0.110308	-0.220867
Zn2	Zn	-1.186200	-0.231545	-0.122205
Zn3	Zn	-1.076294	-0.121619	-0.122156
Zn4	Zn	-1.076305	-0.287205	-0.287772
O5	O	-1.142373	-0.187669	-0.188250
O6	O	-1.335398	-0.098363	-0.179799
O7	O	-1.152996	-0.198403	-0.011597
O8	O	-1.115390	-0.000083	-0.107230
O9	O	-1.302710	-0.187435	-0.107313
O10	O	-1.228826	0.008227	-0.179753
O11	O	-1.072248	-0.117641	-0.011561
O12	O	-0.965687	-0.171612	-0.172105
O13	O	-1.115409	-0.282299	-0.389498
O14	O	-0.965695	-0.293267	-0.293782
O15	O	-1.228837	-0.152334	-0.340343
O16	O	-1.153007	-0.358964	-0.172188
O17	O	-1.072267	-0.399857	-0.293829
C18	C	-0.937012	-0.239707	-0.240199
C19	C	-0.849158	-0.261993	-0.262447
C20	C	-0.560211	-0.018291	-0.019186
C21	C	-0.477658	-0.039252	-0.040106
C22	C	-0.477668	-0.166052	-0.166669
C23	C	-0.560224	-0.145100	-0.145762
C24	C	-0.601489	-0.071219	-0.072019
C25	C	-0.601502	-0.198028	-0.198595
C26	C	-0.684050	-0.177080	-0.177687
C27	C	-0.725320	-0.103204	-0.103946
C28	C	-0.684037	-0.050271	-0.051111
C29	C	-0.560234	-0.271912	-0.272335
C30	C	-0.601512	-0.324840	-0.325168
C31	C	-0.684062	-0.303889	-0.304263
C32	C	-0.725332	-0.230013	-0.230522
C33	C	-0.725345	-0.356822	-0.357098
C34	C	-0.807893	-0.335874	-0.336190
C35	C	-0.807880	-0.209065	-0.209614
C36	C	-1.107835	-0.410532	-0.240285
C37	C	-1.093136	-0.505860	-0.262555
C38	C	-1.177087	-0.222263	-0.394400
C39	C	-1.191880	-0.237005	-0.482249
C40	C	-0.348536	-0.135417	-0.136088
C41	C	-0.436391	-0.113119	-0.113832
C42	C	-1.177070	0.036066	-0.136023
C43	C	-1.191856	0.131409	-0.113767
C44	C	-1.254728	0.287080	-0.019071
C45	C	-1.240830	0.197489	-0.039992
C46	C	-1.156757	0.154901	-0.166649
C47	C	-1.170645	0.244490	-0.145737
C48	C	-1.219632	0.310574	-0.071948
C49	C	-1.135548	0.267984	-0.198614
C50	C	-1.149439	0.357566	-0.177705
C51	C	-1.198425	0.423654	-0.103920
C52	C	-1.233522	0.400156	-0.051039
C53	C	-1.086566	0.201900	-0.272406
C54	C	-1.051470	0.225393	-0.325282
C55	C	-1.065355	0.314976	-0.304371
C56	C	-1.114342	0.381065	-0.230586
C57	C	-1.030259	0.338475	-0.357252
C58	C	-1.044149	0.428057	-0.336344
C59	C	-1.128233	0.470646	-0.209678
C60	C	-1.030347	-0.075279	-0.771107
C61	C	-1.044263	-0.089145	-0.853654
C62	C	-1.128337	-0.173233	-0.853671
C63	C	-1.114431	-0.159371	-0.771121
C64	C	-1.065435	-0.110394	-0.729846
C65	C	-1.149519	-0.194486	-0.729860
C66	C	-1.135612	-0.180628	-0.647318
C67	C	-1.086616	-0.131656	-0.606038
C68	C	-1.051527	-0.096536	-0.647304
C69	C	-1.198511	-0.243468	-0.771138
C70	C	-1.233599	-0.278583	-0.729877
C71	C	-1.219696	-0.264720	-0.647332
C72	C	-1.170700	-0.215748	-0.606052
C73	C	-1.254784	-0.299840	-0.606066
C74	C	-1.240877	-0.285982	-0.523524
C75	C	-1.156792	-0.201890	-0.523510
C76	C	-1.107848	-0.153137	0.017124
C77	C	-1.093246	-0.138114	0.105068
H78	H	-0.717641	0.009900	0.008929
H79	H	-1.116874	0.101085	-0.226730
H80	H	-0.493018	-0.288966	-0.289355
O81	O	-1.003784	0.161272	-0.396925
C82	C	-0.871525	0.093317	-0.475669
C83	C	-0.925447	0.165983	-0.394504
H84	H	-0.808174	0.097089	-0.473731
H85	H	-0.898803	0.103751	-0.531804
H86	H	-0.867669	0.025265	-0.481536
H87	H	-0.929324	0.234065	-0.388556
H88	H	-0.898148	0.155470	-0.338409
H89	H	-1.294670	-0.339724	-0.639687
H90	H	-1.269416	0.178367	0.003070
H91	H	-1.116904	-0.161997	-0.489897
O92	O	-1.281199	-0.326104	-0.770085
C93	C	-1.339848	-0.384770	-0.897268
C94	C	-1.285938	-0.330920	-0.851829
H95	H	-1.343683	-0.388698	-0.963372
H96	H	-1.403211	-0.350831	-0.861450
H97	H	-1.312512	-0.454708	-0.900636
H98	H	-1.313202	-0.260976	-0.848450
H99	H	-1.222580	-0.364929	-0.887664
O100	O	-1.302355	0.351171	0.052628
C101	C	-1.384230	0.383968	0.176099
C102	C	-1.330331	0.311299	0.094920
H103	H	-1.406849	0.351758	0.210324
H104	H	-1.438217	0.430292	0.160108
H105	H	-1.347472	0.423656	0.217994
H106	H	-1.367019	0.271546	0.052987
H107	H	-1.276341	0.265037	0.110973
H108	H	-0.990380	0.284658	-0.417336
O109	O	-1.073216	0.114914	-0.292687
C110	C	-1.132469	0.002140	-0.323880
C111	C	-1.147705	0.100676	-0.300894
H112	H	-1.192680	-0.009406	-0.330539
H113	H	-1.102030	-0.016102	-0.272498
H114	H	-1.091402	-0.041036	-0.385684
H115	H	-1.188790	0.143919	-0.239111
H116	H	-1.178104	0.118847	-0.352327
O117	O	-1.275047	-0.320125	-0.483549
C118	C	-1.359861	-0.405054	-0.492289
C119	C	-1.321236	-0.366411	-0.537649
H120	H	-1.397200	-0.442501	-0.536015
H121	H	-1.400834	-0.348747	-0.434011
H122	H	-1.310087	-0.452576	-0.473274
H123	H	-1.370955	-0.318900	-0.556720
H124	H	-1.280244	-0.422763	-0.595891
O125	O	-0.437617	0.012165	0.011333
C126	C	-0.396115	0.070114	0.149054
C127	C	-0.441507	0.011882	0.090902
H128	H	-0.399230	0.069890	0.213393
H129	H	-0.425410	0.141056	0.155394
H130	H	-0.330043	0.042455	0.121399
H131	H	-0.507583	0.039463	0.118511
H132	H	-0.412148	-0.059051	0.084564
O133	O	-1.073074	-0.118351	-0.525895
C134	C	-1.020005	-0.185839	-0.431778
C135	C	-1.035311	-0.201034	-0.522570
H136	H	-0.989457	-0.252675	-0.429064
H137	H	-1.080183	-0.148812	-0.389690
H138	H	-0.978991	-0.144766	-0.409374
H139	H	-1.076298	-0.242128	-0.545051
H140	H	-0.975102	-0.238021	-0.564604
H141	H	-0.841484	-0.148893	-0.149574
H142	H	-0.841502	-0.378973	-0.379212
H143	H	-1.168116	0.524455	-0.149587
H144	H	-0.444058	-0.226208	-0.226709
H145	H	-1.168226	-0.213114	-0.887290
H146	H	-0.792535	-0.086152	-0.086923
H147	H	-1.209835	-0.254746	-0.838348
H148	H	-1.015571	0.447184	-0.379403
O149	O	-1.003882	-0.048972	-0.607337
C150	C	-0.921987	0.033021	-0.616006
C151	C	-0.975912	-0.020839	-0.661372
H152	H	-0.899372	0.055798	-0.659667
H153	H	-0.867997	-0.010328	-0.597041
H154	H	-0.958722	0.093523	-0.557693
H155	H	-0.939246	-0.081344	-0.719714
H156	H	-1.029904	0.022572	-0.680274
O157	O	-0.561310	-0.396550	-0.396786
C158	C	-0.434136	-0.485053	-0.485069
C159	C	-0.479566	-0.403806	-0.403944
H160	H	-0.368034	-0.490957	-0.490874
H161	H	-0.463376	-0.476684	-0.541246
H162	H	-0.437359	-0.547709	-0.483116
H163	H	-0.476359	-0.341111	-0.405814
H164	H	-0.450314	-0.412253	-0.347802
O165	O	-1.211778	0.510656	-0.083562
C166	C	-1.152506	0.623403	-0.052449
C167	C	-1.137274	0.524857	-0.075489
H168	H	-1.092280	0.634912	-0.045933
H169	H	-1.193501	0.666633	0.009398
H170	H	-1.183021	0.641608	-0.103820
H171	H	-1.106734	0.506568	-0.024174
H172	H	-1.096312	0.481682	-0.137361
H173	H	-0.990459	-0.035386	-0.737494
O174	O	-0.600369	0.053388	0.052479
C175	C	-0.677360	0.106639	0.185518
C176	C	-0.631921	0.025396	0.104394
H177	H	-0.702867	0.084034	0.227521
H178	H	-0.729116	0.155136	0.169458
H179	H	-0.633679	0.140890	0.219658
H180	H	-0.675538	-0.008927	0.070214
H181	H	-0.580154	-0.023040	0.120509
O182	O	-1.010143	-0.054934	-0.893600
C183	C	-0.925231	0.029886	-0.884891
C184	C	-0.963838	-0.008784	-0.839547
H185	H	-0.887771	0.067192	-0.841215
H186	H	-0.974951	0.077499	-0.903861
H187	H	-0.884343	-0.026468	-0.943200
H188	H	-1.004720	0.047511	-0.781208
H189	H	-0.914077	-0.056420	-0.820640
H190	H	-0.691733	-0.416980	-0.417135
O191	O	-1.281149	0.464247	0.020660
C192	C	-1.363024	0.497044	0.144131
C193	C	-1.309125	0.424375	0.062952
H194	H	-1.385643	0.464834	0.178356
H195	H	-1.417011	0.543368	0.128139
H196	H	-1.326267	0.536732	0.186026
H197	H	-1.345813	0.384622	0.021019
H198	H	-1.255136	0.378112	0.079004
