data_functionalizedCrystal
_audit_creation_method	'MofGen! by Chris Wilmer'
_symmetry_space_group_name_H-M	'P1'
_symmetry_Int_Tables_number	1
_symmetry_cell_setting	triclinic
loop_
_symmetry_equiv_pos_as_xyz
  x,y,z
_cell_length_a	25.639240
_cell_length_b	12.594517
_cell_length_c	12.594509
_cell_angle_alpha	90.021327
_cell_angle_beta	89.958690
_cell_angle_gamma	89.967443
loop_
_atom_site_label
_atom_site_type_symbol
_atom_site_fract_x
_atom_site_fract_y
_atom_site_fract_z
Zn1	Zn	-0.208138	-1.627143	-0.601763
Zn2	Zn	-0.295580	-1.626982	-0.423744
Zn3	Zn	-0.208160	-1.449147	-0.423792
Zn4	Zn	-0.295544	-1.449078	-0.601674
O5	O	-0.251855	-1.538088	-0.512743
O6	O	-0.219743	-1.776068	-0.578166
O7	O	-0.284008	-1.603354	-0.274805
O8	O	-0.134992	-1.472855	-0.447458
O9	O	-0.283987	-1.775949	-0.447376
O10	O	-0.134976	-1.603628	-0.578212
O11	O	-0.219781	-1.472699	-0.274840
O12	O	-0.219746	-1.300192	-0.447371
O13	O	-0.283925	-1.472737	-0.750632
O14	O	-0.283946	-1.300141	-0.578060
O15	O	-0.219708	-1.603561	-0.750697
O16	O	-0.368740	-1.603286	-0.447289
O17	O	-0.368714	-1.472580	-0.578014
C18	C	-0.251845	-1.261547	-0.512712
C19	C	-0.251853	-1.143241	-0.512724
C20	C	-0.387698	-1.537937	-0.512660
C21	C	-0.445812	-1.537970	-0.512660
C22	C	-0.251810	-1.538159	-0.790364
C23	C	-0.251790	-1.538189	-0.908670
C24	C	-0.806128	-1.606215	-0.580950
C25	C	-0.860732	-1.606246	-0.580972
O26	O	-0.888929	-1.664091	-0.638949
N27	N	-0.888094	-1.538235	-0.512846
C28	C	-0.860849	-1.470181	-0.444702
O29	O	-0.889137	-1.412334	-0.386759
C30	C	-0.806246	-1.470145	-0.444687
C31	C	-0.778887	-1.538168	-0.512809
C32	C	-0.778769	-1.674232	-0.649068
C33	C	-0.724168	-1.674201	-0.649045
C34	C	-0.696927	-1.606154	-0.580904
C35	C	-0.724286	-1.538138	-0.512786
C36	C	-0.779002	-1.402086	-0.376549
C37	C	-0.724395	-1.402055	-0.376540
C38	C	-0.697036	-1.470078	-0.444662
C39	C	-0.642445	-1.470060	-0.444622
N40	N	-0.615083	-1.538071	-0.512747
C41	C	-0.642324	-1.606118	-0.580888
C42	C	-0.975520	-1.470260	-0.444741
C43	C	-1.030122	-1.470301	-0.444751
C44	C	-1.030002	-1.606365	-0.581022
C45	C	-0.975398	-1.606329	-0.581006
C46	C	-0.948158	-1.538271	-0.512867
C47	C	-0.527659	-1.606050	-0.580833
C48	C	-0.473053	-1.606017	-0.580801
C49	C	-0.473179	-1.469949	-0.444534
C50	C	-0.527780	-1.469986	-0.444562
C51	C	-0.555018	-1.538040	-0.512720
O52	O	-0.614213	-1.412242	-0.386677
O53	O	-0.614029	-1.663945	-0.638832
C54	C	-0.115482	-1.538268	-0.512850
C55	C	-0.057368	-1.538344	-0.512896
C56	C	-0.251866	-1.815708	-0.512775
C57	C	-0.251871	-1.934014	-0.512789
C58	C	-0.216887	-1.073985	-0.441778
C59	C	-0.264579	-1.003146	-0.415576
C60	C	-0.204184	-1.003282	-0.538944
C61	C	-0.299570	-1.073960	-0.486471
C62	C	-0.239144	-1.074102	-0.609885
C63	C	-0.286869	-1.003295	-0.583720
C64	C	-0.286698	-1.467056	-0.977888
C65	C	-0.299473	-1.564169	-1.048672
C66	C	-0.238984	-1.441152	-1.048685
C67	C	-0.264590	-1.635353	-0.977896
C68	C	-0.204079	-1.512270	-0.977903
C69	C	-0.216836	-1.609450	-1.048655
C70	C	-0.251863	-1.538078	-0.236202
C71	C	-0.251736	-1.538254	-0.117898
H72	H	-0.549830	-1.661459	-0.636342
N73	N	-0.947695	-1.400759	-0.375113
N74	N	-0.917240	-1.438221	-0.307308
H75	H	-0.897590	-1.389135	-0.258136
H76	H	-0.187346	-1.105024	-0.381707
N77	N	-0.278202	-1.738363	-0.939045
N78	N	-0.280438	-1.754950	-0.841302
H79	H	-0.290051	-1.827700	-0.813860
N80	N	-0.323794	-1.391672	-0.938897
N81	N	-0.360501	-1.421693	-0.880868
H82	H	-0.386702	-1.368459	-0.853330
H83	H	-0.701895	-1.729588	-0.704519
N84	N	-0.278072	-0.964023	-0.312541
N85	N	-0.280613	-0.866241	-0.296293
H86	H	-0.290139	-0.838612	-0.223523
N87	N	-0.555738	-1.400557	-0.374941
N88	N	-0.549684	-1.407705	-0.276732
H89	H	-0.569430	-1.358676	-0.227558
H90	H	-0.339902	-1.104878	-0.464230
N91	N	-0.350062	-1.591708	-1.087662
N92	N	-0.388581	-1.535183	-1.064978
H93	H	-0.424311	-1.554626	-1.092511
N94	N	-0.324018	-0.964611	-0.659018
N95	N	-0.371204	-0.987477	-0.649081
H96	H	-0.397443	-0.960156	-0.702257
H97	H	-0.228368	-1.105293	-0.691999
H98	H	-0.163870	-0.972179	-0.561057
H99	H	-0.163765	-1.490284	-0.946793
H100	H	-0.800943	-1.729644	-0.704563
H101	H	-0.187292	-1.669702	-1.079531
N102	N	-0.947462	-1.675822	-0.650595
N103	N	-0.971798	-1.736574	-0.711422
H104	H	-0.952070	-1.785657	-0.760573
H105	H	-0.228175	-1.359062	-1.079780
H106	H	-0.450779	-1.661414	-0.636274
N107	N	-0.806943	-1.332578	-0.306991
N108	N	-0.837419	-1.264749	-0.344406
H109	H	-0.857154	-1.215651	-0.295282
N110	N	-0.445355	-1.400426	-0.374938
N111	N	-0.469785	-1.339689	-0.314124
H112	H	-0.450133	-1.290580	-0.264976
H113	H	-1.052191	-1.661771	-0.636508
H114	H	-0.702219	-1.346631	-0.321054
H115	H	-1.052394	-1.414921	-0.389267
