data_functionalizedCrystal
_audit_creation_method	'MofGen! by Chris Wilmer'
_symmetry_space_group_name_H-M	'P1'
_symmetry_Int_Tables_number	1
_symmetry_cell_setting	triclinic
loop_
_symmetry_equiv_pos_as_xyz
  x,y,z
_cell_length_a	16.959455
_cell_length_b	18.101395
_cell_length_c	16.959447
_cell_angle_alpha	89.970450
_cell_angle_beta	89.983056
_cell_angle_gamma	90.028051
loop_
_atom_site_label
_atom_site_type_symbol
_atom_site_fract_x
_atom_site_fract_y
_atom_site_fract_z
Zn1	Zn	1.208344	-0.294875	-0.446913
Zn2	Zn	1.208235	-0.418728	-0.314737
Zn3	Zn	1.076166	-0.294898	-0.314751
Zn4	Zn	1.076111	-0.418672	-0.446875
O5	O	1.142214	-0.356793	-0.380819
O6	O	1.318940	-0.311318	-0.429390
O7	O	1.190693	-0.402335	-0.204128
O8	O	1.093768	-0.191262	-0.332304
O9	O	1.318860	-0.402312	-0.332280
O10	O	1.190879	-0.191245	-0.429404
O11	O	1.093662	-0.311357	-0.204138
O12	O	0.965548	-0.311304	-0.332267
O13	O	1.093675	-0.402217	-0.557491
O14	O	0.965508	-0.402240	-0.429339
O15	O	1.190825	-0.311264	-0.557519
O16	O	1.190640	-0.522353	-0.332243
O17	O	1.093569	-0.522313	-0.429325
C18	C	0.936848	-0.356769	-0.380801
C19	C	0.848991	-0.356776	-0.380812
C20	C	0.477512	-0.309404	-0.330380
C21	C	0.477519	-0.404244	-0.431304
C22	C	0.560065	-0.404233	-0.431299
C23	C	0.601338	-0.356808	-0.380833
C24	C	0.560066	-0.309393	-0.330372
C25	C	0.601344	-0.451652	-0.481754
C26	C	0.683895	-0.451644	-0.481750
C27	C	0.725169	-0.404214	-0.431287
C28	C	0.683892	-0.356797	-0.380825
C29	C	0.725165	-0.309372	-0.330359
C30	C	0.683889	-0.261951	-0.279899
C31	C	0.601340	-0.261964	-0.279909
C32	C	0.807718	-0.404201	-0.431278
C33	C	0.807718	-0.309362	-0.330351
C34	C	1.142108	-0.549204	-0.380796
C35	C	1.142135	-0.631518	-0.380812
C36	C	1.142309	-0.930609	-0.380855
C37	C	1.081376	-0.899289	-0.442088
C38	C	1.081087	-0.813671	-0.441896
C39	C	1.142223	-0.782226	-0.380834
C40	C	1.119672	-0.813380	-0.297530
C41	C	1.119279	-0.899025	-0.297896
C42	C	1.225925	-0.898956	-0.402193
C43	C	1.225433	-0.813305	-0.404020
C44	C	1.142175	-0.698367	-0.380818
C45	C	1.142354	-1.014468	-0.380866
C46	C	1.348382	-0.356818	-0.380838
C47	C	1.436239	-0.356829	-0.380846
C48	C	1.142256	-0.356732	-0.586987
C49	C	1.142274	-0.356705	-0.674844
C50	C	1.142342	-0.163631	-0.380860
C51	C	1.142396	-0.081317	-0.380877
C52	C	1.091825	-0.309260	-1.046332
C53	C	1.192863	-0.403995	-1.046308
C54	C	1.192849	-0.404012	-0.963762
C55	C	1.142322	-0.356653	-0.922497
C56	C	1.091808	-0.309277	-0.963778
C57	C	1.243357	-0.451393	-0.922475
C58	C	1.243344	-0.451413	-0.839924
C59	C	1.192820	-0.404050	-0.798658
C60	C	1.142305	-0.356671	-0.839944
C61	C	1.091777	-0.309312	-0.798678
C62	C	1.041265	-0.261929	-0.839963
C63	C	1.041284	-0.261914	-0.922511
C64	C	1.192802	-0.404064	-0.716109
C65	C	1.091760	-0.309329	-0.716125
C66	C	1.142217	-0.356801	-0.175453
C67	C	1.142352	-0.356619	-0.087597
H68	H	0.841321	-0.442813	-0.472359
H69	H	1.271322	-0.919210	-0.357595
H70	H	0.841317	-0.270737	-0.289259
C71	C	0.675607	-0.168208	-0.180130
C72	C	0.729261	-0.209827	-0.224421
H73	H	0.703622	-0.136035	-0.145877
H74	H	0.643442	-0.139917	-0.214622
H75	H	0.643377	-0.200447	-0.149842
H76	H	0.761487	-0.177588	-0.254713
H77	H	0.761439	-0.238120	-0.189924
C78	C	1.214756	-0.846530	-0.198818
C79	C	1.177723	-0.785902	-0.234275
H80	H	1.250606	-0.829569	-0.159777
H81	H	1.176158	-0.877312	-0.174945
H82	H	1.242631	-0.873819	-0.237686
H83	H	1.149843	-0.758616	-0.195407
H84	H	1.216327	-0.755108	-0.258148
H85	H	1.233933	-0.442638	-0.682499
H86	H	0.567726	-0.223357	-0.238827
H87	H	1.058156	-0.919065	-0.279821
H88	H	0.443901	-0.270793	-0.289299
C89	C	0.350981	-0.446368	-0.476124
C90	C	0.432153	-0.456371	-0.486774
H91	H	0.322974	-0.478548	-0.510376
H92	H	0.337435	-0.457151	-0.423003
H93	H	0.337483	-0.396622	-0.487785
H94	H	0.445652	-0.506116	-0.475108
H95	H	0.445704	-0.445594	-0.539908
C96	C	1.363067	-0.813385	-0.370889
C97	C	1.289966	-0.784413	-0.348201
H98	H	1.402905	-0.795545	-0.336425
H99	H	1.361267	-0.865775	-0.368277
H100	H	1.374612	-0.798471	-0.423351
H101	H	1.278419	-0.799331	-0.295741
H102	H	1.291765	-0.732011	-0.350805
H103	H	1.059196	-0.791992	-0.279130
H104	H	0.567733	-0.490268	-0.522835
C105	C	1.254252	-0.551054	-0.747065
C106	C	1.298870	-0.503491	-0.794550
H107	H	1.288534	-0.583206	-0.719057
H108	H	1.224168	-0.522851	-0.710677
H109	H	1.219802	-0.579369	-0.779262
H110	H	1.333316	-0.475172	-0.762353
H111	H	1.328967	-0.531697	-0.830943
C112	C	1.046983	-0.267160	-1.172878
C113	C	1.036301	-0.257180	-1.091707
H114	H	1.012701	-0.235011	-1.200889
H115	H	1.100095	-0.256323	-1.186409
H116	H	1.035383	-0.316916	-1.186385
H117	H	1.047907	-0.207425	-1.078198
H118	H	0.983177	-0.268012	-1.078170
H119	H	1.050618	-0.270760	-0.682533
C120	C	1.111881	-0.845336	-0.575868
C121	C	1.100114	-0.785227	-0.525285
H122	H	1.123617	-0.827777	-0.627352
H123	H	1.154578	-0.874360	-0.557085
H124	H	1.065420	-0.874630	-0.577478
H125	H	1.146577	-0.755936	-0.523670
H126	H	1.057413	-0.756191	-0.544072
C127	C	1.266136	-0.868457	-0.534011
C128	C	1.253687	-0.928036	-0.482801
H129	H	1.283274	-0.886412	-0.583774
H130	H	1.218318	-0.841829	-0.540412
H131	H	1.305270	-0.836730	-0.512580
H132	H	1.214548	-0.959761	-0.504229
H133	H	1.301511	-0.954676	-0.476401
C134	C	0.996381	-0.219901	-0.713426
C135	C	0.985726	-0.209872	-0.794598
H136	H	0.962098	-0.187760	-0.685419
H137	H	0.984774	-0.269656	-0.699893
H138	H	1.049498	-0.209074	-0.699914
H139	H	0.932611	-0.220704	-0.808111
H140	H	0.997328	-0.160105	-0.808136
H141	H	0.717495	-0.490257	-0.522838
C142	C	0.998114	-1.005691	-0.427084
C143	C	0.998214	-0.928421	-0.423245
H144	H	0.946775	-1.023675	-0.415444
H145	H	1.012920	-1.020935	-0.478582
H146	H	1.034572	-1.024865	-0.389819
H147	H	0.961760	-0.909247	-0.460514
H148	H	0.983399	-0.913170	-0.371740
C149	C	0.907467	-0.225818	-0.947925
C150	C	0.985760	-0.209839	-0.967892
H151	H	0.873190	-0.193667	-0.975941
H152	H	0.895876	-0.275567	-0.961435
H153	H	0.900235	-0.219043	-0.892855
H154	H	0.992993	-0.216619	-1.022961
H155	H	0.997354	-0.160078	-0.954387
H156	H	1.095345	-0.919835	-0.504057
C157	C	0.969445	-0.743130	-0.485518
C158	C	0.997419	-0.786093	-0.422811
H159	H	0.917787	-0.726111	-0.473733
H160	H	1.003408	-0.702009	-0.493184
H161	H	0.968155	-0.772140	-0.532161
H162	H	0.998714	-0.757082	-0.376169
H163	H	0.963447	-0.827220	-0.415135
H164	H	1.161735	-0.919746	-0.250718
H165	H	1.242439	-0.792940	-0.465328
H166	H	1.233994	-0.442558	-1.079911
H167	H	1.284485	-0.489959	-0.956079
