data_functionalizedCrystal
_audit_creation_method	'MofGen! by Chris Wilmer'
_symmetry_space_group_name_H-M	'P1'
_symmetry_Int_Tables_number	1
_symmetry_cell_setting	triclinic
loop_
_symmetry_equiv_pos_as_xyz
  x,y,z
_cell_length_a	19.805404
_cell_length_b	25.639243
_cell_length_c	19.805399
_cell_angle_alpha	90.021236
_cell_angle_beta	89.972890
_cell_angle_gamma	89.967726
loop_
_atom_site_label
_atom_site_type_symbol
_atom_site_fract_x
_atom_site_fract_y
_atom_site_fract_z
Zn1	Zn	-0.269430	-0.799285	-0.382752
Zn2	Zn	-0.382619	-0.799214	-0.269565
Zn3	Zn	-0.269454	-0.711853	-0.269573
Zn4	Zn	-0.382588	-0.711820	-0.382708
O5	O	-0.326023	-0.755543	-0.326149
O6	O	-0.284448	-0.872441	-0.367752
O7	O	-0.367630	-0.787610	-0.174849
O8	O	-0.174735	-0.723495	-0.284609
O9	O	-0.367607	-0.872389	-0.284594
O10	O	-0.174717	-0.787731	-0.367760
O11	O	-0.284489	-0.723426	-0.174855
O12	O	-0.284459	-0.638684	-0.284566
O13	O	-0.367555	-0.723439	-0.477430
O14	O	-0.367578	-0.638660	-0.367686
O15	O	-0.284418	-0.787698	-0.477463
O16	O	-0.477331	-0.787578	-0.284551
O17	O	-0.477309	-0.723370	-0.367677
C18	C	-0.326018	-0.619701	-0.326122
C19	C	-0.326033	-0.561587	-0.326127
C20	C	-0.282790	-0.201245	-0.369522
C21	C	-0.282789	-0.146641	-0.369526
O22	O	-0.246010	-0.118422	-0.406388
N23	N	-0.326020	-0.119304	-0.326167
C24	C	-0.369250	-0.146575	-0.282797
O25	O	-0.406022	-0.118309	-0.245918
C26	C	-0.369247	-0.201178	-0.282790
C27	C	-0.326018	-0.228512	-0.326156
C28	C	-0.239563	-0.228579	-0.412883
C29	C	-0.239565	-0.283179	-0.412880
C30	C	-0.282793	-0.310446	-0.369515
C31	C	-0.326019	-0.283112	-0.326153
C32	C	-0.412473	-0.228448	-0.239417
C33	C	-0.412466	-0.283055	-0.239413
C34	C	-0.369236	-0.310389	-0.282779
C35	C	-0.369249	-0.364980	-0.282784
N36	N	-0.326018	-0.392316	-0.326142
C37	C	-0.282790	-0.365050	-0.369508
C38	C	-0.369253	-0.031904	-0.282815
C39	C	-0.369260	0.022698	-0.282824
C40	C	-0.282798	0.022628	-0.369552
C41	C	-0.282795	-0.031975	-0.369545
C42	C	-0.326022	-0.059241	-0.326173
C43	C	-0.282797	-0.479715	-0.369498
C44	C	-0.282804	-0.534320	-0.369492
C45	C	-0.369264	-0.534246	-0.282762
C46	C	-0.369259	-0.479645	-0.282770
C47	C	-0.326020	-0.452381	-0.326140
O48	O	-0.406008	-0.393233	-0.245938
O49	O	-0.246018	-0.393322	-0.406375
C50	C	-0.501879	-0.755477	-0.326123
C51	C	-0.577111	-0.755496	-0.326135
C52	C	-1.038891	-0.789105	-0.282961
C53	C	-0.968203	-0.789080	-0.282947
C54	C	-0.932873	-0.755612	-0.326185
C55	C	-0.968235	-0.722162	-0.369435
C56	C	-1.038922	-0.722184	-0.369444
C57	C	-0.683161	-0.722071	-0.369397
C58	C	-0.612469	-0.722052	-0.369386
C59	C	-0.612442	-0.788967	-0.282901
C60	C	-0.683130	-0.788989	-0.282910
C61	C	-0.718485	-0.755538	-0.326156
C62	C	-0.795134	-0.755564	-0.326169
C63	C	-0.856226	-0.755588	-0.326176
C64	C	-0.149480	-0.755624	-0.326190
C65	C	-0.074248	-0.755659	-0.326208
C66	C	-0.325980	-0.755573	-0.502692
C67	C	-0.325962	-0.755585	-0.577924
C68	C	-0.326028	0.108084	-0.326177
C69	C	-0.326029	0.049970	-0.326188
C70	C	-0.282671	-0.789046	-0.613286
C71	C	-0.282651	-0.789051	-0.683975
C72	C	-0.325927	-0.755598	-0.719300
C73	C	-0.369220	-0.722134	-0.683933
C74	C	-0.369236	-0.722126	-0.613246
C75	C	-0.369157	-0.722163	-0.969006
C76	C	-0.369139	-0.722174	-1.039699
C77	C	-0.282572	-0.789089	-1.039735
C78	C	-0.282588	-0.789081	-0.969048
C79	C	-0.325879	-0.755615	-0.933687
C80	C	-0.325898	-0.755609	-0.857039
C81	C	-0.325911	-0.755607	-0.795947
C82	C	-0.326017	-0.755544	-0.150293
C83	C	-0.325844	-0.755633	-0.075062
H84	H	-0.404461	-0.556456	-0.247457
O85	O	-0.415848	-0.686055	-0.930895
H86	H	-0.450304	-0.709418	-0.898677
H87	H	-0.204358	-0.206384	-0.448197
O88	O	-1.076984	-0.825213	-0.236327
H89	H	-1.109127	-0.851814	-0.266664
O90	O	-0.415883	-0.061312	-0.236035
H91	H	-0.469020	-0.050815	-0.247556
H92	H	-0.711940	-0.694829	-0.404606
H93	H	-0.404468	-0.457389	-0.247466
H94	H	-0.247597	0.044839	-0.404861
H95	H	-0.711892	-0.816245	-0.247704
H96	H	-0.939415	-0.816314	-0.247732
O97	O	-0.574310	-0.825053	-0.236258
H98	H	-0.519221	-0.819416	-0.243510
O99	O	-0.459090	-0.198974	-0.192634
H100	H	-0.489135	-0.227116	-0.162474
O101	O	-0.459092	-0.312464	-0.192634
H102	H	-0.489152	-0.284280	-0.162487
H103	H	-0.583705	-0.694796	-0.404597
H104	H	-0.247321	-0.816337	-1.068535
H105	H	-0.404381	-0.694930	-1.068458
O106	O	-0.930134	-0.686063	-0.416073
H107	H	-0.875040	-0.691670	-0.408808
H108	H	-0.404453	-0.694893	-0.712700
O109	O	-0.236166	-0.450312	-0.416277
H110	H	-0.206117	-0.478499	-0.446430
H111	H	-0.247433	-0.816289	-0.584530
H112	H	-1.067709	-0.694952	-0.404664
O113	O	-0.415927	-0.686035	-0.575100
H114	H	-0.385630	-0.659445	-0.542902
H115	H	-0.247401	-0.816300	-0.712763
O116	O	-0.235916	-0.825166	-0.930949
H117	H	-0.201489	-0.801778	-0.898740
O118	O	-0.236170	-0.563803	-0.416260
H119	H	-0.206105	-0.535665	-0.446407
H120	H	-0.204362	-0.305430	-0.448192
H121	H	-0.404470	0.044949	-0.247519
O122	O	-0.236161	-0.061456	-0.416309
H123	H	-0.206101	-0.033317	-0.446458
