data_functionalizedCrystal
_audit_creation_method	'MofGen! by Chris Wilmer'
_symmetry_space_group_name_H-M	'P1'
_symmetry_Int_Tables_number	1
_symmetry_cell_setting	triclinic
loop_
_symmetry_equiv_pos_as_xyz
  x,y,z
_cell_length_a	10.654550
_cell_length_b	16.109301
_cell_length_c	9.730223
_cell_angle_alpha	90.006472
_cell_angle_beta	89.997197
_cell_angle_gamma	83.973206
loop_
_atom_site_label
_atom_site_type_symbol
_atom_site_fract_x
_atom_site_fract_y
_atom_site_fract_z
O1	O	1.666249	0.116775	0.114192
O2	O	1.300620	0.127900	0.114218
O3	O	1.493479	0.001366	0.114190
O4	O	1.473391	0.243309	0.114220
O5	O	1.493477	0.001361	-0.114390
O6	O	1.300618	0.127895	-0.114362
O7	O	1.666248	0.116769	-0.114388
Zn8	Zn	1.483433	0.122331	-0.150667
Zn9	Zn	1.483435	0.122339	0.150497
O10	O	1.473389	0.243303	-0.114360
C11	C	1.253832	0.127081	-0.000069
C12	C	1.114422	0.124637	-0.000060
C13	C	1.492664	-0.029616	-0.000100
C14	C	1.490225	-0.121926	-0.000102
C15	C	1.033926	0.199138	-0.000054
C16	C	0.902936	0.196836	-0.000079
C17	C	0.932952	0.045526	-0.000107
C18	C	1.063939	0.047828	-0.000093
C19	C	1.598991	-0.343552	-0.000088
C20	C	1.596689	-0.430286	-0.000076
C21	C	1.367868	-0.411772	-0.000066
C22	C	1.370172	-0.325039	-0.000067
C23	C	1.485737	-0.290932	-0.000085
C24	C	1.481131	-0.464398	-0.000072
C25	C	1.478634	-0.558439	-0.000060
C26	C	1.488234	-0.196885	-0.000095
C27	C	1.713036	0.117589	-0.000098
C28	C	1.852446	0.120033	-0.000098
C29	C	1.474203	0.274286	-0.000067
C30	C	1.476643	0.366596	-0.000056
N31	N	1.483437	0.122338	0.356033
N32	N	1.483441	0.122325	-0.356203
C33	C	1.568994	0.066420	0.427947
C34	C	1.568999	0.066415	0.571830
C35	C	1.397880	0.178250	0.571873
C36	C	1.397882	0.178257	0.427993
H37	H	1.075024	0.261680	-0.000038
Br38	Br	0.793695	0.297950	-0.000079
Br39	Br	1.281770	0.254158	0.330384
H40	H	0.891833	-0.017009	-0.000143
H41	H	1.693091	-0.315784	-0.000100
Br42	Br	1.750398	-0.501696	-0.000072
Br43	Br	1.211038	-0.458066	-0.000037
Br44	Br	1.173194	-0.053288	-0.000117
Br45	Br	1.216458	-0.253620	-0.000045
Br46	Br	1.685122	-0.009473	0.669425
H47	H	1.638661	0.020888	0.369361
H48	H	1.328220	0.223777	0.630476
