data_functionalizedCrystal
_audit_creation_method	'MofGen! by Chris Wilmer'
_symmetry_space_group_name_H-M	'P1'
_symmetry_Int_Tables_number	1
_symmetry_cell_setting	triclinic
loop_
_symmetry_equiv_pos_as_xyz
  x,y,z
_cell_length_a	8.597340
_cell_length_b	10.540539
_cell_length_c	7.088929
_cell_angle_alpha	83.715612
_cell_angle_beta	103.954719
_cell_angle_gamma	84.930270
loop_
_atom_site_label
_atom_site_type_symbol
_atom_site_fract_x
_atom_site_fract_y
_atom_site_fract_z
O1	O	2.103355	0.174327	0.187508
O2	O	1.638908	0.195048	0.110997
O3	O	1.881728	-0.000108	0.151001
O4	O	1.860535	0.369482	0.147505
O5	O	1.914178	-0.026247	0.474322
O6	O	1.671358	0.168909	0.434318
O7	O	2.135805	0.148187	0.510829
Cu8	Cu	1.906544	0.156161	0.502095
Cu9	Cu	1.868169	0.187074	0.119731
O10	O	1.892985	0.343343	0.470826
C11	C	1.595661	0.181209	0.262860
C12	C	1.418454	0.178902	0.233667
C13	C	1.896363	-0.060467	0.312396
C14	C	1.891607	-0.201374	0.311602
C15	C	1.709337	-0.383226	0.280862
C16	C	1.714230	-0.236707	0.282384
C17	C	1.995500	-0.278670	0.510297
C18	C	1.989462	-0.425176	0.509455
C19	C	1.956168	-0.395999	0.142373
C20	C	1.957557	-0.248833	0.140201
C21	C	2.179051	0.162026	0.358962
C22	C	2.356258	0.164334	0.388142
C23	C	1.878349	0.403702	0.309426
C24	C	1.883104	0.544611	0.310207
N25	N	1.933547	0.134418	0.771032
N26	N	1.841178	0.208807	-0.149204
H27	H	1.438580	0.153618	0.542735
H28	H	1.884715	-0.415760	-0.007024
C29	C	2.162934	-0.492334	0.549191
N30	N	2.293593	-0.542913	0.579132
H31	H	1.336123	0.189610	0.079064
H32	H	2.085760	-0.224787	0.150355
C33	C	1.934014	-0.235471	0.682720
N34	N	1.887692	-0.202936	0.812584
H35	H	2.084163	-0.444191	0.162237
C36	C	1.605532	-0.163937	0.088641
N37	N	1.523649	-0.109132	-0.057289
H38	H	1.881390	-0.196413	-0.006675
C39	C	1.711841	0.312947	0.719188
N40	N	1.614419	0.391385	0.620047
H41	H	1.625980	-0.400539	0.136916
C42	C	2.062891	0.030272	0.902650
N43	N	2.160308	-0.048171	1.001785
H44	H	1.659897	-0.205106	0.403813
C45	C	1.632934	-0.437593	0.443243
N46	N	1.575401	-0.478534	0.565567
H47	H	1.940227	-0.464009	0.637079
H48	H	2.126450	-0.257955	0.538620
