data_functionalizedCrystal
_audit_creation_method	'MofGen! by Chris Wilmer'
_symmetry_space_group_name_H-M	'P1'
_symmetry_Int_Tables_number	1
_symmetry_cell_setting	triclinic
loop_
_symmetry_equiv_pos_as_xyz
  x,y,z
_cell_length_a	6.394989
_cell_length_b	10.967819
_cell_length_c	10.065875
_cell_angle_alpha	69.228723
_cell_angle_beta	80.951547
_cell_angle_gamma	94.415339
loop_
_atom_site_label
_atom_site_type_symbol
_atom_site_fract_x
_atom_site_fract_y
_atom_site_fract_z
O1	O	-0.152703	1.742302	-0.523267
O2	O	-0.204509	1.365560	-0.434660
O3	O	0.125722	1.559279	-0.480222
O4	O	-0.482934	1.548583	-0.477705
O5	O	0.062506	1.522343	-0.244546
O6	O	-0.267725	1.328624	-0.198985
O7	O	-0.215919	1.705367	-0.287591
Zn8	Zn	-0.251859	1.511131	-0.205869
Zn9	Zn	-0.168569	1.559795	-0.516382
O10	O	-0.546150	1.511648	-0.242029
C11	C	-0.237122	1.298790	-0.305462
C12	C	-0.240092	1.154866	-0.271613
C13	C	-0.211751	0.961090	-0.343651
C14	C	-0.208670	1.109843	-0.378628
C15	C	0.171833	1.538697	-0.361892
C16	C	0.407749	1.532235	-0.360374
C17	C	-0.183305	1.772137	-0.416792
C18	C	-0.180333	1.916062	-0.450651
N19	N	-0.308700	1.477928	0.006046
N20	N	-0.111711	1.593008	-0.728299
C21	C	-0.188333	1.548235	0.057289
C22	C	-0.232095	1.522691	0.220464
H23	H	-0.269286	1.083294	-0.154104
H24	H	-0.179500	1.181415	-0.496136
C25	C	-0.140909	1.012753	-0.609392
N26	N	-0.111210	1.085580	-0.728960
H27	H	-0.444142	1.398821	0.082977
H28	H	-0.367546	1.443579	0.297391
C29	C	-0.251176	0.864400	-0.184909
N30	N	-0.280869	0.791573	-0.065341
H31	H	-0.052876	1.627333	-0.019639
H32	H	0.023754	1.672111	0.194775
