data_functionalizedCrystal
_audit_creation_method	'MofGen! by Chris Wilmer'
_symmetry_space_group_name_H-M	'P1'
_symmetry_Int_Tables_number	1
_symmetry_cell_setting	triclinic
loop_
_symmetry_equiv_pos_as_xyz
  x,y,z
_cell_length_a	12.837939
_cell_length_b	9.565339
_cell_length_c	12.837942
_cell_angle_alpha	90.002254
_cell_angle_beta	85.171210
_cell_angle_gamma	90.004743
loop_
_atom_site_label
_atom_site_type_symbol
_atom_site_fract_x
_atom_site_fract_y
_atom_site_fract_z
O1	O	-1.402337	-0.116245	0.272127
O2	O	-1.099203	-0.116251	0.258685
O3	O	-1.244048	-0.116240	0.113839
O4	O	-1.257492	-0.116257	0.416973
O5	O	-1.244032	0.116280	0.113852
O6	O	-1.099187	0.116269	0.258697
O7	O	-1.402321	0.116275	0.272140
Zn8	Zn	-1.250751	0.153189	0.265421
Zn9	Zn	-1.250773	-0.153166	0.265404
O10	O	-1.257476	0.116263	0.416985
C11	C	-1.060126	0.000008	0.254150
C12	C	-0.943711	0.000006	0.240606
N13	N	-1.250745	0.362269	0.265432
C14	C	-0.718837	0.000019	0.403436
C15	C	-0.609454	0.000018	0.390714
C16	C	-0.615562	0.000014	0.202443
C17	C	-0.724944	0.000014	0.215164
C18	C	-0.776578	0.000015	0.315664
C19	C	-0.885962	0.000006	0.328384
C20	C	-0.892067	0.000011	0.140114
C21	C	-0.782685	0.000011	0.127393
C22	C	-1.183732	0.453467	0.332393
C23	C	-1.280334	0.546646	0.362052
C24	C	-1.154179	0.546645	0.235791
C25	C	-1.347399	0.453396	0.295143
C26	C	-1.221178	0.453387	0.168834
C27	C	-1.317844	0.546524	0.198459
C28	C	-0.441398	0.000014	0.276675
C29	C	-0.557813	0.000013	0.290222
C30	C	-1.239499	0.000019	0.074776
C31	C	-1.225954	0.000017	-0.041639
N32	N	-1.250768	0.637755	0.265402
C33	C	-1.388784	-0.000009	-0.266513
C34	C	-1.376062	-0.000012	-0.375896
C35	C	-1.187791	-0.000001	-0.369788
C36	C	-1.200513	0.000002	-0.260405
C37	C	-1.301012	-0.000000	-0.208772
C38	C	-1.313733	0.000012	-0.099388
C39	C	-1.125462	0.000013	-0.093282
C40	C	-1.112741	0.000011	-0.202664
C41	C	-1.262025	0.000001	0.456048
C42	C	-1.275569	-0.000006	0.572463
H43	H	-0.928001	0.000009	0.410215
H44	H	-0.562446	0.000025	0.462188
N45	N	-1.455624	0.399391	0.328472
H46	H	-1.506327	0.434035	0.278241
H47	H	-1.454848	0.293811	0.328321
H48	H	-1.030917	0.000007	-0.244719
N49	N	-0.559862	0.000053	0.094056
H50	H	-0.481808	0.000066	0.099321
H51	H	-0.580306	-0.086139	0.055154
H52	H	-1.447536	-0.000024	-0.422905
H53	H	-0.760878	0.000017	0.485266
N54	N	-1.108741	0.399346	0.407470
H55	H	-1.131223	0.433277	0.480415
H56	H	-1.108791	0.293771	0.406378
H57	H	-1.053992	0.000031	-0.046257
H58	H	-0.740630	0.000026	0.045569
N59	N	-1.497172	0.000013	-0.210815
H60	H	-1.536127	-0.086179	-0.231180
H61	H	-1.491820	0.000072	-0.132777
N62	N	-0.954344	-0.000007	0.045437
H63	H	-1.031473	-0.000012	0.068742
H64	H	-0.936557	0.086188	0.002103
H65	H	-1.395564	0.000016	-0.057349
H66	H	-1.374593	0.587127	0.141823
H67	H	-1.305360	0.587609	0.443730
H68	H	-1.196125	0.412391	0.087178
N69	N	-1.045999	0.600916	0.202595
H70	H	-0.995435	0.567068	0.253243
H71	H	-1.023222	0.565528	0.130118
H72	H	-1.105969	-0.000014	-0.411847
