data_functionalizedCrystal
_audit_creation_method	'MofGen! by Chris Wilmer'
_symmetry_space_group_name_H-M	'P1'
_symmetry_Int_Tables_number	1
_symmetry_cell_setting	triclinic
loop_
_symmetry_equiv_pos_as_xyz
  x,y,z
_cell_length_a	6.817900
_cell_length_b	19.453114
_cell_length_c	17.982783
_cell_angle_alpha	96.125467
_cell_angle_beta	102.448572
_cell_angle_gamma	101.709288
loop_
_atom_site_label
_atom_site_type_symbol
_atom_site_fract_x
_atom_site_fract_y
_atom_site_fract_z
V1	V	-4.001665	-0.219293	-0.106206
O2	O	-3.994950	-0.214818	0.004287
O3	O	-3.948263	-0.218081	-0.209804
O4	O	-3.944642	-0.314802	-0.104931
O5	O	-3.998596	-0.117428	-0.101312
V6	V	-4.487059	-0.207074	-0.092948
O7	O	-4.258820	-0.246096	-0.135290
O8	O	-4.680101	-0.180271	-0.063864
O9	O	-4.317255	-0.208285	0.010650
O10	O	-4.611171	-0.211548	-0.203441
O11	O	-4.607525	-0.308939	-0.097842
O12	O	-4.320876	-0.111564	-0.094223
C13	C	-3.792326	-0.214697	-0.235048
C14	C	-3.829892	-0.214343	-0.319743
C15	C	-3.813685	-0.149824	-0.348419
C16	C	-3.849002	-0.149494	-0.428000
C17	C	-3.900512	-0.213683	-0.478902
C18	C	-3.916726	-0.278208	-0.450221
C19	C	-3.881423	-0.278537	-0.370642
C20	C	-4.059102	-0.276881	-0.771155
C21	C	-4.094398	-0.276546	-0.850738
C22	C	-4.026680	-0.147837	-0.828512
C23	C	-3.991377	-0.148167	-0.748933
C24	C	-4.007604	-0.212691	-0.720259
C25	C	-3.969313	-0.213048	-0.633969
C26	C	-3.938789	-0.213327	-0.565191
C27	C	-3.787706	-0.338073	-0.101270
C28	C	-3.822334	-0.416154	-0.100913
C29	C	-4.020199	-0.456421	-0.104569
C30	C	-4.052736	-0.529787	-0.104234
C31	C	-3.887403	-0.562885	-0.100257
C32	C	-3.689508	-0.522608	-0.096596
C33	C	-3.656973	-0.449242	-0.096924
N34	N	-3.825717	-0.681785	-0.140493
N35	N	-3.856637	-0.751480	-0.140183
C36	C	-3.985417	-0.783930	-0.099267
N37	N	-4.082145	-0.744055	-0.058682
N38	N	-4.051230	-0.674355	-0.058995
C39	C	-3.922662	-0.642437	-0.099900
C40	C	-4.218575	-0.903749	-0.102558
C41	C	-4.251102	-0.977116	-0.102217
C42	C	-3.887872	-0.969936	-0.094587
C43	C	-3.855347	-0.896570	-0.094920
C44	C	-4.020708	-0.863482	-0.098909
C45	C	-4.136534	-0.211668	0.035890
C46	C	-4.078205	-0.212026	0.120584
C47	C	-4.141154	-0.088290	-0.097886
C48	C	-4.085765	-0.010208	-0.098239
H49	H	-3.771725	-0.097552	-0.306978
H50	H	-3.958683	-0.330473	-0.491673
H51	H	-3.949425	-0.095896	-0.707490
O52	O	-3.443540	-0.405808	-0.092971
H53	H	-3.448690	-0.349232	-0.093860
H54	H	-4.213869	-0.562580	-0.107215
H55	H	-3.554894	-0.549560	-0.093355
O56	O	-4.149993	-0.345786	-0.905641
H57	H	-4.031903	-0.346095	-0.939516
O58	O	-4.198545	-0.420735	-0.108851
H59	H	-4.318719	-0.444181	-0.162809
H60	H	-3.835807	-0.096956	-0.451343
H61	H	-4.013478	-0.095299	-0.851867
O62	O	-4.464530	-1.020547	-0.106156
H63	H	-4.459374	-1.077120	-0.105247
O64	O	-4.076571	-0.346470	-0.740230
H65	H	-4.118291	-0.391047	-0.788997
O66	O	-3.898886	-0.348125	-0.339706
H67	H	-3.940613	-0.392705	-0.388470
H68	H	-3.694229	-0.863785	-0.091951
H69	H	-3.753251	-0.996882	-0.091342
H70	H	-4.353220	-0.876807	-0.105804
