data_functionalizedCrystal
_audit_creation_method	'MofGen! by Chris Wilmer'
_symmetry_space_group_name_H-M	'P1'
_symmetry_Int_Tables_number	1
_symmetry_cell_setting	triclinic
loop_
_symmetry_equiv_pos_as_xyz
  x,y,z
_cell_length_a	11.792241
_cell_length_b	11.792241
_cell_length_c	9.130313
_cell_angle_alpha	89.995332
_cell_angle_beta	90.000683
_cell_angle_gamma	84.193416
loop_
_atom_site_label
_atom_site_type_symbol
_atom_site_fract_x
_atom_site_fract_y
_atom_site_fract_z
O1	O	1.506907	0.155568	-0.121658
O2	O	1.176566	0.171601	-0.121692
O3	O	1.349753	-0.001586	-0.121664
O4	O	1.333720	0.328755	-0.121686
O5	O	1.349741	-0.001592	0.121935
O6	O	1.176554	0.171595	0.121907
O7	O	1.506895	0.155563	0.121941
Cu8	Cu	1.341724	0.163579	0.144167
Cu9	Cu	1.341738	0.163585	-0.143917
O10	O	1.333708	0.328750	0.121913
C11	C	1.134269	0.170591	0.000103
C12	C	1.008255	0.167576	0.000090
C13	C	1.348740	-0.043880	0.000135
C14	C	1.345726	-0.169894	0.000133
C15	C	1.340183	-0.400606	0.000108
C16	C	1.343262	-0.272221	0.000122
C17	C	0.777543	0.162034	0.000133
C18	C	0.905928	0.165113	0.000110
C19	C	1.549192	0.156572	0.000143
C20	C	1.675206	0.159587	0.000146
C21	C	1.334721	0.371043	0.000111
C22	C	1.337736	0.497057	0.000103
N23	N	1.341722	0.163574	0.346789
N24	N	1.341748	0.163580	-0.346540
C25	C	1.418435	0.086919	0.423454
C26	C	1.418446	0.086919	0.576790
C27	C	1.265027	0.240239	0.576785
C28	C	1.265011	0.240232	0.423451
H29	H	1.480911	0.024499	0.639206
N30	N	1.182272	0.322923	0.340755
H31	H	1.193902	0.311282	0.231987
H32	H	1.101680	0.309268	0.367570
N33	N	1.182293	0.322918	0.659470
H34	H	1.193943	0.311294	0.768241
H35	H	1.195888	0.403526	0.632649
H36	H	1.480896	0.024497	0.361039
