data_functionalizedCrystal
_audit_creation_method	'MofGen! by Chris Wilmer'
_symmetry_space_group_name_H-M	'P1'
_symmetry_Int_Tables_number	1
_symmetry_cell_setting	triclinic
loop_
_symmetry_equiv_pos_as_xyz
  x,y,z
_cell_length_a	19.077105
_cell_length_b	21.295417
_cell_length_c	19.076919
_cell_angle_alpha	92.266620
_cell_angle_beta	90.076224
_cell_angle_gamma	87.726672
loop_
_atom_site_label
_atom_site_type_symbol
_atom_site_fract_x
_atom_site_fract_y
_atom_site_fract_z
Zn1	Zn	1.058236	-0.304534	-0.440387
Zn2	Zn	1.308236	-0.054534	-0.190387
Zn3	Zn	1.558236	0.195466	0.059613
Zn4	Zn	1.808236	0.445466	0.309613
Zn5	Zn	1.062864	-0.405747	-0.322870
Zn6	Zn	1.312864	-0.155747	-0.072870
Zn7	Zn	1.562864	0.094253	0.177130
Zn8	Zn	1.812864	0.344253	0.427130
Zn9	Zn	0.945454	-0.296102	-0.318181
Zn10	Zn	1.195454	-0.046102	-0.068181
Zn11	Zn	1.445454	0.203898	0.181819
Zn12	Zn	1.695454	0.453898	0.431819
Zn13	Zn	0.940686	-0.405368	-0.435623
Zn14	Zn	1.190686	-0.155368	-0.185623
Zn15	Zn	1.440686	0.094632	0.064377
Zn16	Zn	1.690686	0.344632	0.314377
O17	O	1.001810	-0.352938	-0.379265
O18	O	1.251810	-0.102938	-0.129265
O19	O	1.501810	0.147062	0.120735
O20	O	1.751810	0.397062	0.370735
O21	O	1.157181	-0.321649	-0.428754
O22	O	1.407181	-0.071649	-0.178754
O23	O	1.657181	0.178351	0.071246
O24	O	1.907181	0.428351	0.321246
O25	O	1.051222	-0.387832	-0.223917
O26	O	1.301222	-0.137832	0.026083
O27	O	1.551222	0.112168	0.276083
O28	O	1.801222	0.362168	0.526083
O29	O	0.960474	-0.209134	-0.334424
O30	O	1.210474	0.040866	-0.084424
O31	O	1.460474	0.290866	0.165576
O32	O	1.710474	0.540866	0.415576
O33	O	1.160581	-0.396009	-0.342415
O34	O	1.410581	-0.146009	-0.092415
O35	O	1.660581	0.103991	0.157585
O36	O	1.910581	0.353991	0.407585
O37	O	1.043334	-0.215330	-0.424208
O38	O	1.293334	0.034670	-0.174208
O39	O	1.543334	0.284670	0.075792
O40	O	1.793334	0.534670	0.325792
O41	O	0.964962	-0.307276	-0.220472
O42	O	1.214962	-0.057276	0.029528
O43	O	1.464962	0.192724	0.279528
O44	O	1.714962	0.442724	0.529528
O45	O	0.846490	-0.306908	-0.329804
O46	O	1.096490	-0.056908	-0.079804
O47	O	1.346490	0.193092	0.170196
O48	O	1.596490	0.443092	0.420196
O49	O	0.952346	-0.395362	-0.534586
O50	O	1.202346	-0.145362	-0.284586
O51	O	1.452346	0.104638	-0.034586
O52	O	1.702346	0.354638	0.215414
O53	O	0.842987	-0.387185	-0.416088
O54	O	1.092987	-0.137185	-0.166088
O55	O	1.342987	0.112815	0.083912
O56	O	1.592987	0.362815	0.333912
O57	O	1.038710	-0.321280	-0.538086
O58	O	1.288710	-0.071280	-0.288086
O59	O	1.538710	0.178720	-0.038086
O60	O	1.788710	0.428720	0.211914
O61	O	1.046598	-0.493783	-0.337795
O62	O	1.296598	-0.243783	-0.087795
O63	O	1.546598	0.006217	0.162205
O64	O	1.796598	0.256217	0.412205
O65	O	0.956834	-0.493504	-0.420634
O66	O	1.206834	-0.243504	-0.170634
O67	O	1.456834	0.006496	0.079366
O68	O	1.706834	0.256496	0.329366
C69	C	0.819242	-0.346091	-0.371921
C70	C	1.069242	-0.096091	-0.121921
C71	C	1.319242	0.153909	0.128079
C72	C	1.569242	0.403909	0.378079
C73	C	0.741139	-0.343178	-0.368795
C74	C	0.991139	-0.093178	-0.118795
C75	C	1.241139	0.156822	0.131205
C76	C	1.491139	0.406822	0.381205
C77	C	0.702642	-0.383663	-0.412179
C78	C	0.952642	-0.133663	-0.162179
C79	C	1.202642	0.116337	0.087821
C80	C	1.452642	0.366337	0.337821
C81	C	0.629255	-0.380918	-0.409246
C82	C	0.879255	-0.130918	-0.159246
C83	C	1.129255	0.119082	0.090754
C84	C	1.379255	0.369082	0.340754
C85	C	0.594366	-0.337689	-0.362924
C86	C	0.844366	-0.087689	-0.112924
C87	C	1.094366	0.162311	0.137076
C88	C	1.344366	0.412311	0.387076
C89	C	0.632868	-0.297199	-0.319538
C90	C	0.882868	-0.047199	-0.069538
C91	C	1.132868	0.202801	0.180462
C92	C	1.382868	0.452801	0.430462
C93	C	0.706253	-0.299942	-0.322476
C94	C	0.956253	-0.049942	-0.072476
C95	C	1.206253	0.200058	0.177524
C96	C	1.456253	0.450058	0.427524
C97	C	0.375080	-0.324994	-0.349333
C98	C	0.625080	-0.074994	-0.099333
C99	C	0.875080	0.175006	0.150667
C100	C	1.125080	0.425006	0.400667
C101	C	0.301690	-0.322256	-0.346397
C102	C	0.551690	-0.072256	-0.096397
C103	C	0.801690	0.177744	0.153603
C104	C	1.051690	0.427744	0.403603
C105	C	0.298082	-0.405974	-0.436106
C106	C	0.548082	-0.155974	-0.186106
C107	C	0.798082	0.094026	0.063894
C108	C	1.048082	0.344026	0.313894
C109	C	0.371470	-0.408715	-0.439037
C110	C	0.621470	-0.158715	-0.189037
C111	C	0.871470	0.091285	0.060963
C112	C	1.121470	0.341285	0.310963
C113	C	0.409965	-0.368223	-0.395653
C114	C	0.659965	-0.118223	-0.145653
C115	C	0.909965	0.131777	0.104347
C116	C	1.159965	0.381777	0.354347
N117	N	0.519353	-0.334883	-0.359923
N118	N	0.769353	-0.084883	-0.109923
N119	N	1.019353	0.165117	0.140077
N120	N	1.269353	0.415117	0.390077
N121	N	0.484976	-0.371027	-0.398658
N122	N	0.734976	-0.121027	-0.148658
N123	N	0.984976	0.128973	0.101342
N124	N	1.234976	0.378973	0.351342
C125	C	1.001719	-0.516485	-0.379223
C126	C	1.251719	-0.266485	-0.129223
C127	C	1.501719	-0.016485	0.120777
C128	C	1.751719	0.233515	0.370777
C129	C	1.001744	-0.586454	-0.379231
C130	C	1.251744	-0.336454	-0.129231
C131	C	1.501744	-0.086454	0.120769
C132	C	1.751744	0.163546	0.370769
C133	C	1.048522	-0.619448	-0.336144
C134	C	1.298522	-0.369448	-0.086144
C135	C	1.548522	-0.119448	0.163856
C136	C	1.798522	0.130552	0.413856
C137	C	1.048554	-0.685192	-0.336161
C138	C	1.298554	-0.435192	-0.086161
C139	C	1.548554	-0.185192	0.163839
C140	C	1.798554	0.064808	0.413839
C141	C	1.001796	-0.717939	-0.379257
C142	C	1.251796	-0.467939	-0.129257
C143	C	1.501796	-0.217939	0.120743
C144	C	1.751796	0.032061	0.370743
C145	C	0.955015	-0.684937	-0.422352
C146	C	1.205015	-0.434937	-0.172352
C147	C	1.455015	-0.184937	0.077648
C148	C	1.705015	0.065063	0.327648
C149	C	0.954989	-0.619195	-0.422339
C150	C	1.204989	-0.369195	-0.172339
C151	C	1.454989	-0.119195	0.077661
C152	C	1.704989	0.130805	0.327661
N153	N	0.940111	-0.819089	-0.382141
N154	N	1.190111	-0.569089	-0.132141
N155	N	1.440111	-0.319089	0.117859
N156	N	1.690111	-0.069089	0.367859
N157	N	0.940138	-0.881541	-0.382149
N158	N	1.190138	-0.631541	-0.132149
N159	N	1.440138	-0.381541	0.117851
N160	N	1.690138	-0.131541	0.367851
C161	C	1.001873	-0.916018	-0.379300
C162	C	1.251873	-0.666018	-0.129300
C163	C	1.501873	-0.416018	0.120700
C164	C	1.751873	-0.166018	0.370700
N165	N	1.063583	-0.885683	-0.376429
N166	N	1.313583	-0.635683	-0.126429
N167	N	1.563583	-0.385683	0.123571
N168	N	1.813583	-0.135683	0.373571
N169	N	1.063555	-0.823224	-0.376417
N170	N	1.313555	-0.573224	-0.126417
N171	N	1.563555	-0.323224	0.123583
N172	N	1.813555	-0.073224	0.373583
C173	C	1.001820	-0.789226	-0.379276
C174	C	1.251820	-0.539226	-0.129276
C175	C	1.501820	-0.289226	0.120724
C176	C	1.751820	-0.039226	0.370724
C177	C	1.048690	-1.020300	-0.336230
C178	C	1.298690	-0.770300	-0.086230
C179	C	1.548690	-0.520300	0.163770
C180	C	1.798690	-0.270300	0.413770
C181	C	1.048724	-1.086046	-0.336252
C182	C	1.298724	-0.836046	-0.086252
C183	C	1.548724	-0.586046	0.163748
C184	C	1.798724	-0.336046	0.413748
C185	C	0.955178	-1.085789	-0.422439
C186	C	1.205178	-0.835789	-0.172439
C187	C	1.455178	-0.585789	0.077561
C188	C	1.705178	-0.335789	0.327561
C189	C	0.955151	-1.020045	-0.422421
C190	C	1.205151	-0.770045	-0.172421
C191	C	1.455151	-0.520045	0.077579
C192	C	1.705151	-0.270045	0.327579
C193	C	1.001906	-0.987304	-0.379313
C194	C	1.251906	-0.737304	-0.129313
C195	C	1.501906	-0.487304	0.120687
C196	C	1.751906	-0.237304	0.370687
C197	C	1.185090	-0.359812	-0.386639
C198	C	1.435090	-0.109812	-0.136639
C199	C	1.685090	0.140188	0.113361
C200	C	1.935090	0.390188	0.363361
C201	C	1.263193	-0.362741	-0.389782
C202	C	1.513193	-0.112741	-0.139782
C203	C	1.763193	0.137259	0.110218
C204	C	2.013193	0.387259	0.360218
C205	C	0.994480	-0.359220	-0.562545
C206	C	1.244480	-0.109220	-0.312545
C207	C	1.494480	0.140780	-0.062545
C208	C	1.744480	0.390780	0.187455
C209	C	0.991356	-0.361897	-0.640648
C210	C	1.241356	-0.111897	-0.390648
C211	C	1.491356	0.138103	-0.140648
C212	C	1.741356	0.388103	0.109352
C213	C	1.001919	-0.188754	-0.379324
C214	C	1.251919	0.061246	-0.129324
C215	C	1.501919	0.311246	0.120676
C216	C	1.751919	0.561246	0.370676
C217	C	1.001966	-0.118788	-0.379349
C218	C	1.251966	0.131212	-0.129349
C219	C	1.501966	0.381212	0.120651
C220	C	1.751966	0.631212	0.370651
C221	C	1.034851	-0.324586	-0.679164
C222	C	1.284851	-0.074586	-0.429164
C223	C	1.534851	0.175414	-0.179164
C224	C	1.784851	0.425414	0.070836
C225	C	1.031907	-0.327098	-0.752550
C226	C	1.281907	-0.077098	-0.502550
C227	C	1.531907	0.172902	-0.252550
C228	C	1.781907	0.422902	-0.002550
C229	C	0.985472	-0.366925	-0.787418
C230	C	1.235472	-0.116925	-0.537418
C231	C	1.485472	0.133075	-0.287418
C232	C	1.735472	0.383075	-0.037418
C233	C	0.941972	-0.404238	-0.748896
C234	C	1.191972	-0.154238	-0.498896
C235	C	1.441972	0.095762	-0.248896
C236	C	1.691972	0.345762	0.001104
C237	C	0.944913	-0.401722	-0.675512
C238	C	1.194913	-0.151722	-0.425512
C239	C	1.444913	0.098278	-0.175512
C240	C	1.694913	0.348278	0.074488
C241	C	0.971853	-0.378584	-1.006698
C242	C	1.221853	-0.128584	-0.756698
C243	C	1.471853	0.121416	-0.506698
C244	C	1.721853	0.371416	-0.256698
C245	C	0.968917	-0.381099	-1.080087
C246	C	1.218917	-0.131099	-0.830087
C247	C	1.468917	0.118901	-0.580087
C248	C	1.718917	0.368901	-0.330087
C249	C	1.058852	-0.303958	-1.083736
C250	C	1.308852	-0.053958	-0.833736
C251	C	1.558852	0.196042	-0.583736
C252	C	1.808852	0.446042	-0.333736
C253	C	1.061791	-0.301448	-1.010350
C254	C	1.311791	-0.051448	-0.760350
C255	C	1.561791	0.198552	-0.510350
C256	C	1.811791	0.448552	-0.260350
C257	C	1.018289	-0.338758	-0.971835
C258	C	1.268289	-0.088758	-0.721835
C259	C	1.518289	0.161242	-0.471835
C260	C	1.768289	0.411242	-0.221835
N261	N	0.982464	-0.369496	-0.862429
N262	N	1.232464	-0.119496	-0.612429
N263	N	1.482464	0.130504	-0.362429
N264	N	1.732464	0.380504	-0.112429
N265	N	1.021294	-0.336183	-0.896824
N266	N	1.271294	-0.086183	-0.646824
N267	N	1.521294	0.163817	-0.396824
N268	N	1.771294	0.413817	-0.146824
C269	C	1.009152	-0.346637	-0.196700
C270	C	1.259152	-0.096637	0.053300
C271	C	1.509152	0.153363	0.303300
C272	C	1.759152	0.403363	0.553300
C273	C	1.012412	-0.343787	-0.118604
C274	C	1.262412	-0.093787	0.131396
C275	C	1.512412	0.156213	0.381396
C276	C	1.762412	0.406213	0.631396
H277	H	0.604455	-0.261999	-0.281825
H278	H	0.854455	-0.011999	-0.031825
H279	H	1.104455	0.238001	0.218175
H280	H	1.354455	0.488001	0.468175
H281	H	1.099606	-0.269018	-0.981966
H282	H	1.349606	-0.019018	-0.731966
H283	H	1.599606	0.230982	-0.481966
H284	H	1.849606	0.480982	-0.231966
H285	H	1.086764	-0.993641	-0.301131
H286	H	1.336764	-0.743641	-0.051131
H287	H	1.586764	-0.493641	0.198869
H288	H	1.836764	-0.243641	0.448869
H289	H	0.731044	-0.418867	-0.449897
H290	H	0.981044	-0.168867	-0.199897
H291	H	1.231044	0.081133	0.050103
H292	H	1.481044	0.331133	0.300103
Cl293	Cl	0.917164	-0.425489	-0.958288
Cl294	Cl	1.167164	-0.175489	-0.708288
Cl295	Cl	1.417164	0.074511	-0.458288
Cl296	Cl	1.667164	0.324511	-0.208288
Cl297	Cl	1.107541	-1.127525	-0.282086
Cl298	Cl	1.357541	-0.877525	-0.032086
Cl299	Cl	1.607541	-0.627525	0.217914
Cl300	Cl	1.857541	-0.377525	0.467914
H301	H	0.916895	-0.592330	-0.457426
H302	H	1.166895	-0.342330	-0.207426
H303	H	1.416895	-0.092330	0.042574
H304	H	1.666895	0.157670	0.292574
Cl305	Cl	0.257830	-0.267911	-0.288155
Cl306	Cl	0.507830	-0.017911	-0.038155
Cl307	Cl	0.757830	0.232089	0.211845
Cl308	Cl	1.007830	0.482089	0.461845
H309	H	0.917110	-1.112451	-0.457532
H310	H	1.167110	-0.862451	-0.207532
H311	H	1.417110	-0.612451	0.042468
H312	H	1.667110	-0.362451	0.292468
H313	H	0.597915	-0.413886	-0.444573
H314	H	0.847915	-0.163886	-0.194573
H315	H	1.097915	0.086114	0.055427
H316	H	1.347915	0.336114	0.305427
H317	H	0.406414	-0.292027	-0.314002
H318	H	0.656414	-0.042027	-0.064002
H319	H	0.906414	0.207973	0.185998
H320	H	1.156414	0.457973	0.435998
H321	H	1.067327	-0.296717	-0.783907
H322	H	1.317327	-0.046717	-0.533907
H323	H	1.567327	0.203283	-0.283907
H324	H	1.817327	0.453283	-0.033907
Cl325	Cl	0.754649	-0.249042	-0.267935
Cl326	Cl	1.004649	0.000958	-0.017935
Cl327	Cl	1.254649	0.250958	0.232065
Cl328	Cl	1.504649	0.500958	0.482065
Cl329	Cl	0.896337	-0.978564	-0.476587
Cl330	Cl	1.146337	-0.728564	-0.226587
Cl331	Cl	1.396337	-0.478564	0.023413
Cl332	Cl	1.646337	-0.228564	0.273413
Cl333	Cl	1.093234	-0.274517	-0.635338
Cl334	Cl	1.343234	-0.024517	-0.385338
Cl335	Cl	1.593234	0.225483	-0.135338
Cl336	Cl	1.843234	0.475483	0.114662
Cl337	Cl	1.107310	-0.578292	-0.281961
Cl338	Cl	1.357310	-0.328292	-0.031961
Cl339	Cl	1.607310	-0.078292	0.218039
Cl340	Cl	1.857310	0.171708	0.468039
H341	H	1.086649	-0.712061	-0.301075
H342	H	1.336649	-0.462061	-0.051075
H343	H	1.586649	-0.212061	0.198925
H344	H	1.836649	0.037939	0.448925
Cl345	Cl	1.113534	-0.257054	-1.132159
Cl346	Cl	1.363534	-0.007054	-0.882159
Cl347	Cl	1.613534	0.242946	-0.632159
Cl348	Cl	1.863534	0.492946	-0.382159
H349	H	0.916945	-0.711604	-0.457442
H350	H	1.166945	-0.461604	-0.207442
H351	H	1.416945	-0.211604	0.042558
H352	H	1.666945	0.038396	0.292558
Cl353	Cl	0.249685	-0.456875	-0.490641
Cl354	Cl	0.499685	-0.206875	-0.240641
Cl355	Cl	0.749685	0.043125	0.009359
Cl356	Cl	0.999685	0.293125	0.259359
H357	H	0.931101	-0.413532	-1.108474
H358	H	1.181101	-0.163532	-0.858474
H359	H	1.431101	0.086468	-0.608474
H360	H	1.681101	0.336468	-0.358474
Cl361	Cl	0.883593	-0.454305	-0.792730
Cl362	Cl	1.133593	-0.204305	-0.542730
Cl363	Cl	1.383593	0.045695	-0.292730
Cl364	Cl	1.633593	0.295695	-0.042730
H365	H	0.399871	-0.443918	-0.476755
H366	H	0.649871	-0.193918	-0.226755
H367	H	0.899871	0.056082	0.023245
H368	H	1.149871	0.306082	0.273245
Cl369	Cl	0.890229	-0.448627	-0.627091
Cl370	Cl	1.140229	-0.198627	-0.377091
Cl371	Cl	1.390229	0.051373	-0.127091
Cl372	Cl	1.640229	0.301373	0.122909
