data_functionalizedCrystal
_audit_creation_method	'MofGen! by Chris Wilmer'
_symmetry_space_group_name_H-M	'P1'
_symmetry_Int_Tables_number	1
_symmetry_cell_setting	triclinic
loop_
_symmetry_equiv_pos_as_xyz
  x,y,z
_cell_length_a	9.065215
_cell_length_b	23.532409
_cell_length_c	8.140239
_cell_angle_alpha	89.999559
_cell_angle_beta	89.997810
_cell_angle_gamma	83.932129
loop_
_atom_site_label
_atom_site_type_symbol
_atom_site_fract_x
_atom_site_fract_y
_atom_site_fract_z
O1	O	1.956288	0.083489	-0.136582
O2	O	1.526665	0.090340	-0.136588
O3	O	1.754430	0.004078	-0.136587
O4	O	1.728523	0.169751	-0.136583
O5	O	1.754418	0.004077	0.136640
O6	O	1.526653	0.090339	0.136639
O7	O	1.956275	0.083488	0.136645
Zn8	Zn	1.741462	0.086913	0.180023
Zn9	Zn	1.741478	0.086915	-0.179965
O10	O	1.728510	0.169750	0.136644
C11	C	1.471705	0.089681	0.000025
C12	C	1.307958	0.087714	0.000022
C13	C	1.753764	-0.017143	0.000023
C14	C	1.751779	-0.080375	0.000011
C15	C	1.743344	-0.353681	-0.148933
C16	C	1.745187	-0.294267	-0.148933
O17	O	1.746198	-0.263535	-0.275593
N18	N	1.746093	-0.264559	0.000006
C19	C	1.745170	-0.294268	0.148954
O20	O	1.746111	-0.263544	0.275638
C21	C	1.743337	-0.353682	0.148953
C22	C	1.742417	-0.383386	0.000004
C23	C	1.742425	-0.383386	-0.297869
C24	C	1.740579	-0.442795	-0.297868
C25	C	1.739652	-0.472500	-0.148931
C26	C	1.740571	-0.442796	0.000005
C27	C	1.742425	-0.383390	0.297900
C28	C	1.740593	-0.442807	0.297885
C29	C	1.739673	-0.472512	0.148937
C30	C	1.737798	-0.531910	0.148943
N31	N	1.736892	-0.561618	0.000005
C32	C	1.737819	-0.531913	-0.148932
C33	C	1.749021	-0.169497	0.148946
C34	C	1.750843	-0.110084	0.148949
C35	C	1.750863	-0.110088	-0.148939
C36	C	1.749031	-0.169501	-0.148940
C37	C	1.748116	-0.199205	0.000007
C38	C	1.733941	-0.656678	-0.148919
C39	C	1.732089	-0.716092	-0.148905
C40	C	1.732077	-0.716084	0.148982
C41	C	1.733921	-0.656674	0.148969
C42	C	1.734858	-0.626973	0.000005
O43	O	1.736792	-0.562681	0.275538
O44	O	1.736898	-0.562646	-0.275595
C45	C	2.011236	0.084147	0.000029
C46	C	2.174982	0.086114	0.000021
C47	C	1.729177	0.190972	0.000031
C48	C	1.731162	0.254203	0.000032
N49	N	1.741462	0.086912	0.425706
N50	N	1.741491	0.086912	-0.425648
H51	H	1.734706	-0.632502	-0.270219
O52	O	1.734992	-0.627767	0.293559
C53	C	1.863854	-0.599200	0.302528
H54	H	1.906748	-0.592218	0.173224
H55	H	1.952604	-0.626155	0.376024
C56	C	1.774105	-0.549588	0.546530
C57	C	1.826781	-0.541009	0.387714
H58	H	1.751241	-0.513694	0.599083
H59	H	1.687290	-0.568836	0.540492
H60	H	1.848072	-0.572052	0.607755
H61	H	1.752807	-0.518551	0.326486
H62	H	1.913583	-0.521755	0.393744
O63	O	1.748337	-0.198421	-0.293529
C64	C	1.875071	-0.238558	-0.302492
H65	H	1.917396	-0.249397	-0.173185
H66	H	1.965250	-0.219701	-0.375980
C67	C	1.782532	-0.279917	-0.546502
C68	C	1.834510	-0.293234	-0.387684
H69	H	1.757516	-0.313644	-0.599059
H70	H	1.697151	-0.252875	-0.540468
H71	H	1.857690	-0.264203	-0.607721
H72	H	1.759346	-0.308942	-0.326462
H73	H	1.919877	-0.320280	-0.393709
H74	H	1.731334	-0.740275	-0.270202
O75	O	1.751489	-0.081169	-0.293547
C76	C	1.624713	-0.041050	-0.302416
H77	H	1.582460	-0.030214	-0.173076
H78	H	1.534511	-0.059923	-0.375816
C79	C	1.717050	0.000320	-0.546525
C80	C	1.665162	0.013633	-0.387666
H81	H	1.741997	0.034051	-0.599118
H82	H	1.802459	-0.026710	-0.540554
H83	H	1.641873	-0.015408	-0.607671
H84	H	1.740344	0.029354	-0.326517
H85	H	1.579765	0.040667	-0.393629
H86	H	1.731316	-0.740280	0.270243
H87	H	1.748263	-0.193678	0.270244
H88	H	1.739850	-0.466990	0.419179
H89	H	1.743185	-0.359207	-0.419158
H90	H	1.739840	-0.466976	-0.419157
H91	H	1.751565	-0.085903	0.270238
H92	H	1.743190	-0.359216	0.419190
