data_functionalizedCrystal
_audit_creation_method	'MofGen! by Chris Wilmer'
_symmetry_space_group_name_H-M	'P1'
_symmetry_Int_Tables_number	1
_symmetry_cell_setting	triclinic
loop_
_symmetry_equiv_pos_as_xyz
  x,y,z
_cell_length_a	13.032831
_cell_length_b	12.594516
_cell_length_c	12.594505
_cell_angle_alpha	89.945151
_cell_angle_beta	82.782254
_cell_angle_gamma	82.821304
loop_
_atom_site_label
_atom_site_type_symbol
_atom_site_fract_x
_atom_site_fract_y
_atom_site_fract_z
Zn1	Zn	1.598025	-0.630313	-0.808221
Zn2	Zn	1.597852	-0.808390	-0.630226
Zn3	Zn	1.423186	-0.607811	-0.607673
Zn4	Zn	1.423235	-0.785619	-0.785609
O5	O	1.510574	-0.708034	-0.707932
O6	O	1.744251	-0.672883	-0.803511
O7	O	1.574589	-0.781895	-0.478276
O8	O	1.446431	-0.461857	-0.634301
O9	O	1.744124	-0.803715	-0.672739
O10	O	1.574885	-0.478389	-0.781642
O11	O	1.446263	-0.634531	-0.461707
O12	O	1.276944	-0.612451	-0.612375
O13	O	1.446514	-0.764905	-0.937566
O14	O	1.276979	-0.743086	-0.743103
O15	O	1.574932	-0.650803	-0.954179
O16	O	1.574636	-0.954309	-0.650813
O17	O	1.446346	-0.937579	-0.764972
C18	C	1.239041	-0.672856	-0.672839
C19	C	1.122878	-0.657833	-0.657851
C20	C	1.071134	-0.715875	-0.715754
C21	C	0.951073	-0.700349	-0.700265
C22	C	1.510506	-0.984566	-0.707913
C23	C	1.510572	-1.102880	-0.707952
C24	C	1.440788	-1.163071	-0.769993
C25	C	1.415288	-1.230684	-0.669577
C26	C	1.536167	-1.246079	-0.808397
C27	C	1.485022	-1.168927	-0.607479
C28	C	1.605945	-1.184322	-0.746370
C29	C	1.580482	-1.251907	-0.645892
C30	C	1.783168	-0.743349	-0.743163
C31	C	1.899331	-0.758398	-0.758176
C32	C	1.510747	-0.707824	-0.985576
C33	C	1.510821	-0.707735	-1.103891
C34	C	1.510672	-0.430425	-0.707978
C35	C	1.510713	-0.312125	-0.707998
C36	C	1.510462	-0.708173	-0.431376
C37	C	1.510591	-0.707989	-0.313088
C38	C	1.440447	-0.628121	-0.164069
C39	C	1.415462	-0.722274	-0.231353
C40	C	1.535527	-0.613843	-0.247369
C41	C	1.485789	-0.801932	-0.169610
C42	C	1.605898	-0.693440	-0.185626
C43	C	1.580950	-0.787665	-0.252883
H44	H	1.334699	-1.251480	-0.637115
C45	C	1.131355	-0.798534	-0.798220
C46	C	1.206376	-0.891696	-0.761569
C47	C	1.266595	-0.974357	-0.844037
C48	C	1.251793	-0.963856	-0.963156
C49	C	1.176769	-0.870690	-0.999812
C50	C	1.116550	-0.788029	-0.917344
H51	H	1.217336	-0.899473	-0.673385
H52	H	1.322133	-1.043325	-0.816901
H53	H	1.296371	-1.025047	-1.024204
H54	H	1.165809	-0.862913	-1.087996
H55	H	1.061012	-0.719062	-0.944480
C56	C	1.714790	-1.156215	-0.790280
C57	C	1.762746	-1.190135	-0.905092
C58	C	1.871590	-1.162026	-0.949016
C59	C	1.932478	-1.099997	-0.878129
C60	C	1.884522	-1.066073	-0.763311
C61	C	1.775678	-1.094183	-0.719386
H62	H	1.717673	-1.236056	-0.957573
H63	H	1.907090	-1.187138	-1.034013
H64	H	2.013051	-1.079188	-0.910645
H65	H	1.929596	-1.020152	-0.710830
H66	H	1.740178	-1.069070	-0.634390
C67	C	1.660281	-1.303952	-0.574948
C68	C	1.776251	-1.289225	-0.600892
C69	C	1.856041	-1.341272	-0.529941
C70	C	1.819863	-1.408046	-0.433046
C71	C	1.703887	-1.422777	-0.407097
C72	C	1.624097	-1.370730	-0.478048
H73	H	1.803037	-1.239792	-0.672624
H74	H	1.941894	-1.330368	-0.549151
H75	H	1.878928	-1.446575	-0.380524
H76	H	1.677100	-1.472210	-0.335365
H77	H	1.538244	-1.381634	-0.458838
C78	C	0.959546	-0.841064	-0.840646
C79	C	0.944743	-0.830563	-0.959764
C80	C	1.004959	-0.913227	-1.042232
C81	C	1.079978	-1.006390	-1.005581
C82	C	1.094785	-1.016894	-0.886457
C83	C	1.034569	-0.934231	-0.803989
H84	H	0.889206	-0.761595	-0.986900
H85	H	0.993997	-0.905450	-1.130415
H86	H	1.124553	-1.067582	-1.066629
H87	H	1.150322	-1.085863	-0.859321
H88	H	1.045531	-0.942007	-0.715806
H89	H	1.380988	-0.560755	-0.125359
C90	C	1.455730	-1.123469	-0.492695
C91	C	1.532605	-1.062720	-0.440904
C92	C	1.503314	-1.017262	-0.326123
C93	C	1.397148	-1.032552	-0.263133
C94	C	1.320267	-1.093303	-0.314923
C95	C	1.349558	-1.138762	-0.429705
H96	H	1.611201	-1.051399	-0.487534
H97	H	1.560227	-0.972290	-0.287785
H98	H	1.375465	-0.998901	-0.178165
H99	H	1.241670	-1.104625	-0.268294
H100	H	1.292644	-1.183734	-0.468043
C101	C	1.565343	-1.291715	-0.923125
C102	C	1.496993	-1.254901	-1.010821
C103	C	1.526159	-1.300532	-1.125549
C104	C	1.623674	-1.382976	-1.152581
C105	C	1.692030	-1.419794	-1.064883
C106	C	1.662865	-1.374163	-0.950155
H107	H	1.424801	-1.193868	-0.990812
H108	H	1.475557	-1.273277	-1.190469
H109	H	1.645264	-1.416755	-1.237510
H110	H	1.764223	-1.480828	-1.084892
H111	H	1.713467	-1.401418	-0.885235
C112	C	1.306714	-0.738769	-0.259061
C113	C	1.211419	-0.657529	-0.218827
C114	C	1.102669	-0.674014	-0.246533
C115	C	1.089215	-0.771738	-0.314472
C116	C	1.184513	-0.852984	-0.354710
C117	C	1.293263	-0.836499	-0.327004
H118	H	1.221376	-0.585182	-0.168531
H119	H	1.032123	-0.613870	-0.216746
H120	H	1.008712	-0.783941	-0.334981
H121	H	1.174556	-0.925331	-0.405006
H122	H	1.363809	-0.896643	-0.356791
H123	H	1.464704	-0.881453	-0.135692
C124	C	1.661213	-0.878853	-0.304921
C125	C	1.650268	-0.995847	-0.275007
C126	C	1.730524	-1.087036	-0.327048
C127	C	1.821724	-1.061232	-0.409003
C128	C	1.832672	-0.944233	-0.438921
C129	C	1.752416	-0.853043	-0.386880
H130	H	1.582753	-1.014953	-0.214335
H131	H	1.722419	-1.173647	-0.304901
H132	H	1.881134	-1.128737	-0.447528
H133	H	1.900187	-0.925127	-0.499593
H134	H	1.760521	-0.766433	-0.409027
H135	H	1.686378	-0.681201	-0.165100
H136	H	0.906492	-0.639154	-0.639225
H137	H	1.556523	-0.534333	-0.281403
H138	H	1.078293	-0.596643	-0.596816
H139	H	1.381668	-1.124352	-0.822357
