data_functionalizedCrystal
_audit_creation_method	'MofGen! by Chris Wilmer'
_symmetry_space_group_name_H-M	'P1'
_symmetry_Int_Tables_number	1
_symmetry_cell_setting	triclinic
loop_
_symmetry_equiv_pos_as_xyz
  x,y,z
_cell_length_a	13.897449
_cell_length_b	13.897448
_cell_length_c	12.759393
_cell_angle_alpha	89.966654
_cell_angle_beta	89.976808
_cell_angle_gamma	90.018519
loop_
_atom_site_label
_atom_site_type_symbol
_atom_site_fract_x
_atom_site_fract_y
_atom_site_fract_z
Zn1	Zn	1.474701	-0.383937	-0.594100
Zn2	Zn	1.974701	0.116063	-0.094100
Zn3	Zn	1.474595	-0.545266	-0.418415
Zn4	Zn	1.974595	-0.045266	0.081585
Zn5	Zn	1.313390	-0.383989	-0.418425
Zn6	Zn	1.813390	0.116011	0.081575
Zn7	Zn	1.313372	-0.545194	-0.594042
Zn8	Zn	1.813372	-0.045194	-0.094042
O9	O	1.394015	-0.464596	-0.506245
O10	O	1.894015	0.035404	-0.006245
O11	O	1.609668	-0.405346	-0.570815
O12	O	2.109668	0.094654	-0.070815
O13	O	1.453175	-0.523925	-0.271395
O14	O	1.953175	-0.023925	0.228605
O15	O	1.334841	-0.249000	-0.441757
O16	O	1.834841	0.251000	0.058243
O17	O	1.609591	-0.523874	-0.441740
O18	O	2.109591	-0.023874	0.058260
O19	O	1.453355	-0.248962	-0.570825
O20	O	1.953355	0.251038	-0.070825
O21	O	1.334738	-0.405435	-0.271402
O22	O	1.834738	0.094565	0.228598
O23	O	1.178406	-0.405365	-0.441701
O24	O	1.678406	0.094635	0.058299
O25	O	1.334808	-0.523750	-0.741071
O26	O	1.834808	-0.023750	-0.241071
O27	O	1.178392	-0.523801	-0.570726
O28	O	1.678392	-0.023801	-0.070726
O29	O	1.453336	-0.405276	-0.741113
O30	O	1.953336	0.094724	-0.241113
O31	O	1.453157	-0.680238	-0.441683
O32	O	1.953157	-0.180238	0.058317
O33	O	1.334706	-0.680185	-0.570716
O34	O	1.834706	-0.180185	-0.070716
C35	C	1.143400	-0.464582	-0.506209
C36	C	1.643400	0.035418	-0.006209
C37	C	1.036186	-0.464598	-0.506218
C38	C	1.536186	0.035402	-0.006218
C39	C	0.949116	-0.464602	-0.506235
C40	C	1.449116	0.035398	-0.006235
C41	C	0.839884	-0.464608	-0.506267
C42	C	1.339884	0.035392	-0.006267
C43	C	1.393944	-0.715211	-0.506215
C44	C	1.893944	-0.215211	-0.006215
C45	C	1.394002	-0.822425	-0.506237
C46	C	1.894002	-0.322425	-0.006237
C47	C	1.394104	-1.018720	-0.506303
C48	C	1.894104	-0.518720	-0.006303
C49	C	1.394044	-0.909487	-0.506269
C50	C	1.894044	-0.409487	-0.006269
C51	C	1.645607	-0.464612	-0.506283
C52	C	2.145607	0.035388	-0.006283
C53	C	1.752821	-0.464619	-0.506299
C54	C	2.252821	0.035381	-0.006299
C55	C	1.394082	-0.464499	-0.780279
C56	C	1.894082	0.035501	-0.280279
C57	C	1.394111	-0.464458	-0.897056
C58	C	1.894111	0.035542	-0.397056
C59	C	1.394111	-0.213003	-0.506299
C60	C	1.894111	0.286997	-0.006299
C61	C	1.394153	-0.105789	-0.506322
C62	C	1.894153	0.394211	-0.006322
C63	C	1.455837	-0.402762	-0.951942
C64	C	1.955837	0.097238	-0.451942
C65	C	1.455860	-0.402727	-1.061666
C66	C	1.955860	0.097273	-0.561666
C67	C	1.332428	-0.526092	-1.061608
C68	C	1.832428	-0.026092	-0.561608
C69	C	1.332401	-0.526121	-0.951886
C70	C	1.832401	-0.026121	-0.451886
C71	C	1.527102	-0.331541	-0.951976
C72	C	2.027102	0.168459	-0.451976
C73	C	1.527125	-0.331506	-1.061700
C74	C	2.027125	0.168494	-0.561700
C75	C	1.394003	-0.464624	-0.233278
C76	C	1.894003	0.035376	0.266722
C77	C	1.394161	-0.464393	-0.116502
C78	C	1.894161	0.035607	0.383498
H79	H	1.282184	-0.576294	-1.106264
H80	H	1.782184	-0.076294	-0.606264
O81	O	1.272395	-0.586128	-0.898732
O82	O	1.772395	-0.086128	-0.398732
C83	C	1.217916	-0.640523	-0.970658
C84	C	1.717916	-0.140523	-0.470658
H85	H	1.257449	-0.643862	-1.048873
H86	H	1.757449	-0.143862	-0.548873
H87	H	1.207563	-0.716525	-0.938925
H88	H	1.707563	-0.216525	-0.438925
H89	H	1.144686	-0.605170	-0.982337
H90	H	1.644686	-0.105170	-0.482337
O91	O	1.503088	-0.242457	-0.916519
O92	O	2.003088	0.257543	-0.416519
C93	C	1.410715	-0.217819	-0.953452
C94	C	1.910715	0.282181	-0.453452
H95	H	1.369028	-0.286165	-0.972923
H96	H	1.869028	0.213835	-0.472923
H97	H	1.370645	-0.175762	-0.890389
H98	H	1.870645	0.324238	-0.390389
H99	H	1.417776	-0.171609	-1.026909
H100	H	1.917776	0.328391	-0.526909
O101	O	1.611735	-0.363614	-0.911493
O102	O	2.111735	0.136386	-0.411493
C103	C	1.628625	-0.458582	-0.945667
C104	C	2.128625	0.041418	-0.445667
H105	H	1.586826	-0.472327	-1.021046
H106	H	2.086826	0.027673	-0.521046
H107	H	1.708795	-0.468892	-0.960898
H108	H	2.208795	0.031108	-0.460898
H109	H	1.603914	-0.511320	-0.882692
H110	H	2.103914	-0.011320	-0.382692
O111	O	1.495092	-0.246909	-1.102372
O112	O	1.995092	0.253091	-0.602372
C113	C	1.413009	-0.264079	-1.164524
C114	C	1.913009	0.235921	-0.664524
H115	H	1.377506	-0.334201	-1.138857
H116	H	1.877506	0.165799	-0.638857
H117	H	1.359958	-0.202194	-1.154640
H118	H	1.859958	0.297806	-0.654640
H119	H	1.435186	-0.269726	-1.250332
H120	H	1.935186	0.230274	-0.750332
O121	O	1.616170	-0.355483	-1.097375
O122	O	2.116170	0.144517	-0.597375
C123	C	1.609948	-0.439616	-1.158701
C124	C	2.109948	0.060384	-0.658701
H125	H	1.533528	-0.447739	-1.189910
H126	H	2.033528	0.052261	-0.689910
H127	H	1.662348	-0.434323	-1.227228
H128	H	2.162348	0.065677	-0.727228
H129	H	1.628937	-0.504818	-1.108557
H130	H	2.128937	-0.004818	-0.608557
