data_functionalizedCrystal
_audit_creation_method	'MofGen! by Chris Wilmer'
_symmetry_space_group_name_H-M	'P1'
_symmetry_Int_Tables_number	1
_symmetry_cell_setting	triclinic
loop_
_symmetry_equiv_pos_as_xyz
  x,y,z
_cell_length_a	6.817900
_cell_length_b	14.125469
_cell_length_c	16.306216
_cell_angle_alpha	95.870930
_cell_angle_beta	103.467292
_cell_angle_gamma	100.398878
loop_
_atom_site_label
_atom_site_type_symbol
_atom_site_fract_x
_atom_site_fract_y
_atom_site_fract_z
V1	V	-4.010681	-0.133866	-0.262698
O2	O	-4.014604	0.005658	-0.258033
O3	O	-3.946820	-0.264688	-0.260579
O4	O	-3.962333	-0.132146	-0.377417
O5	O	-3.998984	-0.127801	-0.140386
V6	V	-4.496305	-0.117137	-0.248108
O7	O	-4.267329	-0.170562	-0.294703
O8	O	-4.689854	-0.080441	-0.216103
O9	O	-4.336960	0.013686	-0.250227
O10	O	-4.609779	-0.256661	-0.252773
O11	O	-4.625400	-0.123201	-0.370420
O12	O	-4.321447	-0.118856	-0.133389
C13	C	-3.788058	-0.296569	-0.256352
C14	C	-3.817132	-0.403521	-0.255384
C15	C	-3.870429	-0.599341	-0.253624
C16	C	-4.055924	-0.651673	-0.257185
C17	C	-4.085582	-0.760635	-0.256206
C18	C	-3.840764	-0.490370	-0.254603
C19	C	-3.807845	-0.127498	-0.405389
C20	C	-3.849497	-0.126958	-0.499170
C21	C	-4.000682	-0.125019	-0.839927
C22	C	-4.204350	-0.131402	-0.809463
C23	C	-4.161057	-0.131594	-0.711871
C24	C	-3.925679	-0.125981	-0.670874
C25	C	-3.801201	-0.030557	-0.691314
C26	C	-3.845898	-0.029964	-0.788914
C27	C	-3.903656	-0.213722	-0.813593
C28	C	-3.864868	-0.215605	-0.716271
C29	C	-3.883277	-0.126522	-0.575331
C30	C	-4.043075	-0.124472	-0.935468
C31	C	-4.159063	0.045562	-0.254452
C32	C	-4.109228	0.152512	-0.255425
C33	C	-4.139276	-0.123508	-0.105413
C34	C	-4.076864	-0.124043	-0.011631
H35	H	-3.733905	-0.636368	-0.249839
Br36	Br	-3.952863	0.081873	-0.814460
Br37	Br	-4.323171	-0.245910	-0.690139
H38	H	-4.323292	-0.199764	-0.843857
Br39	Br	-4.328184	-0.025209	-0.838973
H40	H	-4.192458	-0.614643	-0.260967
Br41	Br	-3.513125	-0.017920	-0.645532
Br42	Br	-4.249620	-0.025062	-0.661504
H43	H	-3.693996	-0.021365	-0.808160
H44	H	-3.842768	0.036013	-0.659440
H45	H	-3.752250	-0.209804	-0.832763
H46	H	-4.008476	-0.285428	-0.849261
Br47	Br	-4.018676	-0.333191	-0.696113
H48	H	-3.695810	-0.217079	-0.688857
