data_functionalizedCrystal
_audit_creation_method	'MofGen! by Chris Wilmer'
_symmetry_space_group_name_H-M	'P1'
_symmetry_Int_Tables_number	1
_symmetry_cell_setting	triclinic
loop_
_symmetry_equiv_pos_as_xyz
  x,y,z
_cell_length_a	8.497365
_cell_length_b	10.685594
_cell_length_c	10.686220
_cell_angle_alpha	81.595529
_cell_angle_beta	85.661520
_cell_angle_gamma	94.323857
loop_
_atom_site_label
_atom_site_type_symbol
_atom_site_fract_x
_atom_site_fract_y
_atom_site_fract_z
Zn1	Zn	-0.743958	-0.355992	-1.901976
Zn2	Zn	-0.502096	-0.568367	-1.885534
Zn3	Zn	-0.502092	-0.372431	-1.689660
Zn4	Zn	-0.787682	-0.584482	-1.673450
O5	O	-0.633957	-0.470318	-1.787655
O6	O	-0.693577	-0.370541	-2.077408
O7	O	-0.281355	-0.542512	-1.859454
O8	O	-0.515875	-0.192627	-1.731489
O9	O	-0.515883	-0.526571	-2.065329
O10	O	-0.693573	-0.180549	-1.887477
O11	O	-0.281352	-0.398558	-1.715546
O12	O	-0.558273	-0.414184	-1.509896
O13	O	-1.002623	-0.554036	-1.703861
O14	O	-0.768095	-0.569977	-1.497986
O15	O	-0.970498	-0.386166	-1.871759
O16	O	-0.558281	-0.748128	-1.843736
O17	O	-0.768099	-0.759968	-1.687918
C18	C	-0.667929	-0.495614	-1.457888
C19	C	-0.682504	-0.506466	-1.316810
C20	C	-0.667966	-0.800101	-1.762319
C21	C	-0.682556	-0.941175	-1.751596
C22	C	-0.224101	-0.470464	-1.787553
C23	C	-0.045412	-0.470189	-1.787754
C24	C	-0.599853	-0.444925	-2.118710
C25	C	-0.585320	-0.434104	-2.259785
C26	C	-0.599846	-0.139245	-1.813125
C27	C	-0.585310	0.001839	-1.823979
H28	H	-0.490892	-0.939017	-1.894163
C29	C	-0.810114	-1.021057	-1.656790
C30	C	-0.825022	-1.166848	-1.645832
C31	C	-0.952581	-1.246740	-1.551025
C32	C	-1.065233	-1.180839	-1.467175
C33	C	-1.050329	-1.035040	-1.478130
C34	C	-0.922769	-0.955149	-1.572937
H35	H	-0.741627	-1.215639	-1.707905
H36	H	-0.963614	-1.354670	-1.542915
H37	H	-1.159660	-1.239980	-1.396993
H38	H	-1.133723	-0.986249	-1.416057
H39	H	-0.911737	-0.847218	-1.581046
C40	C	-0.457854	-0.339185	-1.339628
C41	C	-0.457990	-0.196276	-1.332595
C42	C	-0.330522	-0.101355	-1.412446
C43	C	-0.202919	-0.149344	-1.499330
C44	C	-0.202778	-0.292260	-1.506367
C45	C	-0.330246	-0.387181	-1.426515
H46	H	-0.552454	-0.160745	-1.268275
H47	H	-0.330627	0.004441	-1.407237
H48	H	-0.108560	-0.079078	-1.558441
H49	H	-0.108314	-0.327791	-1.570687
H50	H	-0.330141	-0.492977	-1.431725
H51	H	-0.776854	-0.576732	-1.257695
