data_functionalizedCrystal
_audit_creation_method	'MofGen! by Chris Wilmer'
_symmetry_space_group_name_H-M	'P1'
_symmetry_Int_Tables_number	1
_symmetry_cell_setting	triclinic
loop_
_symmetry_equiv_pos_as_xyz
  x,y,z
_cell_length_a	12.827893
_cell_length_b	18.050589
_cell_length_c	12.827885
_cell_angle_alpha	90.029741
_cell_angle_beta	90.019462
_cell_angle_gamma	90.028191
loop_
_atom_site_label
_atom_site_type_symbol
_atom_site_fract_x
_atom_site_fract_y
_atom_site_fract_z
Zn1	Zn	1.597578	-0.295623	0.590850
Zn2	Zn	1.930912	0.037711	0.924184
Zn3	Zn	2.264245	0.371044	1.257517
Zn4	Zn	1.597433	-0.419831	0.416111
Zn5	Zn	1.930766	-0.086498	0.749445
Zn6	Zn	2.264099	0.246836	1.082778
Zn7	Zn	1.422819	-0.295659	0.416124
Zn8	Zn	1.756153	0.037674	0.749457
Zn9	Zn	2.089486	0.371007	1.082791
Zn10	Zn	1.422766	-0.419775	0.590811
Zn11	Zn	1.756099	-0.086442	0.924145
Zn12	Zn	2.089433	0.246891	1.257478
O13	O	1.510149	-0.357722	0.503474
O14	O	1.843482	-0.024389	0.836808
O15	O	2.176816	0.308945	1.170141
O16	O	1.743795	-0.312107	0.567682
O17	O	2.077128	0.021226	0.901015
O18	O	2.410462	0.354559	1.234349
O19	O	1.574231	-0.403398	0.269877
O20	O	1.907565	-0.070065	0.603210
O21	O	2.240898	0.263269	0.936544
O22	O	1.446085	-0.191730	0.439323
O23	O	1.779418	0.141604	0.772657
O24	O	2.112751	0.474937	1.105990
O25	O	1.743688	-0.403362	0.439302
O26	O	2.077021	-0.070029	0.772635
O27	O	2.410355	0.263304	1.105969
O28	O	1.574479	-0.191703	0.567694
O29	O	1.907813	0.141630	0.901027
O30	O	2.241146	0.474964	1.234361
O31	O	1.445943	-0.312169	0.269886
O32	O	1.779277	0.021164	0.603220
O33	O	2.112610	0.354497	0.936553
O34	O	1.276576	-0.312116	0.439286
O35	O	1.609909	0.021218	0.772619
O36	O	1.943243	0.354551	1.105952
O37	O	1.445994	-0.403268	0.737053
O38	O	1.779327	-0.069934	1.070386
O39	O	2.112661	0.263399	1.403719
O40	O	1.276537	-0.403303	0.567628
O41	O	1.609870	-0.069970	0.900961
O42	O	1.943204	0.263364	1.234294
O43	O	1.574428	-0.312053	0.737081
O44	O	1.907761	0.021280	1.070415
O45	O	2.241094	0.354613	1.403748
O46	O	1.574180	-0.523748	0.439264
O47	O	1.907513	-0.190415	0.772597
O48	O	2.240846	0.142918	1.105931
O49	O	1.445853	-0.523707	0.567615
O50	O	1.779186	-0.190374	0.900949
O51	O	2.112519	0.142959	1.234282
C52	C	1.238639	-0.357708	0.503454
C53	C	1.571973	-0.024374	0.836788
C54	C	1.905306	0.308959	1.170121
C55	C	1.122486	-0.357720	0.503471
C56	C	1.455819	-0.024386	0.836804
C57	C	1.789153	0.308947	1.170137
C58	C	1.070710	-0.402912	0.566880
C59	C	1.404043	-0.069579	0.900214
C60	C	1.737376	0.263754	1.233547
C61	C	0.950659	-0.402926	0.566899
C62	C	1.283993	-0.069592	0.900232
C63	C	1.617326	0.263741	1.233565
C64	C	1.510023	-0.550674	0.503457
C65	C	1.843356	-0.217341	0.836790
C66	C	2.176690	0.115992	1.170124
C67	C	1.510065	-0.633220	0.503484
C68	C	1.843398	-0.299887	0.836818
C69	C	2.176731	0.033447	1.170151
C70	C	1.440349	-0.832675	0.573257
C71	C	1.773682	-0.499342	0.906591
C72	C	2.107016	-0.166009	1.239924
C73	C	1.414872	-0.882123	0.477900
C74	C	1.748205	-0.548790	0.811234
C75	C	2.081539	-0.215456	1.144567
C76	C	1.510167	-0.784350	0.503498
C77	C	1.843501	-0.451017	0.836831
C78	C	2.176834	-0.117684	1.170165
C79	C	1.535696	-0.881984	0.598866
C80	C	1.869029	-0.548651	0.932199
C81	C	2.202362	-0.215318	1.265533
C82	C	1.510264	-0.930335	0.503520
C83	C	1.843598	-0.597002	0.836853
C84	C	2.176931	-0.263669	1.170186
C85	C	1.484640	-0.832711	0.408091
C86	C	1.817973	-0.499377	0.741424
C87	C	2.151307	-0.166044	1.074757
C88	C	1.605508	-0.832568	0.529120
C89	C	1.938841	-0.499234	0.862454
C90	C	2.272175	-0.165901	1.195787
C91	C	1.580067	-0.881993	0.433698
C92	C	1.913401	-0.548660	0.767031
C93	C	2.246734	-0.215326	1.100364
C94	C	1.510109	-0.700252	0.503487
C95	C	1.843442	-0.366919	0.836820
C96	C	2.176775	-0.033585	1.170154
C97	C	1.510323	-1.014432	0.503520
C98	C	1.843657	-0.681099	0.836853
C99	C	2.176990	-0.347765	1.170187
C100	C	1.782719	-0.357737	0.503495
C101	C	2.116053	-0.024404	0.836828
C102	C	2.449386	0.308930	1.170161
C103	C	1.898872	-0.357743	0.503504
C104	C	2.232206	-0.024410	0.836837
C105	C	2.565539	0.308923	1.170170
C106	C	1.510221	-0.357650	0.776045
C107	C	1.843554	-0.024317	1.109378
C108	C	2.176888	0.309017	1.442711
C109	C	1.510252	-0.357619	0.892198
C110	C	1.843585	-0.024286	1.225531
C111	C	2.176919	0.309047	1.558864
C112	C	1.510304	-0.164016	0.503515
C113	C	1.843638	0.169317	0.836848
C114	C	2.176971	0.502650	1.170181
C115	C	1.510370	-0.081471	0.503532
C116	C	1.843704	0.251863	0.836865
C117	C	2.177037	0.585196	1.170198
C118	C	1.510137	-0.357740	0.231964
C119	C	1.843471	-0.024407	0.565298
C120	C	2.176804	0.308927	0.898631
C121	C	1.510309	-0.357562	0.115812
C122	C	1.843643	-0.024228	0.449145
C123	C	2.176976	0.309105	0.782478
C124	C	1.573842	-0.312444	1.064041
C125	C	1.907176	0.020889	1.397374
C126	C	2.240509	0.354222	1.730708
C127	C	1.573812	-0.312475	0.943991
C128	C	1.907145	0.020858	1.277324
C129	C	2.240479	0.354192	1.610657
H130	H	1.077937	-0.319035	0.449201
H131	H	1.411270	0.014298	0.782534
H132	H	1.744604	0.347632	1.115868
H133	H	1.628261	-0.273798	1.108595
H134	H	1.961595	0.059536	1.441929
H135	H	2.294928	0.392869	1.775262
H136	H	0.906133	-0.441619	0.621183
H137	H	1.239466	-0.108286	0.954516
H138	H	1.572799	0.225047	1.287850
F139	F	1.309541	-0.910572	0.449575
F140	F	1.642875	-0.577239	0.782909
F141	F	1.976208	-0.243905	1.116242
F142	F	1.363066	-0.804369	0.650258
F143	F	1.696399	-0.471035	0.983592
F144	F	2.029732	-0.137702	1.316925
H145	H	1.462994	-0.811156	0.327426
H146	H	1.796327	-0.477823	0.660759
H147	H	2.129660	-0.144489	0.994092
F148	F	0.957061	-0.307171	0.432535
F149	F	1.290395	0.026163	0.765868
F150	F	1.623728	0.359496	1.099202
F151	F	1.644905	-0.261981	0.885802
F152	F	1.978238	0.071352	1.219135
F153	F	2.311571	0.404685	1.552468
H154	H	1.686071	-0.810787	0.550818
H155	H	2.019404	-0.477453	0.884151
H156	H	2.352738	-0.144120	1.217485
F157	F	1.657298	-0.910119	0.356516
F158	F	1.990631	-0.576786	0.689849
F159	F	2.323965	-0.243453	1.023182
F160	F	1.439146	-0.408107	0.950380
F161	F	1.772479	-0.074774	1.283713
F162	F	2.105812	0.258559	1.617047
F163	F	1.439187	-0.408085	1.057582
F164	F	1.772521	-0.074751	1.390915
F165	F	2.105854	0.258582	1.724248
F166	F	1.128933	-0.453476	0.637820
F167	F	1.462266	-0.120143	0.971153
F168	F	1.795599	0.213190	1.304487
F169	F	1.563866	-0.910278	0.704270
F170	F	1.897200	-0.576945	1.037603
F171	F	2.230533	-0.243612	1.370937
