data_functionalizedCrystal
_audit_creation_method	'MofGen! by Chris Wilmer'
_symmetry_space_group_name_H-M	'P1'
_symmetry_Int_Tables_number	1
_symmetry_cell_setting	triclinic
loop_
_symmetry_equiv_pos_as_xyz
  x,y,z
_cell_length_a	17.699083
_cell_length_b	10.489741
_cell_length_c	16.176319
_cell_angle_alpha	89.993511
_cell_angle_beta	89.998611
_cell_angle_gamma	83.911094
loop_
_atom_site_label
_atom_site_type_symbol
_atom_site_fract_x
_atom_site_fract_y
_atom_site_fract_z
O1	O	1.005134	0.161296	-0.068630
O2	O	0.784893	0.182281	-0.068657
O3	O	0.900025	-0.013903	-0.068638
O4	O	0.890002	0.357479	-0.068649
O5	O	0.900009	-0.013915	0.068855
O6	O	0.784877	0.182268	0.068836
O7	O	1.005118	0.161283	0.068863
Cu8	Cu	0.894996	0.171775	0.081404
Cu9	Cu	0.895015	0.171789	-0.081198
O10	O	0.889986	0.357467	0.068844
C11	C	0.756683	0.181523	0.000086
C12	C	0.672650	0.179267	0.000076
C13	C	0.624782	0.294422	0.000073
C14	C	0.545825	0.292295	0.000083
C15	C	0.514737	0.175011	0.000091
C16	C	0.562611	0.059847	0.000097
C17	C	0.641567	0.061975	0.000092
C18	C	0.244192	0.051260	0.000118
C19	C	0.165230	0.049140	0.000120
C20	C	0.148450	0.281580	0.000109
C21	C	0.227406	0.283709	0.000104
C22	C	0.275273	0.168545	0.000114
C23	C	0.360887	0.170853	0.000104
C24	C	0.429124	0.172702	0.000096
C25	C	0.899260	-0.061427	0.000108
C26	C	0.896995	-0.203014	0.000106
C27	C	0.823740	-0.269793	0.000091
C28	C	0.858337	-0.362565	0.067887
C29	C	0.858370	-0.362527	-0.067671
C30	C	0.931622	-0.293921	0.067958
C31	C	0.931645	-0.293874	-0.067661
C32	C	0.966296	-0.386619	0.000151
C33	C	1.033328	0.162042	0.000118
C34	C	1.117361	0.164297	0.000123
C35	C	0.890751	0.404991	0.000096
C36	C	0.893016	0.546578	0.000093
N37	N	0.894988	0.171764	0.195769
N38	N	0.895029	0.171790	-0.195563
C39	C	0.945984	0.084929	0.239042
C40	C	0.945988	0.084928	0.325589
C41	C	0.894999	0.171768	0.368862
C42	C	0.843997	0.258607	0.325583
C43	C	0.843990	0.258601	0.239037
C44	C	0.844023	0.258631	0.674611
C45	C	0.844036	0.258632	0.761163
C46	C	0.946021	0.084957	0.761162
C47	C	0.946014	0.084951	0.674617
C48	C	0.895010	0.171785	0.631346
C49	C	0.895006	0.171784	0.537502
C50	C	0.895006	0.171776	0.462704
H51	H	0.506854	0.386067	0.000080
C52	C	0.816495	-0.403587	-0.145101
H53	H	0.765854	-0.363160	-0.145018
H54	H	0.815755	-0.494003	-0.144819
H55	H	0.842036	-0.378900	-0.193237
C56	C	0.787931	0.354138	0.808762
H57	H	0.757546	0.405839	0.770597
H58	H	0.815434	0.407188	0.842519
H59	H	0.756188	0.308290	0.842527
C60	C	1.002072	-0.010599	0.191449
H61	H	1.032439	-0.062322	0.229619
H62	H	1.033823	0.035210	0.157677
H63	H	0.974551	-0.063643	0.157699
C64	C	1.002091	-0.010578	0.373185
H65	H	1.032465	-0.062284	0.335018
H66	H	0.974590	-0.063623	0.406958
H67	H	1.033845	0.035259	0.406935
C68	C	0.787943	0.354173	0.627020
H69	H	0.795236	0.341738	0.569278
H70	H	0.796639	0.439272	0.641203
H71	H	0.737352	0.340445	0.641206
H72	H	0.802477	0.329310	0.360821
C73	C	1.002100	-0.010576	0.627021
H74	H	1.032467	-0.062302	0.665189
H75	H	1.033850	0.035233	0.593248
H76	H	0.974576	-0.063618	0.593272
C77	C	1.002118	-0.010573	0.808763
H78	H	0.994816	0.001853	0.866504
H79	H	1.052701	0.003173	0.794573
H80	H	0.993431	-0.095685	0.794585
H81	H	0.802463	0.329309	0.203806
C82	C	0.816458	-0.403697	0.145303
H83	H	0.765812	-0.363293	0.145216
H84	H	0.841991	-0.379057	0.193446
H85	H	0.815722	-0.494120	0.144995
C86	C	0.131034	-0.079878	0.000137
H87	H	0.170850	-0.148161	0.000151
H88	H	0.100582	-0.085542	-0.047807
H89	H	0.100583	-0.085528	0.048092
C90	C	0.973449	-0.253070	0.145476
H91	H	0.989486	-0.326605	0.177807
H92	H	0.940164	-0.195208	0.177162
H93	H	1.016510	-0.212210	0.129278
H94	H	0.252713	0.379213	0.000094
H95	H	0.650088	0.389929	0.000065
C96	C	1.047729	-0.454914	0.000211
H97	H	1.073618	-0.431446	0.048414
H98	H	1.073953	-0.430357	-0.047485
H99	H	1.045850	-0.545085	-0.000240
C100	C	0.296835	-0.075414	0.000123
H101	H	0.267009	-0.145565	0.000120
H102	H	0.327985	-0.079424	0.048069
H103	H	0.327984	-0.079415	-0.047831
H104	H	0.109467	0.375352	0.000105
C105	C	0.973489	-0.252690	-0.145081
H106	H	0.947396	-0.275900	-0.193208
H107	H	1.023845	-0.294299	-0.145563
H108	H	0.975024	-0.162446	-0.144245
H109	H	0.537293	-0.035648	0.000115
H110	H	0.680540	-0.031796	0.000094
H111	H	0.763510	-0.219023	0.000152
