data_functionalizedCrystal
_audit_creation_method	'MofGen! by Chris Wilmer'
_symmetry_space_group_name_H-M	'P1'
_symmetry_Int_Tables_number	1
_symmetry_cell_setting	triclinic
loop_
_symmetry_equiv_pos_as_xyz
  x,y,z
_cell_length_a	18.050591
_cell_length_b	18.050589
_cell_length_c	19.805399
_cell_angle_alpha	89.976299
_cell_angle_beta	89.979210
_cell_angle_gamma	90.024669
loop_
_atom_site_label
_atom_site_type_symbol
_atom_site_fract_x
_atom_site_fract_y
_atom_site_fract_z
Zn1	Zn	1.135300	-0.295737	-0.382815
Zn2	Zn	1.385300	-0.045737	-0.132815
Zn3	Zn	1.635300	0.204263	0.117185
Zn4	Zn	1.885300	0.454263	0.367185
Zn5	Zn	1.135209	-0.419932	-0.269637
Zn6	Zn	1.385209	-0.169932	-0.019637
Zn7	Zn	1.635209	0.080068	0.230363
Zn8	Zn	1.885209	0.330068	0.480363
Zn9	Zn	1.011117	-0.295753	-0.269632
Zn10	Zn	1.261117	-0.045753	-0.019632
Zn11	Zn	1.511117	0.204247	0.230368
Zn12	Zn	1.761117	0.454247	0.480368
Zn13	Zn	1.011067	-0.419882	-0.382776
Zn14	Zn	1.261067	-0.169882	-0.132776
Zn15	Zn	1.511067	0.080118	0.117224
Zn16	Zn	1.761067	0.330118	0.367224
O17	O	1.073173	-0.357826	-0.326215
O18	O	1.323173	-0.107826	-0.076215
O19	O	1.573173	0.142174	0.173785
O20	O	1.823173	0.392174	0.423785
O21	O	1.239213	-0.312226	-0.367820
O22	O	1.489213	-0.062226	-0.117820
O23	O	1.739213	0.187774	0.132180
O24	O	1.989213	0.437774	0.382180
O25	O	1.118730	-0.403487	-0.174920
O26	O	1.368730	-0.153487	0.075080
O27	O	1.618730	0.096513	0.325080
O28	O	1.868730	0.346513	0.575080
O29	O	1.027649	-0.191826	-0.284660
O30	O	1.277649	0.058174	-0.034660
O31	O	1.527649	0.308174	0.215340
O32	O	1.777649	0.558174	0.465340
O33	O	1.239145	-0.403472	-0.284669
O34	O	1.489145	-0.153472	-0.034669
O35	O	1.739145	0.096528	0.215331
O36	O	1.989145	0.346528	0.465331
O37	O	1.118886	-0.191814	-0.367815
O38	O	1.368886	0.058186	-0.117815
O39	O	1.618886	0.308186	0.132185
O40	O	1.868886	0.558186	0.382185
O41	O	1.027561	-0.312253	-0.174916
O42	O	1.277561	-0.062253	0.075084
O43	O	1.527561	0.187747	0.325084
O44	O	1.777561	0.437747	0.575084
O45	O	0.907186	-0.312204	-0.284622
O46	O	1.157186	-0.062204	-0.034622
O47	O	1.407186	0.187796	0.215378
O48	O	1.657186	0.437796	0.465378
O49	O	1.027565	-0.403386	-0.477498
O50	O	1.277565	-0.153386	-0.227498
O51	O	1.527565	0.096614	0.022502
O52	O	1.777565	0.346614	0.272502
O53	O	0.907149	-0.403401	-0.367749
O54	O	1.157149	-0.153401	-0.117749
O55	O	1.407149	0.096599	0.132251
O56	O	1.657149	0.346599	0.382251
O57	O	1.118838	-0.312177	-0.477526
O58	O	1.368838	-0.062177	-0.227526
O59	O	1.618838	0.187823	0.022474
O60	O	1.868838	0.437823	0.272474
O61	O	1.118682	-0.523850	-0.284631
O62	O	1.368682	-0.273850	-0.034631
O63	O	1.618682	-0.023850	0.215369
O64	O	1.868682	0.226150	0.465369
O65	O	1.027476	-0.523813	-0.367754
O66	O	1.277476	-0.273813	-0.117754
O67	O	1.527476	-0.023813	0.132246
O68	O	1.777476	0.226187	0.382246
C69	C	0.880221	-0.357800	-0.326181
C70	C	1.130221	-0.107800	-0.076181
C71	C	1.380221	0.142200	0.173819
C72	C	1.630221	0.392200	0.423819
C73	C	0.797675	-0.357806	-0.326183
C74	C	1.047675	-0.107806	-0.076183
C75	C	1.297675	0.142194	0.173817
C76	C	1.547675	0.392194	0.423817
C77	C	0.548848	-0.308162	-0.281085
C78	C	0.798848	-0.058162	-0.031085
C79	C	1.048848	0.191838	0.218915
C80	C	1.298848	0.441838	0.468915
C81	C	0.598281	-0.290074	-0.342855
C82	C	0.848281	-0.040074	-0.092855
C83	C	1.098281	0.209926	0.157145
C84	C	1.348281	0.459926	0.407145
C85	C	0.500555	-0.357844	-0.326238
C86	C	0.750555	-0.107844	-0.076238
C87	C	1.000555	0.142156	0.173762
C88	C	1.250555	0.392156	0.423762
C89	C	0.598203	-0.375878	-0.264445
C90	C	0.848203	-0.125878	-0.014445
C91	C	1.098203	0.124122	0.235555
C92	C	1.348203	0.374122	0.485555
C93	C	0.646540	-0.357824	-0.326208
C94	C	0.896540	-0.107824	-0.076208
C95	C	1.146540	0.142176	0.173792
C96	C	1.396540	0.392176	0.423792
C97	C	0.548901	-0.339722	-0.388041
C98	C	0.798901	-0.089722	-0.138041
C99	C	1.048901	0.160278	0.111959
C100	C	1.298901	0.410278	0.361959
C101	C	0.548819	-0.425557	-0.309589
C102	C	0.798819	-0.175557	-0.059589
C103	C	1.048819	0.074443	0.190411
C104	C	1.298819	0.324443	0.440411
C105	C	0.598230	-0.407495	-0.371401
C106	C	0.848230	-0.157495	-0.121401
C107	C	1.098230	0.092505	0.128599
C108	C	1.348230	0.342505	0.378599
C109	C	0.416457	-0.357854	-0.326255
C110	C	0.666457	-0.107854	-0.076255
C111	C	0.916457	0.142146	0.173745
C112	C	1.166457	0.392146	0.423745
C113	C	0.730637	-0.357814	-0.326198
C114	C	0.980637	-0.107814	-0.076198
C115	C	1.230637	0.142186	0.173802
C116	C	1.480637	0.392186	0.423802
C117	C	1.073084	-0.550778	-0.326204
C118	C	1.323084	-0.300778	-0.076204
C119	C	1.573084	-0.050778	0.173796
C120	C	1.823084	0.199222	0.423796
C121	C	1.073113	-0.633324	-0.326222
C122	C	1.323113	-0.383324	-0.076222
C123	C	1.573113	-0.133324	0.173778
C124	C	1.823113	0.116676	0.423778
C125	C	1.023564	-0.832781	-0.371408
C126	C	1.273564	-0.582781	-0.121408
C127	C	1.523564	-0.332781	0.128592
C128	C	1.773564	-0.082781	0.378592
C129	C	1.005465	-0.882221	-0.309644
C130	C	1.255465	-0.632221	-0.059644
C131	C	1.505465	-0.382221	0.190356
C132	C	1.755465	-0.132221	0.440356
C133	C	1.073186	-0.784454	-0.326230
C134	C	1.323186	-0.534454	-0.076230
C135	C	1.573186	-0.284454	0.173770
C136	C	1.823186	-0.034454	0.423770
C137	C	1.091322	-0.882096	-0.388002
C138	C	1.341322	-0.632096	-0.138002
C139	C	1.591322	-0.382096	0.111998
C140	C	1.841322	-0.132096	0.361998
C141	C	1.073255	-0.930439	-0.326244
C142	C	1.323255	-0.680439	-0.076244
C143	C	1.573255	-0.430439	0.173756
C144	C	1.823255	-0.180439	0.423756
C145	C	1.055051	-0.832806	-0.264433
C146	C	1.305051	-0.582806	-0.014433
C147	C	1.555051	-0.332806	0.235567
C148	C	1.805051	-0.082806	0.485567
C149	C	1.140940	-0.832678	-0.342833
C150	C	1.390940	-0.582678	-0.092833
C151	C	1.640940	-0.332678	0.157167
C152	C	1.890940	-0.082678	0.407167
C153	C	1.122866	-0.882095	-0.281026
C154	C	1.372866	-0.632095	-0.031026
C155	C	1.622866	-0.382095	0.218974
C156	C	1.872866	-0.132095	0.468974
C157	C	1.073144	-0.700356	-0.326223
C158	C	1.323144	-0.450356	-0.076223
C159	C	1.573144	-0.200356	0.173777
C160	C	1.823144	0.049644	0.423777
C161	C	1.073297	-1.014536	-0.326245
C162	C	1.323297	-0.764536	-0.076245
C163	C	1.573297	-0.514536	0.173755
C164	C	1.823297	-0.264536	0.423755
C165	C	1.266879	-0.357853	-0.326249
C166	C	1.516879	-0.107853	-0.076249
C167	C	1.766879	0.142147	0.173751
C168	C	2.016879	0.392147	0.423751
C169	C	1.349425	-0.357864	-0.326264
C170	C	1.599425	-0.107864	-0.076264
C171	C	1.849425	0.142136	0.173736
C172	C	2.099425	0.392136	0.423736
C173	C	1.073206	-0.357774	-0.502758
C174	C	1.323206	-0.107774	-0.252758
C175	C	1.573206	0.142226	-0.002758
C176	C	1.823206	0.392226	0.247242
C177	C	1.073220	-0.357752	-0.577990
C178	C	1.323220	-0.107752	-0.327990
C179	C	1.573220	0.142248	-0.077990
C180	C	1.823220	0.392248	0.172010
C181	C	1.073283	-0.164120	-0.326241
C182	C	1.323283	0.085880	-0.076241
C183	C	1.573283	0.335880	0.173759
C184	C	1.823283	0.585880	0.423759
C185	C	1.073330	-0.081574	-0.326252
C186	C	1.323330	0.168426	-0.076252
C187	C	1.573330	0.418426	0.173748
C188	C	1.823330	0.668426	0.423748
C189	C	1.025761	-0.310242	-0.613331
C190	C	1.275761	-0.060242	-0.363331
C191	C	1.525761	0.189758	-0.113331
C192	C	1.775761	0.439758	0.136669
C193	C	1.025771	-0.310228	-0.684020
C194	C	1.275771	-0.060228	-0.434020
C195	C	1.525771	0.189772	-0.184020
C196	C	1.775771	0.439772	0.065980
C197	C	1.073244	-0.357720	-0.719366
C198	C	1.323244	-0.107720	-0.469366
C199	C	1.573244	0.142280	-0.219366
C200	C	1.823244	0.392280	0.030634
C201	C	1.120705	-0.405235	-0.684019
C202	C	1.370705	-0.155235	-0.434019
C203	C	1.620705	0.094765	-0.184019
C204	C	1.870705	0.344765	0.065981
C205	C	1.120690	-0.405253	-0.613332
C206	C	1.370690	-0.155253	-0.363332
C207	C	1.620690	0.094747	-0.113332
C208	C	1.870690	0.344747	0.136668
C209	C	1.120764	-0.405166	-0.969092
C210	C	1.370764	-0.155166	-0.719092
C211	C	1.620764	0.094834	-0.469092
C212	C	1.870764	0.344834	-0.219092
C213	C	1.120776	-0.405143	-1.039785
C214	C	1.370776	-0.155143	-0.789785
C215	C	1.620776	0.094857	-0.539785
C216	C	1.870776	0.344857	-0.289785
C217	C	1.025845	-0.310141	-1.039781
C218	C	1.275845	-0.060141	-0.789781
C219	C	1.525845	0.189859	-0.539781
C220	C	1.775845	0.439859	-0.289781
C221	C	1.025830	-0.310158	-0.969093
C222	C	1.275830	-0.060158	-0.719093
C223	C	1.525830	0.189842	-0.469093
C224	C	1.775830	0.439842	-0.219093
C225	C	1.073288	-0.357676	-0.933753
C226	C	1.323288	-0.107676	-0.683753
C227	C	1.573288	0.142324	-0.433753
C228	C	1.823288	0.392324	-0.183753
C229	C	1.073275	-0.357692	-0.857105
C230	C	1.323275	-0.107692	-0.607105
C231	C	1.573275	0.142308	-0.357105
C232	C	1.823275	0.392308	-0.107105
C233	C	1.073261	-0.357701	-0.796013
C234	C	1.323261	-0.107701	-0.546013
C235	C	1.573261	0.142299	-0.296013
C236	C	1.823261	0.392299	-0.046013
C237	C	1.073184	-0.357823	-0.150359
C238	C	1.323184	-0.107823	0.099641
C239	C	1.573184	0.142177	0.349641
C240	C	1.823184	0.392177	0.599641
C241	C	1.073314	-0.357636	-0.075127
C242	C	1.323314	-0.107636	0.174873
C243	C	1.573314	0.142364	0.424873
C244	C	1.823314	0.392364	0.674873
H245	H	0.619862	-0.391139	-0.212200
H246	H	0.869862	-0.141139	0.037800
H247	H	1.119862	0.108861	0.287800
H248	H	1.369862	0.358861	0.537800
N249	N	0.520391	-0.319383	-0.457276
N250	N	0.770391	-0.069383	-0.207276
N251	N	1.020391	0.180617	0.042724
N252	N	1.270391	0.430617	0.292724
H253	H	0.489202	-0.361276	-0.475571
H254	H	0.739202	-0.111276	-0.225571
H255	H	0.989202	0.138724	0.024429
H256	H	1.239202	0.388724	0.274429
H257	H	0.489300	-0.273018	-0.454012
H258	H	0.739300	-0.023018	-0.204012
H259	H	0.989300	0.226982	0.045988
H260	H	1.239300	0.476982	0.295988
N261	N	1.171975	-0.456371	-1.077914
N262	N	1.421975	-0.206371	-0.827914
N263	N	1.671975	0.043629	-0.577914
N264	N	1.921975	0.293629	-0.327914
H265	H	1.225044	-0.444857	-1.065625
H266	H	1.475044	-0.194857	-0.815625
H267	H	1.725044	0.055143	-0.565625
H268	H	1.975044	0.305143	-0.315625
H269	H	1.160339	-0.509415	-1.065592
H270	H	1.410339	-0.259415	-0.815592
H271	H	1.660339	-0.009415	-0.565592
H272	H	1.910339	0.240585	-0.315592
N273	N	1.171914	-0.456460	-0.722133
N274	N	1.421914	-0.206460	-0.472133
N275	N	1.671914	0.043540	-0.222133
N276	N	1.921914	0.293540	0.027867
H277	H	1.160345	-0.509523	-0.709820
H278	H	1.410345	-0.259523	-0.459820
H279	H	1.660345	-0.009523	-0.209820
H280	H	1.910345	0.240477	0.040180
H281	H	1.164705	-0.449179	-0.772265
H282	H	1.414705	-0.199179	-0.522265
H283	H	1.664705	0.050821	-0.272265
H284	H	1.914705	0.300821	-0.022265
N285	N	0.974646	-0.258899	-1.077900
N286	N	1.224646	-0.008899	-0.827900
N287	N	1.474646	0.241101	-0.577900
N288	N	1.724646	0.491101	-0.327900
H289	H	0.944573	-0.228815	-1.044781
H290	H	1.194573	0.021185	-0.794781
H291	H	1.444573	0.271185	-0.544781
H292	H	1.694573	0.521185	-0.294781
H293	H	1.004900	-0.224529	-1.107242
H294	H	1.254900	0.025471	-0.857242
H295	H	1.504900	0.275471	-0.607242
H296	H	1.754900	0.525471	-0.357242
N297	N	1.171880	-0.456499	-0.575216
N298	N	1.421880	-0.206499	-0.325216
N299	N	1.671880	0.043501	-0.075216
N300	N	1.921880	0.293501	0.174784
H301	H	1.224951	-0.444970	-0.587528
H302	H	1.474951	-0.194970	-0.337528
H303	H	1.724951	0.055030	-0.087528
H304	H	1.974951	0.305030	0.162472
H305	H	1.164605	-0.449286	-0.525085
H306	H	1.414605	-0.199286	-0.275085
H307	H	1.664605	0.050714	-0.025085
H308	H	1.914605	0.300714	0.224915
H309	H	0.981539	-0.811128	-0.409559
H310	H	1.231539	-0.561128	-0.159559
H311	H	1.481539	-0.311128	0.090441
H312	H	1.731539	-0.061128	0.340441
H313	H	0.527167	-0.266124	-0.242961
H314	H	0.777167	-0.016124	0.007039
H315	H	1.027167	0.233876	0.257039
H316	H	1.277167	0.483876	0.507039
N317	N	0.627061	-0.214215	-0.361504
N318	N	0.877061	0.035785	-0.111504
N319	N	1.127061	0.285785	0.138496
N320	N	1.377061	0.535785	0.388496
H321	H	0.609102	-0.176726	-0.327383
H322	H	0.859102	0.073274	-0.077383
H323	H	1.109102	0.323274	0.172617
H324	H	1.359102	0.573274	0.422617
H325	H	0.683006	-0.214959	-0.361796
H326	H	0.933006	0.035041	-0.111796
H327	H	1.183006	0.285041	0.138204
H328	H	1.433006	0.535041	0.388204
H329	H	1.039674	-0.811244	-0.212185
H330	H	1.289674	-0.561244	0.037815
H331	H	1.539674	-0.311244	0.287815
H332	H	1.789674	-0.061244	0.537815
H333	H	0.619774	-0.449501	-0.409616
H334	H	0.869774	-0.199501	-0.159616
H335	H	1.119774	0.050499	0.090384
H336	H	1.369774	0.300499	0.340384
N337	N	0.974560	-0.259010	-0.575217
N338	N	1.224560	-0.009010	-0.325217
N339	N	1.474560	0.240990	-0.075217
N340	N	1.724560	0.490990	0.174783
H341	H	0.921494	-0.270533	-0.587509
H342	H	1.171494	-0.020533	-0.337509
H343	H	1.421494	0.229467	-0.087509
H344	H	1.671494	0.479467	0.162491
H345	H	0.981813	-0.266247	-0.525086
H346	H	1.231813	-0.016247	-0.275086
H347	H	1.481813	0.233753	-0.025086
H348	H	1.731813	0.483753	0.224914
N349	N	0.520015	-0.501398	-0.290928
N350	N	0.770015	-0.251398	-0.040928
N351	N	1.020015	-0.001398	0.209072
N352	N	1.270015	0.248602	0.459072
H353	H	0.537915	-0.514986	-0.244228
H354	H	0.787915	-0.264986	0.005772
H355	H	1.037915	-0.014986	0.255772
H356	H	1.287915	0.235014	0.505772
H357	H	0.464070	-0.500904	-0.291555
H358	H	0.714070	-0.250904	-0.041555
H359	H	0.964070	-0.000904	0.208445
H360	H	1.214070	0.249096	0.458445
N361	N	1.216777	-0.803830	-0.361451
N362	N	1.466777	-0.553830	-0.111451
N363	N	1.716777	-0.303830	0.138549
N364	N	1.966777	-0.053830	0.388549
H365	H	1.230407	-0.821726	-0.408140
H366	H	1.480407	-0.571726	-0.158140
H367	H	1.730407	-0.321726	0.091860
H368	H	1.980407	-0.071726	0.341860
H369	H	1.216249	-0.747885	-0.360831
H370	H	1.466249	-0.497885	-0.110831
H371	H	1.716249	-0.247885	0.139169
H372	H	1.966249	0.002115	0.389169
H373	H	1.159399	-0.443866	-0.940327
H374	H	1.409399	-0.193866	-0.690327
H375	H	1.659399	0.056134	-0.440327
H376	H	1.909399	0.306134	-0.190327
H377	H	0.948200	-0.903999	-0.295614
H378	H	1.198200	-0.653999	-0.045614
H379	H	1.448200	-0.403999	0.204386
H380	H	1.698200	-0.153999	0.454386
H381	H	1.164860	-0.903611	-0.242783
H382	H	1.414860	-0.653611	0.007217
H383	H	1.664860	-0.403611	0.257217
H384	H	1.914860	-0.153611	0.507217
N385	N	1.111606	-0.910784	-0.457187
N386	N	1.361606	-0.660784	-0.207187
N387	N	1.611606	-0.410784	0.042813
N388	N	1.861606	-0.160784	0.292813
H389	H	1.074060	-0.892846	-0.491267
H390	H	1.324060	-0.642846	-0.241267
H391	H	1.574060	-0.392846	0.008733
H392	H	1.824060	-0.142846	0.258733
H393	H	1.162405	-0.891984	-0.470015
H394	H	1.412405	-0.641984	-0.220015
H395	H	1.662405	-0.391984	0.029985
H396	H	1.912405	-0.141984	0.279985
N397	N	0.974582	-0.258988	-0.722139
N398	N	1.224582	-0.008988	-0.472139
N399	N	1.474582	0.241012	-0.222139
N400	N	1.724582	0.491012	0.027861
H401	H	0.944509	-0.228901	-0.689022
H402	H	1.194509	0.021099	-0.439022
H403	H	1.444509	0.271099	-0.189022
H404	H	1.694509	0.521099	0.060978
H405	H	1.004837	-0.224618	-0.751481
H406	H	1.254837	0.025382	-0.501481
H407	H	1.504837	0.275382	-0.251481
H408	H	1.754837	0.525382	-0.001481
H409	H	0.987176	-0.271482	-0.940319
H410	H	1.237176	-0.021482	-0.690319
H411	H	1.487176	0.228518	-0.440319
H412	H	1.737176	0.478518	-0.190319
