data_functionalizedCrystal
_audit_creation_method	'MofGen! by Chris Wilmer'
_symmetry_space_group_name_H-M	'P1'
_symmetry_Int_Tables_number	1
_symmetry_cell_setting	triclinic
loop_
_symmetry_equiv_pos_as_xyz
  x,y,z
_cell_length_a	17.019311
_cell_length_b	17.038272
_cell_length_c	9.798715
_cell_angle_alpha	89.996584
_cell_angle_beta	86.116594
_cell_angle_gamma	87.245400
loop_
_atom_site_label
_atom_site_type_symbol
_atom_site_fract_x
_atom_site_fract_y
_atom_site_fract_z
O1	O	1.053363	0.099628	-0.237285
O2	O	0.824550	0.112322	-0.210398
O3	O	0.937597	-0.007839	-0.223671
O4	O	0.940316	0.219789	-0.224012
O5	O	0.937588	-0.007839	0.003312
O6	O	0.824541	0.112322	0.016585
O7	O	1.053354	0.099628	-0.010302
Zn8	Zn	0.938946	0.105975	0.039180
Zn9	Zn	0.938958	0.105975	-0.259880
O10	O	0.940307	0.219789	0.002971
C11	C	0.795124	0.111840	-0.093449
C12	C	0.707457	0.110393	-0.083147
C13	C	0.211627	0.102237	-0.018677
C14	C	0.293999	0.103596	-0.028359
C15	C	0.335191	0.104270	-0.156931
C16	C	0.294005	0.103592	-0.275829
C17	C	0.211634	0.102239	-0.266145
C18	C	0.583900	0.108362	-0.192360
C19	C	0.666277	0.109713	-0.202035
C20	C	0.666265	0.109718	0.045435
C21	C	0.583893	0.108360	0.055108
C22	C	0.542714	0.107687	-0.063789
C23	C	0.419389	0.105657	-0.166832
C24	C	0.458517	0.106305	-0.053888
C25	C	0.935118	-0.036965	-0.109889
C26	C	0.927738	-0.123752	-0.109022
C27	C	0.995498	-0.173923	-0.116983
C28	C	0.988559	-0.255467	-0.116181
C29	C	0.913859	-0.286840	-0.107407
C30	C	0.846094	-0.236663	-0.099450
C31	C	0.853034	-0.155120	-0.100262
C32	C	0.889341	-0.532578	-0.104545
C33	C	0.882406	-0.614127	-0.103729
C34	C	1.024872	-0.632926	-0.120462
C35	C	1.031805	-0.551380	-0.121266
C36	C	0.964040	-0.501211	-0.113316
C37	C	0.906764	-0.370192	-0.106582
C38	C	0.971136	-0.417861	-0.114150
C39	C	1.082780	0.100110	-0.127254
C40	C	1.170447	0.101557	-0.137565
C41	C	0.942786	0.248915	-0.110814
C42	C	0.950166	0.335702	-0.111690
N43	N	0.938944	0.105974	0.243280
N44	N	0.938966	0.105970	-0.463981
C45	C	0.986396	0.055301	0.305485
C46	C	0.986408	0.055299	0.462647
H47	H	0.327524	0.104148	0.068452
H48	H	0.898324	0.149352	0.306374
F49	F	1.039337	-0.001540	0.223041
H50	H	0.178094	0.101691	0.086020
F51	F	0.540058	0.107657	0.191952
H52	H	1.031956	-0.392313	-0.121323
F53	F	0.827264	-0.403588	-0.097251
F54	F	0.710096	0.110439	0.171965
F55	F	1.039515	-0.001404	0.532591
F56	F	0.766591	-0.270054	-0.090128
H57	H	0.327550	0.104146	-0.380515
H58	H	1.043737	-0.296314	-0.122660
F59	F	0.540085	0.107642	-0.318903
F60	F	0.710115	0.110431	-0.338885
H61	H	0.178106	0.101687	-0.362956
F62	F	0.885865	0.162682	0.466083
H63	H	0.424975	0.105761	0.050795
H64	H	1.056327	-0.148386	-0.124119
F65	F	0.463236	0.106366	-0.303664
F66	F	1.111311	-0.517998	-0.130638
H67	H	1.080042	-0.673782	-0.126938
F68	F	0.802896	-0.647514	-0.094384
F69	F	0.817218	-0.479193	-0.096087
H70	H	0.797856	-0.114271	-0.093780
