data_functionalizedCrystal
_audit_creation_method	'MofGen! by Chris Wilmer'
_symmetry_space_group_name_H-M	'P1'
_symmetry_Int_Tables_number	1
_symmetry_cell_setting	triclinic
loop_
_symmetry_equiv_pos_as_xyz
  x,y,z
_cell_length_a	15.944499
_cell_length_b	11.792241
_cell_length_c	10.268362
_cell_angle_alpha	90.005428
_cell_angle_beta	89.999887
_cell_angle_gamma	96.164487
loop_
_atom_site_label
_atom_site_type_symbol
_atom_site_fract_x
_atom_site_fract_y
_atom_site_fract_z
O1	O	1.115211	-0.146101	-0.108165
O2	O	0.870737	-0.164209	-0.108198
O3	O	0.998906	0.010066	-0.108172
O4	O	0.987041	-0.320376	-0.108191
O5	O	0.998895	0.010073	0.108429
O6	O	0.870725	-0.164202	0.108403
O7	O	1.115199	-0.146094	0.108435
Cu8	Cu	0.992961	-0.155147	0.128196
Cu9	Cu	0.992975	-0.155156	-0.127959
O10	O	0.987030	-0.320369	0.108409
C11	C	0.998155	0.052354	0.000128
C12	C	0.995924	0.178349	0.000127
C13	C	0.839433	-0.163464	0.000099
C14	C	0.746175	-0.161242	0.000086
C15	C	1.146503	-0.146839	0.000136
C16	C	1.239761	-0.149061	0.000140
C17	C	1.530840	-0.047812	0.000121
C18	C	1.470050	-0.100448	-0.106679
C19	C	1.575434	-0.157137	0.000102
C20	C	1.470061	-0.100470	0.106872
C21	C	1.410508	-0.153163	0.000123
C22	C	1.515873	-0.209802	-0.106786
C23	C	1.515890	-0.209810	0.106861
C24	C	1.455118	-0.262524	0.000035
C25	C	1.670445	-0.159422	0.000089
C26	C	1.315498	-0.150886	0.000126
C27	C	0.987781	-0.362657	0.000106
C28	C	0.990011	-0.488652	0.000099
N29	N	0.992958	-0.155141	0.308362
C30	C	0.991822	0.409026	0.000104
C31	C	0.994102	0.280660	0.000116
N32	N	0.992984	-0.155153	-0.308125
C33	C	0.992970	-0.155154	0.574033
C34	C	0.992961	-0.155150	0.426195
H35	H	1.563788	0.042901	-0.000004
C36	C	1.443038	-0.038585	-0.226949
C37	C	1.481711	0.073775	-0.226436
C38	C	1.456843	0.130808	-0.337193
H39	H	1.459477	-0.076551	-0.302886
H40	H	1.383491	-0.038133	-0.226476
H41	H	1.541246	0.073317	-0.226921
H42	H	1.465277	0.111772	-0.150524
H43	H	1.397295	0.131260	-0.336720
H44	H	1.473283	0.092833	-0.413122
H45	H	1.483072	0.207053	-0.336854
C46	C	1.542888	-0.271535	-0.227162
C47	C	1.583071	-0.366131	-0.189202
C48	C	1.607980	-0.423012	-0.300054
H49	H	1.494677	-0.296281	-0.278181
H50	H	1.580753	-0.221204	-0.277080
H51	H	1.545208	-0.416453	-0.139305
H52	H	1.631291	-0.341416	-0.138198
H53	H	1.645846	-0.372681	-0.349973
H54	H	1.559766	-0.447751	-0.351066
H55	H	1.635254	-0.487195	-0.274314
C56	C	1.411298	-0.383539	-0.000251
C57	C	1.360345	-0.399931	-0.111148
C58	C	1.319956	-0.511387	-0.111454
H59	H	1.452389	-0.436198	-0.001076
H60	H	1.377357	-0.395359	0.075592
H61	H	1.394283	-0.388122	-0.186972
H62	H	1.319240	-0.347299	-0.110346
H63	H	1.286015	-0.523208	-0.035611
H64	H	1.361052	-0.564037	-0.112276
H65	H	1.285374	-0.522521	-0.186689
C66	C	1.442879	-0.038976	0.227313
C67	C	1.387681	-0.113720	0.301183
C68	C	1.362618	-0.057100	0.412125
H69	H	1.491081	-0.013651	0.278080
H70	H	1.415103	0.024803	0.201687
H71	H	1.415457	-0.177479	0.326810
H72	H	1.339466	-0.139049	0.250455
H73	H	1.334842	0.006680	0.386499
H74	H	1.410825	-0.031777	0.462881
H75	H	1.325158	-0.107801	0.462253
H76	H	1.536212	-0.256010	0.197150
