data_functionalizedCrystal
_audit_creation_method	'MofGen! by Chris Wilmer'
_symmetry_space_group_name_H-M	'P1'
_symmetry_Int_Tables_number	1
_symmetry_cell_setting	triclinic
loop_
_symmetry_equiv_pos_as_xyz
  x,y,z
_cell_length_a	19.121063
_cell_length_b	12.594517
_cell_length_c	12.594510
_cell_angle_alpha	90.026984
_cell_angle_beta	92.399685
_cell_angle_gamma	87.535686
loop_
_atom_site_label
_atom_site_type_symbol
_atom_site_fract_x
_atom_site_fract_y
_atom_site_fract_z
Zn1	Zn	-0.279640	-1.609101	-0.620048
Zn2	Zn	-0.397115	-1.601362	-0.449640
Zn3	Zn	-0.279673	-1.431103	-0.442061
Zn4	Zn	-0.397043	-1.423461	-0.627548
O5	O	-0.338368	-1.516257	-0.534824
O6	O	-0.295239	-1.757019	-0.597477
O7	O	-0.381579	-1.578736	-0.299692
O8	O	-0.181385	-1.461152	-0.459361
O9	O	-0.381547	-1.751333	-0.472279
O10	O	-0.181361	-1.591926	-0.590127
O11	O	-0.295295	-1.453648	-0.294123
O12	O	-0.295226	-1.281145	-0.466633
O13	O	-0.381426	-1.448127	-0.775496
O14	O	-0.381458	-1.275530	-0.602909
O15	O	-0.295170	-1.584516	-0.769986
O16	O	-0.495389	-1.571326	-0.479551
O17	O	-0.495336	-1.440623	-0.610258
C18	C	-0.338339	-1.239718	-0.534763
C19	C	-0.338343	-1.121412	-0.534763
C20	C	-0.291383	-0.984422	-0.460789
C21	C	-0.274267	-1.056392	-0.556818
C22	C	-0.355427	-1.051016	-0.438742
C23	C	-0.321211	-0.982598	-0.630902
C24	C	-0.402401	-0.977213	-0.512763
C25	C	-0.385309	-1.049150	-0.608860
C26	C	-0.520846	-1.504334	-0.546564
C27	C	-0.598911	-1.499331	-0.551622
C28	C	-0.635591	-1.565084	-0.486002
C29	C	-0.708941	-1.560385	-0.490765
C30	C	-0.745611	-1.489927	-0.561144
C31	C	-0.708927	-1.424172	-0.626771
C32	C	-0.635578	-1.428877	-0.622012
C33	C	-0.967078	-1.472318	-0.578918
C34	C	-1.040432	-1.467615	-0.583669
C35	C	-1.040441	-1.603830	-0.447665
C36	C	-0.967091	-1.608525	-0.442908
C37	C	-0.930413	-1.542774	-0.508539
C38	C	-0.820587	-1.485120	-0.566012
C39	C	-0.855438	-1.547587	-0.503675
C40	C	-0.155176	-1.528255	-0.523062
C41	C	-0.077111	-1.533368	-0.518050
C42	C	-0.338287	-1.516332	-0.812440
C43	C	-0.338252	-1.516365	-0.930743
C44	C	-0.338385	-0.793877	-0.534864
C45	C	-0.338360	-0.912184	-0.534823
C46	C	-0.291334	-1.590568	-0.997000
C47	C	-0.274137	-1.494609	-1.066672
C48	C	-0.355400	-1.612384	-1.071867
C49	C	-0.321022	-1.420356	-0.998856
C50	C	-0.402314	-1.538194	-1.004046
C51	C	-0.385142	-1.442167	-1.073688
C52	C	-0.338398	-1.516246	-0.258285
C53	C	-0.338234	-1.516433	-0.139970
H54	H	-0.605739	-1.622453	-0.428688
N55	N	-0.437923	-1.086663	-0.691848
H56	H	-0.413183	-1.133476	-0.744908
H57	H	-0.474399	-1.128368	-0.656353
H58	H	-0.825579	-1.604958	-0.446377
H59	H	-0.251634	-1.653215	-0.963419
N60	N	-0.202365	-1.470179	-1.103287
H61	H	-0.183632	-1.531222	-1.147363
H62	H	-0.205761	-1.403178	-1.147568
N63	N	-0.301964	-0.942999	-0.738539
H64	H	-0.341580	-0.895743	-0.769864
H65	H	-0.258116	-0.901271	-0.730585
N66	N	-0.437689	-1.359005	-1.117924
H67	H	-0.485944	-1.374820	-1.094104
H68	H	-0.424580	-1.286606	-1.091180
H69	H	-0.456483	-1.556666	-0.976378
H70	H	-0.456550	-0.942550	-0.494092
H71	H	-0.738802	-1.613927	-0.437330
H72	H	-0.369869	-1.081111	-0.357513
H73	H	-0.220100	-1.091015	-0.575471
H74	H	-0.937221	-1.418779	-0.632355
H75	H	-1.070312	-1.657363	-0.394233
N76	N	-0.860141	-1.409115	-0.641904
H77	H	-0.825778	-1.368166	-0.682753
H78	H	-0.890525	-1.450465	-0.693177
N79	N	-0.301703	-1.312818	-0.956586
H80	H	-0.253464	-1.296199	-0.979892
H81	H	-0.336933	-1.256803	-0.985153
N82	N	-0.374626	-1.719901	-1.114303
H83	H	-0.339157	-1.775866	-1.086320
H84	H	-0.422690	-1.736843	-1.090498
H85	H	-0.937235	-1.665897	-0.385600
N86	N	-0.238737	-0.946646	-0.377982
H87	H	-0.190368	-0.975566	-0.394768
H88	H	-0.239490	-0.866414	-0.378165
H89	H	-1.070287	-1.410253	-0.640999
N90	N	-0.748477	-1.348171	-0.702672
H91	H	-0.714109	-1.307232	-0.743521
H92	H	-0.778863	-1.389517	-0.753944
N93	N	-0.596013	-1.357963	-0.692791
H94	H	-0.630372	-1.312612	-0.738097
H95	H	-0.565627	-1.310679	-0.647445
