data_functionalizedCrystal
_audit_creation_method	'MofGen! by Chris Wilmer'
_symmetry_space_group_name_H-M	'P1'
_symmetry_Int_Tables_number	1
_symmetry_cell_setting	triclinic
loop_
_symmetry_equiv_pos_as_xyz
  x,y,z
_cell_length_a	10.654550
_cell_length_b	14.519709
_cell_length_c	9.130313
_cell_angle_alpha	89.994534
_cell_angle_beta	89.999724
_cell_angle_gamma	84.082538
loop_
_atom_site_label
_atom_site_type_symbol
_atom_site_fract_x
_atom_site_fract_y
_atom_site_fract_z
O1	O	1.666594	0.129532	-0.121694
O2	O	1.300997	0.141873	-0.121721
O3	O	1.493489	0.001515	-0.121693
O4	O	1.474102	0.269891	-0.121721
O5	O	1.493476	0.001510	0.121906
O6	O	1.300984	0.141869	0.121878
O7	O	1.666581	0.129528	0.121905
Cu8	Cu	1.483781	0.135698	0.144134
Cu9	Cu	1.483797	0.135703	-0.143950
O10	O	1.474089	0.269887	0.121878
C11	C	1.254201	0.140965	0.000075
C12	C	1.114784	0.138254	0.000065
C13	C	1.034504	0.220895	0.000061
C14	C	0.903507	0.218342	0.000087
C15	C	0.933084	0.050500	0.000115
C16	C	1.064078	0.053054	0.000100
C17	C	1.492579	-0.032852	0.000106
C18	C	1.489871	-0.135247	0.000107
C19	C	1.479904	-0.510195	0.000068
C20	C	1.482672	-0.405872	0.000079
C21	C	1.484887	-0.322724	0.000089
C22	C	1.487656	-0.218395	0.000097
C23	C	1.713377	0.130436	0.000106
C24	C	1.852794	0.133147	0.000106
C25	C	1.474999	0.304253	0.000075
C26	C	1.477706	0.406649	0.000065
N27	N	1.483779	0.135694	0.346757
N28	N	1.483808	0.135700	-0.346572
C29	C	1.569043	0.073570	0.423421
C30	C	1.569055	0.073570	0.576758
C31	C	1.398535	0.197827	0.576753
C32	C	1.398518	0.197822	0.423419
H33	H	1.075783	0.290270	0.000044
C34	C	0.877785	-0.041907	0.000064
C35	C	0.745883	-0.026458	0.000034
C36	C	0.694903	-0.111563	-0.000038
H37	H	0.905195	-0.076042	0.084992
H38	H	0.905254	-0.075978	-0.084916
H39	H	0.718426	0.007598	0.085005
H40	H	0.718439	0.007663	-0.084888
H41	H	0.722372	-0.145634	-0.085018
H42	H	0.722321	-0.145692	0.084891
H43	H	0.605403	-0.101093	-0.000072
H44	H	0.838147	0.285637	0.000086
C45	C	1.151041	-0.036778	0.000029
C46	C	1.078602	-0.111939	0.000011
C47	C	1.158668	-0.194701	-0.000069
H48	H	1.202790	-0.039399	0.084949
H49	H	1.202733	-0.039319	-0.084958
H50	H	1.026932	-0.109399	0.084989
H51	H	1.026856	-0.109348	-0.084904
H52	H	1.210360	-0.197242	-0.085056
H53	H	1.210413	-0.197312	0.084853
H54	H	1.109530	-0.245707	-0.000094
C55	C	1.661656	0.006009	0.340451
C56	C	1.736304	-0.048413	0.440418
C57	C	1.821621	-0.110672	0.364045
H58	H	1.714117	0.039431	0.280612
H59	H	1.616423	-0.032743	0.280685
H60	H	1.781534	-0.009666	0.500159
H61	H	1.683878	-0.081855	0.500259
H62	H	1.776388	-0.149424	0.304278
H63	H	1.874073	-0.077242	0.304209
H64	H	1.872272	-0.147611	0.431860
C65	C	1.305774	0.265172	0.659917
C66	C	1.182338	0.249350	0.622675
C67	C	1.096853	0.311364	0.699270
H68	H	1.319366	0.326857	0.634835
H69	H	1.317914	0.256273	0.762231
H70	H	1.170204	0.258257	0.520384
H71	H	1.168706	0.187678	0.647761
H72	H	1.108993	0.302465	0.801584
H73	H	1.110457	0.373044	0.674182
H74	H	1.013093	0.300632	0.674022
H75	H	1.638483	0.022982	0.639173
C76	C	1.306085	0.265427	0.340252
C77	C	1.326669	0.356197	0.377490
C78	C	1.241557	0.418494	0.300892
H79	H	1.222202	0.254964	0.365334
H80	H	1.318290	0.256587	0.237939
H81	H	1.314455	0.365034	0.479781
H82	H	1.410536	0.366690	0.352404
H83	H	1.253761	0.409653	0.198579
H84	H	1.157679	0.408021	0.325980
H85	H	1.255519	0.480087	0.326137
