data_functionalizedCrystal
_audit_creation_method	'MofGen! by Chris Wilmer'
_symmetry_space_group_name_H-M	'P1'
_symmetry_Int_Tables_number	1
_symmetry_cell_setting	triclinic
loop_
_symmetry_equiv_pos_as_xyz
  x,y,z
_cell_length_a	14.519709
_cell_length_b	12.996460
_cell_length_c	14.519709
_cell_angle_alpha	89.998766
_cell_angle_beta	96.319855
_cell_angle_gamma	90.000602
loop_
_atom_site_label
_atom_site_type_symbol
_atom_site_fract_x
_atom_site_fract_y
_atom_site_fract_z
O1	O	1.223870	0.085435	-0.120885
O2	O	1.557204	0.418768	0.212448
O3	O	1.890537	0.752102	0.545782
O4	O	0.955394	0.085467	-0.135121
O5	O	1.288727	0.418800	0.198212
O6	O	1.622060	0.752133	0.531545
O7	O	1.096750	0.085441	0.006235
O8	O	1.430084	0.418774	0.339569
O9	O	1.763417	0.752108	0.672902
O10	O	1.082514	0.085461	-0.262242
O11	O	1.415847	0.418794	0.071092
O12	O	1.749180	0.752128	0.404425
O13	O	1.096732	-0.085693	0.006227
O14	O	1.430065	0.247640	0.339560
O15	O	1.763399	0.580974	0.672894
O16	O	0.955375	-0.085667	-0.135130
O17	O	1.288709	0.247666	0.198204
O18	O	1.622042	0.581000	0.531537
O19	O	1.223852	-0.085699	-0.120893
O20	O	1.557186	0.247635	0.212440
O21	O	1.890519	0.580968	0.545774
Cu22	Cu	1.089612	-0.101309	-0.128012
Cu23	Cu	1.422945	0.232025	0.205321
Cu24	Cu	1.756279	0.565358	0.538655
Cu25	Cu	1.089634	0.101077	-0.128002
Cu26	Cu	1.422967	0.434410	0.205331
Cu27	Cu	1.756300	0.767744	0.538664
O28	O	1.082496	-0.085673	-0.262250
O29	O	1.415829	0.247661	0.071084
O30	O	1.749162	0.580994	0.404417
C31	C	0.921025	-0.000096	-0.134462
C32	C	1.254358	0.333237	0.198871
C33	C	1.587691	0.666571	0.532205
C34	C	0.818643	-0.000084	-0.132474
C35	C	1.151977	0.333249	0.200859
C36	C	1.485310	0.666582	0.534193
C37	C	0.443748	-0.000132	-0.125154
C38	C	0.777081	0.333202	0.208179
C39	C	1.110414	0.666535	0.541512
C40	C	0.548056	-0.000118	-0.127187
C41	C	0.881389	0.333215	0.206146
C42	C	1.214722	0.666549	0.539480
C43	C	0.631192	-0.000107	-0.128814
C44	C	0.964526	0.333226	0.204519
C45	C	1.297859	0.666560	0.537853
C46	C	0.735507	-0.000095	-0.130847
C47	C	1.068840	0.333238	0.202486
C48	C	1.402173	0.666571	0.535820
N49	N	1.089604	-0.243656	-0.128018
N50	N	1.422937	0.089678	0.205315
N51	N	1.756270	0.423011	0.538648
C52	C	1.089608	-0.336762	-0.128021
C53	C	1.422941	-0.003428	0.205313
C54	C	1.756275	0.329905	0.538646
C55	C	1.089616	-0.453567	-0.128015
C56	C	1.422950	-0.120234	0.205319
C57	C	1.756283	0.213100	0.538652
C58	C	1.089628	-0.546665	-0.128004
C59	C	1.422961	-0.213332	0.205329
C60	C	1.756295	0.120001	0.538662
C61	C	1.089638	-0.663478	-0.127999
C62	C	1.422971	-0.330144	0.205334
C63	C	1.756304	0.003189	0.538668
C64	C	1.258221	-0.000134	-0.121553
C65	C	1.591554	0.333200	0.211781
C66	C	1.924888	0.666533	0.545114
C67	C	1.360602	-0.000139	-0.123541
C68	C	1.693936	0.333195	0.209793
C69	C	2.027269	0.666528	0.543126
C70	C	1.096078	-0.000126	0.040591
C71	C	1.429411	0.333207	0.373924
C72	C	1.762744	0.666541	0.707258
C73	C	1.094090	-0.000126	0.142972
C74	C	1.427423	0.333207	0.476306
C75	C	1.760756	0.666540	0.809639
N76	N	1.089649	0.243424	-0.127989
N77	N	1.422983	0.576757	0.205344
N78	N	1.756316	0.910091	0.538678
C79	C	1.083168	-0.000103	-0.296606
C80	C	1.416501	0.333230	0.036728
C81	C	1.749835	0.666563	0.370061
C82	C	1.085156	-0.000096	-0.398987
C83	C	1.418490	0.333237	-0.065653
C84	C	1.751823	0.666570	0.267680
C85	C	1.086770	-0.000099	0.517868
C86	C	1.420103	0.333234	0.851201
C87	C	1.753437	0.666568	1.184535
C88	C	1.088803	-0.000107	0.413560
C89	C	1.422136	0.333226	0.746893
C90	C	1.755469	0.666560	1.080227
C91	C	1.090430	-0.000114	0.330423
C92	C	1.423763	0.333220	0.663757
C93	C	1.757096	0.666553	0.997090
C94	C	1.092463	-0.000120	0.226109
C95	C	1.425796	0.333214	0.559442
C96	C	1.759129	0.666547	0.892776
