data_functionalizedCrystal
_audit_creation_method	'MofGen! by Chris Wilmer'
_symmetry_space_group_name_H-M	'P1'
_symmetry_Int_Tables_number	1
_symmetry_cell_setting	triclinic
loop_
_symmetry_equiv_pos_as_xyz
  x,y,z
_cell_length_a	6.817900
_cell_length_b	16.256275
_cell_length_c	19.453114
_cell_angle_alpha	95.856798
_cell_angle_beta	101.709288
_cell_angle_gamma	103.500333
loop_
_atom_site_label
_atom_site_type_symbol
_atom_site_fract_x
_atom_site_fract_y
_atom_site_fract_z
V1	V	-4.006925	-0.117976	-0.219251
O2	O	-3.994737	0.004762	-0.214820
O3	O	-3.958652	-0.233054	-0.217999
O4	O	-3.949838	-0.116559	-0.314761
O5	O	-4.003613	-0.112539	-0.117388
V6	V	-4.491662	-0.103248	-0.207037
O7	O	-4.265520	-0.150283	-0.246042
O8	O	-4.683263	-0.070941	-0.180245
O9	O	-4.316727	0.011830	-0.208289
O10	O	-4.621245	-0.225986	-0.211468
O11	O	-4.612370	-0.108685	-0.308900
O12	O	-4.325541	-0.104665	-0.111527
C13	C	-3.803965	-0.261096	-0.214604
C14	C	-3.845726	-0.355176	-0.214216
C15	C	-4.136426	-0.587009	-0.216934
C16	C	-4.097598	-0.652206	-0.273071
C17	C	-3.922092	-0.527422	-0.213495
C18	C	-4.035318	-0.629862	-0.156682
C19	C	-3.995871	-0.693802	-0.212796
C20	C	-3.882739	-0.591388	-0.269686
C21	C	-3.820456	-0.569030	-0.153245
C22	C	-3.781485	-0.634201	-0.209394
C23	C	-3.879596	-0.431574	-0.213899
C24	C	-4.038355	-0.789649	-0.212397
C25	C	-3.792721	-0.112493	-0.338032
C26	C	-3.827331	-0.112096	-0.416114
C27	C	-4.025377	-0.116158	-0.456380
C28	C	-4.057897	-0.115785	-0.529746
C29	C	-3.892368	-0.111367	-0.562845
C30	C	-3.694291	-0.107300	-0.522569
C31	C	-3.661773	-0.107665	-0.449204
N32	N	-3.832674	-0.156062	-0.681730
N33	N	-3.863579	-0.155718	-0.751425
C34	C	-3.990333	-0.110267	-0.783891
N35	N	-4.085051	-0.065185	-0.744032
N36	N	-4.054151	-0.065533	-0.674332
C37	C	-3.927609	-0.110971	-0.642397
C38	C	-4.223653	-0.113924	-0.903709
C39	C	-4.256164	-0.113545	-0.977075
C40	C	-3.892556	-0.105069	-0.969899
C41	C	-3.860047	-0.105439	-0.896532
C42	C	-4.025605	-0.109870	-0.863443
C43	C	-4.134757	0.039867	-0.211682
C44	C	-4.072234	0.133947	-0.212074
C45	C	-4.146001	-0.108733	-0.088252
C46	C	-4.090630	-0.109126	-0.010169
H47	H	-4.100278	-0.647062	-0.108926
H48	H	-4.286076	-0.566154	-0.220198
F49	F	-4.399848	-0.118634	-0.868489
F50	F	-4.268694	-0.120103	-0.572607
H51	H	-3.500493	-0.104351	-0.416418
H52	H	-3.702968	-0.532921	-0.102586
F53	F	-3.518122	-0.102597	-0.557797
H54	H	-4.215146	-0.688298	-0.323729
F55	F	-4.201580	-0.120870	-0.421167
H56	H	-4.417438	-0.116846	-1.009858
H57	H	-3.817946	-0.574306	-0.317498
H58	H	-3.631684	-0.654915	-0.206218
F59	F	-3.716377	-0.100355	-1.005119
H60	H	-3.698782	-0.102141	-0.863749
