data_functionalizedCrystal
_audit_creation_method	'MofGen! by Chris Wilmer'
_symmetry_space_group_name_H-M	'P1'
_symmetry_Int_Tables_number	1
_symmetry_cell_setting	triclinic
loop_
_symmetry_equiv_pos_as_xyz
  x,y,z
_cell_length_a	14.971486
_cell_length_b	8.559649
_cell_length_c	14.048226
_cell_angle_alpha	89.995035
_cell_angle_beta	89.998499
_cell_angle_gamma	76.696397
loop_
_atom_site_label
_atom_site_type_symbol
_atom_site_fract_x
_atom_site_fract_y
_atom_site_fract_z
O1	O	1.172520	0.208203	-0.079048
O2	O	0.910393	0.233135	-0.079073
O3	O	1.064550	-0.011889	-0.079057
O4	O	1.018363	0.453227	-0.079064
O5	O	1.064535	-0.011903	0.079264
O6	O	0.910377	0.233121	0.079248
O7	O	1.172505	0.208188	0.079274
Zn8	Zn	1.041438	0.220652	0.104398
Zn9	Zn	1.041459	0.220671	-0.104197
O10	O	1.018347	0.453212	0.079258
C11	C	0.877137	0.232013	0.000084
C12	C	0.778072	0.228672	0.000074
C13	C	0.710872	0.372617	0.000074
C14	C	0.617791	0.369468	0.000088
C15	C	0.591911	0.222372	0.000096
C16	C	0.659119	0.078416	0.000099
C17	C	0.752198	0.081566	0.000092
C18	C	0.465111	0.071859	0.000113
C19	C	0.372025	0.068707	0.000118
C20	C	0.330704	0.359760	0.000108
C21	C	0.423783	0.362910	0.000101
C22	C	0.490984	0.218954	0.000103
C23	C	1.068043	-0.071419	0.000102
C24	C	1.078461	-0.248779	0.000098
C25	C	1.205760	0.209310	0.000114
C26	C	1.304826	0.212652	0.000118
C27	C	1.014855	0.512743	0.000096
C28	C	1.004436	0.690103	0.000094
N29	N	1.041431	0.220638	0.246758
N30	N	1.041474	0.220673	-0.246558
C31	C	1.109708	0.112186	0.296583
C32	C	1.109714	0.112186	0.396241
C33	C	1.041446	0.220645	0.446072
C34	C	0.973163	0.329102	0.396240
C35	C	0.973153	0.329094	0.296584
C36	C	0.973188	0.329114	0.603954
C37	C	0.973197	0.329124	0.703617
C38	C	1.109748	0.112205	0.703611
C39	C	1.109739	0.112197	0.603955
C40	C	1.041456	0.220657	0.554130
H41	H	0.563079	0.486682	0.000086
H42	H	0.350958	-0.051071	0.000126
O43	O	0.448767	0.505935	0.000133
C44	C	0.369496	0.632320	0.000111
H45	H	0.309202	0.587421	0.030091
H46	H	0.381946	0.735002	0.046072
H47	H	0.353242	0.676737	-0.075844
H48	H	0.933089	-0.226536	0.000090
H49	H	0.519825	-0.045367	0.000115
H50	H	0.638040	-0.041353	0.000120
H51	H	1.149813	-0.332149	0.000112
H52	H	1.165303	0.023873	0.256018
H53	H	1.165310	0.023875	0.436808
H54	H	0.917554	0.417405	0.256017
O55	O	1.176099	0.006689	0.555696
C56	C	1.236381	-0.089013	0.621039
H57	H	1.199855	-0.090929	0.692085
H58	H	1.258789	-0.216563	0.592249
H59	H	1.299246	-0.036938	0.631621
H60	H	0.275983	0.476974	0.000111
H61	H	1.165346	0.023894	0.744185
O62	O	0.906782	0.434517	0.751877
C63	C	0.846515	0.530254	0.686533
H64	H	0.850010	0.464753	0.615496
H65	H	0.773431	0.554374	0.715337
H66	H	0.867370	0.649047	0.675928
O67	O	0.906733	0.434296	0.444602
C68	C	0.819994	0.408078	0.420250
H69	H	0.828349	0.280161	0.392863
H70	H	0.773861	0.426320	0.485794
H71	H	0.787634	0.496551	0.362402
O72	O	0.735850	0.515647	0.000107
C73	C	0.656573	0.642019	0.000087
H74	H	0.596283	0.597106	0.030067
H75	H	0.669016	0.744705	0.046048
H76	H	0.640315	0.686437	-0.075868
O77	O	0.817361	-0.058410	0.000045
C78	C	0.774563	-0.188918	0.000075
H79	H	0.702153	-0.148501	-0.029894
H80	H	0.815906	-0.289782	-0.045890
H81	H	0.771021	-0.234006	0.076032
O82	O	0.906977	0.434538	0.555446
C83	C	0.948090	0.533263	0.497805
H84	H	1.022435	0.469832	0.482873
H85	H	0.909024	0.558422	0.427729
H86	H	0.946055	0.651363	0.536200
