data_functionalizedCrystal
_audit_creation_method	'MofGen! by Chris Wilmer'
_symmetry_space_group_name_H-M	'P1'
_symmetry_Int_Tables_number	1
_symmetry_cell_setting	triclinic
loop_
_symmetry_equiv_pos_as_xyz
  x,y,z
_cell_length_a	14.971482
_cell_length_b	23.532409
_cell_length_c	14.048226
_cell_angle_alpha	89.996625
_cell_angle_beta	89.994098
_cell_angle_gamma	83.231084
loop_
_atom_site_label
_atom_site_type_symbol
_atom_site_fract_x
_atom_site_fract_y
_atom_site_fract_z
O1	O	1.186166	0.074206	-0.079142
O2	O	1.686166	0.574206	0.420858
O3	O	0.925672	0.083096	-0.079145
O4	O	1.425672	0.583096	0.420855
O5	O	1.063773	-0.004247	-0.079145
O6	O	1.563773	0.495753	0.420855
O7	O	1.048065	0.161549	-0.079142
O8	O	1.548065	0.661549	0.420858
O9	O	1.063757	-0.004252	0.079177
O10	O	1.563757	0.495748	0.579177
O11	O	0.925655	0.083091	0.079176
O12	O	1.425655	0.583091	0.579176
O13	O	1.186150	0.074201	0.079180
O14	O	1.686150	0.574201	0.579180
Zn15	Zn	1.055900	0.078645	0.104315
Zn16	Zn	1.555900	0.578645	0.604315
Zn17	Zn	1.055921	0.078652	-0.104280
Zn18	Zn	1.555921	0.578652	0.395720
O19	O	1.048048	0.161544	0.079179
O20	O	1.548048	0.661544	0.579179
C21	C	0.892343	0.082696	0.000015
C22	C	1.392343	0.582696	0.500015
C23	C	0.793058	0.081506	0.000013
C24	C	1.293058	0.581506	0.500013
C25	C	0.746410	0.080943	0.086315
C26	C	1.246410	0.580943	0.586315
C27	C	0.653124	0.079815	0.086316
C28	C	1.153124	0.579815	0.586316
C29	C	0.606486	0.079255	0.000014
C30	C	1.106486	0.579255	0.500014
C31	C	0.653140	0.079817	-0.086295
C32	C	1.153140	0.579817	0.413705
C33	C	0.746426	0.080940	-0.086295
C34	C	1.246426	0.580940	0.413705
C35	C	0.458703	0.077477	-0.086289
C36	C	0.958703	0.577477	0.413711
C37	C	0.365411	0.076354	-0.086289
C38	C	0.865411	0.576354	0.413711
C39	C	0.365401	0.076352	0.086322
C40	C	0.865401	0.576352	0.586322
C41	C	0.458687	0.077475	0.086322
C42	C	0.958687	0.577475	0.586322
C43	C	0.505334	0.078038	0.000013
C44	C	1.005334	0.578038	0.500013
C45	C	1.063364	-0.025467	0.000014
C46	C	1.563364	0.474533	0.500014
C47	C	1.062161	-0.088689	0.000007
C48	C	1.562161	0.411311	0.500007
C49	C	1.057051	-0.361953	-0.086298
C50	C	1.557051	0.138047	0.413702
C51	C	1.058169	-0.302548	-0.086299
C52	C	1.558169	0.197452	0.413701
O53	O	1.058786	-0.271819	-0.159692
O54	O	1.558786	0.228181	0.340308
N55	N	1.058713	-0.272847	0.000004
N56	N	1.558713	0.227153	0.500004
C57	C	1.058149	-0.302554	0.086312
C58	C	1.558149	0.197446	0.586312
O59	O	1.058715	-0.271836	0.159719
O60	O	1.558715	0.228164	0.659719
C61	C	1.057038	-0.361958	0.086311
C62	C	1.557038	0.138042	0.586311
C63	C	1.056485	-0.391656	0.000003
C64	C	1.556485	0.108344	0.500003
C65	C	1.056499	-0.391651	-0.172599
C66	C	1.556499	0.108349	0.327401
C67	C	1.055380	-0.451052	-0.172599
C68	C	1.555380	0.048948	0.327401
C69	C	1.054813	-0.480755	-0.086297
C70	C	1.554813	0.019245	0.413703
C71	C	1.055365	-0.451057	0.000004
C72	C	1.555365	0.048943	0.500004
C73	C	1.056480	-0.391665	0.172618
C74	C	1.556480	0.108335	0.672618
C75	C	1.055369	-0.451073	0.172610
C76	C	1.555369	0.048927	0.672610
C77	C	1.054816	-0.480771	0.086302
C78	C	1.554816	0.019229	0.586302
C79	C	1.053679	-0.540160	0.086306
C80	C	1.553679	-0.040160	0.586306
N81	N	1.053135	-0.569862	0.000003
N82	N	1.553135	-0.069862	0.500003
C83	C	1.053702	-0.540159	-0.086298
C84	C	1.553702	-0.040159	0.413702
C85	C	1.060484	-0.177801	0.086307
C86	C	1.560484	0.322199	0.586307
C87	C	1.061589	-0.118397	0.086309
C88	C	1.561589	0.381603	0.586309
C89	C	1.061611	-0.118396	-0.086302
C90	C	1.561611	0.381604	0.413698
C91	C	1.060500	-0.177800	-0.086303
C92	C	1.560500	0.322200	0.413697
C93	C	1.059940	-0.207502	0.000005
C94	C	1.559940	0.292498	0.500005
C95	C	1.051350	-0.664905	-0.086291
C96	C	1.551350	-0.164905	0.413709
C97	C	1.050227	-0.724311	-0.086282
C98	C	1.550227	-0.224311	0.413718
C99	C	1.050210	-0.724307	0.086328
C100	C	1.550210	-0.224307	0.586328
C101	C	1.051329	-0.664906	0.086320
C102	C	1.551329	-0.164906	0.586320
C103	C	1.051902	-0.635207	0.000003
C104	C	1.551902	-0.135207	0.500003
O105	O	1.053065	-0.570928	0.159661
O106	O	1.553065	-0.070928	0.659661
O107	O	1.053147	-0.570886	-0.159693
O108	O	1.553147	-0.070886	0.340307
C109	C	1.219478	0.074601	0.000018
C110	C	1.719478	0.574601	0.500018
C111	C	1.318763	0.075791	0.000013
C112	C	1.818763	0.575791	0.500013
C113	C	1.048457	0.182764	0.000018
C114	C	1.548457	0.682764	0.500018
C115	C	1.049660	0.245986	0.000019
C116	C	1.549660	0.745986	0.500019
N117	N	1.055891	0.078640	0.246675
N118	N	1.555891	0.578640	0.746675
N119	N	1.055937	0.078652	-0.246641
N120	N	1.555937	0.578652	0.253359
C121	C	1.117062	0.039981	0.296494
C122	C	1.617062	0.539981	0.796494
C123	C	1.117068	0.039980	0.396151
C124	C	1.617068	0.539980	0.896151
C125	C	1.055907	0.078643	0.445989
C126	C	1.555907	0.578643	0.945989
C127	C	0.994730	0.117304	0.396164
C128	C	1.494730	0.617304	0.896164
C129	C	0.994721	0.117301	0.296508
C130	C	1.494721	0.617301	0.796508
C131	C	0.994756	0.117308	0.603878
C132	C	1.494756	0.617308	1.103878
C133	C	0.994767	0.117312	0.703540
C134	C	1.494767	0.617312	1.203540
C135	C	1.117103	0.039987	0.703522
C136	C	1.617103	0.539987	1.203522
C137	C	1.117094	0.039984	0.603866
C138	C	1.617094	0.539984	1.103866
C139	C	1.055918	0.078647	0.554047
C140	C	1.555918	0.578647	1.054047
H141	H	0.327416	0.075894	0.156598
H142	H	0.827416	0.575894	0.656598
H143	H	0.615149	0.079347	0.156592
H144	H	1.115149	0.579347	0.656592
H145	H	0.615161	0.079357	-0.156563
H146	H	1.115161	0.579357	0.343437
Br147	Br	0.522011	0.078237	-0.203423
Br148	Br	1.022011	0.578237	0.296577
Br149	Br	1.059716	-0.218104	0.203450
Br150	Br	1.559716	0.281896	0.703450
H151	H	1.062069	-0.094201	-0.156574
H152	H	1.562069	0.405799	0.343426
Br153	Br	0.911759	0.169784	0.771170
Br154	Br	1.411759	0.669784	1.271170
Br155	Br	1.057216	-0.351375	0.289759
Br156	Br	1.557216	0.148625	0.789759
Br157	Br	1.200104	-0.012480	0.536226
Br158	Br	1.700104	0.487520	1.036226
Br159	Br	1.200130	-0.012479	0.771135
Br160	Br	1.700130	0.487521	1.271135
Br161	Br	0.911718	0.169772	0.463796
Br162	Br	1.411718	0.669772	0.963796
H163	H	0.327440	0.075899	-0.156564
H164	H	0.827440	0.575899	0.343436
H165	H	1.166876	0.008501	0.436713
H166	H	1.666876	0.508501	0.936713
H167	H	1.166869	0.008500	0.255923
H168	H	1.666869	0.508500	0.755923
Br169	Br	0.911726	0.169777	0.536270
Br170	Br	1.411726	0.669777	1.036270
Br171	Br	0.521979	0.078244	0.203447
Br172	Br	1.021979	0.578244	0.703447
Br173	Br	0.809736	0.081700	-0.203423
Br174	Br	1.309736	0.581700	0.296577
H175	H	1.054936	-0.475227	-0.242880
H176	H	1.554936	0.024773	0.257120
H177	H	1.051743	-0.640722	0.156599
H178	H	1.551743	-0.140722	0.656599
Br179	Br	0.911694	0.169766	0.228897
Br180	Br	1.411694	0.669766	0.728897
H181	H	1.056964	-0.367474	-0.242880
H182	H	1.556964	0.132526	0.257120
Br183	Br	1.054616	-0.491381	0.289749
Br184	Br	1.554616	0.008619	0.789749
Br185	Br	0.809695	0.081708	0.203446
Br186	Br	1.309695	0.581708	0.703446
H187	H	1.049773	-0.748488	-0.156568
H188	H	1.549773	-0.248488	0.343432
Br189	Br	1.059749	-0.218098	-0.203439
Br190	Br	1.559749	0.281902	0.296561
H191	H	1.062023	-0.094221	0.156590
H192	H	1.562023	0.405779	0.656590
Br193	Br	1.052128	-0.624608	-0.203436
Br194	Br	1.552128	-0.124608	0.296564
Br195	Br	1.049431	-0.764629	0.203446
Br196	Br	1.549431	-0.264629	0.703446
