data_functionalizedCrystal
_audit_creation_method	'MofGen! by Chris Wilmer'
_symmetry_space_group_name_H-M	'P1'
_symmetry_Int_Tables_number	1
_symmetry_cell_setting	triclinic
loop_
_symmetry_equiv_pos_as_xyz
  x,y,z
_cell_length_a	29.839134
_cell_length_b	13.897449
_cell_length_c	13.897441
_cell_angle_alpha	89.978378
_cell_angle_beta	89.968382
_cell_angle_gamma	89.997483
loop_
_atom_site_label
_atom_site_type_symbol
_atom_site_fract_x
_atom_site_fract_y
_atom_site_fract_z
Zn1	Zn	0.686884	-0.384116	-0.545721
Zn2	Zn	1.186884	0.115884	-0.045721
Zn3	Zn	0.686854	-0.545438	-0.384448
Zn4	Zn	1.186854	-0.045438	0.115552
Zn5	Zn	0.611754	-0.384144	-0.384409
Zn6	Zn	1.111754	0.115856	0.115591
Zn7	Zn	0.611765	-0.545356	-0.545670
Zn8	Zn	1.111765	-0.045356	-0.045670
O9	O	0.649314	-0.464764	-0.465062
O10	O	1.149314	0.035236	0.034938
O11	O	0.749747	-0.405538	-0.524366
O12	O	1.249747	0.094462	-0.024366
O13	O	0.676875	-0.524088	-0.249461
O14	O	1.176875	-0.024088	0.250539
O15	O	0.621728	-0.249159	-0.405813
O16	O	1.121728	0.250841	0.094187
O17	O	0.749725	-0.524061	-0.405879
O18	O	1.249725	-0.024061	0.094121
O19	O	0.676925	-0.249138	-0.524328
O20	O	1.176925	0.250862	-0.024328
O21	O	0.621699	-0.405586	-0.249433
O22	O	1.121699	0.094414	0.250567
O23	O	0.548888	-0.405507	-0.405763
O24	O	1.048888	0.094493	0.094237
O25	O	0.621747	-0.523922	-0.680659
O26	O	1.121747	-0.023922	-0.180659
O27	O	0.548896	-0.523949	-0.524241
O28	O	1.048896	-0.023949	-0.024241
O29	O	0.676936	-0.405459	-0.680696
O30	O	1.176936	0.094541	-0.180696
O31	O	0.676886	-0.680409	-0.405829
O32	O	1.176886	-0.180409	0.094171
O33	O	0.621718	-0.680349	-0.524278
O34	O	1.121718	-0.180349	-0.024278
C35	C	0.532591	-0.464723	-0.464993
C36	C	1.032591	0.035277	0.035007
C37	C	0.482657	-0.464728	-0.464986
C38	C	0.982657	0.035272	0.035014
C39	C	0.173027	-0.526528	-0.526678
C40	C	0.673027	-0.026528	-0.026678
C41	C	-0.014646	-0.526555	-0.526721
C42	C	0.485354	-0.026555	-0.026721
O43	O	-0.038899	-0.579053	-0.579133
O44	O	0.461101	-0.079053	-0.079133
N45	N	-0.038128	-0.464799	-0.465135
N46	N	0.461872	0.035201	0.034865
C47	C	-0.014689	-0.403028	-0.403538
C48	C	0.485311	0.096972	0.096462
O49	O	-0.038969	-0.350494	-0.351164
O50	O	0.461031	0.149506	0.148836
C51	C	0.172983	-0.402996	-0.403501
C52	C	0.672983	0.097004	0.096499
C53	C	0.196463	-0.464763	-0.465084
C54	C	0.696463	0.035237	0.034916
C55	C	0.196507	-0.588289	-0.588257
C56	C	0.696507	-0.088289	-0.088257
C57	C	0.243423	-0.588285	-0.588242
C58	C	0.743423	-0.088285	-0.088242
C59	C	0.266858	-0.526520	-0.526648
C60	C	0.766858	-0.026520	-0.026648
C61	C	0.243378	-0.464759	-0.465069
C62	C	0.743378	0.035241	0.034931
C63	C	0.196421	-0.341221	-0.341910
C64	C	0.696421	0.158779	0.158090
C65	C	0.243342	-0.341217	-0.341908
C66	C	0.743342	0.158783	0.158092
C67	C	0.266822	-0.402983	-0.403491
C68	C	0.766822	0.097017	0.096509
C69	C	0.313729	-0.402991	-0.403460
C70	C	0.813729	0.097009	0.096540
N71	N	0.337212	-0.464747	-0.465046
N72	N	0.837212	0.035253	0.034954
C73	C	0.313776	-0.526511	-0.526640
C74	C	0.813776	-0.026511	-0.026640
C75	C	-0.113220	-0.403050	-0.403561
C76	C	0.386780	0.096950	0.096439
C77	C	-0.160138	-0.403059	-0.403569
C78	C	0.339862	0.096941	0.096431
C79	C	-0.160091	-0.526585	-0.526753
C80	C	0.339909	-0.026585	-0.026753
C81	C	-0.113172	-0.526580	-0.526739
C82	C	0.386828	-0.026580	-0.026739
C83	C	-0.089738	-0.464805	-0.465147
C84	C	0.410262	0.035195	0.034853
C85	C	0.412302	-0.526499	-0.526603
C86	C	0.912302	-0.026499	-0.026603
C87	C	0.459222	-0.526493	-0.526580
C88	C	0.959222	-0.026493	-0.026580
C89	C	0.459171	-0.402964	-0.403400
C90	C	0.959171	0.097036	0.096600
C91	C	0.412255	-0.402973	-0.403419
C92	C	0.912255	0.097027	0.096581
C93	C	0.388822	-0.464744	-0.465028
C94	C	0.888822	0.035256	0.034972
O95	O	0.338011	-0.350512	-0.351083
O96	O	0.838011	0.149488	0.148917
O97	O	0.338064	-0.579022	-0.579022
O98	O	0.838064	-0.079022	-0.079022
C99	C	0.126112	-0.526531	-0.526693
C100	C	0.626112	-0.026531	-0.026693
C101	C	0.102632	-0.464770	-0.465114
C102	C	0.602632	0.035230	0.034886
C103	C	0.126067	-0.403006	-0.403520
C104	C	0.626067	0.096994	0.096480
C105	C	0.055714	-0.464779	-0.465122
C106	C	0.555714	0.035221	0.034878
C107	C	0.032279	-0.526544	-0.526716
C108	C	0.532279	-0.026544	-0.026716
C109	C	0.055761	-0.588300	-0.588302
C110	C	0.555761	-0.088300	-0.088302
C111	C	0.102677	-0.588296	-0.588287
C112	C	0.602677	-0.088296	-0.088287
C113	C	0.102585	-0.341250	-0.341934
C114	C	0.602585	0.158750	0.158066
C115	C	0.055669	-0.341259	-0.341954
C116	C	0.555669	0.158741	0.158046
C117	C	0.032234	-0.403024	-0.403547
C118	C	0.532234	0.096976	0.096453
C119	C	0.649312	-0.715378	-0.465074
C120	C	1.149312	-0.215378	0.034926
C121	C	0.649352	-0.822592	-0.465111
C122	C	1.149352	-0.322592	0.034889
C123	C	0.649346	-0.464678	-0.716655
C124	C	1.149346	0.035322	-0.216655
C125	C	0.649359	-0.464642	-0.823869
C126	C	1.149359	0.035358	-0.323869
C127	C	0.766492	-0.464805	-0.465133
C128	C	1.266492	0.035195	0.034867
C129	C	0.816427	-0.464823	-0.465163
C130	C	1.316427	0.035177	0.034837
C131	C	0.649328	-0.213171	-0.465072
C132	C	1.149328	0.286829	0.034928
C133	C	0.649334	-0.105957	-0.465076
C134	C	1.149334	0.394043	0.034924
C135	C	0.649348	0.090338	-0.465107
C136	C	1.149348	0.590338	0.034893
C137	C	0.649342	-0.018894	-0.465093
C138	C	1.149342	0.481106	0.034907
C139	C	0.649372	-0.464577	-1.020165
C140	C	1.149372	0.035423	-0.520165
C141	C	0.649364	-0.464616	-0.910932
C142	C	1.149364	0.035384	-0.410932
C143	C	0.649308	-0.464779	-0.214448
C144	C	1.149308	0.035221	0.285552
C145	C	0.649382	-0.464544	-0.107234
C146	C	1.149382	0.035456	0.392766
H147	H	0.121790	-0.638593	-0.638435
H148	H	0.621790	-0.138593	-0.138435
H149	H	0.478337	-0.576795	-0.576729
H150	H	0.978337	-0.076795	-0.076729
F151	F	0.387369	-0.592243	-0.592175
F152	F	0.887369	-0.092243	-0.092175
F153	F	0.268406	-0.654022	-0.653792
F154	F	0.768406	-0.154022	-0.153792
F155	F	0.268280	-0.275464	-0.276352
F156	F	0.768280	0.224536	0.223648
H157	H	0.177311	-0.290926	-0.291760
H158	H	0.677311	0.209074	0.208240
H159	H	0.393137	-0.352680	-0.353271
H160	H	0.893137	0.147320	0.146729
F161	F	0.030685	-0.275517	-0.276400
F162	F	0.530685	0.224483	0.223600
F163	F	0.484120	-0.337233	-0.337850
F164	F	0.984120	0.162767	0.162150
F165	F	0.030811	-0.654039	-0.653851
F166	F	0.530811	-0.154039	-0.153851
F167	F	0.171573	-0.654032	-0.653820
F168	F	0.671573	-0.154032	-0.153820
H169	H	-0.179180	-0.576876	-0.576905
H170	H	0.320820	-0.076876	-0.076905
H171	H	0.121661	-0.290952	-0.291776
H172	H	0.621661	0.209048	0.208224
H173	H	-0.179251	-0.352771	-0.353412
H174	H	0.320749	0.147229	0.146588
F175	F	-0.088187	-0.592319	-0.592285
F176	F	0.411813	-0.092319	-0.092285
H177	H	-0.094144	-0.352744	-0.353400
H178	H	0.405856	0.147256	0.146600
