data_functionalizedCrystal
_audit_creation_method	'MofGen! by Chris Wilmer'
_symmetry_space_group_name_H-M	'P1'
_symmetry_Int_Tables_number	1
_symmetry_cell_setting	triclinic
loop_
_symmetry_equiv_pos_as_xyz
  x,y,z
_cell_length_a	17.917603
_cell_length_b	14.560438
_cell_length_c	14.560438
_cell_angle_alpha	60.001579
_cell_angle_beta	90.001174
_cell_angle_gamma	57.011185
loop_
_atom_site_label
_atom_site_type_symbol
_atom_site_fract_x
_atom_site_fract_y
_atom_site_fract_z
Zr1	Zr	0.754907	0.920721	-0.078228
O2	O	0.629781	1.126336	-0.231879
O3	O	0.793264	0.724825	-0.031128
O4	O	0.793262	0.916425	-0.222727
O5	O	0.629785	0.934736	0.110859
O6	O	0.922219	0.901981	-0.215504
O7	O	0.629783	0.934736	-0.040280
O8	O	0.922223	0.559243	0.127231
O9	O	0.629781	1.277474	-0.231876
O10	O	0.905863	0.791021	-0.005647
O11	O	0.809625	0.801801	0.101756
O12	O	0.809623	1.027385	-0.123827
O13	O	0.713385	1.038165	-0.016423
Zr14	Zr	0.960582	0.897686	0.174341
Zr15	Zr	0.960579	0.897685	-0.066709
Zr16	Zr	0.754910	0.920722	0.162822
Zr17	Zr	0.754907	1.161769	-0.078223
Zr18	Zr	0.960581	0.656638	0.174336
O19	O	0.922224	1.093582	0.127241
O20	O	0.922220	1.093582	-0.215501
O21	O	0.629785	1.126337	0.110863
O22	O	1.085708	0.692071	0.327992
O23	O	1.085703	0.692070	-0.014750
O24	O	0.793269	0.724825	0.311614
O25	O	1.085704	0.883671	-0.014746
O26	O	0.922226	0.901982	0.318840
O27	O	0.793269	0.916426	0.311618
O28	O	1.085706	0.883671	0.136393
O29	O	0.793263	1.259163	-0.222720
O30	O	0.922226	0.559244	0.318833
O31	O	1.085708	0.540933	0.327989
O32	O	1.085705	0.540932	0.136387
O33	O	0.629784	1.277475	-0.040273
O34	O	0.793265	1.259164	-0.031118
O35	O	0.905866	0.791022	0.219940
O36	O	1.002104	0.780242	0.112536
O37	O	0.905863	1.016606	-0.005643
O38	O	0.809626	1.027386	0.101761
C39	C	0.857744	0.607690	0.048051
C40	C	0.857744	0.505359	0.048049
C41	C	0.907977	0.451656	-0.008015
C42	C	0.907981	0.355496	-0.008004
C43	C	0.807510	0.366755	0.104135
C44	C	0.807513	0.462906	0.104131
C45	C	0.600480	0.938018	0.033649
C46	C	0.513167	0.947798	0.028759
C47	C	0.353323	0.965661	0.019828
C48	C	0.362159	0.852752	0.076282
C49	C	0.273216	0.862691	0.071313
C50	C	0.442272	0.955725	0.024796
C51	C	1.115009	0.880389	0.062465
C52	C	1.202322	0.870609	0.067355
C53	C	0.857740	0.909203	-0.253460
C54	C	0.857739	0.909203	-0.355792
C55	C	0.857745	1.210717	0.048062
C56	C	0.857745	1.313048	0.048064
C57	C	0.786702	0.917162	-0.504009
C58	C	0.786698	0.917156	-0.407854
C59	C	0.928794	0.901240	-0.399882
C60	C	0.928801	0.901236	-0.496030
C61	C	0.857748	0.909204	0.349573
C62	C	0.857750	0.909204	0.451905
C63	C	1.115008	0.578875	0.062459
C64	C	1.202321	0.466765	0.067347
C65	C	0.857748	0.607690	0.349568
C66	C	0.857749	0.505360	0.451898
C67	C	1.115012	0.578876	0.363976
C68	C	1.202326	0.466765	0.471196
C69	C	0.600477	1.239531	-0.267862
C70	C	0.513162	1.351642	-0.375082
C71	C	0.600481	1.239532	0.033654
C72	C	0.513168	1.351642	0.028766
C73	C	0.857741	1.210717	-0.253454
C74	C	0.857740	1.313047	-0.355784
C75	C	1.193087	0.419743	0.007942
C76	C	1.275119	0.314417	0.012512
C77	C	1.366384	0.256109	0.076494
C78	C	1.375616	0.303140	0.135901
C79	C	1.293585	0.408470	0.131324
C80	C	1.293574	0.408489	0.465484
C81	C	1.375623	0.303162	0.566220
C82	C	1.366422	0.256107	0.672666
C83	C	1.275165	0.314393	0.678375
C84	C	1.193118	0.419725	0.577640
C85	C	0.421915	1.409929	-0.369371
C86	C	0.339866	1.515286	-0.470107
C87	C	0.349067	1.562347	-0.576553
C88	C	0.440324	1.504054	-0.582262
C89	C	0.522371	1.398706	-0.481527
C90	C	0.522401	1.398674	0.088161
C91	C	0.440369	1.504026	0.083565
C92	C	0.349105	1.562338	0.019579
C93	C	0.339873	1.515302	-0.039823
C94	C	0.421904	1.409959	-0.035232
C95	C	0.907985	0.451656	0.561663
C96	C	0.907976	0.355515	0.657808
C97	C	0.807492	0.366787	0.534409
C98	C	0.807496	0.462933	0.438266
H99	H	0.948880	0.486217	-0.053678
C100	C	1.069258	0.885516	-0.478506
C101	C	1.006902	0.892492	-0.544498
H102	H	1.117469	0.880123	-0.508433
H103	H	1.098438	0.806923	-0.401709
H104	H	1.034155	0.964787	-0.480638
H105	H	1.042004	0.813216	-0.542359
H106	H	0.977720	0.971093	-0.621315
C107	C	0.899279	0.639279	0.521364
C108	C	0.963210	0.498312	0.576636
H109	H	0.933373	0.668083	0.530605
H110	H	0.851750	0.660352	0.553764
H111	H	0.869367	0.685006	0.442231
H112	H	0.993116	0.452584	0.655770
H113	H	1.010756	0.477226	0.544239
H114	H	0.728848	0.923647	-0.546397
H115	H	0.986642	0.894756	-0.357483
C116	C	0.183001	1.088975	-0.041844
C117	C	0.252944	1.106227	-0.050464
H118	H	0.121026	1.175754	-0.085248
H119	H	0.190257	1.039762	0.036031
H120	H	0.190277	1.039727	-0.070488
H121	H	0.245672	1.155467	-0.021812
H122	H	0.245684	1.155461	-0.128355
H123	H	0.447905	1.542305	0.131943
H124	H	0.436522	0.748622	0.128345
C125	C	1.082235	0.540216	0.642244
C126	C	1.092820	0.483760	0.583934
H127	H	1.020318	0.579736	0.646141
H128	H	1.089404	0.608453	0.602683
H129	H	1.129797	0.470738	0.717463
H130	H	1.045263	0.553240	0.508712
H131	H	1.085641	0.415516	0.623494
C132	C	0.500785	1.605220	-0.708941
C133	C	0.450499	1.555597	-0.699235
H134	H	0.507080	1.636988	-0.781149
H135	H	0.562678	1.534173	-0.649727
H136	H	0.466689	1.678172	-0.702549
H137	H	0.484599	1.482638	-0.705619
H138	H	0.388596	1.626652	-0.758465
C139	C	1.007278	0.354047	-0.118862
C140	C	0.963193	0.296473	-0.069638
H141	H	1.041361	0.317612	-0.156919
H142	H	1.050639	0.333430	-0.060727
H143	H	0.959727	0.450147	-0.172340
H144	H	1.010745	0.200374	-0.016153
H145	H	0.919829	0.317080	-0.127781
C146	C	0.248753	1.515876	-0.161312
C147	C	0.239550	1.579395	-0.110142
H148	H	0.186815	1.555448	-0.204722
H149	H	0.282841	1.421293	-0.103694
H150	H	0.282831	1.527830	-0.210239
H151	H	0.205477	1.567432	-0.061209
H152	H	0.205447	1.674000	-0.167768
H153	H	0.728845	0.923634	-0.371962
H154	H	0.766583	0.506663	0.348883
C155	C	0.314359	1.431673	-0.268657
C156	C	0.411784	1.358234	-0.252373
H157	H	0.308101	1.399774	-0.196429
H158	H	0.284445	1.419257	-0.310271
H159	H	0.284462	1.525796	-0.310299
H160	H	0.441679	1.264112	-0.210738
H161	H	0.441710	1.370639	-0.210741
C162	C	1.102014	0.420300	-0.113575
C163	C	1.092775	0.483826	-0.062399
H164	H	1.040086	0.459868	-0.157010
H165	H	1.136099	0.325718	-0.055958
H166	H	1.136109	0.432252	-0.162478
H167	H	1.058686	0.471865	-0.013489
H168	H	1.058675	0.578431	-0.120023
H169	H	0.766579	0.332229	0.523325
C170	C	0.692754	1.232262	-0.376928
C171	C	0.622670	1.334659	-0.487815
H172	H	0.754673	1.192742	-0.380819
H173	H	0.685577	1.164031	-0.337392
H174	H	0.685550	1.270577	-0.337376
H175	H	0.629870	1.296342	-0.527364
H176	H	0.629851	1.402901	-0.527368
H177	H	0.414372	1.371670	-0.083597
C178	C	1.429159	0.111362	0.015877
C179	C	1.456549	0.140317	0.081529
H180	H	1.484821	0.039869	0.018992
H181	H	1.392053	0.190537	-0.061201
H182	H	1.392039	0.084020	0.045330
H183	H	1.493663	0.167669	0.052070
H184	H	1.493670	0.061125	0.158622
H185	H	0.766613	0.332179	0.149794
H186	H	0.766606	0.506630	0.149790
C187	C	1.545980	0.136639	0.197709
C188	C	1.475940	0.239026	0.206239
H189	H	1.607916	0.097048	0.241144
H190	H	1.538776	0.174973	0.119852
H191	H	1.538756	0.068447	0.226367
H192	H	1.483159	0.307224	0.177573
H193	H	1.483147	0.200693	0.284112
C194	C	1.401176	0.386694	0.253771
C195	C	1.303745	0.460133	0.196644
H196	H	1.407451	0.418581	0.294105
H197	H	1.431073	0.399126	0.199724
H198	H	1.431078	0.292570	0.306242
H199	H	1.273845	0.554257	0.144167
H200	H	1.273836	0.447714	0.250697
C201	C	1.212427	0.564963	0.261257
C202	C	1.303703	0.460203	0.348485
H203	H	1.218689	0.596879	0.189031
H204	H	1.178342	0.637796	0.267786
H205	H	1.178353	0.531251	0.267789
H206	H	1.337775	0.493918	0.341959
H207	H	1.337802	0.387357	0.341954
H208	H	1.267584	0.276138	-0.035865
C209	C	0.952574	0.203144	0.859979
C210	C	0.963195	0.296486	0.778465
H211	H	0.986660	0.166712	0.934468
H212	H	0.977382	0.131347	0.852935
H213	H	0.886477	0.248080	0.847826
H214	H	1.029292	0.251548	0.790614
H215	H	0.938392	0.368294	0.785514
H216	H	1.449921	0.255716	0.561551
C217	C	0.176843	1.719344	-0.659769
C218	C	0.258873	1.678138	-0.687276
H219	H	0.121160	1.790820	-0.728124
H220	H	0.176861	1.750853	-0.616279
H221	H	0.176870	1.644304	-0.616266
H222	H	0.258849	1.753176	-0.730773
H223	H	0.258854	1.646633	-0.730786
H224	H	1.433238	0.170338	0.754682
C225	C	0.613475	1.398146	0.209649
C226	C	0.622713	1.334594	0.158500
H227	H	0.675402	1.358596	0.253066
H228	H	0.579388	1.386206	0.258553
H229	H	0.579381	1.492738	0.152009
H230	H	0.656801	1.240003	0.216140
H231	H	0.656815	1.346522	0.109591
H232	H	1.267688	0.276065	0.765057
C233	C	0.286330	1.707073	0.080209
C234	C	0.258940	1.678124	0.014551
H235	H	0.230668	1.778545	0.077114
H236	H	0.323435	1.734430	0.050755
H237	H	0.323451	1.627878	0.157292
H238	H	0.221825	1.757316	-0.062534
H239	H	0.221819	1.650772	0.044000
H240	H	0.265569	1.562731	-0.465436
