data_functionalizedCrystal
_audit_creation_method	'MofGen! by Chris Wilmer'
_symmetry_space_group_name_H-M	'P1'
_symmetry_Int_Tables_number	1
_symmetry_cell_setting	triclinic
loop_
_symmetry_equiv_pos_as_xyz
  x,y,z
_cell_length_a	13.897448
_cell_length_b	18.215407
_cell_length_c	18.215399
_cell_angle_alpha	89.982187
_cell_angle_beta	89.973672
_cell_angle_gamma	90.012205
loop_
_atom_site_label
_atom_site_type_symbol
_atom_site_fract_x
_atom_site_fract_y
_atom_site_fract_z
Zn1	Zn	-0.384166	1.125109	-0.416084
Zn2	Zn	0.115834	1.625109	0.083916
Zn3	Zn	-0.545476	1.125033	-0.293022
Zn4	Zn	-0.045476	1.625033	0.206978
Zn5	Zn	-0.384181	1.002041	-0.293036
Zn6	Zn	0.115819	1.502041	0.206964
Zn7	Zn	-0.545405	1.002023	-0.416051
Zn8	Zn	-0.045405	1.502023	0.083949
O9	O	-0.464807	1.063551	-0.354548
O10	O	0.035193	1.563551	0.145452
O11	O	-0.405587	1.228083	-0.399768
O12	O	0.094413	1.728083	0.100232
O13	O	-0.524115	1.108693	-0.190039
O14	O	-0.024115	1.608693	0.309961
O15	O	-0.249197	1.018406	-0.309379
O16	O	0.250803	1.518406	0.190621
O17	O	-0.524101	1.228027	-0.309354
O18	O	-0.024101	1.728027	0.190646
O19	O	-0.249186	1.108823	-0.399782
O20	O	0.250814	1.608823	0.100218
O21	O	-0.405613	1.018332	-0.190050
O22	O	0.094387	1.518332	0.309950
O23	O	-0.405544	0.899055	-0.309346
O24	O	0.094456	1.399055	0.190654
O25	O	-0.523981	1.018374	-0.519040
O26	O	-0.023981	1.518374	-0.019040
O27	O	-0.523995	0.899041	-0.399725
O28	O	-0.023995	1.399041	0.100275
O29	O	-0.405519	1.108805	-0.519064
O30	O	0.094481	1.608805	-0.019064
O31	O	-0.680448	1.108675	-0.309322
O32	O	-0.180448	1.608675	0.190678
O33	O	-0.680396	1.018300	-0.399711
O34	O	-0.180396	1.518300	0.100289
C35	C	-0.464765	0.872345	-0.354534
C36	C	0.035235	1.372345	0.145466
C37	C	-0.464770	0.790546	-0.354545
C38	C	0.035230	1.290546	0.145455
C39	C	-0.403216	0.525512	-0.401702
C40	C	0.096784	1.025512	0.098298
C41	C	-0.403200	0.602371	-0.401699
C42	C	0.096800	1.102371	0.098301
C43	C	-0.526429	0.602332	-0.307411
C44	C	-0.026429	1.102332	0.192589
C45	C	-0.526449	0.525474	-0.307417
C46	C	-0.026449	1.025474	0.192583
C47	C	-0.464837	0.487067	-0.354562
C48	C	0.035163	0.987067	0.145438
C49	C	-0.464801	0.640783	-0.354553
C50	C	0.035199	1.140783	0.145447
C51	C	-0.464785	0.724116	-0.354550
C52	C	0.035215	1.224116	0.145450
C53	C	-0.464854	0.403728	-0.354566
C54	C	0.035146	0.903728	0.145434
C55	C	-0.715421	1.063498	-0.354527
C56	C	-0.215421	1.563498	0.145473
C57	C	-0.822635	1.063542	-0.354542
C58	C	-0.322635	1.563542	0.145458
C59	C	-1.018930	1.063619	-0.354589
C60	C	-0.518930	1.563619	0.145411
C61	C	-0.909698	1.063574	-0.354565
C62	C	-0.409698	1.563574	0.145435
C63	C	-0.213214	1.063625	-0.354586
C64	C	0.286786	1.563625	0.145414
C65	C	-0.106000	1.063657	-0.354602
C66	C	0.394000	1.563657	0.145398
C67	C	-0.464740	1.063596	-0.546501
C68	C	0.035260	1.563596	-0.046501
C69	C	-0.464712	1.063615	-0.628300
C70	C	0.035288	1.563615	-0.128300
C71	C	-0.464850	1.255504	-0.354563
C72	C	0.035150	1.755504	0.145437
C73	C	-0.464869	1.337303	-0.354569
C74	C	0.035131	1.837303	0.145431
C75	C	-0.402971	1.110719	-0.816508
C76	C	0.097029	1.610719	-0.316508
C77	C	-0.402943	1.110728	-0.893367
C78	C	0.097057	1.610728	-0.393367
C79	C	-0.526304	1.016563	-0.893330
C80	C	-0.026304	1.516563	-0.393330
C81	C	-0.526326	1.016551	-0.816473
C82	C	-0.026326	1.516551	-0.316473
C83	C	-0.464662	1.063633	-0.778064
C84	C	0.035338	1.563633	-0.278064
C85	C	-0.464611	1.063654	-0.931780
C86	C	0.035389	1.563654	-0.431780
C87	C	-0.464581	1.063663	-1.015114
C88	C	0.035419	1.563663	-0.515114
C89	C	-0.464690	1.063624	-0.694725
C90	C	0.035310	1.563624	-0.194725
C91	C	-0.464804	1.063549	-0.163342
C92	C	0.035196	1.563549	0.336658
C93	C	-0.464560	1.063672	-0.081544
C94	C	0.035440	1.563672	0.418456
H95	H	-0.576634	0.494171	-0.269030
H96	H	-0.076634	0.994171	0.230970
O97	O	-0.343248	0.639603	-0.447513
O98	O	0.156752	1.139603	0.052487
C99	C	-0.288895	0.589219	-0.489136
C100	C	0.211105	1.089219	0.010864
H101	H	-0.285521	0.534422	-0.458999
H102	H	0.214479	1.034422	0.041001
H103	H	-0.212903	0.611430	-0.497081
H104	H	0.287097	1.111430	0.002919
H105	H	-0.324307	0.581063	-0.544985
H106	H	0.175693	1.081063	-0.044985
O107	O	-0.342976	1.156472	-0.779311
O108	O	0.157024	1.656472	-0.279311
C109	C	-0.288537	1.198045	-0.829728
C110	C	0.211463	1.698045	-0.329728
H111	H	-0.285179	1.167909	-0.884510
H112	H	0.214821	1.667909	-0.384510
H113	H	-0.212545	1.205910	-0.807538
H114	H	0.287455	1.705910	-0.307538
H115	H	-0.323865	1.253930	-0.837905
H116	H	0.176135	1.753930	-0.337905
H117	H	-0.576590	0.633613	-0.269026
H118	H	-0.076590	1.133613	0.230974
H119	H	-0.576511	0.978232	-0.924612
H120	H	-0.076511	1.478232	-0.424612
H121	H	-0.576561	0.978203	-0.785170
H122	H	-0.076561	1.478203	-0.285170
O123	O	-0.343510	0.488121	-0.447537
O124	O	0.156490	0.988121	0.052463
C125	C	-0.398518	0.443696	-0.495013
C126	C	0.101482	0.943696	0.004987
H127	H	-0.471577	0.432169	-0.468962
H128	H	0.028423	0.932169	0.031038
H129	H	-0.359258	0.389654	-0.504933
H130	H	0.140742	0.889654	-0.004933
H131	H	-0.409200	0.473338	-0.549534
H132	H	0.090800	0.973338	-0.049534
O133	O	-0.342913	1.156363	-0.930743
O134	O	0.157087	1.656363	-0.430743
C135	C	-0.280602	1.114487	-0.975213
C136	C	0.219398	1.614487	-0.475213
H137	H	-0.274646	1.056523	-0.952043
H138	H	0.225354	1.556523	-0.452043
H139	H	-0.206373	1.141122	-0.976096
H140	H	0.293627	1.641122	-0.476096
H141	H	-0.310400	1.111953	-1.033459
H142	H	0.189600	1.611953	-0.533459
