data_functionalizedCrystal
_audit_creation_method	'MofGen! by Chris Wilmer'
_symmetry_space_group_name_H-M	'P1'
_symmetry_Int_Tables_number	1
_symmetry_cell_setting	triclinic
loop_
_symmetry_equiv_pos_as_xyz
  x,y,z
_cell_length_a	15.995362
_cell_length_b	15.944545
_cell_length_c	15.021413
_cell_angle_alpha	90.003039
_cell_angle_beta	89.997449
_cell_angle_gamma	96.503224
loop_
_atom_site_label
_atom_site_type_symbol
_atom_site_fract_x
_atom_site_fract_y
_atom_site_fract_z
O1	O	-0.107967	1.114527	0.073964
O2	O	0.392033	1.614527	0.573964
O3	O	-0.121286	0.869977	0.073977
O4	O	0.378714	1.369977	0.573977
O5	O	0.007260	0.998932	0.073976
O6	O	0.507260	1.498932	0.573976
O7	O	-0.236513	0.985572	0.073964
O8	O	0.263487	1.485572	0.573964
O9	O	0.007272	0.998918	-0.074088
O10	O	0.507272	1.498918	0.425912
O11	O	-0.121275	0.869963	-0.074087
O12	O	0.378725	1.369963	0.425913
O13	O	-0.107955	1.114514	-0.074101
O14	O	0.392045	1.614514	0.425899
Zn15	Zn	-0.114613	0.992236	-0.097602
Zn16	Zn	0.385387	1.492236	0.402398
Zn17	Zn	-0.114628	0.992254	0.097479
Zn18	Zn	0.385372	1.492254	0.597479
O19	O	-0.236502	0.985559	-0.074100
O20	O	0.263498	1.485559	0.425900
C21	C	-0.120728	0.838676	-0.000054
C22	C	0.379272	1.338676	0.499946
C23	C	-0.119073	0.745430	-0.000048
C24	C	0.380927	1.245430	0.499952
C25	C	-0.034449	0.474798	-0.000053
C26	C	0.465551	0.974798	0.499947
C27	C	-0.075243	0.525372	-0.073061
C28	C	0.424757	1.025372	0.426939
C29	C	-0.113172	0.409786	-0.000063
C30	C	0.386828	0.909786	0.499937
C31	C	-0.075275	0.525366	0.072919
C32	C	0.424725	1.025366	0.572919
C33	C	-0.116067	0.574699	-0.000054
C34	C	0.383933	1.074699	0.499946
C35	C	-0.153944	0.459132	-0.073131
C36	C	0.346056	0.959132	0.426869
C37	C	-0.153965	0.459123	0.072915
C38	C	0.346035	0.959123	0.572915
C39	C	-0.194816	0.509664	-0.000111
C40	C	0.305184	1.009664	0.499889
C41	C	-0.111501	0.314784	-0.000069
C42	C	0.388499	0.814784	0.499931
C43	C	-0.117743	0.669699	-0.000055
C44	C	0.382257	1.169699	0.499945
C45	C	0.038461	0.998371	-0.000052
C46	C	0.538461	1.498371	0.499948
C47	C	0.131411	0.996710	-0.000042
C48	C	0.631411	1.496710	0.499958
C49	C	0.469156	0.990744	-0.000025
C50	C	0.969156	1.490744	0.499975
C51	C	0.421726	0.898902	0.000310
C52	C	0.921726	1.398902	0.500310
C53	C	0.325036	0.900564	-0.000030
C54	C	0.825036	1.400564	0.499970
C55	C	0.301597	0.993703	-0.000033
C56	C	0.801597	1.493703	0.499967
C57	C	0.342679	1.038994	-0.084583
C58	C	0.842679	1.538994	0.415417
C59	C	0.439314	1.036682	-0.084648
C60	C	0.939314	1.536682	0.415352
C61	C	0.439659	1.038595	0.083728
C62	C	0.939659	1.538595	0.583728
C63	C	0.342714	1.038577	0.084840
C64	C	0.842714	1.538577	0.584840
C65	C	0.206900	0.995380	-0.000040
C66	C	0.706900	1.495380	0.499960
C67	C	0.563854	0.989069	-0.000023
C68	C	1.063854	1.489069	0.499977
C69	C	0.732297	0.986109	-0.000055
C70	C	1.232297	1.486109	0.499945
C71	C	0.639342	0.987737	-0.000016
C72	C	1.139342	1.487737	0.499984
C73	C	-0.108513	1.145815	-0.000068
C74	C	0.391487	1.645815	0.499932
C75	C	-0.110168	1.239061	-0.000068
C76	C	0.389832	1.739061	0.499932
N77	N	-0.114602	0.992230	-0.230740
N78	N	0.385398	1.492230	0.269260
N79	N	-0.114632	0.992267	0.230616
N80	N	0.385368	1.492267	0.730616
C81	C	-0.055277	1.052011	0.529607
C82	C	0.444723	1.552011	1.029607
C83	C	-0.038872	0.976169	0.470245
C84	C	0.461128	1.476169	0.970245
C85	C	-0.114612	0.992241	0.587653
C86	C	0.385388	1.492241	1.087653
C87	C	-0.130988	1.068094	0.470273
C88	C	0.369012	1.568094	0.970273
C89	C	-0.114620	0.992258	0.412229
C90	C	0.385380	1.492258	0.912229
C91	C	-0.098169	0.916360	0.529598
C92	C	0.401831	1.416360	1.029598
C93	C	-0.190319	1.008335	0.529631
C94	C	0.309681	1.508335	1.029631
C95	C	-0.173946	0.932438	0.470296
C96	C	0.326054	1.432438	0.970296
C97	C	-0.114606	0.992232	0.688710
C98	C	0.385394	1.492232	1.188710
C99	C	-0.114627	0.992258	0.311174
C100	C	0.385373	1.492258	0.811174
H101	H	0.440254	0.862198	0.060946
H102	H	0.940254	1.362198	0.560946
N103	N	-0.240423	0.865431	0.436004
N104	N	0.259577	1.365431	0.936004
H105	H	-0.270144	0.834801	0.487920
H106	H	0.229856	1.334801	0.987920
H107	H	-0.213011	0.823918	0.398112
H108	H	0.286989	1.323918	0.898112
H109	H	0.460195	1.008572	0.147816
H110	H	0.960195	1.508572	0.647816
N111	N	0.463563	0.992909	-0.168361
N112	N	0.963563	1.492909	0.331639
H113	H	0.491495	0.941320	-0.151972
H114	H	0.991495	1.441320	0.348028
H115	H	0.503906	1.032840	-0.204291
H116	H	1.003906	1.532840	0.295709
N117	N	-0.031188	0.563687	-0.154808
N118	N	0.468812	1.063687	0.345192
H119	H	-0.033100	0.626785	-0.154502
H120	H	0.466900	1.126785	0.345498
H121	H	-0.060321	0.538589	-0.209904
H122	H	0.439679	1.038589	0.290096
N123	N	-0.275093	1.026390	0.564218
N124	N	0.224907	1.526390	1.064218
H125	H	-0.287408	1.083727	0.542679
H126	H	0.212592	1.583727	1.042679
H127	H	-0.274558	1.025651	0.631445
H128	H	0.225442	1.525651	1.131445
H129	H	0.315462	1.005464	0.147389
H130	H	0.815462	1.505464	0.647389
N131	N	-0.031229	0.563684	0.154670
N132	N	0.468771	1.063684	0.654670
H133	H	-0.009640	0.517700	0.191488
H134	H	0.490360	1.017700	0.691488
H135	H	-0.072134	0.593198	0.191179
H136	H	0.427866	1.093198	0.691179
N137	N	0.287374	0.853405	0.080250
N138	N	0.787374	1.353405	0.580250
H139	H	0.333578	0.831346	0.116178
H140	H	0.833578	1.331346	0.616178
H141	H	0.246021	0.804561	0.059984
H142	H	0.746021	1.304561	0.559984
N143	N	0.447679	0.850478	-0.079551
N144	N	0.947679	1.350478	0.420449
H145	H	0.490027	0.887773	-0.115945
H146	H	0.990027	1.387773	0.384055
H147	H	0.396573	0.832161	-0.117241
H148	H	0.896573	1.332161	0.382759
N149	N	0.288122	0.853084	-0.080452
N150	N	0.788122	1.353084	0.419548
H151	H	0.301475	0.792719	-0.077849
H152	H	0.801475	1.292719	0.422151
H153	H	0.313091	0.880821	-0.136345
H154	H	0.813091	1.380821	0.363655
H155	H	0.033347	0.459145	-0.000121
H156	H	0.533347	0.959145	0.499879
H157	H	0.471560	1.104111	-0.088484
H158	H	0.971560	1.604111	0.411516
N159	N	-0.079719	0.831384	0.563969
N160	N	0.420281	1.331384	1.063969
H161	H	-0.022733	0.819101	0.541840
H162	H	0.477267	1.319101	1.041840
H163	H	-0.124303	0.786261	0.541884
H164	H	0.375697	1.286261	1.041884
H165	H	-0.144836	1.132234	0.444214
H166	H	0.355164	1.632234	0.944214
H167	H	-0.187161	0.430317	-0.134919
H168	H	0.312839	0.930317	0.365081
H169	H	0.327350	1.106499	0.089943
H170	H	0.827350	1.606499	0.589943
H171	H	-0.187187	0.430182	0.134636
H172	H	0.312813	0.930182	0.634636
N173	N	-0.284690	0.530177	-0.000155
N174	N	0.215310	1.030177	0.499845
H175	H	-0.314310	0.505837	-0.055319
H176	H	0.185690	1.005837	0.444681
H177	H	-0.285258	0.593450	0.000404
H178	H	0.214742	1.093450	0.500404
N179	N	0.481721	1.128290	0.084489
N180	N	0.981721	1.628290	0.584489
H181	H	0.519702	1.137920	0.030875
H182	H	1.019702	1.637920	0.530875
H183	H	0.516159	1.138326	0.140619
H184	H	1.016159	1.638326	0.640619
N185	N	0.323980	1.129637	-0.088728
N186	N	0.823980	1.629637	0.411272
H187	H	0.261109	1.131389	-0.091419
H188	H	0.761109	1.631389	0.408581
H189	H	0.351044	1.157480	-0.143585
H190	H	0.851044	1.657480	0.356415
N191	N	0.305088	0.997328	-0.167935
N192	N	0.805088	1.497328	0.332065
H193	H	0.261458	0.949123	-0.151120
H194	H	0.761458	1.449123	0.348880
H195	H	0.350952	0.975026	-0.204175
H196	H	0.850952	1.475026	0.295825
H197	H	-0.005062	1.102492	0.555650
H198	H	0.494938	1.602492	1.055650
H199	H	0.025148	0.962558	0.444160
H200	H	0.525148	1.462558	0.944160
