data_functionalizedCrystal
_audit_creation_method	'MofGen! by Chris Wilmer'
_symmetry_space_group_name_H-M	'P1'
_symmetry_Int_Tables_number	1
_symmetry_cell_setting	triclinic
loop_
_symmetry_equiv_pos_as_xyz
  x,y,z
_cell_length_a	16.959454
_cell_length_b	19.077236
_cell_length_c	19.076919
_cell_angle_alpha	89.887323
_cell_angle_beta	92.275489
_cell_angle_gamma	92.313014
loop_
_atom_site_label
_atom_site_type_symbol
_atom_site_fract_x
_atom_site_fract_y
_atom_site_fract_z
Zn1	Zn	-0.286928	1.058310	-0.440559
Zn2	Zn	-0.413600	1.062959	-0.323060
Zn3	Zn	-0.286514	0.945526	-0.318339
Zn4	Zn	-0.424146	0.940779	-0.435799
O5	O	-0.352797	1.001893	-0.379439
O6	O	-0.299492	1.157260	-0.428941
O7	O	-0.392155	1.051313	-0.224103
O8	O	-0.175957	0.960528	-0.334568
O9	O	-0.392557	1.160675	-0.342615
O10	O	-0.176261	1.043390	-0.424363
O11	O	-0.298785	0.965036	-0.220634
O12	O	-0.309011	0.846563	-0.329953
O13	O	-0.410530	0.952437	-0.534762
O14	O	-0.410128	0.843075	-0.416250
O15	O	-0.309717	1.038787	-0.538259
O16	O	-0.525611	1.046710	-0.337999
O17	O	-0.533359	0.956945	-0.420828
C18	C	-0.360669	0.819322	-0.372073
C19	C	-0.364057	0.741216	-0.368938
C20	C	-0.317278	0.702742	-0.412479
C21	C	-0.320457	0.629354	-0.409528
C22	C	-0.370420	0.594441	-0.363038
C23	C	-0.417201	0.632921	-0.319492
C24	C	-0.414017	0.706308	-0.322441
C25	C	-0.385124	0.375149	-0.349389
C26	C	-0.388306	0.301757	-0.346446
C27	C	-0.291561	0.298195	-0.436481
C28	C	-0.288385	0.371583	-0.439428
C29	C	-0.335163	0.410056	-0.395880
N30	N	-0.373672	0.519427	-0.360021
N31	N	-0.331906	0.485070	-0.398893
C32	C	-0.558165	1.001835	-0.379425
C33	C	-0.646021	1.001873	-0.379445
C34	C	-1.021556	0.955218	-0.422566
C35	C	-1.013429	1.048761	-0.336392
C36	C	-0.930884	1.048737	-0.336385
C37	C	-0.893671	1.001952	-0.379468
C38	C	-0.939004	0.955191	-0.422558
C39	C	-0.885546	1.095492	-0.293290
C40	C	-0.802995	1.095470	-0.293280
C41	C	-0.765781	1.048687	-0.336367
C42	C	-0.811119	1.001925	-0.379460
C43	C	-0.773906	0.955139	-0.422543
C44	C	-0.819242	0.908380	-0.465641
C45	C	-0.901790	0.908408	-0.465646
C46	C	-0.683234	1.048659	-0.336362
C47	C	-0.691353	0.955112	-0.422536
C48	C	-0.146627	1.001970	-0.379470
C49	C	-0.058769	1.002003	-0.379483
C50	C	-0.361346	0.994564	-0.562719
C51	C	-0.364989	0.991441	-0.640822
C52	C	-0.344894	1.185177	-0.386835
C53	C	-0.341527	1.263282	-0.389987
C54	C	-0.314215	1.034929	-0.679337
C55	C	-0.317636	1.031986	-0.752723
C56	C	-0.371834	0.985558	-0.787592
C57	C	-0.422611	0.942065	-0.749072
C58	C	-0.419186	0.945005	-0.675688
C59	C	-0.387702	0.971941	-1.006873
C60	C	-0.391125	0.969005	-1.080262
C61	C	-0.286148	1.058926	-1.083908
C62	C	-0.282732	1.061865	-1.010522
C63	C	-0.333505	1.018369	-0.972008
N64	N	-0.375334	0.982550	-0.862604
N65	N	-0.330001	1.021374	-0.896997
C66	C	-0.344222	1.009234	-0.196874
C67	C	-0.340351	1.012494	-0.118777
H68	H	-0.457877	0.604489	-0.281636
N69	N	-0.224277	1.111943	-0.972914
H70	H	-0.192630	1.139047	-1.008449
H71	H	-0.187509	1.084575	-0.941314
H72	H	-0.435262	0.931196	-1.108651
N73	N	-1.070445	0.904781	-0.469044
H74	H	-1.057926	0.913640	-0.519695
H75	H	-1.128368	0.911918	-0.462457
N76	N	-0.231387	1.105835	-1.125447
H77	H	-0.241778	1.096930	-1.177227
H78	H	-0.174808	1.095432	-1.112185
H79	H	-0.247703	0.400004	-0.477288
N80	N	-0.435580	0.416631	-0.302419
H81	H	-0.493134	0.403417	-0.312735
H82	H	-0.425922	0.468408	-0.311352
N83	N	-0.262881	1.078890	-0.794274
H84	H	-0.228904	1.049124	-0.823570
H85	H	-0.228077	1.108747	-0.761013
N86	N	-0.442184	0.264093	-0.296295
H87	H	-0.481516	0.232504	-0.323571
H88	H	-0.471281	0.299640	-0.269160
H89	H	-0.282366	0.598031	-0.444985
N90	N	-0.241108	0.256700	-0.483447
H91	H	-0.250704	0.204912	-0.474527
H92	H	-0.183575	0.269971	-0.473110
H93	H	-0.452109	0.737633	-0.286984
N94	N	-0.950686	0.857976	-0.512122
H95	H	-1.008626	0.865090	-0.505585
H96	H	-0.937953	0.808234	-0.499116
N97	N	-1.053561	1.099209	-0.289914
H98	H	-1.112734	1.092127	-0.296454
H99	H	-1.037440	1.148946	-0.302909
N100	N	-0.754104	1.145909	-0.246807
H101	H	-0.719753	1.177294	-0.276705
H102	H	-0.719642	1.118625	-0.213072
N103	N	-0.779103	0.857913	-0.512101
H104	H	-0.719931	0.864991	-0.505550
H105	H	-0.795370	0.866804	-0.562738
H106	H	-0.661060	0.917016	-0.457622
H107	H	-0.915850	1.133578	-0.258208
H108	H	-0.466738	0.904259	-0.777469
N109	N	-0.634335	1.099080	-0.289880
H110	H	-0.670435	1.128720	-0.262586
H111	H	-0.599984	1.130424	-0.319816
N112	N	-0.442437	0.925007	-0.965337
H113	H	-0.477283	0.895144	-0.998564
H114	H	-0.476374	0.954790	-0.936023
H115	H	-0.270083	1.072738	-0.650952
H116	H	-0.460524	0.909585	-0.644329
H117	H	-0.276595	0.731162	-0.450338
