data_functionalizedCrystal
_audit_creation_method	'MofGen! by Chris Wilmer'
_symmetry_space_group_name_H-M	'P1'
_symmetry_Int_Tables_number	1
_symmetry_cell_setting	triclinic
loop_
_symmetry_equiv_pos_as_xyz
  x,y,z
_cell_length_a	12.594517
_cell_length_b	12.594516
_cell_length_c	16.625539
_cell_angle_alpha	89.976325
_cell_angle_beta	90.020900
_cell_angle_gamma	89.973469
loop_
_atom_site_label
_atom_site_type_symbol
_atom_site_fract_x
_atom_site_fract_y
_atom_site_fract_z
Zn1	Zn	1.627183	0.423746	0.455942
Zn2	Zn	1.877183	0.673746	0.705942
Zn3	Zn	2.127183	0.923746	0.955942
Zn4	Zn	2.377183	1.173746	1.205942
Zn5	Zn	1.627042	0.601747	0.321121
Zn6	Zn	1.877042	0.851747	0.571121
Zn7	Zn	2.127042	1.101747	0.821121
Zn8	Zn	2.377042	1.351747	1.071121
Zn9	Zn	1.449189	0.423783	0.321122
Zn10	Zn	1.699189	0.673783	0.571122
Zn11	Zn	1.949189	0.923783	0.821122
Zn12	Zn	2.199189	1.173783	1.071122
Zn13	Zn	1.449136	0.601682	0.455910
Zn14	Zn	1.699136	0.851682	0.705910
Zn15	Zn	1.949136	1.101682	0.955910
Zn16	Zn	2.199136	1.351682	1.205910
O17	O	1.538138	0.512739	0.388524
O18	O	1.788138	0.762739	0.638524
O19	O	2.038138	1.012739	0.888524
O20	O	2.288138	1.262739	1.138524
O21	O	1.776111	0.447370	0.438071
O22	O	2.026111	0.697370	0.688071
O23	O	2.276111	0.947370	0.938071
O24	O	2.526111	1.197370	1.188071
O25	O	1.603413	0.578182	0.208288
O26	O	1.853413	0.828182	0.458288
O27	O	2.103413	1.078182	0.708288
O28	O	2.353413	1.328182	0.958288
O29	O	1.472881	0.274832	0.339021
O30	O	1.722881	0.524832	0.589021
O31	O	1.972881	0.774832	0.839021
O32	O	2.222881	1.024832	1.089021
O33	O	1.776007	0.578147	0.339018
O34	O	2.026007	0.828147	0.589018
O35	O	2.276007	1.078147	0.839018
O36	O	2.526007	1.328147	1.089018
O37	O	1.603653	0.274805	0.438073
O38	O	1.853653	0.524805	0.688073
O39	O	2.103653	0.774805	0.938073
O40	O	2.353653	1.024805	1.188073
O41	O	1.472744	0.447432	0.208289
O42	O	1.722744	0.697432	0.458289
O43	O	1.972744	0.947432	0.708289
O44	O	2.222744	1.197432	0.958289
O45	O	1.300236	0.447369	0.338989
O46	O	1.550236	0.697369	0.588989
O47	O	1.800236	0.947369	0.838989
O48	O	2.050236	1.197369	1.088989
O49	O	1.472792	0.578036	0.568746
O50	O	1.722792	0.828036	0.818746
O51	O	1.972792	1.078036	1.068746
O52	O	2.222792	1.328036	1.318746
O53	O	1.300198	0.578072	0.438017
O54	O	1.550198	0.828072	0.688017
O55	O	1.800198	1.078072	0.938017
O56	O	2.050198	1.328072	1.188017
O57	O	1.603602	0.447307	0.568770
O58	O	1.853602	0.697307	0.818770
O59	O	2.103602	0.947307	1.068770
O60	O	2.353602	1.197307	1.318770
O61	O	1.603362	0.750684	0.338986
O62	O	1.853362	1.000684	0.588986
O63	O	2.103362	1.250684	0.838986
O64	O	2.353362	1.500684	1.088986
O65	O	1.472655	0.750637	0.438015
O66	O	1.722655	1.000637	0.688015
O67	O	1.972655	1.250637	0.938015
O68	O	2.222655	1.500637	1.188015
C69	C	1.261597	0.512718	0.388500
C70	C	1.511597	0.762718	0.638500
C71	C	1.761597	1.012718	0.888500
C72	C	2.011597	1.262718	1.138500
C73	C	1.143291	0.512735	0.388509
C74	C	1.393291	0.762735	0.638509
C75	C	1.643291	1.012735	0.888509
C76	C	1.893291	1.262735	1.138509
C77	C	1.074028	0.441549	0.334750
C78	C	1.324028	0.691549	0.584750
C79	C	1.574028	0.941549	0.834750
C80	C	1.824028	1.191549	1.084750
C81	C	1.003199	0.538636	0.314920
C82	C	1.253199	0.788636	0.564920
C83	C	1.503199	1.038636	0.814920
C84	C	1.753199	1.288636	1.064920
C85	C	1.003321	0.415695	0.408353
C86	C	1.253321	0.665695	0.658353
C87	C	1.503321	0.915695	0.908353
C88	C	1.753321	1.165695	1.158353
C89	C	1.074021	0.609873	0.368640
C90	C	1.324021	0.859873	0.618640
C91	C	1.574021	1.109873	0.868640
C92	C	1.824021	1.359873	1.118640
C93	C	1.074149	0.486866	0.462107
C94	C	1.324149	0.736866	0.712107
C95	C	1.574149	0.986866	0.962107
C96	C	1.824149	1.236866	1.212107
C97	C	1.003352	0.584021	0.442305
C98	C	1.253352	0.834021	0.692305
C99	C	1.503352	1.084021	0.942305
C100	C	1.753352	1.334021	1.192305
C101	C	1.538016	0.789280	0.388514
C102	C	1.788016	1.039280	0.638514
C103	C	2.038016	1.289280	0.888514
C104	C	2.288016	1.539280	1.138514
C105	C	1.538062	0.907586	0.388538
C106	C	1.788062	1.157586	0.638538
C107	C	2.038062	1.407586	0.888538
C108	C	2.288062	1.657586	1.138538
C109	C	1.466951	0.976852	0.442361
C110	C	1.716951	1.226852	0.692361
C111	C	1.966951	1.476852	0.942361
C112	C	2.216951	1.726852	1.192361
C113	C	1.441005	1.047712	0.368786
C114	C	1.691005	1.297712	0.618786
C115	C	1.941005	1.547712	0.868786
C116	C	2.191005	1.797712	1.118786
C117	C	1.564066	1.047524	0.462124
C118	C	1.814066	1.297524	0.712124
C119	C	2.064066	1.547524	0.962124
C120	C	2.314066	1.797524	1.212124
C121	C	1.512065	0.976888	0.314924
C122	C	1.762065	1.226888	0.564924
C123	C	2.012065	1.476888	0.814924
C124	C	2.262065	1.726888	1.064924
C125	C	1.635171	0.976694	0.408311
C126	C	1.885171	1.226694	0.658311
C127	C	2.135171	1.476694	0.908311
C128	C	2.385171	1.726694	1.158311
C129	C	1.609262	1.047523	0.334685
C130	C	1.859262	1.297523	0.584685
C131	C	2.109262	1.547523	0.834685
C132	C	2.359262	1.797523	1.084685
C133	C	1.815759	0.512762	0.388548
C134	C	2.065759	0.762762	0.638548
C135	C	2.315759	1.012762	0.888548
C136	C	2.565759	1.262762	1.138548
C137	C	1.934064	0.512771	0.388558
C138	C	2.184064	0.762771	0.638558
C139	C	2.434064	1.012771	0.888558
C140	C	2.684064	1.262771	1.138558
C141	C	1.538207	0.512660	0.598833
C142	C	1.788207	0.762660	0.848833
C143	C	2.038207	1.012660	1.098833
C144	C	2.288207	1.262660	1.348833
C145	C	1.538236	0.512626	0.688454
C146	C	1.788236	0.762626	0.938454
C147	C	2.038236	1.012626	1.188454
C148	C	2.288236	1.262626	1.438454
C149	C	1.538242	1.235119	0.388549
C150	C	1.788242	1.485119	0.638549
C151	C	2.038242	1.735119	0.888549
C152	C	2.288242	1.985119	1.138549
C153	C	1.538166	1.116813	0.388557
C154	C	1.788166	1.366813	0.638557
C155	C	2.038166	1.616813	0.888557
C156	C	2.288166	1.866813	1.138557
C157	C	1.538130	0.512742	0.179033
C158	C	1.788130	0.762742	0.429033
C159	C	2.038130	1.012742	0.679033
C160	C	2.288130	1.262742	0.929033
C161	C	1.538307	0.512476	0.089412
C162	C	1.788307	0.762476	0.339412
C163	C	2.038307	1.012476	0.589412
C164	C	2.288307	1.262476	0.839412
C165	C	1.538286	0.512507	1.016630
C166	C	1.788286	0.762507	1.266630
C167	C	2.038286	1.012507	1.516630
C168	C	2.288286	1.262507	1.766630
C169	C	1.538269	0.512544	0.925321
C170	C	1.788269	0.762544	1.175321
C171	C	2.038269	1.012544	1.425321
C172	C	2.288269	1.262544	1.675321
C173	C	1.538262	0.512568	0.852545
C174	C	1.788262	0.762568	1.102545
C175	C	2.038262	1.012568	1.352545
C176	C	2.288262	1.262568	1.602545
C177	C	1.538244	0.512603	0.761230
C178	C	1.788244	0.762603	1.011230
C179	C	2.038244	1.012603	1.261230
C180	C	2.288244	1.262603	1.511230
H181	H	0.972037	0.560539	0.252701
H182	H	1.222037	0.810539	0.502701
H183	H	1.472037	1.060539	0.752701
H184	H	1.722037	1.310539	1.002701
H185	H	0.972515	0.644305	0.487788
H186	H	1.222515	0.894305	0.737788
H187	H	1.472515	1.144305	0.987788
H188	H	1.722515	1.394305	1.237788
H189	H	1.490018	0.945988	0.252683
H190	H	1.740018	1.195988	0.502683
H191	H	1.990018	1.445988	0.752683
H192	H	2.240018	1.695988	1.002683
Br193	Br	0.951546	0.278893	0.436291
Br194	Br	1.201546	0.528893	0.686291
Br195	Br	1.451546	0.778893	0.936291
Br196	Br	1.701546	1.028893	1.186291
H197	H	1.669443	1.078358	0.289124
H198	H	1.919443	1.328358	0.539124
H199	H	2.169443	1.578358	0.789124
H200	H	2.419443	1.828358	1.039124
H201	H	1.358932	1.078930	0.352078
H202	H	1.608932	1.328930	0.602078
H203	H	1.858932	1.578930	0.852078
H204	H	2.108932	1.828930	1.102078
H205	H	1.406723	0.945820	0.487812
H206	H	1.656723	1.195820	0.737812
H207	H	1.906723	1.445820	0.987812
H208	H	2.156723	1.695820	1.237812
Br209	Br	1.771937	0.924663	0.436217
Br210	Br	2.021937	1.174663	0.686217
Br211	Br	2.271937	1.424663	0.936217
Br212	Br	2.521937	1.674663	1.186217
H213	H	1.105061	0.381408	0.289233
H214	H	1.355061	0.631408	0.539233
H215	H	1.605061	0.881408	0.789233
H216	H	1.855061	1.131408	1.039233
Br217	Br	1.125558	0.746721	0.340581
Br218	Br	1.375558	0.996721	0.590581
Br219	Br	1.625558	1.246721	0.840581
Br220	Br	1.875558	1.496721	1.090581
H221	H	1.105337	0.464934	0.524308
H222	H	1.355337	0.714934	0.774308
H223	H	1.605337	0.964934	1.024308
H224	H	1.855337	1.214934	1.274308
Br225	Br	1.600652	1.099249	0.565831
Br226	Br	1.850652	1.349249	0.815831
Br227	Br	2.100652	1.599249	1.065831
Br228	Br	2.350652	1.849249	1.315831
