data_functionalizedCrystal
_audit_creation_method	'MofGen! by Chris Wilmer'
_symmetry_space_group_name_H-M	'P1'
_symmetry_Int_Tables_number	1
_symmetry_cell_setting	triclinic
loop_
_symmetry_equiv_pos_as_xyz
  x,y,z
_cell_length_a	21.295419
_cell_length_b	21.295417
_cell_length_c	18.101390
_cell_angle_alpha	89.963986
_cell_angle_beta	89.980651
_cell_angle_gamma	90.044503
loop_
_atom_site_label
_atom_site_type_symbol
_atom_site_fract_x
_atom_site_fract_y
_atom_site_fract_z
Zn1	Zn	0.962327	-0.250337	-0.418718
Zn2	Zn	1.462327	0.249663	0.081282
Zn3	Zn	0.962240	-0.355617	-0.294869
Zn4	Zn	1.462240	0.144383	0.205131
Zn5	Zn	0.857060	-0.250393	-0.294890
Zn6	Zn	1.357060	0.249607	0.205110
Zn7	Zn	0.857021	-0.355599	-0.418670
Zn8	Zn	1.357021	0.144401	0.081330
O9	O	0.909662	-0.302986	-0.356787
O10	O	1.409662	0.197014	0.143213
O11	O	1.050405	-0.264286	-0.402300
O12	O	1.550405	0.235714	0.097700
O13	O	0.948268	-0.341689	-0.191239
O14	O	1.448268	0.158311	0.308761
O15	O	0.871076	-0.162296	-0.311345
O16	O	1.371076	0.337704	0.188655
O17	O	1.050341	-0.341635	-0.311310
O18	O	1.550341	0.158365	0.188690
O19	O	0.948415	-0.162255	-0.402321
O20	O	1.448415	0.337745	0.097679
O21	O	0.870992	-0.264382	-0.191255
O22	O	1.370992	0.235618	0.308745
O23	O	0.768965	-0.264364	-0.311298
O24	O	1.268965	0.235636	0.188702
O25	O	0.871010	-0.341605	-0.522309
O26	O	1.371010	0.158395	-0.022309
O27	O	0.768937	-0.341659	-0.402239
O28	O	1.268937	0.158341	0.097761
O29	O	0.948378	-0.264269	-0.522344
O30	O	1.448378	0.235731	-0.022344
O31	O	0.948230	-0.443704	-0.311263
O32	O	1.448230	0.056296	0.188737
O33	O	0.870926	-0.443691	-0.402218
O34	O	1.370926	0.056309	0.097782
C35	C	0.746110	-0.303016	-0.356766
C36	C	1.246110	0.196984	0.143234
C37	C	0.676142	-0.303045	-0.356775
C38	C	1.176142	0.196955	0.143225
C39	C	0.643331	-0.262835	-0.404227
C40	C	1.143331	0.237165	0.095773
C41	C	0.577589	-0.262818	-0.404230
C42	C	1.077589	0.237182	0.095770
C43	C	0.544660	-0.303022	-0.356788
C44	C	1.044660	0.196978	0.143212
C45	C	0.577479	-0.343235	-0.309327
C46	C	1.077479	0.156765	0.190673
C47	C	0.643220	-0.343246	-0.309320
C48	C	1.143220	0.156754	0.190680
N49	N	0.441385	-0.358101	-0.351001
N50	N	0.941385	0.141899	0.148999
N51	N	0.378934	-0.358088	-0.351012
N52	N	0.878934	0.141912	0.148988
C53	C	0.346585	-0.302989	-0.356804
C54	C	0.846585	0.197011	0.143196
N55	N	0.379047	-0.247902	-0.362600
N56	N	0.879047	0.252098	0.137400
N57	N	0.441504	-0.247916	-0.362593
N58	N	0.941504	0.252084	0.137407
C59	C	0.473374	-0.303014	-0.356790
C60	C	0.973374	0.196986	0.143210
C61	C	0.242488	-0.262758	-0.404262
C62	C	0.742488	0.237242	0.095738
C63	C	0.176745	-0.262740	-0.404260
C64	C	0.676745	0.237260	0.095740
C65	C	0.176636	-0.343162	-0.309361
C66	C	0.676636	0.156838	0.190639
C67	C	0.242378	-0.343175	-0.309359
C68	C	0.742378	0.156825	0.190641
C69	C	0.275301	-0.302973	-0.356814
C70	C	0.775301	0.197027	0.143186
C71	C	0.909582	-0.466538	-0.356749
C72	C	1.409582	0.033462	0.143251
C73	C	0.909605	-0.536506	-0.356758
C74	C	1.409605	-0.036506	0.143242
C75	C	0.949853	-0.569294	-0.404163
C76	C	1.449853	-0.069294	0.095837
C77	C	0.949875	-0.635037	-0.404181
C78	C	1.449875	-0.135037	0.095819
C79	C	0.909656	-0.667988	-0.356781
C80	C	1.409656	-0.167988	0.143219
C81	C	0.869401	-0.635192	-0.309373
C82	C	1.369401	-0.135192	0.190627
C83	C	0.869375	-0.569451	-0.309362
C84	C	1.369375	-0.069451	0.190638
N85	N	0.904902	-0.771257	-0.291969
N86	N	1.404902	-0.271257	0.208031
N87	N	0.904929	-0.833708	-0.291983
N88	N	1.404929	-0.333708	0.208017
C89	C	0.909730	-0.866063	-0.356815
C90	C	1.409730	-0.366063	0.143185
N91	N	0.914513	-0.833607	-0.421635
N92	N	1.414513	-0.333607	0.078365
N93	N	0.914488	-0.771150	-0.421621
N94	N	1.414488	-0.271150	0.078379
C95	C	0.909679	-0.739274	-0.356789
C96	C	1.409679	-0.239274	0.143211
C97	C	0.950003	-0.970137	-0.404243
C98	C	1.450003	-0.470137	0.095757
C99	C	0.950021	-1.035880	-0.404263
C100	C	1.450021	-0.535880	0.095737
C101	C	0.869550	-1.036035	-0.309448
C102	C	1.369550	-0.536035	0.190552
C103	C	0.869529	-0.970293	-0.309436
C104	C	1.369529	-0.470293	0.190564
C105	C	0.909759	-0.937347	-0.356832
C106	C	1.409759	-0.437347	0.143168
C107	C	1.073852	-0.302956	-0.356808
C108	C	1.573852	0.197044	0.143192
C109	C	1.143820	-0.302944	-0.356817
C110	C	1.643820	0.197056	0.143183
C111	C	0.909699	-0.302929	-0.549949
C112	C	1.409699	0.197071	-0.049949
C113	C	0.909715	-0.302904	-0.632263
C114	C	1.409715	0.197096	-0.132263
C115	C	0.909760	-0.138796	-0.356841
C116	C	1.409760	0.361204	0.143159
C117	C	0.909801	-0.068828	-0.356864
C118	C	1.409801	0.431172	0.143136
C119	C	0.909749	-0.302865	-0.931354
C120	C	1.409749	0.197135	-0.431354
C121	C	0.958587	-0.254378	-0.900051
C122	C	1.458587	0.245622	-0.400051
C123	C	0.958435	-0.254199	-0.814433
C124	C	1.458435	0.245801	-0.314433
C125	C	0.909733	-0.302884	-0.782971
C126	C	1.409733	0.197116	-0.282971
C127	C	0.843417	-0.284879	-0.814046
C128	C	1.343417	0.215121	-0.314046
C129	C	0.843710	-0.284515	-0.899692
C130	C	1.343710	0.215485	-0.399692
C131	C	0.926643	-0.369482	-0.899762
C132	C	1.426643	0.130518	-0.399762
C133	C	0.928098	-0.369142	-0.814112
C134	C	1.428098	0.130858	-0.314112
C135	C	0.909720	-0.302897	-0.699112
C136	C	1.409720	0.197103	-0.199112
C137	C	0.909758	-0.302851	-1.015214
C138	C	1.409758	0.197149	-0.515214
C139	C	0.909661	-0.302998	-0.164376
C140	C	1.409661	0.197002	0.335624
C141	C	0.909767	-0.302845	-0.082063
C142	C	1.409767	0.197155	0.417937
H143	H	0.550869	-0.230071	-0.442870
H144	H	1.050869	0.269929	0.057130
H145	H	0.828835	-0.236724	-0.792611
H146	H	1.328835	0.263276	-0.292611
H147	H	0.836600	-0.542755	-0.270758
H148	H	1.336600	-0.042755	0.229242
H149	H	0.550664	-0.375968	-0.270699
H150	H	1.050664	0.124032	0.229301
H151	H	0.269295	-0.230020	-0.442898
H152	H	0.769295	0.269980	0.057102
O153	O	0.830302	-0.667268	-0.263431
O154	O	1.330302	-0.167268	0.236569
C155	C	0.789629	-0.705305	-0.305558
C156	C	1.289629	-0.205305	0.194442
H157	H	0.811808	-0.715091	-0.361705
H158	H	1.311808	-0.215091	0.138295
H159	H	0.742965	-0.680018	-0.313642
H160	H	1.242965	-0.180018	0.186358
C161	C	0.751036	-0.755772	-0.195848
C162	C	1.251036	-0.255772	0.304152
C163	C	0.778279	-0.767796	-0.264807
C164	C	1.278279	-0.267796	0.235193
H165	H	0.744031	-0.794319	-0.170710
H166	H	1.244031	-0.294319	0.329290
H167	H	0.778435	-0.730145	-0.167465
H168	H	1.278435	-0.230145	0.332535
H169	H	0.712152	-0.734699	-0.202594
H170	H	1.212152	-0.234699	0.297406
H171	H	0.817165	-0.788862	-0.258059
H172	H	1.317165	-0.288862	0.241941
H173	H	0.750885	-0.793429	-0.293187
H174	H	1.250885	-0.293429	0.206813
H175	H	0.976901	-0.382720	-0.793801
H176	H	1.476901	0.117280	-0.293801
O177	O	0.675067	-0.382401	-0.263305
O178	O	1.175067	0.117599	0.236695
C179	C	0.658934	-0.445153	-0.279343
C180	C	1.158934	0.054847	0.220657
H181	H	0.640877	-0.448388	-0.338499
H182	H	1.140877	0.051612	0.161501
H183	H	0.620746	-0.461559	-0.239604
H184	H	1.120746	0.038441	0.260396
C185	C	0.739469	-0.483194	-0.197978
C186	C	1.239469	0.016806	0.302022
C187	C	0.717295	-0.487168	-0.270636
C188	C	1.217295	0.012832	0.229364
H189	H	0.775467	-0.509113	-0.192603
H190	H	1.275467	-0.009113	0.307397
H191	H	0.750337	-0.440918	-0.187170
H192	H	1.250337	0.059082	0.312830
H193	H	0.707640	-0.496865	-0.164870
H194	H	1.207640	0.003135	0.335130
H195	H	0.749121	-0.473490	-0.303741
H196	H	1.249121	0.026510	0.196259
H197	H	0.706434	-0.529444	-0.281449
H198	H	1.206434	-0.029444	0.218551
H199	H	1.007609	-0.265473	-0.793424
H200	H	1.507609	0.234527	-0.293424
H201	H	0.982759	-0.943312	-0.442839
H202	H	1.482759	-0.443312	0.057161
O203	O	0.945502	-0.195836	-0.925826
O204	O	1.445502	0.304164	-0.425826
C205	C	0.997304	-0.172967	-0.966258
C206	C	1.497304	0.327033	-0.466258
H207	H	1.026696	-0.214142	-0.986768
H208	H	1.526696	0.285858	-0.486768
H209	H	1.027266	-0.141736	-0.929197
H210	H	1.527266	0.358264	-0.429197
C211	C	0.937611	-0.083982	-1.007590
C212	C	1.437611	0.416018	-0.507590
C213	C	0.973708	-0.134554	-1.032787
C214	C	1.473708	0.365446	-0.532787
H215	H	0.923058	-0.060285	-1.048627
H216	H	1.423058	0.439715	-0.548627
H217	H	0.902712	-0.099388	-0.980348
H218	H	1.402712	0.400612	-0.480348
H219	H	0.962586	-0.057963	-0.976706
H220	H	1.462586	0.442037	-0.476706
H221	H	0.948732	-0.160576	-1.063663
H222	H	1.448732	0.339424	-0.563663
H223	H	1.008603	-0.119152	-1.060036
H224	H	1.508603	0.380848	-0.560036
H225	H	0.836758	-0.943595	-0.270831
H226	H	1.336758	-0.443595	0.229169
H227	H	0.806084	-0.318295	-0.920397
H228	H	1.306084	0.181705	-0.420397
O229	O	0.888828	-0.414598	-0.788496
O230	O	1.388828	0.085402	-0.288496
C231	C	0.923704	-0.459642	-0.748827
C232	C	1.423704	0.040358	-0.248827
H233	H	0.969296	-0.437560	-0.728447
H234	H	1.469296	0.062440	-0.228447
H235	H	0.934957	-0.501063	-0.786425
H236	H	1.434957	-0.001063	-0.286425
C237	C	0.829018	-0.509838	-0.707262
C238	C	1.329018	-0.009838	-0.207262
C239	C	0.885012	-0.482716	-0.682227
C240	C	1.385012	0.017284	-0.182227
H241	H	0.805150	-0.524075	-0.666182
H242	H	1.305150	-0.024075	-0.166182
H243	H	0.805521	-0.479494	-0.733990
H244	H	1.305521	0.020506	-0.233990
H245	H	0.838403	-0.544353	-0.738595
H246	H	1.338403	-0.044353	-0.238595
H247	H	0.875626	-0.448198	-0.650903
H248	H	1.375626	0.051802	-0.150903
H249	H	0.908506	-0.513056	-0.655492
H250	H	1.408506	-0.013056	-0.155492
H251	H	0.891075	-0.405610	-0.920010
H252	H	1.391075	0.094390	-0.420010
O253	O	0.945013	-0.195369	-0.789919
O254	O	1.445013	0.304631	-0.289919
C255	C	0.889854	-0.197015	-0.746856
C256	C	1.389854	0.302985	-0.246856
H257	H	0.882526	-0.246501	-0.724380
H258	H	1.382526	0.253499	-0.224380
H259	H	0.847937	-0.183207	-0.782481
H260	H	1.347937	0.316793	-0.282481
C261	C	0.905124	-0.089840	-0.709656
C262	C	1.405124	0.410160	-0.209656
C263	C	0.896126	-0.150618	-0.682046
C264	C	1.396126	0.349382	-0.182046
H265	H	0.908991	-0.061218	-0.669680
H266	H	1.408991	0.438782	-0.169680
H267	H	0.942285	-0.088729	-0.738671
H268	H	1.442285	0.411271	-0.238671
H269	H	0.870191	-0.078342	-0.739344
H270	H	1.370191	0.421658	-0.239344
H271	H	0.931062	-0.162118	-0.652367
H272	H	1.431062	0.337882	-0.152367
H273	H	0.858972	-0.151729	-0.653025
H274	H	1.358972	0.348271	-0.153025
H275	H	1.007923	-0.265513	-0.920652
H276	H	1.507923	0.234487	-0.420652
H277	H	0.982608	-0.542472	-0.442757
H278	H	1.482608	-0.042472	0.057243
H279	H	0.150031	-0.229993	-0.442900
H280	H	0.650031	0.270007	0.057100
O281	O	0.675213	-0.223719	-0.450339
O282	O	1.175213	0.276281	0.049661
C283	C	0.632150	-0.188234	-0.492234
C284	C	1.132150	0.311766	0.007766
H285	H	0.585278	-0.186020	-0.461911
H286	H	1.085278	0.313980	0.038089
H287	H	0.625160	-0.211341	-0.548431
H288	H	1.125160	0.288659	-0.048431
C289	C	0.715440	-0.123970	-0.540287
C290	C	1.215440	0.376030	-0.040287
C291	C	0.657872	-0.121246	-0.503042
C292	C	1.157872	0.378754	-0.003042
H293	H	0.731306	-0.082649	-0.546958
H294	H	1.231306	0.417351	-0.046958
H295	H	0.744453	-0.147878	-0.512064
H296	H	1.244453	0.352122	-0.012064
H297	H	0.709607	-0.143228	-0.587114
H298	H	1.209607	0.356772	-0.087114
H299	H	0.663707	-0.101996	-0.456212
H300	H	1.163707	0.398004	0.043788
H301	H	0.628860	-0.097333	-0.531257
H302	H	1.128860	0.402667	-0.031257
H303	H	0.149826	-0.375897	-0.270733
H304	H	0.649826	0.124103	0.229267
O305	O	0.274284	-0.382151	-0.263193
O306	O	0.774284	0.117849	0.236807
C307	C	0.312342	-0.346272	-0.215447
C308	C	0.812342	0.153728	0.284553
H309	H	0.292576	-0.296686	-0.210977
H310	H	0.792576	0.203314	0.289023
H311	H	0.362175	-0.344135	-0.238347
H312	H	0.862175	0.155865	0.261653
C313	C	0.337575	-0.437854	-0.143886
C314	C	0.837575	0.062146	0.356114
C315	C	0.313295	-0.376952	-0.138391
C316	C	0.813295	0.123048	0.361609
H317	H	0.338165	-0.456779	-0.096355
H318	H	0.838165	0.043221	0.403645
H319	H	0.311936	-0.462027	-0.176054
H320	H	0.811936	0.037973	0.323946
H321	H	0.379100	-0.436065	-0.162972
H322	H	0.879100	0.063935	0.337028
H323	H	0.271767	-0.378743	-0.119314
H324	H	0.771767	0.121257	0.380686
H325	H	0.338926	-0.352780	-0.106217
H326	H	0.838926	0.147220	0.393783
O327	O	0.983366	-0.388922	-0.925577
O328	O	1.483366	0.111078	-0.425577
C329	C	1.008654	-0.342587	-0.972664
C330	C	1.508654	0.157413	-0.472664
H331	H	0.986916	-0.295109	-0.958900
H332	H	1.486916	0.204891	-0.458900
H333	H	0.997806	-0.355108	-1.032542
H334	H	1.497806	0.144892	-0.532542
C335	C	1.106993	-0.397506	-0.978714
C336	C	1.606993	0.102494	-0.478714
C337	C	1.080298	-0.339193	-0.961804
C338	C	1.580298	0.160807	-0.461804
H339	H	1.151187	-0.395414	-0.972019
H340	H	1.651187	0.104586	-0.472019
H341	H	1.089955	-0.428725	-0.946993
H342	H	1.589955	0.071275	-0.446993
H343	H	1.097947	-0.407935	-1.028612
H344	H	1.597947	0.092065	-0.528612
H345	H	1.089338	-0.328769	-0.911905
H346	H	1.589338	0.171231	-0.411905
H347	H	1.097339	-0.307973	-0.993517
H348	H	1.597339	0.192027	-0.493517
H349	H	0.982644	-0.661738	-0.442792
H350	H	1.482644	-0.161738	0.057208
H351	H	0.829388	-0.235819	-0.919686
H352	H	1.329388	0.264181	-0.419686
O353	O	0.989181	-1.067635	-0.450336
O354	O	1.489181	-0.567635	0.049664
C355	C	1.024671	-1.024456	-0.492174
C356	C	1.524671	-0.524456	0.007826
H357	H	1.026844	-0.977611	-0.461834
H358	H	1.526844	-0.477611	0.038166
H359	H	1.001597	-1.017453	-0.548397
H360	H	1.501597	-0.517453	-0.048397
C361	C	1.089005	-1.107565	-0.540177
C362	C	1.589005	-0.607565	-0.040177
C363	C	1.091678	-1.050031	-0.502910
C364	C	1.591678	-0.550031	-0.002910
H365	H	1.130337	-1.123341	-0.546803
H366	H	1.630337	-0.623341	-0.046803
H367	H	1.065093	-1.136656	-0.511993
H368	H	1.565093	-0.636656	-0.011993
H369	H	1.069774	-1.101721	-0.587026
H370	H	1.569774	-0.601721	-0.087026
H371	H	1.110902	-1.055876	-0.456059
H372	H	1.610902	-0.555876	0.043941
H373	H	1.115595	-1.020941	-0.531087
H374	H	1.615595	-0.520941	-0.031087
O375	O	0.830446	-1.068104	-0.263509
O376	O	1.330446	-0.568104	0.236491
C377	C	0.789771	-1.106134	-0.305640
C378	C	1.289771	-0.606134	0.194360
H379	H	0.811952	-1.115921	-0.361787
H380	H	1.311952	-0.615921	0.138213
H381	H	0.743111	-1.080842	-0.313726
H382	H	1.243111	-0.580842	0.186274
C383	C	0.751166	-1.156600	-0.195935
C384	C	1.251166	-0.656600	0.304065
C385	C	0.778411	-1.168625	-0.264893
C386	C	1.278411	-0.668625	0.235107
H387	H	0.744155	-1.195147	-0.170799
H388	H	1.244155	-0.695147	0.329201
H389	H	0.778567	-1.130977	-0.167550
H390	H	1.278567	-0.630977	0.332450
H391	H	0.712285	-1.135522	-0.202683
H392	H	1.212285	-0.635522	0.297317
H393	H	0.817294	-1.189696	-0.258143
H394	H	1.317294	-0.689696	0.241857
H395	H	0.751015	-1.194254	-0.293276
H396	H	1.251015	-0.694254	0.206724
H397	H	0.806041	-0.319107	-0.793665
H398	H	1.306041	0.180893	-0.293665
