data_functionalizedCrystal
_audit_creation_method	'MofGen! by Chris Wilmer'
_symmetry_space_group_name_H-M	'P1'
_symmetry_Int_Tables_number	1
_symmetry_cell_setting	triclinic
loop_
_symmetry_equiv_pos_as_xyz
  x,y,z
_cell_length_a	17.038272
_cell_length_b	13.101039
_cell_length_c	14.044220
_cell_angle_alpha	86.332523
_cell_angle_beta	87.849783
_cell_angle_gamma	86.404528
loop_
_atom_site_label
_atom_site_type_symbol
_atom_site_fract_x
_atom_site_fract_y
_atom_site_fract_z
O1	O	1.055801	-0.085089	-0.202095
O2	O	1.305801	0.164911	0.047905
O3	O	1.555801	0.414911	0.297905
O4	O	1.805801	0.664911	0.547905
O5	O	0.827941	-0.085119	-0.198806
O6	O	1.077941	0.164881	0.051194
O7	O	1.327941	0.414881	0.301194
O8	O	1.577941	0.664881	0.551194
O9	O	0.938450	-0.085095	-0.062191
O10	O	1.188450	0.164905	0.187809
O11	O	1.438450	0.414905	0.437809
O12	O	1.688450	0.664905	0.687809
O13	O	0.945292	-0.085114	-0.338710
O14	O	1.195292	0.164886	-0.088710
O15	O	1.445292	0.414886	0.161290
O16	O	1.695292	0.664886	0.411290
O17	O	0.930523	0.085333	-0.072010
O18	O	1.180523	0.335333	0.177990
O19	O	1.430523	0.585333	0.427990
O20	O	1.680523	0.835333	0.677990
O21	O	0.820014	0.085309	-0.208625
O22	O	1.070014	0.335309	0.041375
O23	O	1.320014	0.585309	0.291375
O24	O	1.570014	0.835309	0.541375
O25	O	1.047873	0.085339	-0.211914
O26	O	1.297873	0.335339	0.038086
O27	O	1.547873	0.585339	0.288086
O28	O	1.797873	0.835339	0.538086
Zn29	Zn	0.932685	0.112383	-0.211829
Zn30	Zn	1.182685	0.362383	0.038171
Zn31	Zn	1.432685	0.612383	0.288171
Zn32	Zn	1.682685	0.862383	0.538171
Zn33	Zn	0.943130	-0.112163	-0.198891
Zn34	Zn	1.193130	0.137837	0.051109
Zn35	Zn	1.443130	0.387837	0.301109
Zn36	Zn	1.693130	0.637837	0.551109
O37	O	0.937364	0.085314	-0.348530
O38	O	1.187364	0.335314	-0.098530
O39	O	1.437364	0.585314	0.151470
O40	O	1.687364	0.835314	0.401470
C41	C	0.794640	0.000091	-0.200726
C42	C	1.044640	0.250091	0.049274
C43	C	1.294640	0.500091	0.299274
C44	C	1.544640	0.750091	0.549274
C45	C	0.707224	0.000080	-0.191806
C46	C	0.957224	0.250080	0.058194
C47	C	1.207224	0.500080	0.308194
C48	C	1.457224	0.750080	0.558194
N49	N	0.925562	0.265630	-0.220658
N50	N	1.175562	0.515630	0.029342
N51	N	1.425562	0.765630	0.279342
N52	N	1.675562	1.015630	0.529342
N53	N	0.950258	-0.265410	-0.190055
N54	N	1.200258	-0.015410	0.059945
N55	N	1.450258	0.234590	0.309945
N56	N	1.700258	0.484590	0.559945
C57	C	0.662839	0.000075	-0.273694
C58	C	0.912839	0.250075	-0.023694
C59	C	1.162839	0.500075	0.226306
C60	C	1.412839	0.750075	0.476306
C61	C	0.580701	0.000090	-0.265309
C62	C	0.830701	0.250090	-0.015309
C63	C	1.080701	0.500090	0.234691
C64	C	1.330701	0.750090	0.484691
C65	C	0.542950	0.000102	-0.175034
C66	C	0.792950	0.250102	0.074966
C67	C	1.042950	0.500102	0.324966
C68	C	1.292950	0.750102	0.574966
C69	C	0.587341	0.000110	-0.093140
C70	C	0.837341	0.250110	0.156860
C71	C	1.087341	0.500110	0.406860
C72	C	1.337341	0.750110	0.656860
C73	C	0.669477	0.000102	-0.101527
C74	C	0.919477	0.250102	0.148473
C75	C	1.169477	0.500102	0.398473
C76	C	1.419477	0.750102	0.648473
C77	C	0.295118	0.000131	-0.145406
C78	C	0.545118	0.250131	0.104594
C79	C	0.795118	0.500131	0.354594
C80	C	1.045118	0.750131	0.604594
C81	C	0.212976	0.000136	-0.137025
C82	C	0.462976	0.250136	0.112975
C83	C	0.712976	0.500136	0.362975
C84	C	0.962976	0.750136	0.612975
C85	C	0.206341	0.000117	-0.309195
C86	C	0.456341	0.250117	-0.059195
C87	C	0.706341	0.500117	0.190805
C88	C	0.956341	0.750117	0.440805
C89	C	0.288480	0.000104	-0.317573
C90	C	0.538480	0.250104	-0.067573
C91	C	0.788480	0.500104	0.182427
C92	C	1.038480	0.750104	0.432427
C93	C	0.332863	0.000117	-0.235680
C94	C	0.582863	0.250117	0.014320
C95	C	0.832863	0.500117	0.264320
C96	C	1.082863	0.750117	0.514320
C97	C	0.458992	0.000114	-0.166461
C98	C	0.708992	0.250114	0.083539
C99	C	0.958992	0.500114	0.333539
C100	C	1.208992	0.750114	0.583539
C101	C	0.416819	0.000113	-0.244254
C102	C	0.666819	0.250113	0.005746
C103	C	0.916819	0.500113	0.255746
C104	C	1.166819	0.750113	0.505746
C105	C	1.081174	0.000126	-0.209994
C106	C	1.331174	0.250126	0.040006
C107	C	1.581174	0.500126	0.290006
C108	C	1.831174	0.750126	0.540006
C109	C	1.168591	0.000131	-0.218913
C110	C	1.418591	0.250131	0.031087
C111	C	1.668591	0.500131	0.281087
C112	C	1.918591	0.750131	0.531087
C113	C	0.931492	0.000119	-0.031544
C114	C	1.181492	0.250119	0.218456
C115	C	1.431492	0.500119	0.468456
C116	C	1.681492	0.750119	0.718456
C117	C	0.922561	0.000119	0.074402
C118	C	1.172561	0.250119	0.324402
C119	C	1.422561	0.500119	0.574402
C120	C	1.672561	0.750119	0.824402
C121	C	0.915872	0.474670	-0.232680
C122	C	1.165872	0.724670	0.017320
C123	C	1.415872	0.974670	0.267320
C124	C	1.665872	1.224670	0.517320
C125	C	0.959946	0.525556	-0.178037
C126	C	1.209946	0.775556	0.071963
C127	C	1.459946	1.025556	0.321963
C128	C	1.709946	1.275556	0.571963
C129	C	0.954554	0.641873	-0.184725
C130	C	1.204554	0.891873	0.065275
C131	C	1.454554	1.141873	0.315275
C132	C	1.704554	1.391873	0.565275
C133	C	0.921263	0.358342	-0.225992
C134	C	1.171263	0.608342	0.024008
C135	C	1.421263	0.858342	0.274008
C136	C	1.671263	1.108342	0.524008
C137	C	0.944322	0.000098	-0.379176
C138	C	1.194322	0.250098	-0.129176
C139	C	1.444322	0.500098	0.120824
C140	C	1.694322	0.750098	0.370824
C141	C	0.953254	0.000091	-0.485121
C142	C	1.203254	0.250091	-0.235121
C143	C	1.453254	0.500091	0.014879
C144	C	1.703254	0.750091	0.264879
C145	C	0.906233	0.000103	0.268381
C146	C	1.156233	0.250103	0.518381
C147	C	1.406233	0.500103	0.768381
C148	C	1.656233	0.750103	1.018381
C149	C	0.969578	0.000108	0.320905
C150	C	1.219578	0.250108	0.570905
C151	C	1.469578	0.500108	0.820905
C152	C	1.719578	0.750108	1.070905
C153	C	0.960493	0.000098	0.428842
C154	C	1.210493	0.250098	0.678842
C155	C	1.460493	0.500098	0.928842
C156	C	1.710493	0.750098	1.178842
C157	C	0.915317	0.000112	0.160434
C158	C	1.165317	0.250112	0.410434
C159	C	1.415317	0.500112	0.660434
C160	C	1.665317	0.750112	0.910434
H161	H	0.693569	0.000064	-0.347205
H162	H	0.943569	0.250064	-0.097205
H163	H	1.193569	0.500064	0.152795
H164	H	1.443569	0.750064	0.402795
F165	F	1.014815	0.468319	-0.110628
F166	F	1.264815	0.718319	0.139372
F167	F	1.514815	0.968319	0.389372
F168	F	1.764815	1.218319	0.639372
H169	H	0.874092	0.518458	-0.284482
H170	H	1.124092	0.768458	-0.034482
H171	H	1.374092	1.018458	0.215518
H172	H	1.624092	1.268458	0.465518
F173	F	1.049381	0.000126	0.273729
F174	F	1.299381	0.250126	0.523729
F175	F	1.549381	0.500126	0.773729
F176	F	1.799381	0.750126	1.023729
H177	H	0.845184	0.000092	0.304474
H178	H	1.095184	0.250092	0.554474
H179	H	1.345184	0.500092	0.804474
H180	H	1.595184	0.750092	1.054474
F181	F	0.716715	0.000111	-0.014370
F182	F	0.966715	0.250111	0.235630
F183	F	1.216715	0.500111	0.485630
F184	F	1.466715	0.750111	0.735630
F185	F	0.159100	0.000105	-0.396346
F186	F	0.409100	0.250105	-0.146346
F187	F	0.659100	0.500105	0.103654
F188	F	0.909100	0.750105	0.353654
H189	H	0.544566	0.000084	-0.331991
H190	H	0.794566	0.250084	-0.081991
H191	H	1.044566	0.500084	0.168009
H192	H	1.294566	0.750084	0.418009
H193	H	0.319211	0.000082	-0.391084
H194	H	0.569211	0.250082	-0.141084
H195	H	0.819211	0.500082	0.108916
H196	H	1.069211	0.750082	0.358916
H197	H	0.331245	0.000143	-0.078722
H198	H	0.581245	0.250143	0.171278
H199	H	0.831245	0.500143	0.421278
H200	H	1.081245	0.750143	0.671278
F201	F	0.172800	0.000167	-0.040940
F202	F	0.422800	0.250167	0.209060
F203	F	0.672800	0.500167	0.459060
F204	F	0.922800	0.750167	0.709060
H205	H	0.447559	0.000108	-0.317756
H206	H	0.697559	0.250108	-0.067756
H207	H	0.947559	0.500108	0.182244
H208	H	1.197559	0.750108	0.432244
F209	F	0.547162	0.000130	0.002937
F210	F	0.797162	0.250130	0.252937
F211	F	1.047162	0.500130	0.502937
F212	F	1.297162	0.750130	0.752937
H213	H	0.428245	0.000153	-0.092960
H214	H	0.678245	0.250153	0.157040
H215	H	0.928245	0.500153	0.407040
H216	H	1.178245	0.750153	0.657040
