data_functionalizedCrystal
_audit_creation_method	'MofGen! by Chris Wilmer'
_symmetry_space_group_name_H-M	'P1'
_symmetry_Int_Tables_number	1
_symmetry_cell_setting	triclinic
loop_
_symmetry_equiv_pos_as_xyz
  x,y,z
_cell_length_a	12.837943
_cell_length_b	14.472311
_cell_length_c	12.811442
_cell_angle_alpha	95.439956
_cell_angle_beta	89.413727
_cell_angle_gamma	90.002445
loop_
_atom_site_label
_atom_site_type_symbol
_atom_site_fract_x
_atom_site_fract_y
_atom_site_fract_z
O1	O	1.376639	0.099694	0.272987
O2	O	1.074775	0.098570	0.259502
O3	O	1.233296	0.086389	0.114210
O4	O	1.218118	0.111875	0.418278
O5	O	1.233285	-0.067295	0.114189
O6	O	1.074764	-0.055114	0.259481
O7	O	1.376628	-0.053990	0.272965
Cu8	Cu	1.225695	-0.068584	0.266221
Cu9	Cu	1.225708	0.113165	0.266246
O10	O	1.218107	-0.041809	0.418257
C11	C	1.036129	0.021347	0.254936
C12	C	0.920993	0.020211	0.241350
C13	C	0.680744	0.033887	0.404681
C14	C	0.572563	0.032819	0.391920
C15	C	0.596447	0.017000	0.203069
C16	C	0.704628	0.018068	0.215829
C17	C	0.746773	0.026513	0.316639
C18	C	0.854956	0.027588	0.329398
C19	C	0.878838	0.011762	0.140548
C20	C	0.770656	0.010695	0.127787
N21	N	1.225693	-0.196417	0.266203
C22	C	1.225709	-0.570505	0.266239
C23	C	1.310808	-0.537802	0.188812
C24	C	1.310584	-0.430742	0.188473
C25	C	1.225702	-0.384915	0.266221
C26	C	1.117399	-0.426717	0.231470
C27	C	1.117902	-0.533885	0.230913
C28	C	1.247939	-0.521595	0.378573
C29	C	1.250392	-0.414508	0.378081
C30	C	1.225691	-0.280028	0.266213
C31	C	1.225712	-0.675393	0.266244
C32	C	1.415274	0.023235	0.277531
C33	C	1.530410	0.024378	0.291118
C34	C	1.232438	0.006265	0.075010
C35	C	1.229886	-0.003517	-0.041764
N36	N	1.225718	0.240996	0.266256
C37	C	1.226287	-0.101074	-0.206366
C38	C	1.228681	-0.091886	-0.096646
C39	C	1.228693	0.075670	-0.096608
C40	C	1.226298	0.066481	-0.206328
C41	C	1.225097	-0.021894	-0.261203
C42	C	1.222710	-0.031081	-0.370925
C43	C	1.222714	0.136473	-0.370884
C44	C	1.225109	0.145662	-0.261165
C45	C	1.218965	0.038318	0.457457
C46	C	1.221517	0.048105	0.574231
H47	H	0.932610	0.005764	0.068857
N48	N	1.221535	0.217366	-0.426893
N49	N	1.293232	0.230726	-0.490465
H50	H	1.292410	0.287857	-0.530019
H51	H	0.736327	0.003808	0.045711
N52	N	1.411561	-0.395452	0.216499
N53	N	1.489323	-0.421050	0.161740
H54	H	1.560642	-0.396143	0.181558
N55	N	1.093439	-0.573899	0.127723
N56	N	1.157080	-0.626922	0.077752
H57	H	1.139805	-0.655180	0.004871
N58	N	1.229931	0.165942	-0.040561
N59	N	1.228876	0.236637	-0.089532
H60	H	1.229754	0.300393	-0.049950
H61	H	1.391568	-0.561706	0.210902
N62	N	1.226330	0.235938	-0.205126
N63	N	1.153058	0.291210	-0.215004
H64	H	1.153923	0.354971	-0.175431
N65	N	0.723784	0.042526	0.507656
N66	N	0.664817	0.049117	0.586258
H67	H	0.695211	0.055219	0.658987
N68	N	0.897992	0.036220	0.432375
N69	N	0.839021	0.042801	0.510974
H70	H	0.869411	0.048896	0.583705
N71	N	1.293202	-0.580262	0.085113
N72	N	1.361637	-0.631008	0.039381
H73	H	1.349199	-0.660997	-0.033857
H74	H	0.518806	0.038821	0.463614
N75	N	1.225053	-0.191334	-0.262442
N76	N	1.222913	-0.199526	-0.360404
H77	H	1.222041	-0.263273	-0.400009
N78	N	0.553369	0.008365	0.100111
N79	N	0.456777	0.007407	0.088737
H80	H	0.426351	0.001309	0.016022
H81	H	1.097412	-0.406719	0.150083
N82	N	1.221467	-0.121356	-0.426965
N83	N	1.148710	-0.176217	-0.412348
H84	H	1.147826	-0.239977	-0.451923
H85	H	1.330067	-0.386902	0.404199
H86	H	1.296331	-0.412093	0.105333
H87	H	1.052650	-0.555313	0.284600
N88	N	1.229911	-0.172757	-0.040615
N89	N	1.232053	-0.164544	0.057347
H90	H	1.232921	-0.221662	0.096922
H91	H	1.052527	-0.396692	0.285908
N92	N	1.344924	-0.552260	0.417106
N93	N	1.398842	-0.610542	0.362235
H94	H	1.467341	-0.632203	0.389439
H95	H	1.185889	-0.542106	0.436320
N96	N	1.177718	-0.374502	0.454790
N97	N	1.106221	-0.323304	0.428146
H98	H	1.054886	-0.295049	0.482319
