data_functionalizedCrystal
_audit_creation_method	'MofGen! by Chris Wilmer'
_symmetry_space_group_name_H-M	'P1'
_symmetry_Int_Tables_number	1
_symmetry_cell_setting	triclinic
loop_
_symmetry_equiv_pos_as_xyz
  x,y,z
_cell_length_a	11.026607
_cell_length_b	15.538191
_cell_length_c	9.482900
_cell_angle_alpha	95.622696
_cell_angle_beta	78.636152
_cell_angle_gamma	77.929055
loop_
_atom_site_label
_atom_site_type_symbol
_atom_site_fract_x
_atom_site_fract_y
_atom_site_fract_z
O1	O	1.472126	0.356312	-0.120861
O2	O	1.137231	0.314516	-0.120867
O3	O	1.369870	0.209339	-0.120870
O4	O	1.239487	0.461490	-0.120859
O5	O	1.322567	0.230813	0.120923
O6	O	1.089928	0.335990	0.120926
O7	O	1.424823	0.377786	0.120932
Cu8	Cu	1.253057	0.358849	0.143006
Cu9	Cu	1.308998	0.333454	-0.142942
O10	O	1.192184	0.482963	0.120934
C11	C	1.071765	0.317542	0.000028
C12	C	0.947176	0.294556	0.000025
C13	C	1.359861	0.187293	0.000022
C14	C	1.400496	0.089608	0.000008
C15	C	0.845415	0.358024	0.000027
C16	C	0.716645	0.334268	0.000024
C17	C	0.996815	-0.266633	0.000032
C18	C	1.035024	-0.358419	0.000036
C19	C	1.249941	-0.344417	0.000039
C20	C	1.211752	-0.252629	0.000028
C21	C	1.085187	-0.213744	0.000026
C22	C	1.300124	-0.199740	0.000022
C23	C	1.261936	-0.107958	0.000019
C24	C	1.135376	-0.069066	0.000021
C25	C	1.046999	-0.121963	0.000023
C26	C	1.426686	-0.238625	0.000035
C27	C	1.515058	-0.185736	0.000029
C28	C	1.476872	-0.093954	0.000015
C29	C	1.350312	-0.055062	0.000017
C30	C	1.565249	-0.041058	0.000013
C31	C	1.527061	0.050724	0.000010
C32	C	1.312124	0.036719	0.000014
C33	C	1.490290	0.374760	0.000033
C34	C	1.614881	0.397745	0.000026
C35	C	1.202194	0.505009	0.000039
C36	C	1.161561	0.602693	0.000043
N37	N	1.213720	0.376711	0.344127
N38	N	1.348347	0.315586	-0.344063
C39	C	1.297389	0.338716	0.416325
C40	C	1.264665	0.353586	0.583743
H41	H	0.853624	0.429947	0.000039
Br42	Br	0.915073	-0.430196	0.000060
Br43	Br	0.702980	0.214383	0.000035
Br44	Br	1.456977	0.265880	0.312783
H45	H	0.623080	0.469674	0.000039
Br46	Br	1.478510	-0.363186	0.000055
H47	H	0.943940	-0.090302	0.000010
H48	H	1.618106	-0.217408	0.000036
H49	H	1.444210	0.272042	0.593812
Br50	Br	1.737001	-0.093838	0.000052
H51	H	1.599022	0.093788	0.000007
Br52	Br	0.933504	0.174676	0.000036
Br53	Br	1.053936	0.449270	0.447670
H54	H	1.209065	0.068380	0.000002
Br55	Br	1.083540	0.055497	0.000036
H56	H	1.168797	0.397122	0.645869
H57	H	0.893756	-0.234972	0.000020
H58	H	1.352989	-0.376090	0.000047
