data_functionalizedCrystal
_audit_creation_method	'MofGen! by Chris Wilmer'
_symmetry_space_group_name_H-M	'P1'
_symmetry_Int_Tables_number	1
_symmetry_cell_setting	triclinic
loop_
_symmetry_equiv_pos_as_xyz
  x,y,z
_cell_length_a	18.215407
_cell_length_b	18.101395
_cell_length_c	18.101390
_cell_angle_alpha	89.968753
_cell_angle_beta	89.982404
_cell_angle_gamma	90.031552
loop_
_atom_site_label
_atom_site_type_symbol
_atom_site_fract_x
_atom_site_fract_y
_atom_site_fract_z
Zn1	Zn	1.125024	-0.294793	-0.418745
Zn2	Zn	1.625024	0.205207	0.081255
Zn3	Zn	1.124924	-0.418650	-0.294906
Zn4	Zn	1.624924	0.081350	0.205094
Zn5	Zn	1.001961	-0.294828	-0.294917
Zn6	Zn	1.501961	0.205172	0.205083
Zn7	Zn	1.001909	-0.418598	-0.418706
Zn8	Zn	1.501909	0.081402	0.081294
O9	O	1.063455	-0.356717	-0.356818
O10	O	1.563455	0.143283	0.143182
O11	O	1.227995	-0.311230	-0.402329
O12	O	1.727995	0.188770	0.097671
O13	O	1.108592	-0.402261	-0.191275
O14	O	1.608592	0.097739	0.308725
O15	O	1.018350	-0.191190	-0.311363
O16	O	1.518350	0.308810	0.188637
O17	O	1.227921	-0.402227	-0.311345
O18	O	1.727921	0.097773	0.188655
O19	O	1.108763	-0.191165	-0.402339
O20	O	1.608763	0.308835	0.097661
O21	O	1.018252	-0.311289	-0.191283
O22	O	1.518252	0.188711	0.308717
O23	O	0.898970	-0.311239	-0.311326
O24	O	1.398970	0.188761	0.188674
O25	O	1.018261	-0.402139	-0.522344
O26	O	1.518261	0.097861	-0.022344
O27	O	0.898932	-0.402173	-0.402274
O28	O	1.398932	0.097827	0.097726
O29	O	1.108713	-0.311180	-0.522372
O30	O	1.608713	0.188820	-0.022372
O31	O	1.108542	-0.522276	-0.311308
O32	O	1.608542	-0.022276	0.188692
O33	O	1.018163	-0.522238	-0.402263
O34	O	1.518163	-0.022238	0.097737
C35	C	0.872248	-0.356705	-0.356797
C36	C	1.372248	0.143295	0.143203
C37	C	0.790449	-0.356717	-0.356806
C38	C	1.290449	0.143283	0.143194
C39	C	1.063356	-0.549128	-0.356797
C40	C	1.563356	-0.049128	0.143203
C41	C	1.063381	-0.631442	-0.356812
C42	C	1.563381	-0.131442	0.143188
C43	C	0.602255	-0.404141	-0.404103
C44	C	1.102255	0.095859	0.095897
C45	C	0.525396	-0.404143	-0.404112
C46	C	1.025396	0.095857	0.095888
C47	C	0.525406	-0.309307	-0.309551
C48	C	1.025406	0.190693	0.190449
C49	C	0.602264	-0.309302	-0.309546
C50	C	1.102264	0.190698	0.190454
C51	C	0.640686	-0.356723	-0.356821
C52	C	1.140686	0.143277	0.143179
C53	C	0.486970	-0.356731	-0.356835
C54	C	0.986970	0.143269	0.143165
C55	C	0.403636	-0.356733	-0.356844
C56	C	0.903636	0.143267	0.143156
C57	C	0.724025	-0.356720	-0.356812
C58	C	1.224025	0.143280	0.143188
C59	C	1.063543	-0.930533	-0.356852
C60	C	1.563543	-0.430533	0.143148
C61	C	1.006811	-0.899215	-0.414221
C62	C	1.506811	-0.399215	0.085779
C63	C	1.006541	-0.813597	-0.414041
C64	C	1.506541	-0.313597	0.085959
C65	C	1.063463	-0.782150	-0.356833
C66	C	1.563463	-0.282150	0.143167
C67	C	1.042468	-0.813307	-0.278783
C68	C	1.542468	-0.313307	0.221217
C69	C	1.042102	-0.898952	-0.279127
C70	C	1.542102	-0.398952	0.220873
C71	C	1.141394	-0.898875	-0.376846
C72	C	1.641394	-0.398875	0.123154
C73	C	1.140936	-0.813223	-0.378558
C74	C	1.640936	-0.313223	0.121442
C75	C	1.063419	-0.698291	-0.356817
C76	C	1.563419	-0.198291	0.143183
C77	C	1.063585	-1.014392	-0.356862
C78	C	1.563585	-0.514392	0.143138
C79	C	1.255407	-0.356731	-0.356840
C80	C	1.755407	0.143269	0.143160
C81	C	1.337206	-0.356736	-0.356850
C82	C	1.837206	0.143264	0.143150
C83	C	1.063492	-0.356650	-0.549980
C84	C	1.563492	0.143350	-0.049980
C85	C	1.063508	-0.356621	-0.632295
C86	C	1.563508	0.143379	-0.132295
C87	C	1.063573	-0.163555	-0.356857
C88	C	1.563573	0.336445	0.143143
C89	C	1.063624	-0.081241	-0.356873
C90	C	1.563624	0.418759	0.143127
C91	C	1.063534	-0.356598	-0.783003
C92	C	1.563534	0.143402	-0.283003
C93	C	1.120446	-0.299364	-0.814375
C94	C	1.620446	0.200636	-0.314375
C95	C	1.120684	-0.299519	-0.899993
C96	C	1.620684	0.200481	-0.399993
C97	C	1.063560	-0.356574	-0.931386
C98	C	1.563560	0.143426	-0.431386
C99	C	1.084305	-0.434685	-0.900277
C100	C	1.584305	0.065315	-0.400277
C101	C	1.084703	-0.434368	-0.814633
C102	C	1.584703	0.065632	-0.314633
C103	C	0.985739	-0.336399	-0.814560
C104	C	1.485739	0.163601	-0.314560
C105	C	0.986171	-0.334663	-0.900211
C106	C	1.486171	0.165337	-0.400211
C107	C	1.063573	-0.356565	-1.015245
C108	C	1.563573	0.143435	-0.515245
C109	C	1.063522	-0.356612	-0.699144
C110	C	1.563522	0.143388	-0.199144
C111	C	1.063460	-0.356731	-0.164408
C112	C	1.563460	0.143269	0.335592
C113	C	1.063586	-0.356551	-0.082094
C114	C	1.563586	0.143449	0.417906
H115	H	0.633536	-0.442752	-0.442599
H116	H	1.133536	0.057248	0.057401
H117	H	0.633555	-0.270684	-0.271043
H118	H	1.133555	0.229316	0.228957
H119	H	1.044130	-0.478488	-0.920608
H120	H	1.544130	0.021512	-0.420608
H121	H	1.019816	-0.919758	-0.472281
H122	H	1.519816	-0.419758	0.027719
H123	H	1.160535	-0.920419	-0.432790
H124	H	1.660535	-0.420419	0.067210
H125	H	1.082489	-0.792940	-0.234874
H126	H	1.582489	-0.292940	0.265126
H127	H	0.986162	-0.791924	-0.261543
H128	H	1.486162	-0.291924	0.238457
H129	H	1.019676	-0.792529	-0.471914
H130	H	1.519676	-0.292529	0.028086
H131	H	0.494109	-0.442754	-0.442615
H132	H	0.994109	0.057246	0.057385
H133	H	0.949457	-0.920802	-0.401143
H134	H	1.449457	-0.420802	0.098857
H135	H	0.494114	-0.270700	-0.271060
H136	H	0.994114	0.229300	0.228940
H137	H	0.985194	-0.918997	-0.262190
H138	H	1.485194	-0.418997	0.237810
H139	H	0.948836	-0.793175	-0.400797
H140	H	1.448836	-0.293175	0.099203
H141	H	1.156768	-0.792856	-0.435998
H142	H	1.656768	-0.292856	0.064002
H143	H	1.081631	-0.919672	-0.234925
H144	H	1.581631	-0.419672	0.265075
H145	H	1.185440	-0.791813	-0.339819
H146	H	1.685440	-0.291813	0.160181
H147	H	1.183661	-0.919127	-0.335062
H148	H	1.683661	-0.419127	0.164938
H149	H	1.107723	-0.241610	-0.921028
H150	H	1.607723	0.258390	-0.421028
H151	H	1.107641	-0.241276	-0.793801
H152	H	1.607641	0.258724	-0.293801
H153	H	1.177764	-0.312592	-0.792861
H154	H	1.677764	0.187408	-0.292861
H155	H	1.178337	-0.312903	-0.920490
H156	H	1.678337	0.187097	-0.420490
H157	H	1.141562	-0.451454	-0.794663
H158	H	1.641562	0.048546	-0.294663
H159	H	1.045022	-0.478464	-0.793877
H160	H	1.545022	0.021536	-0.293877
H161	H	0.970522	-0.277179	-0.920546
H162	H	1.470522	0.222821	-0.420546
H163	H	1.140536	-0.452070	-0.921751
H164	H	1.640536	0.047930	-0.421751
H165	H	0.966786	-0.280419	-0.792965
H166	H	1.466786	0.219581	-0.292965
H167	H	0.941530	-0.373283	-0.921578
H168	H	1.441530	0.126717	-0.421578
H169	H	0.943340	-0.378082	-0.794268
H170	H	1.443340	0.121918	-0.294268
