data_functionalizedCrystal
_audit_creation_method	'MofGen! by Chris Wilmer'
_symmetry_space_group_name_H-M	'P1'
_symmetry_Int_Tables_number	1
_symmetry_cell_setting	triclinic
loop_
_symmetry_equiv_pos_as_xyz
  x,y,z
_cell_length_a	15.944551
_cell_length_b	10.654550
_cell_length_c	9.130313
_cell_angle_alpha	90.000276
_cell_angle_beta	89.994529
_cell_angle_gamma	96.008166
loop_
_atom_site_label
_atom_site_type_symbol
_atom_site_fract_x
_atom_site_fract_y
_atom_site_fract_z
O1	O	0.117977	-1.666313	-0.121694
O2	O	0.451310	-1.332980	0.211640
O3	O	0.784643	-0.999646	0.544973
O4	O	0.129217	-1.300689	-0.121721
O5	O	0.462550	-0.967356	0.211613
O6	O	0.795883	-0.634022	0.544946
O7	O	0.001379	-1.493485	-0.121693
O8	O	0.334713	-1.160152	0.211640
O9	O	0.668046	-0.826819	0.544973
O10	O	0.245814	-1.473517	-0.121721
O11	O	0.579147	-1.140183	0.211612
O12	O	0.912480	-0.806850	0.544946
O13	O	0.001376	-1.493472	0.121906
O14	O	0.334709	-1.160139	0.455239
O15	O	0.668042	-0.826806	0.788572
O16	O	0.129213	-1.300676	0.121878
O17	O	0.462546	-0.967343	0.455211
O18	O	0.795879	-0.634009	0.788545
O19	O	0.117973	-1.666300	0.121905
O20	O	0.451306	-1.332966	0.455239
O21	O	0.784639	-0.999633	0.788572
Cu22	Cu	0.123592	-1.483487	0.144134
Cu23	Cu	0.456926	-1.150153	0.477467
Cu24	Cu	0.790259	-0.816820	0.810801
Cu25	Cu	0.123597	-1.483502	-0.143950
Cu26	Cu	0.456930	-1.150169	0.189384
Cu27	Cu	0.790264	-0.816836	0.522717
O28	O	0.245810	-1.473503	0.121878
O29	O	0.579143	-1.140170	0.455211
O30	O	0.912476	-0.806837	0.788544
C31	C	0.128389	-1.253895	0.000075
C32	C	0.461723	-0.920562	0.333409
C33	C	0.795056	-0.587229	0.666742
C34	C	0.125920	-1.114484	0.000065
C35	C	0.459253	-0.781151	0.333399
C36	C	0.792587	-0.447817	0.666732
C37	C	-0.029921	-1.492650	0.000106
C38	C	0.303412	-1.159316	0.333440
C39	C	0.636746	-0.825983	0.666773
C40	C	-0.123182	-1.490165	0.000107
C41	C	0.210152	-1.156831	0.333440
C42	C	0.543485	-0.823498	0.666774
N43	N	0.123589	-1.483485	0.346757
N44	N	0.456922	-1.150152	0.680090
N45	N	0.790255	-0.816818	1.013423
C46	C	-0.338764	-1.364720	0.000077
C47	C	-0.005431	-1.031387	0.333411
C48	C	0.327902	-0.698053	0.666744
C49	C	-0.399446	-1.422966	0.120191
C50	C	-0.066113	-1.089632	0.453524
C51	C	0.267220	-0.756299	0.786857
C52	C	-0.293933	-1.485668	0.000095
C53	C	0.039400	-1.152335	0.333429
C54	C	0.372733	-0.819002	0.666762
C55	C	-0.399426	-1.423007	-0.119979
C56	C	-0.066093	-1.089674	0.213355
C57	C	0.267241	-0.756341	0.546688
C58	C	-0.458871	-1.481317	0.000078
C59	C	-0.125538	-1.147983	0.333411
C60	C	0.207795	-0.814650	0.666745
C61	C	-0.353387	-1.543947	0.120308
C62	C	-0.020054	-1.210614	0.453641
C63	C	0.313280	-0.877281	0.786975
C64	C	-0.353360	-1.543972	-0.119969
C65	C	-0.020027	-1.210639	0.213364
C66	C	0.313306	-0.877305	0.546697
C67	C	-0.414024	-1.602306	0.000173
C68	C	-0.080691	-1.268972	0.333507
C69	C	0.252642	-0.935639	0.666840
C70	C	-0.198917	-1.488172	0.000107
C71	C	0.134417	-1.154839	0.333440
C72	C	0.467750	-0.821505	0.666773
C73	C	-0.553887	-1.478822	0.000077
C74	C	-0.220554	-1.145489	0.333410
C75	C	0.112780	-0.812156	0.666744
C76	C	0.277110	-1.474339	0.000075
C77	C	0.610444	-1.141006	0.333408
C78	C	0.943777	-0.807672	0.666742
C79	C	0.370371	-1.476824	0.000065
C80	C	0.703704	-1.143491	0.333398
C81	C	1.037038	-0.810158	0.666731
C82	C	0.118800	-1.713094	0.000106
C83	C	0.452133	-1.379760	0.333439
C84	C	0.785467	-1.046427	0.666773
C85	C	0.121269	-1.852505	0.000106
C86	C	0.454602	-1.519172	0.333440
C87	C	0.787936	-1.185838	0.666773
C88	C	0.201189	-1.034024	0.000061
C89	C	0.534522	-0.700691	0.333394
C90	C	0.867855	-0.367358	0.666728
C91	C	0.198863	-0.903034	0.000087
C92	C	0.532197	-0.569700	0.333420
C93	C	0.865530	-0.236367	0.666753
C94	C	0.045995	-0.932975	0.000115
C95	C	0.379328	-0.599641	0.333448
C96	C	0.712662	-0.266308	0.666782
C97	C	0.048321	-1.063963	0.000100
C98	C	0.381654	-0.730630	0.333433
C99	C	0.714988	-0.397296	0.666766
N100	N	0.123594	-1.483514	-0.346572
N101	N	0.456927	-1.150181	-0.013239
N102	N	0.790261	-0.816847	0.320094
C103	C	0.067007	-1.568884	0.423421
C104	C	0.400340	-1.235550	0.756754
C105	C	0.733673	-0.902217	1.090088
C106	C	0.067007	-1.568896	0.576758
C107	C	0.400340	-1.235562	0.910091
C108	C	0.733673	-0.902229	1.243424
C109	C	0.180179	-1.398106	0.576753
C110	C	0.513512	-1.064773	0.910086
C111	C	0.846845	-0.731439	1.243420
C112	C	0.180174	-1.398089	0.423419
C113	C	0.513507	-1.064756	0.756752
C114	C	0.846841	-0.731422	1.090086
H115	H	-0.306038	-1.264327	0.000190
H116	H	0.027296	-0.930994	0.333523
H117	H	0.360629	-0.597660	0.666857
Br118	Br	-0.433457	-1.337699	0.289433
Br119	Br	-0.100124	-1.004366	0.622766
Br120	Br	0.233210	-0.671032	0.956099
H121	H	-0.333102	-1.595055	0.221966
H122	H	0.000231	-1.261722	0.555299
H123	H	0.333564	-0.928389	0.888632
Br124	Br	-0.468324	-1.769778	0.000288
Br125	Br	-0.134991	-1.436445	0.333622
Br126	Br	0.198342	-1.103112	0.666955
H127	H	-0.332933	-1.595090	-0.221513
H128	H	0.000401	-1.261757	0.111820
H129	H	0.333734	-0.928423	0.445153
H130	H	0.226250	-1.328580	0.639186
H131	H	0.559584	-0.995247	0.972520
H132	H	0.892917	-0.661914	1.305853
H133	H	0.260155	-0.837528	0.000086
H134	H	0.593488	-0.504194	0.333419
H135	H	0.926821	-0.170861	0.666753
Br136	Br	-0.009790	-1.684792	0.680799
Br137	Br	0.323543	-1.351459	1.014133
Br138	Br	0.656876	-1.018126	1.347466
Br139	Br	-0.059313	-0.864402	0.000156
Br140	Br	0.274020	-0.531069	0.333490
Br141	Br	0.607353	-0.197735	0.666823
Br142	Br	-0.009789	-1.684775	0.319385
Br143	Br	0.323545	-1.351442	0.652718
Br144	Br	0.656878	-1.018108	0.986051
Br145	Br	0.256963	-1.282173	0.319362
Br146	Br	0.590296	-0.948840	0.652696
Br147	Br	0.923629	-0.615506	0.986029
H148	H	-0.419797	-1.371841	-0.221532
H149	H	-0.086464	-1.038507	0.111801
H150	H	0.246869	-0.705174	0.445135
H151	H	0.264375	-1.075154	0.000044
H152	H	0.597708	-0.741820	0.333377
H153	H	0.931041	-0.408487	0.666711
Br154	Br	-0.053837	-1.173168	0.000124
Br155	Br	0.279497	-0.839835	0.333458
Br156	Br	0.612830	-0.506501	0.666791
