data_functionalizedCrystal
_audit_creation_method	'MofGen! by Chris Wilmer'
_symmetry_space_group_name_H-M	'P1'
_symmetry_Int_Tables_number	1
_symmetry_cell_setting	triclinic
loop_
_symmetry_equiv_pos_as_xyz
  x,y,z
_cell_length_a	10.654550
_cell_length_b	12.837942
_cell_length_c	9.730223
_cell_angle_alpha	89.998888
_cell_angle_beta	89.996251
_cell_angle_gamma	89.656921
loop_
_atom_site_label
_atom_site_type_symbol
_atom_site_fract_x
_atom_site_fract_y
_atom_site_fract_z
O1	O	1.683735	0.145718	-0.114403
O2	O	1.319772	0.159602	-0.114381
O3	O	1.493683	0.001699	-0.114383
O4	O	1.509824	0.303621	-0.114401
O5	O	1.493681	0.001703	0.114196
O6	O	1.319770	0.159606	0.114199
O7	O	1.683734	0.145722	0.114177
Zn8	Zn	1.501752	0.152665	0.150480
Zn9	Zn	1.501754	0.152659	-0.150684
O10	O	1.509822	0.303625	0.114179
C11	C	1.272862	0.158585	-0.000089
C12	C	1.133086	0.155535	-0.000080
C13	C	1.063745	0.248505	-0.000105
C14	C	0.932411	0.245633	-0.000129
C15	C	0.939770	0.056812	-0.000107
C16	C	1.071101	0.059685	-0.000074
C17	C	1.059496	0.357520	-0.000124
C18	C	0.928162	0.354648	-0.000148
C19	C	1.488230	-0.036959	-0.000094
C20	C	1.471967	-0.152153	-0.000095
C21	C	1.667472	-0.391705	-0.000136
C22	C	1.652197	-0.499941	-0.000137
C23	C	1.426146	-0.476862	-0.000109
C24	C	1.441420	-0.368626	-0.000108
C25	C	1.562087	-0.326052	-0.000119
C26	C	1.577360	-0.217814	-0.000108
C27	C	1.351309	-0.194737	-0.000090
C28	C	1.336035	-0.302973	-0.000091
C29	C	1.730644	0.146740	-0.000119
C30	C	1.870420	0.149790	-0.000137
C31	C	1.515276	0.342283	-0.000114
C32	C	1.531538	0.457477	-0.000122
N33	N	1.501759	0.152668	0.356016
N34	N	1.501755	0.152648	-0.356221
C35	C	1.578792	0.082772	0.427941
C36	C	1.578787	0.082760	0.571824
C37	C	1.424714	0.222547	0.571844
C38	C	1.424713	0.222554	0.427964
C39	C	1.667748	0.002070	0.427931
C40	C	1.667744	0.002058	0.571814
H41	H	0.890912	0.395721	-0.095818
C42	C	0.871574	-0.048617	-0.000108
N43	N	0.820211	-0.128029	-0.000112
H44	H	1.675613	-0.183153	-0.000112
H45	H	1.766195	0.019834	0.610857
C46	C	1.203308	-0.349817	-0.000063
N47	N	1.103336	-0.385099	-0.000031
H48	H	1.765723	-0.357041	-0.000131
H49	H	1.361985	0.279446	0.630439
C50	C	1.105412	0.415117	0.129112
N51	N	1.139995	0.458496	0.226452
H52	H	1.738013	-0.553393	-0.000155
C53	C	1.340077	0.299524	0.348851
N54	N	1.276368	0.357533	0.289264
H55	H	0.886085	0.387595	0.098535
H56	H	1.327904	-0.511545	-0.000115
C57	C	1.627016	-0.105658	0.375172
N58	N	1.596333	-0.186796	0.335435
C59	C	1.112790	0.404393	-0.133459
N60	N	1.152933	0.439687	-0.233893
C61	C	1.794660	0.036200	0.367626
N62	N	1.890251	0.061908	0.322204
C63	C	1.615398	-0.099741	0.632103
N64	N	1.575965	-0.176412	0.677515
H65	H	1.127554	-0.016021	-0.000033
H66	H	1.265497	-0.141270	-0.000065
