data_functionalizedCrystal
_audit_creation_method	'MofGen! by Chris Wilmer'
_symmetry_space_group_name_H-M	'P1'
_symmetry_Int_Tables_number	1
_symmetry_cell_setting	triclinic
loop_
_symmetry_equiv_pos_as_xyz
  x,y,z
_cell_length_a	17.038272
_cell_length_b	10.489741
_cell_length_c	15.500346
_cell_angle_alpha	93.140194
_cell_angle_beta	87.018533
_cell_angle_gamma	92.174635
loop_
_atom_site_label
_atom_site_type_symbol
_atom_site_fract_x
_atom_site_fract_y
_atom_site_fract_z
O1	O	-1.042241	0.282757	0.071823
O2	O	-0.814586	0.278358	0.071849
O3	O	-0.933593	0.095444	0.071837
O4	O	-0.923233	0.465671	0.071834
O5	O	-0.927034	0.084198	-0.072048
O6	O	-0.808027	0.267112	-0.072037
O7	O	-1.035682	0.271511	-0.072062
Cu8	Cu	-0.921255	0.268285	-0.085187
Cu9	Cu	-0.929012	0.281584	0.084974
O10	O	-0.916674	0.454425	-0.072051
C11	C	-0.782155	0.268733	-0.000091
C12	C	-0.695293	0.256792	-0.000081
C13	C	-0.929531	0.042217	-0.000103
C14	C	-0.927191	-0.099631	-0.000096
C15	C	-1.068112	0.281136	-0.000121
C16	C	-1.154974	0.293078	-0.000126
C17	C	-0.645814	0.366430	-0.000082
C18	C	-0.564198	0.355201	-0.000094
C19	C	-0.532063	0.234333	-0.000098
C20	C	-0.581548	0.124687	-0.000099
C21	C	-0.663163	0.135917	-0.000094
C22	C	-0.286074	0.194661	-0.000121
C23	C	-0.204454	0.183440	-0.000124
C24	C	-0.187109	0.413955	-0.000120
C25	C	-0.268725	0.425174	-0.000110
C26	C	-0.318204	0.315527	-0.000115
C27	C	-0.448638	0.222853	-0.000108
C28	C	-0.401626	0.327009	-0.000112
C29	C	-0.920736	0.507653	-0.000109
C30	C	-0.923077	0.649501	-0.000110
N31	N	-0.915805	0.258930	-0.204870
C32	C	-0.998798	0.724723	-0.000112
C33	C	-0.959794	0.807954	-0.071051
C34	C	-0.966243	0.819018	0.070809
C35	C	-0.884039	0.730859	-0.071107
C36	C	-0.890501	0.741919	0.070816
C37	C	-0.851442	0.825116	-0.000140
C38	C	-0.888649	0.211892	-0.750044
C39	C	-0.892766	0.219015	-0.659473
C40	C	-0.942698	0.305184	-0.614204
C41	C	-0.988523	0.384225	-0.659511
C42	C	-0.984410	0.377094	-0.750080
C43	C	-0.957517	0.330840	-0.340745
C44	C	-0.961625	0.337968	-0.250170
C45	C	-0.865868	0.172756	-0.250139
C46	C	-0.861756	0.165638	-0.340709
C47	C	-0.907583	0.244675	-0.386008
C48	C	-0.946906	0.312470	-0.521627
C49	C	-0.903379	0.237381	-0.478584
N50	N	-0.934468	0.290930	0.204656
H51	H	-0.671971	0.464853	-0.000078
C52	C	-0.806821	0.070854	-0.390499
N53	N	-0.765439	-0.000532	-0.428000
H54	H	-0.861223	0.712571	0.130800
C55	C	-0.509773	0.475812	-0.000111
N56	N	-0.468780	0.566661	-0.000130
C57	C	-0.304066	0.558137	-0.000119
N58	N	-0.330685	0.658286	-0.000128
C59	C	-0.413282	0.089901	-0.000106
N60	N	-0.386649	-0.010238	-0.000106
H61	H	-1.001030	0.857687	0.130780
C62	C	-0.833718	0.117100	-0.799832
N63	N	-0.792345	0.045696	-0.837329
H64	H	-1.061053	0.680892	-0.000190
H65	H	-0.989099	0.837272	-0.131032
H66	H	-0.703449	0.046637	-0.000092
C67	C	-0.546197	-0.008269	-0.000105
N68	N	-0.519572	-0.108415	-0.000107
H69	H	-0.855457	0.154651	-0.622594
C70	C	-0.837098	0.678823	-0.152222
N71	N	-0.801746	0.639626	-0.213319
C72	C	-0.169108	0.050470	-0.000128
N73	N	-0.142485	-0.049677	-0.000128
C74	C	-0.767261	0.884026	-0.000187
N75	N	-0.703857	0.928403	-0.000228
H76	H	-0.862727	0.167219	-0.515446
C77	C	-1.034811	0.464047	-0.799909
N78	N	-1.072777	0.529542	-0.837440
C79	C	-0.815545	0.085693	-0.200303
N80	N	-0.777671	0.020067	-0.162767
H81	H	-1.002284	0.408146	-0.213314
H82	H	-1.029183	0.454379	-0.622645
C83	C	-1.007893	0.417839	-0.390562
N84	N	-1.045827	0.483390	-0.428086
H85	H	-0.146815	0.503222	-0.000118
H86	H	-0.427794	0.425418	-0.000113
H87	H	-0.326350	0.105378	-0.000126
H88	H	-0.987560	0.382630	-0.484758
