data_functionalizedCrystal
_audit_creation_method	'MofGen! by Chris Wilmer'
_symmetry_space_group_name_H-M	'P1'
_symmetry_Int_Tables_number	1
_symmetry_cell_setting	triclinic
loop_
_symmetry_equiv_pos_as_xyz
  x,y,z
_cell_length_a	16.109302
_cell_length_b	14.853567
_cell_length_c	15.186229
_cell_angle_alpha	90.000050
_cell_angle_beta	89.994701
_cell_angle_gamma	83.548356
loop_
_atom_site_label
_atom_site_type_symbol
_atom_site_fract_x
_atom_site_fract_y
_atom_site_fract_z
O1	O	1.103293	0.115884	-0.073261
O2	O	0.861251	0.130304	-0.073253
O3	O	0.988738	-0.008146	-0.073260
O4	O	0.975807	0.254334	-0.073254
O5	O	0.988729	-0.008148	0.073198
O6	O	0.861243	0.130302	0.073204
O7	O	1.103285	0.115882	0.073197
Zn8	Zn	0.982262	0.123092	0.096454
Zn9	Zn	0.982274	0.123094	-0.096510
O10	O	0.975798	0.254332	0.073203
C11	C	0.830271	0.129719	-0.000023
C12	C	0.737974	0.127967	-0.000021
C13	C	0.525622	0.123916	0.079804
C14	C	0.438900	0.122261	0.079801
C15	C	0.438920	0.122267	-0.079874
C16	C	0.525641	0.123916	-0.079870
C17	C	0.568990	0.124745	-0.000028
C18	C	0.395546	0.121441	-0.000035
C19	C	0.301518	0.119646	-0.000039
C20	C	0.663024	0.126539	-0.000024
C21	C	0.988147	-0.041735	-0.000033
C22	C	0.986392	-0.141816	-0.000041
C23	C	0.903240	-0.554213	-0.000022
C24	C	1.054697	-0.575743	-0.000027
C25	C	1.056348	-0.481712	-0.000032
C26	C	0.981444	-0.423927	-0.000031
C27	C	0.904889	-0.460173	-0.000024
C28	C	1.132901	-0.445459	-0.000029
C29	C	1.134555	-0.351423	-0.000034
C30	C	1.059650	-0.293636	-0.000039
C31	C	0.983092	-0.329887	-0.000033
C32	C	0.908188	-0.272102	-0.000032
C33	C	0.831630	-0.308351	-0.000033
C34	C	0.829984	-0.402385	-0.000029
C35	C	1.061296	-0.199601	-0.000042
C36	C	0.909837	-0.178062	-0.000035
C37	C	1.134264	0.116467	-0.000035
C38	C	1.226562	0.118219	-0.000043
C39	C	0.976389	0.287921	-0.000025
C40	C	0.978144	0.388002	-0.000023
N41	N	0.982261	0.123089	0.228146
N42	N	0.982282	0.123090	-0.228203
C43	C	1.038731	0.061804	0.453866
C44	C	1.038733	0.061802	0.546056
C45	C	0.925806	0.184378	0.546071
C46	C	0.925800	0.184375	0.453883
C47	C	0.982267	0.123089	0.407783
C48	C	0.982276	0.123090	0.592161
C49	C	0.982278	0.123088	0.692117
C50	C	0.982264	0.123090	0.307821
H51	H	0.560914	0.124591	0.144817
H52	H	0.840908	-0.583731	-0.000026
H53	H	0.403594	0.121586	0.144809
O54	O	0.392165	0.121387	-0.165988
H55	H	0.324575	0.120112	-0.152581
O56	O	0.572426	0.124814	-0.165979
H57	H	0.527714	0.123975	-0.221499
O58	O	0.829047	-0.115735	-0.000025
H59	H	0.775539	-0.156742	-0.000017
H60	H	0.879816	0.234281	0.416360
O61	O	0.750840	-0.246024	-0.000024
H62	H	0.747971	-0.202667	-0.059718
O63	O	0.747418	-0.441487	-0.000011
H64	H	0.743047	-0.483830	-0.059694
O65	O	1.135484	-0.638061	-0.000019
H66	H	1.121477	-0.709540	-0.000017
O67	O	1.213687	-0.507779	-0.000018
H68	H	1.199677	-0.579257	-0.000023
H69	H	1.196894	-0.321918	-0.000034
O70	O	1.143858	-0.160499	-0.000047
H71	H	1.195666	-0.216479	-0.000051
H72	H	1.084709	0.011900	0.416334
H73	H	1.084710	0.011897	0.583574
H74	H	0.879832	0.234277	0.583615
