data_functionalizedCrystal
_audit_creation_method	'MofGen! by Chris Wilmer'
_symmetry_space_group_name_H-M	'P1'
_symmetry_Int_Tables_number	1
_symmetry_cell_setting	triclinic
loop_
_symmetry_equiv_pos_as_xyz
  x,y,z
_cell_length_a	15.995350
_cell_length_b	15.995350
_cell_length_c	14.472310
_cell_angle_alpha	89.998838
_cell_angle_beta	89.990621
_cell_angle_gamma	96.507625
loop_
_atom_site_label
_atom_site_type_symbol
_atom_site_fract_x
_atom_site_fract_y
_atom_site_fract_z
O1	O	1.110997	-0.107921	-0.076758
O2	O	1.610997	0.392079	0.423242
O3	O	0.867221	-0.121248	-0.076776
O4	O	1.367221	0.378752	0.423224
O5	O	0.995773	0.007303	-0.076766
O6	O	1.495773	0.507303	0.423234
O7	O	0.982445	-0.236472	-0.076769
O8	O	1.482445	0.263528	0.423231
O9	O	0.995740	0.007296	0.076916
O10	O	1.495740	0.507296	0.576916
O11	O	0.867188	-0.121256	0.076906
O12	O	1.367188	0.378744	0.576906
O13	O	1.110963	-0.107928	0.076924
O14	O	1.610963	0.392072	0.576924
Cu15	Cu	0.989073	-0.114593	0.090947
Cu16	Cu	1.489073	0.385407	0.590947
Cu17	Cu	0.989112	-0.114584	-0.090800
Cu18	Cu	1.489112	0.385416	0.409200
O19	O	0.982412	-0.236480	0.076913
O20	O	1.482412	0.263520	0.576913
C21	C	0.836010	-0.120701	0.000062
C22	C	1.336010	0.379299	0.500062
C23	C	0.743060	-0.119049	0.000055
C24	C	1.243060	0.380951	0.500055
C25	C	0.405312	-0.113117	0.000074
C26	C	0.905312	0.386883	0.500074
C27	C	0.452746	-0.021565	0.000418
C28	C	0.952746	0.478435	0.500418
C29	C	0.549436	-0.023217	0.000065
C30	C	1.049436	0.476783	0.500065
C31	C	0.572873	-0.116060	0.000065
C32	C	1.072873	0.383940	0.500065
C33	C	0.531804	-0.161212	-0.087692
C34	C	1.031804	0.338788	0.412308
C35	C	0.435169	-0.158912	-0.087759
C36	C	0.935169	0.341088	0.412241
C37	C	0.434792	-0.160812	0.087007
C38	C	0.934792	0.339188	0.587007
C39	C	0.531737	-0.160790	0.088160
C40	C	1.031737	0.339210	0.588160
C41	C	0.667570	-0.117727	0.000057
C42	C	1.167570	0.382273	0.500057
C43	C	0.310614	-0.111452	0.000076
C44	C	0.810614	0.388548	0.500076
C45	C	0.995205	0.038494	0.000073
C46	C	1.495205	0.538494	0.500073
C47	C	0.993553	0.131444	0.000068
C48	C	1.493553	0.631444	0.500068
C49	C	1.142175	-0.108476	0.000083
C50	C	1.642175	0.391524	0.500083
C51	C	1.235125	-0.110127	0.000084
C52	C	1.735125	0.389873	0.500084
C53	C	0.982980	-0.267671	0.000072
C54	C	1.482980	0.232329	0.500072
C55	C	0.984631	-0.360621	0.000071
C56	C	1.484631	0.139379	0.500071
N57	N	0.989051	-0.114598	0.218778
N58	N	1.489051	0.385402	0.718778
C59	C	0.987621	0.469192	0.000071
C60	C	1.487621	0.969192	0.500071
C61	C	0.896069	0.421758	-0.000281
C62	C	1.396069	0.921758	0.499719
C63	C	0.897721	0.325068	0.000066
C64	C	1.397721	0.825068	0.500066
C65	C	0.990564	0.301631	0.000069
C66	C	1.490564	0.801631	0.500069
C67	C	1.035701	0.342705	0.087831
C68	C	1.535701	0.842705	0.587831
C69	C	1.033401	0.439340	0.087904
C70	C	1.533401	0.939340	0.587904
C71	C	1.035330	0.439707	-0.086861
C72	C	1.535330	0.939707	0.413139
C73	C	1.035309	0.342762	-0.088021
C74	C	1.535309	0.842762	0.411979
C75	C	0.992231	0.206934	0.000071
C76	C	1.492231	0.706934	0.500071
C77	C	0.985956	0.563890	0.000075
C78	C	1.485956	1.063890	0.500075
N79	N	0.989140	-0.114572	-0.218631
N80	N	1.489140	0.385428	0.281369
C81	C	0.989111	-0.114581	0.592869
C82	C	1.489111	0.385419	1.092869
C83	C	0.920095	-0.183135	0.553698
C84	C	1.420095	0.316865	1.053698
C85	C	0.920254	-0.183385	0.446610
C86	C	1.420254	0.316615	0.946610
C87	C	0.989081	-0.114590	0.407278
C88	C	1.489081	0.385410	0.907278
C89	C	1.076445	-0.133671	0.446122
C90	C	1.576445	0.366329	0.946122
C91	C	1.076057	-0.134159	0.553243
C92	C	1.576057	0.365841	1.053243
C93	C	0.971542	-0.026741	0.553398
C94	C	1.471542	0.473259	1.053398
C95	C	0.969538	-0.027327	0.446270
C96	C	1.469538	0.472673	0.946270
C97	C	0.989069	-0.114593	0.302390
C98	C	1.489069	0.385407	0.802390
C99	C	0.989128	-0.114579	0.697757
C100	C	1.489128	0.385421	1.197757
H101	H	0.559040	-0.127830	0.153082
H102	H	1.059040	0.372170	0.653082
H103	H	1.092297	-0.197002	0.419285
H104	H	1.592297	0.302998	0.919285
H105	H	0.560193	-0.129845	-0.153002
H106	H	1.060193	0.370155	0.346998
H107	H	1.000459	0.457639	0.153505
H108	H	1.500459	0.957639	0.653505
Cl109	Cl	0.553637	-0.266513	-0.092754
Cl110	Cl	1.053637	0.233487	0.407246
Cl111	Cl	0.555450	-0.265325	0.096343
Cl112	Cl	1.055450	0.234675	0.596343
H113	H	0.577308	0.012521	-0.062951
H114	H	1.077308	0.512521	0.437049
Cl115	Cl	0.937186	-0.283213	0.595223
Cl116	Cl	1.437186	0.216787	1.095223
Cl117	Cl	1.049245	0.052025	0.592506
Cl118	Cl	1.549245	0.552025	1.092506
Cl119	Cl	0.984776	0.300207	-0.188275
Cl120	Cl	1.484776	0.800207	0.311725
Cl121	Cl	1.137173	0.489132	0.094069
Cl122	Cl	1.637173	0.989132	0.594069
Cl123	Cl	0.937543	-0.284034	0.407026
Cl124	Cl	1.437543	0.215966	0.907026
Cl125	Cl	1.141010	0.320898	0.092879
Cl126	Cl	1.641010	0.820898	0.592879
H127	H	1.091540	-0.198219	0.578220
H128	H	1.591540	0.301781	1.078220
H129	H	0.862239	0.296649	-0.062846
H130	H	1.362239	0.796649	0.437154
Cl131	Cl	1.139545	0.488744	-0.087771
Cl132	Cl	1.639545	0.988744	0.412229
Cl133	Cl	0.870315	-0.004965	0.407076
Cl134	Cl	1.370315	0.495035	0.907076
H135	H	1.004324	0.314320	0.153137
H136	H	1.504324	0.814320	0.653137
H137	H	1.103014	0.327400	-0.093317
H138	H	1.603014	0.827400	0.406683
Cl139	Cl	0.839589	0.450372	-0.097450
Cl140	Cl	1.339589	0.950372	0.402550
H141	H	1.129018	-0.086196	0.579154
H142	H	1.629018	0.413804	1.079154
H143	H	0.403031	-0.228313	0.087600
H144	H	0.903031	0.271687	0.587600
H145	H	0.859626	0.441349	0.062299
H146	H	1.359626	0.941349	0.562299
Cl147	Cl	1.157635	-0.058632	0.406790
Cl148	Cl	1.657635	0.441368	0.906790
H149	H	0.861973	0.297200	0.063079
H150	H	1.361973	0.797200	0.563079
Cl151	Cl	0.875302	0.001572	0.595148
Cl152	Cl	1.375302	0.501572	1.095148
Cl153	Cl	1.042115	0.055129	0.404954
Cl154	Cl	1.542115	0.555129	0.904954
Cl155	Cl	0.422513	0.034687	-0.096204
Cl156	Cl	0.922513	0.534687	0.403796
H157	H	0.855314	-0.172016	0.420349
H158	H	1.355314	0.327984	0.920349
Cl159	Cl	0.593312	0.031583	0.097188
Cl160	Cl	1.093312	0.531583	0.597188
Cl161	Cl	0.385377	-0.262684	-0.093910
Cl162	Cl	0.885377	0.237316	0.406090
H163	H	0.434210	0.015027	0.063352
H164	H	0.934210	0.515027	0.563352
Cl165	Cl	0.989130	0.471410	-0.189561
Cl166	Cl	1.489130	0.971410	0.310439
H167	H	0.854945	-0.171953	0.579481
H168	H	1.354945	0.328047	1.079481
H169	H	0.414242	-0.130885	0.153524
H170	H	0.914242	0.369115	0.653524
Cl171	Cl	0.406920	-0.108064	-0.189039
Cl172	Cl	0.906920	0.391936	0.310961
