data_functionalizedCrystal
_audit_creation_method	'MofGen! by Chris Wilmer'
_symmetry_space_group_name_H-M	'P1'
_symmetry_Int_Tables_number	1
_symmetry_cell_setting	triclinic
loop_
_symmetry_equiv_pos_as_xyz
  x,y,z
_cell_length_a	27.732048
_cell_length_b	14.519731
_cell_length_c	13.596369
_cell_angle_alpha	89.994584
_cell_angle_beta	89.989067
_cell_angle_gamma	83.165754
loop_
_atom_site_label
_atom_site_type_symbol
_atom_site_fract_x
_atom_site_fract_y
_atom_site_fract_z
O1	O	0.063411	1.222753	-0.081805
O2	O	0.563411	1.722753	0.418195
O3	O	0.070862	0.954149	-0.081807
O4	O	0.570862	1.454149	0.418193
O5	O	-0.003220	1.096793	-0.081787
O6	O	0.496780	1.596793	0.418213
O7	O	0.137493	1.080109	-0.081825
O8	O	0.637493	1.580109	0.418175
O9	O	-0.003224	1.096779	0.081796
O10	O	0.496776	1.596779	0.581796
O11	O	0.070858	0.954135	0.081775
O12	O	0.570858	1.454135	0.581775
O13	O	0.063407	1.222739	0.081778
O14	O	0.563407	1.722739	0.581778
Zn15	Zn	0.067132	1.088435	0.107749
Zn16	Zn	0.567132	1.588435	0.607749
Zn17	Zn	0.067137	1.088453	-0.107778
Zn18	Zn	0.567137	1.588453	0.392222
O19	O	0.137489	1.080095	0.081758
O20	O	0.637489	1.580095	0.581758
C21	C	0.070511	0.919789	-0.000016
C22	C	0.570511	1.419789	0.499984
C23	C	0.069465	0.817427	-0.000016
C24	C	0.569465	1.317427	0.499984
C25	C	0.068615	0.734297	-0.000020
C26	C	0.568615	1.234297	0.499980
C27	C	0.067553	0.630007	-0.000020
C28	C	0.567553	1.130007	0.499980
C29	C	0.066710	0.546883	-0.000020
C30	C	0.566710	1.046883	0.499980
C31	C	0.065647	0.442586	-0.000022
C32	C	0.565647	0.942586	0.499978
C33	C	-0.021231	1.096436	0.000007
C34	C	0.478769	1.596436	0.500007
C35	C	-0.074890	1.095382	0.000015
C36	C	0.425110	1.595382	0.500015
C37	C	-0.413331	1.173036	-0.000035
C38	C	0.086669	1.673036	0.499965
C39	C	-0.615010	1.169123	-0.000048
C40	C	-0.115010	1.669123	0.499952
O41	O	-0.645923	1.240132	-0.000091
O42	O	-0.145923	1.740132	0.499909
N43	N	-0.634541	1.084541	-0.000048
N44	N	-0.134541	1.584541	0.499952
C45	C	-0.603649	1.000931	-0.000051
C46	C	-0.103649	1.500931	0.499949
O47	O	-0.624890	0.928899	-0.000062
O48	O	-0.124890	1.428899	0.499938
C49	C	-0.401972	1.004845	-0.000045
C50	C	0.098028	1.504845	0.499955
C51	C	-0.382444	1.089432	-0.000035
C52	C	0.117556	1.589432	0.499965
C53	C	-0.393802	1.257616	-0.000026
C54	C	0.106198	1.757616	0.499974
C55	C	-0.343386	1.258594	-0.000017
C56	C	0.156614	1.758594	0.499983
C57	C	-0.312498	1.174990	-0.000017
C58	C	0.187502	1.674990	0.499983
C59	C	-0.332027	1.090410	-0.000026
C60	C	0.167973	1.590410	0.499974
C61	C	-0.371081	0.921236	-0.000055
C62	C	0.128919	1.421236	0.499945
C63	C	-0.320659	0.922222	-0.000055
C64	C	0.179341	1.422222	0.499945
C65	C	-0.301131	1.006809	-0.000046
C66	C	0.198869	1.506809	0.499954
C67	C	-0.250723	1.007784	-0.000017
C68	C	0.249277	1.507784	0.499983
N69	N	-0.231191	1.092366	-0.000017
N70	N	0.268809	1.592366	0.499983
C71	C	-0.262079	1.175969	-0.000017
C72	C	0.237921	1.675969	0.499983
C73	C	-0.709533	0.998882	-0.000053
C74	C	-0.209533	1.498882	0.499947
C75	C	-0.759953	0.997903	-0.000053
C76	C	-0.259953	1.497903	0.499947
C77	C	-0.771309	1.166096	-0.000052
C78	C	-0.271309	1.666096	0.499948
C79	C	-0.720889	1.167073	-0.000045
C80	C	-0.220889	1.667073	0.499955
C81	C	-0.690002	1.083464	-0.000053
C82	C	-0.190002	1.583464	0.499947
C83	C	-0.156200	1.178015	0.000002
C84	C	0.343800	1.678015	0.500002
C85	C	-0.105778	1.178985	0.000015
C86	C	0.394222	1.678985	0.500015
C87	C	-0.094426	1.010793	0.000009
C88	C	0.405574	1.510793	0.500009
C89	C	-0.144843	1.009823	0.000001
C90	C	0.355157	1.509823	0.500001
C91	C	-0.175729	1.093441	-0.000006
C92	C	0.324271	1.593441	0.499994
O93	O	-0.219781	0.936812	0.000014
O94	O	0.280219	1.436812	0.500014
O95	O	-0.240829	1.247991	-0.000029
O96	O	0.259171	1.747991	0.499971
C97	C	-0.463748	1.172058	-0.000043
C98	C	0.036252	1.672058	0.499957
C99	C	-0.483277	1.087478	-0.000052
C100	C	0.016723	1.587478	0.499948
C101	C	-0.452389	1.003874	-0.000052
C102	C	0.047611	1.503874	0.499948
C103	C	-0.533696	1.086499	-0.000052
C104	C	-0.033696	1.586499	0.499948
C105	C	-0.564584	1.170102	-0.000052
C106	C	-0.064584	1.670102	0.499948
C107	C	-0.545052	1.254685	-0.000052
C108	C	-0.045052	1.754685	0.499948
C109	C	-0.494636	1.255662	-0.000043
C110	C	0.005364	1.755662	0.499957
C111	C	-0.471921	0.919292	-0.000052
C112	C	0.028079	1.419292	0.499948
C113	C	-0.522338	0.918322	-0.000060
C114	C	-0.022338	1.418322	0.499940
C115	C	-0.553225	1.001925	-0.000060
C116	C	-0.053225	1.501925	0.499940
C117	C	0.155500	1.080452	-0.000038
C118	C	0.655500	1.580452	0.499962
C119	C	0.209160	1.081507	-0.000053
C120	C	0.709160	1.581507	0.499947
C121	C	0.063758	1.257099	-0.000015
C122	C	0.563758	1.757099	0.499985
C123	C	0.064804	1.359462	-0.000021
C124	C	0.564804	1.859462	0.499979
N125	N	0.067128	1.088429	0.254841
N126	N	0.567128	1.588429	0.754841
N127	N	0.067137	1.088467	-0.254870
N128	N	0.567137	1.588467	0.245130
C129	C	0.067138	1.088452	0.656132
C130	C	0.567138	1.588452	1.156132
C131	C	0.067137	1.088443	0.544481
C132	C	0.567137	1.588443	1.044481
C133	C	0.067133	1.088441	0.455490
C134	C	0.567133	1.588441	0.955490
C135	C	0.067132	1.088431	0.343832
C136	C	0.567132	1.588431	0.843832
H137	H	-0.089881	1.247869	0.000026
H138	H	0.410119	1.747869	0.500026
H139	H	-0.069268	0.942726	0.000012
H140	H	0.430732	1.442726	0.500012
O141	O	-0.543394	0.827078	-0.000064
O142	O	-0.043394	1.327078	0.499936
H143	H	-0.583644	0.840432	-0.000063
H144	H	-0.083644	1.340432	0.499937
H145	H	-0.181342	1.246105	-0.000007
H146	H	0.318658	1.746105	0.499993
O147	O	-0.781010	0.906666	-0.000050
O148	O	-0.281010	1.406666	0.499950
H149	H	-0.803711	0.902183	0.066628
H150	H	-0.303711	1.402183	0.566628
O151	O	-0.473575	1.346895	-0.000052
O152	O	0.026425	1.846895	0.499948
H153	H	-0.503530	1.404857	-0.000066
H154	H	-0.003530	1.904857	0.499934
H155	H	-0.796467	1.234169	-0.000051
H156	H	-0.296467	1.734169	0.499949
H157	H	-0.684389	0.930793	-0.000059
H158	H	-0.184389	1.430793	0.499941
H159	H	-0.327491	1.327474	-0.000013
H160	H	0.172509	1.827474	0.499987
O161	O	-0.427110	1.347801	-0.000014
O162	O	0.072890	1.847801	0.499986
H163	H	-0.450347	1.351409	-0.066688
H164	H	0.049653	1.851409	0.433312
O165	O	-0.699830	1.258308	-0.000054
O166	O	-0.199830	1.758308	0.499946
H167	H	-0.712240	1.298445	0.066615
H168	H	-0.212240	1.798445	0.566615
H169	H	-0.386972	0.852356	-0.000069
H170	H	0.113028	1.352356	0.499931
H171	H	-0.446776	0.851211	-0.000054
H172	H	0.053224	1.351211	0.499946
H173	H	-0.295513	0.854135	-0.000064
H174	H	0.204487	1.354135	0.499936
H175	H	-0.160744	0.940945	0.000020
H176	H	0.339256	1.440945	0.500020
O177	O	-0.578371	1.344860	-0.000052
O178	O	-0.078371	1.844860	0.499948
H179	H	-0.616710	1.329959	-0.000065
H180	H	-0.116710	1.829959	0.499935
