data_functionalizedCrystal
_audit_creation_method	'MofGen! by Chris Wilmer'
_symmetry_space_group_name_H-M	'P1'
_symmetry_Int_Tables_number	1
_symmetry_cell_setting	triclinic
loop_
_symmetry_equiv_pos_as_xyz
  x,y,z
_cell_length_a	27.732048
_cell_length_b	14.853567
_cell_length_c	13.330367
_cell_angle_alpha	90.000844
_cell_angle_beta	89.997949
_cell_angle_gamma	96.861208
loop_
_atom_site_label
_atom_site_type_symbol
_atom_site_fract_x
_atom_site_fract_y
_atom_site_fract_z
O1	O	0.641431	-0.107269	-0.083287
O2	O	1.141431	0.392731	0.416713
O3	O	0.500714	-0.123580	-0.083316
O4	O	1.000714	0.376420	0.416684
O5	O	0.574831	0.015866	-0.083303
O6	O	1.074831	0.515866	0.416697
O7	O	0.567314	-0.246715	-0.083299
O8	O	1.067314	0.253285	0.416701
O9	O	0.574820	0.015869	0.083544
O10	O	1.074820	0.515869	0.583544
O11	O	0.500703	-0.123577	0.083531
O12	O	1.000703	0.376423	0.583531
O13	O	0.641420	-0.107266	0.083560
O14	O	1.141420	0.392734	0.583560
Cu15	Cu	0.571061	-0.115421	0.098780
Cu16	Cu	1.071061	0.384579	0.598780
Cu17	Cu	0.571073	-0.115425	-0.098536
Cu18	Cu	1.071073	0.384575	0.401464
O19	O	0.567303	-0.246713	0.083548
O20	O	1.067303	0.253287	0.583548
C21	C	0.482700	-0.123236	0.000104
C22	C	0.982700	0.376764	0.500104
C23	C	0.429040	-0.122205	0.000092
C24	C	0.929040	0.377795	0.500092
N25	N	0.571055	-0.115418	0.237562
N26	N	1.071055	0.384582	0.737562
C27	C	0.574485	0.049451	0.000117
C28	C	1.074485	0.549451	0.500117
C29	C	0.573464	0.149518	0.000108
C30	C	1.073464	0.649518	0.500108
C31	C	0.090580	-0.198118	0.000137
C32	C	0.590580	0.301882	0.500137
C33	C	-0.111097	-0.194293	0.000146
C34	C	0.388903	0.305707	0.500146
O35	O	-0.142028	-0.263710	0.000191
O36	O	0.357972	0.236290	0.500191
N37	N	-0.130608	-0.111607	0.000143
N38	N	0.369392	0.388393	0.500143
C39	C	-0.099695	-0.029872	0.000144
C40	C	0.400305	0.470128	0.500144
O41	O	-0.120918	0.040545	0.000152
O42	O	0.379082	0.540545	0.500152
C43	C	0.101981	-0.033698	0.000142
C44	C	0.601981	0.466302	0.500142
C45	C	0.121489	-0.116389	0.000135
C46	C	0.621489	0.383611	0.500135
C47	C	0.110088	-0.280803	0.000131
C48	C	0.610088	0.219197	0.500131
C49	C	0.160504	-0.281758	0.000124
C50	C	0.660504	0.218242	0.500124
C51	C	0.191413	-0.200029	0.000122
C52	C	0.691413	0.299971	0.500122
C53	C	0.171905	-0.117344	0.000128
C54	C	0.671905	0.382656	0.500128
C55	C	0.132893	0.048036	0.000151
C56	C	0.632893	0.548036	0.500151
C57	C	0.183314	0.047073	0.000153
C58	C	0.683314	0.547073	0.500153
C59	C	0.202822	-0.035619	0.000146
C60	C	0.702822	0.464381	0.500146
C61	C	0.253230	-0.036571	0.000118
C62	C	0.753230	0.463429	0.500118
N63	N	0.272740	-0.119257	0.000121
N64	N	0.772740	0.380743	0.500121
C65	C	0.241832	-0.200986	0.000123
C66	C	0.741832	0.299014	0.500123
C67	C	-0.205579	-0.027869	0.000143
C68	C	0.294421	0.472131	0.500143
C69	C	-0.255998	-0.026912	0.000142
C70	C	0.244002	0.473088	0.500142
C71	C	-0.267396	-0.191334	0.000146
C72	C	0.232604	0.308666	0.500146
C73	C	-0.216976	-0.192289	0.000140
C74	C	0.283024	0.307711	0.500140
C75	C	-0.186068	-0.110555	0.000146
C76	C	0.313932	0.389445	0.500146
C77	C	0.347710	-0.202986	0.000106
C78	C	0.847710	0.297014	0.500106
C79	C	0.398132	-0.203934	0.000094
C80	C	0.898132	0.296066	0.500094
C81	C	0.409526	-0.039513	0.000096
C82	C	0.909526	0.460487	0.500096
C83	C	0.359109	-0.038564	0.000102
C84	C	0.859109	0.461436	0.500102
C85	C	0.328202	-0.120308	0.000111
C86	C	0.828202	0.379692	0.500111
O87	O	0.284189	0.032809	0.000085
O88	O	0.784189	0.532809	0.500085
O89	O	0.263064	-0.271393	0.000138
O90	O	0.763064	0.228607	0.500138
C91	C	0.040164	-0.197163	0.000145
C92	C	0.540164	0.302837	0.500145
C93	C	0.020656	-0.114478	0.000151
C94	C	0.520656	0.385522	0.500151
C95	C	0.051564	-0.032749	0.000149
C96	C	0.551564	0.467251	0.500149
C97	C	-0.029763	-0.113522	0.000149
C98	C	0.470237	0.386478	0.500149
C99	C	-0.060672	-0.195251	0.000151
C100	C	0.439328	0.304749	0.500151
C101	C	-0.041161	-0.277936	0.000154
C102	C	0.458839	0.222064	0.500154
C103	C	0.009255	-0.278892	0.000147
C104	C	0.509255	0.221108	0.500147
C105	C	0.032054	0.049937	0.000146
C106	C	0.532054	0.549937	0.500146
C107	C	-0.018363	0.050885	0.000152
C108	C	0.481637	0.550885	0.500152
C109	C	-0.049272	-0.030844	0.000154
C110	C	0.450728	0.469156	0.500154
C111	C	0.659434	-0.107610	0.000139
C112	C	1.159434	0.392390	0.500139
C113	C	0.713094	-0.108641	0.000143
C114	C	1.213094	0.391359	0.500143
C115	C	0.567649	-0.280297	0.000125
C116	C	1.067649	0.219703	0.500125
C117	C	0.568670	-0.380364	0.000128
C118	C	1.068670	0.119636	0.500128
C119	C	0.525122	0.561265	0.000117
C120	C	1.025122	1.061265	0.500117
C121	C	0.613175	0.583979	0.000135
C122	C	1.113175	1.083979	0.500135
C123	C	0.614135	0.489961	0.000130
C124	C	1.114135	0.989961	0.500130
C125	C	0.570588	0.431590	0.000119
C126	C	1.070588	0.931590	0.500119
C127	C	0.526081	0.467238	0.000115
C128	C	1.026081	0.967238	0.500115
C129	C	0.658641	0.454306	0.000145
C130	C	1.158641	0.954306	0.500145
C131	C	0.659603	0.360282	0.000140
C132	C	1.159603	0.860282	0.500140
C133	C	0.616055	0.301910	0.000122
C134	C	1.116055	0.801910	0.500122
C135	C	0.571546	0.337563	0.000117
C136	C	1.071546	0.837563	0.500117
C137	C	0.527999	0.279193	0.000106
C138	C	1.027999	0.779193	0.500106
C139	C	0.483489	0.314844	0.000093
C140	C	0.983489	0.814844	0.500093
C141	C	0.482533	0.408866	0.000097
C142	C	0.982533	0.908866	0.500097
C143	C	0.617012	0.207888	0.000119
C144	C	1.117012	0.707888	0.500119
C145	C	0.528957	0.185166	0.000103
C146	C	1.028957	0.685166	0.500103
N147	N	0.571083	-0.115421	-0.237317
N148	N	1.071083	0.384579	0.262683
C149	C	0.538253	-0.177148	0.710179
C150	C	1.038253	0.322852	1.210179
C151	C	0.603907	-0.053695	0.710158
C152	C	1.103907	0.446305	1.210158
C153	C	0.603901	-0.053692	0.605140
C154	C	1.103901	0.446308	1.105140
C155	C	0.571072	-0.115419	0.552636
C156	C	1.071072	0.384581	1.052636
C157	C	0.538247	-0.177149	0.605151
C158	C	1.038247	0.322851	1.105151
C159	C	0.636729	0.008030	0.552617
C160	C	1.136729	0.508030	1.052617
C161	C	0.636725	0.008035	0.447592
C162	C	1.136725	0.508035	0.947592
C163	C	0.603892	-0.053689	0.395087
C164	C	1.103892	0.446311	0.895087
C165	C	0.571066	-0.115420	0.447608
C166	C	1.071066	0.384580	0.947608
C167	C	0.538236	-0.177147	0.395105
C168	C	1.038236	0.322853	0.895105
C169	C	0.505407	-0.238875	0.447624
C170	C	1.005407	0.261125	0.947624
C171	C	0.505415	-0.238872	0.552646
C172	C	1.005415	0.261128	1.052646
C173	C	0.603885	-0.053692	0.290065
C174	C	1.103885	0.446308	0.790065
C175	C	0.538231	-0.177148	0.290077
C176	C	1.038231	0.322852	0.790077
H177	H	0.414012	-0.271274	0.000088
H178	H	0.914012	0.228726	0.500088
F179	F	0.314824	-0.289987	0.000116
F180	F	0.814824	0.210013	0.500116
F181	F	0.704984	0.516431	0.000174
F182	F	1.204984	1.016431	0.500174
H183	H	0.648630	0.631509	0.000152
H184	H	1.148630	1.131509	0.500152
F185	F	0.181259	-0.369770	0.000121
F186	F	0.681259	0.130230	0.500121
F187	F	0.064943	0.136929	0.000146
F188	F	0.564943	0.636929	0.500146
F189	F	0.077200	-0.367798	0.000133
F190	F	0.577200	0.132202	0.500133
F191	F	0.671670	0.073716	0.608495
F192	F	1.171670	0.573716	1.108495
F193	F	-0.276753	0.061099	0.000127
F194	F	0.223247	0.561099	0.500127
F195	F	0.664378	0.169949	0.000148
F196	F	1.164378	0.669949	0.500148
F197	F	-0.172690	0.059131	0.000149
F198	F	0.327310	0.559131	0.500149
H199	H	0.117019	0.115372	0.000157
H200	H	0.617019	0.615372	0.500157
H201	H	0.511495	-0.227410	0.247335
H202	H	1.011495	0.272590	0.747335
F203	F	0.638848	0.011991	0.766036
F204	F	1.138848	0.511991	1.266036
H205	H	0.343225	0.028769	0.000093
H206	H	0.843225	0.528769	0.500093
F207	F	0.470471	-0.304572	0.391735
F208	F	0.970471	0.195428	0.891735
F209	F	0.470480	-0.304564	0.608544
F210	F	0.970480	0.195436	1.108544
H211	H	-0.201097	-0.259624	0.000140
H212	H	0.298903	0.240376	0.500140
H213	H	0.511523	-0.227403	0.752943
H214	H	1.011523	0.272597	1.252943
H215	H	0.663455	0.058297	0.404838
H216	H	1.163455	0.558297	0.904838
F217	F	0.638824	0.011994	0.234177
F218	F	1.138824	0.511994	0.734177
H219	H	0.488884	0.590297	0.000103
H220	H	0.988884	1.090297	0.500103
H221	H	-0.292571	-0.257881	0.000147
H222	H	0.207429	0.242119	0.500147
F223	F	0.216207	0.134069	0.000162
F224	F	0.716207	0.634069	0.500162
H225	H	0.695845	0.331264	0.000149
H226	H	1.195845	0.831264	0.500149
H227	H	0.434700	0.027028	0.000090
H228	H	0.934700	0.527028	0.500090
F229	F	-0.074065	-0.364918	0.000151
F230	F	0.425935	0.135082	0.500151
F231	F	0.030010	-0.366904	0.000140
F232	F	0.530010	0.133096	0.500140
F233	F	-0.039118	0.138903	0.000147
F234	F	0.460882	0.638903	0.500147
H235	H	0.493495	0.137646	0.000091
H236	H	0.993495	0.637646	0.500091
H237	H	0.448033	0.267307	0.000092
H238	H	0.948033	0.767307	0.500092
F239	F	0.435167	0.446816	0.000080
F240	F	0.935167	0.946816	0.500080
