data_functionalizedCrystal
_audit_creation_method	'MofGen! by Chris Wilmer'
_symmetry_space_group_name_H-M	'P1'
_symmetry_Int_Tables_number	1
_symmetry_cell_setting	triclinic
loop_
_symmetry_equiv_pos_as_xyz
  x,y,z
_cell_length_a	17.640112
_cell_length_b	18.101395
_cell_length_c	17.640968
_cell_angle_alpha	101.229078
_cell_angle_beta	87.860920
_cell_angle_gamma	101.255692
loop_
_atom_site_label
_atom_site_type_symbol
_atom_site_fract_x
_atom_site_fract_y
_atom_site_fract_z
Zn1	Zn	1.247775	-0.021279	0.195081
Zn2	Zn	1.747775	0.478721	0.695081
Zn3	Zn	1.221983	-0.174071	0.068105
Zn4	Zn	1.721983	0.325929	0.568105
Zn5	Zn	1.095100	-0.069453	0.093729
Zn6	Zn	1.595100	0.430547	0.593729
Zn7	Zn	1.120725	-0.164323	0.220687
Zn8	Zn	1.620725	0.335677	0.720687
O9	O	1.171396	-0.107282	0.144400
O10	O	1.671396	0.392718	0.644400
O11	O	1.350625	-0.025466	0.156797
O12	O	1.850625	0.474534	0.656797
O13	O	1.183633	-0.184434	-0.034768
O14	O	1.683633	0.315566	0.465232
O15	O	1.115423	0.040585	0.107181
O16	O	1.615423	0.540585	0.607181
O17	O	1.331676	-0.137722	0.063509
O18	O	1.831676	0.362278	0.563509
O19	O	1.227592	0.075978	0.181644
O20	O	1.727592	0.575978	0.681644
O21	O	1.090413	-0.107572	-0.015942
O22	O	1.590413	0.392428	0.484058
O23	O	0.992228	-0.098119	0.132010
O24	O	1.492228	0.401881	0.632010
O25	O	1.159097	-0.121107	0.323562
O26	O	1.659097	0.378893	0.823562
O27	O	1.011054	-0.167820	0.225285
O28	O	1.511054	0.332180	0.725285
O29	O	1.252440	-0.016013	0.304750
O30	O	1.752440	0.483987	0.804750
O31	O	1.208481	-0.276426	0.088338
O32	O	1.708481	0.223574	0.588338
O33	O	1.134087	-0.269264	0.200439
O34	O	1.634087	0.230736	0.700439
C35	C	0.974086	-0.137139	0.184207
C36	C	1.474086	0.362861	0.684207
C37	C	0.889679	-0.149927	0.201255
C38	C	1.389679	0.350073	0.701255
C39	C	0.563038	-0.010125	0.014899
C40	C	1.063038	0.489875	0.514899
C41	C	0.483727	-0.022153	0.030928
C42	C	0.983727	0.477847	0.530928
C43	C	0.503352	-0.094901	0.127887
C44	C	1.003352	0.405099	0.627887
C45	C	0.582666	-0.082876	0.111869
C46	C	1.082666	0.417124	0.611869
C47	C	0.612502	-0.040488	0.055373
C48	C	1.112502	0.459512	0.555373
C49	C	0.632131	-0.113239	0.152344
C50	C	1.132131	0.386761	0.652344
C51	C	0.711437	-0.101218	0.136324
C52	C	1.211437	0.398782	0.636324
C53	C	0.741280	-0.058834	0.079829
C54	C	1.241280	0.441166	0.579829
C55	C	0.691809	-0.028467	0.039353
C56	C	1.191809	0.471533	0.539353
C57	C	0.602292	-0.155631	0.208836
C58	C	1.102292	0.344369	0.708836
C59	C	0.651757	-0.185994	0.249311
C60	C	1.151757	0.314006	0.749311
C61	C	0.731066	-0.173968	0.233295
C62	C	1.231066	0.326032	0.733295
C63	C	0.760908	-0.131585	0.176800
C64	C	1.260908	0.368415	0.676800
C65	C	0.780536	-0.204335	0.273771
C66	C	1.280536	0.295665	0.773771
C67	C	0.859843	-0.192314	0.257751
C68	C	1.359843	0.307686	0.757751
C69	C	0.840215	-0.119564	0.160780
C70	C	1.340215	0.380436	0.660780
C71	C	1.171290	-0.299713	0.144399
C72	C	1.671290	0.200287	0.644399
C73	C	1.171319	-0.382019	0.144409
C74	C	1.671319	0.117981	0.644409
C75	C	1.171494	-0.681075	0.144416
C76	C	1.671494	-0.181075	0.644416
C77	C	1.124853	-0.645221	0.215066
C78	C	1.624853	-0.145221	0.715066
C79	C	1.124537	-0.559687	0.214938
C80	C	1.624537	-0.059687	0.714938
C81	C	1.171407	-0.532710	0.144413
C82	C	1.671407	-0.032710	0.644413
C83	C	1.133552	-0.585373	0.068746
C84	C	1.633552	-0.085373	0.568746
C85	C	1.133246	-0.670995	0.069175
C86	C	1.633246	-0.170995	0.569175
C87	C	1.255975	-0.632588	0.148704
C88	C	1.755975	-0.132588	0.648704
C89	C	1.255858	-0.546609	0.150555
C90	C	1.755858	-0.046609	0.650555
C91	C	1.171358	-0.448861	0.144407
C92	C	1.671358	0.051139	0.644407
C93	C	1.171539	-0.764926	0.144418
C94	C	1.671539	-0.264926	0.644418
C95	C	1.369476	-0.077307	0.104439
C96	C	1.869476	0.422693	0.604439
C97	C	1.453886	-0.064534	0.087409
C98	C	1.953886	0.435466	0.587409
C99	C	1.211504	-0.062099	0.342481
C100	C	1.711504	0.437901	0.842481
C101	C	1.228596	-0.042845	0.426892
C102	C	1.728596	0.457155	0.926892
C103	C	1.171526	0.085908	0.144415
C104	C	1.671526	0.585908	0.644415
C105	C	1.171582	0.168234	0.144421
C106	C	1.671582	0.668234	0.644421
C107	C	1.131487	-0.152228	-0.052919
C108	C	1.631487	0.347772	0.447081
C109	C	1.114543	-0.171252	-0.137358
C110	C	1.614543	0.328748	0.362642
C111	C	1.041843	-0.253106	0.753474
C112	C	1.541843	0.246894	1.253474
C113	C	1.057920	-0.235002	0.832787
C114	C	1.557920	0.264998	1.332787
C115	C	1.155109	-0.125577	0.813189
C116	C	1.655109	0.374423	1.313189
C117	C	1.139039	-0.143670	0.733873
C118	C	1.639039	0.356330	1.233873
C119	C	1.082405	-0.207436	0.704022
C120	C	1.582405	0.292564	1.204022
C121	C	1.179601	-0.097999	0.684421
C122	C	1.679601	0.402001	1.184421
C123	C	1.163534	-0.116093	0.605112
C124	C	1.663534	0.383907	1.105112
C125	C	1.106905	-0.179858	0.575254
C126	C	1.606905	0.320142	1.075254
C127	C	1.066339	-0.225530	0.624712
C128	C	1.566339	0.274470	1.124712
C129	C	1.236238	-0.034237	0.714273
C130	C	1.736238	0.465763	1.214273
C131	C	1.276800	0.011433	0.664821
C132	C	1.776800	0.511433	1.164821
C133	C	1.260729	-0.006657	0.585511
C134	C	1.760729	0.493343	1.085511
C135	C	1.204100	-0.070421	0.555653
C136	C	1.704100	0.429579	1.055653
C137	C	1.301296	0.039015	0.536052
C138	C	1.801296	0.539015	1.036052
C139	C	1.285229	0.020921	0.456743
C140	C	1.785229	0.520921	0.956743
C141	C	1.188033	-0.088515	0.476344
C142	C	1.688033	0.411485	0.976344
H143	H	0.805856	-0.049049	0.066785
H144	H	1.305856	0.450951	0.566785
H145	H	1.024885	-0.272198	0.873049
H146	H	1.524885	0.227802	1.373049
H147	H	0.627452	-0.220508	0.295307
H148	H	1.127452	0.279492	0.795307
H149	H	0.587334	0.024405	-0.031095
H150	H	1.087334	0.524405	0.468905
N151	N	0.433190	0.008868	-0.010406
N152	N	0.933190	0.508868	0.489594
N153	N	0.362382	-0.001868	0.003904
N154	N	0.862382	0.498132	0.503904
H155	H	0.326688	0.020038	-0.025288
H156	H	0.826688	0.520038	0.474712
H157	H	1.249319	-0.019509	0.778852
H158	H	1.749319	0.480491	1.278852
N159	N	0.910376	-0.223311	0.299109
N160	N	1.410376	0.276689	0.799109
N161	N	0.964456	-0.179563	0.338604
N162	N	1.464456	0.320437	0.838604
H163	H	1.000145	-0.201456	0.367814
H164	H	1.500145	0.298544	0.867814
N165	N	1.172893	-0.702193	0.001968
N166	N	1.672893	-0.202193	0.501968
N167	N	1.200696	-0.660717	-0.045105
N168	N	1.700696	-0.160717	0.454895
H169	H	1.228687	-0.682750	-0.092576
H170	H	1.728687	-0.182750	0.407424
H171	H	0.479047	-0.129416	0.173884
H172	H	0.979047	0.370584	0.673884
N173	N	1.156603	-0.513734	0.285960
N174	N	1.656603	-0.013734	0.785960
N175	N	1.179371	-0.544759	0.335969
N176	N	1.679371	-0.044759	0.835969
H177	H	1.202016	-0.512308	0.386133
H178	H	1.702016	-0.012308	0.886133
N179	N	1.008476	-0.290660	0.594228
N180	N	1.508476	0.209340	1.094228
N181	N	0.972255	-0.331428	0.638389
N182	N	1.472255	0.168572	1.138389
H183	H	0.931390	-0.377424	0.616860
H184	H	1.431390	0.122576	1.116860
H185	H	0.864511	-0.085034	0.114787
H186	H	1.364511	0.414966	0.614787
N187	N	1.295323	-0.639479	0.215664
N188	N	1.795323	-0.139479	0.715664
N189	N	1.305068	-0.703857	0.224476
N190	N	1.805068	-0.203857	0.724476
H191	H	1.332852	-0.708726	0.271770
H192	H	1.832852	-0.208726	0.771770
N193	N	0.722312	0.014840	-0.018344
N194	N	1.222312	0.514840	0.481656
N195	N	0.772021	0.074810	-0.000473
N196	N	1.272021	0.574810	0.499527
H197	H	0.793567	0.105395	-0.041218
H198	H	1.293567	0.605395	0.458782
N199	N	1.056170	-0.574659	0.061271
N200	N	1.556170	-0.074659	0.561271
N201	N	1.015967	-0.611666	0.004453
N202	N	1.515967	-0.111666	0.504453
H203	H	0.961315	-0.604101	-0.000824
H204	H	1.461315	-0.104101	0.499176
N205	N	1.156843	-0.651378	0.286361
N206	N	1.656843	-0.151378	0.786361
N207	N	1.214385	-0.682269	0.285938
N208	N	1.714385	-0.182269	0.785938
H209	H	1.236995	-0.686599	0.336293
H210	H	1.736995	-0.186599	0.836293
N211	N	0.521284	-0.167891	0.225210
N212	N	1.021284	0.332109	0.725210
N213	N	0.489154	-0.111858	0.248342
N214	N	0.989154	0.388142	0.748342
H215	H	0.431943	-0.120513	0.259910
H216	H	0.931943	0.379487	0.759910
N217	N	1.359150	0.104137	0.566560
N218	N	1.859150	0.604137	1.066560
N219	N	1.373494	0.120278	0.637372
N220	N	1.873494	0.620278	1.137372
H221	H	1.414355	0.166270	0.658919
H222	H	1.914355	0.666270	1.158919
H223	H	0.995709	-0.305016	0.729171
H224	H	1.495709	0.194984	1.229171
H225	H	1.062956	-0.678821	0.213602
H226	H	1.562956	-0.178821	0.713602
N227	N	1.291295	-0.501126	0.220315
N228	N	1.791295	-0.001126	0.720315
N229	N	1.254541	-0.458615	0.265376
N230	N	1.754541	0.041385	0.765376
H231	H	1.279565	-0.426490	0.314646
H232	H	1.779565	0.073510	0.814646
N233	N	1.303381	-0.522380	0.089083
N234	N	1.803381	-0.022380	0.589083
N235	N	1.275658	-0.494354	0.039523
N236	N	1.775658	0.005646	0.539523
H237	H	1.309217	-0.477247	-0.003899
H238	H	1.809217	0.022753	0.496101
N239	N	0.750040	-0.247640	0.331466
N240	N	1.250040	0.252360	0.831466
N241	N	0.679228	-0.258375	0.345755
N242	N	1.179228	0.241625	0.845755
H243	H	0.657689	-0.288960	0.386503
H244	H	1.157689	0.211040	0.886503
H245	H	1.062244	-0.551372	0.213376
H246	H	1.562244	-0.051372	0.713376
H247	H	1.071008	-0.703884	0.063660
H248	H	1.571008	-0.203884	0.563660
N249	N	1.173930	-0.564831	0.001804
N250	N	1.673930	-0.064831	0.501804
N251	N	1.178853	-0.498715	-0.011513
N252	N	1.678853	0.001285	0.488487
H253	H	1.207372	-0.484203	-0.058790
H254	H	1.707372	0.015797	0.441210
N255	N	1.130169	-0.153638	0.445844
N256	N	1.630169	0.346362	0.945844
N257	N	1.061891	-0.157303	0.468839
N258	N	1.561891	0.342697	0.968839
H259	H	1.021026	-0.203293	0.447297
H260	H	1.521026	0.296707	0.947297
H261	H	1.290923	-0.655996	0.097050
H262	H	1.790923	-0.155996	0.597050
N263	N	1.090473	-0.198349	0.494245
N264	N	1.590473	0.301651	0.994245
N265	N	1.039905	-0.255281	0.467603
N266	N	1.539905	0.244719	0.967603
H267	H	1.028299	-0.268342	0.410391
H268	H	1.528299	0.231658	0.910391
H269	H	1.201222	-0.073661	0.837504
H270	H	1.701222	0.426339	1.337504
H271	H	1.322913	0.063350	0.689136
H272	H	1.822913	0.563350	1.189136
N273	N	1.326646	0.067581	0.406225
N274	N	1.826646	0.567581	0.906225
N275	N	1.290986	0.100635	0.367367
N276	N	1.790986	0.600635	0.867367
H277	H	1.320238	0.133588	0.331688
H278	H	1.820238	0.633588	0.831688
