data_functionalizedCrystal
_audit_creation_method	'MofGen! by Chris Wilmer'
_symmetry_space_group_name_H-M	'P1'
_symmetry_Int_Tables_number	1
_symmetry_cell_setting	triclinic
loop_
_symmetry_equiv_pos_as_xyz
  x,y,z
_cell_length_a	16.992694
_cell_length_b	12.996460
_cell_length_c	16.992695
_cell_angle_alpha	89.999594
_cell_angle_beta	89.331777
_cell_angle_gamma	90.000812
loop_
_atom_site_label
_atom_site_type_symbol
_atom_site_fract_x
_atom_site_fract_y
_atom_site_fract_z
O1	O	1.050853	0.085439	-0.166911
O2	O	1.384186	0.418772	0.166422
O3	O	1.717519	0.752106	0.499755
O4	O	0.822453	0.085469	-0.165080
O5	O	1.155786	0.418802	0.168253
O6	O	1.489119	0.752136	0.501587
O7	O	0.935737	0.085446	-0.051796
O8	O	1.269071	0.418779	0.281538
O9	O	1.602404	0.752113	0.614871
O10	O	0.937568	0.085462	-0.280196
O11	O	1.270902	0.418795	0.053138
O12	O	1.604235	0.752129	0.386471
O13	O	0.935722	-0.085688	-0.051802
O14	O	1.269055	0.247645	0.281532
O15	O	1.602389	0.580979	0.614865
O16	O	0.822438	-0.085665	-0.165086
O17	O	1.155771	0.247669	0.168247
O18	O	1.489104	0.581002	0.501580
O19	O	1.050838	-0.085695	-0.166917
O20	O	1.384171	0.247638	0.166416
O21	O	1.717504	0.580972	0.499749
Cu22	Cu	0.936636	-0.101306	-0.166002
Cu23	Cu	1.269970	0.232028	0.167331
Cu24	Cu	1.603303	0.565361	0.500664
Cu25	Cu	0.936654	0.101080	-0.165995
Cu26	Cu	1.269988	0.434413	0.167338
Cu27	Cu	1.603321	0.767747	0.500671
O28	O	0.937553	-0.085672	-0.280202
O29	O	1.270887	0.247662	0.053131
O30	O	1.604220	0.580995	0.386465
C31	C	0.793085	-0.000094	-0.162727
C32	C	1.126418	0.333239	0.170606
C33	C	1.459752	0.666573	0.503939
C34	C	0.705600	-0.000083	-0.155699
C35	C	1.038934	0.333251	0.177635
C36	C	1.372267	0.666584	0.510968
N37	N	0.936629	-0.243653	-0.166007
N38	N	1.269963	0.089681	0.167326
N39	N	1.603296	0.423014	0.500659
C40	C	0.659610	-0.000079	-0.223517
C41	C	0.992943	0.333255	0.109817
C42	C	1.326276	0.666588	0.443150
C43	C	0.577409	-0.000093	-0.216908
C44	C	0.910742	0.333240	0.116426
C45	C	1.244076	0.666573	0.449759
C46	C	0.541201	-0.000105	-0.142480
C47	C	0.874534	0.333229	0.190853
C48	C	1.207867	0.666562	0.524187
C49	C	0.587198	-0.000112	-0.074657
C50	C	0.920531	0.333222	0.258676
C51	C	1.253864	0.666555	0.592010
C52	C	0.669397	-0.000104	-0.081267
C53	C	1.002730	0.333229	0.252067
C54	C	1.336063	0.666562	0.585400
C55	C	0.295886	-0.000134	-0.115086
C56	C	0.629220	0.333199	0.218248
C57	C	0.962553	0.666533	0.551581
C58	C	0.213681	-0.000138	-0.108481
C59	C	0.547014	0.333195	0.224852
C60	C	0.880348	0.666528	0.558186
C61	C	0.203898	-0.000122	-0.250732
C62	C	0.537231	0.333212	0.082601
C63	C	0.870565	0.666545	0.415934
C64	C	0.286099	-0.000108	-0.257336
C65	C	0.619432	0.333225	0.075998
C66	C	0.952766	0.666558	0.409331
C67	C	0.332089	-0.000121	-0.189512
C68	C	0.665422	0.333213	0.143821
C69	C	0.998756	0.666546	0.477154
N70	N	0.457178	-0.000116	-0.135723
N71	N	0.790512	0.333217	0.197610
N72	N	1.123845	0.666550	0.530944
N73	N	0.416110	-0.000116	-0.196270
N74	N	0.749443	0.333217	0.137063
N75	N	1.082776	0.666550	0.470396
C76	C	0.936633	-0.336759	-0.166009
C77	C	1.269966	-0.003425	0.167324
C78	C	1.603300	0.329908	0.500657
C79	C	0.936640	-0.453564	-0.166005
C80	C	1.269973	-0.120231	0.167329
C81	C	1.603307	0.213103	0.500662
C82	C	0.936649	-0.546662	-0.165997
C83	C	1.269983	-0.213329	0.167337
C84	C	1.603316	0.120004	0.500670
C85	C	0.936658	-0.663475	-0.165993
C86	C	1.269991	-0.330141	0.167341
C87	C	1.603324	0.003192	0.500674
C88	C	1.080205	-0.000130	-0.169270
C89	C	1.413539	0.333204	0.164063
C90	C	1.746872	0.666537	0.497397
C91	C	1.167690	-0.000134	-0.176299
C92	C	1.501023	0.333199	0.157034
C93	C	1.834357	0.666532	0.490368
C94	C	0.933374	-0.000121	-0.022439
C95	C	1.266707	0.333213	0.310895
C96	C	1.600041	0.666546	0.644228
C97	C	0.926345	-0.000119	0.065046
C98	C	1.259678	0.333214	0.398379
C99	C	1.593012	0.666547	0.731713
N100	N	0.936667	0.243427	-0.165984
N101	N	1.270000	0.576760	0.167349
N102	N	1.603334	0.910094	0.500682
C103	C	0.939917	-0.000103	-0.309559
C104	C	1.273250	0.333230	0.023774
C105	C	1.606583	0.666564	0.357108
C106	C	0.946945	-0.000097	-0.397044
C107	C	1.280279	0.333236	-0.063710
C108	C	1.613612	0.666569	0.269623
C109	C	0.994163	-0.000129	0.111037
C110	C	1.327496	0.333204	0.444370
C111	C	1.660830	0.666537	0.777704
C112	C	0.987554	-0.000119	0.193238
C113	C	1.320887	0.333215	0.526571
C114	C	1.654221	0.666548	0.859904
C115	C	0.913127	-0.000105	0.229446
C116	C	1.246460	0.333228	0.562779
C117	C	1.579793	0.666561	0.896113
C118	C	0.845303	-0.000092	0.183449
C119	C	1.178637	0.333241	0.516782
C120	C	1.511970	0.666574	0.850116
C121	C	0.851913	-0.000096	0.101250
C122	C	1.185246	0.333238	0.434583
C123	C	1.518580	0.666571	0.767916
C124	C	0.885732	-0.000088	0.474760
C125	C	1.219065	0.333246	0.808094
C126	C	1.552399	0.666579	1.141427
C127	C	0.879127	-0.000087	0.556966
C128	C	1.212461	0.333246	0.890299
C129	C	1.545794	0.666579	1.223632
C130	C	1.021379	-0.000112	0.566749
C131	C	1.354712	0.333221	0.900082
C132	C	1.688045	0.666555	1.233415
C133	C	1.027982	-0.000121	0.484547
C134	C	1.361315	0.333212	0.817881
C135	C	1.694649	0.666545	1.151214
C136	C	0.960159	-0.000103	0.438558
C137	C	1.293492	0.333230	0.771891
C138	C	1.626826	0.666564	1.105224
N139	N	0.906369	-0.000098	0.313468
N140	N	1.239703	0.333236	0.646801
N141	N	1.573036	0.666569	0.980135
N142	N	0.966917	-0.000103	0.354537
N143	N	1.300250	0.333230	0.687870
N144	N	1.633583	0.666564	1.021204
H145	H	0.689084	-0.000069	-0.284124
H146	H	1.022417	0.333265	0.049210
H147	H	1.355751	0.666598	0.382543
H148	H	1.088589	-0.000132	0.455073
H149	H	1.421922	0.333201	0.788406
H150	H	1.755255	0.666534	1.121739
H151	H	0.315574	-0.000087	-0.317942
H152	H	0.648907	0.333246	0.015391
H153	H	0.982240	0.666579	0.348724
H154	H	1.076596	-0.000125	0.604202
H155	H	1.409930	0.333208	0.937535
H156	H	1.743263	0.666541	1.270869
H157	H	0.166444	-0.000114	-0.305950
H158	H	0.499778	0.333220	0.027384
H159	H	0.833111	0.666553	0.360717
H160	H	1.042779	-0.000129	0.230680
H161	H	1.376112	0.333204	0.564014
H162	H	1.709446	0.666537	0.897347
H163	H	0.184203	-0.000146	-0.047870
H164	H	0.517537	0.333187	0.285463
H165	H	0.850870	0.666520	0.618797
H166	H	0.333322	-0.000145	-0.059859
H167	H	0.666655	0.333188	0.273475
H168	H	0.999988	0.666522	0.606808
H169	H	0.784703	-0.000075	0.212936
H170	H	1.118036	0.333258	0.546270
H171	H	1.451369	0.666592	0.879603
H172	H	0.706842	-0.000107	-0.026042
H173	H	1.040175	0.333226	0.307291
H174	H	1.373509	0.666560	0.640625
H175	H	1.054770	-0.000147	0.081563
H176	H	1.388103	0.333187	0.414896
H177	H	1.721437	0.666520	0.748229
H178	H	0.796688	-0.000087	0.063804
H179	H	1.130022	0.333246	0.397138
H180	H	1.463355	0.666580	0.730471
H181	H	0.818516	-0.000093	0.586443
H182	H	1.151850	0.333240	0.919777
H183	H	1.485183	0.666573	1.253110
H184	H	0.557710	-0.000135	-0.014056
H185	H	0.891044	0.333198	0.319277
H186	H	1.224377	0.666531	0.652610
H187	H	0.830505	-0.000073	0.437325
H188	H	1.163839	0.333261	0.770658
H189	H	1.497172	0.666594	1.103992
H190	H	0.539966	-0.000089	-0.272133
H191	H	0.873300	0.333244	0.061201
H192	H	1.206633	0.666578	0.394534
