data_functionalizedCrystal
_audit_creation_method	'MofGen! by Chris Wilmer'
_symmetry_space_group_name_H-M	'P1'
_symmetry_Int_Tables_number	1
_symmetry_cell_setting	triclinic
loop_
_symmetry_equiv_pos_as_xyz
  x,y,z
_cell_length_a	13.033293
_cell_length_b	29.839131
_cell_length_c	13.032268
_cell_angle_alpha	97.133728
_cell_angle_beta	89.079182
_cell_angle_gamma	97.203227
loop_
_atom_site_label
_atom_site_type_symbol
_atom_site_fract_x
_atom_site_fract_y
_atom_site_fract_z
Zn1	Zn	1.498373	-0.139770	-0.781400
Zn2	Zn	1.520074	-0.204330	-0.609388
Zn3	Zn	1.348235	-0.137397	-0.587577
Zn4	Zn	1.326313	-0.223058	-0.759417
O5	O	1.423249	-0.176139	-0.684445
O6	O	1.645175	-0.141489	-0.776910
O7	O	1.515536	-0.186621	-0.462592
O8	O	1.368243	-0.074844	-0.613359
O9	O	1.661119	-0.188921	-0.650534
O10	O	1.478549	-0.076587	-0.755760
O11	O	1.389286	-0.137445	-0.446567
O12	O	1.201403	-0.155605	-0.592044
O13	O	1.330881	-0.220840	-0.906237
O14	O	1.185298	-0.218540	-0.718294
O15	O	1.457292	-0.159649	-0.922387
O16	O	1.494279	-0.269683	-0.629219
O17	O	1.351924	-0.283442	-0.739444
C18	C	1.156033	-0.188848	-0.650417
C19	C	1.041714	-0.194297	-0.635884
C20	C	0.982845	-0.173306	-0.692030
C21	C	0.864690	-0.178938	-0.677011
C22	C	1.423103	-0.292864	-0.684339
C23	C	1.423130	-0.342797	-0.684340
C24	C	1.480659	-0.653318	-0.758686
C25	C	1.480762	-0.840990	-0.758761
O26	O	1.529530	-0.866005	-0.821889
N27	N	1.423409	-0.863580	-0.684582
C28	C	1.366020	-0.839249	-0.610382
O29	O	1.317231	-0.862770	-0.547296
C30	C	1.365911	-0.651579	-0.610311
C31	C	1.423277	-0.628991	-0.684490
C32	C	1.538019	-0.630730	-0.832858
C33	C	1.537997	-0.583815	-0.832835
C34	C	1.480615	-0.559487	-0.758639
C35	C	1.423254	-0.582075	-0.684466
C36	C	1.308517	-0.627250	-0.536117
C37	C	1.308492	-0.580330	-0.536108
C38	C	1.365858	-0.557742	-0.610286
C39	C	1.365850	-0.510832	-0.610247
N40	N	1.423204	-0.488243	-0.684427
C41	C	1.480586	-0.512570	-0.758623
C42	C	1.366083	-0.937778	-0.610423
C43	C	1.366111	-0.984696	-0.610439
C44	C	1.480853	-0.986433	-0.758820
C45	C	1.480829	-0.939515	-0.758799
C46	C	1.423436	-0.915189	-0.684603
C47	C	1.480536	-0.414044	-0.758568
C48	C	1.480512	-0.367124	-0.758536
C49	C	1.365767	-0.365391	-0.610158
C50	C	1.365795	-0.412306	-0.610187
C51	C	1.423182	-0.436632	-0.684401
O52	O	1.317099	-0.485790	-0.547160
O53	O	1.529349	-0.489043	-0.821714
C54	C	1.480681	-0.700234	-0.758709
C55	C	1.423321	-0.722822	-0.684536
C56	C	1.365938	-0.698494	-0.610340
C57	C	1.423349	-0.769739	-0.684552
C58	C	1.480731	-0.794067	-0.758748
C59	C	1.538085	-0.771477	-0.832928
C60	C	1.538063	-0.724561	-0.832905
C61	C	1.308585	-0.721084	-0.536160
C62	C	1.308613	-0.768000	-0.536189
C63	C	1.365995	-0.792327	-0.610385
C64	C	1.691508	-0.163381	-0.718607
C65	C	1.805824	-0.157944	-0.733165
C66	C	1.389220	-0.192598	-0.952667
C67	C	1.374720	-0.199612	-1.066968
C68	C	1.423420	-0.058958	-0.684579
C69	C	1.423493	-0.009023	-0.684635
C70	C	1.430801	-0.172463	-1.125917
C71	C	1.415815	-0.179711	-1.244053
C72	C	1.457204	-0.159708	-0.417275
C73	C	1.471904	-0.152558	-0.303000
H74	H	1.527230	-0.348734	-0.818941
N75	N	1.246731	-0.792356	-0.456173
H76	H	1.193746	-0.816659	-0.491862
H77	H	1.294677	-0.806878	-0.413902
H78	H	1.019920	-0.151164	-0.751214
N79	N	1.550206	-0.114655	-1.254030
H80	H	1.514053	-0.093108	-1.204164
H81	H	1.603435	-0.127966	-1.215567
H82	H	0.827621	-0.201078	-0.617817
N83	N	0.992611	-0.223621	-0.557476
H84	H	0.942729	-0.249137	-0.593545
H85	H	1.048190	-0.236824	-0.522090
H86	H	1.527577	-1.006249	-0.819233
H87	H	1.527258	-0.433845	-0.819006
N88	N	0.854915	-0.128618	-0.811579
H89	H	0.799394	-0.115384	-0.846985
H90	H	0.904804	-0.103125	-0.775444
H91	H	1.356697	-0.208321	-1.281037
H92	H	1.261856	-0.701280	-0.475742
N93	N	1.509122	-0.134573	-1.076937
H94	H	1.508738	-0.134770	-0.999489
H95	H	1.580195	-0.139227	-1.105018
H96	H	1.584775	-0.706174	-0.893308
N97	N	1.599861	-0.559456	-0.912849
H98	H	1.636207	-0.581993	-0.959851
H99	H	1.551910	-0.544909	-0.955061
H100	H	1.315606	-0.228220	-1.103957
N101	N	1.246586	-0.554093	-0.456082
H102	H	1.210254	-0.575524	-0.409099
H103	H	1.294509	-0.529710	-0.413849
N104	N	1.599885	-0.656968	-0.912914
H105	H	1.636202	-0.635533	-0.959899
H106	H	1.652843	-0.671597	-0.877195
H107	H	1.527541	-0.921126	-0.819201
H108	H	1.319092	-0.430697	-0.549778
N109	N	1.304257	-1.009054	-0.530420
H110	H	1.267903	-0.986519	-0.483420
H111	H	1.251329	-1.033362	-0.566177
H112	H	1.319345	-0.917975	-0.550001
H113	H	1.319050	-0.345576	-0.549746
N114	N	1.246645	-0.651605	-0.456108
H115	H	1.210291	-0.629068	-0.409114
H116	H	1.193717	-0.675911	-0.491870
H117	H	1.584812	-0.791292	-0.893338
