data_functionalizedCrystal
_audit_creation_method	'MofGen! by Chris Wilmer'
_symmetry_space_group_name_H-M	'P1'
_symmetry_Int_Tables_number	1
_symmetry_cell_setting	triclinic
loop_
_symmetry_equiv_pos_as_xyz
  x,y,z
_cell_length_a	13.897449
_cell_length_b	12.594516
_cell_length_c	13.897441
_cell_angle_alpha	89.974595
_cell_angle_beta	89.981404
_cell_angle_gamma	90.017332
loop_
_atom_site_label
_atom_site_type_symbol
_atom_site_fract_x
_atom_site_fract_y
_atom_site_fract_z
Zn1	Zn	1.474693	-0.423682	-0.545409
Zn2	Zn	1.974693	0.076318	-0.045409
Zn3	Zn	1.474598	-0.601690	-0.384123
Zn4	Zn	1.974598	-0.101690	0.115877
Zn5	Zn	1.313388	-0.423730	-0.384128
Zn6	Zn	1.813388	0.076270	0.115872
Zn7	Zn	1.313369	-0.601623	-0.545375
Zn8	Zn	1.813369	-0.101623	-0.045375
O9	O	1.394012	-0.512681	-0.464759
O10	O	1.894012	-0.012681	0.035241
O11	O	1.609662	-0.447303	-0.524027
O12	O	2.109662	0.052697	-0.024027
O13	O	1.453181	-0.578131	-0.249142
O14	O	1.953181	-0.078131	0.250858
O15	O	1.334834	-0.274778	-0.405539
O16	O	1.834834	0.225222	0.094461
O17	O	1.609592	-0.578085	-0.405530
O18	O	2.109592	-0.078085	0.094470
O19	O	1.453344	-0.274743	-0.524032
O20	O	1.953344	0.225257	-0.024032
O21	O	1.334742	-0.447384	-0.249145
O22	O	1.834742	0.052616	0.250855
O23	O	1.178404	-0.447320	-0.405506
O24	O	1.678404	0.052680	0.094494
O25	O	1.334800	-0.577971	-0.680362
O26	O	1.834800	-0.077971	-0.180362
O27	O	1.178390	-0.578017	-0.523973
O28	O	1.678390	-0.078017	-0.023973
O29	O	1.453325	-0.447238	-0.680387
O30	O	1.953325	0.052762	-0.180387
O31	O	1.453162	-0.750627	-0.405497
O32	O	1.953162	-0.250627	0.094503
O33	O	1.334708	-0.750578	-0.523968
O34	O	1.834708	-0.250578	-0.023968
C35	C	1.143398	-0.512667	-0.464737
C36	C	1.643398	-0.012667	0.035263
C37	C	1.036184	-0.512686	-0.464750
C38	C	1.536184	-0.012686	0.035250
C39	C	0.839889	-0.512690	-0.464776
C40	C	1.339889	-0.012690	0.035224
C41	C	0.949121	-0.512685	-0.464759
C42	C	1.449121	-0.012685	0.035241
C43	C	1.393949	-0.789222	-0.464749
C44	C	1.893949	-0.289222	0.035251
C45	C	1.394010	-0.907528	-0.464778
C46	C	1.894010	-0.407528	0.035222
C47	C	1.329576	-0.976793	-0.529169
C48	C	1.829576	-0.476793	-0.029169
C49	C	1.306076	-1.047657	-0.441152
C50	C	1.806076	-0.547657	0.058848
C51	C	1.417598	-1.047462	-0.552810
C52	C	1.917598	-0.547462	-0.052810
C53	C	1.370463	-0.976834	-0.376714
C54	C	1.870463	-0.476834	0.123286
C55	C	1.482026	-0.976632	-0.488431
C56	C	1.982026	-0.476632	0.011569
C57	C	1.458559	-1.047465	-0.400353
C58	C	1.958559	-0.547465	0.099647
C59	C	1.645605	-0.512696	-0.464781
C60	C	2.145605	-0.012696	0.035219
C61	C	1.752819	-0.512703	-0.464791
C62	C	2.252819	-0.012703	0.035209
C63	C	1.394071	-0.512592	-0.716352
C64	C	1.894071	-0.012592	-0.216352
C65	C	1.394096	-0.512554	-0.823566
C66	C	1.894096	-0.012554	-0.323566
C67	C	1.394102	-0.235060	-0.464789
C68	C	1.894102	0.264940	0.035211
C69	C	1.394140	-0.116755	-0.464802
C70	C	1.894140	0.383245	0.035198
C71	C	1.394116	-0.512524	-0.910636
C72	C	1.894116	-0.012524	-0.410636
C73	C	1.394144	-0.512476	-1.019868
C74	C	1.894144	-0.012476	-0.519868
C75	C	1.394009	-0.512693	-0.214145
C76	C	1.894009	-0.012693	0.285855
C77	C	1.394170	-0.512432	-0.106931
C78	C	1.894170	-0.012432	0.393069
H79	H	1.231703	-1.078878	-0.421166
H80	H	1.731703	-0.578878	0.078834
H81	H	1.556382	-0.945415	-0.508459
H82	H	2.056382	-0.445415	-0.008459
C83	C	1.444201	-1.088622	-0.652115
C84	C	1.944201	-0.588622	-0.152115
C85	C	1.459829	-1.002677	-0.714123
C86	C	1.959829	-0.502677	-0.214123
C87	C	1.484341	-1.040548	-0.805608
C88	C	1.984341	-0.540548	-0.305608
H89	H	1.393269	-1.131200	-0.676369
H90	H	1.893269	-0.631200	-0.176369
H91	H	1.501177	-1.130022	-0.647858
H92	H	2.001177	-0.630022	-0.147858
H93	H	1.402860	-0.961295	-0.718383
H94	H	1.902860	-0.461295	-0.218383
H95	H	1.510765	-0.960091	-0.689900
H96	H	2.010765	-0.460091	-0.189900
H97	H	1.541317	-1.081948	-0.801351
H98	H	2.041317	-0.581948	-0.301351
H99	H	1.433405	-1.083126	-0.829853
H100	H	1.933405	-0.583126	-0.329853
H101	H	1.494956	-0.982242	-0.847689
H102	H	1.994956	-0.482242	-0.347689
H103	H	1.350479	-0.945938	-0.302256
H104	H	1.850479	-0.445938	0.197744
H105	H	1.513104	-1.078301	-0.345847
H106	H	2.013104	-0.578301	0.154153
C107	C	1.256644	-0.935462	-0.601545
C108	C	1.756644	-0.435462	-0.101545
C109	C	1.164689	-0.971435	-0.576337
C110	C	1.664689	-0.471435	-0.076337
C111	C	1.097478	-0.933370	-0.642974
C112	C	1.597478	-0.433370	-0.142974
H113	H	1.272612	-0.960659	-0.663951
H114	H	1.772612	-0.460659	-0.163951
H115	H	1.257450	-0.860033	-0.601428
H116	H	1.757450	-0.360033	-0.101428
H117	H	1.163886	-1.046849	-0.576464
H118	H	1.663886	-0.546849	-0.076464
H119	H	1.148691	-0.946241	-0.513942
H120	H	1.648691	-0.446241	-0.013942
H121	H	1.098283	-0.857941	-0.642856
H122	H	1.598283	-0.357941	-0.142856
H123	H	1.113454	-0.958570	-0.705375
H124	H	1.613454	-0.458570	-0.205375
H125	H	1.035078	-0.957764	-0.625874
H126	H	1.535078	-0.457764	-0.125874
