data_functionalizedCrystal
_audit_creation_method	'MofGen! by Chris Wilmer'
_symmetry_space_group_name_H-M	'P1'
_symmetry_Int_Tables_number	1
_symmetry_cell_setting	triclinic
loop_
_symmetry_equiv_pos_as_xyz
  x,y,z
_cell_length_a	16.625548
_cell_length_b	18.215405
_cell_length_c	18.215399
_cell_angle_alpha	90.030551
_cell_angle_beta	89.980331
_cell_angle_gamma	89.974047
loop_
_atom_site_label
_atom_site_type_symbol
_atom_site_fract_x
_atom_site_fract_y
_atom_site_fract_z
Zn1	Zn	1.232660	0.292971	-0.416099
Zn2	Zn	1.482660	0.542971	-0.166099
Zn3	Zn	1.732660	0.792971	0.083901
Zn4	Zn	1.982660	1.042971	0.333901
Zn5	Zn	1.232559	0.416042	-0.293027
Zn6	Zn	1.482559	0.666042	-0.043027
Zn7	Zn	1.732559	0.916042	0.206973
Zn8	Zn	1.982559	1.166042	0.456973
Zn9	Zn	1.097824	0.292996	-0.293047
Zn10	Zn	1.347824	0.542996	-0.043047
Zn11	Zn	1.597824	0.792996	0.206953
Zn12	Zn	1.847824	1.042996	0.456953
Zn13	Zn	1.097786	0.416002	-0.416053
Zn14	Zn	1.347786	0.666002	-0.166053
Zn15	Zn	1.597786	0.916002	0.083947
Zn16	Zn	1.847786	1.166002	0.333947
O17	O	1.165207	0.354503	-0.354557
O18	O	1.415207	0.604503	-0.104557
O19	O	1.665207	0.854503	0.145443
O20	O	1.915207	1.104503	0.395443
O21	O	1.345479	0.309302	-0.399785
O22	O	1.595479	0.559302	-0.149785
O23	O	1.845479	0.809302	0.100215
O24	O	2.095479	1.059302	0.350215
O25	O	1.214660	0.399747	-0.190046
O26	O	1.464660	0.649747	0.059954
O27	O	1.714660	0.899747	0.309954
O28	O	1.964660	1.149747	0.559954
O29	O	1.115768	0.190009	-0.309398
O30	O	1.365768	0.440009	-0.059398
O31	O	1.615768	0.690009	0.190602
O32	O	1.865768	0.940009	0.440602
O33	O	1.345405	0.399722	-0.309365
O34	O	1.595405	0.649722	-0.059365
O35	O	1.845405	0.899722	0.190635
O36	O	2.095405	1.149722	0.440635
O37	O	1.214831	0.189990	-0.399804
O38	O	1.464831	0.439990	-0.149804
O39	O	1.714831	0.689990	0.100196
O40	O	1.964831	0.939990	0.350196
O41	O	1.115670	0.309346	-0.190060
O42	O	1.365670	0.559346	0.059940
O43	O	1.615670	0.809346	0.309940
O44	O	1.865670	1.059346	0.559940
O45	O	0.984986	0.309307	-0.309353
O46	O	1.234986	0.559307	-0.059353
O47	O	1.484986	0.809307	0.190647
O48	O	1.734986	1.059307	0.440647
O49	O	1.115704	0.399655	-0.519043
O50	O	1.365704	0.649655	-0.269043
O51	O	1.615704	0.899655	-0.019043
O52	O	1.865704	1.149655	0.230957
O53	O	0.984959	0.399679	-0.399724
O54	O	1.234959	0.649679	-0.149724
O55	O	1.484959	0.899679	0.100276
O56	O	1.734959	1.149679	0.350276
O57	O	1.214795	0.309264	-0.519077
O58	O	1.464795	0.559264	-0.269077
O59	O	1.714795	0.809264	-0.019077
O60	O	1.964795	1.059264	0.230923
O61	O	1.214624	0.519021	-0.309319
O62	O	1.464624	0.769021	-0.059319
O63	O	1.714624	1.019021	0.190681
O64	O	1.964624	1.269021	0.440681
O65	O	1.115607	0.518992	-0.399705
O66	O	1.365607	0.768992	-0.149705
O67	O	1.615607	1.018992	0.100295
O68	O	1.865607	1.268992	0.350295
C69	C	1.165122	0.545709	-0.354521
C70	C	1.415122	0.795709	-0.104521
C71	C	1.665122	1.045709	0.145479
C72	C	1.915122	1.295709	0.395479
C73	C	1.165159	0.627508	-0.354531
C74	C	1.415159	0.877508	-0.104531
C75	C	1.665159	1.127508	0.145469
C76	C	1.915159	1.377508	0.395469
C77	C	0.955716	0.354492	-0.354536
C78	C	1.205716	0.604492	-0.104536
C79	C	1.455716	0.854492	0.145464
C80	C	1.705716	1.104492	0.395464
C81	C	0.866095	0.354506	-0.354545
C82	C	1.116095	0.604506	-0.104545
C83	C	1.366095	0.854506	0.145455
C84	C	1.616095	1.104506	0.395455
C85	C	1.165256	0.354452	-0.546510
C86	C	1.415256	0.604452	-0.296510
C87	C	1.665256	0.854452	-0.046510
C88	C	1.915256	1.104452	0.203490
C89	C	1.165277	0.354431	-0.628309
C90	C	1.415277	0.604431	-0.378309
C91	C	1.665277	0.854431	-0.128309
C92	C	1.915277	1.104431	0.121691
C93	C	0.537920	0.354510	-0.354576
C94	C	0.787920	0.604510	-0.104576
C95	C	1.037920	0.854510	0.145424
C96	C	1.287920	1.104510	0.395424
C97	C	0.629228	0.354507	-0.354565
C98	C	0.879228	0.604507	-0.104565
C99	C	1.129228	0.854507	0.145435
C100	C	1.379228	1.104507	0.395435
C101	C	0.702005	0.354508	-0.354560
C102	C	0.952005	0.604508	-0.104560
C103	C	1.202005	0.854508	0.145440
C104	C	1.452005	1.104508	0.395440
C105	C	0.793319	0.354504	-0.354550
C106	C	1.043319	0.604504	-0.104550
C107	C	1.293319	0.854504	0.145450
C108	C	1.543319	1.104504	0.395450
C109	C	1.375516	0.354514	-0.354578
C110	C	1.625516	0.604514	-0.104578
C111	C	1.875516	0.854514	0.145422
C112	C	2.125516	1.104514	0.395422
C113	C	1.465137	0.354519	-0.354587
C114	C	1.715137	0.604519	-0.104587
C115	C	1.965137	0.854519	0.145413
C116	C	2.215137	1.104519	0.395413
C117	C	1.165315	0.162550	-0.354608
C118	C	1.415315	0.412550	-0.104608
C119	C	1.665315	0.662550	0.145392
C120	C	1.915315	0.912550	0.395392
C121	C	1.165361	0.080751	-0.354630
C122	C	1.415361	0.330751	-0.104630
C123	C	1.665361	0.580751	0.145370
C124	C	1.915361	0.830751	0.395370
C125	C	1.216839	0.815693	-0.307553
C126	C	1.466839	1.065693	-0.057553
C127	C	1.716839	1.315693	0.192447
C128	C	1.966839	1.565693	0.442447
C129	C	1.216875	0.892551	-0.307571
C130	C	1.466875	1.142551	-0.057571
C131	C	1.716875	1.392551	0.192429
C132	C	1.966875	1.642551	0.442429
C133	C	1.113679	0.892561	-0.401613
C134	C	1.363679	1.142561	-0.151613
C135	C	1.613679	1.392561	0.098387
C136	C	1.863679	1.642561	0.348387
C137	C	1.113648	0.815704	-0.401598
C138	C	1.363648	1.065704	-0.151598
C139	C	1.613648	1.315704	0.098402
C140	C	1.863648	1.565704	0.348402
C141	C	1.165226	0.777272	-0.354564
C142	C	1.415226	1.027272	-0.104564
C143	C	1.665226	1.277272	0.145436
C144	C	1.915226	1.527272	0.395436
C145	C	1.165294	0.930988	-0.354597
C146	C	1.415294	1.180988	-0.104597
C147	C	1.665294	1.430988	0.145403
C148	C	1.915294	1.680988	0.395403
C149	C	1.165332	1.014321	-0.354616
C150	C	1.415332	1.264321	-0.104616
C151	C	1.665332	1.514321	0.145384
C152	C	1.915332	1.764321	0.395384
C153	C	1.165189	0.693933	-0.354545
C154	C	1.415189	0.943933	-0.104545
C155	C	1.665189	1.193933	0.145455
C156	C	1.915189	1.443933	0.395455
C157	C	1.216893	0.307320	-0.816522
C158	C	1.466893	0.557320	-0.566522
C159	C	1.716893	0.807320	-0.316522
C160	C	1.966893	1.057320	-0.066522
C161	C	1.216902	0.307299	-0.893380
C162	C	1.466902	0.557299	-0.643380
C163	C	1.716902	0.807299	-0.393380
C164	C	1.966902	1.057299	-0.143380
C165	C	1.113719	0.401427	-0.893334
C166	C	1.363719	0.651427	-0.643334
C167	C	1.613719	0.901427	-0.393334
C168	C	1.863719	1.151427	-0.143334
C169	C	1.113706	0.401444	-0.816476
C170	C	1.363706	0.651444	-0.566476
C171	C	1.613706	0.901444	-0.316476
C172	C	1.863706	1.151444	-0.066476
C173	C	1.165297	0.354392	-0.778072
C174	C	1.415297	0.604392	-0.528072
C175	C	1.665297	0.854392	-0.278072
C176	C	1.915297	1.104392	-0.028072
C177	C	1.165320	0.354353	-0.931788
C178	C	1.415320	0.604353	-0.681788
C179	C	1.665320	0.854353	-0.431788
C180	C	1.915320	1.104353	-0.181788
C181	C	1.165330	0.354330	-1.015122
C182	C	1.415330	0.604330	-0.765122
C183	C	1.665330	0.854330	-0.515122
C184	C	1.915330	1.104330	-0.265122
C185	C	1.165286	0.354414	-0.694733
C186	C	1.415286	0.604414	-0.444733
C187	C	1.665286	0.854414	-0.194733
C188	C	1.915286	1.104414	0.055267
C189	C	1.165205	0.354500	-0.163350
C190	C	1.415205	0.604500	0.086650
C191	C	1.665205	0.854500	0.336650
C192	C	1.915205	1.104500	0.586650
C193	C	1.165340	0.354315	-0.081552
C194	C	1.415340	0.604315	0.168448
C195	C	1.665340	0.854315	0.418448
C196	C	1.915340	1.104315	0.668448
H197	H	1.258839	0.784403	-0.269256
H198	H	1.508839	1.034403	-0.019256
H199	H	1.758839	1.284403	0.230744
H200	H	2.008839	1.534403	0.480744
H201	H	1.258915	0.268967	-0.924683
H202	H	1.508915	0.518967	-0.674683
H203	H	1.758915	0.768967	-0.424683
H204	H	2.008915	1.018967	-0.174683
H205	H	1.071717	0.439737	-0.924611
H206	H	1.321717	0.689737	-0.674611
H207	H	1.571717	0.939737	-0.424611
H208	H	1.821717	1.189737	-0.174611
Cl209	Cl	1.048762	0.767399	-0.460707
Cl210	Cl	1.298762	1.017399	-0.210707
Cl211	Cl	1.548762	1.267399	0.039293
Cl212	Cl	1.798762	1.517399	0.289293
H213	H	1.071685	0.439775	-0.785170
H214	H	1.321685	0.689775	-0.535170
H215	H	1.571685	0.939775	-0.285170
H216	H	1.821685	1.189775	-0.035170
Cl217	Cl	1.281764	0.940849	-0.248471
Cl218	Cl	1.531764	1.190849	0.001529
Cl219	Cl	1.781764	1.440849	0.251529
Cl220	Cl	2.031764	1.690849	0.501529
Cl221	Cl	1.281747	0.248166	-0.768245
Cl222	Cl	1.531747	0.498166	-0.518245
Cl223	Cl	1.781747	0.748166	-0.268245
Cl224	Cl	2.031747	0.998166	-0.018245
Cl225	Cl	1.048838	0.940881	-0.460736
Cl226	Cl	1.298838	1.190881	-0.210736
Cl227	Cl	1.548838	1.440881	0.039264
Cl228	Cl	1.798838	1.690881	0.289264
