data_functionalizedCrystal
_audit_creation_method	'MofGen! by Chris Wilmer'
_symmetry_space_group_name_H-M	'P1'
_symmetry_Int_Tables_number	1
_symmetry_cell_setting	triclinic
loop_
_symmetry_equiv_pos_as_xyz
  x,y,z
_cell_length_a	18.050591
_cell_length_b	18.050589
_cell_length_c	15.296720
_cell_angle_alpha	99.646980
_cell_angle_beta	99.656035
_cell_angle_gamma	90.024227
loop_
_atom_site_label
_atom_site_type_symbol
_atom_site_fract_x
_atom_site_fract_y
_atom_site_fract_z
Zn1	Zn	1.062583	-0.368408	-0.510231
Zn2	Zn	1.395916	-0.035075	-0.176898
Zn3	Zn	1.729249	0.298258	0.156435
Zn4	Zn	1.083989	-0.471122	-0.359392
Zn5	Zn	1.417322	-0.137789	-0.026058
Zn6	Zn	1.750655	0.195544	0.307275
Zn7	Zn	0.959899	-0.346940	-0.359382
Zn8	Zn	1.293232	-0.013607	-0.026048
Zn9	Zn	1.626565	0.319726	0.307285
Zn10	Zn	0.938358	-0.492545	-0.510177
Zn11	Zn	1.271691	-0.159211	-0.176843
Zn12	Zn	1.605024	0.174122	0.156490
O13	O	1.011207	-0.419754	-0.434795
O14	O	1.344540	-0.086421	-0.101462
O15	O	1.677873	0.246913	0.231871
O16	O	1.169343	-0.382053	-0.490249
O17	O	1.502676	-0.048719	-0.156916
O18	O	1.836010	0.284614	0.176417
O19	O	1.085501	-0.436700	-0.233155
O20	O	1.418834	-0.103366	0.100178
O21	O	1.752168	0.229967	0.433512
O22	O	0.973576	-0.245866	-0.379411
O23	O	1.306910	0.087467	-0.046077
O24	O	1.640243	0.420800	0.287256
O25	O	1.185070	-0.457516	-0.379428
O26	O	1.518403	-0.124183	-0.046095
O27	O	1.851736	0.209151	0.287239
O28	O	1.049018	-0.261639	-0.490240
O29	O	1.382351	0.071695	-0.156906
O30	O	1.715685	0.405028	0.176427
O31	O	0.994333	-0.345464	-0.233148
O32	O	1.327666	-0.012130	0.100186
O33	O	1.660999	0.321203	0.433519
O34	O	0.853120	-0.366236	-0.379358
O35	O	1.186454	-0.032903	-0.046024
O36	O	1.519787	0.300431	0.287309
O37	O	0.936863	-0.494027	-0.636419
O38	O	1.270196	-0.160694	-0.303086
O39	O	1.603530	0.172639	0.030247
O40	O	0.837294	-0.473211	-0.490146
O41	O	1.170628	-0.139878	-0.156813
O42	O	1.503961	0.193456	0.176520
O43	O	1.028131	-0.402825	-0.636459
O44	O	1.361464	-0.069492	-0.303126
O45	O	1.694797	0.263842	0.030207
O46	O	1.064614	-0.577886	-0.379375
O47	O	1.397947	-0.244553	-0.046042
O48	O	1.731280	0.088781	0.287292
O49	O	0.957619	-0.593625	-0.490156
O50	O	1.290953	-0.260292	-0.156823
O51	O	1.624286	0.073042	0.176511
C52	C	0.818262	-0.419719	-0.434745
C53	C	1.151595	-0.086386	-0.101412
C54	C	1.484928	0.246947	0.231921
C55	C	0.735716	-0.419725	-0.434746
C56	C	1.069049	-0.086392	-0.101412
C57	C	1.402383	0.246941	0.231921
C58	C	1.011119	-0.612704	-0.434780
C59	C	1.344453	-0.279371	-0.101447
C60	C	1.677786	0.053963	0.231886
C61	C	1.011146	-0.695253	-0.434804
C62	C	1.344479	-0.361920	-0.101471
C63	C	1.677812	-0.028586	0.231863
C64	C	0.544830	-0.361515	-0.374637
C65	C	0.878164	-0.028181	-0.041304
C66	C	1.211497	0.305152	0.292029
C67	C	0.498573	-0.426092	-0.352444
C68	C	0.831907	-0.092758	-0.019111
C69	C	1.165240	0.240575	0.314223
C70	C	0.584580	-0.419754	-0.434786
C71	C	0.917913	-0.086420	-0.101453
C72	C	1.251247	0.246913	0.231880
C73	C	0.483756	-0.355200	-0.456977
C74	C	0.817089	-0.021866	-0.123644
C75	C	1.150422	0.311467	0.209689
C76	C	0.438589	-0.419775	-0.434824
C77	C	0.771923	-0.086441	-0.101491
C78	C	1.105256	0.246892	0.231843
C79	C	0.539416	-0.484360	-0.412550
C80	C	0.872749	-0.151027	-0.079217
C81	C	1.206083	0.182307	0.254117
C82	C	0.524597	-0.413428	-0.517121
C83	C	0.857931	-0.080095	-0.183788
C84	C	1.191264	0.253239	0.149545
C85	C	0.478358	-0.478056	-0.494959
C86	C	0.811692	-0.144723	-0.161626
C87	C	1.145025	0.188610	0.171707
C88	C	0.668682	-0.419740	-0.434762
C89	C	1.002015	-0.086407	-0.101429
C90	C	1.335348	0.246927	0.231904
C91	C	0.354489	-0.419796	-0.434848
C92	C	0.687823	-0.086463	-0.101515
C93	C	1.021156	0.246871	0.231819
C94	C	0.953014	-0.903287	-0.495026
C95	C	1.286347	-0.569953	-0.161692
C96	C	1.619680	-0.236620	0.171641
C97	C	0.946646	-0.941003	-0.412708
C98	C	1.279980	-0.607669	-0.079375
C99	C	1.613313	-0.274336	0.253959
C100	C	1.011217	-0.846385	-0.434816
C101	C	1.344550	-0.513052	-0.101483
C102	C	1.677883	-0.179718	0.231851
C103	C	1.017619	-0.955752	-0.517143
C104	C	1.350952	-0.622419	-0.183810
C105	C	1.684286	-0.289085	0.149523
C106	C	1.011283	-0.992373	-0.434835
C107	C	1.344617	-0.659040	-0.101501
C108	C	1.677950	-0.325706	0.231832
C109	C	1.004820	-0.883008	-0.352454
C110	C	1.338153	-0.549675	-0.019121
C111	C	1.671487	-0.216341	0.314212
C112	C	1.075816	-0.897761	-0.456945
C113	C	1.409150	-0.564427	-0.123612
C114	C	1.742483	-0.231094	0.209721
C115	C	1.069483	-0.935446	-0.374571
C116	C	1.402816	-0.602113	-0.041237
C117	C	1.736150	-0.268780	0.292096
C118	C	1.011176	-0.762285	-0.434806
C119	C	1.344510	-0.428952	-0.101473
C120	C	1.677843	-0.095619	0.231860
C121	C	1.011325	-1.076469	-0.434835
C122	C	1.344658	-0.743136	-0.101501
C123	C	1.677992	-0.409803	0.231832
C124	C	1.204905	-0.419789	-0.434846
C125	C	1.538239	-0.086456	-0.101513
C126	C	1.871572	0.246877	0.231821
C127	C	1.287448	-0.419805	-0.434867
C128	C	1.620781	-0.086471	-0.101534
C129	C	1.954115	0.246862	0.231799
C130	C	0.977706	-0.453211	-0.670086
C131	C	1.311039	-0.119877	-0.336753
C132	C	1.644373	0.213456	-0.003419
C133	C	0.963430	-0.467468	-0.770353
C134	C	1.296763	-0.134134	-0.437019
C135	C	1.630097	0.199199	-0.103686
C136	C	1.011312	-0.226053	-0.434830
C137	C	1.344645	0.107280	-0.101497
C138	C	1.677979	0.440613	0.231837
C139	C	1.011357	-0.143510	-0.434845
C140	C	1.344690	0.189824	-0.101512
C141	C	1.678024	0.523157	0.231822
C142	C	1.113267	-0.317725	-1.053072
C143	C	1.446601	0.015608	-0.719739
C144	C	1.779934	0.348941	-0.386405
C145	C	1.126685	-0.304331	-0.958866
C146	C	1.460018	0.029002	-0.625533
C147	C	1.793352	0.362335	-0.292200
C148	C	1.085872	-0.345114	-0.911733
C149	C	1.419206	-0.011781	-0.578400
C150	C	1.752539	0.321553	-0.245067
C151	C	1.031640	-0.399294	-0.958815
C152	C	1.364973	-0.065960	-0.625482
C153	C	1.698307	0.267373	-0.292149
C154	C	1.018225	-0.412693	-1.053030
C155	C	1.351558	-0.079360	-0.719697
C156	C	1.684892	0.253974	-0.386363
C157	C	0.990830	-0.440082	-0.911691
C158	C	1.324163	-0.106748	-0.578358
C159	C	1.657497	0.226585	-0.245025
C160	C	0.936598	-0.494261	-0.958773
C161	C	1.269931	-0.160928	-0.625440
C162	C	1.603264	0.172405	-0.292107
C163	C	0.923185	-0.507658	-1.052979
C164	C	1.256518	-0.174325	-0.719645
C165	C	1.589851	0.159009	-0.386312
C166	C	0.963997	-0.466875	-1.100112
C167	C	1.297331	-0.133542	-0.766779
C168	C	1.630664	0.199791	-0.433445
C169	C	1.004245	-0.426682	-0.817476
C170	C	1.337578	-0.093349	-0.484143
C171	C	1.670912	0.239984	-0.150810
C172	C	0.909203	-0.521650	-0.817434
C173	C	1.242536	-0.188317	-0.484101
C174	C	1.575869	0.145017	-0.150768
C175	C	0.895785	-0.535044	-0.911640
C176	C	1.229118	-0.201711	-0.578307
C177	C	1.562452	0.131623	-0.244973
C178	C	1.044620	-0.386374	-0.200420
C179	C	1.377953	-0.053041	0.132913
C180	C	1.711287	0.280293	0.466247
C181	C	1.059040	-0.371908	-0.100154
C182	C	1.392373	-0.038574	0.233179
C183	C	1.725706	0.294759	0.566513
H184	H	0.573744	-0.312301	-0.323716
H185	H	0.907078	0.021032	0.009617
H186	H	1.240411	0.354365	0.342950
Cl187	Cl	1.102739	-0.328272	-0.793302
Cl188	Cl	1.436072	0.005061	-0.459968
Cl189	Cl	1.769406	0.338395	-0.126635
Cl190	Cl	1.164574	-0.266469	-1.112329
Cl191	Cl	1.497908	0.066864	-0.778995
Cl192	Cl	1.831241	0.400197	-0.445662
H193	H	1.023009	-0.987318	-0.586759
H194	H	1.356343	-0.653984	-0.253426
H195	H	1.689676	-0.320651	0.079907
Cl196	Cl	1.072420	-0.358572	-0.758300
Cl197	Cl	1.405753	-0.025239	-0.424966
Cl198	Cl	1.739086	0.308094	-0.091633
H199	H	0.486756	-0.431458	-0.282831
H200	H	0.820089	-0.098124	0.050502
H201	H	1.153422	0.235209	0.383836
Cl202	Cl	1.145534	-0.957463	-0.295884
Cl203	Cl	1.478867	-0.624129	0.037450
Cl204	Cl	1.812201	-0.290796	0.370783
H205	H	0.563678	-0.538967	-0.393719
H206	H	0.897011	-0.205634	-0.060386
H207	H	1.230345	0.127700	0.272947
H208	H	1.130397	-0.878654	-0.475685
H209	H	1.463731	-0.545321	-0.142352
H210	H	1.797064	-0.211987	0.190982
H211	H	0.851628	-0.579158	-0.949987
H212	H	1.184961	-0.245824	-0.616654
H213	H	1.518295	0.087509	-0.283321
Cl214	Cl	1.194860	-0.236223	-0.899685
Cl215	Cl	1.528193	0.097110	-0.566351
Cl216	Cl	1.861526	0.430444	-0.233018
H217	H	0.449586	-0.527364	-0.545841
H218	H	0.782919	-0.194031	-0.212508
H219	H	1.116252	0.139302	0.120825
Cl220	Cl	0.947136	-0.483716	-1.218547
Cl221	Cl	1.280469	-0.150382	-0.885214
Cl222	Cl	1.613803	0.182951	-0.551880
Cl223	Cl	0.855019	-0.575782	-1.112165
Cl224	Cl	1.188353	-0.242449	-0.778832
Cl225	Cl	1.521686	0.090884	-0.445499
H226	H	0.875971	-0.554860	-0.779059
H227	H	1.209304	-0.221527	-0.445726
H228	H	1.542637	0.111807	-0.112392
Cl229	Cl	0.542874	-0.405109	-0.624570
Cl230	Cl	0.876208	-0.071776	-0.291236
Cl231	Cl	1.209541	0.261557	0.042097
H232	H	0.459380	-0.300602	-0.475700
H233	H	0.792713	0.032731	-0.142366
H234	H	1.126046	0.366065	0.190967
H235	H	0.903742	-0.888874	-0.545871
H236	H	1.237075	-0.555540	-0.212538
H237	H	1.570408	-0.222207	0.120795
Cl238	Cl	0.862349	-0.970484	-0.383811
Cl239	Cl	1.195682	-0.637150	-0.050478
Cl240	Cl	1.529015	-0.303817	0.282856
Cl241	Cl	0.996402	-0.834412	-0.244941
Cl242	Cl	1.329735	-0.501078	0.088392
Cl243	Cl	1.663068	-0.167745	0.421725
