data_functionalizedCrystal
_audit_creation_method	'MofGen! by Chris Wilmer'
_symmetry_space_group_name_H-M	'P1'
_symmetry_Int_Tables_number	1
_symmetry_cell_setting	triclinic
loop_
_symmetry_equiv_pos_as_xyz
  x,y,z
_cell_length_a	10.685901
_cell_length_b	13.897447
_cell_length_c	10.686551
_cell_angle_alpha	94.405975
_cell_angle_beta	90.348291
_cell_angle_gamma	85.656047
loop_
_atom_site_label
_atom_site_type_symbol
_atom_site_fract_x
_atom_site_fract_y
_atom_site_fract_z
Zn1	Zn	1.972171	-0.466434	0.561872
Zn2	Zn	1.955924	-0.639118	0.352116
Zn3	Zn	1.746297	-0.464622	0.368248
Zn4	Zn	1.762364	-0.614465	0.577944
O5	O	1.859189	-0.546159	0.465045
O6	O	2.145551	-0.500416	0.520570
O7	O	1.914594	-0.625529	0.178714
O8	O	1.776336	-0.329883	0.393957
O9	O	2.133614	-0.627286	0.366463
O10	O	1.942284	-0.331215	0.536212
O11	O	1.760582	-0.497328	0.190566
O12	O	1.572894	-0.473423	0.409542
O13	O	1.803718	-0.585269	0.751354
O14	O	1.584698	-0.583512	0.563605
O15	O	1.957863	-0.476511	0.739546
O16	O	1.930172	-0.770826	0.382048
O17	O	1.787964	-0.752714	0.547963
C18	C	1.533282	-0.525596	0.490069
C19	C	1.393859	-0.516821	0.500804
C20	C	1.859085	-0.796769	0.465024
C21	C	1.859158	-0.903986	0.465048
C22	C	1.859221	-0.991058	0.465072
C23	C	1.859312	-1.100294	0.465097
C24	C	2.186369	-0.566803	0.439924
C25	C	2.325794	-0.575601	0.429219
C26	C	1.884395	-0.528342	0.792239
C27	C	1.895136	-0.520750	0.931669
C28	C	1.859330	-0.294572	0.465091
C29	C	1.859390	-0.187360	0.465111
C30	C	1.834154	-0.563842	0.139118
C31	C	1.823655	-0.571178	-0.000330
H32	H	1.345465	-0.459786	0.570310
H33	H	1.964561	-0.471769	0.980125
H34	H	1.374183	-0.632640	0.359729
C35	C	1.729874	-0.637351	0.934218
N36	N	1.659234	-0.687192	0.884912
