data_functionalizedCrystal
_audit_creation_method	'MofGen! by Chris Wilmer'
_symmetry_space_group_name_H-M	'P1'
_symmetry_Int_Tables_number	1
_symmetry_cell_setting	triclinic
loop_
_symmetry_equiv_pos_as_xyz
  x,y,z
_cell_length_a	23.196402
_cell_length_b	23.196402
_cell_length_c	23.196401
_cell_angle_alpha	59.999265
_cell_angle_beta	90.004120
_cell_angle_gamma	60.000268
loop_
_atom_site_label
_atom_site_type_symbol
_atom_site_fract_x
_atom_site_fract_y
_atom_site_fract_z
Zr1	Zr	0.555365	0.631019	-0.075653
O2	O	0.463301	0.751299	-0.167703
O3	O	0.583585	0.510750	-0.047438
O4	O	0.583566	0.631036	-0.167712
O5	O	0.463338	0.630997	0.047450
O6	O	0.678436	0.631037	-0.167716
O7	O	0.463320	0.631013	-0.047428
O8	O	0.678470	0.415868	0.047434
O9	O	0.463304	0.846166	-0.167699
O10	O	0.666424	0.560216	-0.035403
O11	O	0.595637	0.560203	0.035407
O12	O	0.595615	0.701824	-0.106201
O13	O	0.524827	0.701810	-0.035392
Zr14	Zr	0.706700	0.630996	0.075663
Zr15	Zr	0.706672	0.631022	-0.075658
Zr16	Zr	0.555393	0.630993	0.075668
Zr17	Zr	0.555369	0.782322	-0.075646
Zr18	Zr	0.706696	0.479693	0.075656
O19	O	0.678479	0.751265	0.047448
O20	O	0.678440	0.751302	-0.167711
O21	O	0.463341	0.751262	0.047456
O22	O	0.798764	0.510716	0.167713
O23	O	0.798724	0.510753	-0.047445
O24	O	0.583625	0.510713	0.167721
O25	O	0.798727	0.631018	-0.047440
O26	O	0.678498	0.630979	0.167723
O27	O	0.583628	0.630978	0.167726
O28	O	0.798745	0.631002	0.047439
O29	O	0.583572	0.846168	-0.167703
O30	O	0.678493	0.415847	0.167713
O31	O	0.798761	0.415849	0.167709
O32	O	0.798739	0.415869	0.047429
O33	O	0.463326	0.846146	-0.047419
O34	O	0.583595	0.846148	-0.047423
O35	O	0.666450	0.560191	0.106211
O36	O	0.737238	0.560205	0.035402
O37	O	0.666428	0.701813	-0.035397
O38	O	0.595641	0.701799	0.035413
C39	C	0.631027	0.441751	-0.000003
C40	C	0.631025	0.377519	-0.000006
C41	C	0.667971	0.347356	-0.036970
C42	C	0.667978	0.286995	-0.036964
C43	C	0.631025	0.256811	-0.000004
C44	C	0.594078	0.286979	0.036969
C45	C	0.594078	0.347333	0.036968
C46	C	0.569120	0.194782	-0.005277
C47	C	0.569118	0.134432	-0.005281
C48	C	0.631026	0.070656	0.000003
C49	C	0.692936	0.067245	0.005277
C50	C	0.692936	0.127599	0.005276
C51	C	0.631022	0.191367	0.000002
C52	C	0.667982	-0.024958	-0.036957
C53	C	0.667991	-0.085324	-0.036946
C54	C	0.594085	-0.085333	0.036982
C55	C	0.594083	-0.024974	0.036976
C56	C	0.631030	0.005212	0.000003
C57	C	0.441771	0.631005	0.000012
C58	C	0.377537	0.631004	0.000014
C59	C	0.384324	0.557088	0.036963
C60	C	0.323970	0.557087	0.036966
C61	C	0.256829	0.631006	0.000006
C62	C	0.250045	0.704931	-0.036945
C63	C	0.310399	0.704930	-0.036941
C64	C	0.132890	0.687643	-0.061907
C65	C	0.072539	0.687641	-0.061913
C66	C	0.070675	0.631012	-0.000005
C67	C	0.129177	0.574371	0.061909
C68	C	0.189532	0.574370	0.061913
C69	C	0.191381	0.631015	-0.000002
C70	C	0.012021	0.557090	0.036951
C71	C	-0.048336	0.557092	0.036956
C72	C	-0.122260	0.704938	-0.036962
C73	C	-0.061904	0.704934	-0.036960
C74	C	0.005235	0.631008	-0.000005
C75	C	0.820294	0.631010	-0.000001
C76	C	0.884527	0.631011	-0.000004
C77	C	0.630997	0.631040	-0.189274
C78	C	0.630986	0.631051	-0.253514
C79	C	0.631038	0.820264	0.000013
C80	C	0.631039	0.884496	0.000016
C81	C	0.683252	0.631053	-0.283679
C82	C	0.683268	0.631037	-0.344025
C83	C	0.631006	0.631035	-0.374213
C84	C	0.578735	0.631028	-0.344038
C85	C	0.578725	0.631036	-0.283689
C86	C	0.567225	0.678528	-0.493590
C87	C	0.567235	0.678525	-0.553941
C88	C	0.631037	0.631006	-0.560349
C89	C	0.694834	0.583500	-0.506404
C90	C	0.694824	0.583508	-0.446054
C91	C	0.631011	0.631025	-0.439652
C92	C	0.683325	0.630989	-0.655948
C93	C	0.683341	0.630968	-0.716293
C94	C	0.578803	0.630967	-0.716309
C95	C	0.578792	0.630980	-0.655961
C96	C	0.631053	0.630995	-0.625786
C97	C	0.631067	0.630975	0.189284
C98	C	0.631079	0.630964	0.253524
C99	C	0.820289	0.441754	-0.000010
C100	C	0.884521	0.377523	-0.000015
C101	C	0.631062	0.441719	0.189276
C102	C	0.631072	0.377476	0.253513
C103	C	0.820324	0.441722	0.189270
C104	C	0.884567	0.377480	0.253504
C105	C	0.441741	0.820293	-0.189259
C106	C	0.377497	0.884535	-0.253494
C107	C	0.441776	0.820261	0.000020
C108	C	0.377544	0.884492	0.000025
C109	C	0.631003	0.820296	-0.189266
C110	C	0.630993	0.884539	-0.253503
C111	C	0.877721	0.347366	-0.036983
C112	C	0.938067	0.287022	-0.037001
C113	C	1.005214	0.256834	-0.000048
C114	C	1.012012	0.286997	0.036921
C115	C	0.951666	0.347344	0.036936
C116	C	0.668041	0.347301	0.320645
C117	C	0.668048	0.286946	0.381008
C118	C	0.631090	0.256764	0.374238
C119	C	0.594117	0.286945	0.307099
C120	C	0.594106	0.347302	0.246737
C121	C	0.951694	0.347318	0.246708
C122	C	1.012063	0.286964	0.307057
C123	C	1.005305	0.256769	0.374202
C124	C	0.938172	0.286937	0.380998
C125	C	0.877804	0.347294	0.320649
C126	C	0.310371	0.914704	-0.246697
C127	C	0.250002	0.975077	-0.307047
C128	C	0.256760	1.005275	-0.374192
C129	C	0.323893	0.975103	-0.380987
C130	C	0.384261	0.914736	-0.320639
C131	C	0.384344	0.914656	0.036986
C132	C	0.323997	0.975016	0.036989
C133	C	0.256851	1.005207	0.000033
C134	C	0.250053	0.975040	-0.036933
C135	C	0.310399	0.914685	-0.036939
C136	C	0.667958	0.914703	-0.246710
C137	C	0.667962	0.975058	-0.307061
C138	C	0.630997	1.005252	-0.374205
C139	C	0.594030	0.975083	-0.380997
C140	C	0.594030	0.914725	-0.320646
H141	H	0.563995	-0.000412	0.067074
Br142	Br	0.158902	1.016010	-0.297808
H143	H	0.698081	-0.109887	-0.067044
H144	H	0.515265	0.717217	-0.488377
Br145	Br	-0.213374	0.805259	-0.087115
H146	H	-0.067433	0.765124	-0.067053
Br147	Br	0.301180	0.873732	-0.155579
H148	H	0.207599	1.054429	-0.423326
Br149	Br	0.158927	0.805250	-0.087099
Br150	Br	0.507854	0.630981	-0.615020
H151	H	0.698063	0.999615	-0.301518
Br152	Br	0.718128	0.016008	-0.087129
H153	H	0.743345	0.124816	0.009572
Br154	Br	0.333241	1.015941	0.087162
H155	H	0.329387	0.999699	-0.435664
H156	H	0.438917	0.890173	-0.326181
Br157	Br	0.960885	0.388288	0.155589
H158	H	0.207719	1.054351	0.000043
Br159	Br	0.754251	0.631005	-0.614993
H160	H	0.563991	0.371892	0.067069
H161	H	1.066691	0.262409	0.067007
H162	H	0.698137	0.371869	0.326171
H163	H	1.054466	0.207623	0.423337
Br164	Br	0.960907	0.388261	0.087116
Br165	Br	0.718231	0.245999	0.472116
Br166	Br	0.485099	0.139072	-0.012444
Br167	Br	0.475464	0.873698	0.087144
Br168	Br	0.543859	1.016077	-0.472126
Br169	Br	0.928824	0.246097	-0.087175
H170	H	0.304852	0.890127	-0.067036
H171	H	0.932680	0.262344	0.435675
Br172	Br	0.158920	1.016020	-0.087082
H173	H	0.725831	0.631039	-0.368590
Br174	Br	0.776958	-0.019300	0.012442
H175	H	0.631104	0.207617	0.423394
Br176	Br	0.507882	0.630951	-0.757267
H177	H	1.066720	0.262408	0.301512
H178	H	0.564026	0.262361	0.301597
H179	H	0.304868	0.765123	-0.067028
H180	H	0.563926	0.890172	-0.326187
Br181	Br	0.718131	0.873738	-0.155594
Br182	Br	0.543932	0.388243	0.155632
Br183	Br	0.631002	1.087169	-0.456104
Br184	Br	0.718113	0.388321	-0.087148
Br185	Br	0.718131	0.246039	-0.087124
H186	H	0.518700	0.246718	-0.009594
Br187	Br	0.543936	-0.126292	0.087146
Br188	Br	0.781400	0.519034	-0.372843
Br189	Br	0.543937	0.246008	0.087139
Br190	Br	0.333174	0.456766	0.087113
Br191	Br	0.475438	0.456760	0.087119
Br192	Br	0.786706	0.388217	0.329886
H193	H	0.237161	0.528254	0.112326
H194	H	0.127671	0.528245	0.112316
H195	H	-0.042803	0.496899	0.067049
Br196	Br	0.103140	0.456764	0.087105
H197	H	0.746788	0.544804	-0.511617
Br198	Br	-0.006853	0.764515	-0.145935
H199	H	0.536163	0.631034	-0.259128
H200	H	0.134393	0.733770	-0.112321
Br201	Br	0.754177	0.631070	-0.242724
H202	H	0.725906	0.630964	-0.740852
H203	H	0.515288	0.717211	-0.597862
H204	H	0.536184	0.631024	-0.368619
H205	H	1.054346	0.207695	-0.000064
Br206	Br	0.786601	0.388325	-0.087142
