data_functionalizedCrystal
_audit_creation_method	'MofGen! by Chris Wilmer'
_symmetry_space_group_name_H-M	'P1'
_symmetry_Int_Tables_number	1
_symmetry_cell_setting	triclinic
loop_
_symmetry_equiv_pos_as_xyz
  x,y,z
_cell_length_a	14.971486
_cell_length_b	23.532407
_cell_length_c	14.048226
_cell_angle_alpha	89.988910
_cell_angle_beta	89.998499
_cell_angle_gamma	83.231404
loop_
_atom_site_label
_atom_site_type_symbol
_atom_site_fract_x
_atom_site_fract_y
_atom_site_fract_z
O1	O	1.186163	0.074216	-0.079061
O2	O	0.925669	0.083104	-0.079088
O3	O	1.063771	-0.004238	-0.079057
O4	O	1.048061	0.161558	-0.079093
O5	O	1.063755	-0.004243	0.079265
O6	O	0.925652	0.083099	0.079233
O7	O	1.186146	0.074211	0.079260
Zn8	Zn	1.055897	0.078654	0.104383
Zn9	Zn	1.055919	0.078661	-0.104212
O10	O	1.048044	0.161553	0.079228
C11	C	0.892340	0.082704	0.000069
C12	C	0.793056	0.081513	0.000059
C13	C	0.735288	0.132824	0.000050
C14	C	0.642001	0.131701	0.000064
C15	C	0.606482	0.079267	0.000082
C16	C	0.664257	0.027952	0.000094
C17	C	0.757543	0.029075	0.000087
C18	C	0.469819	0.025615	0.000108
C19	C	0.376527	0.024491	0.000114
C20	C	0.354277	0.128241	0.000085
C21	C	0.447563	0.129364	0.000078
C22	C	0.505331	0.078049	0.000089
C23	C	1.063363	-0.025458	0.000107
C24	C	1.062160	-0.088680	0.000114
C25	C	1.136342	-0.487466	0.000069
C26	C	1.135224	-0.546871	0.000062
O27	O	1.203992	-0.583321	0.000034
N28	N	1.053123	-0.569849	0.000054
C29	C	0.972133	-0.533418	0.000044
O30	O	0.902196	-0.558417	0.000036
C31	C	0.973251	-0.474014	0.000044
C32	C	1.055358	-0.451040	0.000062
C33	C	1.218442	-0.464491	0.000086
C34	C	1.219559	-0.405090	0.000095
C35	C	1.138576	-0.368664	0.000087
C36	C	1.056475	-0.391639	0.000071
C37	C	0.892263	-0.437584	0.000027
C38	C	0.893388	-0.378177	0.000027
C39	C	0.975495	-0.355203	0.000045
C40	C	0.976609	-0.295812	0.000073
N41	N	1.058711	-0.272834	0.000081
C42	C	1.139694	-0.309260	0.000088
C43	C	0.969791	-0.658170	0.000041
C44	C	0.968671	-0.717573	0.000047
C45	C	1.131763	-0.731022	0.000064
C46	C	1.132882	-0.671618	0.000064
C47	C	1.051892	-0.635193	0.000049
C48	C	1.142034	-0.184513	0.000108
C49	C	1.143143	-0.125106	0.000121
C50	C	0.980052	-0.111663	0.000100
C51	C	0.978942	-0.171064	0.000092
C52	C	1.059940	-0.207489	0.000093
O53	O	0.907878	-0.259327	0.000097
O54	O	1.209619	-0.284253	0.000084
C55	C	1.219475	0.074611	0.000101
C56	C	1.318760	0.075802	0.000104
C57	C	1.048453	0.182773	0.000063
C58	C	1.049655	0.245996	0.000050
N59	N	1.055889	0.078649	0.246744
N60	N	1.055934	0.078661	-0.246572
C61	C	1.117059	0.039990	0.296576
C62	C	1.117065	0.039990	0.396234
C63	C	1.055904	0.078652	0.446058
C64	C	0.994727	0.117313	0.396218
C65	C	0.994717	0.117310	0.296563
C66	C	0.994753	0.117317	0.603933
C67	C	0.994763	0.117320	0.703595
C68	C	1.117101	0.039997	0.703604
C69	C	1.117091	0.039994	0.603948
C70	C	1.055915	0.078656	0.554116
H71	H	0.307237	0.170023	0.000080
O72	O	0.342125	-0.026476	0.000009
C73	C	0.371664	-0.057758	-0.081986
H74	H	0.436237	-0.042201	-0.109332
H75	H	0.317620	-0.051196	-0.139404
C76	C	0.310401	-0.140918	-0.023467
C77	C	0.389715	-0.121813	-0.057048
H78	H	0.321532	-0.180430	-0.008086
H79	H	0.290496	-0.119842	0.031774
H80	H	0.265372	-0.135444	-0.071321
H81	H	0.434739	-0.127280	-0.009191
H82	H	0.409627	-0.142891	-0.112281
H83	H	0.912084	-0.189771	0.000104
H84	H	0.594969	0.173484	0.000055
O85	O	1.299295	-0.382748	0.000267
C86	C	1.304820	-0.348787	0.082250
H87	H	1.258206	-0.362874	0.139562
H88	H	1.283769	-0.301956	0.063710
C89	C	1.459512	-0.338621	0.049036
C90	C	1.402266	-0.355926	0.119431
H91	H	1.519621	-0.343022	0.071969
H92	H	1.455789	-0.361500	-0.006199
H93	H	1.441959	-0.299596	0.033592
H94	H	1.419812	-0.394952	0.134864
H95	H	1.405994	-0.333054	0.174670
O96	O	0.935254	0.154889	0.751849
C97	C	0.881260	0.189015	0.686499
H98	H	0.880463	0.165667	0.615466
H99	H	0.909899	0.231361	0.675886
C100	C	0.785651	0.229309	0.812647
C101	C	0.784666	0.200629	0.725406
H102	H	0.726068	0.236475	0.836647
H103	H	0.822029	0.206319	0.856676
H104	H	0.809521	0.264593	0.803791
H105	H	0.760807	0.165343	0.734264
H106	H	0.748281	0.223614	0.681379
O107	O	1.176288	0.002300	0.555553
C108	C	1.128525	-0.032882	0.498105
H109	H	1.058422	-0.010168	0.483076
H110	H	1.122612	-0.074889	0.536718
C111	C	1.265140	-0.073149	0.421952
C112	C	1.179040	-0.045249	0.403487
H113	H	1.296301	-0.080780	0.363589
H114	H	1.297319	-0.049448	0.460658
H115	H	1.260200	-0.108152	0.454132
H116	H	1.183981	-0.010244	0.371319
H117	H	1.146863	-0.068944	0.364773
H118	H	0.827435	-0.348522	0.000013
O119	O	0.935264	0.154920	0.248300
C120	C	0.881269	0.189036	0.313643
H121	H	0.917940	0.189721	0.384675
H122	H	0.814996	0.170473	0.324260
C123	C	0.817237	0.249610	0.187481
C124	C	0.862280	0.250456	0.274722
H125	H	0.805519	0.287496	0.163472
H126	H	0.853612	0.226624	0.143457
H127	H	0.762014	0.234138	0.196341
H128	H	0.917507	0.265920	0.265859
H129	H	0.825914	0.273445	0.318743
H130	H	0.516853	-0.016172	0.000118
O131	O	0.891030	-0.622870	0.000082
C132	C	0.818334	-0.655895	0.000052
H133	H	0.841451	-0.700215	0.030024
H134	H	0.793147	-0.660137	-0.075905
C135	C	0.713326	-0.571937	0.025324
C136	C	0.741717	-0.626370	0.062144
H137	H	0.666064	-0.553724	0.063621
H138	H	0.762302	-0.549687	0.025341
H139	H	0.692344	-0.575480	-0.037973
H140	H	0.762709	-0.622826	0.125435
H141	H	0.692743	-0.648619	0.062139
O142	O	1.176525	0.002518	0.444750
C143	C	1.231440	0.033083	0.502359
H144	H	1.195412	0.077609	0.517270
H145	H	1.297505	0.037025	0.463945
C146	C	1.295103	-0.053688	0.578721
C147	C	1.250849	0.000998	0.597042
H148	H	1.307080	-0.073480	0.637124
H149	H	1.258108	-0.074281	0.539907
H150	H	1.350152	-0.050395	0.546707
H151	H	1.195797	-0.002295	0.629044
H152	H	1.287836	0.021590	0.635864
O153	O	0.629862	-0.023018	-0.000017
C154	C	0.659407	-0.054292	-0.082019
H155	H	0.723975	-0.038726	-0.109361
H156	H	0.605362	-0.047729	-0.139436
C157	C	0.598164	-0.137462	-0.023517
C158	C	0.677472	-0.118348	-0.057094
H159	H	0.609303	-0.176976	-0.008145
H160	H	0.578256	-0.116392	0.031728
H161	H	0.553134	-0.131989	-0.071370
H162	H	0.722497	-0.123815	-0.009238
H163	H	0.697388	-0.139420	-0.112331
H164	H	0.914118	-0.081994	0.000097
H165	H	0.804577	-0.012707	0.000094
H166	H	1.166912	0.008517	0.744183
H167	H	0.476478	0.172060	0.000054
H168	H	0.944934	0.148797	0.563363
H169	H	1.210008	-0.106405	0.000138
H170	H	1.207990	-0.214164	0.000105
H171	H	0.764199	0.175522	0.000034
H172	H	0.944924	0.148790	0.436791
H173	H	1.199740	-0.652917	0.000078
O174	O	1.297198	-0.499789	0.000138
C175	C	1.369890	-0.466760	0.000127
H176	H	1.346760	-0.422447	0.030092
H177	H	1.395095	-0.462501	-0.075822
C178	C	1.474900	-0.550718	0.025431
C179	C	1.446493	-0.496294	0.062242
H180	H	1.522155	-0.568937	0.063741
H181	H	1.425927	-0.572971	0.025434
H182	H	1.495898	-0.547162	-0.037860
H183	H	1.425486	-0.499852	0.125526
H184	H	1.495465	-0.474042	0.062250
O185	O	0.812424	-0.459798	-0.000036
C186	C	0.741198	-0.414898	-0.000025
H187	H	0.765922	-0.374525	-0.029987
H188	H	0.716229	-0.406520	0.075924
C189	C	0.633361	-0.481295	-0.025335
C190	C	0.663725	-0.431708	-0.062142
H191	H	0.585569	-0.491664	-0.063648
H192	H	0.681346	-0.511545	-0.025339
H193	H	0.612560	-0.474306	0.037956
H194	H	0.684535	-0.438699	-0.125427
H195	H	0.615741	-0.401460	-0.062151
O196	O	1.176332	0.002387	0.248098
C197	C	1.128710	-0.032807	0.190524
H198	H	1.058536	-0.010178	0.175572
H199	H	1.122970	-0.074885	0.228988
C200	C	1.265426	-0.072773	0.114236
C201	C	1.179240	-0.044977	0.095865
H202	H	1.296596	-0.080283	0.055847
H203	H	1.297511	-0.049064	0.153027
H204	H	1.260630	-0.107835	0.146291
H205	H	1.184036	-0.009913	0.063821
H206	H	1.147156	-0.068681	0.057066
H207	H	0.901812	-0.736273	0.000050
H208	H	1.197704	-0.760691	0.000066
