data_functionalizedCrystal
_audit_creation_method	'MofGen! by Chris Wilmer'
_symmetry_space_group_name_H-M	'P1'
_symmetry_Int_Tables_number	1
_symmetry_cell_setting	triclinic
loop_
_symmetry_equiv_pos_as_xyz
  x,y,z
_cell_length_a	18.050590
_cell_length_b	18.050591
_cell_length_c	18.050582
_cell_angle_alpha	89.979078
_cell_angle_beta	89.976663
_cell_angle_gamma	90.014558
loop_
_atom_site_label
_atom_site_type_symbol
_atom_site_fract_x
_atom_site_fract_y
_atom_site_fract_z
Zn1	Zn	-0.295786	1.135342	-0.420027
Zn2	Zn	0.204214	1.635342	0.079973
Zn3	Zn	-0.419969	1.135274	-0.295836
Zn4	Zn	0.080031	1.635274	0.204164
Zn5	Zn	-0.295789	1.011162	-0.295839
Zn6	Zn	0.204211	1.511162	0.204161
Zn7	Zn	-0.419930	1.011131	-0.419971
Zn8	Zn	0.080070	1.511131	0.080029
O9	O	-0.357868	1.073227	-0.357918
O10	O	0.142132	1.573227	0.142082
O11	O	-0.312274	1.239258	-0.403576
O12	O	0.187726	1.739258	0.096424
O13	O	-0.403514	1.118795	-0.191912
O14	O	0.096486	1.618795	0.308088
O15	O	-0.191864	1.027676	-0.312337
O16	O	0.308136	1.527676	0.187663
O17	O	-0.403511	1.239208	-0.312332
O18	O	0.096489	1.739208	0.187668
O19	O	-0.191862	1.118911	-0.403578
O20	O	0.308138	1.618911	0.096422
O21	O	-0.312279	1.027610	-0.191914
O22	O	0.187721	1.527610	0.308086
O23	O	-0.312241	0.907233	-0.312283
O24	O	0.187759	1.407233	0.187717
O25	O	-0.403444	1.027623	-0.523903
O26	O	0.096556	1.527623	-0.023903
O27	O	-0.403447	0.907210	-0.403482
O28	O	0.096553	1.407210	0.096518
O29	O	-0.312236	1.118881	-0.523945
O30	O	0.187764	1.618881	-0.023945
O31	O	-0.523888	1.118765	-0.312278
O32	O	-0.023888	1.618765	0.187722
O33	O	-0.523860	1.027557	-0.403480
O34	O	-0.023860	1.527557	0.096520
C35	C	-0.357841	0.880275	-0.357877
C36	C	0.142159	1.380275	0.142123
C37	C	-0.357847	0.797729	-0.357877
C38	C	0.142153	1.297729	0.142123
C39	C	-0.308191	0.598269	-0.308397
C40	C	0.191809	1.098269	0.191603
C41	C	-0.375927	0.548861	-0.290120
C42	C	0.124073	1.048861	0.209880
C43	C	-0.357869	0.646599	-0.357911
C44	C	0.142131	1.146599	0.142089
C45	C	-0.290157	0.548925	-0.376186
C46	C	0.209843	1.048925	0.123814
C47	C	-0.357885	0.500614	-0.357942
C48	C	0.142115	1.000614	0.142058
C49	C	-0.425641	0.598278	-0.339598
C50	C	0.074359	1.098278	0.160402
C51	C	-0.339825	0.598346	-0.425696
C52	C	0.160175	1.098346	0.074304
C53	C	-0.407607	0.548961	-0.407445
C54	C	0.092393	1.048961	0.092555
C55	C	-0.357859	0.730697	-0.357891
C56	C	0.142141	1.230697	0.142109
C57	C	-0.357903	0.416517	-0.357962
C58	C	0.142097	0.916517	0.142038
C59	C	-0.550820	1.073170	-0.357889
C60	C	-0.050820	1.573170	0.142111
C61	C	-0.633366	1.073214	-0.357901
C62	C	-0.133366	1.573214	0.142099
C63	C	-0.832806	1.122916	-0.308375
C64	C	-0.332806	1.622916	0.191625
C65	C	-0.882145	1.141051	-0.376157
C66	C	-0.382145	1.641051	0.123843
C67	C	-0.784497	1.073256	-0.357930
C68	C	-0.284497	1.573256	0.142070
C69	C	-0.882238	1.055196	-0.290179
C70	C	-0.382238	1.555196	0.209821
C71	C	-0.930482	1.073298	-0.357953
C72	C	-0.430482	1.573298	0.142047
C73	C	-0.832749	1.091426	-0.425748
C74	C	-0.332749	1.591426	0.074252
C75	C	-0.832838	1.005539	-0.339725
C76	C	-0.332838	1.505539	0.160275
C77	C	-0.882155	1.023649	-0.407554
C78	C	-0.382155	1.523649	0.092446
C79	C	-0.700398	1.073233	-0.357916
C80	C	-0.200398	1.573233	0.142084
C81	C	-1.014578	1.073320	-0.357975
C82	C	-0.514578	1.573320	0.142025
C83	C	-0.164163	1.073305	-0.357964
C84	C	0.335837	1.573305	0.142036
C85	C	-0.081617	1.073338	-0.357984
C86	C	0.418383	1.573338	0.142016
C87	C	-0.357835	1.073256	-0.551624
C88	C	0.142165	1.573256	-0.051624
C89	C	-0.357821	1.073269	-0.634170
C90	C	0.142179	1.573269	-0.134170
C91	C	-0.357897	1.266933	-0.357960
C92	C	0.142103	1.766933	0.142040
C93	C	-0.357909	1.349479	-0.357978
C94	C	0.142091	1.849479	0.142022
C95	C	-0.407353	1.023681	-0.833598
C96	C	0.092647	1.523681	-0.333598
C97	C	-0.425511	1.091439	-0.882996
C98	C	0.074489	1.591439	-0.382996
C99	C	-0.357765	1.073305	-0.785300
C100	C	0.142235	1.573305	-0.285300
C101	C	-0.339586	1.005584	-0.882984
C102	C	0.160414	1.505584	-0.382984
C103	C	-0.357711	1.073335	-0.931285
C104	C	0.142289	1.573335	-0.431285
C105	C	-0.375958	1.141099	-0.833611
C106	C	0.124042	1.641099	-0.333611
C107	C	-0.290002	1.055199	-0.833594
C108	C	0.209998	1.555199	-0.333594
C109	C	-0.308134	1.123004	-0.882970
C110	C	0.191866	1.623004	-0.382970
C111	C	-0.357797	1.073287	-0.701202
C112	C	0.142203	1.573287	-0.201202
C113	C	-0.357679	1.073360	-1.015382
C114	C	0.142321	1.573360	-0.515382
C115	C	-0.357848	1.073241	-0.164966
C116	C	0.142152	1.573241	0.335034
C117	C	-0.357652	1.073372	-0.082421
C118	C	0.142348	1.573372	0.417579
H119	H	-0.449673	0.527446	-0.449330
H120	H	0.050327	1.027446	0.050670
H121	H	-0.482928	0.619866	-0.324091
H122	H	0.017072	1.119866	0.175909
C123	C	-0.911601	1.034533	-0.212761
C124	C	-0.411601	1.534533	0.287239
N125	N	-0.933713	1.018974	-0.154448
N126	N	-0.433713	1.518974	0.345552
C127	C	-0.803544	0.928176	-0.318871
C128	C	-0.303544	1.428176	0.181129
N129	N	-0.781475	0.869907	-0.303154
N130	N	-0.281475	1.369907	0.196846
H131	H	-0.482794	1.106771	-0.904696
H132	H	0.017206	1.606771	-0.404696
H133	H	-0.391377	1.198399	-0.812015
H134	H	0.108623	1.698399	-0.312015
C135	C	-0.251500	0.627525	-0.251770
C136	C	0.248500	1.127525	0.248230
N137	N	-0.208804	0.649561	-0.209116
N138	N	0.291196	1.149561	0.290884
H139	H	-0.903806	1.198335	-0.391570
H140	H	-0.403806	1.698335	0.108430
C141	C	-0.396559	0.519491	-0.212697
C142	C	0.103441	1.019491	0.287303
N143	N	-0.412093	0.497371	-0.154381
N144	N	0.087907	0.997371	0.345619
H145	H	-0.324530	0.620100	-0.482990
H146	H	0.175470	1.120100	0.017010
C147	C	-0.911244	0.966937	-0.464246
C148	C	-0.411244	1.466937	0.035754
N149	N	-0.933155	0.924224	-0.506948
N150	N	-0.433155	1.424224	-0.006948
C151	C	-0.464079	0.967051	-0.804294
C152	C	0.035921	1.467051	-0.304294
N153	N	-0.506808	0.924404	-0.782217
N154	N	-0.006808	1.424404	-0.282217
H155	H	-0.232894	0.527208	-0.391604
H156	H	0.267106	1.027208	0.108396
C157	C	-0.803521	1.179668	-0.251822
C158	C	-0.303521	1.679668	0.248178
N159	N	-0.781461	1.222416	-0.209232
N160	N	-0.281461	1.722416	0.290768
H161	H	-0.266177	1.165031	-0.904511
H162	H	0.233823	1.665031	-0.404511
C163	C	-0.803509	1.112181	-0.503188
C164	C	-0.303509	1.612181	-0.003188
N165	N	-0.781483	1.127817	-0.561513
N166	N	-0.281483	1.627817	-0.061513
H167	H	-0.232736	1.039846	-0.811878
H168	H	0.267264	1.539846	-0.311878
H169	H	-0.324232	0.948301	-0.904672
H170	H	0.175768	1.448301	-0.404672
