data_functionalizedCrystal
_audit_creation_method	'MofGen! by Chris Wilmer'
_symmetry_space_group_name_H-M	'P1'
_symmetry_Int_Tables_number	1
_symmetry_cell_setting	triclinic
loop_
_symmetry_equiv_pos_as_xyz
  x,y,z
_cell_length_a	6.817900
_cell_length_b	10.943925
_cell_length_c	10.943881
_cell_angle_alpha	91.770917
_cell_angle_beta	108.843448
_cell_angle_gamma	108.844289
loop_
_atom_site_label
_atom_site_type_symbol
_atom_site_fract_x
_atom_site_fract_y
_atom_site_fract_z
V1	V	-4.115585	-0.178596	-0.402535
O2	O	-4.073255	0.008620	-0.394890
O3	O	-4.093571	-0.354163	-0.399764
O4	O	-4.093571	-0.175832	-0.578102
O5	O	-4.073255	-0.170945	-0.215318
V6	V	-4.592375	-0.156205	-0.380144
O7	O	-4.391613	-0.227713	-0.451650
O8	O	-4.766545	-0.107088	-0.331029
O9	O	-4.391183	0.019361	-0.382915
O10	O	-4.752102	-0.343421	-0.387789
O11	O	-4.752102	-0.163857	-0.567361
O12	O	-4.391183	-0.158969	-0.204577
C13	C	-3.944137	-0.396962	-0.393410
C14	C	-4.007601	-0.540490	-0.392315
C15	C	-4.274968	-0.717223	-0.397746
C16	C	-4.085621	-0.611233	-0.288090
C17	C	-4.196129	-0.644567	-0.501937
C18	C	-3.931177	-0.690206	-0.280610
C19	C	-4.041765	-0.723564	-0.494554
C20	C	-3.852281	-0.617604	-0.384866
C21	C	-3.944135	-0.169483	-0.620896
C22	C	-4.007594	-0.168385	-0.764423
C23	C	-4.237038	-0.174465	-0.855305
C24	C	-4.123561	-0.063484	-0.921053
C25	C	-4.234082	-0.277331	-0.954402
C26	C	-3.893234	-0.057330	-0.828266
C27	C	-4.003830	-0.271274	-0.861623
C28	C	-3.890181	-0.160263	-0.927323
C29	C	-4.203959	0.062154	-0.389266
C30	C	-4.119736	0.205681	-0.390369
C31	C	-4.203961	-0.165322	-0.161777
C32	C	-4.119739	-0.166414	-0.018248
H33	H	-4.023971	-0.772503	-0.581843
H34	H	-4.307528	-0.623856	-0.595482
H35	H	-3.748607	0.035728	-0.773674
H36	H	-4.174772	0.024380	-0.947594
H37	H	-3.743946	-0.154215	-0.958923
H38	H	-4.382948	-0.180344	-0.823436
H39	H	-3.952682	-0.359147	-0.835060
H40	H	-3.819748	-0.710752	-0.186972
H41	H	-4.454173	-0.760717	-0.403044
H42	H	-4.103500	-0.562324	-0.200807
H43	H	-3.672962	-0.574318	-0.379395
H44	H	-4.378818	-0.370291	-1.009139
