data_functionalizedCrystal
_audit_creation_method	'MofGen! by Chris Wilmer'
_symmetry_space_group_name_H-M	'P1'
_symmetry_Int_Tables_number	1
_symmetry_cell_setting	triclinic
loop_
_symmetry_equiv_pos_as_xyz
  x,y,z
_cell_length_a	27.732048
_cell_length_b	27.732048
_cell_length_c	13.596369
_cell_angle_alpha	90.000164
_cell_angle_beta	89.989067
_cell_angle_gamma	82.642655
loop_
_atom_site_label
_atom_site_type_symbol
_atom_site_fract_x
_atom_site_fract_y
_atom_site_fract_z
O1	O	0.057518	0.640928	-0.081675
O2	O	0.390851	0.974261	0.251658
O3	O	0.724184	1.307594	0.584992
O4	O	0.066263	0.500134	-0.081706
O5	O	0.399597	0.833467	0.251627
O6	O	0.732930	1.166801	0.584960
O7	O	-0.008506	0.574904	-0.081671
O8	O	0.324827	0.908237	0.251662
O9	O	0.658160	1.241570	0.584996
O10	O	0.132287	0.566158	-0.081710
O11	O	0.465621	0.899491	0.251623
O12	O	0.798954	1.232825	0.584956
O13	O	-0.008510	0.574896	0.081912
O14	O	0.324823	0.908230	0.415245
O15	O	0.658157	1.241563	0.748579
O16	O	0.066259	0.500127	0.081877
O17	O	0.399593	0.833460	0.415210
O18	O	0.732926	1.166793	0.748543
O19	O	0.057514	0.640920	0.081908
O20	O	0.390847	0.974254	0.415241
O21	O	0.724181	1.307587	0.748574
Zn22	Zn	0.061886	0.570522	0.107864
Zn23	Zn	0.395219	0.903856	0.441198
Zn24	Zn	0.728553	1.237189	0.774531
Zn25	Zn	0.061891	0.570532	-0.107663
Zn26	Zn	0.395224	0.903865	0.225670
Zn27	Zn	0.728558	1.237199	0.559004
O28	O	0.132283	0.566151	0.081872
O29	O	0.465617	0.899484	0.415206
O30	O	0.798950	1.232817	0.748539
C31	C	0.066078	0.482124	0.000081
C32	C	0.399411	0.815457	0.333415
C33	C	0.732744	1.148790	0.666748
C34	C	0.065525	0.428469	0.000070
C35	C	0.398858	0.761802	0.333404
C36	C	0.732192	1.095135	0.666737
C37	C	0.106229	0.089654	0.000101
C38	C	0.439562	0.422987	0.333435
C39	C	0.772895	0.756320	0.666768
C40	C	0.104178	-0.112006	0.000111
C41	C	0.437511	0.221327	0.333444
C42	C	0.770844	0.554661	0.666777
O43	O	0.141398	-0.143262	0.000143
O44	O	0.474732	0.190072	0.333476
O45	O	0.808065	0.523405	0.666810
N46	N	0.059843	-0.131130	0.000121
N47	N	0.393176	0.202204	0.333455
N48	N	0.726509	0.535537	0.666788
C49	C	0.016017	-0.099835	0.000136
C50	C	0.349350	0.233498	0.333470
C51	C	0.682684	0.566832	0.666803
O52	O	-0.021740	-0.120728	0.000156
O53	O	0.311593	0.212605	0.333489
O54	O	0.644927	0.545938	0.666822
C55	C	0.018068	0.101824	0.000134
C56	C	0.351402	0.435157	0.333467
C57	C	0.684735	0.768490	0.666801
C58	C	0.062407	0.120944	0.000113
C59	C	0.395740	0.454278	0.333447
C60	C	0.729073	0.787611	0.666780
C61	C	0.150563	0.108775	0.000082
C62	C	0.483897	0.442108	0.333415
C63	C	0.817230	0.775442	0.666749
C64	C	0.151075	0.159187	0.000074
C65	C	0.484409	0.492520	0.333408
C66	C	0.817742	0.825853	0.666741
C67	C	0.107253	0.190477	0.000086
C68	C	0.440587	0.523811	0.333419
C69	C	0.773920	0.857144	0.666753
C70	C	0.062919	0.171356	0.000106
C71	C	0.396252	0.504690	0.333439
C72	C	0.729585	0.838023	0.666772
C73	C	-0.025757	0.133117	0.000156
C74	C	0.307577	0.466451	0.333489
C75	C	0.640910	0.799784	0.666822
C76	C	-0.025240	0.183535	0.000158
C77	C	0.308094	0.516868	0.333491
C78	C	0.641427	0.850201	0.666824
C79	C	0.019098	0.202655	0.000137
C80	C	0.352432	0.535989	0.333470
C81	C	0.685765	0.869322	0.666804
C82	C	0.019609	0.253059	0.000110
C83	C	0.352942	0.586392	0.333443
C84	C	0.686276	0.919725	0.666776
N85	N	0.063944	0.272183	0.000099
N86	N	0.397277	0.605516	0.333432
N87	N	0.730611	0.938849	0.666766
C88	C	0.107766	0.240892	0.000087
C89	C	0.441100	0.574225	0.333421
C90	C	0.774433	0.907559	0.666754
C91	C	0.014943	-0.205709	0.000136
C92	C	0.348276	0.127624	0.333469
C93	C	0.681610	0.460957	0.666802
C94	C	0.014430	-0.256124	0.000134
C95	C	0.347763	0.077210	0.333468
C96	C	0.681097	0.410543	0.666801
C97	C	0.102591	-0.268291	0.000111
C98	C	0.435924	0.065042	0.333444
C99	C	0.769258	0.398376	0.666777
C100	C	0.103104	-0.217876	0.000105
C101	C	0.436437	0.115458	0.333438
C102	C	0.769770	0.448791	0.666772
C103	C	0.059278	-0.186585	0.000125
C104	C	0.392612	0.146748	0.333458
C105	C	0.725945	0.480081	0.666792
C106	C	0.108839	0.346761	0.000070
C107	C	0.442172	0.680094	0.333404
C108	C	0.775505	1.013428	0.666737
C109	C	0.109347	0.397178	0.000058
C110	C	0.442681	0.730511	0.333392
C111	C	0.776014	1.063845	0.666725
C112	C	0.021186	0.409341	0.000087
C113	C	0.354520	0.742674	0.333421
C114	C	0.687853	1.076008	0.666754
C115	C	0.020678	0.358929	0.000094
C116	C	0.354011	0.692262	0.333427
C117	C	0.687344	1.025595	0.666760
C118	C	0.064508	0.327639	0.000089
C119	C	0.397841	0.660973	0.333422
C120	C	0.731175	0.994306	0.666755
O121	O	-0.017592	0.284343	0.000089
O122	O	0.315741	0.617676	0.333422
O123	O	0.649075	0.951009	0.666755
O124	O	0.145518	0.261794	0.000090
O125	O	0.478851	0.595128	0.333423
O126	O	0.812184	0.928461	0.666756
C127	C	0.105716	0.039242	0.000109
C128	C	0.439050	0.372575	0.333442
C129	C	0.772383	0.705908	0.666776
C130	C	0.061382	0.020120	0.000129
C131	C	0.394715	0.353454	0.333462
C132	C	0.728049	0.686787	0.666795
C133	C	0.017560	0.051411	0.000141
C134	C	0.350893	0.384744	0.333474
C135	C	0.684226	0.718078	0.666807
C136	C	0.060869	-0.030294	0.000128
C137	C	0.394202	0.303039	0.333461
C138	C	0.727536	0.636373	0.666794
C139	C	0.104691	-0.061585	0.000116
C140	C	0.438025	0.271749	0.333449
C141	C	0.771358	0.605082	0.666782
C142	C	0.149026	-0.042461	0.000105
C143	C	0.482360	0.290872	0.333438
C144	C	0.815693	0.624206	0.666772
C145	C	0.149539	0.007951	0.000097
C146	C	0.482872	0.341284	0.333431
C147	C	0.816205	0.674618	0.666764
C148	C	-0.026775	0.032287	0.000151
C149	C	0.306558	0.365621	0.333485
C150	C	0.639891	0.698954	0.666818
C151	C	-0.027284	-0.018125	0.000158
C152	C	0.306049	0.315208	0.333491
C153	C	0.639383	0.648541	0.666824
C154	C	0.016538	-0.049416	0.000146
C155	C	0.349871	0.283917	0.333479
C156	C	0.683205	0.617251	0.666813
C157	C	-0.026515	0.574716	0.000123
C158	C	0.306818	0.908050	0.333456
C159	C	0.640152	1.241383	0.666790
C160	C	-0.080170	0.574164	0.000131
C161	C	0.253163	0.907497	0.333464
C162	C	0.586497	1.240830	0.666798
C163	C	-0.418985	0.614867	0.000090
C164	C	-0.085652	0.948201	0.333423
C165	C	0.247682	1.281534	0.666756
C166	C	-0.620645	0.612816	0.000075
C167	C	-0.287311	0.946150	0.333409
C168	C	0.046022	1.279483	0.666742
O169	O	-0.651900	0.650037	0.000041
O170	O	-0.318567	0.983370	0.333374
O171	O	0.014766	1.316704	0.666707
N172	N	-0.639768	0.568481	0.000067
N173	N	-0.306435	0.901814	0.333400
N174	N	0.026898	1.235148	0.666733
C175	C	-0.608474	0.524656	0.000055
C176	C	-0.275140	0.857989	0.333388
C177	C	0.058193	1.191322	0.666721
O178	O	-0.629367	0.486899	0.000037
O179	O	-0.296033	0.820232	0.333370
O180	O	0.037300	1.153565	0.666703
C181	C	-0.406815	0.526707	0.000062
C182	C	-0.073482	0.860040	0.333395
C183	C	0.259852	1.193374	0.666728
C184	C	-0.387694	0.571045	0.000081
C185	C	-0.054361	0.904378	0.333414
C186	C	0.278972	1.237712	0.666747
C187	C	-0.399864	0.659202	0.000107
C188	C	-0.066530	0.992535	0.333441
C189	C	0.266803	1.325868	0.666774
C190	C	-0.349452	0.659714	0.000116
C191	C	-0.016118	0.993047	0.333450
C192	C	0.317215	1.326381	0.666783
C193	C	-0.318161	0.615892	0.000107
C194	C	0.015172	0.949225	0.333441
C195	C	0.348506	1.282559	0.666774
C196	C	-0.337282	0.571557	0.000090
C197	C	-0.003949	0.904891	0.333423
C198	C	0.329384	1.238224	0.666756
C199	C	-0.375521	0.482882	0.000043
C200	C	-0.042188	0.816215	0.333376
C201	C	0.291145	1.149549	0.666710
C202	C	-0.325104	0.483399	0.000042
C203	C	0.008229	0.816732	0.333376
C204	C	0.341563	1.150066	0.666709
C205	C	-0.305983	0.527737	0.000061
C206	C	0.027350	0.861070	0.333394
C207	C	0.360683	1.194404	0.666728
C208	C	-0.255580	0.528247	0.000090
C209	C	0.077754	0.861581	0.333423
C210	C	0.411087	1.194914	0.666756
N211	N	-0.236456	0.572583	0.000099
N212	N	0.096877	0.905916	0.333432
N213	N	0.430211	1.239249	0.666765
C214	C	-0.267747	0.616405	0.000107
C215	C	0.065587	0.949738	0.333441
C216	C	0.398920	1.283072	0.666774
C217	C	-0.714348	0.523582	0.000053
C218	C	-0.381014	0.856915	0.333386
C219	C	-0.047681	1.190248	0.666720
C220	C	-0.764762	0.523069	0.000053
C221	C	-0.431429	0.856402	0.333386
C222	C	-0.098096	1.189735	0.666720
C223	C	-0.776930	0.611230	0.000072
C224	C	-0.443596	0.944563	0.333405
C225	C	-0.110263	1.277896	0.666738
C226	C	-0.726514	0.611742	0.000079
C227	C	-0.393181	0.945075	0.333412
C228	C	-0.059848	1.278409	0.666745
C229	C	-0.695224	0.567917	0.000062
C230	C	-0.361891	0.901250	0.333395
C231	C	-0.028557	1.234583	0.666728
C232	C	-0.161878	0.617477	0.000127
C233	C	0.171456	0.950811	0.333460
C234	C	0.504789	1.284144	0.666794
C235	C	-0.111461	0.617986	0.000140
C236	C	0.221873	0.951319	0.333473
C237	C	0.555206	1.284652	0.666807
C238	C	-0.099298	0.529825	0.000116
C239	C	0.234036	0.863158	0.333449
C240	C	0.567369	1.196492	0.666782
C241	C	-0.149710	0.529316	0.000108
C242	C	0.183623	0.862650	0.333441
C243	C	0.516957	1.195983	0.666775
C244	C	-0.180999	0.573147	0.000110
C245	C	0.152334	0.906480	0.333444
C246	C	0.485667	1.239813	0.666777
O247	O	-0.224296	0.491047	0.000113
O248	O	0.109038	0.824380	0.333447
O249	O	0.442371	1.157713	0.666780
O250	O	-0.246844	0.654156	0.000104
O251	O	0.086489	0.987490	0.333437
O252	O	0.419823	1.320823	0.666770
C253	C	-0.469397	0.614355	0.000081
C254	C	-0.136064	0.947688	0.333414
C255	C	0.197270	1.281022	0.666747
C256	C	-0.488518	0.570021	0.000063
C257	C	-0.155185	0.903354	0.333396
C258	C	0.178148	1.236687	0.666730
C259	C	-0.457228	0.526198	0.000054
C260	C	-0.123894	0.859532	0.333387
C261	C	0.209439	1.192865	0.666721
C262	C	-0.538933	0.569508	0.000063
C263	C	-0.205599	0.902841	0.333396
C264	C	0.127734	1.236174	0.666730
C265	C	-0.570223	0.613330	0.000072
C266	C	-0.236890	0.946663	0.333405
C267	C	0.096443	1.279996	0.666738
C268	C	-0.551100	0.657665	0.000081
C269	C	-0.217766	0.990998	0.333414
C270	C	0.115567	1.324332	0.666747
C271	C	-0.500688	0.658177	0.000090
C272	C	-0.167354	0.991511	0.333423
C273	C	0.165979	1.324844	0.666756
C274	C	-0.476351	0.481863	0.000045
C275	C	-0.143018	0.815197	0.333378
C276	C	0.190315	1.148530	0.666712
C277	C	-0.526764	0.481355	0.000037
C278	C	-0.193430	0.814688	0.333371
C279	C	0.139903	1.148021	0.666704
C280	C	-0.558054	0.525177	0.000046
C281	C	-0.224721	0.858510	0.333380
C282	C	0.108612	1.191843	0.666713
C283	C	0.150292	0.566338	0.000076
C284	C	0.483626	0.899671	0.333409
C285	C	0.816959	1.233005	0.666743
C286	C	0.203947	0.566891	0.000062
C287	C	0.537280	0.900224	0.333395
C288	C	0.870614	1.233557	0.666728
C289	C	0.057699	0.658931	0.000118
C290	C	0.391033	0.992264	0.333451
C291	C	0.724366	1.325598	0.666785
C292	C	0.058252	0.712586	0.000123
C293	C	0.391586	1.045919	0.333456
C294	C	0.724919	1.379252	0.666789
N295	N	0.061882	0.570519	0.254956
N296	N	0.395216	0.903853	0.588290
N297	N	0.728549	1.237186	0.921623
N298	N	0.061891	0.570539	-0.254755
N299	N	0.395224	0.903872	0.078578
N300	N	0.728558	1.237206	0.411912
C301	C	0.061892	0.570531	0.656247
C302	C	0.395225	0.903865	0.989581
C303	C	0.728558	1.237198	1.322914
C304	C	0.061891	0.570527	0.544596
C305	C	0.395224	0.903860	0.877929
C306	C	0.728557	1.237193	1.211263
C307	C	0.061887	0.570526	0.455605
C308	C	0.395221	0.903859	0.788939
C309	C	0.728554	1.237192	1.122272
C310	C	0.061886	0.570520	0.343947
C311	C	0.395219	0.903854	0.677280
C312	C	0.728552	1.237187	1.010614
H313	H	-0.060929	0.209009	0.000175
H314	H	0.272405	0.542343	0.333508
H315	H	0.605738	0.875676	0.666841
Br316	Br	-0.039496	0.332978	0.000125
Br317	Br	0.293838	0.666311	0.333458
Br318	Br	0.627171	0.999644	0.666791
H319	H	-0.073812	0.494146	0.000112
H320	H	0.259522	0.827480	0.333445
H321	H	0.592855	1.160813	0.666779
H322	H	-0.780325	0.486964	0.000055
H323	H	-0.446992	0.820297	0.333388
H324	H	-0.113659	1.153631	0.666721
Br325	Br	-0.552706	0.421176	0.000019
Br326	Br	-0.219373	0.754509	0.333353
Br327	Br	0.113960	1.087842	0.666686
Br328	Br	-0.175661	0.469143	0.000105
Br329	Br	0.157673	0.802476	0.333438
Br330	Br	0.491006	1.135810	0.666772
H331	H	-0.187348	0.653168	0.000125
H332	H	0.145985	0.986501	0.333458
H333	H	0.479319	1.319835	0.666792
H334	H	0.138273	-0.293777	0.000101
H335	H	0.471606	0.039557	0.333435
H336	H	0.804939	0.372890	0.666768
H337	H	0.185643	0.023514	0.000082
H338	H	0.518977	0.356847	0.333415
H339	H	0.852310	0.690181	0.666749
Br340	Br	-0.433892	0.422384	0.000028
Br341	Br	-0.100559	0.755717	0.333361
Br342	Br	0.232774	1.089050	0.666695
H343	H	0.186251	0.083302	0.000076
H344	H	0.519584	0.416636	0.333409
H345	H	0.852917	0.749969	0.666743
Br346	Br	0.208499	-0.084937	0.000082
Br347	Br	0.541832	0.248396	0.333415
Br348	Br	0.875165	0.581730	0.666748
H349	H	-0.014492	0.434827	0.000093
H350	H	0.318841	0.768160	0.333426
H351	H	0.652174	1.101494	0.666760
Br352	Br	0.211252	0.185128	0.000051
Br353	Br	0.544585	0.518461	0.333384
Br354	Br	0.877918	0.851795	0.666717
Br355	Br	-0.044540	-0.163250	0.000163
Br356	Br	0.288793	0.170083	0.333496
Br357	Br	0.622126	0.503416	0.666829
Br358	Br	-0.474746	0.718354	0.000109
Br359	Br	-0.141413	1.051687	0.333443
Br360	Br	0.191920	1.385020	0.666776
H361	H	-0.333889	0.695819	0.000128
H362	H	-0.000555	1.029152	0.333461
H363	H	0.332778	1.362485	0.666794
H364	H	-0.391080	0.446777	0.000022
H365	H	-0.057747	0.780111	0.333355
H366	H	0.275586	1.113444	0.666688
Br367	Br	-0.085934	0.107181	0.000162
Br368	Br	0.247400	0.440514	0.333495
Br369	Br	0.580733	0.773848	0.666829
Br370	Br	-0.700570	0.671917	0.000106
Br371	Br	-0.367237	1.005250	0.333440
Br372	Br	-0.033904	1.338584	0.666773
Br373	Br	-0.593575	0.717137	0.000100
Br374	Br	-0.260242	1.050471	0.333434
Br375	Br	0.073091	1.383804	0.666767
H376	H	-0.021674	-0.271687	0.000136
H377	H	0.311659	0.061646	0.333469
H378	H	0.644992	0.394980	0.666802
Br379	Br	-0.671889	0.464098	0.000028
Br380	Br	-0.338556	0.797432	0.333361
Br381	Br	-0.005222	1.130765	0.666694
H382	H	-0.062462	0.057760	0.000163
H383	H	0.270872	0.391093	0.333497
H384	H	0.604205	0.724427	0.666830
Br385	Br	-0.282641	0.423918	0.000015
Br386	Br	0.050692	0.757251	0.333348
Br387	Br	0.384025	1.090585	0.666681
H388	H	0.145454	0.412743	0.000041
H389	H	0.478787	0.746076	0.333374
H390	H	0.812121	1.079410	0.666708
H391	H	0.144530	0.321291	0.000069
H392	H	0.477863	0.654624	0.333402
H393	H	0.811196	0.987957	0.666736
Br394	Br	-0.819405	0.670702	0.000081
Br395	Br	-0.486072	1.004036	0.333415
Br396	Br	-0.152738	1.337369	0.666748
H397	H	0.139207	-0.202311	0.000094
H398	H	0.472541	0.131022	0.333427
H399	H	0.805874	0.464355	0.666760
H400	H	-0.063392	-0.033688	0.000167
H401	H	0.269941	0.299645	0.333500
H402	H	0.603275	0.632979	0.666833
Br403	Br	-0.085515	0.678163	0.000167
Br404	Br	0.247819	1.011496	0.333500
Br405	Br	0.581152	1.344830	0.666833
H406	H	-0.425336	0.694889	0.000111
H407	H	-0.092003	1.028223	0.333444
H408	H	0.241330	1.361556	0.666778
