data_functionalizedCrystal
_audit_creation_method	'MofGen! by Chris Wilmer'
_symmetry_space_group_name_H-M	'P1'
_symmetry_Int_Tables_number	1
_symmetry_cell_setting	triclinic
loop_
_symmetry_equiv_pos_as_xyz
  x,y,z
_cell_length_a	19.188930
_cell_length_b	14.044220
_cell_length_c	12.503552
_cell_angle_alpha	93.839943
_cell_angle_beta	93.525087
_cell_angle_gamma	91.833172
loop_
_atom_site_label
_atom_site_type_symbol
_atom_site_fract_x
_atom_site_fract_y
_atom_site_fract_z
O1	O	0.937482	-0.112792	0.089673
O2	O	1.437482	0.387208	0.589673
O3	O	0.735196	-0.128723	0.089600
O4	O	1.235196	0.371277	0.589600
O5	O	0.833302	0.017214	0.089625
O6	O	1.333302	0.517214	0.589625
O7	O	0.839376	-0.258729	0.089649
O8	O	1.339376	0.241271	0.589649
O9	O	0.825916	0.006229	-0.089019
O10	O	1.325916	0.506229	0.410981
O11	O	0.727809	-0.139708	-0.089044
O12	O	1.227809	0.360292	0.410956
O13	O	0.930096	-0.123777	-0.088971
O14	O	1.430096	0.376223	0.411029
Cu15	Cu	0.828278	-0.132745	-0.105319
Cu16	Cu	1.328278	0.367255	0.394681
Cu17	Cu	0.837014	-0.119754	0.105948
Cu18	Cu	1.337014	0.380246	0.605948
O19	O	0.831989	-0.269713	-0.088996
O20	O	1.331989	0.230287	0.411004
C21	C	0.705458	-0.133700	0.000269
C22	C	1.205458	0.366300	0.500269
C23	C	0.627852	-0.132153	0.000240
C24	C	1.127852	0.367847	0.500240
C25	C	0.826951	0.047025	0.000302
C26	C	1.326951	0.547025	0.500302
C27	C	0.819022	0.152218	0.000297
C28	C	1.319022	0.652218	0.500297
N29	N	0.822139	-0.141882	-0.253914
N30	N	1.322139	0.358118	0.246086
C31	C	0.588455	-0.217782	0.000265
C32	C	1.088455	0.282218	0.500265
C33	C	0.515538	-0.216327	0.000276
C34	C	1.015538	0.283673	0.500276
C35	C	0.482022	-0.129237	0.000285
C36	C	0.982022	0.370763	0.500285
C37	C	0.521428	-0.043597	0.000255
C38	C	1.021428	0.456403	0.500255
C39	C	0.594343	-0.045056	0.000233
C40	C	1.094343	0.454944	0.500233
N41	N	0.372261	-0.058927	0.061123
N42	N	0.872261	0.441073	0.561123
N43	N	0.302995	-0.057547	0.061147
N44	N	0.802995	0.442453	0.561147
C45	C	0.262332	-0.124838	0.000351
C46	C	0.762332	0.375162	0.500351
N47	N	0.293553	-0.193574	-0.060457
N48	N	0.793553	0.306426	0.439543
N49	N	0.362826	-0.194956	-0.060476
N50	N	0.862826	0.305044	0.439524
C51	C	0.402958	-0.127646	0.000309
C52	C	0.902958	0.372354	0.500309
C53	C	0.143870	-0.208894	0.000386
C54	C	0.643870	0.291106	0.500386
C55	C	0.070951	-0.207436	0.000391
C56	C	0.570951	0.292564	0.500391
C57	C	0.076843	-0.034704	0.000381
C58	C	0.576843	0.465296	0.500381
C59	C	0.149760	-0.036165	0.000365
C60	C	0.649760	0.463835	0.500365
C61	C	0.183269	-0.123263	0.000373
C62	C	0.683269	0.376737	0.500373
C63	C	0.959834	-0.118799	0.000363
C64	C	1.459834	0.381201	0.500363
C65	C	1.037440	-0.120345	0.000398
C66	C	1.537440	0.379655	0.500398
C67	C	0.838341	-0.299524	0.000330
C68	C	1.338341	0.200476	0.500330
C69	C	0.846270	-0.404716	0.000341
C70	C	1.346270	0.095284	0.500341
C71	C	0.804527	0.344819	0.000308
C72	C	1.304527	0.844819	0.500308
C73	C	0.860762	0.402687	0.000331
C74	C	1.360762	0.902687	0.500331
C75	C	0.852697	0.509858	0.000337
C76	C	1.352697	1.009858	0.500337
C77	C	0.812591	0.237639	0.000302
C78	C	1.312591	0.737639	0.500302
C79	C	0.852185	-0.097167	-0.526339
C80	C	1.352185	0.402833	-0.026339
C81	C	0.813113	-0.155322	-0.473025
C82	C	1.313113	0.344678	0.026975
C83	C	0.818136	-0.147842	-0.351100
C84	C	1.318136	0.352158	0.148900
C85	C	0.847163	-0.104646	-0.648275
C86	C	1.347163	0.395354	-0.148275
N87	N	0.843158	-0.110610	0.254543
N88	N	1.343158	0.389390	0.754543
H89	H	0.483454	-0.286058	0.000293
H90	H	0.983454	0.213942	0.500293
H91	H	0.181838	0.033563	0.000351
H92	H	0.681838	0.533563	0.500351
H93	H	0.914967	0.371747	0.000423
H94	H	1.414967	0.871747	0.500423
H95	H	0.889406	-0.041766	-0.480419
H96	H	1.389406	0.458234	0.019581
H97	H	0.775891	-0.210728	-0.518950
H98	H	1.275891	0.289272	-0.018950
O99	O	0.620891	-0.302472	0.000213
O100	O	1.120891	0.197528	0.500213
C101	C	0.570477	-0.377737	0.000262
C102	C	1.070477	0.122263	0.500262
H103	H	0.517955	-0.353456	-0.033541
H104	H	1.017955	0.146544	0.466459
H105	H	0.587323	-0.441751	-0.051607
H106	H	1.087323	0.058249	0.448393
H107	H	0.565387	-0.398867	0.085972
H108	H	1.065387	0.101133	0.585972
O109	O	0.488849	0.040990	0.000458
O110	O	0.988849	0.540990	0.500458
C111	C	0.450689	0.052680	0.092981
C112	C	0.950689	0.552680	0.592981
H113	H	0.473686	0.007209	0.157644
H114	H	0.973686	0.507209	0.657644
H115	H	0.453760	0.130990	0.124031
H116	H	0.953760	0.630990	0.624031
H117	H	0.393766	0.029296	0.072086
H118	H	0.893766	0.529296	0.572086
H119	H	0.626420	0.024676	0.000214
H120	H	1.126420	0.524676	0.500214
H121	H	0.171153	-0.279816	0.000376
H122	H	0.671153	0.220184	0.500376
H123	H	0.038874	-0.277168	0.000404
H124	H	0.538874	0.222832	0.500404
O125	O	0.044185	0.049817	0.000439
O126	O	0.544185	0.549817	0.500439
C127	C	-0.028622	0.032743	0.000434
C128	C	0.471378	0.532743	0.500434
H129	H	-0.039704	-0.039201	0.034260
H130	H	0.460296	0.460799	0.534260
H131	H	-0.052294	0.091641	0.052306
H132	H	0.447706	0.591641	0.552306
H133	H	-0.052742	0.031983	-0.085265
H134	H	0.447258	0.531983	0.414735
O135	O	0.739916	0.381882	0.000232
O136	O	1.239916	0.881882	0.500232
C137	C	0.746147	0.482188	0.000267
C138	C	1.246147	0.982188	0.500267
H139	H	0.797805	0.503428	-0.033525
H140	H	1.297805	1.003428	0.466475
H141	H	0.701051	0.509283	-0.051620
H142	H	1.201051	1.009283	0.448380
H143	H	0.744623	0.514963	0.085970
H144	H	1.244623	1.014963	0.585970
