data_functionalizedCrystal
_audit_creation_method	'MofGen! by Chris Wilmer'
_symmetry_space_group_name_H-M	'P1'
_symmetry_Int_Tables_number	1
_symmetry_cell_setting	triclinic
loop_
_symmetry_equiv_pos_as_xyz
  x,y,z
_cell_length_a	29.839134
_cell_length_b	29.839131
_cell_length_c	12.594509
_cell_angle_alpha	90.030796
_cell_angle_beta	90.030743
_cell_angle_gamma	90.036564
loop_
_atom_site_label
_atom_site_type_symbol
_atom_site_fract_x
_atom_site_fract_y
_atom_site_fract_z
Zn1	Zn	0.686758	-0.178901	0.602108
Zn2	Zn	0.686678	-0.254036	0.424122
Zn3	Zn	0.611629	-0.178914	0.424108
Zn4	Zn	0.611588	-0.253998	0.602023
O5	O	0.649163	-0.216462	0.513090
O6	O	0.749614	-0.188879	0.578540
O7	O	0.676706	-0.244092	0.275174
O8	O	0.621645	-0.116045	0.447750
O9	O	0.749556	-0.244080	0.447774
O10	O	0.676842	-0.116036	0.578526
O11	O	0.621568	-0.188900	0.275164
O12	O	0.548756	-0.188864	0.447667
O13	O	0.621575	-0.244015	0.750980
O14	O	0.548726	-0.244028	0.578380
O15	O	0.676802	-0.188842	0.751043
O16	O	0.676666	-0.316898	0.447691
O17	O	0.621498	-0.316870	0.578394
C18	C	0.532441	-0.216443	0.513013
C19	C	0.482506	-0.216446	0.513006
C20	C	0.172856	-0.245229	0.581069
C21	C	-0.014817	-0.245241	0.581116
O22	O	-0.039087	-0.269693	0.638941
N23	N	-0.038279	-0.216479	0.513170
C24	C	-0.014820	-0.187709	0.445212
O25	O	-0.039083	-0.163242	0.387429
C26	C	0.172852	-0.187694	0.445171
C27	C	0.196312	-0.216462	0.513114
C28	C	0.196316	-0.273994	0.649007
C29	C	0.243232	-0.273992	0.648991
C30	C	0.266687	-0.245225	0.581036
C31	C	0.243227	-0.216460	0.513098
C32	C	0.196310	-0.158923	0.377220
C33	C	0.243231	-0.158921	0.377217
C34	C	0.266691	-0.187688	0.445160
C35	C	0.313598	-0.187692	0.445126
N36	N	0.337061	-0.216455	0.513072
C37	C	0.313605	-0.245221	0.581027
C38	C	-0.113351	-0.187719	0.445237
C39	C	-0.160269	-0.187723	0.445246
C40	C	-0.160262	-0.245255	0.581152
C41	C	-0.113343	-0.245253	0.581137
C42	C	-0.089889	-0.216482	0.513183
C43	C	0.412131	-0.245216	0.580986
C44	C	0.459051	-0.245213	0.580961
C45	C	0.459040	-0.187679	0.445059
C46	C	0.412124	-0.187684	0.445081
C47	C	0.388671	-0.216453	0.513053
O48	O	0.337897	-0.163250	0.387340
O49	O	0.337876	-0.269678	0.638819
C50	C	0.125941	-0.245231	0.581086
C51	C	0.102481	-0.216466	0.513147
C52	C	0.125936	-0.187699	0.445193
C53	C	0.055563	-0.216470	0.513156
C54	C	0.032108	-0.245236	0.581111
C55	C	0.055570	-0.273999	0.649057
C56	C	0.102485	-0.273997	0.649040
C57	C	0.102474	-0.158936	0.377247
C58	C	0.055559	-0.158941	0.377268
C59	C	0.032103	-0.187707	0.445223
C60	C	0.649081	-0.333185	0.513057
C61	C	0.649088	-0.383119	0.513079
C62	C	0.620455	-0.739708	0.581143
C63	C	0.620396	-0.552035	0.581109
O64	O	0.595954	-0.527771	0.638959
N65	N	0.649135	-0.528565	0.513111
C66	C	0.677893	-0.552015	0.445121
O67	O	0.702339	-0.527746	0.387291
C68	C	0.677954	-0.739688	0.445160
C69	C	0.649210	-0.763155	0.513156
C70	C	0.591714	-0.763176	0.649133
C71	C	0.591727	-0.810091	0.649137
C72	C	0.620482	-0.833539	0.581150
C73	C	0.649224	-0.810071	0.513159
C74	C	0.706714	-0.763138	0.377177
C75	C	0.706728	-0.810059	0.377194
C76	C	0.677984	-0.833527	0.445190
C77	C	0.677992	-0.880434	0.445176
N78	N	0.649253	-0.903904	0.513174
C79	C	0.620498	-0.880457	0.581161
C80	C	0.677858	-0.453485	0.445104
C81	C	0.677842	-0.406567	0.445092
C82	C	0.620346	-0.406590	0.581082
C83	C	0.620360	-0.453508	0.581087
C84	C	0.649119	-0.476955	0.513102
C85	C	0.620528	-0.978982	0.581163
C86	C	0.620543	-1.025902	0.581157
C87	C	0.678041	-1.025875	0.445172
C88	C	0.678025	-0.978960	0.445173
C89	C	0.649267	-0.955515	0.513177
O90	O	0.702425	-0.904726	0.387365
O91	O	0.596062	-0.904734	0.638999
C92	C	0.620442	-0.692792	0.581139
C93	C	0.649183	-0.669325	0.513149
C94	C	0.677938	-0.692772	0.445162
C95	C	0.649168	-0.622407	0.513137
C96	C	0.620413	-0.598959	0.581124
C97	C	0.591674	-0.622429	0.649123
C98	C	0.591687	-0.669345	0.649126
C99	C	0.706677	-0.669302	0.377163
C100	C	0.706661	-0.622386	0.377164
C101	C	0.677906	-0.598939	0.445151
C102	C	0.766341	-0.216482	0.513168
C103	C	0.816276	-0.216490	0.513201
C104	C	0.649193	-0.216423	0.790711
C105	C	0.649206	-0.216406	0.909017
C106	C	0.649257	-0.099284	0.513146
C107	C	0.649297	-0.049350	0.513170
C108	C	0.649159	-0.216469	0.236549
C109	C	0.649233	-0.216359	0.118244
C110	C	0.619177	-0.246398	0.978236
C111	C	0.660165	-0.257378	1.049041
C112	C	0.608250	-0.205399	1.049011
C113	C	0.690215	-0.227408	0.978264
C114	C	0.638272	-0.175410	0.978227
C115	C	0.679289	-0.186374	1.049001
H116	H	0.121582	-0.297423	0.704367
O117	O	0.030268	-0.305025	0.722360
H118	H	-0.006297	-0.300187	0.710954
O119	O	-0.185571	-0.156698	0.371960
H120	H	-0.161374	-0.136692	0.324718
H121	H	0.596956	-0.472613	0.636461
O122	O	0.030260	-0.127915	0.303965
H123	H	-0.006306	-0.132748	0.315375
O124	O	0.386827	-0.156664	0.371764
H125	H	0.365431	-0.176749	0.317530
O126	O	0.585565	-0.280041	0.937065
H127	H	0.585628	-0.279536	0.848945
O128	O	0.589334	-0.381296	0.654423
H129	H	0.594158	-0.344730	0.642992
O130	O	-0.088055	-0.156697	0.371915
H131	H	-0.112257	-0.136706	0.324661
H132	H	-0.179367	-0.268678	0.636483
O133	O	0.560726	-0.835397	0.722484
H134	H	0.565560	-0.871963	0.711075
O135	O	0.562357	-0.193086	1.090165
H136	H	0.549213	-0.220841	1.139867
O137	O	0.560689	-0.737889	0.722448
H138	H	0.540705	-0.762097	0.769709
O139	O	0.712976	-0.152751	1.089913
H140	H	0.746936	-0.161974	1.061426
H141	H	0.568281	-0.688448	0.704496
H142	H	0.628998	-0.140769	0.947099
O143	O	0.484342	-0.156651	0.371771
H144	H	0.520907	-0.161481	0.383192
O145	O	0.560660	-0.597136	0.722459
H146	H	0.565486	-0.560569	0.711030
H147	H	0.724872	-0.236738	0.947317
O148	O	0.127763	-0.127909	0.303931
H149	H	0.149164	-0.105067	0.351637
H150	H	0.597135	-1.045007	0.636530
H151	H	0.478150	-0.268641	0.636289
H152	H	0.701243	-0.387463	0.389712
H153	H	0.393041	-0.268642	0.636338
O154	O	-0.088038	-0.276272	0.654432
H155	H	-0.097067	-0.311524	0.636046
H156	H	0.701278	-0.472571	0.389737
H157	H	0.262329	-0.297417	0.704319
H158	H	0.730120	-0.744037	0.321810
H159	H	0.730067	-0.603282	0.321785
H160	H	0.177224	-0.297419	0.704350
H161	H	0.669428	-0.292029	1.080146
H162	H	0.177217	-0.135498	0.321890
H163	H	0.730149	-0.829147	0.321835
H164	H	0.262325	-0.135488	0.321887
H165	H	0.701450	-1.044975	0.389814
O166	O	0.589505	-0.953698	0.654491
H167	H	0.569519	-0.977905	0.701753
O168	O	0.709027	-0.953639	0.371850
H169	H	0.701354	-0.962665	0.288286
O170	O	0.737689	-0.694590	0.303823
H171	H	0.757666	-0.670383	0.256538
