data_functionalizedCrystal
_audit_creation_method	'MofGen! by Chris Wilmer'
_symmetry_space_group_name_H-M	'P1'
_symmetry_Int_Tables_number	1
_symmetry_cell_setting	triclinic
loop_
_symmetry_equiv_pos_as_xyz
  x,y,z
_cell_length_a	12.996460
_cell_length_b	14.853567
_cell_length_c	14.853567
_cell_angle_alpha	83.634930
_cell_angle_beta	90.003507
_cell_angle_gamma	89.996756
loop_
_atom_site_label
_atom_site_type_symbol
_atom_site_fract_x
_atom_site_fract_y
_atom_site_fract_z
O1	O	0.085487	-1.196368	-0.117698
O2	O	0.085504	-0.933908	-0.131719
O3	O	0.085498	-1.072149	0.006521
O4	O	0.085493	-1.058127	-0.255938
O5	O	-0.085636	-1.072131	0.006513
O6	O	-0.085630	-0.933890	-0.131727
O7	O	-0.085647	-1.196350	-0.117706
Cu8	Cu	-0.101264	-1.065118	-0.124717
Cu9	Cu	0.101121	-1.065140	-0.124708
O10	O	-0.085641	-1.058109	-0.255947
C11	C	-0.000061	-0.900311	-0.131088
C12	C	-0.000054	-0.800227	-0.129184
N13	N	-0.243611	-1.065110	-0.124724
C14	C	-0.336717	-1.065114	-0.124726
C15	C	-0.453523	-1.065123	-0.124720
C16	C	-0.546621	-1.065134	-0.124710
C17	C	-0.663433	-1.065144	-0.124705
C18	C	-0.000066	-1.071504	0.040106
C19	C	-0.000057	-1.069601	0.140189
N20	N	0.243468	-1.065155	-0.124695
C21	C	-0.000080	-1.229947	-0.118337
C22	C	-0.000080	-1.330031	-0.120241
C23	C	-0.000076	-0.387693	-0.039019
C24	C	-0.000078	-0.366412	-0.203251
C25	C	-0.000075	-0.460446	-0.205042
C26	C	-0.000070	-0.518108	-0.123819
C27	C	-0.000069	-0.481736	-0.040806
C28	C	-0.000065	-0.496825	-0.288053
C29	C	-0.000061	-0.590864	-0.289846
C30	C	-0.000064	-0.648528	-0.208623
C31	C	-0.000064	-0.612150	-0.125607
C32	C	-0.000060	-0.669812	-0.044384
C33	C	-0.000067	-0.633437	0.038633
C34	C	-0.000072	-0.539399	0.040417
C35	C	-0.000059	-0.742565	-0.210407
C36	C	-0.000053	-0.763855	-0.046172
C37	C	-0.000075	-1.058754	-0.289531
C38	C	-0.000077	-1.060657	-0.389615
C39	C	-0.000071	-0.979435	0.552723
C40	C	-0.000081	-1.143668	0.574004
C41	C	-0.000075	-1.145458	0.479971
C42	C	-0.000069	-1.064235	0.422309
C43	C	-0.000068	-0.981223	0.458680
C44	C	-0.000086	-1.228469	0.443591
C45	C	-0.000081	-1.230262	0.349552
C46	C	-0.000067	-1.149039	0.291889
C47	C	-0.000066	-1.066023	0.328266
C48	C	-0.000059	-0.984800	0.270604
C49	C	-0.000050	-0.901783	0.306979
C50	C	-0.000054	-0.899999	0.401017
C51	C	-0.000063	-1.150823	0.197851
C52	C	-0.000056	-0.986588	0.176561
H53	H	-0.000054	-0.810798	0.019971
N54	N	-0.000046	-0.630095	-0.379380
H55	H	-0.000046	-0.579296	-0.430561
H56	H	-0.063485	-0.668647	-0.383707
H57	H	-0.000086	-0.358072	0.028572
N58	N	-0.000088	-0.500167	0.129950
H59	H	-0.000090	-0.431846	0.118756
H60	H	0.063352	-0.521251	0.165505
H61	H	-0.000056	-0.680397	0.104764
N62	N	-0.000071	-0.889896	0.591945
H63	H	0.063370	-0.854314	0.570929
H64	H	-0.000111	-0.901156	0.660260
H65	H	-0.000048	-0.832411	0.430643
H66	H	-0.000078	-1.218414	0.168238
H67	H	-0.000073	-0.319459	-0.269379
N68	N	-0.000105	-1.231268	0.636190
H69	H	-0.000112	-1.217539	0.701282
H70	H	0.063335	-1.267450	0.624413
H71	H	-0.000054	-0.772178	-0.277998
N72	N	-0.000059	-0.434637	-0.375652
H73	H	-0.000069	-0.369546	-0.361921
H74	H	-0.063497	-0.446426	-0.411831
N75	N	-0.000040	-0.898982	0.114371
H76	H	-0.000034	-0.846125	0.151686
H77	H	-0.063482	-0.896136	0.074886
H78	H	-0.000101	-1.294596	0.490546
N79	N	-0.000063	-0.814188	0.244773
H80	H	0.063371	-0.811278	0.205279
H81	H	-0.000100	-0.761370	0.282135
N82	N	-0.000088	-1.319800	0.310330
H83	H	0.063349	-1.355393	0.331358
H84	H	-0.000121	-1.308540	0.242014
