data_functionalizedCrystal
_audit_creation_method	'MofGen! by Chris Wilmer'
_symmetry_space_group_name_H-M	'P1'
_symmetry_Int_Tables_number	1
_symmetry_cell_setting	triclinic
loop_
_symmetry_equiv_pos_as_xyz
  x,y,z
_cell_length_a	19.188930
_cell_length_b	19.188930
_cell_length_c	17.666332
_cell_angle_alpha	89.988397
_cell_angle_beta	89.976766
_cell_angle_gamma	83.144779
loop_
_atom_site_label
_atom_site_type_symbol
_atom_site_fract_x
_atom_site_fract_y
_atom_site_fract_z
O1	O	0.926150	0.087169	-0.063200
O2	O	1.259483	0.420502	0.270133
O3	O	1.592816	0.753835	0.603467
O4	O	0.722838	0.098903	-0.063149
O5	O	1.056172	0.432236	0.270184
O6	O	1.389505	0.765570	0.603517
O7	O	0.830361	-0.008620	-0.063161
O8	O	1.163694	0.324714	0.270172
O9	O	1.497028	0.658047	0.603505
O10	O	0.818627	0.194692	-0.063188
O11	O	1.151960	0.528025	0.270145
O12	O	1.485294	0.861358	0.603479
O13	O	0.830342	-0.008625	0.062735
O14	O	1.163676	0.324708	0.396069
O15	O	1.497009	0.658041	0.729402
O16	O	0.722820	0.098897	0.062747
O17	O	1.056153	0.432231	0.396081
O18	O	1.389486	0.765564	0.729414
O19	O	0.926131	0.087163	0.062697
O20	O	1.259464	0.420496	0.396030
O21	O	1.592797	0.753830	0.729363
Cu22	Cu	0.824473	0.093030	0.074217
Cu23	Cu	1.157807	0.426363	0.407551
Cu24	Cu	1.491140	0.759696	0.740884
Cu25	Cu	0.824496	0.093036	-0.074670
Cu26	Cu	1.157829	0.426370	0.258663
Cu27	Cu	1.491162	0.759703	0.591997
O28	O	0.818608	0.194686	0.062709
O29	O	1.151941	0.528019	0.396042
O30	O	1.485275	0.861353	0.729375
C31	C	0.696818	0.098520	-0.000194
C32	C	1.030151	0.431854	0.333139
C33	C	1.363485	0.765187	0.666472
C34	C	0.619313	0.097380	-0.000174
C35	C	0.952647	0.430713	0.333159
C36	C	1.285980	0.764046	0.666492
C37	C	0.574389	0.160470	-0.000194
C38	C	0.907723	0.493804	0.333139
C39	C	1.241056	0.827137	0.666472
C40	C	0.501566	0.159399	-0.000203
C41	C	0.834899	0.492732	0.333131
C42	C	1.168232	0.826065	0.666464
C43	C	0.473669	0.095233	-0.000206
C44	C	0.807002	0.428566	0.333128
C45	C	1.140336	0.761899	0.666461
C46	C	0.518603	0.032133	-0.000181
C47	C	0.851936	0.365467	0.333152
C48	C	1.185270	0.698800	0.666485
C49	C	0.591425	0.033207	-0.000166
C50	C	0.924758	0.366540	0.333168
C51	C	1.258092	0.699874	0.666501
N52	N	0.365695	0.046188	-0.043078
N53	N	0.699029	0.379521	0.290255
N54	N	1.032362	0.712854	0.623589
N55	N	0.296517	0.045172	-0.043095
N56	N	0.629850	0.378505	0.290239
N57	N	0.963183	0.711839	0.623572
C58	C	0.254260	0.091994	-0.000252
C59	C	0.587594	0.425328	0.333082
C60	C	0.920927	0.758661	0.666415
N61	N	0.283795	0.139881	0.042599
N62	N	0.617128	0.473215	0.375932
N63	N	0.950461	0.806548	0.709266
N64	N	0.352979	0.140899	0.042612
N65	N	0.686313	0.474232	0.375946
N66	N	1.019646	0.807565	0.709279
C67	C	0.394707	0.094062	-0.000222
C68	C	0.728040	0.427395	0.333111
C69	C	1.061373	0.760728	0.666444
C70	C	0.130372	0.153928	-0.000280
C71	C	0.463705	0.487261	0.333054
C72	C	0.797039	0.820594	0.666387
C73	C	0.057547	0.152853	-0.000283
C74	C	0.390881	0.486187	0.333050
C75	C	0.724214	0.819520	0.666384
C76	C	0.074586	0.025586	-0.000270
C77	C	0.407919	0.358920	0.333064
C78	C	0.741253	0.692253	0.666397
C79	C	0.147409	0.026662	-0.000258
C80	C	0.480743	0.359996	0.333075
C81	C	0.814076	0.693329	0.666408
C82	C	0.175298	0.090835	-0.000267
C83	C	0.508631	0.424168	0.333066
C84	C	0.841964	0.757502	0.666400
C85	C	0.829972	-0.034634	-0.000211
C86	C	1.163305	0.298700	0.333123
C87	C	1.496638	0.632033	0.666456
C88	C	0.828831	-0.112138	-0.000204
C89	C	1.162164	0.221195	0.333129
C90	C	1.495498	0.554529	0.666463
C91	C	0.891922	-0.157062	-0.000216
C92	C	1.225255	0.176271	0.333117
C93	C	1.558589	0.509605	0.666451
C94	C	0.890850	-0.229886	-0.000228
C95	C	1.224184	0.103448	0.333105
C96	C	1.557517	0.436781	0.666439
C97	C	0.826684	-0.257782	-0.000212
C98	C	1.160017	0.075551	0.333121
C99	C	1.493351	0.408884	0.666454
C100	C	0.763585	-0.212849	-0.000205
C101	C	1.096918	0.120485	0.333129
C102	C	1.430252	0.453818	0.666462
C103	C	0.764658	-0.140026	-0.000200
C104	C	1.097992	0.193307	0.333133
C105	C	1.431325	0.526640	0.666466
N106	N	0.777630	-0.365789	0.042645
N107	N	1.110964	-0.032456	0.375978
N108	N	1.444297	0.300877	0.709311
N109	N	0.776615	-0.434968	0.042642
N110	N	1.109948	-0.101635	0.375976
N111	N	1.443282	0.231699	0.709309
C112	C	0.823446	-0.477191	-0.000227
C113	C	1.156779	-0.143858	0.333106
C114	C	1.490113	0.189476	0.666440
N115	N	0.871341	-0.447624	-0.043084
N116	N	1.204675	-0.114290	0.290249
N117	N	1.538008	0.219043	0.623582
N118	N	0.872359	-0.378439	-0.043079
N119	N	1.205692	-0.045106	0.290255
N120	N	1.539026	0.288228	0.623588
C121	C	0.825513	-0.336745	-0.000218
C122	C	1.158846	-0.003412	0.333116
C123	C	1.492180	0.329922	0.666449
C124	C	0.885379	-0.601079	-0.000253
C125	C	1.218712	-0.267746	0.333080
C126	C	1.552046	0.065587	0.666414
C127	C	0.884305	-0.673904	-0.000270
C128	C	1.217638	-0.340571	0.333064
C129	C	1.550971	-0.007238	0.666397
C130	C	0.757038	-0.656865	-0.000239
C131	C	1.090371	-0.323532	0.333095
C132	C	1.423704	0.009801	0.666428
C133	C	0.758114	-0.584042	-0.000230
C134	C	1.091447	-0.250709	0.333104
C135	C	1.424781	0.082624	0.666437
C136	C	0.822287	-0.556154	-0.000233
C137	C	1.155620	-0.222821	0.333100
C138	C	1.488953	0.110513	0.666433
C139	C	0.952151	0.087546	-0.000260
C140	C	1.285485	0.420879	0.333073
C141	C	1.618818	0.754213	0.666407
C142	C	1.029656	0.088687	-0.000285
C143	C	1.362989	0.422020	0.333048
C144	C	1.696322	0.755353	0.666382
C145	C	0.818997	0.220700	-0.000244
C146	C	1.152331	0.554033	0.333090
C147	C	1.485664	0.887366	0.666423
C148	C	0.820138	0.298204	-0.000255
C149	C	1.153471	0.631538	0.333078
C150	C	1.486805	0.964871	0.666411
N151	N	0.824463	0.093025	0.178937
N152	N	1.157796	0.426358	0.512270
N153	N	1.491130	0.759691	0.845603
N154	N	0.824512	0.093036	-0.179390
N155	N	1.157845	0.426369	0.153944
N156	N	1.491178	0.759703	0.487277
C157	C	0.872089	0.045437	0.218541
C158	C	1.205423	0.378770	0.551875
C159	C	1.538756	0.712103	0.885208
C160	C	0.872093	0.045433	0.297789
C161	C	1.205427	0.378767	0.631122
C162	C	1.538760	0.712100	0.964455
C163	C	0.824478	0.093030	0.337429
C164	C	1.157811	0.426363	0.670762
C165	C	1.491144	0.759697	1.004096
C166	C	0.776842	0.140621	0.297815
C167	C	1.110176	0.473955	0.631148
C168	C	1.443509	0.807288	0.964482
C169	C	0.776835	0.140619	0.218569
C170	C	1.110168	0.473952	0.551902
C171	C	1.443502	0.807285	0.885236
N172	N	0.815401	0.154837	0.461841
N173	N	1.148735	0.488171	0.795174
N174	N	1.482068	0.821504	1.128508
N175	N	0.815413	0.154837	0.537121
N176	N	1.148746	0.488171	0.870455
N177	N	1.482079	0.821504	1.203788
C178	C	0.824496	0.093040	0.576193
C179	C	1.157829	0.426373	0.909526
C180	C	1.491163	0.759706	1.242860
N181	N	0.833582	0.031239	0.537140
N182	N	1.166915	0.364573	0.870474
N183	N	1.500248	0.697906	1.203807
N184	N	0.833574	0.031240	0.461853
N185	N	1.166907	0.364573	0.795186
N186	N	1.500241	0.697906	1.128520
C187	C	0.824480	0.093038	0.423358
C188	C	1.157813	0.426371	0.756691
C189	C	1.491147	0.759704	1.090025
C190	C	0.872130	0.045444	0.701727
C191	C	1.205463	0.378777	1.035060
C192	C	1.538796	0.712111	1.368393
C193	C	0.872129	0.045440	0.780976
C194	C	1.205462	0.378773	1.114309
C195	C	1.538795	0.712106	1.447642
C196	C	0.776881	0.140634	0.781000
C197	C	1.110214	0.473967	1.114334
C198	C	1.443548	0.807301	1.447667
C199	C	0.776878	0.140632	0.701753
C200	C	1.110212	0.473966	1.035086
C201	C	1.443545	0.807299	1.368420
C202	C	0.824506	0.093038	0.662121
C203	C	1.157840	0.426371	0.995454
C204	C	1.491173	0.759705	1.328787
H205	H	0.628003	-0.018171	-0.000150
H206	H	0.961336	0.315162	0.333184
H207	H	1.294670	0.648496	0.666517
O208	O	0.047613	-0.036807	-0.000238
O209	O	0.380946	0.296527	0.333095
O210	O	0.714279	0.629860	0.666428
C211	C	0.102885	-0.092264	-0.000242
C212	C	0.436218	0.241069	0.333092
C213	C	0.769551	0.574402	0.666425
H214	H	0.152285	-0.072845	0.023600
H215	H	0.485619	0.260488	0.356933
H216	H	0.818952	0.593821	0.690267
H217	H	0.087783	-0.137079	0.036312
H218	H	0.421116	0.196254	0.369645
H219	H	0.754450	0.529587	0.702978
H220	H	0.113280	-0.111713	-0.060637
H221	H	0.446613	0.221620	0.272697
H222	H	0.779947	0.554954	0.606030
O223	O	0.701193	-0.239828	-0.000223
O224	O	1.034526	0.093506	0.333111
O225	O	1.367859	0.426839	0.666444
C226	C	0.645735	-0.184556	-0.000191
C227	C	0.979068	0.148777	0.333142
C228	C	1.312401	0.482110	0.666475
H229	H	0.665158	-0.135138	-0.024028
H230	H	0.998492	0.198195	0.309305
H231	H	1.331825	0.531528	0.642638
H232	H	0.600928	-0.199632	-0.036735
H233	H	0.934261	0.133701	0.296599
H234	H	1.267595	0.467034	0.629932
H235	H	0.626272	-0.174204	0.060212
H236	H	0.959605	0.159129	0.393545
H237	H	1.292939	0.492463	0.726878
O238	O	0.954318	-0.130089	-0.000258
O239	O	1.287651	0.203245	0.333075
O240	O	1.620985	0.536578	0.666409
C241	C	1.009774	-0.185362	-0.000251
C242	C	1.343108	0.147971	0.333082
C243	C	1.676441	0.481305	0.666415
H244	H	0.990358	-0.234769	-0.024086
H245	H	1.323692	0.098564	0.309248
H246	H	1.657025	0.431897	0.642581
H247	H	1.054596	-0.170273	-0.036809
H248	H	1.387930	0.163060	0.296524
H249	H	1.721263	0.496394	0.629858
H250	H	1.029213	-0.195739	0.060144
H251	H	1.362546	0.137595	0.393477
H252	H	1.695879	0.470928	0.726811
H253	H	0.910910	0.006684	0.813222
H254	H	1.244243	0.340018	1.146556
H255	H	1.577576	0.673351	1.479889
O256	O	0.157352	0.216323	-0.000247
O257	O	0.490685	0.549656	0.333087
O258	O	0.824019	0.882989	0.666420
C259	C	0.102081	0.271781	-0.000277
C260	C	0.435414	0.605114	0.333056
C261	C	0.768747	0.938447	0.666389
H262	H	0.052656	0.252360	0.023552
H263	H	0.385989	0.585693	0.356885
H264	H	0.719322	0.919026	0.690218
H265	H	0.117146	0.316592	0.036273
H266	H	0.450479	0.649925	0.369607
H267	H	0.783813	0.983258	0.702940
H268	H	0.091746	0.291236	-0.060679
H269	H	0.425080	0.624569	0.272654
H270	H	0.758413	0.957903	0.605988
O271	O	0.694767	-0.684071	-0.000194
O272	O	1.028100	-0.350738	0.333140
O273	O	1.361434	-0.017405	0.666473
C274	C	0.707347	-0.757980	-0.000224
C275	C	1.040680	-0.424647	0.333109
C276	C	1.374013	-0.091313	0.666442
H277	H	0.761881	-0.775254	0.023600
H278	H	1.095214	-0.441920	0.356933
H279	H	1.428547	-0.108587	0.690266
H280	H	0.666293	-0.780226	0.036330
H281	H	0.999626	-0.446893	0.369664
H282	H	1.332959	-0.113559	0.702997
H283	H	0.704038	-0.778225	-0.060626
H284	H	1.037372	-0.444892	0.272708
H285	H	1.370705	-0.111559	0.606041
H286	H	0.738051	0.179371	0.186322
H287	H	1.071384	0.512705	0.519656
H288	H	1.404718	0.846038	0.852989
O289	O	0.730655	0.186965	0.819415
O290	O	1.063988	0.520298	1.152748
O291	O	1.397321	0.853631	1.486081
C292	C	0.741798	0.256055	0.800042
C293	C	1.075131	0.589388	1.133376
C294	C	1.408465	0.922721	1.466709
H295	H	0.768706	0.255902	0.742490
H296	H	1.102039	0.589236	1.075824
H297	H	1.435372	0.922569	1.409157
H298	H	0.689212	0.290568	0.797351
H299	H	1.022545	0.623902	1.130684
H300	H	1.355878	0.957235	1.464018
H301	H	0.776486	0.277561	0.844620
H302	H	1.109820	0.610894	1.177953
H303	H	1.443153	0.944228	1.511286
H304	H	0.738099	0.179386	0.669505
H305	H	1.071433	0.512719	1.002838
H306	H	1.404766	0.846052	1.336172
O307	O	0.703433	-0.096284	-0.000218
O308	O	1.036767	0.237049	0.333115
O309	O	1.370100	0.570383	0.666449
C310	C	0.718141	-0.026029	-0.000194
C311	C	1.051474	0.307305	0.333140
C312	C	1.384808	0.640638	0.666473
H313	H	0.772978	-0.023398	-0.024039
H314	H	1.106311	0.309935	0.309295
H315	H	1.439644	0.643268	0.642628
H316	H	0.677918	0.007099	-0.036733
H317	H	1.011251	0.340432	0.296600
H318	H	1.344585	0.673765	0.629934
H319	H	0.715419	-0.004976	0.060209
H320	H	1.048753	0.328358	0.393542
H321	H	1.382086	0.661691	0.726875
O322	O	0.601363	0.222867	-0.000161
O323	O	0.934696	0.556200	0.333172
O324	O	1.268030	0.889533	0.666506
C325	C	0.546090	0.278323	-0.000199
C326	C	0.879423	0.611656	0.333135
C327	C	1.212756	0.944990	0.666468
H328	H	0.496663	0.258901	0.023625
H329	H	0.829997	0.592234	0.356958
H330	H	1.163330	0.925567	0.690291
H331	H	0.561149	0.323135	0.036353
H332	H	0.894483	0.656469	0.369686
H333	H	1.227816	0.989802	0.703020
H334	H	0.535761	0.297777	-0.060602
H335	H	0.869094	0.631110	0.272731
H336	H	1.202427	0.964443	0.606065
H337	H	0.706738	-0.547464	-0.000216
H338	H	1.040072	-0.214131	0.333118
H339	H	1.373405	0.119203	0.666451
H340	H	0.910909	0.006688	0.669457
H341	H	1.244242	0.340021	1.002790
H342	H	1.577576	0.673355	1.336124
O343	O	0.191122	-0.034580	-0.000351
O344	O	0.524456	0.298754	0.332983
O345	O	0.857789	0.632087	0.666316
C346	C	0.233777	-0.037769	-0.065555
C347	C	0.567111	0.295564	0.267778
C348	C	0.900444	0.628897	0.601112
H349	H	0.237303	0.017640	-0.087295
H350	H	0.570637	0.350973	0.246038
H351	H	0.903970	0.684307	0.579372
H352	H	0.288583	-0.063947	-0.050879
H353	H	0.621916	0.269386	0.282454
H354	H	0.955250	0.602719	0.615787
H355	H	0.209939	-0.069580	-0.111216
H356	H	0.543272	0.263753	0.222118
H357	H	0.876605	0.597087	0.555451
H358	H	0.937632	-0.578372	-0.000259
H359	H	1.270966	-0.245038	0.333074
H360	H	1.604299	0.088295	0.666407
O361	O	0.952120	-0.273565	-0.000368
O362	O	1.285453	0.059768	0.332965
O363	O	1.618787	0.393102	0.666298
C364	C	0.955314	-0.316200	-0.065562
C365	C	1.288648	0.017133	0.267771
C366	C	1.621981	0.350467	0.601105
H367	H	0.919545	-0.289411	-0.111133
H368	H	1.252878	0.043922	0.222200
H369	H	1.586211	0.377256	0.555534
H370	H	1.011587	-0.324562	-0.087452
H371	H	1.344920	0.008771	0.245881
H372	H	1.678254	0.342104	0.579214
H373	H	0.937396	-0.369102	-0.050819
H374	H	1.270729	-0.035769	0.282514
H375	H	1.604063	0.297565	0.615848
H376	H	0.738072	0.179374	0.330094
H377	H	1.071405	0.512707	0.663427
H378	H	1.404738	0.846041	0.996761
O379	O	0.457845	0.220641	-0.000328
O380	O	0.791178	0.553975	0.333006
O381	O	1.124511	0.887308	0.666339
C382	C	0.415264	0.223827	-0.065553
C383	C	0.748597	0.557161	0.267781
C384	C	1.081930	0.890494	0.601114
H385	H	0.411769	0.168417	-0.087279
H386	H	0.745102	0.501750	0.246054
H387	H	1.078435	0.835084	0.579387
H388	H	0.360439	0.249999	-0.050909
H389	H	0.693772	0.583332	0.282425
H390	H	1.027106	0.916666	0.615758
H391	H	0.439150	0.255641	-0.111211
H392	H	0.772483	0.588975	0.222122
H393	H	1.105817	0.922308	0.555456
O394	O	0.491474	-0.030180	-0.000321
O395	O	0.824807	0.303154	0.333012
O396	O	1.158140	0.636487	0.666346
C397	C	0.449885	-0.034598	-0.065525
C398	C	0.783218	0.298735	0.267808
C399	C	1.116551	0.632068	0.601142
H400	H	0.467024	0.001836	-0.111097
H401	H	0.800357	0.335169	0.222236
H402	H	1.133691	0.668502	0.555569
H403	H	0.456605	-0.090888	-0.087404
H404	H	0.789938	0.242445	0.245929
H405	H	1.123271	0.575779	0.579262
H406	H	0.392397	-0.018317	-0.050800
H407	H	0.725730	0.315017	0.282533
H408	H	1.059064	0.648350	0.615866
O409	O	0.945577	-0.717573	-0.000419
O410	O	1.278911	-0.384240	0.332915
O411	O	1.612244	-0.050907	0.666248
C412	C	0.948772	-0.760200	-0.065619
C413	C	1.282105	-0.426866	0.267714
C414	C	1.615438	-0.093533	0.601048
H415	H	0.912995	-0.733408	-0.111183
H416	H	1.246328	-0.400075	0.222150
H417	H	1.579662	-0.066742	0.555484
H418	H	1.005043	-0.768551	-0.087515
H419	H	1.338376	-0.435218	0.245818
H420	H	1.671709	-0.101885	0.579151
H421	H	0.930862	-0.813107	-0.050883
H422	H	1.264195	-0.479774	0.282450
H423	H	1.597529	-0.146440	0.615784
H424	H	0.910869	0.006681	0.186275
H425	H	1.244202	0.340015	0.519608
H426	H	1.577536	0.673348	0.852942
O427	O	0.013875	0.214124	-0.000171
O428	O	0.347209	0.547457	0.333163
O429	O	0.680542	0.880791	0.666496
C430	C	-0.028805	0.217308	0.065014
C431	C	0.304528	0.550641	0.398347
C432	C	0.637862	0.883974	0.731681
H433	H	-0.002049	0.181527	0.110602
H434	H	0.331284	0.514861	0.443935
H435	H	0.664617	0.848194	0.777268
H436	H	-0.037179	0.273576	0.086885
H437	H	0.296154	0.606909	0.420218
H438	H	0.629488	0.940242	0.753551
H439	H	-0.081698	0.199395	0.050267
H440	H	0.251635	0.532729	0.383601
H441	H	0.584968	0.866062	0.716934
H442	H	0.910878	0.006680	0.330041
H443	H	1.244211	0.340013	0.663374
H444	H	1.577544	0.673347	0.996707
