data_functionalizedCrystal
_audit_creation_method	'MofGen! by Chris Wilmer'
_symmetry_space_group_name_H-M	'P1'
_symmetry_Int_Tables_number	1
_symmetry_cell_setting	triclinic
loop_
_symmetry_equiv_pos_as_xyz
  x,y,z
_cell_length_a	16.625527
_cell_length_b	13.032831
_cell_length_c	13.032721
_cell_angle_alpha	89.097115
_cell_angle_beta	82.898416
_cell_angle_gamma	82.761909
loop_
_atom_site_label
_atom_site_type_symbol
_atom_site_fract_x
_atom_site_fract_y
_atom_site_fract_z
Zn1	Zn	0.664305	-1.520957	-0.608629
Zn2	Zn	1.164305	-1.020957	-0.108629
Zn3	Zn	0.544172	-1.498870	-0.780742
Zn4	Zn	1.044172	-0.998870	-0.280742
Zn5	Zn	0.510525	-1.348810	-0.586970
Zn6	Zn	1.010525	-0.848810	-0.086970
Zn7	Zn	0.660000	-1.327101	-0.758681
Zn8	Zn	1.160000	-0.827101	-0.258681
O9	O	0.594751	-1.423934	-0.683755
O10	O	1.094751	-0.923934	-0.183755
O11	O	0.664252	-1.661957	-0.649757
O12	O	1.164252	-1.161957	-0.149757
O13	O	0.426877	-1.478806	-0.755206
O14	O	0.926877	-0.978806	-0.255206
O15	O	0.518644	-1.389974	-0.445951
O16	O	1.018644	-0.889974	0.054049
O17	O	0.575991	-1.645730	-0.776208
O18	O	1.075991	-1.145730	-0.276208
O19	O	0.631626	-1.516450	-0.461864
O20	O	1.131626	-1.016450	0.038136
O21	O	0.402157	-1.368557	-0.612842
O22	O	0.902157	-0.868557	-0.112842
O23	O	0.514470	-1.202000	-0.591450
O24	O	1.014470	-0.702000	-0.091450
O25	O	0.773403	-1.352974	-0.738608
O26	O	1.273403	-0.852974	-0.238608
O27	O	0.624289	-1.186050	-0.717606
O28	O	1.124289	-0.686050	-0.217606
O29	O	0.776565	-1.495400	-0.628365
O30	O	1.276565	-0.995400	-0.128365
O31	O	0.571817	-1.457755	-0.921707
O32	O	1.071817	-0.957755	-0.421707
O33	O	0.656915	-1.331557	-0.905499
O34	O	1.156915	-0.831557	-0.405499
C35	C	0.565261	-1.156705	-0.649784
C36	C	1.065261	-0.656705	-0.149784
C37	C	0.552667	-1.042380	-0.635276
C38	C	1.052667	-0.542380	-0.135276
C39	C	0.385261	-1.423709	-0.684001
C40	C	0.885261	-0.923709	-0.184001
C41	C	0.295638	-1.423820	-0.683871
C42	C	0.795638	-0.923820	-0.183871
C43	C	0.617571	-1.389932	-0.950916
C44	C	1.117571	-0.889932	-0.450916
C45	C	0.627371	-1.375479	-1.065221
C46	C	1.127371	-0.875479	-0.565221
C47	C	-0.032537	-1.424265	-0.683415
C48	C	0.467463	-0.924265	-0.183415
C49	C	0.058772	-1.424144	-0.683546
C50	C	0.558772	-0.924144	-0.183546
C51	C	0.131548	-1.424042	-0.683644
C52	C	0.631548	-0.924042	-0.183644
C53	C	0.222863	-1.423922	-0.683773
C54	C	0.722863	-0.923922	-0.183773
C55	C	0.805058	-1.424229	-0.683442
C56	C	1.305058	-0.924229	-0.183442
C57	C	0.894679	-1.424355	-0.683308
C58	C	1.394679	-0.924355	-0.183308
C59	C	0.624355	-1.692207	-0.717860
C60	C	1.124355	-1.192207	-0.217860
C61	C	0.636971	-1.806528	-0.732393
C62	C	1.136971	-1.306528	-0.232393
C63	C	0.601324	-0.983534	-0.691328
C64	C	1.101324	-0.483534	-0.191328
C65	C	0.588308	-0.865373	-0.676334
C66	C	1.088308	-0.365373	-0.176334
C67	C	0.589678	-1.431532	-1.124173
C68	C	1.089678	-0.931532	-0.624173
C69	C	0.599806	-1.416596	-1.242313
C70	C	1.099806	-0.916596	-0.742313
C71	C	0.571862	-1.458098	-0.415555
C72	C	1.071862	-0.958098	0.084445
C73	C	0.562108	-1.472656	-0.301264
C74	C	1.062108	-0.972656	0.198736
H75	H	0.652618	-1.020632	-0.750412
H76	H	1.152618	-0.520632	-0.250412
H77	H	0.537015	-0.828281	-0.617238
H78	H	1.037015	-0.328281	-0.117238
C79	C	0.535951	-1.511301	-1.074206
C80	C	1.035951	-1.011301	-0.574206
N81	N	0.495480	-1.571384	-1.036571
N82	N	0.995480	-1.071384	-0.536571
H83	H	0.688272	-0.843621	-0.791479
H84	H	1.188272	-0.343621	-0.291479
H85	H	0.639581	-1.357550	-1.279300
H86	H	1.139581	-0.857550	-0.779300
C87	C	0.508378	-1.552431	-1.251303
C88	C	1.008378	-1.052431	-0.751303
N89	N	0.467908	-1.612516	-1.213672
N90	N	0.967908	-1.112516	-0.713672
C91	C	0.681096	-1.295707	-1.115188
C92	C	1.181096	-0.795707	-0.615188
N93	N	0.721562	-1.235619	-1.152822
N94	N	1.221562	-0.735619	-0.652822
H95	H	0.501378	-1.005284	-0.576184
H96	H	1.001378	-0.505284	-0.076184
