data_functionalizedCrystal
_audit_creation_method	'MofGen! by Chris Wilmer'
_symmetry_space_group_name_H-M	'P1'
_symmetry_Int_Tables_number	1
_symmetry_cell_setting	triclinic
loop_
_symmetry_equiv_pos_as_xyz
  x,y,z
_cell_length_a	8.559649
_cell_length_b	13.101050
_cell_length_c	8.597278
_cell_angle_alpha	94.263826
_cell_angle_beta	102.374898
_cell_angle_gamma	87.117163
loop_
_atom_site_label
_atom_site_type_symbol
_atom_site_fract_x
_atom_site_fract_y
_atom_site_fract_z
O1	O	2.127377	-0.079705	0.062220
O2	O	1.664156	-0.086781	-0.017875
O3	O	1.902860	-0.063174	0.249455
O4	O	1.888673	-0.103312	-0.205110
O5	O	1.885733	0.105559	0.230244
O6	O	1.647029	0.081953	-0.037086
O7	O	2.110250	0.089028	0.043008
Zn8	Zn	1.875920	0.112280	-0.000089
Zn9	Zn	1.898486	-0.110033	0.025223
O10	O	1.871547	0.065422	-0.224321
C11	C	1.596213	-0.002951	-0.033550
C12	C	1.419280	-0.004547	-0.051618
N13	N	1.860532	0.264004	-0.017362
C14	C	1.839595	0.470970	-0.040876
C15	C	1.934813	0.531283	0.066001
C16	C	1.923164	0.646447	0.052918
C17	C	1.851242	0.355796	-0.027795
C18	C	2.178194	0.005196	0.058684
C19	C	2.355127	0.006786	0.076753
C20	C	1.891818	0.026281	0.297505
C21	C	1.884416	0.041444	0.469299
N22	N	1.913882	0.738243	0.042493
C23	C	1.882588	-0.024036	-0.272371
C24	C	1.889991	-0.039205	-0.444164
H25	H	1.338836	-0.015479	-0.175351
H26	H	1.900411	-0.119862	0.498485
H27	H	1.435563	0.017706	0.200479
C28	C	2.056781	0.484198	0.202875
N29	N	2.148651	0.448727	0.305957
H30	H	1.749334	0.505820	-0.142197
H31	H	1.873974	0.122095	0.526637
