data_functionalizedCrystal
_audit_creation_method	'MofGen! by Chris Wilmer'
_symmetry_space_group_name_H-M	'P1'
_symmetry_Int_Tables_number	1
_symmetry_cell_setting	triclinic
loop_
_symmetry_equiv_pos_as_xyz
  x,y,z
_cell_length_a	10.685980
_cell_length_b	10.685194
_cell_length_c	11.169409
_cell_angle_alpha	94.405531
_cell_angle_beta	94.396777
_cell_angle_gamma	98.380820
loop_
_atom_site_label
_atom_site_type_symbol
_atom_site_fract_x
_atom_site_fract_y
_atom_site_fract_z
Zn1	Zn	1.901989	-0.356539	0.791478
Zn2	Zn	2.235322	-0.023206	1.124811
Zn3	Zn	2.568655	0.310127	1.458145
Zn4	Zn	1.885604	-0.568874	0.574103
Zn5	Zn	2.218938	-0.235541	0.907437
Zn6	Zn	2.552271	0.097793	1.240770
Zn7	Zn	1.689703	-0.372883	0.574111
Zn8	Zn	2.023036	-0.039550	0.907444
Zn9	Zn	2.356370	0.293784	1.240778
Zn10	Zn	1.673457	-0.585028	0.758071
Zn11	Zn	2.006791	-0.251694	1.091404
Zn12	Zn	2.340124	0.081639	1.424737
O13	O	1.787688	-0.470831	0.674441
O14	O	2.121022	-0.137498	1.007774
O15	O	2.454355	0.195836	1.341107
O16	O	2.077442	-0.371106	0.776621
O17	O	2.410775	-0.037772	1.109954
O18	O	2.744109	0.295561	1.443288
O19	O	1.859560	-0.542955	0.406144
O20	O	2.192893	-0.209622	0.739478
O21	O	2.526226	0.123712	1.072811
O22	O	1.731519	-0.193069	0.616930
O23	O	2.064852	0.140264	0.950263
O24	O	2.398185	0.473598	1.283596
O25	O	2.065404	-0.527107	0.616917
O26	O	2.398738	-0.193774	0.950250
O27	O	2.732071	0.139560	1.283583
O28	O	1.887484	-0.181061	0.776628
O29	O	2.220817	0.152272	1.109962
O30	O	2.554151	0.485605	1.443295
O31	O	1.715632	-0.398961	0.406150
O32	O	2.048965	-0.065628	0.739483
O33	O	2.382298	0.267705	1.072817
O34	O	1.509921	-0.414625	0.584536
O35	O	1.843255	-0.081292	0.917869
O36	O	2.176588	0.252042	1.251202
O37	O	1.703831	-0.554639	0.930462
O38	O	2.037164	-0.221305	1.263795
O39	O	2.370497	0.112028	1.597129
O40	O	1.497986	-0.570486	0.719690
O41	O	1.831319	-0.237153	1.053023
O42	O	2.164653	0.096180	1.386357
O43	O	1.871732	-0.386769	0.955006
O44	O	2.205065	-0.053436	1.288340
O45	O	2.538398	0.279898	1.621673
O46	O	1.843807	-0.748663	0.584522
O47	O	2.177140	-0.415330	0.917856
O48	O	2.510474	-0.081996	1.251189
O49	O	1.687944	-0.760531	0.719682
O50	O	2.021277	-0.427198	1.053016
O51	O	2.354610	-0.093864	1.386349
C52	C	1.457897	-0.496083	0.648489
C53	C	1.791230	-0.162750	0.981822
C54	C	2.124564	0.170584	1.315156
C55	C	1.316808	-0.506916	0.637413
C56	C	1.650142	-0.173583	0.970746
C57	C	1.983475	0.159750	1.304079
C58	C	1.762369	-0.800656	0.648505
C59	C	2.095702	-0.467323	0.981839
C60	C	2.429036	-0.133989	1.315172
C61	C	1.751653	-0.941747	0.637459
C62	C	2.084987	-0.608414	0.970793
C63	C	2.418320	-0.275081	1.304126
C64	C	2.118768	-0.445481	0.700494
C65	C	2.452101	-0.112148	1.033828
C66	C	2.785434	0.221185	1.367161
C67	C	2.259854	-0.434679	0.711597
C68	C	2.593187	-0.101345	1.044930
C69	C	2.926520	0.231988	1.378264
C70	C	1.787797	-0.470683	0.987502
C71	C	2.121130	-0.137349	1.320835
C72	C	2.454463	0.195984	1.654169
C73	C	1.787843	-0.470619	1.120910
C74	C	2.121176	-0.137286	1.454243
C75	C	2.454509	0.196047	1.787577
C76	C	1.813141	-0.139716	0.700506
C77	C	2.146474	0.193618	1.033840
C78	C	2.479808	0.526951	1.367173
C79	C	1.823988	0.001386	0.711614
C80	C	2.157321	0.334719	1.044947
C81	C	2.490654	0.668053	1.378281
C82	C	1.787661	-0.470882	0.362610
C83	C	2.120994	-0.137548	0.695944
C84	C	2.454327	0.195785	1.029277
C85	C	1.787888	-0.470568	0.229250
C86	C	2.121221	-0.137235	0.562584
C87	C	2.454554	0.196098	0.895917
H88	H	1.319030	-0.364538	0.783581
H89	H	1.652363	-0.031204	1.116915
H90	H	1.985697	0.302129	1.450248
Br91	Br	1.218178	-0.623814	0.517406
Br92	Br	1.551512	-0.290481	0.850739
Br93	Br	1.884845	0.042853	1.184073
H94	H	1.894116	-0.939362	0.783558
H95	H	2.227449	-0.606028	1.116891
H96	H	2.560782	-0.272695	1.450224
H97	H	1.681510	-1.001009	0.565521
H98	H	2.014843	-0.667675	0.898854
H99	H	2.348177	-0.334342	1.232187
