data_functionalizedCrystal
_audit_creation_method	'MofGen! by Chris Wilmer'
_symmetry_space_group_name_H-M	'P1'
_symmetry_Int_Tables_number	1
_symmetry_cell_setting	triclinic
loop_
_symmetry_equiv_pos_as_xyz
  x,y,z
_cell_length_a	14.971486
_cell_length_b	11.295501
_cell_length_c	14.971486
_cell_angle_alpha	85.405530
_cell_angle_beta	96.385871
_cell_angle_gamma	94.589485
loop_
_atom_site_label
_atom_site_type_symbol
_atom_site_fract_x
_atom_site_fract_y
_atom_site_fract_z
O1	O	1.192318	0.098889	-0.121935
O2	O	0.931919	0.098921	-0.135896
O3	O	1.069097	0.098895	0.001285
O4	O	1.055140	0.098914	-0.259116
O5	O	1.058325	-0.099155	0.012049
O6	O	0.921147	-0.099129	-0.125132
O7	O	1.181545	-0.099161	-0.111171
Cu8	Cu	1.050362	-0.117229	-0.117169
Cu9	Cu	1.063102	0.116988	-0.129898
O10	O	1.044367	-0.099136	-0.248352
C11	C	0.893208	-0.000100	-0.129890
C12	C	0.793912	-0.000088	-0.128020
N13	N	1.041408	-0.281964	-0.108215
C14	C	0.736687	-0.000084	-0.208609
C15	C	0.643387	-0.000101	-0.206845
C16	C	0.607313	-0.000115	-0.124491
C17	C	0.664546	-0.000123	-0.043895
C18	C	0.757844	-0.000113	-0.045660
C19	C	0.470082	-0.000139	-0.040223
C20	C	0.376778	-0.000146	-0.038458
C21	C	0.355625	-0.000127	-0.201408
C22	C	0.448923	-0.000118	-0.203173
C23	C	0.506149	-0.000124	-0.122577
C24	C	1.136509	-0.531260	-0.203341
C25	C	1.129749	-0.655924	-0.196568
C26	C	1.021135	-0.655956	-0.087890
C27	C	1.027894	-0.531293	-0.094663
C28	C	1.085582	-0.468950	-0.152392
C29	C	1.092337	-0.344284	-0.159170
C30	C	0.983727	-0.344319	-0.050488
C31	C	0.976968	-0.468982	-0.043714
C32	C	1.220256	-0.000138	-0.117177
C33	C	1.319553	-0.000142	-0.119048
C34	C	1.063087	-0.000129	0.039992
C35	C	1.061216	-0.000128	0.139289
N36	N	1.072063	0.281724	-0.138845
C37	C	1.050378	-0.000109	-0.287059
C38	C	1.052249	-0.000102	-0.386356
C39	C	1.141805	-0.000139	0.196515
C40	C	1.140042	-0.000127	0.289814
C41	C	1.057690	-0.000112	0.325885
C42	C	0.977095	-0.000097	0.268652
C43	C	0.978859	-0.000101	0.175354
C44	C	0.973425	-0.000093	0.463114
C45	C	0.971660	-0.000091	0.556418
C46	C	1.134608	-0.000118	0.577573
C47	C	1.136372	-0.000122	0.484276
C48	C	1.055776	-0.000109	0.427049
H49	H	0.766050	-0.000072	-0.275671
H50	H	1.139305	-0.293526	-0.206180
O51	O	0.958923	-0.723210	-0.025625
H52	H	0.907819	-0.780008	-0.065345
O53	O	0.531801	-0.000145	0.046708
H54	H	0.570426	-0.080869	0.054195
H55	H	0.596797	-0.000097	-0.272469
O56	O	1.198722	-0.464005	-0.265605
H57	H	1.233001	-0.528279	-0.299895
O58	O	0.293904	-0.000138	-0.288337
H59	H	0.311110	0.080596	-0.332127
H60	H	0.478291	-0.000096	-0.270233
O61	O	0.337871	-0.000176	0.050368
H62	H	0.291484	-0.080901	0.059438
H63	H	0.804436	-0.000116	0.019965
O64	O	1.230629	-0.000157	0.157612
H65	H	1.239716	0.080558	0.111215
H66	H	1.171220	-0.706652	-0.238055
H67	H	0.930002	-0.519759	0.003290
H68	H	1.205666	-0.000138	0.336404
H69	H	0.942254	-0.293572	-0.009006
H70	H	1.203430	-0.000142	0.454910
H71	H	1.200231	-0.000124	0.624172
H72	H	0.904601	-0.000098	0.585785
O73	O	0.886499	-0.000091	0.401386
H74	H	0.828936	-0.000097	0.442142
O75	O	0.888271	-0.000095	0.307557
H76	H	0.887960	0.080619	0.345177
O77	O	0.891936	-0.000105	0.113629
H78	H	0.856915	0.080616	0.122076
O79	O	0.625644	-0.000147	0.044933
H80	H	0.588031	0.080575	0.045256
