data_functionalizedCrystal
_audit_creation_method	'MofGen! by Chris Wilmer'
_symmetry_space_group_name_H-M	'P1'
_symmetry_Int_Tables_number	1
_symmetry_cell_setting	triclinic
loop_
_symmetry_equiv_pos_as_xyz
  x,y,z
_cell_length_a	15.298068
_cell_length_b	15.299816
_cell_length_c	15.296720
_cell_angle_alpha	110.757046
_cell_angle_beta	88.354818
_cell_angle_gamma	91.634773
loop_
_atom_site_label
_atom_site_type_symbol
_atom_site_fract_x
_atom_site_fract_y
_atom_site_fract_z
Zn1	Zn	1.291021	-0.271050	-0.780846
Zn2	Zn	1.791021	0.228950	-0.280846
Zn3	Zn	1.333278	-0.393419	-0.658523
Zn4	Zn	1.833278	0.106581	-0.158523
Zn5	Zn	1.168672	-0.262196	-0.607266
Zn6	Zn	1.668672	0.237804	-0.107266
Zn7	Zn	1.168601	-0.444498	-0.789625
Zn8	Zn	1.668601	0.055502	-0.289625
O9	O	1.240393	-0.342791	-0.709065
O10	O	1.740393	0.157209	-0.209065
O11	O	1.416748	-0.269611	-0.782397
O12	O	1.916748	0.230389	-0.282397
O13	O	1.329157	-0.350930	-0.524213
O14	O	1.829157	0.149070	-0.024213
O15	O	1.167247	-0.135865	-0.605167
O16	O	1.667247	0.364135	-0.105167
O17	O	1.447794	-0.359515	-0.692526
O18	O	1.947794	0.140485	-0.192526
O19	O	1.257137	-0.142369	-0.732696
O20	O	1.757137	0.357631	-0.232696
O21	O	1.208221	-0.254521	-0.486555
O22	O	1.708221	0.245479	0.013445
O23	O	1.048541	-0.304051	-0.613679
O24	O	1.548541	0.195949	-0.113679
O25	O	1.167126	-0.446572	-0.915971
O26	O	1.667126	0.053428	-0.415971
O27	O	1.048489	-0.437987	-0.747658
O28	O	1.548489	0.062013	-0.247658
O29	O	1.257068	-0.319140	-0.909522
O30	O	1.757068	0.180860	-0.409522
O31	O	1.329088	-0.527700	-0.701039
O32	O	1.829088	-0.027700	-0.201039
O33	O	1.208101	-0.565228	-0.797359
O34	O	1.708101	-0.065228	-0.297359
C35	C	1.017369	-0.375602	-0.676060
C36	C	1.517369	0.124398	-0.176060
C37	C	0.921958	-0.389664	-0.661966
C38	C	1.421958	0.110336	-0.161966
C39	C	0.588357	-0.242510	-0.809844
C40	C	1.088357	0.257490	-0.309844
C41	C	0.678000	-0.229301	-0.823091
C42	C	1.178000	0.270699	-0.323091
C43	C	0.738994	-0.269390	-0.782811
C44	C	1.238994	0.230610	-0.282811
C45	C	0.710336	-0.322692	-0.729281
C46	C	1.210336	0.177308	-0.229281
C47	C	0.620684	-0.335908	-0.716038
C48	C	1.120684	0.164092	-0.216038
C49	C	0.771321	-0.362789	-0.689005
C50	C	1.271321	0.137211	-0.189005
C51	C	0.742663	-0.416090	-0.635475
C52	C	1.242663	0.083910	-0.135475
C53	C	0.653020	-0.429304	-0.622234
C54	C	1.153020	0.070696	-0.122234
C55	C	0.592027	-0.389214	-0.662515
C56	C	1.092027	0.110786	-0.162515
C57	C	0.860973	-0.349572	-0.702248
C58	C	1.360973	0.150428	-0.202248
C59	C	0.893300	-0.442970	-0.608442
C60	C	1.393300	0.057030	-0.108442
C61	C	0.803657	-0.456179	-0.595195
C62	C	1.303657	0.043821	-0.095195
C63	C	1.273193	-0.579525	-0.755737
C64	C	1.773193	-0.079525	-0.255737
C65	C	1.287299	-0.680796	-0.775745
C66	C	1.787299	-0.180796	-0.275745
C67	C	1.140095	-0.952955	-0.566455
C68	C	1.640095	-0.452955	-0.066455
C69	C	1.126837	-0.857807	-0.547658
C70	C	1.626837	-0.357807	-0.047658
C71	C	1.166951	-0.813550	-0.604678
C72	C	1.666951	-0.313550	-0.104678
C73	C	1.220326	-0.864449	-0.680499
C74	C	1.720326	-0.364449	-0.180499
C75	C	1.233580	-0.959608	-0.699302
C76	C	1.733580	-0.459608	-0.199302
C77	C	1.260436	-0.820203	-0.737525
C78	C	1.760436	-0.320203	-0.237525
C79	C	1.313811	-0.871102	-0.813346
C80	C	1.813811	-0.371102	-0.313346
C81	C	1.327062	-0.966251	-0.832145
C82	C	1.827062	-0.466251	-0.332145
C83	C	1.286948	-1.010509	-0.775126
C84	C	1.786948	-0.510509	-0.275126
C85	C	1.247182	-0.725044	-0.718721
C86	C	1.747182	-0.225044	-0.218721
C87	C	1.340667	-0.731697	-0.851568
C88	C	1.840667	-0.231697	-0.351568
C89	C	1.353925	-0.826845	-0.870366
C90	C	1.853925	-0.326845	-0.370366
C91	C	1.464288	-0.309852	-0.742200
C92	C	1.964288	0.190148	-0.242200
C93	C	1.559699	-0.295816	-0.756320
C94	C	2.059699	0.204184	-0.256320
C95	C	1.207376	-0.389541	-0.946733
C96	C	1.707376	0.110459	-0.446733
C97	C	1.193305	-0.409463	-1.048013
C98	C	1.693305	0.090537	-0.548013
C99	C	1.207486	-0.105132	-0.662235
C100	C	1.707486	0.394868	-0.162235
C101	C	1.193463	-0.003856	-0.642278
C102	C	1.693463	0.496144	-0.142278
C103	C	1.340964	-0.200239	-1.320075
C104	C	1.840964	0.299761	-0.820075
C105	C	1.354189	-0.181522	-1.224918
C106	C	1.854189	0.318478	-0.724918
C107	C	1.313969	-0.238505	-1.180687
C108	C	1.813969	0.261495	-0.680687
C109	C	1.260522	-0.314210	-1.231622
C110	C	1.760522	0.185790	-0.731622
C111	C	1.247301	-0.332933	-1.326789
C112	C	1.747301	0.167067	-0.826789
C113	C	1.220306	-0.371199	-1.187402
C114	C	1.720306	0.128801	-0.687402
C115	C	1.166859	-0.446904	-1.238337
C116	C	1.666859	0.053096	-0.738337
C117	C	1.153640	-0.465623	-1.333494
C118	C	1.653640	0.034377	-0.833494
C119	C	1.193860	-0.408640	-1.377725
C120	C	1.693860	0.091360	-0.877725
C121	C	1.233527	-0.352476	-1.092234
C122	C	1.733527	0.147524	-0.592234
C123	C	1.139865	-0.485170	-1.098949
C124	C	1.639865	0.014830	-0.598949
C125	C	1.126639	-0.503887	-1.194105
C126	C	1.626639	-0.003887	-0.694105
C127	C	1.273322	-0.296149	-0.472316
C128	C	1.773322	0.203851	0.027684
C129	C	1.287523	-0.275946	-0.371011
C130	C	1.787523	0.224054	0.128989
H131	H	0.780311	-0.499579	-0.551611
H132	H	1.280311	0.000421	-0.051611
Br133	Br	1.426723	-0.078787	-1.155800
Br134	Br	1.926723	0.421213	-0.655800
Br135	Br	1.148573	-0.684539	-0.579472
Br136	Br	1.648573	-0.184539	-0.079472
H137	H	1.373330	-0.695664	-0.898001
H138	H	1.873330	-0.195664	-0.398001
Br139	Br	1.426360	-0.895933	-0.973262
Br140	Br	1.926360	-0.395933	-0.473262
H141	H	1.110128	-0.527273	-1.374966
H142	H	1.610128	-0.027273	-0.874966
Br143	Br	0.716888	-0.156974	-0.895743
Br144	Br	1.216888	0.343026	-0.395743
Br145	Br	1.085286	-0.562517	-1.038932
Br146	Br	1.585286	-0.062517	-0.538932
Br147	Br	1.085641	-1.013028	-0.489096
Br148	Br	1.585641	-0.513028	0.010904
Br149	Br	0.470362	-0.407134	-0.644532
Br150	Br	0.970362	0.092866	-0.144532
H151	H	1.083379	-0.816369	-0.485926
H152	H	1.583379	-0.316369	0.014074
Br153	Br	0.976070	-0.497389	-0.553781
Br154	Br	1.476070	0.002611	-0.053781
Br155	Br	1.054106	-0.606625	-1.263241
Br156	Br	1.554106	-0.106625	-0.763241
H157	H	0.884296	-0.306172	-0.745831
H158	H	1.384296	0.193828	-0.245831
H159	H	0.811984	-0.258629	-0.793597
H160	H	1.311984	0.241371	-0.293597
Br161	Br	1.395554	-0.122923	-1.380110
Br162	Br	1.895554	0.377077	-0.880110
Br163	Br	1.175917	-0.434043	-1.506873
Br164	Br	1.675917	0.065957	-1.006873
Br165	Br	1.306062	-0.249739	-1.023121
Br166	Br	1.806062	0.250261	-0.523121
H167	H	0.538690	-0.209881	-0.842640
H168	H	1.038690	0.290119	-0.342640
Br169	Br	1.305170	-1.139571	-0.800450
Br170	Br	1.805170	-0.639571	-0.300450
Br171	Br	0.614129	-0.501640	-0.549585
Br172	Br	1.114129	-0.001640	-0.049585
Br173	Br	1.399476	-1.035335	-0.935064
Br174	Br	1.899476	-0.535335	-0.435064
H175	H	1.203724	-0.683610	-0.656987
H176	H	1.703724	-0.183610	-0.156987
H177	H	1.324740	-0.223261	-1.103206
H178	H	1.824740	0.276739	-0.603206
