data_functionalizedCrystal
_audit_creation_method	'MofGen! by Chris Wilmer'
_symmetry_space_group_name_H-M	'P1'
_symmetry_Int_Tables_number	1
_symmetry_cell_setting	triclinic
loop_
_symmetry_equiv_pos_as_xyz
  x,y,z
_cell_length_a	15.298068
_cell_length_b	17.077402
_cell_length_c	15.298034
_cell_angle_alpha	80.323481
_cell_angle_beta	110.802241
_cell_angle_gamma	99.684362
loop_
_atom_site_label
_atom_site_type_symbol
_atom_site_fract_x
_atom_site_fract_y
_atom_site_fract_z
Zn1	Zn	1.512795	-0.201553	0.772381
Zn2	Zn	2.012795	0.298447	1.272381
Zn3	Zn	1.485813	-0.313415	0.616850
Zn4	Zn	1.985813	0.186585	1.116850
Zn5	Zn	1.330389	-0.201477	0.589914
Zn6	Zn	1.830389	0.298523	1.089914
Zn7	Zn	1.357205	-0.352103	0.745363
Zn8	Zn	1.857205	0.147897	1.245363
O9	O	1.421551	-0.267137	0.681127
O10	O	1.921551	0.232863	1.181127
O11	O	1.639377	-0.200232	0.774329
O12	O	2.139377	0.299768	1.274329
O13	O	1.442680	-0.282344	0.483130
O14	O	1.942680	0.217656	0.983130
O15	O	1.354655	-0.091635	0.614152
O16	O	1.854655	0.408365	1.114152
O17	O	1.619553	-0.282417	0.660061
O18	O	2.119553	0.217583	1.160061
O19	O	1.488668	-0.091691	0.748210
O20	O	1.988668	0.408309	1.248210
O21	O	1.328491	-0.200103	0.463340
O22	O	1.828491	0.299897	0.963340
O23	O	1.203785	-0.237617	0.587955
O24	O	1.703785	0.262383	1.087955
O25	O	1.400360	-0.348355	0.879094
O26	O	1.900360	0.151645	1.379094
O27	O	1.223488	-0.348281	0.702163
O28	O	1.723488	0.151719	1.202163
O29	O	1.514671	-0.237746	0.898943
O30	O	2.014671	0.262254	1.398943
O31	O	1.468684	-0.428399	0.633863
O32	O	1.968684	0.071601	1.133863
O33	O	1.374196	-0.456823	0.728282
O34	O	1.874196	0.043177	1.228282
C35	C	1.421451	-0.471094	0.681088
C36	C	1.921451	0.028906	1.181088
C37	C	1.421498	-0.558341	0.681118
C38	C	1.921498	-0.058341	1.181118
C39	C	1.179887	-0.297140	0.639205
C40	C	1.679887	0.202860	1.139205
C41	C	1.076507	-0.309997	0.621292
C42	C	1.576507	0.190003	1.121292
C43	C	1.470961	-0.919312	0.632104
C44	C	1.970961	-0.419312	1.132104
C45	C	1.470910	-0.837336	0.632080
C46	C	1.970910	-0.337336	1.132080
C47	C	1.421639	-0.811177	0.681174
C48	C	1.921639	-0.311177	1.181174
C49	C	1.372407	-0.867001	0.730288
C50	C	1.872407	-0.367001	1.230288
C51	C	1.372452	-0.948976	0.730307
C52	C	1.872452	-0.448976	1.230307
C53	C	1.372317	-0.696138	0.730248
C54	C	1.872317	-0.196138	1.230248
C55	C	1.372273	-0.614158	0.730231
C56	C	1.872273	-0.114158	1.230231
C57	C	1.470775	-0.584498	0.632020
C58	C	1.970775	-0.084498	1.132020
C59	C	1.470820	-0.666473	0.632039
C60	C	1.970820	-0.166473	1.132039
C61	C	1.421590	-0.722291	0.681155
C62	C	1.921590	-0.222291	1.181155
C63	C	0.826446	-0.175443	0.809152
C64	C	1.326446	0.324557	1.309152
C65	C	0.923579	-0.163366	0.825986
C66	C	1.423579	0.336634	1.325986
C67	C	0.961815	-0.200023	0.774814
C68	C	1.461815	0.299977	1.274814
C69	C	0.902910	-0.248758	0.706804
C70	C	1.402910	0.251242	1.206804
C71	C	0.805769	-0.260842	0.689973
C72	C	1.305769	0.239158	1.189973
C73	C	0.941138	-0.285421	0.655636
C74	C	1.441138	0.214579	1.155636
C75	C	0.882233	-0.334157	0.587626
C76	C	1.382233	0.165843	1.087626
C77	C	0.785102	-0.346237	0.570797
C78	C	1.285102	0.153763	1.070797
C79	C	0.746865	-0.309581	0.621969
C80	C	1.246865	0.190419	1.121969
C81	C	1.038279	-0.273338	0.672467
C82	C	1.538279	0.226662	1.172467
C83	C	1.017602	-0.358736	0.553289
C84	C	1.517602	0.141264	1.053289
C85	C	0.920470	-0.370813	0.536454
C86	C	1.420470	0.129187	1.036454
C87	C	1.664158	-0.237018	0.723213
C88	C	2.164158	0.262982	1.223213
C89	C	1.767542	-0.224183	0.741148
C90	C	2.267542	0.275817	1.241148
C91	C	1.463517	-0.297375	0.923708
C92	C	1.963517	0.202625	1.423708
C93	C	1.481400	-0.310260	1.027081
C94	C	1.981400	0.189740	1.527081
C95	C	1.421680	-0.062383	0.681190
C96	C	1.921680	0.437617	1.181190
C97	C	1.421735	0.024871	0.681217
C98	C	1.921735	0.524871	1.181217
C99	C	1.549254	-0.359133	1.085951
C100	C	2.049254	0.140867	1.585951
C101	C	1.566062	-0.371232	1.183076
C102	C	2.066062	0.128768	1.683076
C103	C	1.515013	-0.334465	1.221341
C104	C	2.015013	0.165535	1.721341
C105	C	1.447152	-0.285595	1.162470
C106	C	1.947152	0.214405	1.662470
C107	C	1.430348	-0.273490	1.065336
C108	C	1.930348	0.226510	1.565336
C109	C	1.396106	-0.248821	1.200726
C110	C	1.896106	0.251179	1.700726
C111	C	1.328246	-0.199952	1.141855
C112	C	1.828246	0.300048	1.641855
C113	C	1.311444	-0.187849	1.044731
C114	C	1.811444	0.312151	1.544731
C115	C	1.362494	-0.224617	1.006466
C116	C	1.862494	0.275383	1.506466
C117	C	1.412911	-0.260927	1.297860
C118	C	1.912911	0.239073	1.797860
C119	C	1.294005	-0.175284	1.277245
C120	C	1.794005	0.324716	1.777245
C121	C	1.277197	-0.163184	1.180120
C122	C	1.777197	0.336816	1.680120
C123	C	1.379741	-0.237037	1.439488
C124	C	1.879741	0.262963	1.939488
C125	C	1.361858	-0.224157	1.336115
C126	C	1.861858	0.275843	1.836115
H127	H	1.510993	-0.791889	0.592087
H128	H	2.010993	-0.291889	1.092087
N129	N	0.721564	-0.398805	0.497451
N130	N	1.221564	0.101195	0.997451
H131	H	0.740932	-0.454595	0.514702
H132	H	1.240932	0.045405	1.014702
H133	H	0.726990	-0.376075	0.433982
H134	H	1.226990	0.123925	0.933982
N135	N	1.066583	-0.187025	0.792994
N136	N	1.566583	0.312975	1.292994
H137	H	1.098099	-0.150596	0.843849
H138	H	1.598099	0.349404	1.343849
H139	H	1.078890	-0.161683	0.733246
H140	H	1.578890	0.338317	1.233246
H141	H	1.510860	-0.539046	0.592028
H142	H	2.010860	-0.039046	1.092028
N143	N	0.987110	-0.110809	0.899336
N144	N	1.487110	0.389191	1.399336
H145	H	0.948150	-0.089419	0.929199
H146	H	1.448150	0.410581	1.429199
H147	H	1.020882	-0.064709	0.868541
H148	H	1.520882	0.435291	1.368541
H149	H	1.511089	-0.940603	0.592132
H150	H	2.011089	-0.440603	1.092132
H151	H	0.667774	-0.319417	0.608272
H152	H	1.167774	0.180583	1.108272
N153	N	1.058839	-0.398269	0.498090
N154	N	1.558839	0.101731	0.998090
H155	H	1.030432	-0.379813	0.428734
H156	H	1.530432	0.120187	0.928734
H157	H	1.044398	-0.458256	0.509561
H158	H	1.544398	0.041744	1.009561
H159	H	1.468164	-0.300716	1.345784
H160	H	1.968164	0.199284	1.845784
N161	N	1.523968	-0.694690	0.579095
N162	N	2.023968	-0.194690	1.079095
H163	H	1.555146	-0.646893	0.547976
H164	H	2.055146	-0.146893	1.047976
H165	H	1.478705	-0.728072	0.529474
H166	H	1.978705	-0.228072	1.029474
N167	N	0.856933	-0.423373	0.463099
N168	N	1.356933	0.076627	0.963099
H169	H	0.789598	-0.425461	0.460203
H170	H	1.289598	0.074539	0.960203
H171	H	0.876374	-0.479136	0.480390
H172	H	1.376374	0.020864	0.980390
H173	H	1.528702	-0.344319	1.300426
H174	H	2.028702	0.155681	1.800426
N175	N	1.238269	-0.135122	0.981247
N176	N	1.738269	0.364878	1.481247
H177	H	1.174725	-0.157663	0.986616
H178	H	1.674725	0.342337	1.486616
H179	H	1.235450	-0.133040	0.913940
H180	H	1.735450	0.366960	1.413940
H181	H	0.795305	-0.145608	0.850814
H182	H	1.295305	0.354392	1.350814
H183	H	1.221945	-0.123394	1.132174
H184	H	1.721945	0.376606	1.632174
N185	N	1.238936	-0.135624	1.318502
N186	N	1.738936	0.364376	1.818502
H187	H	1.259874	-0.150712	1.388965
H188	H	1.759874	0.349288	1.888965
H189	H	1.169562	-0.153974	1.289995
H190	H	1.669562	0.346026	1.789995
H191	H	1.332149	-0.592865	0.770207
H192	H	1.832149	-0.092865	1.270207
N193	N	1.101804	-0.220779	0.745818
N194	N	1.601804	0.279221	1.245818
H195	H	1.135590	-0.174635	0.715090
H196	H	1.635590	0.325365	1.215090
H197	H	1.149489	-0.253156	0.795809
H198	H	1.649489	0.246844	1.295809
H199	H	1.621314	-0.411021	1.231002
H200	H	2.121314	0.088979	1.731002
N201	N	1.604318	-0.398777	1.044684
N202	N	2.104318	0.101223	1.544684
H203	H	1.583280	-0.383783	0.974205
H204	H	2.083280	0.116217	1.474205
H205	H	1.592852	-0.458752	1.059247
H206	H	2.092852	0.041248	1.559247
H207	H	1.348813	-0.214768	0.927380
H208	H	1.848813	0.285232	1.427380
H209	H	1.332234	-0.741584	0.770249
H210	H	1.832234	-0.241584	1.270249
N211	N	1.319258	-0.838784	0.783231
N212	N	1.819258	-0.338784	1.283231
H213	H	1.364467	-0.805420	0.832904
H214	H	1.864467	-0.305420	1.332904
H215	H	1.288078	-0.886622	0.814286
H216	H	1.788078	-0.386622	1.314286
N217	N	1.319353	-1.009182	0.783272
N218	N	1.819353	-0.509182	1.283272
H219	H	1.288133	-0.980173	0.814372
H220	H	1.788133	-0.480173	1.314372
H221	H	1.364647	-1.043828	0.832912
H222	H	1.864647	-0.543828	1.332912
