data_functionalizedCrystal
_audit_creation_method	'MofGen! by Chris Wilmer'
_symmetry_space_group_name_H-M	'P1'
_symmetry_Int_Tables_number	1
_symmetry_cell_setting	triclinic
loop_
_symmetry_equiv_pos_as_xyz
  x,y,z
_cell_length_a	19.188905
_cell_length_b	19.188930
_cell_length_c	9.730223
_cell_angle_alpha	89.990488
_cell_angle_beta	89.989587
_cell_angle_gamma	83.139668
loop_
_atom_site_label
_atom_site_type_symbol
_atom_site_fract_x
_atom_site_fract_y
_atom_site_fract_z
O1	O	0.926155	0.087084	-0.114532
O2	O	0.722841	0.098837	-0.114487
O3	O	0.830365	-0.008696	-0.114484
O4	O	0.818631	0.194617	-0.114535
O5	O	0.830358	-0.008699	0.114096
O6	O	0.722834	0.098834	0.114093
O7	O	0.926148	0.087081	0.114048
Zn8	Zn	0.824490	0.092957	0.150363
Zn9	Zn	0.824499	0.092961	-0.150801
O10	O	0.818624	0.194614	0.114045
C11	C	0.696826	0.098458	-0.000191
C12	C	0.619321	0.097324	-0.000172
C13	C	0.582933	0.096781	-0.124775
C14	C	0.510109	0.095708	-0.124792
C15	C	0.473678	0.095164	-0.000199
C16	C	0.510075	0.095711	0.124420
C17	C	0.582896	0.096791	0.124433
N18	N	0.364655	0.053734	0.092534
N19	N	0.295478	0.052707	0.092513
C20	C	0.254272	0.091911	-0.000231
N21	N	0.284856	0.132173	-0.092974
N22	N	0.354040	0.133198	-0.092957
C23	C	0.394716	0.093993	-0.000199
C24	C	0.138920	0.090206	-0.124861
C25	C	0.066094	0.089137	-0.124872
C26	C	0.066062	0.089133	0.124343
C27	C	0.138885	0.090209	0.124351
C28	C	0.175310	0.090742	-0.000255
C29	C	0.829982	-0.034708	-0.000190
C30	C	0.828841	-0.112213	-0.000178
C31	C	0.891933	-0.157142	-0.000185
C32	C	0.890861	-0.229966	-0.000207
C33	C	0.826694	-0.257857	-0.000194
C34	C	0.763594	-0.212917	-0.000194
C35	C	0.764668	-0.140095	-0.000186
N36	N	0.777644	-0.365858	0.077607
N37	N	0.776628	-0.435037	0.077603
C38	C	0.823456	-0.477265	-0.000221
N39	N	0.871348	-0.447703	-0.078022
N40	N	0.872365	-0.378518	-0.078011
C41	C	0.825523	-0.336819	-0.000203
C42	C	0.885390	-0.601159	-0.000254
C43	C	0.884315	-0.673984	-0.000284
C44	C	0.757047	-0.656933	-0.000257
C45	C	0.758123	-0.584110	-0.000241
C46	C	0.822296	-0.556228	-0.000232
C47	C	0.952163	0.087460	-0.000251
C48	C	1.029668	0.088594	-0.000278
C49	C	0.819007	0.220626	-0.000252
C50	C	0.820148	0.298131	-0.000273
N51	N	0.824489	0.092954	0.355899
N52	N	0.824506	0.092958	-0.356338
C53	C	0.872116	0.045359	0.427826
C54	C	0.872123	0.045359	0.571709
C55	C	0.776873	0.140556	0.571725
C56	C	0.776863	0.140552	0.427845
H57	H	0.612522	0.097234	0.225903
Cl58	Cl	0.184713	0.090882	-0.281504
H59	H	0.910905	0.006601	0.630269
Cl60	Cl	0.184633	0.090887	0.281004
H61	H	0.738098	0.179310	0.630318
H62	H	0.036468	0.088699	-0.226343
Cl63	Cl	0.966063	-0.566103	-0.000235
H64	H	0.944187	-0.134445	-0.000183
Cl65	Cl	0.678803	-0.527624	-0.000225
H66	H	0.910895	0.006600	0.369252
Cl67	Cl	0.685346	-0.083609	-0.000176
H68	H	0.480476	0.095267	-0.226261
H69	H	0.704801	-0.679641	-0.000253
Cl70	Cl	0.716980	0.200388	0.337413
Cl71	Cl	0.628720	0.097454	-0.281422
H72	H	0.942239	-0.266555	-0.000218
Cl73	Cl	0.682927	-0.247979	-0.000188
Cl74	Cl	0.963638	-0.730468	-0.000302
Cl75	Cl	0.464276	0.095031	0.281051
Cl76	Cl	0.020269	0.088456	0.280976
