data_functionalizedCrystal
_audit_creation_method	'MofGen! by Chris Wilmer'
_symmetry_space_group_name_H-M	'P1'
_symmetry_Int_Tables_number	1
_symmetry_cell_setting	triclinic
loop_
_symmetry_equiv_pos_as_xyz
  x,y,z
_cell_length_a	10.654545
_cell_length_b	15.944551
_cell_length_c	9.730223
_cell_angle_alpha	90.003926
_cell_angle_beta	90.003032
_cell_angle_gamma	83.990908
loop_
_atom_site_label
_atom_site_type_symbol
_atom_site_fract_x
_atom_site_fract_y
_atom_site_fract_z
O1	O	1.666317	0.117957	0.114279
O2	O	1.300692	0.129200	0.114286
O3	O	1.493489	0.001361	0.114270
O4	O	1.473520	0.245796	0.114295
O5	O	1.493475	0.001361	-0.114310
O6	O	1.300678	0.129201	-0.114294
O7	O	1.666303	0.117957	-0.114300
Zn8	Zn	1.483489	0.123579	-0.150589
Zn9	Zn	1.483507	0.123579	0.150575
O10	O	1.473506	0.245796	-0.114285
C11	C	1.253898	0.128376	-0.000004
C12	C	1.114486	0.125908	-0.000002
C13	C	1.048989	0.124746	-0.124602
C14	C	0.918000	0.122414	-0.124602
C15	C	0.918016	0.122408	0.124608
C16	C	1.049004	0.124735	0.124607
C17	C	1.492653	-0.029937	-0.000020
C18	C	1.490168	-0.123198	-0.000021
C19	C	1.364723	-0.338779	0.000000
C20	C	1.422969	-0.399460	-0.112705
C21	C	1.485672	-0.293950	-0.000010
C22	C	1.423010	-0.399443	0.112657
C23	C	1.481320	-0.458887	0.000006
C24	C	1.543951	-0.353402	-0.112808
C25	C	1.543976	-0.353379	0.112655
C26	C	1.602309	-0.414042	-0.000077
C27	C	1.488175	-0.198933	-0.000021
C28	C	1.478825	-0.553903	0.000007
C29	C	1.713097	0.118781	-0.000008
C30	C	1.852509	0.121249	-0.000001
C31	C	1.474342	0.277094	0.000008
C32	C	1.476827	0.370355	0.000018
N33	N	1.483486	0.123578	-0.356126
C34	C	1.559652	0.174996	-0.428043
C35	C	1.559673	0.174992	-0.571926
C36	C	1.407350	0.072148	-0.571962
C37	C	1.407337	0.072149	-0.428082
N38	N	1.483520	0.123572	0.356111
H39	H	1.102333	0.125678	0.226078
H40	H	1.621657	0.216873	-0.369460
H41	H	1.595094	-0.332953	0.207941
H42	H	1.345351	0.030278	-0.630567
H43	H	1.264330	-0.306052	-0.000111
O44	O	1.325177	0.016692	-0.350498
H45	H	1.272213	-0.019059	-0.424703
H46	H	1.621697	0.216861	-0.630474
O47	O	1.735401	-0.457206	-0.000079
H48	H	1.750023	-0.497620	-0.092776
H49	H	1.102301	0.125702	-0.226066
O50	O	0.847217	0.121226	-0.258913
H51	H	0.883433	0.064551	-0.318798
O52	O	1.355226	-0.426443	0.238863
H53	H	1.354779	-0.496022	0.238207
H54	H	1.371806	-0.419864	-0.207986
O55	O	0.847388	0.121155	0.259006
H56	H	0.745297	0.119352	0.238077
O57	O	1.611644	-0.326543	-0.239170
H58	H	1.612906	-0.257026	-0.238213
