data_functionalizedCrystal
_audit_creation_method	'MofGen! by Chris Wilmer'
_symmetry_space_group_name_H-M	'P1'
_symmetry_Int_Tables_number	1
_symmetry_cell_setting	triclinic
loop_
_symmetry_equiv_pos_as_xyz
  x,y,z
_cell_length_a	29.839131
_cell_length_b	17.639123
_cell_length_c	17.640968
_cell_angle_alpha	109.671805
_cell_angle_beta	78.768609
_cell_angle_gamma	78.772560
loop_
_atom_site_label
_atom_site_type_symbol
_atom_site_fract_x
_atom_site_fract_y
_atom_site_fract_z
Zn1	Zn	0.059486	-1.354540	-0.721435
Zn2	Zn	-0.034706	-1.326507	-0.583560
Zn3	Zn	0.021402	-1.188790	-0.555673
Zn4	Zn	-0.034667	-1.216587	-0.693428
O5	O	0.002879	-1.271606	-0.638524
O6	O	0.062913	-1.466190	-0.726537
O7	O	-0.043218	-1.284873	-0.464508
O8	O	0.089338	-1.210876	-0.577712
O9	O	-0.006289	-1.445594	-0.625241
O10	O	0.117318	-1.332651	-0.699497
O11	O	-0.001996	-1.183693	-0.444020
O12	O	-0.001958	-1.077109	-0.550555
O13	O	-0.006222	-1.258252	-0.812496
O14	O	-0.043151	-1.097531	-0.651763
O15	O	0.062951	-1.359605	-0.833072
O16	O	-0.097585	-1.311827	-0.598084
O17	O	-0.097556	-1.231069	-0.678804
C18	C	-0.026683	-1.057406	-0.595095
C19	C	-0.039338	-0.965775	-0.576535
C20	C	-0.093168	-0.825884	-0.497560
C21	C	-0.081272	-0.911988	-0.515006
C22	C	-0.009283	-0.933474	-0.620646
C23	C	-0.021174	-0.847371	-0.603212
C24	C	-0.063116	-0.793583	-0.541668
C25	C	0.008878	-0.815070	-0.647320
C26	C	-0.003011	-0.728974	-0.629884
C27	C	-0.044951	-0.675180	-0.568340
C28	C	-0.075005	-0.707487	-0.524232
C29	C	0.050822	-0.868859	-0.708860
C30	C	0.080873	-0.836557	-0.752968
C31	C	0.068983	-0.750461	-0.735536
C32	C	0.027043	-0.696667	-0.673993
C33	C	0.099037	-0.718154	-0.779645
C34	C	0.087149	-0.632058	-0.762209
C35	C	0.015155	-0.610571	-0.656557
C36	C	-0.113870	-1.271449	-0.638453
C37	C	-0.163801	-1.271462	-0.638466
C38	C	-0.473400	-1.313768	-0.596590
C39	C	-0.661055	-1.313876	-0.596642
O40	O	-0.685302	-1.349721	-0.560983
N41	N	-0.684531	-1.271789	-0.638621
C42	C	-0.661090	-1.229677	-0.680594
O43	O	-0.685362	-1.193890	-0.716308
C44	C	-0.473435	-1.229574	-0.680546
C45	C	-0.449963	-1.271657	-0.638557
C46	C	-0.449927	-1.355847	-0.554605
C47	C	-0.403018	-1.355816	-0.554589
C48	C	-0.379580	-1.313705	-0.596557
C49	C	-0.403053	-1.271625	-0.638541
C50	C	-0.449994	-1.187468	-0.722524
C51	C	-0.403076	-1.187448	-0.722510
C52	C	-0.379604	-1.229530	-0.680521
C53	C	-0.332705	-1.229483	-0.680492
N54	N	-0.309229	-1.271570	-0.638513
C55	C	-0.332666	-1.313681	-0.596546
C56	C	-0.759612	-1.229733	-0.680615
C57	C	-0.806526	-1.229757	-0.680626
C58	C	-0.806487	-1.313957	-0.596675
C59	C	-0.759573	-1.313928	-0.596660
C60	C	-0.736135	-1.271819	-0.638636
C61	C	-0.234152	-1.313611	-0.596513
C62	C	-0.187239	-1.313573	-0.596498
C63	C	-0.187281	-1.229377	-0.680452
C64	C	-0.234191	-1.229411	-0.680464
C65	C	-0.257625	-1.271534	-0.638494
O66	O	-0.308427	-1.193665	-0.716141
O67	O	-0.308382	-1.349479	-0.560853
C68	C	-0.520310	-1.313799	-0.596606
C69	C	-0.543783	-1.271719	-0.638591
C70	C	-0.520345	-1.229608	-0.680558
C71	C	-0.590696	-1.271744	-0.638601
C72	C	-0.614134	-1.313855	-0.596634
C73	C	-0.590657	-1.355941	-0.554655
C74	C	-0.543747	-1.355910	-0.554638
C75	C	-0.543822	-1.187522	-0.722537
C76	C	-0.590732	-1.187556	-0.722549
C77	C	-0.614169	-1.229667	-0.680581
C78	C	0.120089	-1.271790	-0.638618
C79	C	0.170037	-1.271868	-0.638658
C80	C	0.032617	-1.315156	-0.853530
C81	C	0.045290	-1.333714	-0.945153
C82	C	0.032557	-0.486640	-0.682114
C83	C	0.045206	-0.578270	-0.700664
C84	C	-0.093106	-1.130936	-1.192929
C85	C	-0.081190	-1.148392	-1.279026
C86	C	-0.009166	-1.253922	-1.300440
C87	C	-0.021074	-1.236472	-1.214343
C88	C	-0.063045	-1.174979	-1.160594
C89	C	0.008986	-1.280515	-1.182007
C90	C	-0.002923	-1.263069	-1.095918
C91	C	-0.044893	-1.201581	-1.042164
C92	C	-0.074954	-1.157533	-1.074504
C93	C	0.050955	-1.342012	-1.235758
C94	C	0.081015	-1.386055	-1.203423
C95	C	0.069108	-1.368606	-1.117331
C96	C	0.027138	-1.307117	-1.063577
C97	C	0.099170	-1.412653	-1.084991
C98	C	0.087260	-1.395207	-0.998902
C99	C	0.015229	-1.289671	-0.977488
C100	C	-0.026705	-1.228273	-0.424364
C101	C	-0.039229	-1.209874	-0.332775
H102	H	-0.054624	-0.605074	-0.554133
H103	H	0.025006	-1.303992	-1.344214
H104	H	0.060501	-0.938962	-0.723051
F105	F	0.119253	-1.442085	-0.964486
F106	F	-0.615708	-1.142760	-0.767240
F107	F	-0.518772	-1.400703	-0.509951
F108	F	-0.378040	-1.400618	-0.509910
H109	H	0.133189	-0.761959	-0.829749
H110	H	0.060649	-1.356216	-1.305858
H111	H	0.115187	-1.436125	-1.247197
F112	F	-0.734596	-1.358717	-0.551971
H113	H	-0.825577	-1.348246	-0.562504
H114	H	-0.127274	-1.080842	-1.149159
F115	F	-0.119622	-1.092078	-1.017294
H116	H	-0.609749	-1.390227	-0.520481
F117	F	0.143833	-1.478104	-1.142206
H118	H	-0.105747	-0.938282	-0.479083
H119	H	0.024867	-0.977279	-0.670754
H120	H	-0.105672	-1.112522	-1.305348
F121	F	0.125510	-0.893810	-0.818465
H122	H	-0.253302	-1.195147	-0.714658
H123	H	-0.018940	-1.239578	-0.933718
H124	H	-0.054590	-1.187381	-0.972065
F125	F	-0.119652	-0.650240	-0.458746
H126	H	-0.019002	-0.566775	-0.606448
F127	F	0.119134	-0.597677	-0.809150
F128	F	-0.137815	-0.768637	-0.432075
H129	H	-0.168129	-1.347841	-0.562303
F130	F	-0.474864	-1.400673	-0.509935
F131	F	-0.259086	-1.358443	-0.551844
H132	H	-0.740532	-1.195441	-0.714798
F133	F	-0.831504	-1.184956	-0.725304
H134	H	-0.469098	-1.153195	-0.756710
H135	H	-0.383995	-1.153160	-0.756695
F136	F	-0.162328	-1.184565	-0.725117
H137	H	-0.524742	-1.153231	-0.756713
