data_functionalizedCrystal
_audit_creation_method	'MofGen! by Chris Wilmer'
_symmetry_space_group_name_H-M	'P1'
_symmetry_Int_Tables_number	1
_symmetry_cell_setting	triclinic
loop_
_symmetry_equiv_pos_as_xyz
  x,y,z
_cell_length_a	14.971482
_cell_length_b	10.967829
_cell_length_c	14.048226
_cell_angle_alpha	77.865708
_cell_angle_beta	89.994098
_cell_angle_gamma	84.173805
loop_
_atom_site_label
_atom_site_type_symbol
_atom_site_fract_x
_atom_site_fract_y
_atom_site_fract_z
O1	O	1.187825	0.162598	-0.105819
O2	O	0.927529	0.182076	-0.109018
O3	O	1.063678	-0.009306	-0.077618
O4	O	1.051675	0.353980	-0.137219
O5	O	1.063661	-0.009317	0.080705
O6	O	0.927512	0.182065	0.049305
O7	O	1.187808	0.162586	0.052505
Zn8	Zn	1.057658	0.172324	0.076042
Zn9	Zn	1.057679	0.172339	-0.132556
O10	O	1.051659	0.353968	0.021104
C11	C	0.894191	0.181201	-0.029715
C12	C	0.794880	0.178593	-0.029288
C13	C	0.748220	0.177358	0.057216
C14	C	0.654908	0.174888	0.057623
C15	C	0.608257	0.173661	-0.028478
C16	C	0.654924	0.174891	-0.114989
C17	C	0.748235	0.177353	-0.115393
C18	C	0.460435	0.169764	-0.114141
C19	C	0.367117	0.167305	-0.113738
C20	C	0.367107	0.167299	0.058874
C21	C	0.460418	0.169760	0.058470
C22	C	0.507079	0.170993	-0.028041
C23	C	1.062795	-0.055803	0.009169
C24	C	1.060179	-0.194332	0.031890
C25	C	1.059021	-0.256081	-0.039997
C26	C	1.056316	-0.399259	-0.016515
C27	C	1.221146	0.163462	-0.026801
C28	C	1.320457	0.166070	-0.027234
C29	C	1.052542	0.400466	-0.065685
C30	C	1.055158	0.538995	-0.088413
N31	N	1.057649	0.172313	0.218404
N32	N	1.057695	0.172340	-0.274917
C33	C	1.117955	0.087604	0.282121
C34	C	1.117961	0.087603	0.381779
C35	C	1.057665	0.172319	0.417717
C36	C	0.997352	0.257032	0.353993
C37	C	0.997343	0.257025	0.254338
C38	C	0.997378	0.257041	0.561706
C39	C	0.997389	0.257049	0.661367
C40	C	1.117997	0.087619	0.689146
C41	C	1.117987	0.087612	0.589491
C42	C	1.057675	0.172327	0.525774
H43	H	0.329112	0.166295	0.129314
H44	H	1.167089	0.018637	0.560231
O45	O	0.609464	0.173843	0.141563
C46	C	0.546023	0.280414	0.129256
H47	H	0.528896	0.316060	0.048477
H48	H	0.575337	0.356980	0.159293
C49	C	0.481296	0.201466	0.283571
C50	C	0.460255	0.245240	0.184357
H51	H	0.428392	0.179773	0.317563
H52	H	0.524040	0.129669	0.291865
H53	H	0.505726	0.265279	0.308588
H54	H	0.435836	0.181423	0.159339
H55	H	0.417505	0.317026	0.176060
H56	H	1.059162	-0.247465	0.110820
O57	O	1.176562	0.005190	0.247382
C58	C	1.229804	-0.069556	0.324992
H59	H	1.193130	-0.071043	0.396282
H60	H	1.296496	-0.028885	0.328900
C61	C	1.292456	-0.202309	0.220629
C62	C	1.247409	-0.204144	0.308188
H63	H	1.303320	-0.285328	0.210262
H64	H	1.256588	-0.151949	0.168340
H65	H	1.348028	-0.168411	0.223897
H66	H	1.191834	-0.238027	0.304914
H67	H	1.283268	-0.254513	0.360475
H68	H	1.167104	0.018641	0.741031
H69	H	1.056159	-0.407876	-0.167348
O70	O	0.938686	0.339198	0.696266
C71	C	0.850023	0.318701	0.675287
H72	H	0.848989	0.218792	0.664280
H73	H	0.824152	0.387810	0.606113
C74	C	0.790790	0.460626	0.774200
C75	C	0.789518	0.337913	0.760690
H76	H	0.753466	0.472482	0.826878
H77	H	0.850523	0.474440	0.788331
H78	H	0.769232	0.518203	0.716549
H79	H	0.811086	0.280339	0.818335
H80	H	0.729787	0.324090	0.746570
H81	H	0.786195	0.178367	0.127328
O82	O	1.176583	0.005496	0.443753
C83	C	1.232182	0.072468	0.490376
H84	H	1.197150	0.170031	0.489293
H85	H	1.298335	0.081103	0.450541
C86	C	1.293905	-0.117662	0.597907
C87	C	1.250874	0.002163	0.596585
H88	H	1.305439	-0.161031	0.663421
H89	H	1.256449	-0.162784	0.566495
H90	H	1.349028	-0.110449	0.564706
H91	H	1.195747	-0.005051	0.629774
H92	H	1.288320	0.047282	0.628006
H93	H	0.948263	0.326021	0.509829
H94	H	1.055300	-0.452386	0.062420
H95	H	0.948253	0.326004	0.383260
O96	O	0.505714	0.170731	0.142168
C97	C	0.492364	0.062152	0.212498
H98	H	0.473335	-0.014000	0.174497
H99	H	0.436057	0.085136	0.262543
C100	C	0.602918	0.108902	0.319726
C101	C	0.579554	0.015366	0.273052
H102	H	0.656700	0.080044	0.357083
H103	H	0.611911	0.182056	0.272346
H104	H	0.555989	0.128046	0.361423
H105	H	0.626478	-0.003766	0.231347
H106	H	0.570572	-0.057793	0.320427
O107	O	1.060123	-0.192541	-0.134124
C108	C	0.984210	-0.103234	-0.153884
H109	H	0.958772	-0.079207	-0.082879
H110	H	0.929124	-0.143489	-0.189941
C111	C	1.041306	-0.013270	-0.309891
C112	C	1.010067	0.016249	-0.222681
H113	H	1.057253	0.060431	-0.352331
H114	H	1.092449	-0.073440	-0.296580
H115	H	0.995396	-0.046818	-0.339925
H116	H	1.055981	0.049780	-0.192642
H117	H	0.958933	0.076428	-0.235988
O118	O	0.938853	0.339487	0.192454
C119	C	0.954133	0.463053	0.196534
H120	H	1.025750	0.463832	0.223785
H121	H	0.904787	0.499595	0.248393
C122	C	0.852781	0.546657	0.060658
C123	C	0.940744	0.547616	0.094120
H124	H	0.844518	0.598822	-0.002514
H125	H	0.842483	0.463409	0.057911
H126	H	0.811669	0.577106	0.103882
H127	H	0.981853	0.517153	0.050903
H128	H	0.951048	0.630861	0.096857
O129	O	0.321736	0.166324	-0.197382
C130	C	0.258276	0.272876	-0.220017
H131	H	0.279780	0.349101	-0.183561
H132	H	0.189699	0.246600	-0.192503
C133	C	0.226129	0.228173	-0.375932
C134	C	0.252546	0.321798	-0.331163
H135	H	0.222590	0.258349	-0.444492
H136	H	0.268881	0.156385	-0.360682
H137	H	0.168984	0.206286	-0.352994
H138	H	0.309694	0.343673	-0.354092
H139	H	0.209803	0.393592	-0.346420
O140	O	0.505618	0.171023	-0.198273
C141	C	0.444439	0.169391	-0.274179
H142	H	0.374458	0.207099	-0.255061
H143	H	0.443296	0.069101	-0.284271
C144	C	0.559638	0.205830	-0.392766
C145	C	0.473688	0.252155	-0.369289
H146	H	0.577682	0.256878	-0.451437
H147	H	0.600858	0.206925	-0.341627
H148	H	0.558675	0.122256	-0.401170
H149	H	0.474655	0.335721	-0.360874
H150	H	0.432469	0.251075	-0.420429
H151	H	0.616935	0.173884	-0.185092
H152	H	0.786225	0.178361	-0.185834
