data_functionalizedCrystal
_audit_creation_method	'MofGen! by Chris Wilmer'
_symmetry_space_group_name_H-M	'P1'
_symmetry_Int_Tables_number	1
_symmetry_cell_setting	triclinic
loop_
_symmetry_equiv_pos_as_xyz
  x,y,z
_cell_length_a	10.654550
_cell_length_b	9.730223
_cell_length_c	10.654549
_cell_angle_alpha	89.998008
_cell_angle_beta	95.515146
_cell_angle_gamma	90.000242
loop_
_atom_site_label
_atom_site_type_symbol
_atom_site_fract_x
_atom_site_fract_y
_atom_site_fract_z
O1	O	1.667839	0.114184	-0.176396
O2	O	1.302361	0.114209	-0.193202
O3	O	1.493503	0.114190	-0.002060
O4	O	1.476697	0.114203	-0.367538
O5	O	1.493490	-0.114390	-0.002060
O6	O	1.302347	-0.114371	-0.193202
O7	O	1.667826	-0.114396	-0.176396
Zn8	Zn	1.485084	-0.150675	-0.184799
Zn9	Zn	1.485102	0.150489	-0.184799
O10	O	1.476683	-0.114377	-0.367538
C11	C	1.255556	-0.000078	-0.191968
C12	C	1.116113	-0.000068	-0.188276
C13	C	1.036627	-0.000068	-0.300818
C14	C	0.905606	-0.000092	-0.297341
C15	C	0.933570	-0.000111	-0.068772
C16	C	1.064588	-0.000096	-0.072250
N17	N	1.485081	-0.356212	-0.184798
C18	C	1.561913	-0.428135	-0.261680
C19	C	1.561933	-0.572018	-0.261673
C20	C	1.408281	-0.572041	-0.107899
C21	C	1.408268	-0.428161	-0.107900
C22	C	1.714631	-0.000106	-0.177630
C23	C	1.854074	-0.000106	-0.181322
C24	C	1.492263	-0.000098	0.044738
C25	C	1.488571	-0.000094	0.184181
N26	N	1.485115	0.356025	-0.184790
C27	C	1.477924	-0.000086	-0.414336
C28	C	1.481616	-0.000081	-0.553780
C29	C	1.597634	-0.000092	0.394696
C30	C	1.601113	-0.000103	0.263676
C31	C	1.372543	-0.000087	0.235714
C32	C	1.369066	-0.000086	0.366732
H33	H	0.891602	-0.000142	0.025693
Cl34	Cl	1.311711	-0.662502	-0.011243
Cl35	Cl	0.805686	-0.000094	-0.438829
H36	H	1.280910	-0.000088	0.170979
H37	H	1.129309	-0.000100	0.019401
Cl38	Cl	1.223202	-0.000081	0.431510
Cl39	Cl	1.658488	-0.337690	-0.358342
H40	H	1.078574	-0.000056	-0.395294
H41	H	1.624499	-0.630572	-0.324277
H42	H	1.689280	-0.000088	0.459413
H43	H	1.345701	-0.369599	-0.045287
Cl44	Cl	1.746972	-0.000111	0.198908
