data_functionalizedCrystal
_audit_creation_method	'MofGen! by Chris Wilmer'
_symmetry_space_group_name_H-M	'P1'
_symmetry_Int_Tables_number	1
_symmetry_cell_setting	triclinic
loop_
_symmetry_equiv_pos_as_xyz
  x,y,z
_cell_length_a	15.995292
_cell_length_b	15.995350
_cell_length_c	9.130307
_cell_angle_alpha	89.998938
_cell_angle_beta	89.997308
_cell_angle_gamma	83.480495
loop_
_atom_site_label
_atom_site_type_symbol
_atom_site_fract_x
_atom_site_fract_y
_atom_site_fract_z
O1	O	1.111012	0.107693	-0.121832
O2	O	0.867230	0.121072	-0.121825
O3	O	0.995785	-0.007506	-0.121827
O4	O	0.982458	0.236272	-0.121830
O5	O	0.995781	-0.007508	0.121772
O6	O	0.867226	0.121071	0.121774
O7	O	1.111008	0.107692	0.121767
Cu8	Cu	0.989117	0.114381	0.144013
Cu9	Cu	0.989122	0.114383	-0.144071
O10	O	0.982453	0.236270	0.121769
C11	C	0.995232	-0.038702	-0.000030
C12	C	0.993580	-0.131652	-0.000039
C13	C	0.836033	0.120527	-0.000025
C14	C	0.743080	0.118894	-0.000022
C15	C	0.987648	-0.469398	-0.000034
C16	C	0.896094	-0.421945	-0.000577
C17	C	0.897746	-0.325255	-0.000028
C18	C	0.990591	-0.301838	-0.000037
C19	C	1.035746	-0.342926	0.139066
C20	C	1.033446	-0.439561	0.139183
C21	C	1.035342	-0.439918	-0.137835
C22	C	1.035321	-0.342973	-0.139673
C23	C	0.992259	-0.207141	-0.000034
C24	C	0.985983	-0.564095	-0.000027
C25	C	0.405341	0.112893	-0.000039
C26	C	0.428654	0.205697	-0.000584
C27	C	0.525329	0.207461	-0.000028
C28	C	0.572897	0.115871	-0.000032
C29	C	0.543793	0.069472	0.139071
C30	C	0.447003	0.068355	0.139181
C31	C	0.447152	0.066461	-0.137836
C32	C	0.543644	0.069901	-0.139669
C33	C	0.667593	0.117549	-0.000023
C34	C	0.310646	0.111212	-0.000038
C35	C	1.142206	0.108237	-0.000036
C36	C	1.235159	0.109870	-0.000048
C37	C	0.983006	0.267466	-0.000031
C38	C	0.984658	0.360416	-0.000032
N39	N	0.989120	0.114380	0.346636
N40	N	0.989126	0.114378	-0.346694
C41	C	1.103001	0.000556	0.346624
C42	C	1.159947	-0.056353	0.423285
C43	C	1.159956	-0.056353	0.576618
C44	C	1.103010	0.000560	0.653294
C45	C	1.046064	0.057469	0.576634
C46	C	1.046063	0.057465	0.423297
C47	C	0.932180	0.171287	0.576646
C48	C	0.932174	0.171293	0.423312
C49	C	0.875234	0.228200	0.653322
C50	C	0.818290	0.285115	0.576661
C51	C	0.818285	0.285113	0.423318
C52	C	0.875227	0.228202	0.346651
H53	H	0.862251	-0.296825	-0.099743
Br54	Br	1.103009	0.000565	0.138527
H55	H	1.206323	-0.102697	0.639036
Br56	Br	1.103007	0.000546	0.861391
Br57	Br	0.574638	0.126177	-0.311196
H58	H	0.875239	0.228194	0.778174
H59	H	1.103957	-0.328814	0.144233
H60	H	0.563850	0.101692	0.242593
Br61	Br	0.983470	-0.295616	0.311615
H62	H	0.771925	0.331446	0.639100
H63	H	0.771909	0.331453	0.360909
H64	H	1.206311	-0.102693	0.360842
Br65	Br	0.875230	0.228201	0.138554
H66	H	0.859502	-0.440468	-0.100331
H67	H	1.005411	-0.460451	-0.243267
H68	H	0.859661	-0.441532	0.098622
Br69	Br	0.598590	-0.041529	-0.153676
Br70	Br	0.838176	-0.278792	0.166451
H71	H	1.000515	-0.457856	0.243170
H72	H	0.432452	0.000311	0.145498
Br73	Br	0.596895	-0.042868	0.147686
H74	H	1.002306	-0.315717	-0.242578
H75	H	1.100664	-0.471823	0.145488
H76	H	1.103027	-0.327625	-0.148079
Br77	Br	0.423838	-0.047395	-0.139403
Br78	Br	1.147850	-0.492877	-0.139407
Br79	Br	0.557049	0.268022	-0.166227
H80	H	0.400659	0.241469	-0.100341
H81	H	0.399633	0.241269	0.098612
H82	H	0.543731	0.244017	0.099855
H83	H	0.418827	0.095469	-0.243268
Br84	Br	0.402298	0.121914	0.312491
