data_functionalizedCrystal
_audit_creation_method	'MofGen! by Chris Wilmer'
_symmetry_space_group_name_H-M	'P1'
_symmetry_Int_Tables_number	1
_symmetry_cell_setting	triclinic
loop_
_symmetry_equiv_pos_as_xyz
  x,y,z
_cell_length_a	19.288864
_cell_length_b	15.995292
_cell_length_c	18.366186
_cell_angle_alpha	89.996953
_cell_angle_beta	89.977106
_cell_angle_gamma	83.302432
loop_
_atom_site_label
_atom_site_type_symbol
_atom_site_fract_x
_atom_site_fract_y
_atom_site_fract_z
O1	O	0.921606	0.104454	-0.060778
O2	O	1.254939	0.437788	0.272555
O3	O	1.588272	0.771121	0.605889
O4	O	0.719379	0.118545	-0.060728
O5	O	1.052713	0.451878	0.272606
O6	O	1.386046	0.785212	0.605939
O7	O	0.826042	-0.010412	-0.060755
O8	O	1.159375	0.322921	0.272578
O9	O	1.492708	0.656254	0.605911
O10	O	0.814944	0.233412	-0.060750
O11	O	1.148277	0.566745	0.272583
O12	O	1.481610	0.900078	0.605916
O13	O	0.826023	-0.010419	0.060344
O14	O	1.159357	0.322915	0.393677
O15	O	1.492690	0.656248	0.727011
O16	O	0.719361	0.118539	0.060372
O17	O	1.052695	0.451872	0.393705
O18	O	1.386028	0.785205	0.727038
O19	O	0.921588	0.104448	0.060321
O20	O	1.254921	0.437781	0.393655
O21	O	1.588254	0.771115	0.726988
Zn22	Zn	0.820472	0.111492	0.079574
Zn23	Zn	1.153805	0.444826	0.412907
Zn24	Zn	1.487138	0.778159	0.746240
Zn25	Zn	0.820495	0.111501	-0.079980
Zn26	Zn	1.153829	0.444834	0.253353
Zn27	Zn	1.487162	0.778167	0.586687
O28	O	0.814925	0.233405	0.060349
O29	O	1.148259	0.566739	0.393682
O30	O	1.481592	0.900072	0.727016
C31	C	0.693493	0.118089	-0.000172
C32	C	1.026826	0.451422	0.333162
C33	C	1.360159	0.784755	0.666495
C34	C	0.616386	0.116727	-0.000153
C35	C	0.949719	0.450061	0.333181
C36	C	1.283052	0.783394	0.666514
C37	C	0.571873	0.192394	-0.000162
C38	C	0.905206	0.525727	0.333171
C39	C	1.238540	0.859060	0.666504
C40	C	0.499423	0.191115	-0.000171
C41	C	0.832756	0.524448	0.333163
C42	C	1.166089	0.857782	0.666496
C43	C	0.471489	0.114166	-0.000183
C44	C	0.804822	0.447499	0.333150
C45	C	1.138155	0.780833	0.666483
C46	C	0.516011	0.038490	-0.000169
C47	C	0.849345	0.371823	0.333164
C48	C	1.182678	0.705156	0.666497
C49	C	0.588460	0.039770	-0.000154
C50	C	0.921793	0.373104	0.333179
C51	C	1.255127	0.706437	0.666513
C52	C	0.363087	0.053677	-0.042636
C53	C	0.696420	0.387011	0.290698
C54	C	1.029753	0.720344	0.624031
C55	C	0.290639	0.052400	-0.042655
C56	C	0.623972	0.385733	0.290678
C57	C	0.957306	0.719067	0.624011
C58	C	0.248034	0.110212	-0.000227
C59	C	0.581367	0.443546	0.333106
C60	C	0.914700	0.776879	0.666439
C61	C	0.277883	0.169317	0.042211
C62	C	0.611216	0.502650	0.375544
C63	C	0.944550	0.835983	0.708878
C64	C	0.350332	0.170597	0.042226
C65	C	0.683665	0.503931	0.375560
C66	C	1.016998	0.837264	0.708893
C67	C	0.392931	0.112769	-0.000200
C68	C	0.726265	0.446102	0.333134
C69	C	1.059598	0.779435	0.666467
C70	C	0.124961	0.184497	-0.000245
C71	C	0.458295	0.517831	0.333088
C72	C	0.791628	0.851164	0.666422
C73	C	0.052510	0.183215	-0.000249
C74	C	0.385843	0.516549	0.333085
C75	C	0.719177	0.849882	0.666418
C76	C	0.069101	0.030588	-0.000255
C77	C	0.402434	0.363921	0.333079
C78	C	0.735767	0.697255	0.666412
C79	C	0.141550	0.031872	-0.000244
C80	C	0.474883	0.365205	0.333089
C81	C	0.808217	0.698539	0.666423
C82	C	0.169476	0.108829	-0.000243
C83	C	0.502809	0.442162	0.333091
C84	C	0.836142	0.775496	0.666424
C85	C	0.825581	-0.041609	-0.000207
C86	C	1.158914	0.291724	0.333126
C87	C	1.492248	0.625057	0.666459
C88	C	0.824227	-0.134557	-0.000213
C89	C	1.157560	0.198776	0.333121
C90	C	1.490893	0.532110	0.666454
C91	C	0.819248	-0.472277	-0.000205
C92	C	1.152582	-0.138943	0.333129
C93	C	1.485915	0.194390	0.666462
C94	C	0.896234	-0.449255	0.000047
C95	C	1.229568	-0.115922	0.333380
C96	C	1.562901	0.217412	0.666713
C97	C	0.897698	-0.352585	-0.000229
C98	C	1.231031	-0.019251	0.333104
C99	C	1.564364	0.314082	0.666437
C100	C	0.821719	-0.304730	-0.000208
C101	C	1.155052	0.028603	0.333125
C102	C	1.488385	0.361937	0.666459
C103	C	0.783240	-0.333682	-0.069350
C104	C	1.116573	-0.000349	0.263983
C105	C	1.449906	0.332984	0.597317
C106	C	0.782313	-0.430469	-0.069405
C107	C	1.115646	-0.097136	0.263928
C108	C	1.448980	0.236197	0.597262
C109	C	0.780720	-0.430328	0.068308
C110	C	1.114053	-0.096994	0.401641
C111	C	1.447387	0.236339	0.734975
C112	C	0.783573	-0.333846	0.069219
C113	C	1.116906	-0.000513	0.402552
C114	C	1.450240	0.332821	0.735885
C115	C	0.823111	-0.210039	-0.000213
C116	C	1.156444	0.123294	0.333121
C117	C	1.489777	0.456627	0.666454
C118	C	0.817854	-0.566967	-0.000205
C119	C	1.151187	-0.233634	0.333128
C120	C	1.484521	0.099699	0.666462
C121	C	0.947474	0.104905	-0.000236
C122	C	1.280808	0.438238	0.333097
C123	C	1.614141	0.771571	0.666430
C124	C	1.024581	0.106266	-0.000260
C125	C	1.357915	0.439599	0.333073
C126	C	1.691248	0.772932	0.666406
C127	C	0.815386	0.264602	-0.000201
C128	C	1.148719	0.597936	0.333133
C129	C	1.482053	0.931269	0.666466
C130	C	0.816740	0.357550	-0.000200
C131	C	1.150074	0.690883	0.333133
C132	C	1.483407	1.024217	0.666466
N133	N	0.820460	0.111486	0.188465
N134	N	1.153794	0.444820	0.521798
N135	N	1.487127	0.778153	0.855131
N136	N	0.820512	0.111500	-0.188871
N137	N	1.153846	0.444834	0.144462
N138	N	1.487179	0.778167	0.477795
C139	C	0.867706	0.054412	0.226553
C140	C	1.201039	0.387745	0.559886
C141	C	1.534373	0.721079	0.893220
C142	C	0.867710	0.054408	0.302781
C143	C	1.201044	0.387741	0.636114
C144	C	1.534377	0.721075	0.969447
C145	C	0.820476	0.111493	0.340917
C146	C	1.153809	0.444826	0.674251
C147	C	1.487142	0.778160	1.007584
C148	C	0.773221	0.168572	0.302820
C149	C	1.106555	0.501905	0.636154
C150	C	1.439888	0.835238	0.969487
C151	C	0.773214	0.168568	0.226594
C152	C	1.106547	0.501902	0.559927
C153	C	1.439880	0.835235	0.893260
C154	C	0.811362	0.187786	0.461681
C155	C	1.144696	0.521120	0.795014
C156	C	1.478029	0.854453	1.128347
C157	C	0.811375	0.187791	0.537906
C158	C	1.144708	0.521124	0.871239
C159	C	1.478042	0.854457	1.204572
C160	C	0.820495	0.111504	0.576025
C161	C	1.153829	0.444837	0.909358
C162	C	1.487162	0.778170	1.242692
C163	C	0.829618	0.035209	0.537910
C164	C	1.162952	0.368542	0.871243
C165	C	1.496285	0.701875	1.204577
C166	C	0.829611	0.035205	0.461684
C167	C	1.162944	0.368538	0.795017
C168	C	1.496277	0.701872	1.128350
C169	C	0.820479	0.111503	0.423572
C170	C	1.153812	0.444836	0.756906
C171	C	1.487145	0.778170	1.090239
C172	C	0.867748	0.054420	0.696768
C173	C	1.201082	0.387754	1.030101
C174	C	1.534415	0.721087	1.363435
C175	C	0.867748	0.054416	0.772997
C176	C	1.201081	0.387749	1.106331
C177	C	1.534415	0.721082	1.439664
C178	C	0.773262	0.168587	0.773035
C179	C	1.106596	0.501920	1.106369
C180	C	1.439929	0.835253	1.439702
C181	C	0.773259	0.168584	0.696808
C182	C	1.106593	0.501917	1.030141
C183	C	1.439926	0.835251	1.363474
C184	C	0.820506	0.111502	0.658678
C185	C	1.153839	0.444835	0.992012
C186	C	1.487173	0.778169	1.325345
H187	H	0.147699	0.247160	-0.000233
H188	H	0.481033	0.580494	0.333100
H189	H	0.814366	0.913827	0.666433
H190	H	0.809975	-0.313720	-0.120820
H191	H	1.143309	0.019613	0.212513
H192	H	1.476642	0.352947	0.545847
F193	F	0.934817	-0.487323	-0.064419
F194	F	1.268150	-0.153990	0.268915
F195	F	1.601483	0.179343	0.602248
H196	H	0.724053	-0.444105	0.068790
H197	H	1.057386	-0.110771	0.402123
H198	H	1.390719	0.222562	0.735456
F199	F	0.382098	0.233496	0.087393
F200	F	0.715431	0.566830	0.420726
F201	F	1.048764	0.900163	0.754060
H202	H	0.928027	-0.334292	-0.049894
H203	H	1.261360	-0.000959	0.283439
H204	H	1.594693	0.332375	0.616773
H205	H	0.016268	0.244835	-0.000253
H206	H	0.349601	0.578168	0.333081
H207	H	0.682934	0.911501	0.666414
H208	H	0.808977	-0.457384	-0.121105
H209	H	1.142310	-0.124050	0.212228
H210	H	1.475643	0.209283	0.545561
F211	F	0.801705	0.268989	0.421119
F212	F	1.135038	0.602322	0.754452
F213	F	1.468372	0.935655	1.087785
F214	F	0.188926	-0.048664	-0.000237
F215	F	0.522260	0.284670	0.333096
F216	F	0.855593	0.618003	0.666430
F217	F	0.039376	-0.051308	-0.000261
F218	F	0.372709	0.282025	0.333072
F219	F	0.706043	0.615359	0.666405
H220	H	0.266341	0.004277	-0.077214
H221	H	0.599674	0.337610	0.256119
H222	H	0.933008	0.670944	0.589452
F223	F	0.408424	-0.007859	-0.087796
F224	F	0.741758	0.325474	0.245538
F225	F	1.075091	0.658807	0.578871
F226	F	0.486281	-0.043405	-0.000180
F227	F	0.819615	0.289928	0.333154
F228	F	1.152948	0.623262	0.666487
H229	H	0.725867	-0.444807	-0.072523
H230	H	1.059200	-0.111473	0.260811
H231	H	1.392533	0.221860	0.594144
F232	F	0.801671	0.268990	0.578463
F233	F	1.135004	0.602323	0.911797
F234	F	1.468337	0.935656	1.245130
F235	F	0.710162	-0.291751	-0.072695
F236	F	1.043495	0.041582	0.260638
F237	F	1.376828	0.374916	0.593972
H238	H	0.906218	0.007938	0.665722
H239	H	1.239551	0.341271	0.999055
H240	H	1.572884	0.674605	1.332389
F241	F	0.812193	-0.467434	0.136809
F242	F	1.145526	-0.134101	0.470142
F243	F	1.478860	0.199232	0.803475
F244	F	0.635836	-0.040768	-0.000143
F245	F	0.969169	0.292566	0.333190
F246	F	1.302503	0.625899	0.666523
H247	H	0.811591	-0.315389	0.120369
H248	H	1.144925	0.017944	0.453703
H249	H	1.478258	0.351278	0.787036
H250	H	0.728115	-0.300668	0.073410
H251	H	1.061449	0.032666	0.406744
H252	H	1.394782	0.365999	0.740077
H253	H	0.906219	0.007934	0.804009
H254	H	1.239552	0.341268	1.137343
H255	H	1.572886	0.674601	1.470676
H256	H	0.906175	0.007930	0.195510
H257	H	1.239509	0.341264	0.528844
H258	H	1.572842	0.674597	0.862177
H259	H	0.927834	-0.333676	0.049333
H260	H	1.261167	-0.000343	0.382666
H261	H	1.594501	0.332991	0.715999
F262	F	0.722927	0.229317	0.186056
F263	F	1.056260	0.562651	0.519389
F264	F	1.389593	0.895984	0.852723
H265	H	0.594605	0.255058	-0.000163
H266	H	0.927938	0.588391	0.333171
H267	H	1.261272	0.921725	0.666504
F268	F	0.232545	0.230851	0.087369
F269	F	0.565878	0.564184	0.420702
F270	F	0.899212	0.897517	0.754036
F271	F	0.935013	-0.485997	0.064857
F272	F	1.268347	-0.152664	0.398191
F273	F	1.601680	0.180669	0.731524
F274	F	0.917998	-0.006341	0.343324
F275	F	1.251332	0.326992	0.676657
F276	F	1.584665	0.660325	1.009990
H277	H	0.837037	-0.026917	0.430653
H278	H	1.170370	0.306417	0.763987
H279	H	1.503703	0.639750	1.097320
F280	F	0.722948	0.229323	0.343408
F281	F	1.056282	0.562656	0.676742
F282	F	1.389615	0.895990	1.010075
F283	F	0.839330	-0.045988	0.578473
F284	F	1.172664	0.287345	0.911806
F285	F	1.505997	0.620678	1.245140
H286	H	0.734800	0.215063	0.804086
H287	H	1.068134	0.548396	1.137419
H288	H	1.401467	0.881730	1.470752
H289	H	0.463173	0.252734	-0.000177
H290	H	0.796507	0.586067	0.333157
H291	H	1.129840	0.919400	0.666490
F292	F	0.722977	0.229334	0.656268
F293	F	1.056311	0.562668	0.989602
F294	F	1.389644	0.896001	1.322935
