data_functionalizedCrystal
_audit_creation_method	'MofGen! by Chris Wilmer'
_symmetry_space_group_name_H-M	'P1'
_symmetry_Int_Tables_number	1
_symmetry_cell_setting	triclinic
loop_
_symmetry_equiv_pos_as_xyz
  x,y,z
_cell_length_a	13.032831
_cell_length_b	12.645330
_cell_length_c	13.032268
_cell_angle_alpha	82.848687
_cell_angle_beta	89.113023
_cell_angle_gamma	82.822813
loop_
_atom_site_label
_atom_site_type_symbol
_atom_site_fract_x
_atom_site_fract_y
_atom_site_fract_z
Zn1	Zn	1.498478	-0.715929	0.780858
Zn2	Zn	1.520220	-0.873876	0.608884
Zn3	Zn	1.348336	-0.671644	0.587098
Zn4	Zn	1.326468	-0.868144	0.759009
O5	O	1.423375	-0.782398	0.683962
O6	O	1.645282	-0.757814	0.776307
O7	O	1.515670	-0.830915	0.462076
O8	O	1.368306	-0.529182	0.612827
O9	O	1.661256	-0.873856	0.649958
O10	O	1.478614	-0.561718	0.755182
O11	O	1.389388	-0.682336	0.446071
O12	O	1.201515	-0.676778	0.591641
O13	O	1.331034	-0.864087	0.905824
O14	O	1.185448	-0.821146	0.717943
O15	O	1.457409	-0.752256	0.921877
O16	O	1.494465	-1.021452	0.628771
O17	O	1.352116	-1.017241	0.739067
C18	C	1.156164	-0.743535	0.650057
C19	C	1.041847	-0.726938	0.635577
C20	C	0.982971	-0.791061	0.691519
C21	C	0.864818	-0.773908	0.676555
C22	C	1.423302	-1.057816	0.683938
C23	C	1.423360	-1.175658	0.683974
C24	C	1.334105	-1.340692	0.753648
C25	C	1.333733	-1.218045	0.753341
C26	C	1.407793	-1.203807	0.571873
C27	C	1.407248	-1.326389	0.572295
C28	C	1.528779	-1.361707	0.725584
C29	C	1.527810	-1.239270	0.727870
C30	C	1.691630	-0.821414	0.718000
C31	C	1.805944	-0.838040	0.732505
C32	C	1.389357	-0.812472	0.952210
C33	C	1.374860	-0.825288	1.066522
C34	C	1.423474	-0.505912	0.684012
C35	C	1.423516	-0.388090	0.684033
C36	C	1.457320	-0.752374	0.416765
C37	C	1.472016	-0.739288	0.302479
C38	C	1.430925	-0.775669	1.125428
C39	C	1.415944	-0.788914	1.243575
H40	H	1.342048	-1.381809	0.836582
C41	C	1.305296	-1.345774	0.527322
C42	C	1.324647	-1.398614	0.439469
C43	C	1.230750	-1.416470	0.398008
H44	H	1.269767	-1.388904	0.577358
H45	H	1.264008	-1.278903	0.508736
H46	H	1.365918	-1.465474	0.458057
H47	H	1.360161	-1.355501	0.389410
H48	H	1.189462	-1.349599	0.379422
H49	H	1.195228	-1.459598	0.448051
H50	H	1.243866	-1.452315	0.338390
H51	H	1.004781	-0.659337	0.576608
C52	C	1.337057	-0.858641	1.292742
C53	C	1.288220	-0.901830	1.215498
C54	C	1.215536	-0.966055	1.260751
H55	H	1.370992	-0.915290	1.339625
H56	H	1.286931	-0.816250	1.328942
H57	H	1.338338	-0.944219	1.179315
H58	H	1.254264	-0.845206	1.168610
H59	H	1.165410	-0.923664	1.296951
H60	H	1.249479	-1.022698	1.307634
H61	H	1.182384	-0.995359	1.208348
C62	C	1.230394	-1.363850	0.715878
C63	C	1.229918	-1.475039	0.720942
C64	C	1.134406	-1.496414	0.686139
H65	H	1.176711	-1.335045	0.758299
H66	H	1.219619	-1.331743	0.646398
H67	H	1.240682	-1.507134	0.790410
H68	H	1.283580	-1.503869	0.678519
H69	H	1.123630	-1.464306	0.616659
H70	H	1.080730	-1.467603	0.728563
H71	H	1.134073	-1.571856	0.689561
C72	C	1.550778	-0.669629	1.252922
C73	C	1.549993	-0.670351	1.145592
C74	C	1.622533	-0.606196	1.099906
H75	H	1.533602	-0.598130	1.268475
H76	H	1.617703	-0.697135	1.279175
H77	H	1.483083	-0.642841	1.119348
H78	H	1.567180	-0.741834	1.130010
H79	H	1.689458	-0.633701	1.126159
H80	H	1.605351	-0.534701	1.115466
H81	H	1.622017	-0.606685	1.027080
H82	H	1.020037	-0.858655	0.750496
H83	H	0.827756	-0.706302	0.617582
H84	H	0.843003	-0.905637	0.791489
C85	C	1.491315	-1.367232	0.499692
C86	C	1.542375	-1.281529	0.455643
C87	C	1.619805	-1.319103	0.388741
H88	H	1.539478	-1.419937	0.537321
H89	H	1.461032	-1.398137	0.446546
H90	H	1.572657	-1.250641	0.508782
H91	H	1.494239	-1.228817	0.417996
H92	H	1.589523	-1.350008	0.335595
H93	H	1.667961	-1.371808	0.426377
H94	H	1.654453	-1.260959	0.358839
H95	H	1.341878	-1.199591	0.836032
H96	H	1.255418	-1.175020	0.724725
H97	H	1.471460	-1.175923	0.517982
H98	H	1.332138	-1.159066	0.537955
H99	H	1.315763	-0.877565	1.103557
H100	H	1.545671	-1.405172	0.806666
H101	H	1.490012	-0.723380	1.088392
C102	C	1.543713	-1.216869	0.838055
C103	C	1.550168	-1.313280	0.904679
C104	C	1.564778	-1.292688	1.006197
H105	H	1.605902	-1.185592	0.841950
H106	H	1.487040	-1.168788	0.857838
H107	H	1.606836	-1.361344	0.884902
H108	H	1.487987	-1.344572	0.900817
H109	H	1.508104	-1.244607	1.025980
H110	H	1.626966	-1.261409	1.010081
H111	H	1.569149	-1.358097	1.051415
H112	H	1.596830	-1.211611	0.681954
C113	C	1.617364	-1.403336	0.658305
C114	C	1.620535	-1.514699	0.660687
C115	C	1.702127	-1.553093	0.598733
H116	H	1.607143	-1.369963	0.589185
H117	H	1.680790	-1.387227	0.683799
H118	H	1.557125	-1.530799	0.635189
H119	H	1.630771	-1.548100	0.729792
H120	H	1.765552	-1.536983	0.624226
H121	H	1.691898	-1.519712	0.529617
H122	H	1.704295	-1.628656	0.600348
