data_functionalizedCrystal
_audit_creation_method	'MofGen! by Chris Wilmer'
_symmetry_space_group_name_H-M	'P1'
_symmetry_Int_Tables_number	1
_symmetry_cell_setting	triclinic
loop_
_symmetry_equiv_pos_as_xyz
  x,y,z
_cell_length_a	15.538191
_cell_length_b	23.532407
_cell_length_c	14.750779
_cell_angle_alpha	77.433997
_cell_angle_beta	97.572172
_cell_angle_gamma	65.060386
loop_
_atom_site_label
_atom_site_type_symbol
_atom_site_fract_x
_atom_site_fract_y
_atom_site_fract_z
O1	O	1.231045	-0.168713	-0.079813
O2	O	1.731045	0.331287	0.420187
O3	O	0.956168	-0.102826	-0.079822
O4	O	1.456168	0.397174	0.420178
O5	O	1.101900	-0.220390	-0.079800
O6	O	1.601900	0.279610	0.420200
O7	O	1.085313	-0.051149	-0.079835
O8	O	1.585313	0.448851	0.420165
O9	O	1.143097	-0.253621	0.079857
O10	O	1.643097	0.246379	0.579857
O11	O	0.997364	-0.136057	0.079835
O12	O	1.497364	0.363943	0.579835
O13	O	1.272242	-0.201944	0.079843
O14	O	1.772242	0.298056	0.579843
Zn15	Zn	1.141344	-0.174277	0.105188
Zn16	Zn	1.641344	0.325723	0.605188
Zn17	Zn	1.087066	-0.130493	-0.105166
Zn18	Zn	1.587066	0.369507	0.394834
O19	O	1.126510	-0.084380	0.079821
O20	O	1.626510	0.415620	0.579821
C21	C	0.941606	-0.112548	0.000006
C22	C	1.441606	0.387452	0.500006
C23	C	0.836839	-0.092014	0.000003
C24	C	1.336839	0.407986	0.500003
C25	C	0.550965	-0.296010	0.000031
C26	C	1.050965	0.203990	0.500031
C27	C	0.452517	-0.276701	0.000026
C28	C	0.952517	0.223299	0.500026
C29	C	0.429052	-0.168092	0.000004
C30	C	0.929052	0.331908	0.500004
C31	C	0.527501	-0.187393	0.000013
C32	C	1.027501	0.312607	0.500013
C33	C	0.588450	-0.251353	0.000026
C34	C	1.088450	0.248647	0.500026
C35	C	0.564986	-0.142735	0.000008
C36	C	1.064986	0.357265	0.500008
C37	C	0.663425	-0.162034	0.000012
C38	C	1.163425	0.337966	0.500012
C39	C	0.724379	-0.225990	0.000022
C40	C	1.224379	0.274010	0.500022
C41	C	0.686889	-0.270651	0.000030
C42	C	1.186889	0.229349	0.500030
C43	C	0.504034	-0.078774	-0.000012
C44	C	1.004034	0.421226	0.499988
C45	C	0.541519	-0.034116	-0.000017
C46	C	1.041519	0.465884	0.499983
C47	C	0.639961	-0.053416	-0.000006
C48	C	1.139961	0.446584	0.499994
C49	C	0.700915	-0.117373	0.000004
C50	C	1.200915	0.382627	0.500004
C51	C	0.677451	-0.008755	-0.000014
C52	C	1.177451	0.491245	0.499986
C53	C	0.775891	-0.028054	-0.000010
C54	C	1.275891	0.471946	0.499990
C55	C	0.799354	-0.136672	0.000008
C56	C	1.299354	0.363328	0.500008
C57	C	1.122077	-0.258136	0.000031
C58	C	1.622077	0.241864	0.500031
C59	C	1.120810	-0.321097	0.000038
C60	C	1.620810	0.178903	0.500038
C61	C	1.199074	-0.736103	-0.000012
C62	C	1.699074	-0.236103	0.499988
C63	C	1.197893	-0.795262	-0.000019
C64	C	1.697893	-0.295262	0.499981
O65	O	1.270448	-0.846752	-0.000052
O66	O	1.770448	-0.346752	0.499948
N67	N	1.111258	-0.800275	-0.000021
N68	N	1.611258	-0.300275	0.499979
C69	C	1.025796	-0.746122	-0.000026
C70	C	1.525796	-0.246122	0.499974
O71	O	0.951997	-0.755818	-0.000029
O72	O	1.451997	-0.255818	0.499971
C73	C	1.026976	-0.686963	-0.000025
C74	C	1.526976	-0.186963	0.499975
C75	C	1.113619	-0.681957	-0.000013
C76	C	1.613619	-0.181957	0.499987
C77	C	1.285710	-0.731095	-0.000001
C78	C	1.785710	-0.231095	0.499999
C79	C	1.286891	-0.671940	0.000008
C80	C	1.786891	-0.171940	0.500008
C81	C	1.201436	-0.617794	0.000006
C82	C	1.701436	-0.117794	0.500006
C83	C	1.114800	-0.622802	-0.000004
C84	C	1.614800	-0.122802	0.499996
C85	C	0.941513	-0.632810	-0.000037
C86	C	1.441513	-0.132810	0.499963
C87	C	0.942701	-0.573649	-0.000037
C88	C	1.442701	-0.073649	0.499963
C89	C	1.029344	-0.568643	-0.000025
C90	C	1.529344	-0.068643	0.499975
C91	C	1.030526	-0.509501	0.000003
C92	C	1.530526	-0.009501	0.500003
N93	N	1.117161	-0.504489	0.000005
N94	N	1.617161	-0.004489	0.500005
C95	C	1.202616	-0.558635	0.000007
C96	C	1.702616	-0.058635	0.500007
C97	C	1.023324	-0.870362	-0.000028
C98	C	1.523324	-0.370362	0.499972
C99	C	1.022144	-0.929521	-0.000022
C100	C	1.522144	-0.429521	0.499978
C101	C	1.194241	-0.978656	-0.000017
C102	C	1.694241	-0.478656	0.499983
C103	C	1.195421	-0.919497	-0.000017
C104	C	1.695421	-0.419497	0.499983
C105	C	1.109959	-0.865349	-0.000026
C106	C	1.609959	-0.365349	0.499974
C107	C	1.205090	-0.434404	0.000027
C108	C	1.705090	0.065596	0.500027
C109	C	1.206264	-0.375243	0.000040
C110	C	1.706264	0.124757	0.500040
C111	C	1.034167	-0.326112	0.000030
C112	C	1.534167	0.173888	0.500030
C113	C	1.032993	-0.385268	0.000022
C114	C	1.532993	0.114732	0.500022
C115	C	1.118461	-0.439415	0.000017
C116	C	1.618461	0.060585	0.500017
O117	O	0.958008	-0.457984	0.000032
O118	O	1.458008	0.042016	0.500032
O119	O	1.276399	-0.548925	-0.000002
O120	O	1.776399	-0.048925	0.499998
C121	C	1.286804	-0.192222	0.000014
C122	C	1.786804	0.307778	0.500014
C123	C	1.391568	-0.212754	0.000010
C124	C	1.891568	0.287246	0.500010
C125	C	1.106332	-0.046633	-0.000012
C126	C	1.606332	0.453367	0.499988
C127	C	1.107598	0.016329	-0.000025
C128	C	1.607598	0.516329	0.499975
N129	N	1.178395	-0.204160	0.248749
N130	N	1.678395	0.295840	0.748749
N131	N	1.050023	-0.100616	-0.248728
N132	N	1.550023	0.399384	0.251272
C133	C	0.946546	-0.017183	0.600532
C134	C	1.446546	0.482817	1.100532
C135	C	0.972516	-0.038120	0.701035
C136	C	1.472516	0.461880	1.201035
C137	C	1.101588	-0.142200	0.701018
C138	C	1.601588	0.357800	1.201018
C139	C	1.075626	-0.121272	0.600512
C140	C	1.575626	0.378728	1.100512
C141	C	0.998105	-0.058763	0.550278
C142	C	1.498105	0.441237	1.050278
C143	C	1.127185	-0.162853	0.550258
C144	C	1.627185	0.337147	1.050258
C145	C	1.101228	-0.141925	0.449762
C146	C	1.601228	0.358075	0.949762
C147	C	1.023713	-0.079417	0.399520
C148	C	1.523713	0.420583	0.899520
C149	C	0.972148	-0.037835	0.449781
C150	C	1.472148	0.462165	0.949781
C151	C	1.204710	-0.225360	0.600495
C152	C	1.704710	0.274640	1.100495
C153	C	1.256269	-0.266941	0.550240
C154	C	1.756269	0.233059	1.050240
C155	C	1.230308	-0.246015	0.449742
C156	C	1.730308	0.253985	0.949742
C157	C	1.152792	-0.183507	0.399500
C158	C	1.652792	0.316493	0.899500
C159	C	1.281872	-0.287597	0.399480
C160	C	1.781872	0.212403	0.899480
C161	C	1.255915	-0.266669	0.298984
C162	C	1.755915	0.233331	0.798984
C163	C	1.126836	-0.162579	0.299004
C164	C	1.626836	0.337421	0.799004
H165	H	0.848985	-0.188755	0.000024
H166	H	1.348985	0.311245	0.500024
H167	H	0.600595	-0.348094	0.000047
H168	H	1.100595	0.151906	0.500047
F169	F	0.412631	-0.324240	0.000044
F170	F	0.912631	0.175760	0.500044
F171	F	0.917632	0.006143	0.754513
F172	F	1.417632	0.506143	1.254513
F173	F	0.364175	-0.100022	-0.000016
F174	F	0.864175	0.399978	0.499984
H175	H	0.627810	0.043323	-0.000034
H176	H	1.127810	0.543323	0.499966
H177	H	1.225844	-0.242396	0.682325
H178	H	1.725844	0.257604	1.182325
F179	F	0.751764	-0.338728	0.000054
F180	F	1.251764	0.161272	0.500054
F181	F	1.285189	-1.036293	-0.000020
F182	F	1.785189	-0.536293	0.499980
H183	H	0.951595	-0.933593	-0.000015
H184	H	1.451595	-0.433593	0.499985
F185	F	0.849293	-0.638123	-0.000053
F186	F	1.349293	-0.138123	0.499947
F187	F	0.932358	-0.812736	-0.000030
F188	F	1.432358	-0.312736	0.499970
H189	H	0.873104	-0.529561	-0.000046
H190	H	1.373104	-0.029561	0.499954
F191	F	1.376670	-0.788716	-0.000000
F192	F	1.876670	-0.288716	0.500000
F193	F	0.815787	0.019476	-0.000017
F194	F	1.315787	0.519476	0.499983
H195	H	1.274686	-0.478484	0.000019
H196	H	1.774686	0.021516	0.500019
F197	F	1.379103	-0.666617	-0.000000
F198	F	1.879103	-0.166617	0.500000
H199	H	0.491880	0.017961	-0.000031
H200	H	0.991880	0.517961	0.499969
F201	F	0.829147	-0.246529	0.000021
F202	F	1.329147	0.253471	0.500021
H203	H	1.063704	-0.111680	0.258101
H204	H	1.563704	0.388320	0.758101
F205	F	0.399265	-0.058236	-0.000017
F206	F	0.899265	0.441764	0.499983
H207	H	0.964593	-0.282016	0.000032
H208	H	1.464593	0.217984	0.500032
H209	H	1.276823	-0.371174	0.000052
H210	H	1.776823	0.128826	0.500052
H211	H	1.265973	-0.915427	-0.000008
H212	H	1.765973	-0.415427	0.499992
F213	F	0.940783	-0.390600	0.000027
F214	F	1.440783	0.109400	0.500027
H215	H	1.297902	-0.300528	0.258066
H216	H	1.797902	0.199472	0.758066
F217	F	0.996092	-0.057143	0.292561
F218	F	1.496092	0.442857	0.792561
H219	H	0.909017	0.013064	0.408878
H220	H	1.409017	0.513064	0.908878
F221	F	1.184092	-0.208725	0.754489
F222	F	1.684092	0.291275	1.254489
F223	F	0.864030	0.049345	0.547066
F224	F	1.364030	0.549345	1.047066
F225	F	1.338773	-0.333465	0.603712
F226	F	1.838773	0.166535	1.103712
H227	H	1.344996	-0.338490	0.440395
H228	H	1.844996	0.161510	0.940395
