data_functionalizedCrystal
_audit_creation_method	'MofGen! by Chris Wilmer'
_symmetry_space_group_name_H-M	'P1'
_symmetry_Int_Tables_number	1
_symmetry_cell_setting	triclinic
loop_
_symmetry_equiv_pos_as_xyz
  x,y,z
_cell_length_a	19.077105
_cell_length_b	21.295417
_cell_length_c	19.076919
_cell_angle_alpha	87.733380
_cell_angle_beta	89.923776
_cell_angle_gamma	87.726672
loop_
_atom_site_label
_atom_site_type_symbol
_atom_site_fract_x
_atom_site_fract_y
_atom_site_fract_z
Zn1	Zn	1.058236	-0.304534	0.440387
Zn2	Zn	1.391569	0.028799	0.773720
Zn3	Zn	1.724902	0.362132	1.107054
Zn4	Zn	1.062864	-0.405747	0.322870
Zn5	Zn	1.396197	-0.072414	0.656204
Zn6	Zn	1.729531	0.260919	0.989537
Zn7	Zn	0.945454	-0.296102	0.318181
Zn8	Zn	1.278788	0.037232	0.651515
Zn9	Zn	1.612121	0.370565	0.984848
Zn10	Zn	0.940686	-0.405368	0.435623
Zn11	Zn	1.274019	-0.072034	0.768956
Zn12	Zn	1.607352	0.261299	1.102289
O13	O	1.001810	-0.352938	0.379265
O14	O	1.335143	-0.019605	0.712599
O15	O	1.668477	0.313729	1.045932
O16	O	1.157181	-0.321649	0.428754
O17	O	1.490514	0.011685	0.762088
O18	O	1.823848	0.345018	1.095421
O19	O	1.051222	-0.387832	0.223917
O20	O	1.384555	-0.054499	0.557251
O21	O	1.717889	0.278834	0.890584
O22	O	0.960474	-0.209134	0.334424
O23	O	1.293807	0.124199	0.667757
O24	O	1.627140	0.457532	1.001091
O25	O	1.160581	-0.396009	0.342415
O26	O	1.493915	-0.062676	0.675749
O27	O	1.827248	0.270657	1.009082
O28	O	1.043334	-0.215330	0.424208
O29	O	1.376667	0.118004	0.757541
O30	O	1.710000	0.451337	1.090875
O31	O	0.964962	-0.307276	0.220472
O32	O	1.298295	0.026057	0.553806
O33	O	1.631628	0.359390	0.887139
O34	O	0.846490	-0.306908	0.329804
O35	O	1.179824	0.026425	0.663137
O36	O	1.513157	0.359758	0.996471
O37	O	0.952346	-0.395362	0.534586
O38	O	1.285680	-0.062029	0.867919
O39	O	1.619013	0.271304	1.201252
O40	O	0.842987	-0.387185	0.416088
O41	O	1.176320	-0.053852	0.749421
O42	O	1.509654	0.279481	1.082754
O43	O	1.038710	-0.321280	0.538086
O44	O	1.372043	0.012053	0.871419
O45	O	1.705376	0.345386	1.204753
O46	O	1.046598	-0.493783	0.337795
O47	O	1.379931	-0.160450	0.671129
O48	O	1.713265	0.172883	1.004462
O49	O	0.956834	-0.493504	0.420634
O50	O	1.290168	-0.160171	0.753968
O51	O	1.623501	0.173162	1.087301
C52	C	0.819242	-0.346091	0.371921
C53	C	1.152576	-0.012758	0.705254
C54	C	1.485909	0.320576	1.038587
C55	C	0.741139	-0.343178	0.368795
C56	C	1.074472	-0.009844	0.702128
C57	C	1.407805	0.323489	1.035462
C58	C	0.702642	-0.383663	0.412179
C59	C	1.035976	-0.050330	0.745513
C60	C	1.369309	0.283003	1.078846
C61	C	0.629255	-0.380918	0.409246
C62	C	0.962589	-0.047584	0.742579
C63	C	1.295922	0.285749	1.075913
C64	C	0.594366	-0.337689	0.362924
C65	C	0.927699	-0.004356	0.696258
C66	C	1.261033	0.328978	1.029591
C67	C	0.632868	-0.297199	0.319538
C68	C	0.966201	0.036134	0.652872
C69	C	1.299534	0.369468	0.986205
C70	C	0.706253	-0.299942	0.322476
C71	C	1.039586	0.033391	0.655809
C72	C	1.372920	0.366725	0.989142
C73	C	0.375080	-0.324994	0.349333
C74	C	0.708414	0.008339	0.682666
C75	C	1.041747	0.341672	1.016000
C76	C	0.301690	-0.322256	0.346397
C77	C	0.635023	0.011078	0.679731
C78	C	0.968356	0.344411	1.013064
C79	C	0.298082	-0.405974	0.436106
C80	C	0.631416	-0.072640	0.769440
C81	C	0.964749	0.260693	1.102773
C82	C	0.371470	-0.408715	0.439037
C83	C	0.704803	-0.075382	0.772370
C84	C	1.038136	0.257951	1.105703
C85	C	0.409965	-0.368223	0.395653
C86	C	0.743298	-0.034890	0.728987
C87	C	1.076631	0.298443	1.062320
N88	N	0.519353	-0.334883	0.359923
N89	N	0.852686	-0.001550	0.693257
N90	N	1.186020	0.331784	1.026590
N91	N	0.484976	-0.371027	0.398658
N92	N	0.818310	-0.037693	0.731992
N93	N	1.151643	0.295640	1.065325
C94	C	1.001719	-0.516485	0.379223
C95	C	1.335053	-0.183151	0.712556
C96	C	1.668386	0.150182	1.045889
C97	C	1.001744	-0.586454	0.379231
C98	C	1.335077	-0.253121	0.712564
C99	C	1.668411	0.080213	1.045897
C100	C	1.048522	-0.619448	0.336144
C101	C	1.381855	-0.286115	0.669477
C102	C	1.715189	0.047219	1.002811
C103	C	1.048554	-0.685192	0.336161
C104	C	1.381888	-0.351859	0.669495
C105	C	1.715221	-0.018526	1.002828
C106	C	1.001796	-0.717939	0.379257
C107	C	1.335130	-0.384606	0.712590
C108	C	1.668463	-0.051273	1.045924
C109	C	0.955015	-0.684937	0.422352
C110	C	1.288348	-0.351604	0.755685
C111	C	1.621681	-0.018271	1.089019
C112	C	0.954989	-0.619195	0.422339
C113	C	1.288322	-0.285862	0.755672
C114	C	1.621655	0.047472	1.089006
N115	N	0.940111	-0.819089	0.382141
N116	N	1.273444	-0.485755	0.715474
N117	N	1.606777	-0.152422	1.048807
N118	N	0.940138	-0.881541	0.382149
N119	N	1.273471	-0.548208	0.715483
N120	N	1.606804	-0.214875	1.048816
C121	C	1.001873	-0.916018	0.379300
C122	C	1.335207	-0.582685	0.712634
C123	C	1.668540	-0.249352	1.045967
N124	N	1.063583	-0.885683	0.376429
N125	N	1.396916	-0.552350	0.709762
N126	N	1.730250	-0.219016	1.043096
N127	N	1.063555	-0.823224	0.376417
N128	N	1.396888	-0.489891	0.709750
N129	N	1.730222	-0.156558	1.043084
C130	C	1.001820	-0.789226	0.379276
C131	C	1.335153	-0.455893	0.712610
C132	C	1.668486	-0.122560	1.045943
C133	C	1.048690	-1.020300	0.336230
C134	C	1.382024	-0.686967	0.669564
C135	C	1.715357	-0.353633	1.002897
C136	C	1.048724	-1.086046	0.336252
C137	C	1.382057	-0.752712	0.669586
C138	C	1.715390	-0.419379	1.002919
C139	C	0.955178	-1.085789	0.422439
C140	C	1.288511	-0.752456	0.755773
C141	C	1.621845	-0.419122	1.089106
C142	C	0.955151	-1.020045	0.422421
C143	C	1.288484	-0.686712	0.755755
C144	C	1.621817	-0.353378	1.089088
C145	C	1.001906	-0.987304	0.379313
C146	C	1.335240	-0.653971	0.712646
C147	C	1.668573	-0.320638	1.045979
C148	C	1.185090	-0.359812	0.386639
C149	C	1.518424	-0.026479	0.719973
C150	C	1.851757	0.306855	1.053306
C151	C	1.263193	-0.362741	0.389782
C152	C	1.596527	-0.029408	0.723115
C153	C	1.929860	0.303925	1.056448
C154	C	0.994480	-0.359220	0.562545
C155	C	1.327813	-0.025886	0.895878
C156	C	1.661146	0.307447	1.229212
C157	C	0.991356	-0.361897	0.640648
C158	C	1.324689	-0.028563	0.973981
C159	C	1.658023	0.304770	1.307314
C160	C	1.001919	-0.188754	0.379324
C161	C	1.335253	0.144580	0.712658
C162	C	1.668586	0.477913	1.045991
C163	C	1.001966	-0.118788	0.379349
C164	C	1.335299	0.214545	0.712683
C165	C	1.668633	0.547879	1.046016
C166	C	1.009152	-0.346637	0.196700
C167	C	1.342485	-0.013303	0.530034
C168	C	1.675819	0.320030	0.863367
C169	C	1.012412	-0.343787	0.118604
C170	C	1.345745	-0.010454	0.451937
C171	C	1.679079	0.322879	0.785270
C172	C	1.034851	-0.324586	0.679164
C173	C	1.368184	0.008748	1.012497
C174	C	1.701518	0.342081	1.345831
C175	C	1.031907	-0.327098	0.752550
C176	C	1.365241	0.006235	1.085883
C177	C	1.698574	0.339569	1.419216
C178	C	0.985472	-0.366925	0.787418
C179	C	1.318805	-0.033592	1.120751
C180	C	1.652139	0.299741	1.454084
C181	C	0.941972	-0.404238	0.748896
C182	C	1.275306	-0.070905	1.082229
C183	C	1.608639	0.262429	1.415563
C184	C	0.944913	-0.401722	0.675512
C185	C	1.278246	-0.068388	1.008845
C186	C	1.611579	0.264945	1.342178
C187	C	0.971853	-0.378584	1.006698
C188	C	1.305186	-0.045250	1.340031
C189	C	1.638519	0.288083	1.673364
C190	C	0.968917	-0.381099	1.080087
C191	C	1.302250	-0.047765	1.413421
C192	C	1.635584	0.285568	1.746754
C193	C	1.058852	-0.303958	1.083736
C194	C	1.392185	0.029376	1.417069
C195	C	1.725518	0.362709	1.750402
C196	C	1.061791	-0.301448	1.010350
C197	C	1.395124	0.031886	1.343683
C198	C	1.728458	0.365219	1.677017
C199	C	1.018289	-0.338758	0.971835
C200	C	1.351622	-0.005424	1.305168
C201	C	1.684955	0.327909	1.638501
N202	N	0.982464	-0.369496	0.862429
N203	N	1.315797	-0.036163	1.195763
N204	N	1.649130	0.297171	1.529096
N205	N	1.021294	-0.336183	0.896824
N206	N	1.354627	-0.002850	1.230157
N207	N	1.687961	0.330483	1.563491
H208	H	0.737596	-0.266971	0.287151
H209	H	1.070929	0.066362	0.620484
H210	H	1.404262	0.399695	0.953818
N211	N	0.904746	-1.121106	0.468917
N212	N	1.238079	-0.787773	0.802250
N213	N	1.571413	-0.454440	1.135584
H214	H	0.854982	-1.107456	0.455940
H215	H	1.188315	-0.774123	0.789273
H216	H	1.521649	-0.440790	1.122606
H217	H	0.913663	-1.111753	0.519552
H218	H	1.246997	-0.778420	0.852885
H219	H	1.580330	-0.445087	1.186218
H220	H	0.916895	-0.592330	0.457426
H221	H	1.250229	-0.258997	0.790759
H222	H	1.583562	0.074336	1.124093
H223	H	0.931101	-0.413532	1.108474
H224	H	1.264435	-0.080199	1.441808
H225	H	1.597768	0.253135	1.775141
N226	N	1.098998	-0.720786	0.289673
N227	N	1.432331	-0.387453	0.623006
N228	N	1.765664	-0.054120	0.956339
H229	H	1.091915	-0.767402	0.296220
H230	H	1.425248	-0.434069	0.629553
H231	H	1.758582	-0.100735	0.962887
H232	H	1.148736	-0.711511	0.302653
H233	H	1.482069	-0.378178	0.635986
H234	H	1.815402	-0.044845	0.969319
N235	N	0.904692	-0.984453	0.468888
N236	N	1.238025	-0.651120	0.802221
N237	N	1.571359	-0.317786	1.135555
H238	H	0.875074	-1.015172	0.496192
H239	H	1.208407	-0.681839	0.829525
H240	H	1.541740	-0.348506	1.162858
H241	H	0.873332	-0.955018	0.438943
H242	H	1.206665	-0.621684	0.772276
H243	H	1.539999	-0.288351	1.105610
N244	N	1.084940	-0.281633	0.641559
N245	N	1.418273	0.051700	0.974892
N246	N	1.751607	0.385034	1.308226
H247	H	1.112046	-0.258377	0.677098
H248	H	1.445379	0.074956	1.010431
H249	H	1.778713	0.408289	1.343764
H250	H	1.057578	-0.250385	0.609969
H251	H	1.390911	0.082948	0.943302
H252	H	1.724245	0.416281	1.276635
H253	H	1.086764	-0.993641	0.301131
H254	H	1.420097	-0.660308	0.634464
H255	H	1.753430	-0.326975	0.967798
H256	H	1.086820	-1.112908	0.301168
H257	H	1.420154	-0.779575	0.634501
H258	H	1.753487	-0.446242	0.967834
H259	H	0.399871	-0.443918	0.476755
H260	H	0.733205	-0.110585	0.810088
H261	H	1.066538	0.222749	1.143422
N262	N	0.740271	-0.430293	0.462136
N263	N	1.073604	-0.096960	0.795469
N264	N	1.406937	0.236374	1.128803
H265	H	0.704745	-0.455523	0.489175
H266	H	1.038078	-0.122189	0.822508
H267	H	1.371411	0.211144	1.155842
H268	H	0.769438	-0.406971	0.495927
H269	H	1.102771	-0.073638	0.829261
H270	H	1.436104	0.259696	1.162594
N271	N	0.256564	-0.449645	0.482896
N272	N	0.589897	-0.116312	0.816230
N273	N	0.923231	0.217022	1.149563
H274	H	0.204780	-0.441350	0.474009
H275	H	0.538114	-0.108017	0.807342
H276	H	0.871447	0.225317	1.140676
H277	H	0.267400	-0.442118	0.533615
H278	H	0.600733	-0.108784	0.866948
H279	H	0.934067	0.224549	1.200282
N280	N	0.898006	-0.441965	0.633961
N281	N	1.231340	-0.108632	0.967294
N282	N	1.564673	0.224701	1.300628
H283	H	0.866682	-0.414116	0.602213
H284	H	1.200015	-0.080782	0.935546
H285	H	1.533348	0.252551	1.268879
H286	H	0.868188	-0.467575	0.667226
H287	H	1.201521	-0.134242	1.000559
H288	H	1.534854	0.199091	1.333893
H289	H	0.597915	-0.413886	0.444573
H290	H	0.931248	-0.080553	0.777907
H291	H	1.264582	0.252781	1.111240
H292	H	0.273285	-0.287047	0.308681
H293	H	0.606618	0.046287	0.642014
H294	H	0.939952	0.379620	0.975348
N295	N	1.078806	-0.286843	0.794093
N296	N	1.412139	0.046491	1.127426
N297	N	1.745472	0.379824	1.460759
H298	H	1.108667	-0.261230	0.760868
H299	H	1.442001	0.072104	1.094202
H300	H	1.775334	0.405437	1.427535
H301	H	1.110089	-0.314719	0.825851
H302	H	1.443422	0.018615	1.159184
H303	H	1.776756	0.351948	1.492517
H304	H	1.099606	-0.269018	0.981966
H305	H	1.432939	0.064316	1.315299
H306	H	1.766272	0.397649	1.648632
H307	H	1.086595	-0.592792	0.301045
H308	H	1.419928	-0.259459	0.634378
H309	H	1.753261	0.073874	0.967711
H310	H	0.904161	-0.436664	0.777291
H311	H	1.237494	-0.103330	1.110625
H312	H	1.570828	0.230003	1.443958
H313	H	1.094268	-0.273581	1.115103
H314	H	1.427601	0.059752	1.448436
H315	H	1.760934	0.393086	1.781769
N316	N	0.416594	-0.281313	0.302554
N317	N	0.749927	0.052020	0.635887
N318	N	1.083261	0.385353	0.969221
H319	H	0.383354	-0.253512	0.272767
H320	H	0.716687	0.079821	0.606100
H321	H	1.050021	0.413155	0.939434
H322	H	0.448333	-0.306900	0.271196
H323	H	0.781667	0.026434	0.604529
H324	H	1.115000	0.359767	0.937863
N325	N	0.924912	-0.418802	0.965160
N326	N	1.258245	-0.085468	1.298494
N327	N	1.591578	0.247865	1.631827
H328	H	0.895045	-0.444407	0.998386
H329	H	1.228378	-0.111074	1.331720
H330	H	1.561711	0.222259	1.665053
H331	H	0.954689	-0.447968	0.935838
H332	H	1.288022	-0.114635	1.269172
H333	H	1.621355	0.218699	1.602505
H334	H	0.604455	-0.261999	0.281825
H335	H	0.937788	0.071334	0.615158
H336	H	1.271121	0.404668	0.948492
N337	N	0.904584	-0.720253	0.468837
N338	N	1.237917	-0.386920	0.802170
N339	N	1.571251	-0.053586	1.135504
H340	H	0.911697	-0.766908	0.462306
H341	H	1.245030	-0.433574	0.795639
H342	H	1.578363	-0.100241	1.128972
H343	H	0.854843	-0.706550	0.455839
H344	H	1.188176	-0.373216	0.789173
H345	H	1.521509	-0.039883	1.122506
