data_functionalizedCrystal
_audit_creation_method	'MofGen! by Chris Wilmer'
_symmetry_space_group_name_H-M	'P1'
_symmetry_Int_Tables_number	1
_symmetry_cell_setting	triclinic
loop_
_symmetry_equiv_pos_as_xyz
  x,y,z
_cell_length_a	19.121063
_cell_length_b	19.077241
_cell_length_c	19.121242
_cell_angle_alpha	85.148886
_cell_angle_beta	85.049781
_cell_angle_gamma	85.144908
loop_
_atom_site_label
_atom_site_type_symbol
_atom_site_fract_x
_atom_site_fract_y
_atom_site_fract_z
Zn1	Zn	-0.255515	-1.084325	0.451571
Zn2	Zn	-0.005515	-0.834325	0.701571
Zn3	Zn	0.244485	-0.584325	0.951571
Zn4	Zn	0.494485	-0.334325	1.201571
Zn5	Zn	-0.368540	-1.074582	0.338545
Zn6	Zn	-0.118540	-0.824582	0.588545
Zn7	Zn	0.131460	-0.574582	0.838545
Zn8	Zn	0.381460	-0.324582	1.088545
Zn9	Zn	-0.255233	-0.961419	0.329185
Zn10	Zn	-0.005233	-0.711419	0.579185
Zn11	Zn	0.244767	-0.461419	0.829185
Zn12	Zn	0.494767	-0.211419	1.079185
Zn13	Zn	-0.377857	-0.961366	0.451802
Zn14	Zn	-0.127857	-0.711366	0.701802
Zn15	Zn	0.122143	-0.461366	0.951802
Zn16	Zn	0.372143	-0.211366	1.201802
O17	O	-0.314286	-1.020423	0.392776
O18	O	-0.064286	-0.770423	0.642776
O19	O	0.185714	-0.520423	0.892776
O20	O	0.435714	-0.270423	1.142776
O21	O	-0.266727	-1.181851	0.440398
O22	O	-0.016727	-0.931851	0.690398
O23	O	0.233273	-0.681851	0.940398
O24	O	0.483273	-0.431851	1.190398
O25	O	-0.349492	-1.055516	0.238687
O26	O	-0.099492	-0.805516	0.488687
O27	O	0.150508	-0.555516	0.738687
O28	O	0.400508	-0.305516	0.988687
O29	O	-0.156651	-0.981823	0.341406
O30	O	0.093349	-0.731823	0.591406
O31	O	0.343349	-0.481823	0.841406
O32	O	0.593349	-0.231823	1.091406
O33	O	-0.349765	-1.174693	0.357359
O34	O	-0.099765	-0.924693	0.607359
O35	O	0.150235	-0.674693	0.857359
O36	O	0.400235	-0.424693	1.107359
O37	O	-0.156858	-1.072121	0.431322
O38	O	0.093142	-0.822121	0.681322
O39	O	0.343142	-0.572121	0.931322
O40	O	0.593142	-0.322121	1.181322
O41	O	-0.266246	-0.972375	0.231810
O42	O	-0.016246	-0.722375	0.481810
O43	O	0.233754	-0.472375	0.731810
O44	O	0.483754	-0.222375	0.981810
O45	O	-0.275281	-0.862594	0.341630
O46	O	-0.025281	-0.612594	0.591630
O47	O	0.224719	-0.362594	0.841630
O48	O	0.474719	-0.112594	1.091630
O49	O	-0.365646	-0.981732	0.550388
O50	O	-0.115646	-0.731732	0.800388
O51	O	0.134354	-0.481732	1.050388
O52	O	0.384354	-0.231732	1.300388
O53	O	-0.365372	-0.862555	0.431716
O54	O	-0.115372	-0.612555	0.681716
O55	O	0.134628	-0.362555	0.931716
O56	O	0.384628	-0.112555	1.181716
O57	O	-0.275761	-1.072069	0.550218
O58	O	-0.025761	-0.822069	0.800218
O59	O	0.224239	-0.572069	1.050218
O60	O	0.474239	-0.322069	1.300218
O61	O	-0.468396	-1.055464	0.357583
O62	O	-0.218396	-0.805464	0.607583
O63	O	0.031604	-0.555464	0.857583
O64	O	0.281604	-0.305464	1.107583
O65	O	-0.475241	-0.972284	0.440792
O66	O	-0.225241	-0.722284	0.690792
O67	O	0.024759	-0.472284	0.940792
O68	O	0.274759	-0.222284	1.190792
C69	C	-0.321308	-0.836952	0.385683
C70	C	-0.071308	-0.586952	0.635683
C71	C	0.178692	-0.336952	0.885683
C72	C	0.428692	-0.086952	1.135683
C73	C	-0.324329	-0.758462	0.382666
C74	C	-0.074329	-0.508462	0.632666
C75	C	0.175671	-0.258462	0.882666
C76	C	0.425671	-0.008462	1.132666
C77	C	-0.282589	-0.725315	0.424554
C78	C	-0.032589	-0.475315	0.674554
C79	C	0.217411	-0.225315	0.924554
C80	C	0.467411	0.024685	1.174554
C81	C	-0.285424	-0.651565	0.421714
C82	C	-0.035424	-0.401565	0.671714
C83	C	0.214576	-0.151565	0.921714
C84	C	0.464576	0.098435	1.171714
C85	C	-0.330004	-0.610964	0.376987
C86	C	-0.080004	-0.360964	0.626987
C87	C	0.169996	-0.110964	0.876987
C88	C	0.419996	0.139036	1.126987
C89	C	-0.371745	-0.644116	0.335094
C90	C	-0.121745	-0.394116	0.585094
C91	C	0.128255	-0.144116	0.835094
C92	C	0.378255	0.105884	1.085094
C93	C	-0.368906	-0.717865	0.337932
C94	C	-0.118906	-0.467865	0.587932
C95	C	0.131094	-0.217865	0.837932
C96	C	0.381094	0.032135	1.087932
C97	C	-0.343120	-0.390000	0.363853
C98	C	-0.093120	-0.140000	0.613853
C99	C	0.156880	0.110000	0.863853
C100	C	0.406880	0.360000	1.113853
C101	C	-0.345958	-0.316247	0.361020
C102	C	-0.095958	-0.066247	0.611020
C103	C	0.154042	0.183753	0.861020
C104	C	0.404042	0.433753	1.111020
C105	C	-0.259636	-0.323701	0.447639
C106	C	-0.009636	-0.073701	0.697639
C107	C	0.240364	0.176299	0.947639
C108	C	0.490364	0.426299	1.197639
C109	C	-0.256804	-0.397451	0.450476
C110	C	-0.006804	-0.147451	0.700476
C111	C	0.243196	0.102549	0.950476
C112	C	0.493196	0.352549	1.200476
C113	C	-0.298542	-0.430596	0.408580
C114	C	-0.048542	-0.180596	0.658580
C115	C	0.201458	0.069404	0.908580
C116	C	0.451458	0.319404	1.158580
N117	N	-0.332905	-0.535580	0.374084
N118	N	-0.082905	-0.285580	0.624084
N119	N	0.167095	-0.035580	0.874084
N120	N	0.417095	0.214420	1.124084
N121	N	-0.295637	-0.505979	0.411480
N122	N	-0.045637	-0.255979	0.661480
N123	N	0.204363	-0.005979	0.911480
N124	N	0.454363	0.244021	1.161480
C125	C	-0.497389	-1.012831	0.400245
C126	C	-0.247389	-0.762831	0.650245
C127	C	0.002611	-0.512831	0.900245
C128	C	0.252611	-0.262831	1.150245
C129	C	-0.575720	-1.009648	0.403466
C130	C	-0.325720	-0.759648	0.653466
C131	C	-0.075720	-0.509648	0.903466
C132	C	0.174280	-0.259648	1.153466
C133	C	-0.608933	-1.051497	0.361696
C134	C	-0.358933	-0.801497	0.611696
C135	C	-0.108933	-0.551497	0.861696
C136	C	0.141067	-0.301497	1.111696
C137	C	-0.682533	-1.048508	0.364729
C138	C	-0.432533	-0.798508	0.614729
C139	C	-0.182533	-0.548508	0.864729
C140	C	0.067467	-0.298508	1.114729
C141	C	-0.722919	-1.003666	0.409531
C142	C	-0.472919	-0.753666	0.659531
C143	C	-0.222919	-0.503666	0.909531
C144	C	0.027081	-0.253666	1.159531
C145	C	-0.689701	-0.961816	0.451306
C146	C	-0.439701	-0.711816	0.701306
C147	C	-0.189701	-0.461816	0.951306
C148	C	0.060299	-0.211816	1.201306
C149	C	-0.616102	-0.964809	0.448275
C150	C	-0.366102	-0.714809	0.698275
C151	C	-0.116102	-0.464809	0.948275
C152	C	0.133898	-0.214809	1.198275
C153	C	-0.945320	-0.992464	0.420850
C154	C	-0.695320	-0.742464	0.670850
C155	C	-0.445320	-0.492464	0.920850
C156	C	-0.195320	-0.242464	1.170850
C157	C	-1.018923	-0.989473	0.423876
C158	C	-0.768923	-0.739473	0.673876
C159	C	-0.518923	-0.489473	0.923876
C160	C	-0.268923	-0.239473	1.173876
C161	C	-1.011750	-1.076166	0.337300
C162	C	-0.761750	-0.826166	0.587300
C163	C	-0.511750	-0.576166	0.837300
C164	C	-0.261750	-0.326166	1.087300
C165	C	-0.938150	-1.079152	0.334271
C166	C	-0.688150	-0.829152	0.584271
C167	C	-0.438150	-0.579152	0.834271
C168	C	-0.188150	-0.329152	1.084271
C169	C	-0.904939	-1.037305	0.376048
C170	C	-0.654939	-0.787305	0.626048
C171	C	-0.404939	-0.537305	0.876048
C172	C	-0.154939	-0.287305	1.126048
C173	C	-0.798150	-1.000608	0.412631
C174	C	-0.548150	-0.750608	0.662631
C175	C	-0.298150	-0.500608	0.912631
C176	C	-0.048150	-0.250608	1.162631
C177	C	-0.829708	-1.040366	0.372951
C178	C	-0.579708	-0.790366	0.622951
C179	C	-0.329708	-0.540366	0.872951
C180	C	-0.079708	-0.290366	1.122951
C181	C	-0.130468	-1.028065	0.385294
C182	C	0.119532	-0.778065	0.635294
C183	C	0.369532	-0.528065	0.885294
C184	C	0.619532	-0.278065	1.135294
C185	C	-0.052136	-1.031322	0.382106
C186	C	0.197864	-0.781322	0.632106
C187	C	0.447864	-0.531322	0.882106
C188	C	0.697864	-0.281322	1.132106
C189	C	-0.321774	-1.027981	0.576588
C190	C	-0.071774	-0.777981	0.826588
C191	C	0.178226	-0.527981	1.076588
C192	C	0.428226	-0.277981	1.326588
C193	C	-0.324965	-1.031202	0.654918
C194	C	-0.074965	-0.781202	0.904918
C195	C	0.175035	-0.531202	1.154918
C196	C	0.425035	-0.281202	1.404918
C197	C	-0.307234	-0.204611	0.399891
C198	C	-0.057234	0.045389	0.649891
C199	C	0.192766	0.295389	0.899891
C200	C	0.442766	0.545389	1.149891
C201	C	-0.304218	-0.283100	0.402909
C202	C	-0.054218	-0.033100	0.652909
C203	C	0.195782	0.216900	0.902909
C204	C	0.445782	0.466900	1.152909
C205	C	-0.306775	-1.012937	0.209678
C206	C	-0.056775	-0.762937	0.459678
C207	C	0.193225	-0.512937	0.709678
C208	C	0.443225	-0.262937	0.959678
C209	C	-0.303380	-1.009861	0.131345
C210	C	-0.053380	-0.759861	0.381345
C211	C	0.196620	-0.509861	0.631345
C212	C	0.446620	-0.259861	0.881345
C213	C	-0.345220	-1.051628	1.098119
C214	C	-0.095220	-0.801628	1.348119
C215	C	0.154780	-0.551628	1.598119
C216	C	0.404780	-0.301628	1.848119
C217	C	-0.342218	-1.048592	1.024520
C218	C	-0.092218	-0.798592	1.274520
C219	C	0.157782	-0.548592	1.524520
C220	C	0.407782	-0.298592	1.774520
C221	C	-0.297372	-1.003791	0.984147
C222	C	-0.047372	-0.753791	1.234147
C223	C	0.202628	-0.503791	1.484147
C224	C	0.452628	-0.253791	1.734147
C225	C	-0.255531	-0.962019	1.017378
C226	C	-0.005531	-0.712019	1.267378
C227	C	0.244469	-0.462019	1.517378
C228	C	0.494469	-0.212019	1.767378
C229	C	-0.258537	-0.965052	1.090976
C230	C	-0.008537	-0.715052	1.340976
C231	C	0.241463	-0.465052	1.590976
C232	C	0.491463	-0.215052	1.840976
C233	C	-0.286130	-0.992464	0.761748
C234	C	-0.036130	-0.742464	1.011748
C235	C	0.213870	-0.492464	1.261748
C236	C	0.463870	-0.242464	1.511748
C237	C	-0.283125	-0.989435	0.688144
C238	C	-0.033125	-0.739435	0.938144
C239	C	0.216875	-0.489435	1.188144
C240	C	0.466875	-0.239435	1.438144
C241	C	-0.369814	-1.076007	0.695291
C242	C	-0.119814	-0.826007	0.945291
C243	C	0.130186	-0.576007	1.195291
C244	C	0.380186	-0.326007	1.445291
C245	C	-0.372813	-1.079039	0.768891
C246	C	-0.122813	-0.829039	1.018891
C247	C	0.127187	-0.579039	1.268891
C248	C	0.377187	-0.329039	1.518891
C249	C	-0.330975	-1.037265	0.802115
C250	C	-0.080975	-0.787265	1.052115
C251	C	0.169025	-0.537265	1.302115
C252	C	0.419025	-0.287265	1.552115
C253	C	-0.294301	-1.000688	0.908916
C254	C	-0.044301	-0.750688	1.158916
C255	C	0.205699	-0.500688	1.408916
C256	C	0.455699	-0.250688	1.658916
C257	C	-0.334050	-1.040365	0.877345
C258	C	-0.084050	-0.790365	1.127345
C259	C	0.165950	-0.540365	1.377345
C260	C	0.415950	-0.290365	1.627345
H261	H	-0.251436	-0.624580	0.455825
H262	H	-0.001436	-0.374580	0.705825
H263	H	0.248564	-0.124580	0.955825
H264	H	0.498564	0.125420	1.205825
H265	H	-0.722590	-0.925308	0.487787
H266	H	-0.472590	-0.675308	0.737787
H267	H	-0.222590	-0.425308	0.987787
H268	H	0.027410	-0.175308	1.237787
Cl269	Cl	-0.848927	-0.944237	0.468950
Cl270	Cl	-0.598927	-0.694237	0.718950
Cl271	Cl	-0.348927	-0.444237	0.968950
Cl272	Cl	-0.098927	-0.194237	1.218950
H273	H	-0.589062	-0.930732	0.482290
H274	H	-0.339062	-0.680732	0.732290
H275	H	-0.089062	-0.430732	0.982290
H276	H	0.160938	-0.180732	1.232290
Cl277	Cl	-1.053505	-1.128776	0.284788
Cl278	Cl	-0.803505	-0.878776	0.534788
Cl279	Cl	-0.553505	-0.628776	0.784788
Cl280	Cl	-0.303505	-0.378776	1.034788
Cl281	Cl	-1.069694	-0.933087	0.480192
Cl282	Cl	-0.819694	-0.683087	0.730192
Cl283	Cl	-0.569694	-0.433087	0.980192
Cl284	Cl	-0.319694	-0.183087	1.230192
H285	H	-0.576055	-1.088008	0.325211
H286	H	-0.326055	-0.838008	0.575211
H287	H	-0.076055	-0.588008	0.825211
H288	H	0.173945	-0.338008	1.075211
H289	H	-0.246289	-0.758367	0.460977
H290	H	0.003711	-0.508367	0.710977
H291	H	0.253711	-0.258367	0.960977
H292	H	0.503711	-0.008367	1.210977
Cl293	Cl	-0.233565	-0.939913	0.803506
Cl294	Cl	0.016435	-0.689913	1.053506
Cl295	Cl	0.266435	-0.439913	1.303506
Cl296	Cl	0.516435	-0.189913	1.553506
H297	H	-0.905268	-1.115666	0.297790
H298	H	-0.655268	-0.865666	0.547790
H299	H	-0.405268	-0.615666	0.797790
H300	H	-0.155268	-0.365666	1.047790
H301	H	-0.409333	-1.115520	0.801758
H302	H	-0.159333	-0.865520	1.051758
H303	H	0.090667	-0.615520	1.301758
H304	H	0.340667	-0.365520	1.551758
H305	H	-0.709571	-1.082585	0.330715
H306	H	-0.459571	-0.832585	0.580715
H307	H	-0.209571	-0.582585	0.830715
H308	H	0.040429	-0.332585	1.080715
H309	H	-0.246601	-0.952954	0.655274
H310	H	0.003399	-0.702954	0.905274
H311	H	0.253399	-0.452954	1.155274
H312	H	0.503399	-0.202954	1.405274
H313	H	-0.220505	-0.430504	0.486899
H314	H	0.029495	-0.180504	0.736899
H315	H	0.279495	0.069496	0.986899
H316	H	0.529495	0.319496	1.236899
H317	H	-0.403878	-1.110017	0.668232
H318	H	-0.153878	-0.860017	0.918232
H319	H	0.096122	-0.610017	1.168232
H320	H	0.346122	-0.360017	1.418232
H321	H	-0.219019	-0.925538	0.984501
H322	H	0.030981	-0.675538	1.234501
H323	H	0.280981	-0.425538	1.484501
H324	H	0.530981	-0.175538	1.734501
H325	H	-0.381736	-1.088113	1.130986
H326	H	-0.131736	-0.838113	1.380986
H327	H	0.118264	-0.588113	1.630986
H328	H	0.368264	-0.338113	1.880986
Cl329	Cl	-0.402023	-0.265206	0.304806
Cl330	Cl	-0.152023	-0.015206	0.554806
Cl331	Cl	0.097977	0.234794	0.804806
Cl332	Cl	0.347977	0.484794	1.054806
Cl333	Cl	-0.903578	-0.939854	0.473370
Cl334	Cl	-0.653578	-0.689854	0.723370
Cl335	Cl	-0.403578	-0.439854	0.973370
Cl336	Cl	-0.153578	-0.189854	1.223370
Cl337	Cl	-0.778936	-1.096740	0.316635
Cl338	Cl	-0.528936	-0.846740	0.566635
Cl339	Cl	-0.278936	-0.596740	0.816635
Cl340	Cl	-0.028936	-0.346740	1.066635
Cl341	Cl	-0.394818	-1.101103	0.982753
Cl342	Cl	-0.144818	-0.851103	1.232753
Cl343	Cl	0.105182	-0.601103	1.482753
Cl344	Cl	0.355182	-0.351103	1.732753
Cl345	Cl	-0.395577	-0.431660	0.311168
Cl346	Cl	-0.145577	-0.181660	0.561168
Cl347	Cl	0.104423	0.068340	0.811168
Cl348	Cl	0.354423	0.318340	1.061168
H349	H	-0.224466	-0.931042	1.118028
H350	H	0.025534	-0.681042	1.368028
H351	H	0.275534	-0.431042	1.618028
H352	H	0.525534	-0.181042	1.868028
H353	H	-0.225654	-0.296706	0.481747
H354	H	0.024346	-0.046706	0.731747
H355	H	0.274346	0.203294	0.981747
H356	H	0.524346	0.453294	1.231747
H357	H	-0.370565	-1.076840	0.910220
H358	H	-0.120565	-0.826840	1.160220
H359	H	0.129435	-0.576840	1.410220
H360	H	0.379435	-0.326840	1.660220
H361	H	-0.408039	-0.611053	0.298674
H362	H	-0.158039	-0.361053	0.548674
H363	H	0.091961	-0.111053	0.798674
H364	H	0.341961	0.138947	1.048674
Cl365	Cl	-0.421382	-0.759535	0.285271
Cl366	Cl	-0.171382	-0.509535	0.535271
Cl367	Cl	0.078618	-0.259535	0.785271
Cl368	Cl	0.328618	-0.009535	1.035271
H369	H	-0.257786	-0.964212	0.876036
H370	H	-0.007786	-0.714212	1.126036
H371	H	0.242214	-0.464212	1.376036
H372	H	0.492214	-0.214212	1.626036
