data_functionalizedCrystal
_audit_creation_method	'MofGen! by Chris Wilmer'
_symmetry_space_group_name_H-M	'P1'
_symmetry_Int_Tables_number	1
_symmetry_cell_setting	triclinic
loop_
_symmetry_equiv_pos_as_xyz
  x,y,z
_cell_length_a	17.699083
_cell_length_b	14.750779
_cell_length_c	17.699092
_cell_angle_alpha	102.615064
_cell_angle_beta	83.284691
_cell_angle_gamma	77.378405
loop_
_atom_site_label
_atom_site_type_symbol
_atom_site_fract_x
_atom_site_fract_y
_atom_site_fract_z
O1	O	0.987647	0.079690	0.112134
O2	O	1.487647	0.579690	0.612134
O3	O	0.767263	0.079721	0.124593
O4	O	1.267263	0.579721	0.624593
O5	O	0.883679	0.079702	0.008174
O6	O	1.383679	0.579702	0.508174
O7	O	0.871232	0.079708	0.228553
O8	O	1.371232	0.579708	0.728553
O9	O	0.916588	-0.079954	-0.024733
O10	O	1.416588	0.420046	0.475267
O11	O	0.800172	-0.079935	0.091686
O12	O	1.300172	0.420065	0.591686
O13	O	1.020557	-0.079966	0.079227
O14	O	1.520557	0.420034	0.579227
Zn15	Zn	0.915590	-0.105299	0.080232
Zn16	Zn	1.415590	0.394701	0.580232
Zn17	Zn	0.872230	0.105054	0.123588
Zn18	Zn	1.372230	0.605054	0.623588
O19	O	0.904141	-0.079947	0.195646
O20	O	1.404141	0.420053	0.695646
C21	C	0.755520	-0.000103	0.107694
C22	C	1.255520	0.499897	0.607694
C23	C	0.671499	-0.000091	0.106358
C24	C	1.171499	0.499909	0.606358
N25	N	0.945187	-0.248860	0.050642
N26	N	1.445187	0.251140	0.550642
C27	C	0.622880	-0.000090	0.174691
C28	C	1.122880	0.499910	0.674691
C29	C	0.543939	-0.000102	0.173426
C30	C	1.043939	0.499898	0.673426
C31	C	0.513618	-0.000109	0.103829
C32	C	1.013618	0.499891	0.603829
C33	C	0.562244	-0.000114	0.035489
C34	C	1.062244	0.499886	0.535489
C35	C	0.641185	-0.000108	0.036754
C36	C	1.141185	0.499892	0.536754
C37	C	0.243886	-0.000138	0.030389
C38	C	0.743886	0.499862	0.530389
C39	C	0.164938	-0.000140	0.029131
C40	C	0.664938	0.499860	0.529131
C41	C	0.146640	-0.000132	0.167062
C42	C	0.646640	0.499868	0.667062
C43	C	0.225581	-0.000126	0.168326
C44	C	0.725581	0.499874	0.668326
C45	C	0.274201	-0.000136	0.099986
C46	C	0.774201	0.499864	0.599986
C47	C	0.359798	-0.000124	0.101358
C48	C	0.859798	0.499876	0.601358
C49	C	0.428021	-0.000114	0.102458
C50	C	0.928021	0.499886	0.602458
C51	C	0.759978	-0.600648	0.235778
C52	C	1.259978	-0.100648	0.735778
C53	C	0.780724	-0.701151	0.215048
C54	C	1.280724	-0.201151	0.715048
C55	C	0.883831	-0.701130	0.111997
C56	C	1.383831	-0.201130	0.611997
C57	C	0.863092	-0.600625	0.132716
C58	C	1.363092	-0.100625	0.632716
C59	C	0.801165	-0.550393	0.194607
C60	C	1.301165	-0.050393	0.694607
C61	C	0.904279	-0.550370	0.091545
C62	C	1.404279	-0.050370	0.591545
C63	C	0.883544	-0.449874	0.112265
C64	C	1.383544	0.050126	0.612265
C65	C	0.821621	-0.399634	0.174155
C66	C	1.321621	0.100366	0.674155
C67	C	0.780430	-0.449897	0.215327
C68	C	1.280430	0.050103	0.715327
C69	C	0.966209	-0.600604	0.029658
C70	C	1.466209	-0.100604	0.529658
C71	C	1.007396	-0.550349	-0.011513
C72	C	1.507396	-0.050349	0.488487
C73	C	0.986657	-0.449851	0.009203
C74	C	1.486657	0.050149	0.509203
C75	C	0.924735	-0.399611	0.071093
C76	C	1.424735	0.100389	0.571093
C77	C	1.027848	-0.399588	-0.031969
C78	C	1.527848	0.100412	0.468031
C79	C	1.007113	-0.299093	-0.011249
C80	C	1.507113	0.200907	0.488751
C81	C	0.904000	-0.299115	0.091813
C82	C	1.404000	0.200885	0.591813
C83	C	1.032300	-0.000140	0.096126
C84	C	1.532300	0.499860	0.596126
C85	C	1.116319	-0.000146	0.097464
C86	C	1.616319	0.499854	0.597464
C87	C	0.899686	-0.000124	-0.036476
C88	C	1.399686	0.499876	0.463524
C89	C	0.898344	-0.000120	-0.120493
C90	C	1.398344	0.499880	0.379507
N91	N	0.842639	0.248614	0.153172
N92	N	1.342639	0.748614	0.653172
C93	C	0.879777	0.086910	-0.142023
C94	C	1.379777	0.586910	0.357977
C95	C	0.878512	0.086911	-0.220965
C96	C	1.378512	0.586911	0.279035
C97	C	0.895819	-0.000118	-0.278378
C98	C	1.395819	0.499882	0.221622
C99	C	0.914386	-0.087154	-0.256843
C100	C	1.414386	0.412846	0.243157
C101	C	0.915646	-0.087154	-0.177901
C102	C	1.415646	0.412846	0.322099
C103	C	0.909306	-0.087155	-0.575209
C104	C	1.409306	0.412845	-0.075209
C105	C	0.908047	-0.087148	-0.654155
C106	C	1.408047	0.412852	-0.154155
C107	C	0.872172	0.086911	-0.618273
C108	C	1.372172	0.586911	-0.118273
C109	C	0.873431	0.086910	-0.539330
C110	C	1.373431	0.586910	-0.039330
C111	C	0.891994	-0.000125	-0.517802
C112	C	1.391994	0.499875	-0.017802
C113	C	0.893364	-0.000125	-0.432203
C114	C	1.393364	0.499875	0.067797
C115	C	0.894455	-0.000119	-0.363976
C116	C	1.394455	0.499881	0.136024
C117	C	0.888133	-0.000119	0.240296
C118	C	1.388133	0.499881	0.740296
C119	C	0.889474	-0.000117	0.324314
C120	C	1.389474	0.499883	0.824314
H121	H	0.647561	-0.000083	0.231366
H122	H	1.147561	0.499917	0.731366
H123	H	0.729998	-0.408995	0.265720
H124	H	1.229998	0.091005	0.765720
C125	C	1.095968	-0.454858	-0.100045
C126	C	1.595968	0.045142	0.399955
N127	N	1.147277	-0.496487	-0.151322
N128	N	1.647277	0.003513	0.348678
C129	C	1.075511	-0.605616	-0.079595
C130	C	1.575511	-0.105616	0.420405
N131	N	1.126814	-0.647243	-0.130877
N132	N	1.626814	-0.147243	0.369123
H133	H	0.709546	-0.559747	0.286171
H134	H	1.209546	-0.059747	0.786171
H135	H	0.283463	-0.000146	-0.025258
H136	H	0.783463	0.499854	0.474742
H137	H	0.928474	-0.158015	-0.303595
H138	H	1.428474	0.341985	0.196405
C139	C	0.858156	0.182650	-0.244652
C140	C	1.358156	0.682650	0.255348
N141	N	0.842847	0.254766	-0.262495
N142	N	1.342847	0.754766	0.237505
H143	H	0.537553	-0.000133	-0.021181
H144	H	1.037553	0.499867	0.478819
C145	C	0.131590	-0.000160	-0.047438
C146	C	0.631590	0.499840	0.452562
N147	N	0.106472	-0.000177	-0.105107
N148	N	0.606472	0.499823	0.394893
H149	H	0.504356	-0.000100	0.229071
H150	H	1.004356	0.499900	0.729071
C151	C	0.258931	-0.000124	0.244888
C152	C	0.758931	0.499876	0.744888
N153	N	0.284050	-0.000129	0.302554
N154	N	0.784050	0.499871	0.802554
C155	C	0.854391	0.182649	-0.476180
C156	C	1.354391	0.682649	0.023820
N157	N	0.840046	0.254762	-0.428615
N158	N	1.340046	0.754762	0.071385
C159	C	0.851743	0.182653	-0.641959
C160	C	1.351743	0.682653	-0.141959
N161	N	0.836357	0.254764	-0.659798
N162	N	1.336357	0.754764	-0.159798
C163	C	1.052419	-0.243808	-0.056541
C164	C	1.552419	0.256192	0.443459
N165	N	1.086546	-0.202168	-0.090655
N166	N	1.586546	0.297832	0.409345
C167	C	0.860736	0.182650	-0.078874
C168	C	1.360736	0.682650	0.421126
N169	N	0.846391	0.254765	-0.031312
N170	N	1.346391	0.754765	0.468688
C171	C	0.735407	-0.756429	0.260343
C172	C	1.235407	-0.256429	0.760343
N173	N	0.701276	-0.798064	0.294459
N174	N	1.201276	-0.298064	0.794459
H175	H	0.934254	-0.742041	0.061607
H176	H	1.434254	-0.242041	0.561607
C177	C	0.093153	-0.000134	0.242236
C178	C	0.593153	0.499866	0.742236
N179	N	0.052868	-0.000135	0.298855
N180	N	0.552868	0.499865	0.798855
H181	H	0.680770	-0.000109	-0.018890
H182	H	1.180770	0.499891	0.481110
C183	C	0.989016	-0.711153	0.006867
C184	C	1.489016	-0.211153	0.506867
N185	N	1.006193	-0.794419	-0.010300
N186	N	1.506193	-0.294419	0.489700
C187	C	0.835847	-0.243854	0.159866
C188	C	1.335847	0.256146	0.659866
N189	N	0.784507	-0.202230	0.211113
N190	N	1.284507	0.297770	0.711113
C191	C	0.927080	-0.182891	-0.717309
C192	C	1.427080	0.317109	-0.217309
N193	N	0.941414	-0.255002	-0.764875
N194	N	1.441414	0.244998	-0.264875
C195	C	0.929728	-0.182897	-0.551539
C196	C	1.429728	0.317103	-0.051539
N197	N	0.945112	-0.255014	-0.533710
N198	N	1.445112	0.244986	-0.033710
H199	H	0.804742	-0.317804	0.191027
H200	H	1.304742	0.182196	0.691027
C201	C	0.936073	-0.182894	-0.154221
C202	C	1.436073	0.317106	0.345779
N203	N	0.951458	-0.255008	-0.136386
N204	N	1.451458	0.244992	0.363614
