data_functionalizedCrystal
_audit_creation_method	'MofGen! by Chris Wilmer'
_symmetry_space_group_name_H-M	'P1'
_symmetry_Int_Tables_number	1
_symmetry_cell_setting	triclinic
loop_
_symmetry_equiv_pos_as_xyz
  x,y,z
_cell_length_a	27.440280
_cell_length_b	17.917559
_cell_length_c	17.917595
_cell_angle_alpha	119.857608
_cell_angle_beta	90.001483
_cell_angle_gamma	63.033843
loop_
_atom_site_label
_atom_site_type_symbol
_atom_site_fract_x
_atom_site_fract_y
_atom_site_fract_z
Zr1	Zr	0.497378	0.806678	0.128979
O2	O	0.427461	0.951704	0.249493
O3	O	0.515460	0.654467	0.087348
O4	O	0.524301	0.796301	0.242739
O5	O	0.415459	0.820562	-0.023142
O6	O	0.604502	0.796289	0.242743
O7	O	0.418620	0.809871	0.094102
O8	O	0.588687	0.542574	-0.035224
O9	O	0.431274	1.074277	0.254825
O10	O	0.587075	0.719726	0.075258
O11	O	0.524862	0.727714	-0.012242
O12	O	0.535271	0.894705	0.170711
O13	O	0.473059	0.902693	0.083210
Zr14	Zr	0.620250	0.823711	-0.058005
Zr15	Zr	0.625291	0.806659	0.128985
Zr16	Zr	0.492337	0.823730	-0.058011
Zr17	Zr	0.503460	1.002168	0.137482
Zr18	Zr	0.614168	0.628221	-0.066509
O19	O	0.602168	0.975922	-0.016374
O20	O	0.609336	0.951676	0.249502
O21	O	0.420293	0.975950	-0.016383
O22	O	0.690167	0.678685	-0.178520
O23	O	0.697335	0.654439	0.087356
O24	O	0.508291	0.678713	-0.178528
O25	O	0.702169	0.809827	0.094115
O26	O	0.593327	0.834088	-0.171766
O27	O	0.513125	0.834101	-0.171769
O28	O	0.699008	0.820519	-0.023128
O29	O	0.532948	1.074261	0.254830
O30	O	0.584680	0.556128	-0.183856
O31	O	0.686354	0.556112	-0.183851
O32	O	0.690361	0.542558	-0.035219
O33	O	0.427267	1.087831	0.106193
O34	O	0.528941	1.087815	0.106197
O35	O	0.582357	0.735684	-0.099737
O36	O	0.644569	0.727696	-0.012237
O37	O	0.592766	0.902675	0.083216
O38	O	0.530553	0.910663	-0.004285
C39	C	0.551207	0.570667	0.024851
C40	C	0.548625	0.487677	0.021241
C41	C	0.573677	0.294717	0.056383
C42	C	0.543952	0.335676	0.014593
C43	C	0.546553	0.420257	0.018293
C44	C	0.571077	0.210129	0.052684
C45	C	0.398815	0.815219	0.035479
C46	C	0.344513	0.815227	0.035477
C47	C	0.009555	0.809281	0.100078
C48	C	-0.041463	0.809273	0.100078
O49	O	-0.066359	0.804226	0.154990
N50	N	-0.068722	0.815165	0.035488
C51	C	-0.044958	0.821055	-0.029111
O52	O	-0.072828	0.826065	-0.084050
C53	C	0.006062	0.821055	-0.029114
C54	C	0.033315	0.815173	0.035485
C55	C	0.036809	0.803398	0.164671
C56	C	0.087823	0.803408	0.164672
C57	C	0.111583	0.809300	0.100079
C58	C	0.084329	0.815182	0.035486
C59	C	0.029827	0.826937	-0.093717
C60	C	0.080851	0.826936	-0.093715
C61	C	0.108104	0.821054	-0.029116
C62	C	0.159104	0.821084	-0.029107
N63	N	0.186363	0.815192	0.035483
C64	C	0.162602	0.809300	0.100076
C65	C	-0.152101	0.821052	-0.029100
C66	C	-0.203122	0.821059	-0.029094
C67	C	-0.199623	0.809276	0.100095
C68	C	-0.148604	0.809276	0.100091
C69	C	-0.124842	0.815160	0.035489
C70	C	0.269735	0.809321	0.100072
C71	C	0.320752	0.809335	0.100070
C72	C	0.317251	0.821113	-0.029121
C73	C	0.266237	0.821105	-0.029116
C74	C	0.242481	0.815205	0.035485
O75	O	0.184034	0.826124	-0.083993
O76	O	0.190483	0.804278	0.154998
C77	C	0.718813	0.815170	0.035494
C78	C	0.773115	0.815162	0.035497
C79	C	0.565120	0.793865	0.269383
C80	C	0.567260	0.786626	0.348766
C81	C	0.566421	1.059722	0.046123
C82	C	0.569003	1.142712	0.049733
C83	C	0.571182	0.773403	0.494123
C84	C	0.546437	0.856990	0.576858
C85	C	0.548619	0.849633	0.657740
C86	C	0.569000	0.780759	0.413232
C87	C	0.552505	0.836526	0.801592
C88	C	0.550357	0.843771	0.722213
C89	C	0.711206	0.570643	0.024858
C90	C	0.762926	0.487644	0.021251
C91	C	0.544901	0.591997	-0.209046
C92	C	0.540179	0.516245	-0.292038
C93	C	0.704900	0.591972	-0.209038
C94	C	0.754480	0.516212	-0.292028
C95	C	0.412728	1.038417	0.280012
C96	C	0.363147	1.114177	0.363001
C97	C	0.406422	1.059746	0.046116
C98	C	0.354701	1.142745	0.049723
C99	C	0.572727	1.038392	0.280019
C100	C	0.577449	1.114144	0.363012
C101	C	0.757204	0.444506	0.065236
C102	C	0.805796	0.366529	0.061865
C103	C	0.860111	0.331687	0.014502
C104	C	0.865833	0.374833	-0.029484
C105	C	0.817241	0.452813	-0.026107
C106	C	0.567973	0.484833	-0.376691
C107	C	0.563534	0.413668	-0.454678
C108	C	0.531305	0.373911	-0.448009
C109	C	0.503507	0.405331	-0.363347
C110	C	0.507943	0.476500	-0.285362
C111	C	0.810244	0.476465	-0.285326
C112	C	0.856835	0.405291	-0.363296
C113	C	0.847662	0.373860	-0.447967
C114	C	0.791893	0.413615	-0.454667
C115	C	0.745303	0.484793	-0.376697
C116	C	0.307385	1.153934	0.356300
C117	C	0.260794	1.225132	0.434271
C118	C	0.269967	1.256567	0.518942
C119	C	0.325736	1.216807	0.525642
C120	C	0.372326	1.145615	0.447672
C121	C	0.360425	1.185891	0.005746
C122	C	0.311833	1.263887	0.009139
C123	C	0.257519	1.298732	0.056504
C124	C	0.251796	1.255583	0.100487
C125	C	0.300388	1.177593	0.097098
C126	C	0.609683	1.153878	0.356314
C127	C	0.614131	1.225045	0.434286
C128	C	0.586341	1.256481	0.518955
C129	C	0.554105	1.216740	0.525651
C130	C	0.549661	1.145569	0.447679
H131	H	0.516547	0.307224	-0.023958
C132	C	0.602871	0.528197	-0.383804
C133	C	0.567450	0.633045	-0.338906
C134	C	0.599577	0.673030	-0.345435
H135	H	0.618793	0.499415	-0.445348
H136	H	0.632766	0.512993	-0.357126
H137	H	0.537565	0.648241	-0.365586
H138	H	0.551528	0.661854	-0.277358
H139	H	0.629472	0.657826	-0.318757
H140	H	0.615497	0.644241	-0.406981
H141	H	0.575550	0.744174	-0.314966
H142	H	0.594002	0.696323	0.484038
H143	H	0.244042	0.825909	-0.081710
C144	C	0.649122	1.268272	0.427189
C145	C	0.647085	1.337308	0.513588
C146	C	0.679316	1.377138	0.507083
H147	H	0.633833	1.301597	0.397577
H148	H	0.687662	1.215131	0.393791
H149	H	0.608552	1.390441	0.546973
H150	H	0.662378	1.304008	0.543216
H151	H	0.717857	1.323997	0.473685
H152	H	0.664024	1.410457	0.477468
H153	H	0.677943	1.423976	0.565702
H154	H	0.699899	0.517146	-0.382167
C155	C	0.419432	1.148083	-0.045532
C156	C	0.452716	1.161701	0.013584
C157	C	0.507077	1.126884	-0.033621
H158	H	0.415955	1.184916	-0.071236
H159	H	0.437212	1.078382	-0.091944
H160	H	0.434940	1.231390	0.059980
H161	H	0.456209	1.124868	0.039291
H162	H	0.524857	1.057182	-0.080033
H163	H	0.503594	1.163719	-0.059324
H164	H	0.529668	1.136110	0.006480
H165	H	0.477266	0.372951	-0.357931
H166	H	0.712982	0.472872	0.103815
H167	H	0.215389	1.257493	0.428799
H168	H	0.299904	1.128343	0.287364
C169	C	0.799530	0.319586	0.109479
C170	C	0.765991	0.277849	0.074089
C171	C	0.760211	0.234586	0.117918
H172	H	0.781661	0.370011	0.172007
H173	H	0.836234	0.268109	0.100674
H174	H	0.729294	0.329320	0.082901
H175	H	0.783851	0.227411	0.011565
H176	H	0.796915	0.183109	0.109113
H177	H	0.742343	0.285017	0.180445
H178	H	0.737459	0.206254	0.093907
H179	H	0.316503	1.299007	-0.026681
H180	H	0.232026	1.314536	0.582423
H181	H	0.910063	0.346452	-0.068045
C182	C	0.192772	1.293520	0.151819
C183	C	0.151448	1.371032	0.145342
C184	C	0.097066	1.405993	0.192602
H185	H	0.190770	1.318543	0.213264
H186	H	0.185912	1.239630	0.126813
H187	H	0.158305	1.424913	0.170352
H188	H	0.153431	1.346034	0.083909
H189	H	0.090206	1.352102	0.167595
H190	H	0.095071	1.431010	0.254043
H191	H	0.069021	1.458581	0.188206
C192	C	-0.126224	0.827251	-0.099327
C193	C	-0.071517	0.741382	-0.150156
C194	C	-0.047669	0.747051	-0.214864
H195	H	-0.123639	0.885869	-0.070245
H196	H	-0.149740	0.830710	-0.137837
H197	H	-0.048007	0.737934	-0.111652
H198	H	-0.074086	0.682751	-0.179258
H199	H	-0.071184	0.750509	-0.253374
H200	H	-0.045087	0.805672	-0.185775
H201	H	-0.010550	0.688786	-0.249365
H202	H	0.333198	1.242410	0.594590
H203	H	0.250400	0.804515	0.152675
H204	H	0.417729	1.113245	0.453138
C205	C	0.912794	0.246971	0.010901
C206	C	0.896148	0.216637	0.059541
C207	C	0.944661	0.138589	0.056234
H208	H	0.937369	0.270180	0.036486
H209	H	0.932415	0.191383	-0.049927
H210	H	0.876537	0.272215	0.120358
H211	H	0.871581	0.193411	0.033968
H212	H	0.964281	0.083000	-0.004595
H213	H	0.969232	0.161805	0.081818
H214	H	0.933373	0.117991	0.089228
H215	H	0.586173	0.388095	-0.523606
H216	H	0.523612	0.934077	0.586945
H217	H	0.821909	0.487927	-0.061931
C218	C	0.610153	0.332835	0.107790
C219	C	0.605492	0.410393	0.101311
C220	C	0.639076	0.445553	0.148668
H221	H	0.648947	0.279068	0.082875
H222	H	0.597294	0.357862	0.169234
H223	H	0.618353	0.385364	0.039879
H224	H	0.566706	0.464178	0.126231
H225	H	0.626217	0.470580	0.210112
H226	H	0.677867	0.391779	0.123748
H227	H	0.635914	0.498185	0.144285
H228	H	0.295719	1.142465	0.132908
C229	C	0.526587	0.296609	-0.532792
C230	C	0.557843	0.277594	-0.608351
C231	C	0.553520	0.206377	-0.686471
H232	H	0.487603	0.322073	-0.531824
H233	H	0.541449	0.235721	-0.535502
H234	H	0.542978	0.338470	-0.605641
H235	H	0.596830	0.252115	-0.609348
H236	H	0.568382	0.145489	-0.689182
H237	H	0.514535	0.231849	-0.685495
H238	H	0.574730	0.193460	-0.737748
C239	C	0.524016	1.250692	0.617552
C240	C	0.544552	1.167149	0.623400
C241	C	0.516852	1.198397	0.708053
H242	H	0.484028	1.280507	0.625517
H243	H	0.531294	1.298736	0.663048
H244	H	0.537270	1.119123	0.577918
H245	H	0.584538	1.137324	0.615452
H246	H	0.524129	1.246440	0.753549
H247	H	0.476864	1.228212	0.716010
H248	H	0.530785	1.141720	0.712035
H249	H	0.817723	0.502045	-0.216390
C250	C	0.591241	1.333603	0.603632
C251	C	0.616090	1.291149	0.651545
C252	C	0.620620	1.362161	0.729543
H253	H	0.554269	1.391412	0.640122
H254	H	0.614441	1.352750	0.587545
H255	H	0.592889	1.272016	0.667633
H256	H	0.653065	1.233348	0.615081
H257	H	0.643820	1.381308	0.713456
H258	H	0.583646	1.419966	0.766025
H259	H	0.637485	1.333363	0.762058
C260	C	0.898323	0.296526	-0.532512
C261	C	0.949118	0.268430	-0.508510
C262	C	0.995800	0.197180	-0.586366
H263	H	0.898298	0.325054	-0.565208
H264	H	0.895561	0.238713	-0.568906
H265	H	0.951879	0.326232	-0.472131
H266	H	0.949162	0.239886	-0.475826
H267	H	0.993039	0.139366	-0.622759
H268	H	0.995770	0.225714	-0.619056
H269	H	1.030270	0.178100	-0.570091
C270	C	0.350416	0.802996	0.170158
C271	C	0.400173	0.804289	0.156353
C272	C	0.427509	0.798460	0.220903
H273	H	0.360130	0.742151	0.164879
H274	H	0.325491	0.859027	0.228593
H275	H	0.425093	0.748263	0.097933
H276	H	0.390475	0.865128	0.161640
H277	H	0.402584	0.854491	0.279338
H278	H	0.437219	0.737614	0.215619
H279	H	0.461269	0.799345	0.211551
C280	C	0.639797	1.119661	0.264313
C281	C	0.629001	1.048845	0.197450
C282	C	0.656730	1.017313	0.112692
H283	H	0.679790	1.089760	0.256326
H284	H	0.625927	1.176217	0.260157
H285	H	0.642873	0.992300	0.201604
H286	H	0.589013	1.078724	0.205407
H287	H	0.642861	1.073868	0.108535
H288	H	0.696722	0.987416	0.104714
H289	H	0.649405	0.969268	0.067315
H290	H	0.523410	1.113225	0.453145
H291	H	0.485311	0.502066	-0.216437
H292	H	0.902240	0.372929	-0.357825
C293	C	0.000351	0.833269	-0.163964
C294	C	0.032100	0.838392	-0.220542
C295	C	0.004971	0.844208	-0.285278
H296	H	-0.036927	0.891935	-0.134900
H297	H	-0.002301	0.775055	-0.198576
H298	H	0.034746	0.896600	-0.185935
H299	H	0.069377	0.779733	-0.249628
H300	H	0.002318	0.785995	-0.319890
H301	H	-0.032307	0.902875	-0.256206
H302	H	0.026511	0.847676	-0.323679
C303	C	0.117341	0.796950	0.234849
C304	C	0.085613	0.791759	0.291393
C305	C	0.112790	0.785791	0.356044
H306	H	0.120025	0.855111	0.269509
H307	H	0.154615	0.738245	0.205684
H308	H	0.048350	0.850458	0.320555
H309	H	0.082928	0.733601	0.256758
H310	H	0.150063	0.727086	0.326879
H311	H	0.115472	0.843954	0.390697
H312	H	0.091269	0.782260	0.394411
C313	C	0.782029	0.379501	-0.546655
C314	C	0.808877	0.402586	-0.591322
C315	C	0.799812	0.371155	-0.676071
H316	H	0.742169	0.413323	-0.539620
H317	H	0.797540	0.308687	-0.580887
H318	H	0.793363	0.473387	-0.557098
H319	H	0.848738	0.368766	-0.598380
H320	H	0.815323	0.300341	-0.710303
H321	H	0.759951	0.404979	-0.669027
H322	H	0.818031	0.386805	-0.706391
C323	C	0.011052	0.796798	0.234675
C324	C	0.007401	0.710235	0.191444
C325	C	-0.016313	0.704122	0.255912
H326	H	-0.026095	0.854912	0.269274
H327	H	0.034600	0.793238	0.273128
H328	H	-0.016146	0.713803	0.153007
H329	H	0.044541	0.652106	0.156850
H330	H	0.007234	0.700562	0.294364
H331	H	-0.053460	0.762240	0.290507
H332	H	-0.018789	0.645385	0.226589
C333	C	-0.225497	0.802821	0.170118
C334	C	-0.276001	0.804048	0.156269
C335	C	-0.299848	0.798089	0.220744
H336	H	-0.233776	0.858809	0.228582
H337	H	-0.199137	0.741942	0.164770
H338	H	-0.302355	0.864920	0.161624
H339	H	-0.267737	0.748064	0.097818
H340	H	-0.273488	0.737210	0.215397
H341	H	-0.308124	0.854079	0.279204
H342	H	-0.334114	0.798912	0.211352
H343	H	0.217957	1.362237	0.059256
H344	H	-0.225313	0.825865	-0.081688
C345	C	-0.119085	0.802822	0.170269
C346	C	-0.150813	0.797640	0.226820
C347	C	-0.123635	0.791677	0.291472
H348	H	-0.116399	0.860982	0.204924
H349	H	-0.081812	0.744115	0.141105
H350	H	-0.188075	0.856341	0.255982
H351	H	-0.153500	0.739483	0.192191
H352	H	-0.086363	0.732970	0.262308
H353	H	-0.120951	0.849838	0.326120
H354	H	-0.145156	0.788151	0.329844
C355	C	0.106752	0.833272	-0.163808
C356	C	0.157272	0.831995	-0.150004
C357	C	0.181150	0.837819	-0.214561
H358	H	0.080431	0.894111	-0.158537
H359	H	0.115010	0.777234	-0.222241
H360	H	0.149012	0.888029	-0.091586
H361	H	0.183606	0.771162	-0.155283
H362	H	0.189409	0.781781	-0.272993
H363	H	0.154825	0.898658	-0.209284
H364	H	0.215433	0.836944	-0.205209
C365	C	0.343160	0.827448	-0.099204
C366	C	0.393681	0.826164	-0.085386
C367	C	0.417572	0.831976	-0.149941
H368	H	0.316846	0.888285	-0.093940
H369	H	0.351422	0.771408	-0.157636
H370	H	0.385418	0.882200	-0.026968
H371	H	0.420008	0.765333	-0.090658
H372	H	0.425833	0.775936	-0.208374
H373	H	0.391253	0.892814	-0.144672
H374	H	0.451855	0.831096	-0.140580
