data_functionalizedCrystal
_audit_creation_method	'MofGen! by Chris Wilmer'
_symmetry_space_group_name_H-M	'P1'
_symmetry_Int_Tables_number	1
_symmetry_cell_setting	triclinic
loop_
_symmetry_equiv_pos_as_xyz
  x,y,z
_cell_length_a	23.532407
_cell_length_b	23.532407
_cell_length_c	17.666332
_cell_angle_alpha	89.990114
_cell_angle_beta	89.993426
_cell_angle_gamma	82.848712
loop_
_atom_site_label
_atom_site_type_symbol
_atom_site_fract_x
_atom_site_fract_y
_atom_site_fract_z
O1	O	0.755263	0.069135	-0.062908
O2	O	0.589400	0.079138	-0.062921
O3	O	0.677333	-0.008795	-0.062900
O4	O	0.667330	0.157068	-0.062929
O5	O	0.677318	-0.008797	0.062996
O6	O	0.589385	0.079136	0.062976
O7	O	0.755248	0.069133	0.062989
Cu8	Cu	0.672315	0.074134	0.074477
Cu9	Cu	0.672333	0.074137	-0.074410
O10	O	0.667315	0.157066	0.062968
C11	C	0.568176	0.078882	0.000026
C12	C	0.504959	0.078116	0.000021
C13	C	0.238792	0.022921	0.000051
C14	C	0.298192	0.023632	0.000051
O15	O	0.334937	-0.020153	0.000085
N16	N	0.320818	0.075909	0.000037
C17	C	0.284041	0.127477	0.000031
O18	O	0.308740	0.172007	0.000019
C19	C	0.224642	0.126765	0.000037
C20	C	0.202019	0.074485	0.000043
C21	C	0.216168	-0.029354	0.000059
C22	C	0.156772	-0.030066	0.000058
C23	C	0.119999	0.021499	0.000049
C24	C	0.142623	0.073774	0.000042
C25	C	0.187865	0.178333	0.000036
C26	C	0.128463	0.177616	0.000042
C27	C	0.105840	0.125336	0.000049
C28	C	0.046454	0.124627	0.000032
N29	N	0.023828	0.072351	0.000047
C30	C	0.060600	0.020787	0.000055
C31	C	0.408783	0.128968	0.000020
C32	C	0.468181	0.129681	0.000009
C33	C	0.482328	0.025836	0.000031
C34	C	0.422929	0.025124	0.000036
C35	C	0.386157	0.076692	0.000034
C36	C	-0.064136	0.019297	0.000052
C37	C	-0.123538	0.018590	0.000048
C38	C	-0.137680	0.122435	0.000030
C39	C	-0.078284	0.123142	0.000030
C40	C	-0.041512	0.071568	0.000044
O41	O	0.009675	0.168390	0.000002
O42	O	0.035892	-0.023737	0.000076
C43	C	0.677071	-0.030012	0.000050
C44	C	0.676305	-0.093229	0.000056
C45	C	0.723538	-0.492332	0.000018
C46	C	0.722827	-0.551733	0.000012
O47	O	0.766613	-0.588477	-0.000012
N48	N	0.670551	-0.574359	0.000008
C49	C	0.618982	-0.537581	0.000003
O50	O	0.574452	-0.562281	-0.000001
C51	C	0.619695	-0.478182	0.000003
C52	C	0.671974	-0.455559	0.000015
C53	C	0.775814	-0.469709	0.000028
C54	C	0.776525	-0.410313	0.000035
C55	C	0.724961	-0.373540	0.000032
C56	C	0.672685	-0.396163	0.000022
C57	C	0.568127	-0.441406	-0.000007
C58	C	0.568843	-0.382003	-0.000008
C59	C	0.621123	-0.359381	0.000004
C60	C	0.621832	-0.299994	0.000026
N61	N	0.674109	-0.277368	0.000029
C62	C	0.725673	-0.314141	0.000033
C63	C	0.617491	-0.662324	0.000001
C64	C	0.616778	-0.721722	0.000006
C65	C	0.720623	-0.735869	0.000014
C66	C	0.721335	-0.676470	0.000014
C67	C	0.669767	-0.639698	0.000004
C68	C	0.727163	-0.189404	0.000048
C69	C	0.727869	-0.130002	0.000059
C70	C	0.624025	-0.115860	0.000047
C71	C	0.623318	-0.175257	0.000041
C72	C	0.674891	-0.212028	0.000039
O73	O	0.578069	-0.263215	0.000047
O74	O	0.770196	-0.289433	0.000027
C75	C	0.776472	0.069389	0.000040
C76	C	0.839689	0.070155	0.000039
C77	C	0.667577	0.178283	0.000016
C78	C	0.668343	0.241500	0.000005
N79	N	0.672306	0.074132	0.179197
N80	N	0.672346	0.074135	-0.179130
C81	C	0.706646	0.108501	0.218797
C82	C	0.706655	0.108499	0.298044
C83	C	0.672314	0.074135	0.337689
C84	C	0.637972	0.039758	0.298079
C85	C	0.637968	0.039757	0.218833
N86	N	0.622440	0.072862	0.462125
N87	N	0.622445	0.072866	0.537406
C88	C	0.672324	0.074137	0.576453
N89	N	0.722199	0.075413	0.537376
N90	N	0.722193	0.075412	0.462089
C91	C	0.672314	0.074133	0.423618
C92	C	0.706677	0.108506	0.701982
C93	C	0.706687	0.108500	0.781231
C94	C	0.637999	0.039763	0.781265
C95	C	0.637994	0.039765	0.702017
C96	C	0.672332	0.074140	0.662381
H97	H	-0.167631	0.164417	0.000019
H98	H	0.770443	-0.111587	0.000070
H99	H	0.138359	-0.072637	0.000066
Br100	Br	0.532246	-0.044145	0.000039
Br101	Br	0.497171	-0.472092	-0.000026
H102	H	0.610028	0.011780	0.669775
Br103	Br	0.753233	0.155166	0.165008
H104	H	-0.141954	-0.023984	0.000051
Br105	Br	0.591370	-0.006883	0.351880
Br106	Br	0.753300	0.155144	0.834976
H107	H	0.206274	0.220904	0.000027
Br108	Br	0.591358	-0.006889	0.165086
H109	H	0.734637	0.136496	0.669709
Br110	Br	0.591401	-0.006885	0.835059
Br111	Br	0.753264	0.155145	0.351799
Br112	Br	-0.014242	-0.050696	0.000070
H113	H	0.580747	-0.193677	0.000053
Br114	Br	0.266065	-0.099344	0.000073
H115	H	0.404515	-0.017447	0.000042
Br116	Br	0.498876	0.200635	-0.000019
Br117	Br	0.797156	-0.239299	0.000045
H118	H	0.575496	-0.632386	-0.000000
H119	H	0.819097	-0.391900	0.000041
H120	H	0.378846	0.170964	0.000013
Br121	Br	0.078560	0.247605	0.000045
Br122	Br	-0.047580	0.194093	0.000009
Br123	Br	0.845804	-0.519605	0.000032
H124	H	0.582043	-0.085909	0.000047
H125	H	0.762610	-0.765821	0.000013
Br126	Br	0.545825	-0.752416	0.000009
Br127	Br	0.792288	-0.645774	0.000031
Br128	Br	0.498854	-0.332101	-0.000024
