data_functionalizedCrystal
_audit_creation_method	'MofGen! by Chris Wilmer'
_symmetry_space_group_name_H-M	'P1'
_symmetry_Int_Tables_number	1
_symmetry_cell_setting	triclinic
loop_
_symmetry_equiv_pos_as_xyz
  x,y,z
_cell_length_a	10.686220
_cell_length_b	10.686285
_cell_length_c	21.395355
_cell_angle_alpha	85.619443
_cell_angle_beta	94.345449
_cell_angle_gamma	90.345431
loop_
_atom_site_label
_atom_site_type_symbol
_atom_site_fract_x
_atom_site_fract_y
_atom_site_fract_z
Zn1	Zn	1.956210	-0.352190	-0.266464
Zn2	Zn	1.972189	-0.561936	-0.153114
Zn3	Zn	1.746425	-0.368308	-0.169070
Zn4	Zn	1.762535	-0.578011	-0.265220
O5	O	1.859340	-0.465111	-0.213467
O6	O	2.133867	-0.366541	-0.245271
O7	O	1.942186	-0.536269	-0.067554
O8	O	1.760823	-0.190629	-0.189188
O9	O	2.145607	-0.520640	-0.161993
O10	O	1.914952	-0.178788	-0.260743
O11	O	1.776318	-0.394011	-0.079277
O12	O	1.573025	-0.409599	-0.187982
O13	O	1.788281	-0.548038	-0.353062
O14	O	1.584861	-0.563667	-0.258623
O15	O	1.930573	-0.382128	-0.353976
O16	O	1.957808	-0.739609	-0.160787
O17	O	1.803776	-0.751420	-0.243151
C18	C	1.533428	-0.490127	-0.224899
C19	C	1.394004	-0.500859	-0.229803
C20	C	1.884308	-0.791028	-0.200115
C21	C	1.895105	-0.930447	-0.194420
C22	C	2.186524	-0.439999	-0.201991
C23	C	2.325950	-0.429298	-0.197101
C24	C	1.859442	-0.465078	-0.376888
C25	C	1.859486	-0.465064	-0.446528
C26	C	1.834308	-0.137920	-0.226884
C27	C	1.823641	0.001509	-0.232602
C28	C	1.933573	-0.378672	-0.479718
C29	C	1.933567	-0.378618	-0.545156
C30	C	1.859489	-0.464978	-0.577400
C31	C	1.785386	-0.551377	-0.544202
C32	C	1.785384	-0.551420	-0.478766
C33	C	1.858237	-0.578687	-0.676795
C34	C	1.858248	-0.578646	-0.742229
C35	C	1.859486	-0.464844	-0.779226
C36	C	1.860741	-0.351079	-0.750779
C37	C	1.860739	-0.351123	-0.685343
C38	C	1.859482	-0.464940	-0.648354
C39	C	1.933571	-0.378387	-0.883371
C40	C	1.933557	-0.378332	-0.948810
C41	C	1.785382	-0.551101	-0.947854
C42	C	1.785390	-0.551146	-0.882417
C43	C	1.859491	-0.464790	-0.850179
C44	C	1.859303	-0.465049	-0.050683
C45	C	1.859476	-0.464691	0.018950
H46	H	1.374350	-0.359822	-0.165350
H47	H	1.964542	-0.978859	-0.157367
C48	C	1.328627	-0.594698	-0.272713
H49	H	1.390017	-0.638148	-0.292573
H50	H	1.273877	-0.550653	-0.303784
H51	H	1.281669	-0.653194	-0.248252
H52	H	1.754199	-0.950087	-0.269649
H53	H	1.993911	-0.308352	-0.453475
C54	C	1.862924	-0.225903	-0.791434
H55	H	1.862981	-0.242169	-0.834470
H56	H	1.936463	-0.180473	-0.779502
H57	H	1.790901	-0.177856	-0.785411
H58	H	1.993895	-0.308260	-0.572185
H59	H	1.993902	-0.308064	-0.857122
C60	C	1.703892	-0.646458	-0.442252
H61	H	1.714498	-0.634111	-0.398664
H62	H	1.728693	-0.729326	-0.448890
H63	H	1.618200	-0.634550	-0.456669
C64	C	1.862098	-0.225993	-0.654055
H65	H	1.862827	-0.158206	-0.685456
H66	H	1.934930	-0.222054	-0.625919
H67	H	1.789351	-0.220515	-0.631494
C68	C	2.015059	-0.283296	-0.985320
H69	H	2.059196	-0.231884	-0.956745
H70	H	1.962900	-0.232298	-1.014757
H71	H	2.073385	-0.327084	-1.006975
H72	H	1.725052	-0.621405	-0.974107
H73	H	1.725068	-0.621503	-0.855392
H74	H	1.857234	-0.671280	-0.765385
C75	C	1.856599	-0.703873	-0.636115
H76	H	1.855787	-0.771617	-0.662430
H77	H	1.783682	-0.707667	-0.613256
H78	H	1.929256	-0.709572	-0.607573
C79	C	1.703908	-0.646375	-0.579666
H80	H	1.714530	-0.633986	-0.623391
H81	H	1.618220	-0.634497	-0.572640
H82	H	1.728725	-0.729260	-0.564852
