data_functionalizedCrystal
_audit_creation_method	'MofGen! by Chris Wilmer'
_symmetry_space_group_name_H-M	'P1'
_symmetry_Int_Tables_number	1
_symmetry_cell_setting	triclinic
loop_
_symmetry_equiv_pos_as_xyz
  x,y,z
_cell_length_a	14.908571
_cell_length_b	16.625546
_cell_length_c	14.909241
_cell_angle_alpha	86.671627
_cell_angle_beta	83.210755
_cell_angle_gamma	86.718495
loop_
_atom_site_label
_atom_site_type_symbol
_atom_site_fract_x
_atom_site_fract_y
_atom_site_fract_z
Zn1	Zn	1.413346	-0.363476	-0.591501
Zn2	Zn	1.913346	0.136524	-0.091501
Zn3	Zn	1.404503	-0.505675	-0.440124
Zn4	Zn	1.904503	-0.005675	0.059876
Zn5	Zn	1.253243	-0.363496	-0.431432
Zn6	Zn	1.753243	0.136504	0.068568
Zn7	Zn	1.261940	-0.490903	-0.582727
Zn8	Zn	1.761940	0.009097	-0.082727
O9	O	1.333258	-0.430888	-0.511446
O10	O	1.833258	0.069112	-0.011446
O11	O	1.538840	-0.388514	-0.578730
O12	O	2.038840	0.111486	-0.078730
O13	O	1.377096	-0.493006	-0.312302
O14	O	1.877096	0.006994	0.187698
O15	O	1.274542	-0.250662	-0.452700
O16	O	1.774542	0.249338	0.047300
O17	O	1.532343	-0.492987	-0.467514
O18	O	2.032343	0.007013	0.032486
O19	O	1.392169	-0.250648	-0.570302
O20	O	1.892169	0.249352	-0.070302
O21	O	1.265966	-0.388547	-0.305916
O22	O	1.765966	0.111453	0.194084
O23	O	1.127729	-0.374223	-0.444192
O24	O	1.627729	0.125777	0.055808
O25	O	1.289366	-0.467809	-0.710560
O26	O	1.789366	0.032191	-0.210560
O27	O	1.134120	-0.467828	-0.555348
O28	O	1.634120	0.032172	-0.055348
O29	O	1.400603	-0.374189	-0.717006
O30	O	1.900603	0.125811	-0.217006
O31	O	1.385530	-0.616547	-0.459006
O32	O	1.885530	-0.116547	0.040994
O33	O	1.280790	-0.605694	-0.563776
O34	O	1.780790	-0.105694	-0.063776
C35	C	1.098081	-0.419425	-0.497875
C36	C	1.598081	0.080575	0.002125
C37	C	0.997473	-0.414540	-0.492091
C38	C	1.497473	0.085460	0.007909
C39	C	1.333170	-0.640376	-0.511403
C40	C	1.833170	-0.140376	-0.011403
C41	C	1.333217	-0.729999	-0.511420
C42	C	1.833217	-0.229999	-0.011420
C43	C	0.815112	-0.502998	-0.596813
C44	C	1.315112	-0.002998	-0.096813
C45	C	0.720582	-0.498410	-0.591381
C46	C	1.220582	0.001590	-0.091381
C47	C	0.713880	-0.400772	-0.475801
C48	C	1.213880	0.099228	0.024199
C49	C	0.808411	-0.405360	-0.481233
C50	C	1.308411	0.094640	0.018767
C51	C	0.859023	-0.456476	-0.541740
C52	C	1.359023	0.043524	-0.041740
C53	C	0.953555	-0.461067	-0.547166
C54	C	1.453555	0.038933	-0.047166
C55	C	0.946852	-0.363425	-0.431592
C56	C	1.446852	0.136575	0.068408
C57	C	0.852322	-0.358837	-0.426160
C58	C	1.352322	0.141163	0.073840
C59	C	1.333380	-1.058178	-0.511524
C60	C	1.833380	-0.558178	-0.011524
C61	C	1.333332	-0.966868	-0.511497
C62	C	1.833332	-0.466868	-0.011497
C63	C	1.333298	-0.894091	-0.511471
C64	C	1.833298	-0.394091	-0.011471
C65	C	1.333251	-0.802776	-0.511446
C66	C	1.833251	-0.302776	-0.011446
C67	C	1.569353	-0.442396	-0.525071
C68	C	2.069353	0.057604	-0.025071
C69	C	1.669963	-0.447300	-0.530877
C70	C	2.169963	0.052700	-0.030877
C71	C	1.346941	-0.419349	-0.747545
C72	C	1.846941	0.080651	-0.247545
C73	C	1.352772	-0.414432	-0.848157
C74	C	1.852772	0.085568	-0.348157
C75	C	1.333372	-0.220581	-0.511510
C76	C	1.833372	0.279419	-0.011510
C77	C	1.333421	-0.130961	-0.511538
C78	C	1.833421	0.369039	-0.011538
C79	C	1.247900	-0.502697	-1.030505
C80	C	1.747900	-0.002697	-0.530505
C81	C	1.253376	-0.498080	-1.125038
C82	C	1.753376	0.001920	-0.625038
C83	C	1.369203	-0.400584	-1.131758
C84	C	1.869203	0.099416	-0.631758
C85	C	1.363728	-0.405202	-1.037225
C86	C	1.863728	0.094798	-0.537225
C87	C	1.303073	-0.456259	-0.986602
C88	C	1.803073	0.043741	-0.486602
C89	C	1.297593	-0.460872	-0.892067
C90	C	1.797593	0.039128	-0.392067
C91	C	1.413425	-0.363381	-0.898788
C92	C	1.913425	0.136619	-0.398788
C93	C	1.418901	-0.358764	-0.993321
C94	C	1.918901	0.141236	-0.493321
C95	C	1.319680	-0.442326	-0.276269
C96	C	1.819680	0.057674	0.223731
C97	C	1.314024	-0.447024	-0.175668
C98	C	1.814024	0.052976	0.324332
H99	H	0.856322	-0.544623	-0.646075
H100	H	1.356322	-0.044623	-0.146075
N101	N	1.197001	-0.545497	-1.169887
N102	N	1.697001	-0.045497	-0.669887
N103	N	1.142390	-0.511737	-1.219312
N104	N	1.642390	-0.011737	-0.719312
H105	H	1.102573	-0.545226	-1.250988
H106	H	1.602573	-0.045226	-0.750988
N107	N	1.480836	-0.306597	-1.045037
N108	N	1.980836	0.193403	-0.545037
N109	N	1.474243	-0.232419	-1.034158
N110	N	1.974243	0.267581	-0.534158
H111	H	1.517982	-0.195572	-1.070682
H112	H	2.017982	0.304428	-0.570682
N113	N	0.662186	-0.348558	-0.413997
N114	N	1.162186	0.151442	0.086003
N115	N	0.701400	-0.307020	-0.364828
N116	N	1.201400	0.192980	0.135172
H117	H	0.664892	-0.270141	-0.321179
H118	H	1.164892	0.229859	0.178821
N119	N	1.431150	-0.348421	-1.183462
N120	N	1.931150	0.151579	-0.683462
N121	N	1.480404	-0.306954	-1.144255
N122	N	1.980404	0.193046	-0.644255
H123	H	1.524152	-0.270110	-1.180770
H124	H	2.024152	0.229890	-0.680770
N125	N	0.800619	-0.306616	-0.364370
N126	N	1.300619	0.193384	0.135630
N127	N	0.749746	-0.251155	-0.393289
N128	N	1.249746	0.248845	0.106711
H129	H	0.713231	-0.214272	-0.349648
H130	H	1.213231	0.285728	0.150352
N131	N	1.469771	-0.315939	-0.853926
N132	N	1.969771	0.184061	-0.353926
N133	N	1.464869	-0.320060	-0.769522
N134	N	1.964869	0.179940	-0.269522
H135	H	1.504658	-0.286551	-0.737836
H136	H	2.004658	0.213449	-0.237836
H137	H	1.248196	-0.502437	-0.850850
H138	H	1.748196	-0.002437	-0.350850
N139	N	1.005243	-0.513288	-0.608968
N140	N	1.505243	-0.013288	-0.108968
N141	N	0.966021	-0.554821	-0.658135
N142	N	1.466021	-0.054821	-0.158135
H143	H	1.002522	-0.591703	-0.701785
H144	H	1.502522	-0.091703	-0.201785
N145	N	0.991720	-0.315911	-0.375332
N146	N	1.491720	0.184089	0.124668
N147	N	1.076122	-0.320017	-0.380183
N148	N	1.576122	0.179983	0.119817
H149	H	1.107812	-0.286464	-0.340449
H150	H	1.607812	0.213536	0.159551
H151	H	1.198496	-0.544254	-0.989286
H152	H	1.698496	-0.044254	-0.489286
H153	H	0.684834	-0.536292	-0.636229
H154	H	1.184834	-0.036292	-0.136229
