data_functionalizedCrystal
_audit_creation_method	'MofGen! by Chris Wilmer'
_symmetry_space_group_name_H-M	'P1'
_symmetry_Int_Tables_number	1
_symmetry_cell_setting	triclinic
loop_
_symmetry_equiv_pos_as_xyz
  x,y,z
_cell_length_a	31.640172
_cell_length_b	18.878441
_cell_length_c	18.878441
_cell_angle_alpha	90.000507
_cell_angle_beta	59.999889
_cell_angle_gamma	60.005317
loop_
_atom_site_label
_atom_site_type_symbol
_atom_site_fract_x
_atom_site_fract_y
_atom_site_fract_z
Zr1	Zr	0.462570	0.682511	-0.092938
O2	O	0.550736	0.569425	-0.206041
O3	O	0.374403	0.717164	-0.058267
O4	O	0.462567	0.717185	-0.206041
O5	O	0.462575	0.569403	0.058301
O6	O	0.462564	0.833757	-0.206039
O7	O	0.462573	0.569404	-0.058267
O8	O	0.304855	0.833719	0.058301
O9	O	0.620284	0.569441	-0.206040
O10	O	0.410665	0.818956	-0.043478
O11	O	0.410669	0.731960	0.043515
O12	O	0.514470	0.731984	-0.130470
O13	O	0.514474	0.644988	-0.043478
Zr14	Zr	0.462570	0.868429	0.092977
Zr15	Zr	0.462566	0.868430	-0.092935
Zr16	Zr	0.462574	0.682510	0.092974
Zr17	Zr	0.573490	0.682536	-0.092936
Zr18	Zr	0.351649	0.868403	0.092975
O19	O	0.550736	0.833776	0.058306
O20	O	0.550731	0.833777	-0.206037
O21	O	0.550742	0.569423	0.058302
O22	O	0.374403	0.981515	0.206080
O23	O	0.374397	0.981517	-0.058263
O24	O	0.374409	0.717163	0.206076
O25	O	0.462564	0.981537	-0.058262
O26	O	0.462573	0.833755	0.206080
O27	O	0.462575	0.717183	0.206078
O28	O	0.462567	0.981536	0.058306
O29	O	0.620281	0.717221	-0.206038
O30	O	0.304859	0.833719	0.206077
O31	O	0.304855	0.981499	0.206079
O32	O	0.304852	0.981500	0.058303
O33	O	0.620287	0.569440	-0.058264
O34	O	0.620284	0.717221	-0.058262
O35	O	0.410669	0.818955	0.130509
O36	O	0.410665	0.905952	0.043517
O37	O	0.514470	0.818980	-0.043476
O38	O	0.514474	0.731983	0.043516
C39	C	0.323825	0.775438	0.000017
C40	C	0.276737	0.775427	0.000016
C41	C	0.462575	0.775469	0.232567
C42	C	0.462576	0.775468	0.311492
C43	C	0.462565	1.008026	0.000023
C44	C	0.462563	1.086953	0.000024
C45	C	-0.015307	0.820899	-0.045381
C46	C	-0.192303	0.820917	-0.045381
O47	O	-0.215209	0.859569	-0.083968
N48	N	-0.214430	0.775504	0.000026
C49	C	-0.192308	0.730089	0.045441
O50	O	-0.215194	0.691470	0.084070
C51	C	-0.015316	0.730076	0.045445
C52	C	0.006813	0.775485	0.000028
C53	C	0.006822	0.866304	-0.090794
C54	C	0.051070	0.866295	-0.090798
C55	C	0.073190	0.820881	-0.045388
C56	C	0.051061	0.775476	0.000024
C57	C	0.006802	0.684666	0.090865
C58	C	0.051051	0.684669	0.090864
C59	C	0.073180	0.730077	0.045446
C60	C	0.117430	0.730053	0.045430
N61	N	0.139557	0.775465	0.000023
C62	C	0.117437	0.820880	-0.045386
C63	C	-0.285231	0.730097	0.045434
C64	C	-0.329478	0.730099	0.045432
C65	C	-0.329470	0.820928	-0.045389
C66	C	-0.285219	0.820921	-0.045391
C67	C	-0.263103	0.775509	0.000027
C68	C	0.210363	0.820857	-0.045391
C69	C	0.254617	0.820841	-0.045393
C70	C	0.254603	0.730016	0.045431
C71	C	0.210355	0.730028	0.045430
C72	C	0.188234	0.775455	0.000017
O73	O	0.140359	0.691429	0.084005
O74	O	0.140322	0.859508	-0.083994
C75	C	-0.059556	0.820908	-0.045378
C76	C	-0.081684	0.775502	0.000035
C77	C	-0.059564	0.730088	0.045444
C78	C	-0.125931	0.775504	0.000033
C79	C	-0.148051	0.820918	-0.045377
C80	C	-0.125924	0.866331	-0.090784
C81	C	-0.081675	0.866322	-0.090787
C82	C	-0.081692	0.684676	0.090852
C83	C	-0.125940	0.684687	0.090851
C84	C	-0.148060	0.730101	0.045441
C85	C	0.601314	0.775502	0.000022
C86	C	0.648402	0.775513	0.000023
C87	C	0.462575	0.542914	0.000016
C88	C	0.462576	0.463986	0.000015
C89	C	0.408379	1.169432	0.045434
C90	C	0.408380	1.243590	0.045429
C91	C	0.462568	1.235267	0.000017
C92	C	0.516756	1.152780	-0.045399
C93	C	0.516754	1.078624	-0.045398
C94	C	0.516758	1.307347	-0.045396
C95	C	0.516761	1.381508	-0.045395
C96	C	0.408385	1.472313	0.045431
C97	C	0.408382	1.398157	0.045432
C98	C	0.462571	1.315675	0.000017
C99	C	0.462565	0.775471	-0.232528
C100	C	0.462563	0.775471	-0.311453
C101	C	0.516761	0.730071	0.303164
C102	C	0.516759	0.730067	0.377325
C103	C	0.462572	0.775466	0.459813
C104	C	0.408383	0.820864	0.468139
C105	C	0.408386	0.820863	0.393979
C106	C	0.408381	0.820866	0.622709
C107	C	0.408379	0.820869	0.696875
C108	C	0.516755	0.730070	0.606055
C109	C	0.516757	0.730069	0.531895
C110	C	0.462568	0.775469	0.540227
C111	C	0.323820	1.007994	0.000020
C112	C	0.276730	1.086911	0.000020
C113	C	0.323830	0.775437	0.232565
C114	C	0.276744	0.775426	0.311488
C115	C	0.323825	1.007993	0.232568
C116	C	0.276737	1.086909	0.311493
C117	C	0.601314	0.542947	-0.232529
C118	C	0.648402	0.464031	-0.311454
C119	C	0.601319	0.542946	0.000019
C120	C	0.648409	0.464029	0.000019
C121	C	0.601309	0.775503	-0.232526
C122	C	0.648396	0.775514	-0.311449
C123	C	0.254616	1.078560	-0.045398
C124	C	0.210376	1.152703	-0.045415
C125	C	0.188248	1.235197	-0.000008
C126	C	0.210366	1.243546	0.045411
C127	C	0.254609	1.169403	0.045422
C128	C	0.254631	0.820831	0.393970
C129	C	0.210394	0.820817	0.468134
C130	C	0.188267	0.775402	0.459815
C131	C	0.210384	0.729991	0.377325
C132	C	0.254623	0.730000	0.303163
C133	C	0.254622	1.169388	0.303148
C134	C	0.210383	1.243545	0.377299
C135	C	0.188258	1.235222	0.459794
C136	C	0.210377	1.152734	0.468138
C137	C	0.254618	1.078579	0.393987
C138	C	0.670523	0.381552	-0.303109
C139	C	0.714775	0.307394	-0.377260
C140	C	0.736903	0.315718	-0.459755
C141	C	0.714781	0.398206	-0.468099
C142	C	0.670532	0.472361	-0.393948
C143	C	0.670528	0.472380	0.045429
C144	C	0.714780	0.398237	0.045426
C145	C	0.736910	0.315743	0.000017
C146	C	0.714789	0.307394	-0.045399
C147	C	0.670541	0.381537	-0.045400
C148	C	0.670508	0.820938	-0.303103
C149	C	0.714746	0.820966	-0.377253
C150	C	0.736873	0.775564	-0.459749
C151	C	0.714756	0.730138	-0.468094
C152	C	0.670516	0.730117	-0.393945
H153	H	0.272634	0.857818	-0.082381
H154	H	0.652517	0.693123	-0.400753
H155	H	0.732780	0.240237	-0.370450
H156	H	0.732749	0.857955	-0.370441
Cl157	Cl	0.340259	1.347277	0.102519
Cl158	Cl	0.182555	1.142284	0.571853
Cl159	Cl	0.642720	0.576077	0.102517
Cl160	Cl	0.340256	0.877974	0.800575
H161	H	0.364263	0.857828	0.400765
Cl162	Cl	0.182597	0.877914	0.571825
H163	H	0.560881	0.693107	0.464731
Cl164	Cl	0.182560	0.672904	0.366882
H165	H	0.272623	0.693038	0.082399
H166	H	0.272622	0.693029	0.236005
Cl167	Cl	0.642725	0.576047	-0.404454
H168	H	0.272633	1.011396	-0.082383
H169	H	-0.063687	0.647695	0.127832
Cl170	Cl	0.132651	0.775401	0.553058
H171	H	-0.267229	0.693116	0.082422
H172	H	0.560877	1.146008	-0.082378
H173	H	0.364253	1.176219	0.082418
Cl174	Cl	0.340257	0.877940	0.633186
H175	H	0.272608	1.176215	0.082412
Cl176	Cl	0.182539	1.347259	0.102494
H177	H	0.272630	1.176182	0.235982
Cl178	Cl	0.282411	0.974893	0.404493
H179	H	0.652509	0.374758	-0.235944
Cl180	Cl	0.792529	0.222484	-0.552966
Cl181	Cl	0.340261	0.877932	0.571839
H182	H	0.364258	1.404940	0.082415
H183	H	0.652500	0.857910	-0.235937
H184	H	0.560886	0.693106	0.236002
H185	H	0.192373	1.145888	-0.082400
Cl186	Cl	0.742603	0.408655	-0.571814
Cl187	Cl	0.584883	1.371043	-0.102488
H188	H	0.772895	0.775588	-0.520119
H189	H	0.152222	1.295561	-0.000024
H190	H	0.364262	1.539476	0.082410
H191	H	0.272642	0.857814	0.400760
Cl192	Cl	0.642736	0.371023	-0.102487
Cl193	Cl	0.182582	1.347233	0.366790
Cl194	Cl	0.742614	0.203681	-0.102476
H195	H	0.152234	1.295611	0.520165
Cl196	Cl	0.742577	0.408753	0.102528
H197	H	0.732778	0.693173	-0.535272
H198	H	-0.143950	0.647702	0.127832
H199	H	0.192356	0.857849	-0.082369
Cl200	Cl	0.078881	0.923388	-0.147893
H201	H	-0.063661	0.903298	-0.127770
Cl202	Cl	-0.257406	0.878010	-0.102487
Cl203	Cl	-0.020974	0.923398	-0.147895
Cl204	Cl	-0.357283	0.672997	0.102517
Cl205	Cl	-0.357287	0.878022	-0.102473
Cl206	Cl	-0.021009	0.627581	0.147968
H207	H	0.772940	0.255379	0.000025
H208	H	0.069056	0.647687	0.127848
H209	H	-0.143939	0.903305	-0.127762
Cl210	Cl	0.182542	0.672930	0.102515
Cl211	Cl	0.584883	1.203655	-0.102496
Cl212	Cl	0.584880	0.672962	0.366850
Cl213	Cl	0.584878	0.672998	0.595581
Cl214	Cl	0.584875	0.974933	-0.102493
