data_functionalizedCrystal
_audit_creation_method	'MofGen! by Chris Wilmer'
_symmetry_space_group_name_H-M	'P1'
_symmetry_Int_Tables_number	1
_symmetry_cell_setting	triclinic
loop_
_symmetry_equiv_pos_as_xyz
  x,y,z
_cell_length_a	21.295418
_cell_length_b	21.295417
_cell_length_c	12.645323
_cell_angle_alpha	90.035966
_cell_angle_beta	90.040795
_cell_angle_gamma	90.046319
loop_
_atom_site_label
_atom_site_type_symbol
_atom_site_fract_x
_atom_site_fract_y
_atom_site_fract_z
Zn1	Zn	0.962338	-0.250326	0.599917
Zn2	Zn	1.295671	0.083007	0.933250
Zn3	Zn	1.629004	0.416340	1.266583
Zn4	Zn	0.962245	-0.355604	0.422629
Zn5	Zn	1.295579	-0.022271	0.755962
Zn6	Zn	1.628912	0.311062	1.089295
Zn7	Zn	0.857066	-0.250382	0.422602
Zn8	Zn	1.190399	0.082951	0.755936
Zn9	Zn	1.523733	0.416285	1.089269
Zn10	Zn	0.857030	-0.355591	0.599785
Zn11	Zn	1.190363	-0.022257	0.933119
Zn12	Zn	1.523697	0.311076	1.266452
O13	O	0.909670	-0.302976	0.511233
O14	O	1.243003	0.030358	0.844567
O15	O	1.576336	0.363691	1.177900
O16	O	1.050415	-0.264274	0.576465
O17	O	1.383748	0.069059	0.909799
O18	O	1.717081	0.402393	1.243132
O19	O	0.948270	-0.341676	0.274278
O20	O	1.281603	-0.008342	0.607611
O21	O	1.614936	0.324991	0.940944
O22	O	0.871084	-0.162285	0.446168
O23	O	1.204418	0.171048	0.779501
O24	O	1.537751	0.504381	1.112834
O25	O	1.050347	-0.341621	0.446212
O26	O	1.383680	-0.008288	0.779546
O27	O	1.717014	0.325045	1.112879
O28	O	0.948427	-0.162244	0.576440
O29	O	1.281760	0.171089	0.909773
O30	O	1.615093	0.504422	1.243106
O31	O	0.870995	-0.264369	0.274258
O32	O	1.204328	0.068964	0.607592
O33	O	1.537662	0.402298	0.940925
O34	O	0.768972	-0.264356	0.446040
O35	O	1.102305	0.068978	0.779373
O36	O	1.435639	0.402311	1.112707
O37	O	0.871023	-0.341598	0.748150
O38	O	1.204356	-0.008265	1.081483
O39	O	1.537690	0.325069	1.414817
O40	O	0.768946	-0.341652	0.576215
O41	O	1.102279	-0.008319	0.909549
O42	O	1.435612	0.325015	1.242882
O43	O	0.948392	-0.264261	0.748247
O44	O	1.281725	0.069073	1.081580
O45	O	1.615058	0.402406	1.414913
O46	O	0.948235	-0.443692	0.446085
O47	O	1.281568	-0.110359	0.779418
O48	O	1.614901	0.222975	1.112751
O49	O	0.870934	-0.443682	0.576241
O50	O	1.204267	-0.110348	0.909574
O51	O	1.537600	0.222985	1.242908
C52	C	0.746118	-0.303009	0.511111
C53	C	1.079451	0.030324	0.844445
C54	C	1.412785	0.363658	1.177778
C55	C	0.676150	-0.303038	0.511084
C56	C	1.009483	0.030295	0.844417
C57	C	1.342817	0.363628	1.177751
C58	C	0.643286	-0.343340	0.578765
C59	C	0.976619	-0.010006	0.912099
C60	C	1.309953	0.323327	1.245432
C61	C	0.577544	-0.343324	0.578813
C62	C	0.910877	-0.009991	0.912146
C63	C	1.244210	0.323342	1.245479
C64	C	0.544668	-0.303014	0.511160
C65	C	0.878001	0.030320	0.844494
C66	C	1.211334	0.363653	1.177827
C67	C	0.577539	-0.262705	0.443475
C68	C	0.910873	0.070629	0.776808
C69	C	1.244206	0.403962	1.110141
C70	C	0.643281	-0.262717	0.443437
C71	C	0.976614	0.070617	0.776770
C72	C	1.309947	0.403950	1.110103
N73	N	0.441394	-0.298101	0.418440
N74	N	0.774728	0.035233	0.751774
N75	N	1.108061	0.368566	1.085107
N76	N	0.378943	-0.298093	0.418480
N77	N	0.712276	0.035241	0.751813
N78	N	1.045610	0.368574	1.085146
C79	C	0.346593	-0.302974	0.511273
C80	C	0.679926	0.030360	0.844606
C81	C	1.013260	0.363693	1.177940
N82	N	0.379053	-0.307875	0.604027
N83	N	0.712387	0.025458	0.937361
N84	N	1.045720	0.358791	1.270694
N85	N	0.441511	-0.307886	0.603987
N86	N	0.774844	0.025447	0.937320
N87	N	1.108177	0.358780	1.270654
C88	C	0.473382	-0.302996	0.511195
C89	C	0.806716	0.030338	0.844528
C90	C	1.140049	0.363671	1.177861
C91	C	0.242443	-0.343260	0.579011
C92	C	0.575777	-0.009927	0.912345
C93	C	0.909110	0.323406	1.245678
C94	C	0.176700	-0.343241	0.579061
C95	C	0.510033	-0.009907	0.912394
C96	C	0.843366	0.323426	1.245727
C97	C	0.176697	-0.262624	0.443713
C98	C	0.510030	0.070709	0.777046
C99	C	0.843364	0.404042	1.110380
C100	C	0.242439	-0.262641	0.443673
C101	C	0.575773	0.070693	0.777006
C102	C	0.909106	0.404026	1.110340
C103	C	0.275309	-0.302962	0.511321
C104	C	0.608642	0.030371	0.844654
C105	C	0.941975	0.363704	1.177987
C106	C	0.909587	-0.466527	0.511175
C107	C	1.242921	-0.133194	0.844508
C108	C	1.576254	0.200139	1.177841
C109	C	0.909610	-0.536496	0.511185
C110	C	1.242943	-0.203162	0.844518
C111	C	1.576276	0.130171	1.177852
C112	C	0.949896	-0.569347	0.443482
C113	C	1.283229	-0.236013	0.776815
C114	C	1.616563	0.097320	1.110149
C115	C	0.949926	-0.635089	0.443506
C116	C	1.283259	-0.301756	0.776839
C117	C	1.616592	0.031578	1.110173
C118	C	0.909657	-0.667978	0.511221
C119	C	1.242991	-0.334645	0.844555
C120	C	1.576324	-0.001311	1.177888
C121	C	0.869368	-0.635119	0.578937
C122	C	1.202701	-0.301786	0.912271
C123	C	1.536035	0.031548	1.245604
C124	C	0.869344	-0.569378	0.578919
C125	C	1.202677	-0.236044	0.912252
C126	C	1.536011	0.097289	1.245586
N127	N	0.854590	-0.771259	0.519262
N128	N	1.187923	-0.437925	0.852595
N129	N	1.521257	-0.104592	1.185929
N130	N	0.854615	-0.833710	0.519273
N131	N	1.187948	-0.500377	0.852606
N132	N	1.521281	-0.167043	1.185940
C133	C	0.909728	-0.866053	0.511282
C134	C	1.243061	-0.532719	0.844616
C135	C	1.576395	-0.199386	1.177949
N136	N	0.964817	-0.833585	0.503259
N137	N	1.298150	-0.500251	0.836592
N138	N	1.631484	-0.166918	1.169926
N139	N	0.964792	-0.771127	0.503242
N140	N	1.298125	-0.437794	0.836576
N141	N	1.631458	-0.104461	1.169909
C142	C	0.909679	-0.739263	0.511249
C143	C	1.243012	-0.405930	0.844583
C144	C	1.576346	-0.072597	1.177916
C145	C	0.950050	-0.970189	0.443602
C146	C	1.283383	-0.636856	0.776935
C147	C	1.616716	-0.303523	1.110268
C148	C	0.950080	-1.035933	0.443633
C149	C	1.283414	-0.702600	0.776966
C150	C	1.616747	-0.369266	1.110300
C151	C	0.869517	-1.035962	0.579059
C152	C	1.202850	-0.702628	0.912392
C153	C	1.536184	-0.369295	1.245726
C154	C	0.869492	-0.970219	0.579033
C155	C	1.202826	-0.636886	0.912367
C156	C	1.536159	-0.303553	1.245700
C157	C	0.909758	-0.937337	0.511299
C158	C	1.243091	-0.604004	0.844632
C159	C	1.576424	-0.270670	1.177966
C160	C	1.073860	-0.302943	0.511356
C161	C	1.407193	0.030390	0.844690
C162	C	1.740527	0.363724	1.178023
C163	C	1.143828	-0.302929	0.511409
C164	C	1.477162	0.030404	0.844742
C165	C	1.810495	0.363738	1.178076
C166	C	0.909714	-0.302921	0.787739
C167	C	1.243047	0.030412	1.121072
C168	C	1.576380	0.363745	1.454405
C169	C	0.909732	-0.302898	0.905569
C170	C	1.243066	0.030435	1.238902
C171	C	1.576399	0.363768	1.572236
C172	C	0.909770	-0.138785	0.511315
C173	C	1.243103	0.194548	0.844649
C174	C	1.576436	0.527881	1.177982
C175	C	0.909812	-0.068817	0.511350
C176	C	1.243146	0.264516	0.844684
C177	C	1.576479	0.597849	1.178017
C178	C	0.909662	-0.302984	0.235804
C179	C	1.242996	0.030349	0.569137
C180	C	1.576329	0.363682	0.902470
C181	C	0.909766	-0.302830	0.117974
C182	C	1.243099	0.030503	0.451307
C183	C	1.576432	0.363836	0.784641
C184	C	0.861062	-0.351541	0.950390
C185	C	1.194396	-0.018208	1.283723
C186	C	1.527729	0.315125	1.617057
C187	C	0.860891	-0.351358	1.072950
C188	C	1.194224	-0.018025	1.406283
C189	C	1.527558	0.315308	1.739617
C190	C	0.892011	-0.236457	1.073479
C191	C	1.225344	0.096876	1.406812
C192	C	1.558677	0.430209	1.740146
C193	C	0.891638	-0.236778	0.950880
C194	C	1.224971	0.096555	1.284214
C195	C	1.558305	0.429888	1.617547
C196	C	0.976287	-0.320034	0.950792
C197	C	1.309621	0.013300	1.284126
C198	C	1.642954	0.346633	1.617459
C199	C	0.975949	-0.321458	1.073398
C200	C	1.309283	0.011876	1.406731
C201	C	1.642616	0.345209	1.740065
H202	H	0.149930	-0.229800	0.388634
H203	H	0.483263	0.103534	0.721967
H204	H	0.816597	0.436867	1.055301
N205	N	0.676850	-0.384529	0.647871
N206	N	1.010184	-0.051196	0.981204
N207	N	1.343517	0.282138	1.314538
N208	N	0.647494	-0.420510	0.708298
N209	N	0.980827	-0.087176	1.041632
N210	N	1.314161	0.246157	1.374965
H211	H	0.671199	-0.449600	0.757107
H212	H	1.004533	-0.116266	1.090440
H213	H	1.337866	0.217067	1.423773
H214	H	0.982838	-0.943415	0.388451
H215	H	1.316172	-0.610082	0.721785
H216	H	1.649505	-0.276749	1.055118
N217	N	0.991022	-0.535750	0.374304
N218	N	1.324356	-0.202417	0.707637
N219	N	1.657689	0.130916	1.040971
N220	N	1.031109	-0.498993	0.411657
N221	N	1.364442	-0.165660	0.744990
N222	N	1.697776	0.167673	1.078324
H223	H	1.060150	-0.475261	0.362796
H224	H	1.393484	-0.141927	0.696130
H225	H	1.726817	0.191406	1.029463
H226	H	0.269197	-0.229826	0.388554
H227	H	0.602531	0.103507	0.721888
H228	H	0.935864	0.436841	1.055221
H229	H	0.989341	-0.370306	1.102476
H230	H	1.322674	-0.036973	1.435810
H231	H	1.656007	0.296361	1.769143
N232	N	0.676854	-0.221541	0.374310
N233	N	1.010188	0.111792	0.707644
N234	N	1.343521	0.445125	1.040977
N235	N	0.669579	-0.163459	0.381533
N236	N	1.002912	0.169875	0.714867
N237	N	1.336245	0.503208	1.048200
H238	H	0.693292	-0.134378	0.332712
H239	H	1.026625	0.198956	0.666045
H240	H	1.359958	0.532289	0.999379
H241	H	1.014143	-0.288611	1.104054
H242	H	1.347477	0.044722	1.437387
H243	H	1.680810	0.378055	1.770720
H244	H	0.925559	-0.199287	0.921232
H245	H	1.258892	0.134047	1.254565
H246	H	1.592225	0.467380	1.587898
H247	H	0.982734	-0.661842	0.388374
H248	H	1.316067	-0.328508	0.721708
H249	H	1.649401	0.004825	1.055041
H250	H	0.871974	-0.400569	1.103033
H251	H	1.205307	-0.067236	1.436366
H252	H	1.538641	0.266097	1.769700
N253	N	0.874799	-0.413493	0.913411
N254	N	1.208132	-0.080160	1.246744
N255	N	1.541466	0.253173	1.580077
N256	N	0.920617	-0.422521	0.853585
N257	N	1.253950	-0.089188	1.186919
N258	N	1.587283	0.244145	1.520252
H259	H	0.930321	-0.466277	0.827465
H260	H	1.263655	-0.132944	1.160798
H261	H	1.596988	0.200390	1.494131
N262	N	0.828197	-0.535819	0.648092
N263	N	1.161530	-0.202486	0.981425
N264	N	1.494864	0.130848	1.314759
N265	N	0.832348	-0.543108	0.745923
N266	N	1.165681	-0.209775	1.079256
N267	N	1.499014	0.123559	1.412590
H268	H	0.803287	-0.519406	0.794778
H269	H	1.136620	-0.186073	1.128112
H270	H	1.469954	0.147260	1.461445
N271	N	0.276033	-0.384429	0.648122
N272	N	0.609366	-0.051096	0.981455
N273	N	0.942700	0.282237	1.314788
N274	N	0.334730	-0.384435	0.648079
N275	N	0.668063	-0.051102	0.981413
N276	N	1.001397	0.282232	1.314746
H277	H	0.358452	-0.413509	0.696891
H278	H	0.691786	-0.080176	1.030224
H279	H	1.025119	0.253157	1.363558
N280	N	0.143137	-0.384408	0.648216
N281	N	0.476471	-0.051075	0.981549
N282	N	0.809804	0.282259	1.314883
N283	N	0.172496	-0.420402	0.708608
N284	N	0.505829	-0.087068	1.041941
N285	N	0.839163	0.246265	1.375275
H286	H	0.148793	-0.449477	0.757452
H287	H	0.482126	-0.116144	1.090785
H288	H	0.815459	0.217189	1.424119
H289	H	0.836684	-0.943470	0.634159
H290	H	1.170018	-0.610137	0.967492
H291	H	1.503351	-0.276803	1.300826
N292	N	0.935135	-0.189728	1.110067
N293	N	1.268469	0.143605	1.443400
N294	N	1.601802	0.476939	1.776734
N295	N	0.979541	-0.204858	1.169488
N296	N	1.312875	0.128476	1.502822
N297	N	1.646208	0.461809	1.836155
H298	H	1.010000	-0.171856	1.195331
H299	H	1.343333	0.161477	1.528664
H300	H	1.676666	0.494810	1.861997
H301	H	0.836582	-0.661901	0.634074
H302	H	1.169916	-0.328568	0.967407
H303	H	1.503249	0.004765	1.300740
H304	H	0.812027	-0.340323	0.919553
H305	H	1.145360	-0.006989	1.252887
H306	H	1.478694	0.326344	1.586220
N307	N	0.799034	-0.337091	1.109701
N308	N	1.132367	-0.003757	1.443034
N309	N	1.465700	0.329576	1.776368
N310	N	0.755855	-0.327232	1.044805
N311	N	1.089189	0.006101	1.378138
N312	N	1.422522	0.339434	1.711472
H313	H	0.712165	-0.317155	1.070758
H314	H	1.045499	0.016178	1.404092
H315	H	1.378832	0.349512	1.737425
H316	H	0.550768	-0.229882	0.388394
H317	H	0.884101	0.103451	0.721727
H318	H	1.217434	0.436784	1.055060
H319	H	0.982890	-1.062679	0.388503
H320	H	1.316224	-0.729346	0.721837
H321	H	1.649557	-0.396012	1.055170
H322	H	0.836733	-1.062739	0.634199
H323	H	1.170066	-0.729406	0.967532
H324	H	1.503399	-0.396073	1.300866
N325	N	0.830616	-0.218584	0.914984
N326	N	1.163950	0.114749	1.248317
N327	N	1.497283	0.448082	1.581650
N328	N	0.788600	-0.205740	0.980475
N329	N	1.121933	0.127594	1.313808
N330	N	1.455266	0.460927	1.647142
H331	H	0.745501	-0.192890	0.955129
H332	H	1.078834	0.140443	1.288462
H333	H	1.412167	0.473777	1.621796
N334	N	0.831673	-0.217931	1.111972
N335	N	1.165006	0.115402	1.445305
N336	N	1.498340	0.448735	1.778639
N337	N	0.801644	-0.253495	1.172161
N338	N	1.134977	0.079838	1.505495
N339	N	1.468311	0.413171	1.838828
H340	H	0.759029	-0.240415	1.199347
H341	H	1.092362	0.092918	1.532681
H342	H	1.425696	0.426252	1.866014
H343	H	1.012546	-0.284602	0.921818
H344	H	1.345879	0.048731	1.255151
H345	H	1.679213	0.382065	1.588484
N346	N	0.543974	-0.384496	0.647959
N347	N	0.877307	-0.051163	0.981292
N348	N	1.210641	0.282171	1.314626
N349	N	0.573329	-0.420491	0.708353
N350	N	0.906663	-0.087158	1.041687
N351	N	1.239996	0.246176	1.375020
H352	H	0.549623	-0.449570	0.757188
H353	H	0.882957	-0.116236	1.090521
H354	H	1.216290	0.217097	1.423855
N355	N	0.996617	-0.379738	0.911997
N356	N	1.329951	-0.046405	1.245330
N357	N	1.663284	0.286929	1.578663
N358	N	1.002884	-0.388358	0.814790
N359	N	1.336217	-0.055025	1.148124
N360	N	1.669550	0.278308	1.481457
H361	H	1.017237	-0.430526	0.787388
H362	H	1.350571	-0.097193	1.120721
H363	H	1.683904	0.236141	1.454054
