data_functionalizedCrystal
_audit_creation_method	'MofGen! by Chris Wilmer'
_symmetry_space_group_name_H-M	'P1'
_symmetry_Int_Tables_number	1
_symmetry_cell_setting	triclinic
loop_
_symmetry_equiv_pos_as_xyz
  x,y,z
_cell_length_a	15.297475
_cell_length_b	12.594516
_cell_length_c	15.298431
_cell_angle_alpha	80.293286
_cell_angle_beta	88.369029
_cell_angle_gamma	80.319586
loop_
_atom_site_label
_atom_site_type_symbol
_atom_site_fract_x
_atom_site_fract_y
_atom_site_fract_z
Zn1	Zn	1.253572	-0.531641	-0.726702
Zn2	Zn	1.278826	-0.744727	-0.580222
Zn3	Zn	1.132420	-0.541991	-0.554929
Zn4	Zn	1.107069	-0.684797	-0.701356
O5	O	1.192972	-0.625789	-0.640802
O6	O	1.379506	-0.580656	-0.728464
O7	O	1.280583	-0.747246	-0.454283
O8	O	1.148533	-0.391676	-0.577737
O9	O	1.398059	-0.737210	-0.620845
O10	O	1.237542	-0.384072	-0.703939
O11	O	1.173020	-0.598297	-0.435701
O12	O	1.006474	-0.540185	-0.553160
O13	O	1.105324	-0.635067	-0.827301
O14	O	0.987848	-0.645104	-0.660739
O15	O	1.212960	-0.522544	-0.845923
O16	O	1.256001	-0.885719	-0.596268
O17	O	1.129811	-0.841688	-0.685265
C18	C	0.965376	-0.587265	-0.601455
C19	C	0.868007	-0.570805	-0.584643
C20	C	0.554906	-0.743437	-0.760962
C21	C	0.646390	-0.758911	-0.776755
C22	C	0.701798	-0.711886	-0.728729
C23	C	0.665714	-0.649385	-0.664906
C24	C	0.574222	-0.633917	-0.649106
C25	C	0.721114	-0.602365	-0.616873
C26	C	0.685030	-0.539864	-0.553051
C27	C	0.593546	-0.524398	-0.537254
C28	C	0.538138	-0.571424	-0.585281
C29	C	0.812607	-0.617833	-0.632673
C30	C	0.831923	-0.508312	-0.520817
C31	C	0.740439	-0.492839	-0.505024
C32	C	1.192916	-0.902322	-0.640784
C33	C	1.192967	-1.020631	-0.640819
C34	C	1.124334	-1.065983	-0.689182
C35	C	1.116821	-1.152387	-0.605566
C36	C	1.200558	-1.145036	-0.724463
C37	C	1.185418	-1.105480	-0.557153
C38	C	1.269184	-1.098115	-0.676110
C39	C	1.261710	-1.184506	-0.592444
C40	C	1.421456	-0.664463	-0.680303
C41	C	1.518822	-0.680944	-0.697136
C42	C	1.153497	-0.570966	-0.869285
C43	C	1.136676	-0.547604	-0.966651
C44	C	1.193048	-0.348175	-0.640844
C45	C	1.193081	-0.229873	-0.640862
C46	C	1.072769	-0.459075	-1.002712
C47	C	1.056953	-0.437124	-1.094190
C48	C	1.105047	-0.503696	-1.149617
C49	C	1.168960	-0.592223	-1.113557
C50	C	1.184772	-0.614181	-1.022069
C51	C	1.217050	-0.658802	-1.168975
C52	C	1.280963	-0.747329	-1.132915
C53	C	1.296773	-0.769282	-1.041436
C54	C	1.248679	-0.702710	-0.986009
C55	C	1.201238	-0.636844	-1.260462
C56	C	1.313241	-0.791950	-1.279820
C57	C	1.329057	-0.813900	-1.188342
C58	C	1.232343	-0.680330	-0.413217
C59	C	1.249334	-0.703420	-0.315881
H60	H	0.841977	-0.668721	-0.684639
C61	C	1.031025	-1.184781	-0.565769
C62	C	1.032582	-1.296294	-0.565568
C63	C	0.953566	-1.326171	-0.528910
H64	H	0.982208	-1.143705	-0.600125
H65	H	1.025195	-1.170497	-0.506670
H66	H	1.038403	-1.310568	-0.624657
H67	H	1.081382	-1.337396	-0.531208
H68	H	0.947736	-1.311886	-0.469812
H69	H	0.904755	-1.285088	-0.563270
H70	H	0.954615	-1.401836	-0.528762
H71	H	1.066218	-1.014731	-0.729994
C72	C	1.355090	-1.065898	-0.715741
C73	C	1.399876	-1.026915	-0.652414
C74	C	1.479021	-0.997238	-0.688896
H75	H	1.342140	-1.010306	-0.766058
H76	H	1.391357	-1.127817	-0.733117
H77	H	1.363617	-0.965003	-0.635051
H78	H	1.412849	-1.082490	-0.602095
H79	H	1.515288	-1.059157	-0.706272
H80	H	1.466062	-0.941648	-0.739212
H81	H	1.509422	-0.970794	-0.645932
H82	H	0.776288	-0.724487	-0.741592
C83	C	1.208932	-1.168703	-0.818815
C84	C	1.136859	-1.107858	-0.869119
C85	C	1.144542	-1.129615	-0.956042
H86	H	1.209423	-1.244338	-0.818232
H87	H	1.262543	-1.149077	-0.844247
H88	H	1.083263	-1.127490	-0.843694
H89	H	1.136355	-1.032220	-0.869728
H90	H	1.198153	-1.109989	-0.981473
H91	H	1.145034	-1.205251	-0.955450
H92	H	1.095647	-1.088328	-0.990186
C93	C	1.176671	-1.081926	-0.462778
C94	C	1.097175	-1.110072	-0.425967
C95	C	1.089089	-1.088400	-0.339030
H96	H	1.176601	-1.006401	-0.463226
H97	H	1.225179	-1.123679	-0.428321
H98	H	1.048679	-1.068317	-0.460415
H99	H	1.097227	-1.185593	-0.425496
H100	H	1.137597	-1.130153	-0.304573
H101	H	1.089022	-1.012875	-0.339486
H102	H	1.035155	-1.107503	-0.314039
H103	H	1.149200	-0.564764	-1.289813
C104	C	0.685390	-0.826752	-0.846114
C105	C	0.617285	-0.864600	-0.884809
C106	C	0.653178	-0.927090	-0.948718
H107	H	0.726853	-0.887223	-0.818797
H108	H	0.714463	-0.782985	-0.890548
H109	H	0.588227	-0.908366	-0.840383
H110	H	0.575818	-0.804153	-0.912144
H111	H	0.682250	-0.883323	-0.993152
H112	H	0.694640	-0.987555	-0.921394
H113	H	0.606974	-0.952769	-0.974986
C114	C	1.339087	-1.252578	-0.537704
C115	C	1.330765	-1.232778	-0.450254
C116	C	1.402017	-1.295480	-0.399797
H117	H	1.393156	-1.233277	-0.562133
H118	H	1.338986	-1.327854	-0.538355
H119	H	1.330875	-1.157518	-0.449607
H120	H	1.276711	-1.252085	-0.425799
H121	H	1.401916	-1.370756	-0.400449
H122	H	1.456081	-1.276173	-0.424235
H123	H	1.396376	-1.282061	-0.340456
C124	C	1.398368	-0.910157	-1.149285
C125	C	1.375425	-1.006893	-1.168240
C126	C	1.439257	-1.095585	-1.132284
H127	H	1.400950	-0.913851	-1.086860
H128	H	1.454653	-0.901015	-1.174476
H129	H	1.319156	-1.016034	-1.143045
H130	H	1.372850	-1.003235	-1.230658
H131	H	1.495541	-1.086442	-1.157475
H132	H	1.441834	-1.099268	-1.069861
H133	H	1.423703	-1.161229	-1.145147
C134	C	0.701283	-0.424795	-0.435844
C135	C	0.720210	-0.318664	-0.458920
C136	C	0.684144	-0.255949	-0.395219
H137	H	0.726399	-0.456778	-0.379513
H138	H	0.638852	-0.422246	-0.433323
H139	H	0.782628	-0.321217	-0.461431
H140	H	0.695093	-0.286649	-0.515241
H141	H	0.621713	-0.253400	-0.392698
H142	H	0.709263	-0.287941	-0.338892
H143	H	0.696973	-0.183930	-0.410872
C144	C	0.892050	-0.457408	-0.468516
C145	C	0.884776	-0.497481	-0.377968
C146	C	0.940166	-0.450632	-0.329764
H147	H	0.874895	-0.380281	-0.478737
H148	H	0.951723	-0.475593	-0.487009
H149	H	0.825117	-0.479288	-0.359480
H150	H	0.901938	-0.574602	-0.367720
H151	H	0.999839	-0.468816	-0.348257
H152	H	0.923006	-0.373506	-0.339992
H153	H	0.935244	-0.477821	-0.268323
H154	H	1.092166	-0.485818	-1.224102
C155	C	0.987565	-0.340928	-1.133175
C156	C	0.948848	-0.287308	-1.065061
C157	C	0.884930	-0.198672	-1.100943
H158	H	0.943138	-0.366483	-1.162246
H159	H	1.014904	-0.291607	-1.174643
H160	H	0.921508	-0.336620	-1.023610
H161	H	0.993252	-0.261728	-1.035985
H162	H	0.912270	-0.149350	-1.142410
H163	H	0.840510	-0.224237	-1.130013
H164	H	0.858659	-0.162274	-1.054735
C165	C	1.265841	-0.726770	-0.886683
C166	C	1.248711	-0.831589	-0.852536
C167	C	1.264518	-0.853793	-0.761043
H168	H	1.228068	-0.674548	-0.858732
H169	H	1.325967	-0.722970	-0.875735
H170	H	1.188595	-0.835380	-0.863477
H171	H	1.286480	-0.883834	-0.880462
H172	H	1.324644	-0.849993	-0.750094
H173	H	1.226744	-0.801565	-0.733100
H174	H	1.252906	-0.924918	-0.737863
C175	C	1.020679	-0.386902	-0.942394
C176	C	1.048222	-0.425068	-0.854563
C177	C	1.000260	-0.358596	-0.798974
H178	H	0.959209	-0.388868	-0.947092
H179	H	1.030947	-0.313951	-0.959559
H180	H	1.037947	-0.498000	-0.837403
H181	H	1.109685	-0.423098	-0.849836
H182	H	1.010528	-0.285646	-0.816139
H183	H	0.938793	-0.360567	-0.803680
H184	H	1.018947	-0.384476	-0.739376
C185	C	1.365411	-0.864067	-1.340142
C186	C	1.337906	-0.825868	-1.427980
C187	C	1.385950	-0.892259	-1.483580
H188	H	1.355204	-0.937038	-1.323046
H189	H	1.426873	-0.862026	-1.335381
H190	H	1.276459	-0.827920	-1.432738
H191	H	1.348115	-0.752906	-1.445104
H192	H	1.447412	-0.890218	-1.478818
H193	H	1.375739	-0.965226	-1.466476
H194	H	1.367301	-0.866344	-1.543185
C195	C	0.438792	-0.554420	-0.568226
C196	C	0.404636	-0.442624	-0.585510
C197	C	0.313119	-0.426930	-0.569825
H198	H	0.427733	-0.582700	-0.508108
H199	H	0.410936	-0.591319	-0.605997
H200	H	0.432482	-0.405739	-0.547739
H201	H	0.415670	-0.414320	-0.645624
H202	H	0.285263	-0.463829	-0.607596
H203	H	0.302070	-0.455215	-0.509707
H204	H	0.289931	-0.351077	-0.581557
C205	C	1.366091	-0.865536	-1.002388
C206	C	1.343154	-0.962272	-1.021349
C207	C	1.406995	-1.050960	-0.985406
H208	H	1.368680	-0.869238	-0.939963
H209	H	1.422371	-0.856383	-1.027585
H210	H	1.286889	-0.971424	-0.996149
H211	H	1.340572	-0.958606	-1.083767
H212	H	1.463275	-1.041807	-1.010603
H213	H	1.409579	-1.054652	-0.922983
H214	H	1.391445	-1.116605	-0.998273
H215	H	0.509785	-0.781726	-0.800053
C216	C	0.554526	-0.456670	-0.467821
C217	C	0.591777	-0.504248	-0.384974
C218	C	0.555873	-0.441884	-0.320988
H219	H	0.492112	-0.454143	-0.465151
H220	H	0.567333	-0.384617	-0.483280
H221	H	0.578964	-0.576282	-0.369518
H222	H	0.654188	-0.506775	-0.387615
H223	H	0.568680	-0.369831	-0.336447
H224	H	0.493460	-0.439360	-0.318326
H225	H	0.581148	-0.474151	-0.264771
