data_functionalizedCrystal
_audit_creation_method	'MofGen! by Chris Wilmer'
_symmetry_space_group_name_H-M	'P1'
_symmetry_Int_Tables_number	1
_symmetry_cell_setting	triclinic
loop_
_symmetry_equiv_pos_as_xyz
  x,y,z
_cell_length_a	17.699091
_cell_length_b	17.699083
_cell_length_c	16.776229
_cell_angle_alpha	90.002452
_cell_angle_beta	90.007233
_cell_angle_gamma	83.284545
loop_
_atom_site_label
_atom_site_type_symbol
_atom_site_fract_x
_atom_site_fract_y
_atom_site_fract_z
O1	O	-0.095699	-1.004079	0.066174
O2	O	-0.108151	-0.783701	0.066200
O3	O	0.008264	-0.900113	0.066184
O4	O	-0.212114	-0.887666	0.066191
O5	O	0.008243	-0.900102	-0.066393
O6	O	-0.108172	-0.783690	-0.066376
O7	O	-0.095719	-1.004068	-0.066402
Zn8	Zn	-0.101949	-0.893877	-0.087438
Zn9	Zn	-0.101922	-0.893891	0.087237
O10	O	-0.212134	-0.887656	-0.066385
C11	C	-0.107715	-0.755498	-0.000085
C12	C	-0.106377	-0.671480	-0.000075
C13	C	0.036450	-0.899661	-0.000104
C14	C	0.120468	-0.898320	-0.000101
C15	C	-0.096155	-1.032270	-0.000115
C16	C	-0.097494	-1.116288	-0.000120
C17	C	0.159947	-0.897697	0.072167
C18	C	0.238890	-0.896433	0.072168
C19	C	0.278353	-0.895796	-0.000101
C20	C	0.238869	-0.896416	-0.072374
C21	C	0.159927	-0.897675	-0.072374
C22	C	0.557234	-0.891336	-0.072378
C23	C	0.636182	-0.890079	-0.072373
C24	C	0.636197	-0.890094	0.072163
C25	C	0.557255	-0.891353	0.072164
C26	C	0.517777	-0.891969	-0.000109
C27	C	0.432178	-0.893339	-0.000109
C28	C	0.363952	-0.894431	-0.000102
C29	C	0.759679	-0.888109	-0.000099
C30	C	0.675662	-0.889451	-0.000104
N31	N	-0.101966	-0.893873	-0.206650
C32	C	-0.174710	-0.622861	-0.000073
C33	C	-0.173448	-0.543918	-0.000083
C34	C	-0.103851	-0.513595	-0.000090
C35	C	-0.035513	-0.562220	-0.000094
C36	C	-0.036776	-0.641162	-0.000090
C37	C	-0.030418	-0.243857	-0.000114
C38	C	-0.029160	-0.164909	-0.000116
C39	C	-0.167089	-0.146613	-0.000108
C40	C	-0.168352	-0.225555	-0.000103
C41	C	-0.100014	-0.274173	-0.000112
C42	C	-0.101384	-0.359772	-0.000102
C43	C	-0.102481	-0.427997	-0.000094
C44	C	-0.056058	-0.848083	-0.751817
C45	C	-0.056064	-0.848081	-0.668365
C46	C	-0.101916	-0.893895	-0.626649
C47	C	-0.147758	-0.939719	-0.668389
C48	C	-0.147747	-0.939724	-0.751840
C49	C	-0.147803	-0.939699	-0.331842
C50	C	-0.147812	-0.939689	-0.248386
C51	C	-0.056119	-0.848056	-0.248367
C52	C	-0.056108	-0.848061	-0.331818
C53	C	-0.101948	-0.893888	-0.373551
C54	C	-0.101939	-0.893891	-0.464039
C55	C	-0.101929	-0.893889	-0.536162
N56	N	-0.101898	-0.893902	0.206448
H57	H	0.127822	-0.898220	0.131017
Br58	Br	0.065299	-0.123758	-0.000123
H59	H	0.271030	-0.895929	0.131016
Br60	Br	0.503701	-0.892224	0.170246
H61	H	0.668349	-0.889588	0.131012
Br62	Br	0.006126	-0.785870	-0.611728
H63	H	0.025227	-0.283433	-0.000122
Br64	Br	0.689740	-0.889216	-0.170459
H65	H	-0.018774	-0.810752	-0.365779
H66	H	-0.185128	-0.977014	-0.365811
Br67	Br	0.006167	-0.785897	-0.808424
Br68	Br	-0.262807	-0.266703	-0.000086
H69	H	-0.229091	-0.504335	-0.000080
Br70	Br	0.503665	-0.892157	-0.170463
Br71	Br	-0.210045	-1.001866	-0.191771
Br72	Br	0.058941	-0.521069	-0.000111
H73	H	0.271006	-0.895893	-0.131217
H74	H	-0.018793	-0.810743	-0.214378
Br75	Br	-0.209980	-1.001901	-0.611776
H76	H	-0.222733	-0.107018	-0.000105
H77	H	-0.185075	-0.977035	-0.785819
H78	H	0.127783	-0.898171	-0.131222
Br79	Br	0.055965	-0.707147	-0.000099
Br80	Br	-0.269167	-0.664005	-0.000055
