data_functionalizedCrystal
_audit_creation_method	'MofGen! by Chris Wilmer'
_symmetry_space_group_name_H-M	'P1'
_symmetry_Int_Tables_number	1
_symmetry_cell_setting	triclinic
loop_
_symmetry_equiv_pos_as_xyz
  x,y,z
_cell_length_a	19.077105
_cell_length_b	12.827892
_cell_length_c	19.076919
_cell_angle_alpha	92.275535
_cell_angle_beta	90.076224
_cell_angle_gamma	87.711903
loop_
_atom_site_label
_atom_site_type_symbol
_atom_site_fract_x
_atom_site_fract_y
_atom_site_fract_z
Zn1	Zn	1.058323	-0.505562	-0.440440
Zn2	Zn	1.062981	-0.673587	-0.322941
Zn3	Zn	0.945540	-0.491563	-0.318233
Zn4	Zn	0.940802	-0.672957	-0.435693
O5	O	1.001912	-0.585917	-0.379327
O6	O	1.157274	-0.533973	-0.428810
O7	O	1.051334	-0.643846	-0.223985
O8	O	0.960534	-0.347187	-0.334460
O9	O	1.160695	-0.657421	-0.342484
O10	O	1.043396	-0.357472	-0.424245
O11	O	0.965050	-0.510114	-0.220526
O12	O	0.846579	-0.509503	-0.329857
O13	O	0.952460	-0.656347	-0.534655
O14	O	0.843098	-0.642772	-0.416155
O15	O	1.038802	-0.533362	-0.538142
O16	O	1.046740	-0.819737	-0.337881
O17	O	0.956976	-0.819274	-0.420720
C18	C	0.819342	-0.574551	-0.371981
C19	C	0.741237	-0.569714	-0.368855
C20	C	0.702753	-0.636925	-0.412246
C21	C	0.629365	-0.632367	-0.409312
C22	C	0.594463	-0.560602	-0.362983
C23	C	0.632953	-0.493385	-0.319590
C24	C	0.706339	-0.497938	-0.322528
C25	C	0.375174	-0.539528	-0.349389
C26	C	0.301782	-0.534981	-0.346453
C27	C	0.298199	-0.673963	-0.436177
C28	C	0.371587	-0.678514	-0.439108
C29	C	0.410071	-0.611293	-0.395717
N30	N	0.519449	-0.555944	-0.359982
N31	N	0.485083	-0.615947	-0.398723
C32	C	1.001868	-0.857424	-0.379313
C33	C	1.001913	-0.973581	-0.379333
C34	C	1.046380	-1.025566	-0.338391
C35	C	1.046427	-1.145620	-0.338411
C36	C	1.185194	-0.597329	-0.386702
C37	C	1.263298	-0.602192	-0.389845
C38	C	0.994583	-0.596346	-0.562607
C39	C	0.991460	-0.600790	-0.640711
C40	C	1.001974	-0.313353	-0.379357
C41	C	1.002000	-0.197202	-0.379370
C42	C	1.034945	-0.538849	-0.679221
C43	C	1.032002	-0.543020	-0.752607
C44	C	0.985578	-0.609138	-0.787481
C45	C	0.942089	-0.671081	-0.748966
C46	C	0.945028	-0.666904	-0.675581
C47	C	0.971962	-0.628492	-1.006763
C48	C	0.969027	-0.632667	-1.080153
C49	C	1.058939	-0.504604	-1.083789
C50	C	1.061878	-0.500438	-1.010402
C51	C	1.018386	-0.562376	-0.971894
N52	N	0.982570	-0.613406	-0.862494
N53	N	1.021391	-0.558103	-0.896882
C54	C	1.009252	-0.575456	-0.196761
C55	C	1.012511	-0.570727	-0.118663
H56	H	0.399999	-0.736955	-0.476832
H57	H	0.406498	-0.484799	-0.314053
H58	H	0.604530	-0.434948	-0.281871
O59	O	0.260853	-0.739395	-0.478259
C60	C	0.279398	-0.843746	-0.463519
H61	H	0.301798	-0.846959	-0.408182
H62	H	0.230892	-0.892735	-0.467591
H63	H	0.320499	-0.875926	-0.502864
H64	H	1.094347	-0.454176	-1.115150
O65	O	0.929781	-0.688810	-0.969403
C66	C	0.944373	-0.794940	-0.987954
H67	H	0.999706	-0.804876	-1.010373
H68	H	0.940219	-0.843444	-0.939446
H69	H	0.904995	-0.822318	-1.029042
H70	H	0.731165	-0.695367	-0.449970
O71	O	1.106927	-0.436255	-0.976417
C72	C	1.100170	-0.445810	-0.903386
H73	H	1.077576	-0.524474	-0.892419
H74	H	1.153912	-0.440343	-0.877603
H75	H	1.063561	-0.380342	-0.881082
O76	O	0.592090	-0.697774	-0.451481
C77	C	0.638631	-0.762083	-0.493007
H78	H	0.692089	-0.767228	-0.466316
H79	H	0.617125	-0.843545	-0.499546
H80	H	0.644314	-0.727481	-0.546738
H81	H	1.084418	-0.981195	-0.303327
O82	O	0.924021	-0.697005	-1.114071
C83	C	0.962306	-0.769393	-1.158139
H84	H	1.018531	-0.778055	-1.138248
H85	H	0.936829	-0.848270	-1.157947
H86	H	0.962517	-0.740389	-1.213854
O87	O	0.267987	-0.465169	-0.301430
C88	C	0.317689	-0.406830	-0.263750
H89	H	0.368858	-0.408157	-0.294629
H90	H	0.296786	-0.322744	-0.255503
H91	H	0.327615	-0.442414	-0.210649
O92	O	0.743620	-0.432612	-0.280303
C93	C	0.697080	-0.368279	-0.238791
H94	H	0.644859	-0.407687	-0.234216
H95	H	0.720486	-0.355173	-0.184288
H96	H	0.688260	-0.289956	-0.264300
O97	O	0.897052	-0.735283	-0.782953
C98	C	0.903769	-0.725672	-0.855982
H99	H	0.957605	-0.695398	-0.868195
H100	H	0.897866	-0.805237	-0.883669
H101	H	0.861269	-0.668611	-0.875134
H102	H	0.909612	-0.717331	-0.644227
H103	H	1.084495	-1.190325	-0.303357
O104	O	0.956677	-1.143847	-0.421270
C105	C	0.994847	-1.085679	-0.468235
H106	H	1.050003	-1.122254	-0.474871
H107	H	0.967228	-1.085828	-0.521267
H108	H	0.998173	-1.001922	-0.446546
O109	O	0.956440	-1.026385	-0.421131
C110	C	0.887005	-0.994681	-0.402900
H111	H	0.886568	-0.913795	-0.375861
H112	H	0.853425	-0.991993	-0.452319
H113	H	0.864876	-1.052617	-0.365778
H114	H	1.072750	-0.485012	-0.650831
O115	O	1.074316	-0.482820	-0.789909
C116	C	1.115912	-0.423555	-0.743391
H117	H	1.120428	-0.463534	-0.691173
H118	H	1.170430	-0.417068	-0.766827
H119	H	1.090516	-0.342140	-0.734557
