data_functionalizedCrystal
_audit_creation_method	'MofGen! by Chris Wilmer'
_symmetry_space_group_name_H-M	'P1'
_symmetry_Int_Tables_number	1
_symmetry_cell_setting	triclinic
loop_
_symmetry_equiv_pos_as_xyz
  x,y,z
_cell_length_a	16.109318
_cell_length_b	12.996460
_cell_length_c	16.109304
_cell_angle_alpha	89.997481
_cell_angle_beta	83.465600
_cell_angle_gamma	90.002628
loop_
_atom_site_label
_atom_site_type_symbol
_atom_site_fract_x
_atom_site_fract_y
_atom_site_fract_z
O1	O	1.103127	0.085475	0.106930
O2	O	0.861067	0.085495	0.120214
O3	O	0.988745	0.085485	-0.007458
O4	O	0.975448	0.085485	0.234602
O5	O	0.988729	-0.085649	-0.007451
O6	O	0.861050	-0.085639	0.120222
O7	O	1.103110	-0.085659	0.106937
Cu8	Cu	0.982079	-0.101275	0.113580
Cu9	Cu	0.982098	0.101111	0.113571
O10	O	0.975432	-0.085649	0.234610
C11	C	0.830084	-0.000069	0.119677
C12	C	0.737789	-0.000062	0.118056
N13	N	0.982071	-0.243622	0.113586
C14	C	0.438725	0.093205	0.112817
C15	C	0.525446	0.093212	0.114335
C16	C	0.525447	-0.093368	0.114332
C17	C	0.438728	-0.093373	0.112808
C18	C	0.395368	-0.000083	0.112055
C19	C	0.568809	-0.000072	0.115096
C20	C	0.662836	-0.000066	0.116741
C21	C	0.301336	-0.000089	0.110408
C22	C	0.982075	-0.336728	0.113588
C23	C	0.982083	-0.453533	0.113582
C24	C	0.982093	-0.546631	0.113573
C25	C	0.982102	-0.663444	0.113568
C26	C	1.134093	-0.000093	0.107474
C27	C	1.226388	-0.000094	0.109095
C28	C	0.988198	-0.000080	-0.038430
C29	C	0.986582	-0.000073	-0.130725
N30	N	0.982112	0.243458	0.113559
C31	C	0.982857	0.093209	-0.343066
C32	C	0.981331	0.093208	-0.429787
C33	C	0.981317	-0.093371	-0.429776
C34	C	0.982837	-0.093369	-0.343056
C35	C	0.983612	-0.000076	-0.299704
C36	C	0.980565	-0.000079	-0.473144
C37	C	0.978911	-0.000081	-0.567170
C38	C	0.985265	-0.000074	-0.205672
C39	C	0.975979	-0.000082	0.265581
C40	C	0.977595	-0.000083	0.357876
H41	H	0.403424	0.169168	0.112203
H42	H	0.560743	0.169177	0.114954
H43	H	0.403426	-0.169345	0.112187
C44	C	0.980469	-0.195988	-0.477471
N45	N	0.979832	-0.273282	-0.513395
H46	H	0.983485	0.169174	-0.307772
C47	C	0.983666	-0.195996	-0.295355
N48	N	0.984289	-0.273291	-0.259426
H49	H	0.560760	-0.169321	0.114946
H50	H	0.980715	0.169170	-0.465088
