data_functionalizedCrystal
_audit_creation_method	'MofGen! by Chris Wilmer'
_symmetry_space_group_name_H-M	'P1'
_symmetry_Int_Tables_number	1
_symmetry_cell_setting	triclinic
loop_
_symmetry_equiv_pos_as_xyz
  x,y,z
_cell_length_a	12.837932
_cell_length_b	15.944551
_cell_length_c	11.295501
_cell_angle_alpha	94.599352
_cell_angle_beta	94.170267
_cell_angle_gamma	89.164220
loop_
_atom_site_label
_atom_site_type_symbol
_atom_site_fract_x
_atom_site_fract_y
_atom_site_fract_z
O1	O	1.381700	0.223916	0.099034
O2	O	1.079893	0.213127	0.099035
O3	O	1.239038	0.096905	0.099024
O4	O	1.222556	0.340138	0.099045
O5	O	1.226565	0.085810	-0.099028
O6	O	1.067421	0.202032	-0.099016
O7	O	1.369228	0.212820	-0.099018
Cu8	Cu	1.217185	0.206413	-0.117101
Cu9	Cu	1.231935	0.219535	0.117118
O10	O	1.210083	0.329042	-0.099006
C11	C	1.035036	0.203935	0.000010
C12	C	0.919958	0.193067	0.000010
C13	C	1.232117	0.060009	-0.000002
C14	C	1.230066	-0.033401	-0.000003
C15	C	0.770109	0.102226	-0.000000
C16	C	0.878236	0.112432	0.000001
C17	C	0.853545	0.263500	0.000014
C18	C	0.745419	0.253293	0.000012
C19	C	0.703705	0.172654	0.000007
C20	C	0.595576	0.162448	0.000014
C21	C	0.570887	0.313515	0.000019
C22	C	0.679014	0.323721	0.000020
C23	C	1.126518	-0.256541	0.000014
C24	C	1.168453	-0.319182	-0.097637
C25	C	1.226355	-0.204424	0.000006
C26	C	1.180773	-0.308225	0.097626
C27	C	1.222763	-0.369623	0.000020
C28	C	1.268312	-0.265839	-0.097726
C29	C	1.280624	-0.254871	0.097625
C30	C	1.322630	-0.317490	-0.000050
C31	C	1.228421	-0.109256	-0.000003
C32	C	1.220705	-0.464789	0.000021
C33	C	1.414085	0.222012	0.000011
C34	C	1.529163	0.232881	0.000018
C35	C	1.217004	0.365939	0.000022
C36	C	1.219056	0.459349	0.000031
N37	N	1.206819	0.197184	-0.281837
C38	C	1.316925	0.295234	-0.531120
C39	C	1.309098	0.288253	-0.655784
C40	C	1.183346	0.176238	-0.655832
C41	C	1.191173	0.183219	-0.531168
C42	C	1.257963	0.242719	-0.468816
C43	C	1.265783	0.249704	-0.344150
C44	C	1.140037	0.137685	-0.344200
C45	C	1.132211	0.130704	-0.468864
N46	N	1.242310	0.228758	0.281855
H47	H	0.736146	0.036566	0.000007
O48	O	0.942597	0.043932	0.000052
C49	C	0.882585	-0.029428	0.000016
H50	H	0.804249	-0.012459	0.037510
H51	H	0.926079	-0.076084	0.057514
H52	H	0.868900	-0.059062	-0.095001
O53	O	0.894250	0.341768	0.000040
C54	C	1.003922	0.335666	-0.000014
H55	H	1.031662	0.274256	0.037502
H56	H	1.040766	0.391015	0.057455
H57	H	1.028021	0.336793	-0.095040
H58	H	0.712993	0.389376	0.000020
H59	H	0.516809	0.370862	0.000025
H60	H	1.143732	-0.327055	0.180188
H61	H	1.128980	0.127787	-0.706620
H62	H	1.357112	0.331015	-0.706508
H63	H	1.043642	-0.229868	-0.000083
H64	H	1.328014	-0.226740	0.180186
O65	O	1.330728	0.307391	-0.283447
C66	C	1.405997	0.265902	-0.211346
H67	H	1.374902	0.202027	-0.192685
H68	H	1.423051	0.305508	-0.123675
H69	H	1.480899	0.256621	-0.259373
H70	H	1.077835	0.082258	-0.519648
O71	O	1.421579	-0.349145	0.000122
C72	C	1.443892	-0.392443	0.103163
H73	H	1.390499	-0.368033	0.174857
H74	H	1.528816	-0.381690	0.137176
H75	H	1.430407	-0.462616	0.080779
H76	H	0.561615	0.096788	0.000015
H77	H	1.305299	-0.247103	-0.180373
H78	H	1.371298	0.343689	-0.480353
H79	H	1.121026	-0.347294	-0.180194
H80	H	1.092020	0.094928	-0.293459
