data_functionalizedCrystal
_audit_creation_method	'MofGen! by Chris Wilmer'
_symmetry_space_group_name_H-M	'P1'
_symmetry_Int_Tables_number	1
_symmetry_cell_setting	triclinic
loop_
_symmetry_equiv_pos_as_xyz
  x,y,z
_cell_length_a	8.497365
_cell_length_b	11.169417
_cell_length_c	11.169416
_cell_angle_alpha	89.988781
_cell_angle_beta	90.048102
_cell_angle_gamma	89.968956
loop_
_atom_site_label
_atom_site_type_symbol
_atom_site_fract_x
_atom_site_fract_y
_atom_site_fract_z
Zn1	Zn	-0.891931	1.835095	0.477478
Zn2	Zn	-0.628148	1.834945	0.678279
Zn3	Zn	-0.628164	1.634342	0.477611
Zn4	Zn	-0.891887	1.634389	0.678121
O5	O	-0.760033	1.734693	0.577872
O6	O	-0.856951	2.003025	0.504125
O7	O	-0.407388	1.808252	0.651782
O8	O	-0.663179	1.661015	0.309644
O9	O	-0.663151	2.002915	0.651652
O10	O	-0.856966	1.808508	0.309546
O11	O	-0.407400	1.660870	0.504352
O12	O	-0.663136	1.466398	0.504199
O13	O	-1.112656	1.661095	0.651383
O14	O	-0.856892	1.466433	0.651512
O15	O	-1.112687	1.808553	0.503971
O16	O	-0.663109	1.808298	0.846207
O17	O	-0.856877	1.660950	0.846091
C18	C	-0.760012	1.422868	0.577854
C19	C	-0.760041	1.289468	0.577875
C20	C	-0.760021	1.734645	0.889697
C21	C	-0.760068	1.734735	1.023097
C22	C	-0.350152	1.734606	0.578003
C23	C	-0.171509	1.734777	0.577757
C24	C	-0.760054	2.047735	0.577891
C25	C	-0.760063	2.181135	0.577899
C26	C	-0.760079	1.734773	0.264830
C27	C	-0.760099	1.734807	0.131430
