data_functionalizedCrystal
_audit_creation_method	'MofGen! by Chris Wilmer'
_symmetry_space_group_name_H-M	'P1'
_symmetry_Int_Tables_number	1
_symmetry_cell_setting	triclinic
loop_
_symmetry_equiv_pos_as_xyz
  x,y,z
_cell_length_a	16.992694
_cell_length_b	9.065218
_cell_length_c	7.540329
_cell_angle_alpha	90.001757
_cell_angle_beta	89.997336
_cell_angle_gamma	87.842054
loop_
_atom_site_label
_atom_site_type_symbol
_atom_site_fract_x
_atom_site_fract_y
_atom_site_fract_z
O1	O	-1.042613	-0.313083	-0.147248
O2	O	-0.814303	-0.309648	-0.147301
O3	O	-0.933177	-0.097161	-0.147270
O4	O	-0.923739	-0.525570	-0.147279
O5	O	-0.933170	-0.097157	0.147695
O6	O	-0.814296	-0.309644	0.147664
O7	O	-1.042606	-0.313079	0.147717
Cu8	Cu	-0.928450	-0.311361	0.174623
Cu9	Cu	-0.928459	-0.311365	-0.174207
O10	O	-0.923732	-0.525566	0.147686
C11	C	-0.785056	-0.305227	0.000175
C12	C	-0.697918	-0.292043	0.000155
C13	C	-0.932267	-0.042088	0.000210
C14	C	-0.929555	0.122007	0.000200
C15	C	-1.071853	-0.317499	0.000237
C16	C	-1.158991	-0.330683	0.000246
C17	C	-0.648581	-0.419249	0.000153
C18	C	-0.566706	-0.406853	0.000178
C19	C	-0.534170	-0.267249	0.000192
C20	C	-0.583514	-0.140034	0.000198
C21	C	-0.665387	-0.152432	0.000186
C22	C	-0.290208	-0.215866	0.000240
C23	C	-0.208328	-0.203477	0.000247
C24	C	-0.191526	-0.470298	0.000230
C25	C	-0.273402	-0.482683	0.000207
C26	C	-0.322738	-0.355468	0.000223
N27	N	-0.450482	-0.254575	0.000211
N28	N	-0.406425	-0.368144	0.000216
C29	C	-0.924643	-0.580639	0.000202
C30	C	-0.927355	-0.744733	0.000200
N31	N	-0.928450	-0.311358	0.419972
N32	N	-0.928465	-0.311358	-0.419556
H33	H	-0.675065	-0.532930	0.000141
H34	H	-0.330368	-0.112277	0.000255
C35	C	-0.547721	0.013532	0.000216
N36	N	-0.520764	0.129201	0.000223
H37	H	-0.151349	-0.573869	0.000221
H38	H	-0.705557	-0.048847	0.000186
H39	H	-0.526539	-0.510438	0.000175
H40	H	-0.299886	-0.596363	0.000176
C41	C	-0.172541	-0.049896	0.000260
N42	N	-0.145586	0.065776	0.000265
