data_functionalizedCrystal
_audit_creation_method	'MofGen! by Chris Wilmer'
_symmetry_space_group_name_H-M	'P1'
_symmetry_Int_Tables_number	1
_symmetry_cell_setting	triclinic
loop_
_symmetry_equiv_pos_as_xyz
  x,y,z
_cell_length_a	10.654562
_cell_length_b	19.188924
_cell_length_c	9.730223
_cell_angle_alpha	89.996615
_cell_angle_beta	89.996961
_cell_angle_gamma	83.816034
loop_
_atom_site_label
_atom_site_type_symbol
_atom_site_fract_x
_atom_site_fract_y
_atom_site_fract_z
O1	O	1.665745	0.098101	-0.114387
O2	O	1.300070	0.107435	-0.114371
O3	O	1.493464	0.001181	-0.114363
O4	O	1.472350	0.204355	-0.114395
O5	O	1.493462	0.001184	0.114217
O6	O	1.300068	0.107437	0.114209
O7	O	1.665742	0.098104	0.114193
Zn8	Zn	1.482905	0.102771	0.150493
Zn9	Zn	1.482908	0.102768	-0.150671
O10	O	1.472348	0.204357	0.114185
C11	C	1.253286	0.106749	-0.000079
C12	C	1.113887	0.104693	-0.000072
C13	C	1.048375	0.103736	0.124517
C14	C	0.917394	0.101809	0.124494
C15	C	0.917447	0.101801	-0.124716
C16	C	1.048427	0.103722	-0.124692
C17	C	1.113836	0.104706	0.249137
C18	C	1.048324	0.103750	0.373736
C19	C	0.917342	0.101823	0.373713
C20	C	0.851873	0.100854	0.249092
C21	C	1.492781	-0.024833	-0.000072
C22	C	1.490733	-0.102351	-0.000068
C23	C	1.489778	-0.138758	-0.124667
C24	C	1.487836	-0.211593	-0.124678
C25	C	1.486873	-0.248021	-0.000082
C26	C	1.487821	-0.211605	0.124534
C27	C	1.489751	-0.138770	0.124541
N28	N	1.555305	-0.367234	0.092649
N29	N	1.553475	-0.436424	0.092634
C30	C	1.481057	-0.467468	-0.000095
N31	N	1.410554	-0.426709	-0.092829
N32	N	1.412390	-0.357513	-0.092818
C33	C	1.484780	-0.326998	-0.000075
C34	C	1.477994	-0.582851	-0.124714
C35	C	1.476044	-0.655688	-0.124719
C36	C	1.476042	-0.655699	0.124496
C37	C	1.477980	-0.582863	0.124498
C38	C	1.478961	-0.546444	-0.000111
C39	C	1.712527	0.098790	-0.000103
C40	C	1.851925	0.100846	-0.000118
C41	C	1.473031	0.230372	-0.000109
C42	C	1.475080	0.307890	-0.000122
N43	N	1.482912	0.102773	0.356029
N44	N	1.482911	0.102760	-0.356207
C45	C	1.568568	0.055740	0.427959
C46	C	1.568565	0.055732	0.571842
C47	C	1.397245	0.149795	0.571853
C48	C	1.397243	0.149800	0.427973
C49	C	1.654237	0.008714	0.356015
C50	C	1.739902	-0.038323	0.427945
C51	C	1.739899	-0.038331	0.571828
C52	C	1.654231	0.008697	0.643781
H53	H	1.220487	0.106277	0.249170
H54	H	1.487051	-0.241241	-0.226145
H55	H	1.478767	-0.553221	0.225960
Br56	Br	1.137173	0.105054	0.542855
H57	H	1.101767	0.104505	-0.226143
Br58	Br	1.654218	0.008674	0.839053
H59	H	1.327499	0.188084	0.630447
H60	H	1.809643	-0.076615	0.369353
H61	H	0.864007	0.101039	0.475167
Br62	Br	0.674116	0.098216	0.249064
Br63	Br	1.654253	0.008728	0.160746
H64	H	1.487034	-0.241269	0.225981
H65	H	1.809641	-0.076634	0.630391
Br66	Br	1.491040	-0.089357	0.293653
Br67	Br	0.828598	0.100478	-0.293833
Br68	Br	1.479320	-0.533421	-0.293821
Br69	Br	1.280984	0.213628	0.330350
H70	H	1.490574	-0.109110	-0.226134
H71	H	1.475260	-0.685328	-0.226187
H72	H	1.475249	-0.685357	0.225945
