data_functionalizedCrystal
_audit_creation_method	'MofGen! by Chris Wilmer'
_symmetry_space_group_name_H-M	'P1'
_symmetry_Int_Tables_number	1
_symmetry_cell_setting	triclinic
loop_
_symmetry_equiv_pos_as_xyz
  x,y,z
_cell_length_a	16.109301
_cell_length_b	27.732048
_cell_length_c	15.186229
_cell_angle_alpha	89.991324
_cell_angle_beta	89.999362
_cell_angle_gamma	83.052068
loop_
_atom_site_label
_atom_site_type_symbol
_atom_site_fract_x
_atom_site_fract_y
_atom_site_fract_z
O1	O	1.102361	0.062130	-0.073183
O2	O	1.435695	0.395463	0.260151
O3	O	1.769028	0.728797	0.593484
O4	O	0.860204	0.069862	-0.073198
O5	O	1.193537	0.403195	0.260135
O6	O	1.526870	0.736529	0.593469
O7	O	0.988803	-0.004369	-0.073173
O8	O	1.322137	0.328964	0.260160
O9	O	1.655470	0.662297	0.593494
O10	O	0.973762	0.136361	-0.073208
O11	O	1.307095	0.469695	0.260126
O12	O	1.640428	0.803028	0.593459
O13	O	0.988795	-0.004370	0.073284
O14	O	1.322128	0.328963	0.406618
O15	O	1.655462	0.662296	0.739951
O16	O	0.860195	0.069861	0.073259
O17	O	1.193528	0.403194	0.406593
O18	O	1.526862	0.736528	0.739926
O19	O	1.102353	0.062129	0.073275
O20	O	1.435686	0.395462	0.406608
O21	O	1.769020	0.728796	0.739941
Zn22	Zn	0.981273	0.065995	0.096520
Zn23	Zn	1.314606	0.399328	0.429854
Zn24	Zn	1.647939	0.732661	0.763187
Zn25	Zn	0.981284	0.065996	-0.096444
Zn26	Zn	1.314617	0.399330	0.236890
Zn27	Zn	1.647951	0.732663	0.570223
O28	O	0.973753	0.136360	0.073250
O29	O	1.307086	0.469694	0.406583
O30	O	1.640420	0.803027	0.739916
C31	C	0.829228	0.069548	0.000029
C32	C	1.162562	0.402882	0.333362
C33	C	1.495895	0.736215	0.666696
C34	C	0.736945	0.068609	0.000024
C35	C	1.070278	0.401943	0.333357
C36	C	1.403611	0.735276	0.666691
C37	C	0.988483	-0.022378	0.000058
C38	C	1.321817	0.310955	0.333391
C39	C	1.655150	0.644289	0.666725
C40	C	0.987533	-0.076037	0.000065
C41	C	1.320866	0.257296	0.333399
C42	C	1.654199	0.590630	0.666732
C43	C	0.514154	0.110473	0.000024
C44	C	0.847487	0.443807	0.333357
C45	C	1.180821	0.777140	0.666691
C46	C	0.427445	0.109587	0.000030
C47	C	0.760778	0.442921	0.333363
C48	C	1.094111	0.776254	0.666696
C49	C	0.448409	0.021514	0.000048
C50	C	0.781743	0.354848	0.333381
C51	C	1.115076	0.688181	0.666714
C52	C	0.535117	0.022401	0.000048
C53	C	0.868450	0.355734	0.333381
C54	C	1.201784	0.689068	0.666715
C55	C	0.567987	0.066882	0.000032
C56	C	0.901320	0.400215	0.333365
C57	C	1.234653	0.733548	0.666698
C58	C	0.394570	0.065109	0.000037
C59	C	0.727903	0.398443	0.333371
C60	C	1.061236	0.731776	0.666704
C61	C	0.300556	0.064148	0.000044
C62	C	0.633889	0.397481	0.333377
C63	C	0.967222	0.730815	0.666710
C64	C	0.662007	0.067843	0.000027
C65	C	0.995340	0.401176	0.333360
C66	C	1.328674	0.734510	0.666694
C67	C	1.057541	-0.414559	0.000024
C68	C	1.390874	-0.081226	0.333358
C69	C	1.724208	0.252108	0.666691
C70	C	1.054013	-0.616233	0.000012
C71	C	1.387347	-0.282900	0.333345
C72	C	1.720680	0.050433	0.666679
O73	O	1.118031	-0.647221	-0.000023
O74	O	1.451365	-0.313888	0.333311
O75	O	1.784698	0.019446	0.666644
N76	N	0.977759	-0.635676	0.000008
N77	N	1.311092	-0.302343	0.333341
N78	N	1.644426	0.030990	0.666675
C79	C	0.902381	-0.604697	0.000001
C80	C	1.235715	-0.271364	0.333335
C81	C	1.569048	0.061970	0.666668
O82	O	0.837441	-0.625862	-0.000011
O83	O	1.170775	-0.292529	0.333322
O84	O	1.504108	0.040805	0.666655
C85	C	0.905910	-0.403024	0.000008
C86	C	1.239243	-0.069690	0.333341
C87	C	1.572576	0.263643	0.666674
C88	C	0.982169	-0.383584	0.000020
C89	C	1.315502	-0.050250	0.333354
C90	C	1.648836	0.283083	0.666687
C91	C	1.133794	-0.395119	0.000036
C92	C	1.467127	-0.061785	0.333370
C93	C	1.800461	0.271548	0.666703
C94	C	1.134675	-0.344703	0.000044
C95	C	1.468009	-0.011370	0.333378
C96	C	1.801342	0.321964	0.666711
C97	C	1.059303	-0.313728	0.000040
C98	C	1.392637	0.019606	0.333374
C99	C	1.725970	0.352939	0.666707
C100	C	0.983050	-0.333168	0.000028
C101	C	1.316384	0.000165	0.333362
C102	C	1.649717	0.333499	0.666695
C103	C	0.830533	-0.372045	-0.000005
C104	C	1.163866	-0.038712	0.333328
C105	C	1.497200	0.294621	0.666661
C106	C	0.831422	-0.321624	-0.000006
C107	C	1.164755	0.011709	0.333327
C108	C	1.498088	0.345042	0.666661
C109	C	0.907681	-0.302184	0.000007
C110	C	1.241014	0.031149	0.333340
C111	C	1.574348	0.364482	0.666673
C112	C	0.908559	-0.251777	0.000032
C113	C	1.241893	0.081556	0.333366
C114	C	1.575226	0.414889	0.666699
N115	N	0.984814	-0.232334	0.000036
N116	N	1.318147	0.100999	0.333370
N117	N	1.651480	0.434332	0.666703
C118	C	1.060186	-0.263310	0.000040
C119	C	1.393519	0.070024	0.333374
C120	C	1.726852	0.403357	0.666707
C121	C	0.900534	-0.710579	-0.000000
C122	C	1.233868	-0.377246	0.333333
C123	C	1.567201	-0.043912	0.666666
C124	C	0.899652	-0.760997	-0.000000
C125	C	1.232985	-0.427664	0.333333
C126	C	1.566319	-0.094330	0.666666
C127	C	1.051284	-0.772530	0.000009
C128	C	1.384618	-0.439196	0.333342
C129	C	1.717951	-0.105863	0.666675
C130	C	1.052166	-0.722111	0.000015
C131	C	1.385499	-0.388777	0.333348
C132	C	1.718832	-0.055444	0.666682
C133	C	0.976789	-0.691136	0.000004
C134	C	1.310122	-0.357803	0.333337
C135	C	1.643455	-0.024469	0.666670
C136	C	1.062030	-0.157433	0.000058
C137	C	1.395364	0.175901	0.333391
C138	C	1.728697	0.509234	0.666724
C139	C	1.062905	-0.107012	0.000069
C140	C	1.396238	0.226321	0.333403
C141	C	1.729571	0.559655	0.666736
C142	C	0.911273	-0.095484	0.000056
C143	C	1.244606	0.237850	0.333389
C144	C	1.577939	0.571183	0.666722
C145	C	0.910398	-0.145900	0.000049
C146	C	1.243731	0.187434	0.333382
C147	C	1.577064	0.520767	0.666715
C148	C	0.985783	-0.176874	0.000047
C149	C	1.319117	0.156460	0.333380
C150	C	1.652450	0.489793	0.666713
O151	O	0.844576	-0.220761	0.000057
O152	O	1.177909	0.112572	0.333390
O153	O	1.511243	0.445906	0.666724
O154	O	1.125116	-0.242135	0.000033
O155	O	1.458449	0.091198	0.333367
O156	O	1.791783	0.424531	0.666700
C157	C	1.056660	-0.464975	0.000016
C158	C	1.389993	-0.131641	0.333350
C159	C	1.723327	0.201692	0.666683
C160	C	0.980407	-0.484415	0.000005
C161	C	1.313740	-0.151082	0.333338
C162	C	1.647074	0.182252	0.666671
C163	C	0.905035	-0.453440	0.000001
C164	C	1.238368	-0.120106	0.333334
C165	C	1.571702	0.213227	0.666667
C166	C	0.979525	-0.534833	0.000005
C167	C	1.312858	-0.201500	0.333338
C168	C	1.646191	0.131834	0.666671
C169	C	1.054897	-0.565808	0.000009
C170	C	1.388230	-0.232475	0.333342
C171	C	1.721563	0.100858	0.666675
C172	C	1.131151	-0.546365	0.000013
C173	C	1.464484	-0.213032	0.333346
C174	C	1.797818	0.120301	0.666679
C175	C	1.132032	-0.495950	0.000020
C176	C	1.465365	-0.162616	0.333354
C177	C	1.798699	0.170717	0.666687
C178	C	0.828781	-0.472883	-0.000003
C179	C	1.162114	-0.139549	0.333330
C180	C	1.495447	0.193784	0.666663
C181	C	0.827906	-0.523299	-0.000010
C182	C	1.161239	-0.189965	0.333323
C183	C	1.494572	0.143368	0.666656
C184	C	0.903278	-0.554274	-0.000006
C185	C	1.236611	-0.220941	0.333327
C186	C	1.569944	0.112393	0.666660
C187	C	1.133328	0.062443	0.000046
C188	C	1.466661	0.395776	0.333379
C189	C	1.799995	0.729109	0.666712
C190	C	1.225612	0.063382	0.000045
C191	C	1.558945	0.396715	0.333378
C192	C	1.892278	0.730048	0.666712
C193	C	0.974073	0.154369	0.000017
C194	C	1.307406	0.487702	0.333350
C195	C	1.640740	0.821036	0.666683
C196	C	0.975024	0.208028	0.000004
C197	C	1.308357	0.541361	0.333337
C198	C	1.641691	0.874694	0.666670
N199	N	0.981271	0.065994	0.228213
N200	N	1.314604	0.399327	0.561546
N201	N	1.647938	0.732660	0.894880
N202	N	0.981292	0.065994	-0.228136
N203	N	1.314625	0.399327	0.105197
N204	N	1.647959	0.732660	0.438530
C205	C	1.038234	0.033135	0.453947
C206	C	1.371567	0.366468	0.787280
C207	C	1.704901	0.699802	1.120613
C208	C	1.038237	0.033134	0.546136
C209	C	1.371570	0.366467	0.879470
C210	C	1.704903	0.699801	1.212803
C211	C	0.924323	0.098854	0.546124
C212	C	1.257656	0.432187	0.879457
C213	C	1.590990	0.765520	1.212790
C214	C	0.924317	0.098852	0.453936
C215	C	1.257650	0.432185	0.787269
C216	C	1.590984	0.765519	1.120602
C217	C	0.981277	0.065993	0.407850
C218	C	1.314611	0.399327	0.741183
C219	C	1.647944	0.732660	1.074516
C220	C	0.981286	0.065994	0.592227
C221	C	1.314619	0.399327	0.925561
C222	C	1.647953	0.732660	1.258894
C223	C	0.981288	0.065993	0.692183
C224	C	1.314622	0.399326	1.025517
C225	C	1.647955	0.732659	1.358850
C226	C	0.981274	0.065994	0.307887
C227	C	1.314607	0.399327	0.641220
C228	C	1.647941	0.732660	0.974554
H229	H	0.540913	0.146692	0.000017
H230	H	0.874247	0.480026	0.333351
H231	H	1.207580	0.813359	0.666684
Cl232	Cl	0.407081	-0.034401	0.000063
Cl233	Cl	0.740414	0.298932	0.333396
Cl234	Cl	1.073748	0.632265	0.666729
H235	H	1.084615	0.006377	0.583666
H236	H	1.417948	0.339710	0.917000
H237	H	1.751282	0.673044	1.250333
Cl238	Cl	0.359772	0.164391	0.000021
Cl239	Cl	0.693105	0.497724	0.333354
Cl240	Cl	1.026439	0.831057	0.666688
H241	H	0.578951	-0.013099	0.000057
H242	H	0.912284	0.320235	0.333390
H243	H	1.245617	0.653568	0.666724
Cl244	Cl	1.109838	-0.008175	0.396014
Cl245	Cl	1.443171	0.325158	0.729347
Cl246	Cl	1.776505	0.658492	1.062681
H247	H	1.125007	-0.091187	0.000082
H248	H	1.458340	0.242146	0.333415
H249	H	1.791673	0.575479	0.666749
H250	H	1.192521	-0.571594	0.000020
H251	H	1.525855	-0.238261	0.333353
H252	H	1.859188	0.095072	0.666686
H253	H	0.877948	0.125607	0.583656
H254	H	1.211282	0.458941	0.916989
H255	H	1.544615	0.792274	1.250323
Cl256	Cl	1.156802	-0.196363	0.000057
Cl257	Cl	1.490135	0.136970	0.333390
Cl258	Cl	1.823469	0.470303	0.666723
Cl259	Cl	0.852705	0.140161	0.395979
Cl260	Cl	1.186038	0.473494	0.729312
Cl261	Cl	1.519371	0.806827	1.062646
H262	H	1.196773	-0.328880	0.000051
H263	H	1.530107	0.004453	0.333384
H264	H	1.863440	0.337787	0.666718
H265	H	0.848301	-0.161728	0.000063
H266	H	1.181635	0.171605	0.333396
H267	H	1.514968	0.504938	0.666729
Cl268	Cl	1.228561	-0.434051	0.000043
Cl269	Cl	1.561894	-0.100717	0.333376
Cl270	Cl	1.895228	0.232616	0.666709
H271	H	1.114263	-0.706287	0.000025
H272	H	1.447596	-0.372953	0.333358
H273	H	1.780929	-0.039620	0.666691
H274	H	0.768435	-0.387864	-0.000021
H275	H	1.101768	-0.054531	0.333312
H276	H	1.435101	0.278803	0.666645
Cl277	Cl	1.146037	-0.811479	0.000009
Cl278	Cl	1.479370	-0.478146	0.333343
Cl279	Cl	1.812704	-0.144813	0.666676
H280	H	0.837554	-0.776820	0.000005
H281	H	1.170887	-0.443487	0.333338
H282	H	1.504221	-0.110153	0.666671
H283	H	0.849907	-0.070255	0.000055
H284	H	1.183240	0.263079	0.333389
H285	H	1.516573	0.596412	0.666722
Cl286	Cl	1.227906	-0.471519	0.000029
Cl287	Cl	1.561239	-0.138186	0.333362
Cl288	Cl	1.894573	0.195148	0.666696
Cl289	Cl	0.805764	-0.671645	-0.000013
Cl290	Cl	1.139097	-0.338312	0.333320
Cl291	Cl	1.472430	-0.004979	0.666653
H292	H	0.770039	-0.296407	-0.000017
H293	H	1.103372	0.036927	0.333317
H294	H	1.436706	0.370260	0.666650
H295	H	0.765802	-0.539121	-0.000013
H296	H	1.099135	-0.205788	0.333320
H297	H	1.432468	0.127545	0.666654
H298	H	0.767402	-0.447667	-0.000009
H299	H	1.100735	-0.114334	0.333325
H300	H	1.434069	0.219000	0.666658
