data_functionalizedCrystal
_audit_creation_method	'MofGen! by Chris Wilmer'
_symmetry_space_group_name_H-M	'P1'
_symmetry_Int_Tables_number	1
_symmetry_cell_setting	triclinic
loop_
_symmetry_equiv_pos_as_xyz
  x,y,z
_cell_length_a	21.295418
_cell_length_b	21.295417
_cell_length_c	16.120297
_cell_angle_alpha	92.870657
_cell_angle_beta	87.141709
_cell_angle_gamma	89.956327
loop_
_atom_site_label
_atom_site_type_symbol
_atom_site_fract_x
_atom_site_fract_y
_atom_site_fract_z
Zn1	Zn	0.944272	0.268428	0.471796
Zn2	Zn	0.949527	0.368357	0.332385
Zn3	Zn	0.844344	0.263134	0.332356
Zn4	Zn	0.838974	0.373689	0.471702
O5	O	0.894279	0.318402	0.402060
O6	O	1.033057	0.281668	0.453355
O7	O	0.940020	0.349952	0.215721
O8	O	0.857648	0.175748	0.350881
O9	O	1.036917	0.355086	0.350930
O10	O	0.931065	0.179637	0.453327
O11	O	0.862743	0.272645	0.215699
O12	O	0.755544	0.277815	0.350788
O13	O	0.848495	0.364172	0.588375
O14	O	0.751598	0.359039	0.453165
O15	O	0.925858	0.286838	0.588445
O16	O	0.934813	0.457153	0.350838
O17	O	0.853590	0.461070	0.453193
C18	C	0.730731	0.318431	0.401964
C19	C	0.660764	0.318460	0.401943
C20	C	0.625862	0.360803	0.455170
C21	C	0.560118	0.360789	0.455208
C22	C	0.529279	0.318438	0.402002
C23	C	0.564189	0.276086	0.348771
C24	C	0.629931	0.276097	0.348741
N25	N	0.428799	0.310727	0.329087
N26	N	0.366347	0.310720	0.329118
C27	C	0.331201	0.318401	0.402091
N28	N	0.360867	0.326101	0.475034
N29	N	0.423325	0.326111	0.475002
C30	C	0.457993	0.318421	0.402029
C31	C	0.225012	0.360732	0.455364
C32	C	0.159267	0.360713	0.455403
C33	C	0.163339	0.276013	0.348958
C34	C	0.229082	0.276028	0.348927
C35	C	0.259915	0.318391	0.402129
C36	C	0.894205	0.481952	0.402027
C37	C	0.894230	0.551921	0.402041
C38	C	0.936711	1.049325	0.348929
C39	C	0.936688	0.983582	0.348907
C40	C	0.894359	0.952764	0.402145
C41	C	0.852039	0.987695	0.455395
C42	C	0.852059	1.053437	0.455410
N43	N	0.886674	0.852307	0.475087
N44	N	0.886659	0.789855	0.475071
C45	C	0.894297	0.754688	0.402102
N46	N	0.901963	0.784332	0.329148
N47	N	0.901981	0.846789	0.329166
C48	C	0.894333	0.881478	0.402134
C49	C	0.936587	0.648479	0.348827
C50	C	0.936560	0.582734	0.348803
C51	C	0.851914	0.586849	0.455299
C52	C	0.851938	0.652592	0.455315
C53	C	0.894278	0.683403	0.402080
C54	C	1.058466	0.318373	0.402157
C55	C	1.128432	0.318360	0.402198
C56	C	0.885992	0.326690	0.619504
C57	C	0.882460	0.330222	0.712166
C58	C	0.894367	1.154214	0.402122
C59	C	0.894398	1.084248	0.402175
C60	C	0.902570	0.310100	0.185461
C61	C	0.906224	0.306391	0.092800
C62	C	0.875989	0.336657	0.881821
C63	C	0.912693	0.299958	0.923151
C64	C	0.909093	0.303538	1.017552
C65	C	0.879589	0.333078	0.787411
H66	H	0.250117	0.395223	0.498688
H67	H	0.817485	0.681026	0.498676
Br68	Br	0.794457	0.545031	0.527539
Br69	Br	0.969590	0.243123	0.863963
Br70	Br	0.276452	0.218559	0.276685
H71	H	0.650962	0.395298	0.498492
H72	H	0.658348	0.241614	0.305396
H73	H	0.138230	0.241526	0.305642
Br74	Br	0.512742	0.418259	0.527452
Br75	Br	0.111899	0.418180	0.527654
Br76	Br	0.522337	0.218603	0.276570
Br77	Br	0.994170	1.091138	0.276681
H78	H	0.971145	0.955143	0.305545
Br79	Br	0.794589	0.945873	0.527644
H80	H	0.817603	1.081871	0.498773
Br81	Br	0.994044	0.690298	0.276577
H82	H	0.841865	0.370763	0.917332
H83	H	0.971014	0.554299	0.305438
