data_functionalizedCrystal
_audit_creation_method	'MofGen! by Chris Wilmer'
_symmetry_space_group_name_H-M	'P1'
_symmetry_Int_Tables_number	1
_symmetry_cell_setting	triclinic
loop_
_symmetry_equiv_pos_as_xyz
  x,y,z
_cell_length_a	19.121063
_cell_length_b	16.625548
_cell_length_c	19.120904
_cell_angle_alpha	87.578974
_cell_angle_beta	94.741613
_cell_angle_gamma	87.531074
loop_
_atom_site_label
_atom_site_type_symbol
_atom_site_fract_x
_atom_site_fract_y
_atom_site_fract_z
Zn1	Zn	-0.297115	-1.197998	-0.409803
Zn2	Zn	-0.047115	-0.947998	-0.159803
Zn3	Zn	0.202885	-0.697998	0.090197
Zn4	Zn	0.452885	-0.447998	0.340197
Zn5	Zn	-0.409762	-1.197899	-0.297153
Zn6	Zn	-0.159762	-0.947899	-0.047153
Zn7	Zn	0.090238	-0.697899	0.202847
Zn8	Zn	0.340238	-0.447899	0.452847
Zn9	Zn	-0.292115	-1.069176	-0.292152
Zn10	Zn	-0.042115	-0.819176	-0.042152
Zn11	Zn	0.207885	-0.569176	0.207848
Zn12	Zn	0.457885	-0.319176	0.457848
Zn13	Zn	-0.414741	-1.057114	-0.414770
Zn14	Zn	-0.164741	-0.807114	-0.164770
Zn15	Zn	0.085259	-0.557114	0.085230
Zn16	Zn	0.335259	-0.307114	0.335230
O17	O	-0.353433	-1.130547	-0.353470
O18	O	-0.103433	-0.880547	-0.103470
O19	O	0.146567	-0.630547	0.146530
O20	O	0.396567	-0.380547	0.396530
O21	O	-0.312066	-1.310816	-0.394874
O22	O	-0.062066	-1.060816	-0.144874
O23	O	0.187934	-0.810816	0.105126
O24	O	0.437934	-0.560816	0.355126
O25	O	-0.389979	-1.185830	-0.198030
O26	O	-0.139979	-0.935830	0.051970
O27	O	0.110021	-0.685830	0.301970
O28	O	0.360021	-0.435830	0.551970
O29	O	-0.194315	-1.091355	-0.303587
O30	O	0.055685	-0.841355	-0.053587
O31	O	0.305685	-0.591355	0.196413
O32	O	0.555685	-0.341355	0.446413
O33	O	-0.394827	-1.310743	-0.312111
O34	O	-0.144827	-1.060743	-0.062111
O35	O	0.105173	-0.810743	0.187889
O36	O	0.355173	-0.560743	0.437889
O37	O	-0.197989	-1.186000	-0.390024
O38	O	0.052011	-0.936000	-0.140024
O39	O	0.302011	-0.686000	0.109976
O40	O	0.552011	-0.436000	0.359976
O41	O	-0.303545	-1.091258	-0.194355
O42	O	-0.053545	-0.841258	0.055645
O43	O	0.196455	-0.591258	0.305645
O44	O	0.446455	-0.341258	0.555645
O45	O	-0.308373	-0.954745	-0.308403
O46	O	-0.058373	-0.704745	-0.058403
O47	O	0.191627	-0.454745	0.191597
O48	O	0.441627	-0.204745	0.441597
O49	O	-0.403314	-1.070797	-0.512571
O50	O	-0.153314	-0.820797	-0.262571
O51	O	0.096686	-0.570797	-0.012571
O52	O	0.346686	-0.320797	0.237429
O53	O	-0.398466	-0.945883	-0.398490
O54	O	-0.148466	-0.695883	-0.148490
O55	O	0.101534	-0.445883	0.101510
O56	O	0.351534	-0.195883	0.351510
O57	O	-0.316894	-1.174304	-0.508922
O58	O	-0.066894	-0.924304	-0.258922
O59	O	0.183106	-0.674304	-0.008922
O60	O	0.433106	-0.424304	0.241078
O61	O	-0.508885	-1.174133	-0.316928
O62	O	-0.258885	-0.924133	-0.066928
O63	O	-0.008885	-0.674133	0.183072
O64	O	0.241115	-0.424133	0.433072
O65	O	-0.512543	-1.070700	-0.403340
O66	O	-0.262543	-0.820700	-0.153340
O67	O	-0.012543	-0.570700	0.096660
O68	O	0.237457	-0.320700	0.346660
C69	C	-0.353418	-0.921058	-0.353444
C70	C	-0.103418	-0.671058	-0.103444
C71	C	0.146582	-0.421058	0.146556
C72	C	0.396582	-0.171058	0.396556
C73	C	-0.353429	-0.831436	-0.353450
C74	C	-0.103429	-0.581436	-0.103450
C75	C	0.146571	-0.331436	0.146550
C76	C	0.396571	-0.081436	0.396550
C77	C	-0.536245	-1.121118	-0.361231
C78	C	-0.286245	-0.871118	-0.111231
C79	C	-0.036245	-0.621118	0.138769
C80	C	0.213755	-0.371118	0.388769
C81	C	-0.614454	-1.117157	-0.364575
C82	C	-0.364454	-0.867157	-0.114575
C83	C	-0.114454	-0.617157	0.135425
C84	C	0.135546	-0.367157	0.385425
C85	C	-0.353429	-0.503259	-0.353471
C86	C	-0.103429	-0.253259	-0.103471
C87	C	0.146571	-0.003259	0.146529
C88	C	0.396571	0.246741	0.396529
C89	C	-0.353427	-0.594568	-0.353463
C90	C	-0.103427	-0.344568	-0.103463
C91	C	0.146573	-0.094568	0.146537
C92	C	0.396573	0.155432	0.396537
C93	C	-0.353429	-0.667345	-0.353460
C94	C	-0.103429	-0.417345	-0.103460
C95	C	0.146571	-0.167345	0.146540
C96	C	0.396571	0.082655	0.396540
C97	C	-0.353427	-0.758660	-0.353453
C98	C	-0.103427	-0.508660	-0.103453
C99	C	0.146573	-0.258660	0.146547
C100	C	0.396573	-0.008660	0.396547
C101	C	-0.649270	-1.169186	-0.321193
C102	C	-0.399270	-0.919186	-0.071193
C103	C	-0.149270	-0.669186	0.178807
C104	C	0.100730	-0.419186	0.428807
C105	C	-0.722756	-1.165466	-0.324342
C106	C	-0.472756	-0.915466	-0.074342
C107	C	-0.222756	-0.665466	0.175658
C108	C	0.027244	-0.415466	0.425658
C109	C	-0.761424	-1.109711	-0.370870
C110	C	-0.511424	-0.859711	-0.120870
C111	C	-0.261424	-0.609711	0.129130
C112	C	-0.011424	-0.359711	0.379130
C113	C	-0.726603	-1.057679	-0.414256
C114	C	-0.476603	-0.807679	-0.164256
C115	C	-0.226603	-0.557679	0.085744
C116	C	0.023397	-0.307679	0.335744
C117	C	-0.653118	-1.061404	-0.411111
C118	C	-0.403118	-0.811404	-0.161111
C119	C	-0.153118	-0.561404	0.088889
C120	C	0.096882	-0.311404	0.338889
C121	C	-0.983395	-1.095770	-0.382621
C122	C	-0.733395	-0.845770	-0.132621
C123	C	-0.483395	-0.595770	0.117379
C124	C	-0.233395	-0.345770	0.367379
C125	C	-1.056884	-1.092047	-0.385762
C126	C	-0.806884	-0.842047	-0.135762
C127	C	-0.556884	-0.592047	0.114238
C128	C	-0.306884	-0.342047	0.364238
C129	C	-1.053032	-1.199835	-0.295847
C130	C	-0.803032	-0.949835	-0.045847
C131	C	-0.553032	-0.699835	0.204153
C132	C	-0.303032	-0.449835	0.454153
C133	C	-0.979547	-1.203552	-0.292703
C134	C	-0.729547	-0.953552	-0.042703
C135	C	-0.479547	-0.703552	0.207297
C136	C	-0.229547	-0.453552	0.457297
C137	C	-0.944732	-1.151523	-0.336092
C138	C	-0.694732	-0.901523	-0.086092
C139	C	-0.444732	-0.651523	0.163908
C140	C	-0.194732	-0.401523	0.413908
C141	C	-0.836538	-1.105904	-0.374088
C142	C	-0.586538	-0.855904	-0.124088
C143	C	-0.336538	-0.605904	0.125912
C144	C	-0.086538	-0.355904	0.375912
C145	C	-0.869619	-1.155334	-0.332877
C146	C	-0.619619	-0.905334	-0.082877
C147	C	-0.369619	-0.655334	0.167123
C148	C	-0.119619	-0.405334	0.417123
C149	C	-0.169908	-1.140034	-0.345693
C150	C	0.080092	-0.890034	-0.095693
C151	C	0.330092	-0.640034	0.154307
C152	C	0.580092	-0.390034	0.404307
C153	C	-0.091700	-1.144076	-0.342380
C154	C	0.158300	-0.894076	-0.092380
C155	C	0.408300	-0.644076	0.157620
C156	C	0.658300	-0.394076	0.407620
C157	C	-0.361218	-1.121216	-0.536990
C158	C	-0.111218	-0.871216	-0.286990
C159	C	0.138782	-0.621216	-0.036990
C160	C	0.388782	-0.371216	0.213010
C161	C	-0.364535	-1.117239	-0.615196
C162	C	-0.114535	-0.867239	-0.365196
C163	C	0.135465	-0.617239	-0.115196
C164	C	0.385465	-0.367239	0.134804
C165	C	-0.353444	-0.340854	-0.353489
C166	C	-0.103444	-0.090854	-0.103489
C167	C	0.146556	0.159146	0.146511
C168	C	0.396556	0.409146	0.396511
C169	C	-0.353436	-0.430476	-0.353479
C170	C	-0.103436	-0.180476	-0.103479
C171	C	0.146564	0.069524	0.146521
C172	C	0.396564	0.319524	0.396521
C173	C	-0.321101	-1.169259	-0.650038
C174	C	-0.071101	-0.919259	-0.400038
C175	C	0.178899	-0.669259	-0.150038
C176	C	0.428899	-0.419259	0.099962
C177	C	-0.324215	-1.165513	-0.723520
C178	C	-0.074215	-0.915513	-0.473520
C179	C	0.175785	-0.665513	-0.223520
C180	C	0.425785	-0.415513	0.026480
C181	C	-0.370767	-1.109751	-0.762159
C182	C	-0.120767	-0.859751	-0.512159
C183	C	0.129233	-0.609751	-0.262159
C184	C	0.379233	-0.359751	-0.012159
C185	C	-0.414203	-1.057726	-0.727312
C186	C	-0.164203	-0.807726	-0.477312
C187	C	0.085797	-0.557726	-0.227312
C188	C	0.335797	-0.307726	0.022688
C189	C	-0.411084	-1.061468	-0.653831
C190	C	-0.161084	-0.811468	-0.403831
C191	C	0.088916	-0.561468	-0.153831
C192	C	0.338916	-0.311468	0.096169
C193	C	-0.382430	-1.095751	-0.984119
C194	C	-0.132430	-0.845751	-0.734119
C195	C	0.117570	-0.595751	-0.484119
C196	C	0.367570	-0.345751	-0.234119
C197	C	-0.385546	-1.092014	-1.057605
C198	C	-0.135546	-0.842014	-0.807605
C199	C	0.114454	-0.592014	-0.557605
C200	C	0.364454	-0.342014	-0.307605
C201	C	-0.295558	-1.199801	-1.053808
C202	C	-0.045558	-0.949801	-0.803808
C203	C	0.204442	-0.699801	-0.553808
C204	C	0.454442	-0.449801	-0.303808
C205	C	-0.292447	-1.203542	-0.980326
C206	C	-0.042447	-0.953542	-0.730326
C207	C	0.207553	-0.703542	-0.480326
C208	C	0.457553	-0.453542	-0.230326
C209	C	-0.335879	-1.151514	-0.945485
C210	C	-0.085879	-0.901514	-0.695485
C211	C	0.164121	-0.651514	-0.445485
C212	C	0.414121	-0.401514	-0.195485
C213	C	-0.373953	-1.105922	-0.837270
C214	C	-0.123953	-0.855922	-0.587270
C215	C	0.126047	-0.605922	-0.337270
C216	C	0.376047	-0.355922	-0.087270
C217	C	-0.332689	-1.155339	-0.870376
C218	C	-0.082689	-0.905339	-0.620376
C219	C	0.167311	-0.655339	-0.370376
C220	C	0.417311	-0.405339	-0.120376
C221	C	-0.345628	-1.139891	-0.170661
C222	C	-0.095628	-0.889891	0.079339
C223	C	0.154372	-0.639891	0.329339
C224	C	0.404372	-0.389891	0.579339
C225	C	-0.342113	-1.144033	-0.092447
C226	C	-0.092113	-0.894033	0.157553
C227	C	0.157887	-0.644033	0.407553
C228	C	0.407887	-0.394033	0.657553
H229	H	-0.617791	-1.214585	-0.283301
H230	H	-0.367791	-0.964585	-0.033301
H231	H	-0.117791	-0.714585	0.216699
H232	H	0.132209	-0.464585	0.466699
Cl233	Cl	-1.105495	-1.021940	-0.444250
Cl234	Cl	-0.855495	-0.771940	-0.194250
Cl235	Cl	-0.605495	-0.521940	0.055750
Cl236	Cl	-0.355495	-0.271940	0.305750
Cl237	Cl	-0.465687	-0.996067	-0.610029
Cl238	Cl	-0.215687	-0.746067	-0.360029
Cl239	Cl	0.034313	-0.496067	-0.110029
Cl240	Cl	0.284313	-0.246067	0.139971
H241	H	-0.260196	-1.242158	-1.082184
H242	H	-0.010196	-0.992158	-0.832184
H243	H	0.239804	-0.742158	-0.582184
H244	H	0.489804	-0.492158	-0.332184
Cl245	Cl	-0.233922	-1.273646	-0.931757
Cl246	Cl	0.016078	-1.023646	-0.681757
Cl247	Cl	0.266078	-0.773646	-0.431757
Cl248	Cl	0.516078	-0.523646	-0.181757
H249	H	-0.758092	-1.012285	-0.452144
H250	H	-0.508092	-0.762285	-0.202144
H251	H	-0.258092	-0.512285	0.047856
H252	H	-0.008092	-0.262285	0.297856
H253	H	-0.624772	-1.019037	-0.446438
H254	H	-0.374772	-0.769037	-0.196438
H255	H	-0.124772	-0.519037	0.053562
H256	H	0.125228	-0.269037	0.303562
H257	H	-0.751099	-1.207833	-0.289015
H258	H	-0.501099	-0.957833	-0.039015
H259	H	-0.251099	-0.707833	0.210985
H260	H	-0.001099	-0.457833	0.460985
H261	H	-0.423456	-1.046603	-1.089063
H262	H	-0.173456	-0.796603	-0.839063
H263	H	0.076544	-0.546603	-0.589063
H264	H	0.326544	-0.296603	-0.339063
H265	H	-0.838134	-1.200733	-0.294996
H266	H	-0.588134	-0.950733	-0.044996
H267	H	-0.338134	-0.700733	0.205004
H268	H	-0.088134	-0.450733	0.455004
Cl269	Cl	-0.939638	-1.030360	-0.437167
Cl270	Cl	-0.689638	-0.780360	-0.187167
Cl271	Cl	-0.439638	-0.530360	0.062833
Cl272	Cl	-0.189638	-0.280360	0.312833
Cl273	Cl	-0.274162	-1.225430	-0.821800
Cl274	Cl	-0.024162	-0.975430	-0.571800
Cl275	Cl	0.225838	-0.725430	-0.321800
Cl276	Cl	0.475838	-0.475430	-0.071800
Cl277	Cl	-0.437032	-1.030344	-0.940329
Cl278	Cl	-0.187032	-0.780344	-0.690329
Cl279	Cl	0.062968	-0.530344	-0.440329
Cl280	Cl	0.312968	-0.280344	-0.190329
Cl281	Cl	-0.885155	-1.035814	-0.432578
Cl282	Cl	-0.635155	-0.785814	-0.182578
Cl283	Cl	-0.385155	-0.535814	0.067422
Cl284	Cl	-0.135155	-0.285814	0.317422
H285	H	-0.283196	-1.214669	-0.618583
H286	H	-0.033196	-0.964669	-0.368583
H287	H	0.216804	-0.714669	-0.118583
H288	H	0.466804	-0.464669	0.131417
H289	H	-0.288849	-1.207875	-0.751885
H290	H	-0.038849	-0.957875	-0.501885
H291	H	0.211151	-0.707875	-0.251885
H292	H	0.461151	-0.457875	-0.001885
Cl293	Cl	-0.472723	-0.987621	-0.775886
Cl294	Cl	-0.222723	-0.737621	-0.525886
Cl295	Cl	0.027277	-0.487621	-0.275886
Cl296	Cl	0.277277	-0.237621	-0.025886
Cl297	Cl	-0.930941	-1.273658	-0.234218
Cl298	Cl	-0.680941	-1.023658	0.015782
Cl299	Cl	-0.430941	-0.773658	0.265782
Cl300	Cl	-0.180941	-0.523658	0.515782
H301	H	-1.081386	-1.242195	-0.260523
H302	H	-0.831386	-0.992195	-0.010523
H303	H	-0.581386	-0.742195	0.239477
H304	H	-0.331386	-0.492195	0.489477
Cl305	Cl	-0.432477	-1.035826	-0.885850
Cl306	Cl	-0.182477	-0.785826	-0.635850
Cl307	Cl	0.067523	-0.535826	-0.385850
Cl308	Cl	0.317523	-0.285826	-0.135850
