data_functionalizedCrystal
_audit_creation_method	'MofGen! by Chris Wilmer'
_symmetry_space_group_name_H-M	'P1'
_symmetry_Int_Tables_number	1
_symmetry_cell_setting	triclinic
loop_
_symmetry_equiv_pos_as_xyz
  x,y,z
_cell_length_a	17.699083
_cell_length_b	10.654550
_cell_length_c	16.176319
_cell_angle_alpha	90.005221
_cell_angle_beta	89.986753
_cell_angle_gamma	83.883973
loop_
_atom_site_label
_atom_site_type_symbol
_atom_site_fract_x
_atom_site_fract_y
_atom_site_fract_z
O1	O	-1.005072	-0.158809	-0.068630
O2	O	-0.505072	0.341191	0.431370
O3	O	-0.784825	-0.179471	-0.068657
O4	O	-0.284825	0.320529	0.431343
O5	O	-0.900013	0.013688	-0.068638
O6	O	-0.400013	0.513688	0.431362
O7	O	-0.889885	-0.351968	-0.068650
O8	O	-0.389885	0.148032	0.431350
O9	O	-0.900029	0.013701	0.068855
O10	O	-0.400029	0.513701	0.568855
O11	O	-0.784841	-0.179458	0.068836
O12	O	-0.284841	0.320542	0.568836
O13	O	-1.005088	-0.158796	0.068863
O14	O	-0.505088	0.341204	0.568863
Cu15	Cu	-0.894966	-0.169126	0.081404
Cu16	Cu	-0.394966	0.330874	0.581404
Cu17	Cu	-0.894947	-0.169141	-0.081198
Cu18	Cu	-0.394947	0.330859	0.418802
O19	O	-0.889901	-0.351955	0.068844
O20	O	-0.389901	0.148045	0.568844
C21	C	-0.756632	-0.178724	0.000086
C22	C	-0.256632	0.321276	0.500086
C23	C	-0.672599	-0.176503	0.000076
C24	C	-0.172599	0.323497	0.500076
C25	C	-0.899277	0.060479	0.000108
C26	C	-0.399277	0.560479	0.500108
C27	C	-0.897052	0.199884	0.000106
C28	C	-0.397052	0.699884	0.500106
C29	C	-1.033282	-0.159543	0.000118
C30	C	-0.533282	0.340457	0.500118
C31	C	-1.117314	-0.161764	0.000123
C32	C	-0.617314	0.338236	0.500123
C33	C	-0.624699	-0.289883	0.000072
C34	C	-0.124699	0.210117	0.500072
C35	C	-0.545743	-0.287788	0.000083
C36	C	-0.045743	0.212212	0.500083
C37	C	-0.514688	-0.172313	0.000091
C38	C	-0.014688	0.327687	0.500091
C39	C	-0.562594	-0.058924	0.000097
C40	C	-0.062594	0.441076	0.500097
C41	C	-0.641549	-0.061020	0.000092
C42	C	-0.141549	0.438980	0.500092
C43	C	-0.244177	-0.050470	0.000118
C44	C	0.255823	0.449530	0.500118
C45	C	-0.165216	-0.048383	0.000120
C46	C	0.334784	0.451617	0.500120
C47	C	-0.148371	-0.277239	0.000109
C48	C	0.351629	0.222761	0.500109
C49	C	-0.227326	-0.279334	0.000104
C50	C	0.272674	0.220666	0.500104
C51	C	-0.275225	-0.165946	0.000114
C52	C	0.224775	0.334054	0.500114
C53	C	-0.360839	-0.168219	0.000104
C54	C	0.139161	0.331781	0.500104
C55	C	-0.429076	-0.170039	0.000095
C56	C	0.070924	0.329961	0.500095
C57	C	-0.890637	-0.398746	0.000096
C58	C	-0.390637	0.101254	0.500096
C59	C	-0.892861	-0.538151	0.000092
C60	C	-0.392861	-0.038151	0.500092
N61	N	-0.894934	-0.169143	-0.195563
N62	N	-0.394934	0.330857	0.304437
C63	C	-0.964873	0.280556	0.000114
C64	C	-0.464873	0.780556	0.500114
C65	C	-0.962778	0.411541	0.000104
C66	C	-0.462778	0.911541	0.500104
C67	C	-0.825036	0.381166	0.000081
C68	C	-0.325036	0.881166	0.500081
C69	C	-0.827132	0.250185	0.000086
C70	C	-0.327132	0.750185	0.500086
C71	C	-0.946086	-0.083762	-0.760937
C72	C	-0.446086	0.416238	-0.260937
C73	C	-0.946077	-0.083761	-0.674390
C74	C	-0.446077	0.416239	-0.174390
C75	C	-0.894970	-0.169119	-0.631139
C76	C	-0.394970	0.330881	-0.131139
C77	C	-0.843863	-0.254476	-0.674439
C78	C	-0.343863	0.245524	-0.174439
C79	C	-0.843870	-0.254470	-0.760984
C80	C	-0.343870	0.245530	-0.260984
C81	C	-0.843837	-0.254500	-0.325410
C82	C	-0.343837	0.245500	0.174590
C83	C	-0.843836	-0.254502	-0.238859
C84	C	-0.343836	0.245498	0.261141
C85	C	-0.946045	-0.083791	-0.238816
C86	C	-0.446045	0.416209	0.261184
C87	C	-0.946051	-0.083785	-0.325362
C88	C	-0.446051	0.416215	0.174638
C89	C	-0.894942	-0.169137	-0.368654
C90	C	-0.394942	0.330863	0.131346
C91	C	-0.894951	-0.169135	-0.462499
C92	C	-0.394951	0.330865	0.037501
C93	C	-0.894963	-0.169128	-0.537296
C94	C	-0.394963	0.330872	-0.037296
N95	N	-0.894985	-0.169114	0.195769
N96	N	-0.394985	0.330886	0.695769
H97	H	-0.649978	-0.383916	0.000065
H98	H	-0.149978	0.116084	0.500065
Br99	Br	-1.015456	0.032079	-0.819628
Br100	Br	-0.515456	0.532079	-0.319628
Br101	Br	-1.054824	0.521022	0.000110
Br102	Br	-0.554824	1.021022	0.500110
Br103	Br	-0.480737	-0.441668	0.000076
Br104	Br	0.019263	0.058332	0.500076
H105	H	-0.802257	-0.323971	-0.796233
H106	H	-0.302257	0.176029	-0.296233
Br107	Br	-1.059764	0.212294	0.000143
Br108	Br	-0.559764	0.712294	0.500143
Br109	Br	-0.730148	0.449441	0.000050
Br110	Br	-0.230148	0.949441	0.500050
H111	H	-0.139935	0.045657	0.000128
H112	H	0.360065	0.545657	0.500128
Br113	Br	-0.269468	-0.436056	0.000085
Br114	Br	0.230532	0.063944	0.500085
Br115	Br	-0.774473	-0.370355	-0.180160
Br116	Br	-0.274473	0.129645	0.319840
Br117	Br	-0.735083	0.140690	0.000064
Br118	Br	-0.235083	0.640690	0.500064
H119	H	-0.987687	-0.014260	-0.639141
H120	H	-0.487687	0.485740	-0.139141
H121	H	-0.987669	-0.014283	-0.360575
H122	H	-0.487669	0.485717	0.139425
Br123	Br	-1.015408	0.032048	-0.180059
Br124	Br	-0.515408	0.532048	0.319941
H125	H	-0.109361	-0.369564	0.000105
H126	H	0.390639	0.130436	0.500105
Br127	Br	-0.309174	0.103414	0.000134
Br128	Br	0.190826	0.603414	0.500134
Br129	Br	-0.520449	0.097796	0.000116
Br130	Br	-0.020449	0.597796	0.500116
H131	H	-0.680549	0.031306	0.000094
H132	H	-0.180549	0.531306	0.500094
Br133	Br	-0.774479	-0.370333	-0.384160
Br134	Br	-0.274479	0.129667	0.115840
Br135	Br	-0.774496	-0.370314	-0.615743
Br136	Br	-0.274496	0.129686	-0.115743
