data_functionalizedCrystal
_audit_creation_method	'MofGen! by Chris Wilmer'
_symmetry_space_group_name_H-M	'P1'
_symmetry_Int_Tables_number	1
_symmetry_cell_setting	triclinic
loop_
_symmetry_equiv_pos_as_xyz
  x,y,z
_cell_length_a	10.967926
_cell_length_b	23.532357
_cell_length_c	22.610064
_cell_angle_alpha	89.989969
_cell_angle_beta	102.113953
_cell_angle_gamma	83.791997
loop_
_atom_site_label
_atom_site_type_symbol
_atom_site_fract_x
_atom_site_fract_y
_atom_site_fract_z
O1	O	1.654586	0.079870	0.119452
O2	O	1.291215	0.087516	0.082414
O3	O	1.483890	0.000830	0.102065
O4	O	1.461910	0.166555	0.099801
O5	O	1.483834	0.000830	0.200429
O6	O	1.291159	0.087515	0.180777
O7	O	1.654530	0.079869	0.217816
Zn8	Zn	1.472835	0.083692	0.214914
Zn9	Zn	1.472909	0.083693	0.085316
O10	O	1.461854	0.166555	0.198164
C11	C	1.244708	0.086959	0.126858
C12	C	1.106214	0.085295	0.112742
C13	C	1.044441	0.084553	0.157403
C14	C	0.901301	0.082832	0.142815
C15	C	1.483312	-0.020390	0.151193
C16	C	1.481659	-0.083619	0.151030
C17	C	1.471313	-0.475698	0.096322
C18	C	1.469742	-0.535107	0.096159
O19	O	1.468913	-0.565829	0.050472
N20	N	1.468932	-0.564824	0.149697
C21	C	1.469681	-0.535127	0.203400
O22	O	1.468846	-0.565858	0.248923
C23	C	1.471243	-0.475718	0.203562
C24	C	1.472066	-0.446005	0.150022
C25	C	1.472134	-0.445985	0.042787
C26	C	1.473708	-0.386580	0.042951
C27	C	1.474460	-0.356887	0.096650
C28	C	1.473639	-0.386600	0.150186
C29	C	1.471983	-0.446021	0.257264
C30	C	1.473544	-0.386608	0.257421
C31	C	1.474367	-0.356896	0.203881
C32	C	1.475965	-0.297502	0.204050
N33	N	1.476775	-0.267785	0.150512
C34	C	1.476022	-0.297478	0.096812
C35	C	1.466398	-0.659890	0.203056
C36	C	1.464844	-0.719298	0.202895
C37	C	1.464903	-0.719274	0.095653
C38	C	1.466465	-0.659865	0.095815
C39	C	1.467207	-0.630173	0.149518
C40	C	1.479328	-0.172722	0.097161
C41	C	1.480907	-0.113312	0.097330
C42	C	1.480842	-0.113340	0.204571
C43	C	1.479269	-0.172746	0.204403
C44	C	1.478508	-0.202435	0.150693
O45	O	1.476790	-0.266742	0.249713
O46	O	1.476840	-0.266738	0.051296
C47	C	1.701037	0.080426	0.173370
C48	C	1.839530	0.082090	0.187483
C49	C	1.462432	0.187775	0.149035
C50	C	1.464085	0.251004	0.149194
N51	N	1.472794	0.083692	0.303362
N52	N	1.472961	0.083689	-0.003131
C53	C	1.548137	0.118542	0.719678
C54	C	1.548152	0.118541	0.781600
O55	O	1.612162	0.148168	0.820138
N56	N	1.472933	0.083686	0.804913
C57	C	1.397703	0.048827	0.766303
O58	O	1.333726	0.019180	0.791819
C59	C	1.397695	0.048825	0.704384
C60	C	1.472910	0.083686	0.681072
C61	C	1.623346	0.153400	0.696366
C62	C	1.623328	0.153402	0.634449
C63	C	1.548101	0.118546	0.595843
C64	C	1.472892	0.083688	0.619155
C65	C	1.322472	0.013963	0.665775
C66	C	1.322472	0.013965	0.603852
C67	C	1.397686	0.048826	0.580541
C68	C	1.397647	0.048835	0.518632
N69	N	1.472866	0.083689	0.495318
C70	C	1.548093	0.118545	0.533924
C71	C	1.397727	0.048831	0.896339
C72	C	1.397728	0.048835	0.958257
C73	C	1.548179	0.118549	0.973549
C74	C	1.548171	0.118547	0.911630
C75	C	1.472947	0.083686	0.873025
C76	C	1.548049	0.118547	0.403892
C77	C	1.548021	0.118547	0.341968
C78	C	1.397575	0.048832	0.326681
C79	C	1.397598	0.048833	0.388599
C80	C	1.472845	0.083692	0.427204
O81	O	1.333674	0.019221	0.480057
O82	O	1.612072	0.148181	0.508400
H83	H	1.481579	-0.089123	0.053730
N84	N	1.704479	0.191004	0.737997
H85	H	1.693084	0.185724	0.780763
H86	H	1.795360	0.180134	0.736422
H87	H	1.261214	-0.014425	0.572423
H88	H	1.609269	0.146938	0.322991
H89	H	0.848222	0.082193	0.093775
N90	N	0.909835	0.082939	0.252441
H91	H	0.876674	0.117909	0.272512
H92	H	0.897786	0.047404	0.274631
N93	N	1.035908	0.084445	0.047786
H94	H	0.971347	0.119036	0.038842
H95	H	1.096880	0.085155	0.020026
H96	H	1.478702	-0.196888	0.053424
H97	H	1.478611	-0.196940	0.248000
H98	H	1.609417	0.146935	0.892654
H99	H	1.481460	-0.089154	0.248293
H100	H	1.684581	0.181787	0.615476
N101	N	1.629366	0.156131	1.015190
H102	H	1.604245	0.197467	1.001856
H103	H	1.617946	0.150792	1.057942
N104	N	1.474588	-0.354536	-0.014797
H105	H	1.473868	-0.382368	-0.048836
H106	H	1.397880	-0.325570	-0.024953
H107	H	1.471517	-0.470154	-0.000945
H108	H	1.467133	-0.635677	0.052218
H109	H	1.467006	-0.635718	0.246790
N110	N	1.464091	-0.751306	0.037732
H111	H	1.462972	-0.793449	0.045758
H112	H	1.387020	-0.736601	0.006460
N113	N	1.463984	-0.751344	0.260644
H114	H	1.464702	-0.723513	0.294685
H115	H	1.385975	-0.771674	0.255032
H116	H	1.336466	0.020455	0.977229
N117	N	1.114736	0.085402	0.222361
H118	H	1.102706	0.049891	0.244599
H119	H	1.206997	0.086533	0.223524
H120	H	1.261226	-0.014425	0.684744
H121	H	1.471315	-0.470203	0.300862
N122	N	1.316455	0.011233	0.285038
H123	H	1.255064	0.035767	0.253091
H124	H	1.371242	-0.016403	0.264966
N125	N	1.474340	-0.354583	0.315344
H126	H	1.473582	-0.382424	0.349233
H127	H	1.552347	-0.334254	0.325637
H128	H	1.336458	0.020445	0.864909
N129	N	1.316451	0.011246	0.413744
H130	H	1.268786	-0.010831	0.379889
H131	H	1.371207	-0.016371	0.445010
H132	H	1.609323	0.146932	0.435317
