data_functionalizedCrystal
_audit_creation_method	'MofGen! by Chris Wilmer'
_symmetry_space_group_name_H-M	'P1'
_symmetry_Int_Tables_number	1
_symmetry_cell_setting	triclinic
loop_
_symmetry_equiv_pos_as_xyz
  x,y,z
_cell_length_a	12.811457
_cell_length_b	12.811415
_cell_length_c	16.176319
_cell_angle_alpha	84.562354
_cell_angle_beta	95.424545
_cell_angle_gamma	84.559489
loop_
_atom_site_label
_atom_site_type_symbol
_atom_site_fract_x
_atom_site_fract_y
_atom_site_fract_z
O1	O	1.393275	0.141364	0.025114
O2	O	1.893275	0.641364	0.525114
O3	O	1.087763	0.156740	0.001055
O4	O	1.587763	0.656740	0.501055
O5	O	1.248204	-0.003708	0.025117
O6	O	1.748204	0.496292	0.525117
O7	O	1.232834	0.301811	0.001052
O8	O	1.732834	0.801811	0.501052
O9	O	1.248181	-0.003718	0.162609
O10	O	1.748181	0.496282	0.662609
O11	O	1.087740	0.156729	0.138547
O12	O	1.587740	0.656729	0.638547
O13	O	1.393252	0.141353	0.162606
O14	O	1.893252	0.641353	0.662606
Cu15	Cu	1.240494	0.149040	0.163131
Cu16	Cu	1.740494	0.649040	0.663131
Cu17	Cu	1.240521	0.149053	0.000530
Cu18	Cu	1.740521	0.649053	0.500530
O19	O	1.232811	0.301801	0.138545
O20	O	1.732811	0.801801	0.638545
C21	C	1.048644	0.155873	0.066934
C22	C	1.548644	0.655873	0.566934
C23	C	0.932117	0.153295	0.058390
C24	C	1.432117	0.653295	0.558390
C25	C	0.713126	0.148419	0.192248
C26	C	1.213126	0.648419	0.692248
C27	C	0.603639	0.145996	0.184225
C28	C	1.103639	0.645996	0.684225
C29	C	0.603653	0.146019	0.034322
C30	C	1.103653	0.646019	0.534322
C31	C	0.713141	0.148442	0.042345
C32	C	1.213141	0.648442	0.542345
C33	C	0.767873	0.149643	0.121311
C34	C	1.267873	0.649643	0.621311
C35	C	0.877362	0.152074	0.129332
C36	C	1.377362	0.652074	0.629332
C37	C	0.877375	0.152089	-0.020569
C38	C	1.377375	0.652089	0.479431
C39	C	0.767887	0.149666	-0.028593
C40	C	1.267887	0.649666	0.471407
C41	C	1.247331	-0.042821	0.096729
C42	C	1.747331	0.457179	0.596729
C43	C	1.244750	-0.159351	0.105269
C44	C	1.744750	0.340649	0.605269
C45	C	1.239907	-0.378301	-0.028595
C46	C	1.739907	0.121699	0.471405
C47	C	1.237482	-0.487791	-0.020575
C48	C	1.737482	0.012209	0.479425
C49	C	1.237469	-0.487823	0.129329
C50	C	1.737469	0.012177	0.629329
C51	C	1.239894	-0.378333	0.121309
C52	C	1.739894	0.121667	0.621309
C53	C	1.241114	-0.323576	0.042344
C54	C	1.741114	0.176424	0.542344
C55	C	1.243546	-0.214084	0.034325
C56	C	1.743546	0.285916	0.534325
C57	C	1.243525	-0.214118	0.184228
C58	C	1.743525	0.285882	0.684228
C59	C	1.241101	-0.323608	0.192248
C60	C	1.741101	0.176392	0.692248
C61	C	1.432371	0.142219	0.096726
C62	C	1.932371	0.642219	0.596726
C63	C	1.548898	0.144798	0.105264
C64	C	2.048898	0.644798	0.605264
C65	C	1.233684	0.340914	0.066930
C66	C	1.733684	0.840914	0.566930
C67	C	1.236265	0.457444	0.058385
C68	C	1.736265	0.957444	0.558385
N69	N	1.240484	0.149031	0.277496
N70	N	1.740484	0.649031	0.777496
N71	N	1.240540	0.149054	-0.113833
N72	N	1.740540	0.649054	0.386167
C73	C	1.311548	0.078014	0.331414
C74	C	1.811548	0.578014	0.831414
C75	C	1.311554	0.078013	0.417962
C76	C	1.811554	0.578013	0.917962
C77	C	1.240498	0.149035	0.450590
C78	C	1.740498	0.649035	0.950590
C79	C	1.169426	0.220055	0.396665
C80	C	1.669426	0.720055	0.896665
C81	C	1.169416	0.220050	0.310119
C82	C	1.669416	0.720050	0.810119
C83	C	1.169462	0.220075	0.745694
C84	C	1.669462	0.720075	1.245694
C85	C	1.169479	0.220076	0.832247
C86	C	1.669479	0.720076	1.332247
C87	C	1.311599	0.078038	0.853537
C88	C	1.811599	0.578038	1.353537
C89	C	1.311590	0.078033	0.766991
C90	C	1.811590	0.578033	1.266991
C91	C	1.240514	0.149049	0.713074
C92	C	1.740514	0.649049	1.213074
C93	C	1.240508	0.149048	0.619229
C94	C	1.740508	0.649048	1.119229
C95	C	1.240509	0.149042	0.544432
C96	C	1.740509	0.649042	1.044432
H97	H	1.244543	-0.169503	-0.029972
H98	H	1.744543	0.330497	0.470028
H99	H	1.236467	-0.532424	0.193618
H100	H	1.736467	-0.032424	0.693618
H101	H	1.369453	0.020204	0.740429
H102	H	1.869453	0.520204	1.240429
Cl103	Cl	1.080070	0.309329	0.242336
Cl104	Cl	1.580070	0.809329	0.742336
H105	H	1.240910	-0.333718	-0.092891
H106	H	1.740910	0.166282	0.407109
H107	H	1.111566	0.277879	0.423235
H108	H	1.611566	0.777879	0.923235
H109	H	1.236495	-0.532343	-0.078342
H110	H	1.736495	-0.032343	0.421658
Cl111	Cl	1.400886	-0.011271	0.290406
Cl112	Cl	1.900886	0.488729	0.790406
Cl113	Cl	1.400950	-0.011246	0.921324
Cl114	Cl	1.900950	0.488754	1.421324
H115	H	1.240103	-0.368205	0.256539
H116	H	1.740103	0.131795	0.756539
Cl117	Cl	0.781935	0.149944	0.291515
Cl118	Cl	1.281935	0.649944	0.791515
Cl119	Cl	1.245054	-0.145316	0.273415
Cl120	Cl	1.745054	0.354684	0.773415
Cl121	Cl	1.400893	-0.011268	0.485746
Cl122	Cl	1.900893	0.488732	0.985746
H123	H	0.559073	0.145023	-0.029967
H124	H	1.059073	0.645023	0.470033
H125	H	1.111613	0.277913	0.858809
H126	H	1.611613	0.777913	1.358809
Cl127	Cl	0.946167	0.153587	0.228602
Cl128	Cl	1.446167	0.653587	0.728602
H129	H	0.559067	0.145005	0.241989
H130	H	1.059067	0.645005	0.741989
Cl131	Cl	0.699075	0.148121	-0.127855
Cl132	Cl	1.199075	0.648121	0.372145
H133	H	1.111592	0.277900	0.701801
H134	H	1.611592	0.777900	1.201801
H135	H	0.921961	0.153092	-0.078333
H136	H	1.421961	0.653092	0.421667
