data_functionalizedCrystal
_audit_creation_method	'MofGen! by Chris Wilmer'
_symmetry_space_group_name_H-M	'P1'
_symmetry_Int_Tables_number	1
_symmetry_cell_setting	triclinic
loop_
_symmetry_equiv_pos_as_xyz
  x,y,z
_cell_length_a	14.853566
_cell_length_b	10.489716
_cell_length_c	13.930277
_cell_angle_alpha	89.994326
_cell_angle_beta	89.987070
_cell_angle_gamma	84.081775
loop_
_atom_site_label
_atom_site_type_symbol
_atom_site_fract_x
_atom_site_fract_y
_atom_site_fract_z
O1	O	1.197270	0.166514	0.079759
O2	O	1.697270	0.666514	0.579759
O3	O	0.934921	0.186353	0.079773
O4	O	1.434921	0.686353	0.579773
O5	O	1.072077	-0.009233	0.079769
O6	O	1.572077	0.490767	0.579769
O7	O	1.060114	0.362101	0.079763
O8	O	1.560114	0.862101	0.579763
O9	O	1.072102	-0.009221	-0.079893
O10	O	1.572102	0.490779	0.420107
O11	O	0.934946	0.186366	-0.079888
O12	O	1.434946	0.686366	0.420112
O13	O	1.197295	0.166526	-0.079903
O14	O	1.697295	0.666526	0.420097
Zn15	Zn	1.066124	0.176448	-0.105246
Zn16	Zn	1.566124	0.676448	0.394754
Zn17	Zn	1.066092	0.176432	0.105116
Zn18	Zn	1.566092	0.676432	0.605116
O19	O	1.060139	0.362113	-0.079899
O20	O	1.560139	0.862113	0.420101
C21	C	0.901339	0.185461	-0.000055
C22	C	1.401339	0.685461	0.499945
C23	C	0.801241	0.182768	-0.000049
C24	C	1.301241	0.682768	0.499951
C25	C	0.377979	0.171371	0.086966
C26	C	0.877979	0.671371	0.586966
C27	C	0.378028	0.171385	-0.087104
C28	C	0.878028	0.671385	0.412896
C29	C	0.472076	0.173914	-0.087101
C30	C	0.972076	0.673914	0.412899
C31	C	0.519080	0.175173	-0.000064
C32	C	1.019080	0.675173	0.499936
C33	C	0.472036	0.173904	0.086971
C34	C	0.972036	0.673904	0.586971
C35	C	0.519126	0.175196	-0.174134
C36	C	1.019126	0.675196	0.325866
C37	C	0.613179	0.177727	-0.174135
C38	C	1.113179	0.677727	0.325865
C39	C	0.660186	0.178977	-0.087096
C40	C	1.160186	0.678977	0.412904
C41	C	0.613136	0.177706	-0.000058
C42	C	1.113136	0.677706	0.499942
C43	C	0.660140	0.178966	0.086980
C44	C	1.160140	0.678966	0.586980
C45	C	0.613093	0.177685	0.174019
C46	C	1.113093	0.677685	0.674019
C47	C	0.519042	0.175154	0.174010
C48	C	1.019042	0.675154	0.674010
C49	C	0.754237	0.181508	-0.087087
C50	C	1.254237	0.681508	0.412913
C51	C	0.754197	0.181498	0.086985
C52	C	1.254197	0.681498	0.586985
C53	C	1.071190	-0.056749	-0.000059
C54	C	1.571190	0.443251	0.499941
C55	C	1.068501	-0.198350	-0.000050
C56	C	1.568501	0.301650	0.499950
C57	C	1.152610	-0.296969	-0.000063
C58	C	1.652610	0.203031	0.499937
C59	C	1.108153	-0.373836	0.078658
C60	C	1.608153	0.126164	0.578658
C61	C	1.108158	-0.373788	-0.078756
C62	C	1.608158	0.126212	0.421244
C63	C	1.024079	-0.273353	0.078737
C64	C	1.524079	0.226647	0.578737
C65	C	1.024097	-0.273299	-0.078748
C66	C	1.524097	0.226701	0.421252
C67	C	0.979578	-0.350117	-0.000007
C68	C	1.479578	0.149883	0.499993
C69	C	1.230877	0.167419	-0.000072
C70	C	1.730877	0.667419	0.499928
C71	C	1.330975	0.170112	-0.000072
C72	C	1.830975	0.670112	0.499928
C73	C	1.061026	0.409629	-0.000069
C74	C	1.561026	0.909629	0.499931
C75	C	1.063715	0.551230	-0.000071
C76	C	1.563715	1.051230	0.499929
N77	N	1.066070	0.176411	0.248682
N78	N	1.566070	0.676411	0.748682
N79	N	1.066153	0.176458	-0.248812
N80	N	1.566153	0.676458	0.251188
C81	C	1.005293	0.262884	0.700953
C82	C	1.505293	0.762884	1.200953
C83	C	1.126995	0.090022	0.700919
C84	C	1.626995	0.590022	1.200919
C85	C	1.126981	0.090013	0.600423
C86	C	1.626981	0.590013	1.100423
C87	C	1.066121	0.176439	0.550188
C88	C	1.566121	0.676439	1.050188
C89	C	1.005275	0.262875	0.600448
C90	C	1.505275	0.762875	1.100448
C91	C	1.187819	0.003570	0.550155
C92	C	1.687819	0.503570	1.050155
C93	C	1.187807	0.003556	0.449653
C94	C	1.687807	0.503556	0.949653
C95	C	1.126950	0.089990	0.399416
C96	C	1.626950	0.589990	0.899416
C97	C	1.066102	0.176430	0.449683
C98	C	1.566102	0.676430	0.949683
C99	C	1.005242	0.262857	0.399447
C100	C	1.505242	0.762857	0.899447
C101	C	0.944398	0.349304	0.449712
C102	C	1.444398	0.849304	0.949712
C103	C	0.944418	0.349309	0.550211
C104	C	1.444418	0.849309	1.050211
C105	C	1.126930	0.089985	0.298917
C106	C	1.626930	0.589985	0.798917
C107	C	1.005224	0.262847	0.298942
C108	C	1.505224	0.762847	0.798942
H109	H	0.792461	0.182520	0.157863
H110	H	1.292461	0.682520	0.657863
H111	H	0.955667	0.333231	0.258047
H112	H	1.455667	0.833231	0.758047
H113	H	0.651375	0.178720	0.244885
H114	H	1.151375	0.678720	0.744885
C115	C	0.467283	0.173754	0.269744
C116	C	0.967283	0.673754	0.769744
N117	N	0.428293	0.172704	0.341851
N118	N	0.928293	0.672704	0.841851
H119	H	0.988583	-0.229655	0.145363
H120	H	1.488583	0.270345	0.645363
C121	C	0.880669	-0.382017	0.000055
C122	C	1.380669	0.117983	0.500055
N123	N	0.806172	-0.406047	0.000106
N124	N	1.306172	0.093953	0.500106
H125	H	0.339751	0.170369	-0.157966
H126	H	0.839751	0.670369	0.342034
H127	H	1.143648	-0.417735	0.145209
H128	H	1.643648	0.082265	0.645209
C129	C	0.877448	0.444361	0.394440
C130	C	1.377448	0.944361	0.894440
N131	N	0.827021	0.515953	0.352805
N132	N	1.327021	1.015953	0.852805
H133	H	0.988633	-0.229378	-0.145301
H134	H	1.488633	0.270622	0.354699
C135	C	1.254728	-0.091547	0.394371
C136	C	1.754728	0.408453	0.894371
N137	N	1.305132	-0.163183	0.352732
N138	N	1.805132	0.336817	0.852732
H139	H	0.651478	0.178767	-0.245007
H140	H	1.151478	0.678767	0.254993
C141	C	1.156158	-0.433035	-0.168670
C142	C	1.656158	0.066965	0.331330
N143	N	1.192318	-0.477655	-0.236391
N144	N	1.692318	0.022345	0.263609
C145	C	0.805984	0.182917	-0.182824
C146	C	1.305984	0.682917	0.317176
N147	N	0.844960	0.183975	-0.254938
N148	N	1.344960	0.683975	0.245062
C149	C	0.877490	0.444383	0.605509
C150	C	1.377490	0.944383	1.105509
N151	N	0.827076	0.515988	0.647164
N152	N	1.327076	1.015988	1.147164
H153	H	0.955757	0.333272	0.741881
H154	H	1.455757	0.833272	1.241881
H155	H	1.176464	0.019595	0.257996
H156	H	1.676464	0.519595	0.757996
C157	C	1.251444	-0.264736	0.000038
C158	C	1.751444	0.235264	0.500038
N159	N	1.325883	-0.240456	0.000118
N160	N	1.825883	0.259544	0.500118
H161	H	0.339670	0.170323	0.157831
H162	H	0.839670	0.670323	0.657831
C163	C	1.193917	-0.005071	0.756181
C164	C	1.693917	0.494929	1.256181
N165	N	1.244320	-0.076706	0.797808
N166	N	1.744320	0.423294	1.297808
C167	C	1.254730	-0.091536	0.605419
C168	C	1.754730	0.408464	1.105419
N169	N	1.305120	-0.163186	0.647050
N170	N	1.805120	0.336814	1.147050
C171	C	0.467416	0.173817	-0.269869
C172	C	0.967416	0.673817	0.230131
N173	N	0.428463	0.172775	-0.341979
N174	N	0.928463	0.672775	0.158021
