data_functionalizedCrystal
_audit_creation_method	'MofGen! by Chris Wilmer'
_symmetry_space_group_name_H-M	'P1'
_symmetry_Int_Tables_number	1
_symmetry_cell_setting	triclinic
loop_
_symmetry_equiv_pos_as_xyz
  x,y,z
_cell_length_a	9.065218
_cell_length_b	14.519731
_cell_length_c	12.996460
_cell_angle_alpha	89.988498
_cell_angle_beta	90.005633
_cell_angle_gamma	95.647631
loop_
_atom_site_label
_atom_site_type_symbol
_atom_site_fract_x
_atom_site_fract_y
_atom_site_fract_z
O1	O	1.957886	-0.135227	0.085584
O2	O	2.291219	0.198106	0.418917
O3	O	2.624553	0.531440	0.752250
O4	O	1.528395	-0.146319	0.085586
O5	O	1.861728	0.187014	0.418920
O6	O	2.195061	0.520348	0.752253
O7	O	1.754511	-0.006619	0.085564
O8	O	2.087844	0.326714	0.418898
O9	O	2.421178	0.660048	0.752231
O10	O	1.731769	-0.274927	0.085606
O11	O	2.065103	0.058406	0.418939
O12	O	2.398436	0.391740	0.752273
O13	O	1.754488	-0.006611	-0.085570
O14	O	2.087821	0.326722	0.247764
O15	O	2.421154	0.660056	0.581097
O16	O	1.528371	-0.146311	-0.085547
O17	O	1.861704	0.187022	0.247786
O18	O	2.195038	0.520356	0.581119
O19	O	1.957862	-0.135219	-0.085550
O20	O	2.291196	0.198114	0.247783
O21	O	2.624529	0.531448	0.581117
Cu22	Cu	1.743114	-0.140764	-0.101175
Cu23	Cu	2.076448	0.192569	0.232159
Cu24	Cu	2.409781	0.525902	0.565492
Cu25	Cu	1.743142	-0.140774	0.101211
Cu26	Cu	2.076476	0.192560	0.434544
Cu27	Cu	2.409809	0.525893	0.767878
O28	O	1.731746	-0.274919	-0.085528
O29	O	2.065079	0.058414	0.247805
O30	O	2.398412	0.391748	0.581139
C31	C	1.473416	-0.145249	0.000020
C32	C	1.806749	0.188084	0.333353
C33	C	2.140083	0.521418	0.666686
C34	C	1.309632	-0.142062	0.000020
C35	C	1.642966	0.191272	0.333353
C36	C	1.976299	0.524605	0.666686
C37	C	1.753434	0.027752	-0.000006
C38	C	2.086767	0.361085	0.333328
C39	C	2.420100	0.694419	0.666661
C40	C	1.750241	0.130156	-0.000015
C41	C	2.083574	0.463489	0.333318
C42	C	2.416907	0.796822	0.666652
C43	C	2.012841	-0.136289	0.000019
C44	C	2.346174	0.197044	0.333352
C45	C	2.679507	0.530378	0.666686
C46	C	2.176624	-0.139476	0.000026
C47	C	2.509958	0.193857	0.333359
C48	C	2.843291	0.527190	0.666692
N49	N	1.743106	-0.140757	-0.243522
N50	N	2.076439	0.192576	0.089812
N51	N	2.409772	0.525910	0.423145
C52	C	1.747646	0.213319	-0.000020
C53	C	2.080979	0.546652	0.333313
C54	C	2.414313	0.879986	0.666647
C55	C	1.744404	0.317651	-0.000021
C56	C	2.077737	0.650985	0.333312
C57	C	2.411071	0.984318	0.666646
C58	C	1.741831	0.400809	-0.000021
C59	C	2.075164	0.734143	0.333312
C60	C	2.408498	1.067476	0.666645
C61	C	1.738589	0.505148	-0.000024
C62	C	2.071923	0.838482	0.333309
C63	C	2.405256	1.171815	0.666642
C64	C	1.732823	0.690710	0.000023
C65	C	2.066156	1.024043	0.333356
C66	C	2.399490	1.357377	0.666690
C67	C	1.736016	0.588306	-0.000025
C68	C	2.069349	0.921640	0.333309
C69	C	2.402683	1.254973	0.666642
C70	C	1.743140	-0.140775	-0.663336
C71	C	2.076474	0.192559	-0.330003
C72	C	2.409807	0.525892	0.003331
C73	C	1.743126	-0.140773	-0.546531
C74	C	2.076460	0.192560	-0.213198
C75	C	2.409793	0.525894	0.120136
C76	C	1.743124	-0.140767	-0.453433
C77	C	2.076457	0.192567	-0.120099
C78	C	2.409790	0.525900	0.213234
C79	C	1.743108	-0.140763	-0.336620
C80	C	2.076442	0.192570	-0.003287
C81	C	2.409775	0.525903	0.330047
N82	N	1.743163	-0.140774	0.243558
N83	N	2.076496	0.192560	0.576891
N84	N	2.409830	0.525893	0.910225
