data_functionalizedCrystal
_audit_creation_method	'MofGen! by Chris Wilmer'
_symmetry_space_group_name_H-M	'P1'
_symmetry_Int_Tables_number	1
_symmetry_cell_setting	triclinic
loop_
_symmetry_equiv_pos_as_xyz
  x,y,z
_cell_length_a	14.908571
_cell_length_b	12.594516
_cell_length_c	14.908694
_cell_angle_alpha	93.271011
_cell_angle_beta	83.592472
_cell_angle_gamma	86.708170
loop_
_atom_site_label
_atom_site_type_symbol
_atom_site_fract_x
_atom_site_fract_y
_atom_site_fract_z
Zn1	Zn	1.413413	-0.560365	-0.591533
Zn2	Zn	1.404603	-0.727467	-0.440176
Zn3	Zn	1.253312	-0.538594	-0.431467
Zn4	Zn	1.262035	-0.727384	-0.582774
O5	O	1.333341	-0.638452	-0.511488
O6	O	1.538913	-0.591677	-0.578765
O7	O	1.377196	-0.693336	-0.312355
O8	O	1.274587	-0.392540	-0.452722
O9	O	1.532440	-0.714446	-0.467564
O10	O	1.392213	-0.408535	-0.570321
O11	O	1.266044	-0.554572	-0.305957
O12	O	1.127801	-0.554492	-0.444228
O13	O	1.289453	-0.714305	-0.710602
O14	O	1.134210	-0.693195	-0.555393
O15	O	1.400670	-0.591597	-0.717037
O16	O	1.385654	-0.876397	-0.459071
O17	O	1.280910	-0.876337	-0.563837
C18	C	1.098162	-0.621473	-0.497916
C19	C	0.997553	-0.614236	-0.492131
C20	C	0.815209	-0.745269	-0.596861
C21	C	0.720678	-0.738473	-0.591429
C22	C	0.713957	-0.593843	-0.475840
C23	C	0.808489	-0.600639	-0.481272
C24	C	0.859111	-0.676356	-0.541784
C25	C	0.953644	-0.683156	-0.547210
C26	C	0.946922	-0.538523	-0.431627
C27	C	0.852391	-0.531726	-0.426195
C28	C	1.333298	-0.914989	-0.511469
C29	C	1.333364	-1.033301	-0.511497
C30	C	1.390409	-1.102558	-0.454583
C31	C	1.417293	-1.180801	-0.538473
C32	C	1.306596	-1.165869	-0.427666
C33	C	1.360294	-1.109992	-0.595433
C34	C	1.249555	-1.095047	-0.484567
C35	C	1.276411	-1.173260	-0.568513
C36	C	1.569438	-0.655499	-0.525113
C37	C	1.670049	-0.662764	-0.530919
C38	C	1.347017	-0.655370	-0.747581
C39	C	1.352845	-0.662580	-0.848190
C40	C	1.333410	-0.360839	-0.511527
C41	C	1.333439	-0.242537	-0.511544
C42	C	1.248032	-0.531634	-1.030583
C43	C	1.253505	-0.538404	-1.125114
C44	C	1.369258	-0.682895	-1.131784
C45	C	1.363786	-0.676124	-1.037253
C46	C	1.303172	-0.600490	-0.986656
C47	C	1.297704	-0.593716	-0.892123
C48	C	1.413452	-0.738211	-0.898795
C49	C	1.418925	-0.744981	-0.993326
C50	C	1.319770	-0.621527	-0.276316
C51	C	1.314117	-0.614031	-0.175717
H52	H	0.672725	-0.532193	-0.426580
Cl53	Cl	1.495117	-0.840062	-1.056942
H54	H	1.178665	-1.057601	-0.461741
H55	H	1.418595	-0.744486	-1.172996
H56	H	1.283925	-1.190664	-0.356751
H57	H	1.382899	-1.085328	-0.666403
Cl58	Cl	1.482775	-0.824777	-0.843567
H59	H	1.438660	-1.071522	-0.406499
Cl60	Cl	0.788743	-0.436542	-0.350131
Cl61	Cl	1.221507	-0.498632	-0.828516
Cl62	Cl	1.002118	-0.451892	-0.362375
Cl63	Cl	1.184182	-0.451840	-1.180333
Cl64	Cl	1.017283	-0.778343	-0.623279
H65	H	1.488202	-1.218223	-0.561276
Cl66	Cl	1.201986	-1.220897	-0.642940
H67	H	0.856427	-0.806925	-0.646127
Cl68	Cl	0.665490	-0.825108	-0.660674
H69	H	1.198686	-0.470040	-0.989386
