data_functionalizedCrystal
_audit_creation_method	'MofGen! by Chris Wilmer'
_symmetry_space_group_name_H-M	'P1'
_symmetry_Int_Tables_number	1
_symmetry_cell_setting	triclinic
loop_
_symmetry_equiv_pos_as_xyz
  x,y,z
_cell_length_a	12.996460
_cell_length_b	14.853567
_cell_length_c	14.853567
_cell_angle_alpha	83.634930
_cell_angle_beta	89.997651
_cell_angle_gamma	89.997390
loop_
_atom_site_label
_atom_site_type_symbol
_atom_site_fract_x
_atom_site_fract_y
_atom_site_fract_z
O1	O	0.085487	-1.196366	-0.117706
O2	O	0.085504	-0.933906	-0.131727
O3	O	0.085498	-1.072147	0.006513
O4	O	0.085493	-1.058126	-0.255946
O5	O	-0.085636	-1.072133	0.006521
O6	O	-0.085630	-0.933892	-0.131720
O7	O	-0.085647	-1.196352	-0.117698
Cu8	Cu	-0.101264	-1.065120	-0.124708
Cu9	Cu	0.101121	-1.065138	-0.124717
O10	O	-0.085641	-1.058111	-0.255939
C11	C	-0.000066	-1.071504	0.040106
C12	C	-0.000057	-1.069601	0.140189
C13	C	-0.000061	-0.900311	-0.131088
C14	C	-0.000054	-0.800227	-0.129184
N15	N	-0.243611	-1.065115	-0.124701
C16	C	-0.663426	-1.065136	-0.124718
C17	C	-0.546621	-1.065128	-0.124717
C18	C	-0.453522	-1.065126	-0.124710
C19	C	-0.336710	-1.065117	-0.124707
N20	N	0.243468	-1.065150	-0.124717
C21	C	-0.000080	-1.229947	-0.118337
C22	C	-0.000080	-1.330031	-0.120241
C23	C	-0.000076	-0.387693	-0.039019
C24	C	-0.000078	-0.366412	-0.203251
C25	C	-0.000075	-0.460446	-0.205041
C26	C	-0.000070	-0.518108	-0.123819
C27	C	-0.000069	-0.481736	-0.040806
C28	C	-0.000065	-0.496825	-0.288053
C29	C	-0.000061	-0.590864	-0.289846
C30	C	-0.000064	-0.648528	-0.208623
C31	C	-0.000064	-0.612150	-0.125607
C32	C	-0.000060	-0.669812	-0.044384
C33	C	-0.000067	-0.633437	0.038633
C34	C	-0.000072	-0.539399	0.040417
C35	C	-0.000059	-0.742565	-0.210407
C36	C	-0.000053	-0.763855	-0.046172
C37	C	-0.000075	-1.058754	-0.289531
C38	C	-0.000077	-1.060657	-0.389615
C39	C	-0.000071	-0.979435	0.552723
C40	C	-0.000081	-1.143668	0.574004
C41	C	-0.000075	-1.145458	0.479971
C42	C	-0.000069	-1.064235	0.422309
C43	C	-0.000068	-0.981223	0.458680
C44	C	-0.000086	-1.228469	0.443591
C45	C	-0.000081	-1.230262	0.349552
C46	C	-0.000067	-1.149039	0.291889
C47	C	-0.000066	-1.066023	0.328266
C48	C	-0.000059	-0.984800	0.270604
C49	C	-0.000050	-0.901783	0.306979
C50	C	-0.000054	-0.899999	0.401017
C51	C	-0.000063	-1.150823	0.197851
C52	C	-0.000056	-0.986588	0.176561
H53	H	-0.000054	-0.810798	0.019971
O54	O	-0.000066	-0.810464	0.440247
H55	H	-0.000087	-0.822869	0.515324
O56	O	-0.000056	-0.898977	0.114376
H57	H	0.069698	-0.895862	0.071024
O58	O	-0.000106	-1.316065	0.505786
H59	H	0.069634	-1.355802	0.492840
O60	O	-0.000084	-1.319796	0.310319
H61	H	0.069668	-1.324536	0.267983
H62	H	-0.000078	-1.218414	0.168238
H63	H	-0.000052	-0.835652	0.260019
O64	O	-0.000073	-0.889896	0.591946
H65	H	-0.000084	-0.902293	0.667024
H66	H	-0.000056	-0.680397	0.104764
O67	O	-0.000101	-1.231266	0.636195
H68	H	0.069645	-1.270998	0.623253
H69	H	-0.000054	-0.772178	-0.277998
H70	H	-0.000058	-0.449870	-0.354180
O71	O	-0.000089	-0.348462	0.050516
H72	H	-0.000093	-0.404359	0.106691
O73	O	-0.000077	-0.630089	-0.379384
H74	H	0.069664	-0.606934	-0.418430
O75	O	-0.000079	-0.500167	0.129951
H76	H	0.069675	-0.457840	0.134694
H77	H	-0.000073	-0.319459	-0.269379
