data_functionalizedCrystal
_audit_creation_method	'MofGen! by Chris Wilmer'
_symmetry_space_group_name_H-M	'P1'
_symmetry_Int_Tables_number	1
_symmetry_cell_setting	triclinic
loop_
_symmetry_equiv_pos_as_xyz
  x,y,z
_cell_length_a	12.759400
_cell_length_b	14.908571
_cell_length_c	14.908662
_cell_angle_alpha	83.592432
_cell_angle_beta	93.271373
_cell_angle_gamma	86.710990
loop_
_atom_site_label
_atom_site_type_symbol
_atom_site_fract_x
_atom_site_fract_y
_atom_site_fract_z
Zn1	Zn	-0.553133	1.413390	-0.591527
Zn2	Zn	-0.053133	1.913390	-0.091527
Zn3	Zn	-0.718072	1.404572	-0.440167
Zn4	Zn	-0.218072	1.904572	0.059833
Zn5	Zn	-0.531641	1.253290	-0.431461
Zn6	Zn	-0.031641	1.753290	0.068539
Zn7	Zn	-0.717993	1.262004	-0.582766
Zn8	Zn	-0.217993	1.762004	-0.082766
O9	O	-0.630210	1.333314	-0.511480
O10	O	-0.130210	1.833314	-0.011480
O11	O	-0.584040	1.538888	-0.578759
O12	O	-0.084040	2.038888	-0.078759
O13	O	-0.684380	1.377167	-0.312346
O14	O	-0.184380	1.877167	0.187654
O15	O	-0.387475	1.274571	-0.452718
O16	O	0.112525	1.774571	0.047282
O17	O	-0.705220	1.532410	-0.467555
O18	O	-0.205220	2.032410	0.032445
O19	O	-0.403266	1.392196	-0.570317
O20	O	0.096734	1.892196	-0.070317
O21	O	-0.547409	1.266021	-0.305950
O22	O	-0.047409	1.766021	0.194050
O23	O	-0.547333	1.127778	-0.444222
O24	O	-0.047333	1.627778	0.055778
O25	O	-0.705086	1.289423	-0.710594
O26	O	-0.205086	1.789423	-0.210594
O27	O	-0.684245	1.134181	-0.555385
O28	O	-0.184245	1.634181	-0.055385
O29	O	-0.583964	1.400646	-0.717031
O30	O	-0.083964	1.900646	-0.217031
O31	O	-0.865078	1.385617	-0.459060
O32	O	-0.365078	1.885617	0.040940
O33	O	-0.865020	1.280873	-0.563827
O34	O	-0.365020	1.780873	-0.063827
C35	C	-0.613449	1.098136	-0.497909
C36	C	-0.113449	1.598136	0.002091
C37	C	-0.606306	0.997527	-0.492124
C38	C	-0.106306	1.497527	0.007876
C39	C	-0.903172	1.333259	-0.511458
C40	C	-0.403172	1.833259	-0.011458
C41	C	-1.019954	1.333320	-0.511484
C42	C	-0.519954	1.833320	-0.011484
C43	C	-0.735647	0.815178	-0.596853
C44	C	-0.235647	1.315178	-0.096853
C45	C	-0.728939	0.720647	-0.591421
C46	C	-0.228939	1.220647	-0.091421
C47	C	-0.586177	0.713933	-0.475833
C48	C	-0.086177	1.213933	0.024167
C49	C	-0.592885	0.808463	-0.481265
C50	C	-0.092885	1.308463	0.018735
C51	C	-0.667624	0.859083	-0.541776
C52	C	-0.167624	1.359083	-0.041776
C53	C	-0.674336	0.953615	-0.547203
C54	C	-0.174336	1.453615	-0.047203
C55	C	-0.531570	0.946899	-0.431621
C56	C	-0.031570	1.446899	0.068379
C57	C	-0.524862	0.852369	-0.426189
C58	C	-0.024862	1.352369	0.073811
C59	C	-1.074821	1.387929	-0.457000
C60	C	-0.574821	1.887929	0.043000
C61	C	-1.184551	1.387986	-0.457031
C62	C	-0.684551	1.887986	0.042969
C63	C	-1.184538	1.278819	-0.566033
C64	C	-0.684538	1.778819	-0.066033
C65	C	-1.074811	1.278767	-0.566006
C66	C	-0.574811	1.778767	-0.066006
C67	C	-1.019965	1.442482	-0.402478
C68	C	-0.519965	1.942482	0.097522
C69	C	-1.074831	1.497094	-0.347989
C70	C	-0.574831	1.997094	0.152011
C71	C	-1.184561	1.497151	-0.348020
C72	C	-0.684561	1.997151	0.151980
C73	C	-1.239424	1.442596	-0.402540
C74	C	-0.739424	1.942596	0.097460
C75	C	-0.356185	1.333395	-0.511524
C76	C	0.143815	1.833395	-0.011524
C77	C	-0.239412	1.333429	-0.511542
C78	C	0.260588	1.833429	-0.011542
C79	C	-0.646914	1.346990	-0.747574
C80	C	-0.146914	1.846990	-0.247574
C81	C	-0.654032	1.352818	-0.848183
C82	C	-0.154032	1.852818	-0.348183
C83	C	-0.647036	1.569411	-0.525106
C84	C	-0.147036	2.069411	-0.025106
C85	C	-0.654207	1.670021	-0.530912
C86	C	-0.154207	2.170021	-0.030912
C87	C	-0.735369	1.418889	-0.993320
C88	C	-0.235369	1.918889	-0.493320
C89	C	-0.728687	1.413420	-0.898789
C90	C	-0.228687	1.913420	-0.398789
C91	C	-0.586056	1.297679	-0.892115
C92	C	-0.086056	1.797679	-0.392115
C93	C	-0.592738	1.303149	-0.986646
C94	C	-0.092738	1.803149	-0.486646
C95	C	-0.667396	1.363756	-1.037245
C96	C	-0.167396	1.863756	-0.537245
C97	C	-0.674073	1.369230	-1.131778
C98	C	-0.174073	1.869230	-0.631778
C99	C	-0.531448	1.253485	-1.125102
C100	C	-0.031448	1.753485	-0.625102
C101	C	-0.524765	1.248016	-1.030571
C102	C	-0.024765	1.748016	-0.530571
C103	C	-0.613499	1.319743	-0.276308
C104	C	-0.113499	1.819743	0.223692
C105	C	-0.606097	1.314091	-0.175709
C106	C	-0.106097	1.814091	0.324291
H107	H	-0.735194	0.994829	-0.596472
H108	H	-0.235194	1.494829	-0.096472
H109	H	-0.476182	0.982657	-0.386771
H110	H	0.023818	1.482657	0.113229
H111	H	-0.796151	1.468245	-1.034519
H112	H	-0.296151	1.968245	-0.534519
H113	H	-1.030138	1.234301	-0.610373
H114	H	-0.530138	1.734301	-0.110373
H115	H	-0.525322	0.672702	-0.426574
H116	H	-0.025322	1.172702	0.073426
F117	F	-0.753526	1.433736	-1.185629
F118	F	-0.253526	1.933736	-0.685629
H119	H	-1.030156	1.541516	-0.303605
H120	H	-0.530156	2.041516	0.196395
F121	F	-0.801035	1.472098	-0.852044
F122	F	-0.301035	1.972098	-0.352044
F123	F	-0.506577	1.233209	-0.838250
F124	F	-0.006577	1.733209	-0.338250
F125	F	-0.445302	1.183527	-0.976711
F126	F	0.054698	1.683527	-0.476711
F127	F	-0.815197	0.869052	-0.661243
F128	F	-0.315197	1.369052	-0.161243
F129	F	-0.459096	1.194810	-1.171857
F130	F	0.040904	1.694810	-0.671857
H131	H	-0.784328	0.684904	-0.636271
H132	H	-0.284328	1.184904	-0.136271
F133	F	-0.903209	1.442635	-0.402651
F134	F	-0.403209	1.942635	0.097349
H135	H	-0.464009	0.811141	-0.376925
H136	H	0.035991	1.311141	0.123075
H137	H	-1.229231	1.541625	-0.303659
H138	H	-0.729231	2.041625	0.196341
H139	H	-1.328775	1.442655	-0.402569
H140	H	-0.828775	1.942655	0.097431
F141	F	-1.242931	1.220761	-0.624051
F142	F	-0.742931	1.720761	-0.124051
