data_functionalizedCrystal
_audit_creation_method	'MofGen! by Chris Wilmer'
_symmetry_space_group_name_H-M	'P1'
_symmetry_Int_Tables_number	1
_symmetry_cell_setting	triclinic
loop_
_symmetry_equiv_pos_as_xyz
  x,y,z
_cell_length_a	14.044220
_cell_length_b	14.044190
_cell_length_c	7.540329
_cell_angle_alpha	89.991504
_cell_angle_beta	90.001925
_cell_angle_gamma	93.190328
loop_
_atom_site_label
_atom_site_type_symbol
_atom_site_fract_x
_atom_site_fract_y
_atom_site_fract_z
O1	O	1.277172	0.230167	-0.147330
O2	O	1.777172	0.730167	0.352670
O3	O	1.000500	0.221861	-0.147373
O4	O	1.500500	0.721861	0.352627
O5	O	1.134680	0.087678	-0.147317
O6	O	1.634680	0.587678	0.352683
O7	O	1.142992	0.364350	-0.147386
O8	O	1.642992	0.864350	0.352614
O9	O	1.134671	0.087675	0.147648
O10	O	1.634671	0.587675	0.647648
O11	O	1.000491	0.221859	0.147592
O12	O	1.500491	0.721859	0.647592
O13	O	1.277163	0.230164	0.147635
O14	O	1.777163	0.730164	0.647635
Cu15	Cu	1.138826	0.226011	0.174546
Cu16	Cu	1.638826	0.726011	0.674546
Cu17	Cu	1.138837	0.226014	-0.174284
Cu18	Cu	1.638837	0.726014	0.325716
O19	O	1.142983	0.364348	0.147579
O20	O	1.642983	0.864348	0.647579
C21	C	0.964874	0.218224	0.000104
C22	C	1.464874	0.718224	0.500104
C23	C	0.858731	0.207380	0.000089
C24	C	1.358731	0.707380	0.500089
C25	C	0.664392	0.187553	0.000129
C26	C	1.164392	0.687553	0.500129
C27	C	0.613264	0.264468	0.000117
C28	C	1.113264	0.764468	0.500117
C29	C	0.505128	0.253436	0.000140
C30	C	1.005128	0.753436	0.500140
C31	C	0.772539	0.198583	0.000107
C32	C	1.272539	0.698583	0.500107
C33	C	1.131039	0.052054	0.000170
C34	C	1.631039	0.552054	0.500170
C35	C	1.120191	-0.054089	0.000184
C36	C	1.620191	0.445911	0.500184
C37	C	1.177292	-0.299547	0.000123
C38	C	1.677292	0.200453	0.500123
C39	C	1.100375	-0.248422	0.000123
C40	C	1.600375	0.251578	0.500123
C41	C	1.111404	-0.140285	0.000157
C42	C	1.611404	0.359715	0.500157
C43	C	1.166265	-0.407694	0.000090
C44	C	1.666265	0.092306	0.500090
C45	C	1.312789	0.233801	0.000154
C46	C	1.812789	0.733801	0.500154
C47	C	1.418932	0.244646	0.000157
C48	C	1.918932	0.744646	0.500157
C49	C	1.146624	0.399971	0.000088
C50	C	1.646624	0.899971	0.500088
C51	C	1.157472	0.506114	0.000063
C52	C	1.657472	1.006114	0.500063
N53	N	1.138826	0.226009	0.419895
N54	N	1.638826	0.726009	0.919895
N55	N	1.138844	0.226009	-0.419633
N56	N	1.638844	0.726009	0.080367
H57	H	0.650706	0.338602	0.000090
H58	H	1.150706	0.838602	0.500090
H59	H	0.626954	0.113425	0.000157
H60	H	1.126954	0.613425	0.500157
H61	H	1.026243	-0.285865	0.000101
H62	H	1.526243	0.214135	0.500101
O63	O	1.265657	-0.254735	0.000246
O64	O	1.765657	0.245265	0.500246
C65	C	1.257133	-0.155178	0.000233
C66	C	1.757133	0.344822	0.500233
H67	H	1.184563	-0.138233	0.056051
H68	H	1.684563	0.361767	0.556051
H69	H	1.264071	-0.127032	-0.141264
H70	H	1.764071	0.372968	0.358736
C71	C	1.425610	-0.128150	0.047401
C72	C	1.925610	0.371850	0.547401
C73	C	1.336482	-0.107337	0.115972
C74	C	1.836482	0.392663	0.615972
H75	H	1.474558	-0.098638	0.118786
H76	H	1.974558	0.401362	0.618786
H77	H	1.431355	-0.195223	0.047403
H78	H	1.931355	0.304777	0.547403
H79	H	1.431378	-0.104694	-0.070512
H80	H	1.931378	0.395306	0.429488
H81	H	1.330711	-0.130804	0.233873
H82	H	1.830711	0.369196	0.733873
H83	H	1.330738	-0.040267	0.115992
H84	H	1.830738	0.459733	0.615992
