data_functionalizedCrystal
_audit_creation_method	'MofGen! by Chris Wilmer'
_symmetry_space_group_name_H-M	'P1'
_symmetry_Int_Tables_number	1
_symmetry_cell_setting	triclinic
loop_
_symmetry_equiv_pos_as_xyz
  x,y,z
_cell_length_a	23.532355
_cell_length_b	23.532357
_cell_length_c	22.010155
_cell_angle_alpha	89.998697
_cell_angle_beta	89.997414
_cell_angle_gamma	82.827896
loop_
_atom_site_label
_atom_site_type_symbol
_atom_site_fract_x
_atom_site_fract_y
_atom_site_fract_z
O1	O	0.755271	0.068988	-0.050450
O2	O	1.088604	0.402321	0.282884
O3	O	1.421937	0.735655	0.616217
O4	O	0.589401	0.079022	-0.050470
O5	O	0.922734	0.412356	0.282863
O6	O	1.256068	0.745689	0.616197
O7	O	0.677352	-0.008930	-0.050447
O8	O	1.010686	0.324404	0.282886
O9	O	1.344019	0.657737	0.616220
O10	O	0.667319	0.156940	-0.050473
O11	O	1.000653	0.490273	0.282860
O12	O	1.333986	0.823606	0.616194
O13	O	0.677336	-0.008916	0.050604
O14	O	1.010670	0.324417	0.383937
O15	O	1.344003	0.657750	0.717270
O16	O	0.589385	0.079035	0.050580
O17	O	0.922719	0.412369	0.383914
O18	O	1.256052	0.745702	0.717247
O19	O	0.755255	0.069001	0.050601
O20	O	1.088588	0.402334	0.383934
O21	O	1.421921	0.735668	0.717267
Cu22	Cu	0.672318	0.074019	0.059817
Cu23	Cu	1.005652	0.407353	0.393150
Cu24	Cu	1.338985	0.740686	0.726484
Cu25	Cu	0.672337	0.074004	-0.059687
Cu26	Cu	1.005671	0.407337	0.273647
Cu27	Cu	1.339004	0.740671	0.606980
O28	O	0.667303	0.156953	0.050577
O29	O	1.000637	0.490286	0.383911
O30	O	1.333970	0.823620	0.717244
C31	C	0.568177	0.078778	0.000053
C32	C	0.901510	0.412111	0.333386
C33	C	1.234843	0.745445	0.666719
C34	C	0.504958	0.078024	0.000045
C35	C	0.838291	0.411357	0.333379
C36	C	1.171625	0.744691	0.666712
C37	C	0.112936	0.073293	0.055154
C38	C	0.446270	0.406626	0.388487
C39	C	0.779603	0.739960	0.721821
C40	C	0.053537	0.072575	0.055157
C41	C	0.386870	0.405909	0.388490
C42	C	0.720204	0.739242	0.721823
O43	O	0.022811	0.072191	0.102002
O44	O	0.356145	0.405524	0.435335
O45	O	0.689478	0.738858	0.768668
N46	N	0.023837	0.072212	0.000074
N47	N	0.357171	0.405546	0.333408
N48	N	0.690504	0.738879	0.666741
C49	C	0.053541	0.072561	-0.055014
C50	C	0.386874	0.405895	0.278319
C51	C	0.720208	0.739228	0.611653
O52	O	0.022825	0.072186	-0.101866
O53	O	0.356158	0.405519	0.231468
O54	O	0.689491	0.738853	0.564801
C55	C	0.112940	0.073275	-0.055016
C56	C	0.446273	0.406608	0.278317
C57	C	0.779606	0.739941	0.611651
C58	C	0.142636	0.073643	0.000070
C59	C	0.475969	0.406977	0.333403
C60	C	0.809302	0.740310	0.666737
C61	C	0.142632	0.073661	0.110236
C62	C	0.475966	0.406994	0.443569
C63	C	0.809299	0.740328	0.776902
C64	C	0.202027	0.074379	0.110233
C65	C	0.535361	0.407713	0.443566
C66	C	0.868694	0.741046	0.776900
C67	C	0.231727	0.074730	0.055149
C68	C	0.565060	0.408063	0.388482
C69	C	0.898393	0.741397	0.721815
C70	C	0.202031	0.074362	0.000067
C71	C	0.535364	0.407695	0.333401
C72	C	0.868697	0.741028	0.666734
C73	C	0.142643	0.073619	-0.110104
C74	C	0.475976	0.406953	0.223230
C75	C	0.809309	0.740286	0.556563
C76	C	0.202045	0.074332	-0.110101
C77	C	0.535379	0.407666	0.223233
C78	C	0.868712	0.740999	0.556566
C79	C	0.231741	0.074701	-0.055015
C80	C	0.565075	0.408034	0.278319
C81	C	0.898408	0.741368	0.611652
C82	C	0.291125	0.075431	-0.055019
C83	C	0.624458	0.408764	0.278314
C84	C	0.957791	0.742097	0.611647
N85	N	0.320824	0.075794	0.000063
N86	N	0.654158	0.409127	0.333396
N87	N	0.987491	0.742460	0.666730
C88	C	0.291125	0.075443	0.055147
C89	C	0.624459	0.408777	0.388480
C90	C	0.957792	0.742110	0.721814
C91	C	-0.071200	0.071062	-0.055006
C92	C	0.262133	0.404395	0.278327
C93	C	0.595466	0.737729	0.611661
C94	C	-0.130599	0.070353	-0.055005
C95	C	0.202735	0.403686	0.278329
C96	C	0.536068	0.737020	0.611662
C97	C	-0.130598	0.070366	0.055166
C98	C	0.202735	0.403699	0.388499
C99	C	0.536069	0.737033	0.721833
C100	C	-0.071199	0.071079	0.055164
C101	C	0.262134	0.404413	0.388498
C102	C	0.595467	0.737746	0.721831
C103	C	-0.041501	0.071425	0.000076
C104	C	0.291833	0.404758	0.333410
C105	C	0.625166	0.738092	0.666743
C106	C	0.415859	0.076953	0.055137
C107	C	0.749192	0.410286	0.388470
C108	C	1.082526	0.743619	0.721804
C109	C	0.475259	0.077674	0.055130
C110	C	0.808592	0.411007	0.388463
C111	C	1.141926	0.744340	0.721796
C112	C	0.475254	0.077657	-0.055041
C113	C	0.808587	0.410991	0.278292
C114	C	1.141920	0.744324	0.611626
C115	C	0.415859	0.076939	-0.055034
C116	C	0.749192	0.410273	0.278300
C117	C	1.082525	0.743606	0.611633
C118	C	0.386163	0.076585	0.000060
C119	C	0.719496	0.409919	0.333394
C120	C	1.052830	0.743252	0.666727
O121	O	0.321889	0.075813	-0.101841
O122	O	0.655222	0.409146	0.231493
O123	O	0.988555	0.742480	0.564826
O124	O	0.321850	0.075811	0.101991
O125	O	0.655183	0.409144	0.435324
O126	O	0.988516	0.742478	0.768657
C127	C	0.677094	-0.030140	0.000080
C128	C	1.010427	0.303194	0.333414
C129	C	1.343760	0.636527	0.666747
C130	C	0.676339	-0.093358	0.000086
C131	C	1.009672	0.239975	0.333419
C132	C	1.343006	0.573309	0.666752
C133	C	0.671611	-0.485376	-0.055030
C134	C	1.004944	-0.152042	0.278303
C135	C	1.338277	0.181291	0.611637
C136	C	0.670894	-0.544775	-0.055034
C137	C	1.004227	-0.211442	0.278300
C138	C	1.337560	0.121892	0.611633
O139	O	0.670511	-0.575497	-0.101879
O140	O	1.003844	-0.242164	0.231454
O141	O	1.337177	0.091169	0.564787
N142	N	0.670529	-0.574479	0.000048
N143	N	1.003863	-0.241145	0.333381
N144	N	1.337196	0.092188	0.666715
C145	C	0.670876	-0.544780	0.055137
C146	C	1.004210	-0.211446	0.388470
C147	C	1.337543	0.121887	0.721804
O148	O	0.670500	-0.575499	0.101988
O149	O	1.003833	-0.242166	0.435321
O150	O	1.337167	0.091167	0.768655
C151	C	0.671589	-0.485381	0.055140
C152	C	1.004923	-0.152047	0.388473
C153	C	1.338256	0.181286	0.721807
C154	C	0.671960	-0.455681	0.000055
C155	C	1.005293	-0.122347	0.333388
C156	C	1.338626	0.210986	0.666721
C157	C	0.671980	-0.455675	-0.110111
C158	C	1.005314	-0.122342	0.223222
C159	C	1.338647	0.210991	0.556556
C160	C	0.672699	-0.396280	-0.110107
C161	C	1.006032	-0.062947	0.223226
C162	C	1.339365	0.270386	0.556559
C163	C	0.673047	-0.366585	-0.055023
C164	C	1.006381	-0.033252	0.278311
C165	C	1.339714	0.300081	0.611644
C166	C	0.672678	-0.396286	0.000058
C167	C	1.006011	-0.062952	0.333392
C168	C	1.339345	0.270381	0.666725
C169	C	0.671932	-0.455682	0.110228
C170	C	1.005266	-0.122349	0.443561
C171	C	1.338599	0.210985	0.776895
C172	C	0.672645	-0.396279	0.110226
C173	C	1.005979	-0.062946	0.443560
C174	C	1.339312	0.270388	0.776893
C175	C	0.673015	-0.366579	0.055141
C176	C	1.006349	-0.033246	0.388474
C177	C	1.339682	0.300088	0.721808
C178	C	0.673745	-0.307196	0.055147
C179	C	1.007078	0.026138	0.388480
C180	C	1.340412	0.359471	0.721813
N181	N	0.674109	-0.277492	0.000065
N182	N	1.007443	0.055842	0.333398
N183	N	1.340776	0.389175	0.666732
C184	C	0.673761	-0.307187	-0.055020
C185	C	1.007094	0.026147	0.278314
C186	C	1.340427	0.359480	0.611647
C187	C	0.669378	-0.669521	0.055127
C188	C	1.002711	-0.336188	0.388460
C189	C	1.336044	-0.002854	0.721793
C190	C	0.668669	-0.728919	0.055124
C191	C	1.002002	-0.395586	0.388458
C192	C	1.335335	-0.062252	0.721791
C193	C	0.668685	-0.728910	-0.055046
C194	C	1.002018	-0.395577	0.278287
C195	C	1.335351	-0.062244	0.611620
C196	C	0.669398	-0.669511	-0.055044
C197	C	1.002731	-0.336178	0.278290
C198	C	1.336065	-0.002845	0.611623
C199	C	0.669742	-0.639817	0.000045
C200	C	1.003075	-0.306484	0.333378
C201	C	1.336409	0.026850	0.666712
C202	C	0.675269	-0.182453	-0.055008
C203	C	1.008603	0.150881	0.278326
C204	C	1.341936	0.484214	0.611659
C205	C	0.675990	-0.123053	-0.054999
C206	C	1.009324	0.210281	0.278335
C207	C	1.342657	0.543614	0.611668
C208	C	0.675971	-0.123067	0.055172
C209	C	1.009304	0.210267	0.388505
C210	C	1.342638	0.543600	0.721838
C211	C	0.675253	-0.182462	0.055163
C212	C	1.008587	0.150872	0.388497
C213	C	1.341920	0.484205	0.721830
C214	C	0.674901	-0.212153	0.000069
C215	C	1.008234	0.121180	0.333402
C216	C	1.341567	0.454514	0.666736
O217	O	0.674126	-0.276435	0.101968
O218	O	1.007459	0.056898	0.435302
O219	O	1.340793	0.390231	0.768635
O220	O	0.674129	-0.276459	-0.101863
O221	O	1.007463	0.056875	0.231471
O222	O	1.340796	0.390208	0.564804
C223	C	0.776479	0.069245	0.000077
C224	C	1.109812	0.402579	0.333410
C225	C	1.443146	0.735912	0.666743
C226	C	0.839698	0.069999	0.000080
C227	C	1.173031	0.403333	0.333413
C228	C	1.506364	0.736666	0.666746
C229	C	0.667562	0.178163	0.000049
C230	C	1.000896	0.511496	0.333382
C231	C	1.334229	0.844829	0.666716
C232	C	0.668317	0.241381	0.000039
C233	C	1.001650	0.574715	0.333373
C234	C	1.334983	0.908048	0.666706
N235	N	0.672309	0.074030	0.143870
N236	N	1.005643	0.407363	0.477203
N237	N	1.338976	0.740697	0.810536
N238	N	0.672351	0.073989	-0.143739
N239	N	1.005684	0.407322	0.189594
N240	N	1.339018	0.740655	0.522928
C241	C	0.711284	0.035064	0.563659
C242	C	1.044618	0.368398	0.896993
C243	C	1.377951	0.701731	1.230326
C244	C	0.711287	0.035060	0.627267
C245	C	1.044620	0.368394	0.960600
C246	C	1.377954	0.701727	1.293934
O247	O	0.744402	0.001938	0.660167
O248	O	1.077735	0.335271	0.993500
O249	O	1.411069	0.668604	1.326834
N250	N	0.672337	0.073992	0.659077
N251	N	1.005670	0.407325	0.992410
N252	N	1.339004	0.740659	1.325743
C253	C	0.633378	0.112926	0.627276
C254	C	0.966711	0.446259	0.960609
C255	C	1.300045	0.779593	1.293942
O256	O	0.600248	0.146040	0.660173
O257	O	0.933581	0.479373	0.993506
O258	O	1.266915	0.812706	1.326840
C259	C	0.633373	0.112927	0.563669
C260	C	0.966706	0.446260	0.897003
C261	C	1.300040	0.779594	1.230336
C262	C	0.672329	0.073997	0.531863
C263	C	1.005663	0.407330	0.865196
C264	C	1.338996	0.740663	1.198529
C265	C	0.750237	-0.003863	0.531853
C266	C	1.083570	0.329470	0.865186
C267	C	1.416904	0.662803	1.198519
C268	C	0.750235	-0.003858	0.468249
C269	C	1.083568	0.329475	0.801583
C270	C	1.416902	0.662808	1.134916
C271	C	0.711280	0.035074	0.436453
C272	C	1.044613	0.368407	0.769786
C273	C	1.377947	0.701741	1.103120
C274	C	0.672327	0.074001	0.468259
C275	C	1.005661	0.407335	0.801593
C276	C	1.338994	0.740668	1.134926
C277	C	0.594412	0.151858	0.531869
C278	C	0.927745	0.485191	0.865203
C279	C	1.261078	0.818525	1.198536
C280	C	0.594410	0.151855	0.468258
C281	C	0.927743	0.485188	0.801592
C282	C	1.261077	0.818522	1.134925
C283	C	0.633366	0.112925	0.436452
C284	C	0.966700	0.446258	0.769785
C285	C	1.300033	0.779591	1.103119
C286	C	0.633370	0.112938	0.372860
C287	C	0.966704	0.446272	0.706193
C288	C	1.300037	0.779605	1.039526
N289	N	0.672320	0.074007	0.341050
N290	N	1.005654	0.407340	0.674383
N291	N	1.338987	0.740674	1.007716
C292	C	0.711275	0.035075	0.372846
C293	C	1.044609	0.368408	0.706180
C294	C	1.377942	0.701741	1.039513
C295	C	0.633391	0.112921	0.760853
C296	C	0.966724	0.446254	1.094187
C297	C	1.300057	0.779588	1.427520
C298	C	0.633398	0.112923	0.824459
C299	C	0.966731	0.446257	1.157792
C300	C	1.300064	0.779590	1.491125
C301	C	0.711306	0.035057	0.824446
C302	C	1.044640	0.368390	1.157779
C303	C	1.377973	0.701723	1.491112
C304	C	0.711301	0.035057	0.760839
C305	C	1.044635	0.368391	1.094172
C306	C	1.377968	0.701724	1.427506
C307	C	0.672341	0.073989	0.729044
C308	C	1.005674	0.407323	1.062377
C309	C	1.339007	0.740656	1.395710
C310	C	0.711268	0.035088	0.239275
C311	C	1.044602	0.368421	0.572608
C312	C	1.377935	0.701755	0.905942
C313	C	0.711264	0.035098	0.175666
C314	C	1.044598	0.368431	0.509000
C315	C	1.377931	0.701764	0.842333
C316	C	0.633354	0.112962	0.175685
C317	C	0.966687	0.446295	0.509018
C318	C	1.300021	0.779629	0.842352
C319	C	0.633360	0.112955	0.239288
C320	C	0.966693	0.446288	0.572622
C321	C	1.300026	0.779621	0.905955
C322	C	0.672319	0.074013	0.271082
C323	C	1.005652	0.407346	0.604415
C324	C	1.338986	0.740679	0.937748
O325	O	0.600271	0.146043	0.339919
O326	O	0.933604	0.479376	0.673252
O327	O	1.266937	0.812709	1.006586
O328	O	0.744395	0.001962	0.339941
O329	O	1.077728	0.335295	0.673275
O330	O	1.411061	0.668628	1.006608
H331	H	-0.047025	0.071380	0.100020
H332	H	0.286308	0.404714	0.433353
H333	H	0.619642	0.738047	0.766687
H334	H	0.669659	-0.645348	0.099989
H335	H	1.002993	-0.312014	0.433322
H336	H	1.336326	0.021319	0.766656
H337	H	0.601665	0.144629	0.734969
H338	H	0.934999	0.477962	1.068302
H339	H	1.268332	0.811295	1.401635
O340	O	0.591385	0.154920	0.858758
O341	O	0.924719	0.488254	1.192091
O342	O	1.258052	0.821587	1.525424
H343	H	0.597930	0.148385	0.908330
H344	H	0.931263	0.481719	1.241664
H345	H	1.264596	0.815052	1.574997
H346	H	0.668399	-0.753098	-0.099900
H347	H	1.001732	-0.419765	0.233434
H348	H	1.335066	-0.086432	0.566767
O349	O	0.671531	-0.487703	0.169645
O350	O	1.004864	-0.154369	0.502978
O351	O	1.338198	0.178964	0.836312
H352	H	0.670979	-0.533998	0.160400
H353	H	1.004313	-0.200664	0.493733
H354	H	1.337646	0.132669	0.827067
H355	H	0.671694	-0.479846	-0.154970
H356	H	1.005028	-0.146513	0.178363
H357	H	1.338361	0.186820	0.511697
O358	O	-0.039167	0.071442	-0.114424
O359	O	0.294166	0.404775	0.218909
O360	O	0.627499	0.738108	0.552242
H361	H	-0.055872	0.110128	-0.140839
H362	H	0.277461	0.443461	0.192494
H363	H	0.610794	0.776795	0.525827
O364	O	0.552414	0.193868	0.566166
O365	O	0.885748	0.527201	0.899500
O366	O	1.219081	0.860534	1.232833
H367	H	0.525334	0.220938	0.533360
H368	H	0.858667	0.554272	0.866693
H369	H	1.192000	0.887605	1.200027
H370	H	0.781955	-0.035560	0.442356
H371	H	1.115288	0.297773	0.775690
H372	H	1.448622	0.631106	1.109023
H373	H	0.499445	0.077945	-0.099889
H374	H	0.832778	0.411278	0.233444
H375	H	1.166112	0.744612	0.566778
O376	O	0.552390	0.193850	0.433963
O377	O	0.885724	0.527183	0.767297
O378	O	1.219057	0.860516	1.100630
H379	H	0.525309	0.220920	0.466771
H380	H	0.858642	0.554253	0.800104
H381	H	1.191976	0.887587	1.133437
H382	H	0.118474	0.073318	-0.154960
H383	H	0.451808	0.406652	0.178373
H384	H	0.785141	0.739985	0.511706
H385	H	0.226223	0.074614	-0.154961
H386	H	0.559556	0.407947	0.178372
H387	H	0.892890	0.741281	0.511706
H388	H	0.391687	0.076669	0.100000
H389	H	0.725021	0.410003	0.433333
H390	H	1.058354	0.743336	0.766667
H391	H	0.781959	-0.035569	0.557736
H392	H	1.115292	0.297764	0.891069
H393	H	1.448626	0.631097	1.224403
O394	O	0.673087	-0.364255	-0.169525
O395	O	1.006421	-0.030922	0.163808
O396	O	1.339754	0.302412	0.497142
H397	H	0.712238	-0.342502	-0.172168
H398	H	1.045571	-0.009168	0.161165
H399	H	1.378904	0.324165	0.494498
H400	H	0.601639	0.144662	0.149786
H401	H	0.934972	0.477995	0.483119
H402	H	1.268306	0.811329	0.816453
H403	H	0.743025	0.003355	0.850346
H404	H	1.076358	0.336688	1.183679
H405	H	1.409691	0.670022	1.517013
H406	H	0.391678	0.076648	-0.099889
H407	H	0.725011	0.409982	0.233444
H408	H	1.058344	0.743315	0.566778
H409	H	0.669699	-0.645333	-0.099899
H410	H	1.003032	-0.312000	0.233434
H411	H	1.336365	0.021333	0.566768
O412	O	0.591350	0.154948	0.273599
O413	O	0.924683	0.488282	0.606932
O414	O	1.258017	0.821615	0.940266
H415	H	0.563815	0.131116	0.302580
H416	H	0.897148	0.464449	0.635913
H417	H	1.230481	0.797782	0.969246
O418	O	-0.162652	0.070111	0.114582
O419	O	0.170681	0.403445	0.447915
O420	O	0.504015	0.736778	0.781248
H421	H	-0.208949	0.069594	0.105324
H422	H	0.124384	0.402927	0.438657
H423	H	0.457717	0.736260	0.771990
H424	H	-0.154773	0.070062	-0.099861
H425	H	0.178560	0.403395	0.233472
H426	H	0.511893	0.736728	0.566805
H427	H	0.499435	0.077976	0.099989
H428	H	0.832768	0.411309	0.433322
H429	H	1.166101	0.744642	0.766656
H430	H	0.676257	-0.098879	0.100020
H431	H	1.009591	0.234455	0.433353
H432	H	1.342924	0.567788	0.766687
O433	O	0.234052	0.074789	0.169647
O434	O	0.567386	0.408123	0.502980
O435	O	0.900719	0.741456	0.836313
H436	H	0.203413	0.074426	0.207945
H437	H	0.536747	0.407760	0.541279
H438	H	0.870080	0.741093	0.874612
H439	H	0.676293	-0.098874	-0.099858
H440	H	1.009626	0.234459	0.233475
H441	H	1.342960	0.567793	0.566809
H442	H	0.674980	-0.206620	-0.099871
H443	H	1.008313	0.126713	0.233463
H444	H	1.341646	0.460047	0.566796
O445	O	0.668274	-0.760952	0.114537
O446	O	1.001608	-0.427619	0.447870
O447	O	1.334941	-0.094285	0.781204
H448	H	0.668634	-0.730318	0.152838
H449	H	1.001967	-0.396984	0.486171
H450	H	1.335300	-0.063651	0.819505
O451	O	0.753312	-0.006936	0.726534
O452	O	1.086645	0.326397	1.059867
O453	O	1.419979	0.659730	1.393201
H454	H	0.780396	-0.034009	0.759337
H455	H	1.113729	0.299325	1.092670
H456	H	1.447062	0.632658	1.426003
O457	O	0.753279	-0.006896	0.141359
O458	O	1.086612	0.326437	0.474692
O459	O	1.419946	0.659770	0.808026
H460	H	0.780361	-0.033973	0.174159
H461	H	1.113694	0.299360	0.507493
H462	H	1.447028	0.632694	0.840826
O463	O	0.110547	0.073326	0.169621
O464	O	0.443880	0.406660	0.502954
O465	O	0.777213	0.739993	0.836287
H466	H	0.127204	0.034661	0.196093
H467	H	0.460537	0.367995	0.529427
H468	H	0.793871	0.701328	0.862760
O469	O	0.673023	-0.364251	0.169644
O470	O	1.006357	-0.030918	0.502978
O471	O	1.339690	0.302416	0.836311
H472	H	0.672652	-0.394887	0.207943
H473	H	1.005985	-0.061554	0.541277
H474	H	1.339318	0.271779	0.874610
O475	O	0.753294	-0.006905	0.273563
O476	O	1.086627	0.326428	0.606896
O477	O	1.419961	0.659761	0.940230
H478	H	0.780382	-0.033965	0.240751
H479	H	1.113715	0.299369	0.574085
H480	H	1.447048	0.632702	0.907418
O481	O	0.674856	-0.214502	0.114574
O482	O	1.008189	0.118832	0.447908
O483	O	1.341523	0.452165	0.781241
H484	H	0.675217	-0.183871	0.152878
H485	H	1.008550	0.149463	0.486211
H486	H	1.341883	0.482796	0.819545
