data_functionalizedCrystal
_audit_creation_method	'MofGen! by Chris Wilmer'
_symmetry_space_group_name_H-M	'P1'
_symmetry_Int_Tables_number	1
_symmetry_cell_setting	triclinic
loop_
_symmetry_equiv_pos_as_xyz
  x,y,z
_cell_length_a	12.759401
_cell_length_b	13.897447
_cell_length_c	12.759393
_cell_angle_alpha	89.969000
_cell_angle_beta	89.979062
_cell_angle_gamma	90.021055
loop_
_atom_site_label
_atom_site_type_symbol
_atom_site_fract_x
_atom_site_fract_y
_atom_site_fract_z
Zn1	Zn	1.606231	-0.383929	-0.594016
Zn2	Zn	2.106231	0.116071	-0.094016
Zn3	Zn	1.606107	-0.545255	-0.418335
Zn4	Zn	2.106107	-0.045255	0.081665
Zn5	Zn	1.430530	-0.383980	-0.418352
Zn6	Zn	1.930530	0.116020	0.081648
Zn7	Zn	1.430507	-0.545188	-0.593972
Zn8	Zn	1.930507	-0.045188	-0.093972
O9	O	1.518344	-0.464588	-0.506169
O10	O	2.018344	0.035412	-0.006169
O11	O	1.753236	-0.405336	-0.570723
O12	O	2.253236	0.094664	-0.070723
O13	O	1.582774	-0.523912	-0.271316
O14	O	2.082774	-0.023912	0.228684
O15	O	1.453898	-0.248992	-0.441679
O16	O	1.953898	0.251008	0.058321
O17	O	1.753145	-0.523862	-0.441651
O18	O	2.253145	-0.023862	0.058349
O19	O	1.582985	-0.248954	-0.570740
O20	O	2.082985	0.251046	-0.070740
O21	O	1.453778	-0.405423	-0.271328
O22	O	1.953778	0.094577	0.228672
O23	O	1.283506	-0.405358	-0.441636
O24	O	1.783506	0.094642	0.058364
O25	O	1.453859	-0.523747	-0.740999
O26	O	1.953859	-0.023747	-0.240999
O27	O	1.283489	-0.523797	-0.570664
O28	O	1.783489	-0.023797	-0.070664
O29	O	1.582963	-0.405271	-0.741032
O30	O	2.082963	0.094729	-0.241032
O31	O	1.582752	-0.680228	-0.441608
O32	O	2.082752	-0.180228	0.058392
O33	O	1.453739	-0.680179	-0.570648
O34	O	1.953739	-0.180179	-0.070648
C35	C	1.245376	-0.464576	-0.506148
C36	C	1.745376	0.035424	-0.006148
C37	C	1.128600	-0.464595	-0.506164
C38	C	1.628600	0.035405	-0.006164
C39	C	1.073757	-0.526359	-0.573243
C40	C	1.573757	-0.026359	-0.073243
C41	C	0.964033	-0.526363	-0.573264
C42	C	1.464033	-0.026363	-0.073264
C43	C	0.964005	-0.402834	-0.439118
C44	C	1.464005	0.097166	0.060882
C45	C	1.073727	-0.402827	-0.439103
C46	C	1.573727	0.097173	0.060897
C47	C	1.518258	-0.715203	-0.506144
C48	C	2.018258	-0.215203	-0.006144
C49	C	1.518318	-0.822416	-0.506169
C50	C	2.018318	-0.322416	-0.006169
C51	C	1.518369	-0.909486	-0.506193
C52	C	2.018369	-0.409486	-0.006193
C53	C	1.518442	-1.018719	-0.506220
C54	C	2.018442	-0.518719	-0.006220
C55	C	1.792377	-0.464601	-0.506190
C56	C	2.292377	0.035399	-0.006190
C57	C	1.909154	-0.464606	-0.506200
C58	C	2.409154	0.035394	-0.006200
C59	C	1.518422	-0.464496	-0.780202
C60	C	2.018422	0.035504	-0.280202
C61	C	1.518456	-0.464456	-0.896979
C62	C	2.018456	0.035544	-0.396979
C63	C	1.518458	-0.212995	-0.506216
C64	C	2.018458	0.287005	-0.006216
C65	C	1.518507	-0.105781	-0.506236
C66	C	2.018507	0.394219	-0.006236
C67	C	1.585685	-0.402756	-0.951860
C68	C	2.085685	0.097244	-0.451860
C69	C	1.585703	-0.402714	-1.061584
C70	C	2.085703	0.097286	-0.561584
C71	C	1.451259	-0.526082	-1.061537
C72	C	1.951259	-0.026082	-0.561537
C73	C	1.451237	-0.526118	-0.951815
C74	C	1.951237	-0.026118	-0.451815
C75	C	1.518326	-0.464611	-0.233201
C76	C	2.018326	0.035389	0.266799
C77	C	1.518496	-0.464379	-0.116425
C78	C	2.018496	0.035621	0.383575
H79	H	1.118381	-0.352524	-0.384479
H80	H	1.618381	0.147476	0.115521
O81	O	1.651006	-0.342763	-0.898754
O82	O	2.151006	0.157237	-0.398754
C83	C	1.710364	-0.288312	-0.970727
C84	C	2.210364	0.211688	-0.470727
H85	H	1.667347	-0.284946	-1.048934
H86	H	2.167347	0.215054	-0.548934
H87	H	1.721599	-0.212323	-0.939044
H88	H	2.221599	0.287677	-0.439044
H89	H	1.790143	-0.323634	-0.982403
H90	H	2.290143	0.176366	-0.482403
H91	H	1.118431	-0.576652	-0.627851
H92	H	1.618431	-0.076652	-0.127851
O93	O	0.910643	-0.586411	-0.638276
O94	O	1.410643	-0.086411	-0.138276
C95	C	0.847141	-0.648663	-0.578351
C96	C	1.347141	-0.148663	-0.078351
H97	H	0.830670	-0.614553	-0.498800
H98	H	1.330670	-0.114553	0.001200
H99	H	0.770003	-0.661643	-0.621134
H100	H	1.270003	-0.161643	-0.121134
H101	H	0.889397	-0.720130	-0.566661
H102	H	1.389397	-0.220130	-0.066661
H103	H	0.919314	-0.352547	-0.384517
H104	H	1.419314	0.147453	0.115483
O105	O	1.650860	-0.342673	-1.114938
O106	O	2.150860	0.157327	-0.614938
C107	C	1.591087	-0.280358	-1.178421
C108	C	2.091087	0.219642	-0.678421
H109	H	1.508336	-0.274410	-1.145342
H110	H	2.008336	0.225590	-0.645342
H111	H	1.629120	-0.206127	-1.179678
H112	H	2.129120	0.293873	-0.679678
H113	H	1.587471	-0.310146	-1.261574
H114	H	2.087471	0.189854	-0.761574
H115	H	1.396534	-0.576287	-1.106198
H116	H	1.896534	-0.076287	-0.606198
H117	H	1.396483	-0.576361	-0.907130
H118	H	1.896483	-0.076361	-0.407130
