data_functionalizedCrystal
_audit_creation_method	'MofGen! by Chris Wilmer'
_symmetry_space_group_name_H-M	'P1'
_symmetry_Int_Tables_number	1
_symmetry_cell_setting	triclinic
loop_
_symmetry_equiv_pos_as_xyz
  x,y,z
_cell_length_a	19.288835
_cell_length_b	14.853567
_cell_length_c	18.366186
_cell_angle_alpha	89.997562
_cell_angle_beta	90.017524
_cell_angle_gamma	96.620554
loop_
_atom_site_label
_atom_site_type_symbol
_atom_site_fract_x
_atom_site_fract_y
_atom_site_fract_z
O1	O	-0.921745	0.112335	-0.060686
O2	O	-0.421745	0.612335	0.439314
O3	O	-0.719533	0.127535	-0.060656
O4	O	-0.219533	0.627535	0.439344
O5	O	-0.826041	-0.011326	-0.060674
O6	O	-0.326041	0.488674	0.439326
O7	O	-0.815238	0.251196	-0.060668
O8	O	-0.315238	0.751196	0.439332
O9	O	-0.826022	-0.011333	0.060425
O10	O	-0.326022	0.488667	0.560425
O11	O	-0.719515	0.127528	0.060444
O12	O	-0.219515	0.627528	0.560444
O13	O	-0.921727	0.112328	0.060413
O14	O	-0.421727	0.612328	0.560413
Zn15	Zn	-0.820618	0.119927	0.079655
Zn16	Zn	-0.320618	0.619927	0.579655
Zn17	Zn	-0.820642	0.119936	-0.079898
Zn18	Zn	-0.320642	0.619936	0.420102
O19	O	-0.815220	0.251189	0.060431
O20	O	-0.315220	0.751189	0.560431
C21	C	-0.693645	0.127047	-0.000102
C22	C	-0.193645	0.627047	0.499898
C23	C	-0.616536	0.125592	-0.000091
C24	C	-0.116536	0.625592	0.499909
C25	C	-0.580340	0.124897	-0.066103
C26	C	-0.080340	0.624897	0.433897
C27	C	-0.507888	0.123520	-0.066110
C28	C	-0.007888	0.623520	0.433890
C29	C	-0.471637	0.122820	-0.000102
C30	C	0.028363	0.622820	0.499898
C31	C	-0.507841	0.123521	0.065919
C32	C	-0.007841	0.623521	0.565919
C33	C	-0.580291	0.124907	0.065925
C34	C	-0.080291	0.624907	0.565925
C35	C	-0.362116	0.067817	0.050461
C36	C	0.137884	0.567817	0.550461
C37	C	-0.289668	0.066425	0.050453
C38	C	0.210332	0.566425	0.550453
C39	C	-0.248178	0.118550	-0.000116
C40	C	0.251822	0.618550	0.499884
C41	C	-0.279146	0.172055	-0.050688
C42	C	0.220854	0.672055	0.449312
C43	C	-0.351596	0.173441	-0.050683
C44	C	0.148404	0.673441	0.449317
C45	C	-0.393078	0.121318	-0.000100
C46	C	0.106922	0.621318	0.499900
C47	C	-0.133422	0.116364	-0.066140
C48	C	0.366578	0.616364	0.433860
C49	C	-0.060968	0.114992	-0.066145
C50	C	0.439032	0.614992	0.433855
C51	C	-0.060924	0.114984	0.065887
C52	C	0.439076	0.614984	0.565887
C53	C	-0.133375	0.116364	0.065889
C54	C	0.366625	0.616364	0.565889
C55	C	-0.169620	0.117050	-0.000126
C56	C	0.330380	0.617050	0.499874
C57	C	-0.825542	-0.044916	-0.000127
C58	C	-0.325542	0.455084	0.499873
C59	C	-0.824075	-0.144991	-0.000133
C60	C	-0.324075	0.355009	0.499867
C61	C	-0.754607	-0.557120	-0.000108
C62	C	-0.254607	-0.057120	0.499892
C63	C	-0.881140	-0.579138	-0.000127
C64	C	-0.381140	-0.079138	0.499873
C65	C	-0.882519	-0.485112	-0.000132
C66	C	-0.382519	0.014888	0.499868
C67	C	-0.819941	-0.427086	-0.000123
C68	C	-0.319941	0.072914	0.499877
C69	C	-0.755984	-0.463085	-0.000111
C70	C	-0.255984	0.036915	0.499889
C71	C	-0.946476	-0.449106	-0.000138
C72	C	-0.446476	0.050894	0.499862
C73	C	-0.947857	-0.355075	-0.000141
C74	C	-0.447857	0.144925	0.499859
C75	C	-0.885278	-0.297047	-0.000138
C76	C	-0.385278	0.202953	0.499862
C77	C	-0.821319	-0.333051	-0.000126
C78	C	-0.321319	0.166949	0.499874
C79	C	-0.758741	-0.275025	-0.000117
C80	C	-0.258741	0.224975	0.499883
C81	C	-0.694780	-0.311027	-0.000110
C82	C	-0.194780	0.188973	0.499890
C83	C	-0.693405	-0.405057	-0.000107
C84	C	-0.193405	0.094943	0.499893
C85	C	-0.886653	-0.203017	-0.000141
C86	C	-0.386653	0.296983	0.499859
C87	C	-0.760118	-0.180990	-0.000120
C88	C	-0.260118	0.319010	0.499880
C89	C	0.052386	0.112822	-0.000136
C90	C	0.552386	0.612822	0.499864
C91	C	-0.024722	0.114294	-0.000135
C92	C	0.475278	0.614294	0.499865
C93	C	-0.815718	0.284778	-0.000118
C94	C	-0.315718	0.784778	0.499882
C95	C	-0.817185	0.384854	-0.000117
C96	C	-0.317185	0.884854	0.499883
N97	N	-0.820607	0.119920	0.188547
N98	N	-0.320607	0.619920	0.688547
N99	N	-0.820659	0.119935	-0.188789
N100	N	-0.320659	0.619935	0.311211
C101	C	-0.867784	0.058463	0.226639
C102	C	-0.367784	0.558463	0.726639
C103	C	-0.867788	0.058459	0.302867
C104	C	-0.367788	0.558459	0.802867
C105	C	-0.820622	0.119928	0.340999
C106	C	-0.320622	0.619928	0.840999
C107	C	-0.773436	0.181390	0.302898
C108	C	-0.273436	0.681390	0.802898
C109	C	-0.773429	0.181386	0.226671
C110	C	-0.273429	0.681386	0.726671
C111	C	-0.811601	0.202072	0.461762
C112	C	-0.311601	0.702072	0.961762
C113	C	-0.811614	0.202077	0.537987
C114	C	-0.311614	0.702077	1.037987
C115	C	-0.820642	0.119939	0.576107
C116	C	-0.320642	0.619939	1.076107
C117	C	-0.829672	0.037792	0.537992
C118	C	-0.329672	0.537792	1.037992
C119	C	-0.829665	0.037788	0.461766
C120	C	-0.329665	0.537788	0.961766
C121	C	-0.820625	0.119938	0.423654
C122	C	-0.320625	0.619938	0.923654
C123	C	-0.867826	0.058472	0.696854
C124	C	-0.367826	0.558472	1.196854
C125	C	-0.867826	0.058467	0.773083
C126	C	-0.367826	0.558467	1.273083
C127	C	-0.773477	0.181406	0.773113
C128	C	-0.273477	0.681406	1.273113
C129	C	-0.773474	0.181403	0.696885
C130	C	-0.273474	0.681403	1.196885
C131	C	-0.820653	0.119937	0.658760
C132	C	-0.320653	0.619937	1.158760
H133	H	-0.162933	0.116931	-0.119894
H134	H	0.337067	0.616931	0.380106
C135	C	-0.691282	-0.117164	-0.000114
C136	C	-0.191282	0.382836	0.499886
H137	H	-0.701261	-0.056006	-0.000120
H138	H	-0.201261	0.443994	0.499880
H139	H	-0.665051	-0.128051	0.042117
H140	H	-0.165051	0.371949	0.542117
H141	H	-0.665073	-0.128050	-0.042348
H142	H	-0.165073	0.371950	0.457652
H143	H	-0.837016	-0.029098	0.430736
H144	H	-0.337016	0.470902	0.930736
H145	H	-0.162847	0.116924	0.119644
H146	H	0.337153	0.616924	0.619644
H147	H	-0.804265	0.268966	0.569014
H148	H	-0.304265	0.768966	1.069014
C149	C	-0.625949	-0.247193	-0.000102
C150	C	-0.125949	0.252807	0.499898
H151	H	-0.635934	-0.186038	-0.000107
H152	H	-0.135934	0.313962	0.499893
H153	H	-0.599716	-0.258077	0.042129
H154	H	-0.099716	0.241923	0.542129
H155	H	-0.599737	-0.258072	-0.042336
H156	H	-0.099737	0.241928	0.457664
H157	H	-0.245366	0.214504	-0.091863
H158	H	0.254634	0.714504	0.408137
H159	H	-0.735071	0.231452	0.804160
H160	H	-0.235071	0.731452	1.304160
H161	H	-0.264461	0.022854	0.091628
H162	H	0.235539	0.522854	0.591628
H163	H	-0.031498	0.114432	-0.119902
H164	H	0.468502	0.614432	0.380098
C165	C	-0.949972	-0.642959	-0.000136
C166	C	-0.449972	-0.142959	0.499864
H167	H	-0.988259	-0.608051	-0.000140
H168	H	-0.488259	-0.108051	0.499860
H169	H	-0.952069	-0.680102	-0.042364
H170	H	-0.452069	-0.180102	0.457636
H171	H	-0.952058	-0.680094	0.042102
H172	H	-0.452058	-0.180094	0.542102
C173	C	-0.407750	0.010460	0.106079
C174	C	0.092250	0.510460	0.606079
H175	H	-0.378933	-0.021618	0.136186
H176	H	0.121067	0.478382	0.636186
H177	H	-0.432205	0.049053	0.135335
H178	H	0.067795	0.549053	0.635335
H179	H	-0.440258	-0.031459	0.081021
H180	H	0.059742	0.468541	0.581021
C181	C	-1.015306	-0.512929	-0.000147
C182	C	-0.515306	-0.012929	0.499853
H183	H	-1.053595	-0.478022	-0.000146
H184	H	-0.553595	0.021978	0.499854
H185	H	-1.017405	-0.550065	-0.042378
H186	H	-0.517405	-0.050065	0.457622
H187	H	-1.017390	-0.550069	0.042087
H188	H	-0.517390	-0.050069	0.542087
C189	C	-0.623057	-0.444662	-0.000089
C190	C	-0.123057	0.055338	0.499911
H191	H	-0.631201	-0.508973	-0.000079
H192	H	-0.131201	-0.008973	0.499921
H193	H	-0.597289	-0.424734	-0.042314
H194	H	-0.097289	0.075266	0.457686
H195	H	-0.597286	-0.424725	0.042151
H196	H	-0.097286	0.075275	0.542151
C197	C	-0.021027	0.114512	0.138495
C198	C	0.478973	0.614512	0.638495
H199	H	0.027315	0.113673	0.129038
H200	H	0.527315	0.613673	0.629038
H201	H	-0.027714	0.167390	0.165468
H202	H	0.472286	0.667390	0.665468
H203	H	-0.038051	0.062258	0.165770
H204	H	0.461949	0.562258	0.665770
C205	C	-0.721593	0.249022	0.654978
C206	C	-0.221593	0.749022	1.154978
H207	H	-0.728342	0.240215	0.604120
H208	H	-0.228342	0.740215	1.104120
H209	H	-0.729199	0.309162	0.667467
H210	H	-0.229199	0.809162	1.167467
H211	H	-0.675226	0.239394	0.667487
H212	H	-0.175226	0.739394	1.167487
C213	C	-0.801675	0.292431	0.419838
C214	C	-0.301675	0.792431	0.919838
H215	H	-0.796310	0.341352	0.453453
H216	H	-0.296310	0.841352	0.953453
H217	H	-0.761232	0.294400	0.390117
H218	H	-0.261232	0.794400	0.890117
H219	H	-0.841370	0.297288	0.390088
H220	H	-0.341370	0.797288	0.890088
C221	C	-0.684256	-0.596718	-0.000097
C222	C	-0.184256	-0.096718	0.499903
H223	H	-0.692394	-0.661029	-0.000094
H224	H	-0.192394	-0.161029	0.499906
H225	H	-0.658492	-0.576780	-0.042322
H226	H	-0.158492	-0.076780	0.457678
H227	H	-0.658483	-0.576784	0.042143
H228	H	-0.158483	-0.076784	0.542143
H229	H	-0.735032	0.231438	0.333949
H230	H	-0.235032	0.731438	0.833949
H231	H	-0.478321	0.122953	0.119664
H232	H	0.021679	0.622953	0.619664
C233	C	-0.919686	-0.009142	0.344780
C234	C	-0.419686	0.490858	0.844780
H235	H	-0.912930	-0.000338	0.395638
H236	H	-0.412930	0.499662	0.895638
H237	H	-0.966047	0.000494	0.332267
H238	H	-0.466047	0.500494	0.832267
H239	H	-0.912088	-0.069292	0.332299
H240	H	-0.412088	0.430708	0.832299
H241	H	-0.999938	-0.325770	-0.000148
H242	H	-0.499938	0.174230	0.499852
C243	C	-0.956998	-0.163412	-0.000146
C244	C	-0.456998	0.336588	0.499854
H245	H	-0.948857	-0.099101	-0.000143
H246	H	-0.448857	0.400899	0.499857
H247	H	-0.982779	-0.183349	-0.042376
H248	H	-0.482779	0.316651	0.457624
H249	H	-0.982756	-0.183344	0.042089
H250	H	-0.482756	0.316656	0.542089
C251	C	-0.839598	-0.052565	0.579913
C252	C	-0.339598	0.447435	1.079913
H253	H	-0.838301	-0.040802	0.630769
H254	H	-0.338301	0.459198	1.130769
H255	H	-0.883372	-0.084869	0.567408
H256	H	-0.383372	0.415131	1.067408
H257	H	-0.803234	-0.087761	0.567433
H258	H	-0.303234	0.412239	1.067433
H259	H	-0.376806	0.217008	-0.091859
H260	H	0.123194	0.717008	0.408141
C261	C	-0.919709	-0.009146	0.654910
C262	C	-0.419709	0.490854	1.154910
H263	H	-0.912953	-0.000340	0.604056
H264	H	-0.412953	0.499660	1.104056
H265	H	-0.912108	-0.069287	0.667409
H266	H	-0.412108	0.430713	1.167409
H267	H	-0.966077	0.000486	0.667382
H268	H	-0.466077	0.500486	1.167382
H269	H	-0.609761	0.125473	0.119682
H270	H	-0.109761	0.625473	0.619682
H271	H	-0.906197	0.008412	0.195600
H272	H	-0.406197	0.508412	0.695600
H273	H	-0.735011	0.231433	0.195656
H274	H	-0.235011	0.731433	0.695656
C275	C	-0.620204	0.125664	-0.138717
C276	C	-0.120204	0.625664	0.361283
H277	H	-0.588265	0.125061	-0.178033
H278	H	-0.088265	0.625061	0.321967
H279	H	-0.653724	0.073646	-0.141463
H280	H	-0.153724	0.573646	0.358537
H281	H	-0.643210	0.178775	-0.141457
H282	H	-0.143210	0.678775	0.358543
C283	C	-0.468063	0.122764	-0.138727
C284	C	0.031937	0.622764	0.361273
H285	H	-0.500026	0.123370	-0.178041
H286	H	-0.000026	0.623370	0.321959
H287	H	-0.434549	0.174787	-0.141468
H288	H	0.065451	0.674787	0.358532
H289	H	-0.445055	0.069657	-0.141474
H290	H	0.054945	0.569657	0.358526
H291	H	-0.906241	0.008416	0.804098
H292	H	-0.406241	0.508416	1.304098
