data_functionalizedCrystal
_audit_creation_method	'MofGen! by Chris Wilmer'
_symmetry_space_group_name_H-M	'P1'
_symmetry_Int_Tables_number	1
_symmetry_cell_setting	triclinic
loop_
_symmetry_equiv_pos_as_xyz
  x,y,z
_cell_length_a	18.101395
_cell_length_b	18.101398
_cell_length_c	18.101389
_cell_angle_alpha	89.971872
_cell_angle_beta	90.016841
_cell_angle_gamma	89.973721
loop_
_atom_site_label
_atom_site_type_symbol
_atom_site_fract_x
_atom_site_fract_y
_atom_site_fract_z
Zn1	Zn	-0.295003	-1.132121	0.418922
Zn2	Zn	-0.418828	-1.132017	0.295084
Zn3	Zn	-0.294995	-1.008280	0.295075
Zn4	Zn	-0.418796	-1.008231	0.418864
O5	O	-0.356905	-1.070162	0.356986
O6	O	-0.311445	-1.235740	0.402522
O7	O	-0.402412	-1.115580	0.191450
O8	O	-0.191363	-1.024772	0.311524
O9	O	-0.402419	-1.235664	0.311539
O10	O	-0.191369	-1.115757	0.402514
O11	O	-0.311432	-1.024671	0.191443
O12	O	-0.311401	-0.904641	0.311468
O13	O	-0.402365	-1.024688	0.522505
O14	O	-0.402357	-0.904604	0.402415
O15	O	-0.311414	-1.115710	0.522547
O16	O	-0.522457	-1.115532	0.311483
O17	O	-0.522433	-1.024587	0.402424
C18	C	-0.356875	-0.877752	0.356935
C19	C	-0.356880	-0.795438	0.356930
C20	C	-0.356888	-0.644729	0.356955
C21	C	-0.299578	-0.613373	0.299827
C22	C	-0.299358	-0.527755	0.300009
C23	C	-0.356897	-0.496347	0.356978
C24	C	-0.336079	-0.527486	0.435114
C25	C	-0.335658	-0.613131	0.434771
C26	C	-0.435164	-0.613125	0.336634
C27	C	-0.434747	-0.527474	0.334926
C28	C	-0.356903	-0.412487	0.356996
C29	C	-0.356881	-0.728589	0.356942
C30	C	-0.549316	-1.070063	0.356964
C31	C	-0.631630	-1.070088	0.356980
C32	C	-0.930721	-1.070251	0.357020
C33	C	-0.899412	-1.013163	0.414379
C34	C	-0.813794	-1.012892	0.414200
C35	C	-0.782339	-1.070170	0.357001
C36	C	-0.813474	-1.049041	0.278948
C37	C	-0.899119	-1.048673	0.279291
C38	C	-0.899075	-1.148593	0.377026
C39	C	-0.813424	-1.148132	0.378738
C40	C	-0.698479	-1.070126	0.356985
C41	C	-1.014580	-1.070293	0.357030
C42	C	-0.163744	-1.070282	0.357024
C43	C	-0.081429	-1.070333	0.357041
C44	C	-0.356887	-1.070205	0.550148
C45	C	-0.356879	-1.070223	0.632462
C46	C	-0.356925	-0.263324	0.357024
C47	C	-0.356905	-0.345638	0.357002
C48	C	-0.356871	-1.070162	0.164576
C49	C	-0.356670	-1.070287	0.082262
C50	C	-0.356740	-1.070266	0.931554
C51	C	-0.413782	-1.012801	0.900202
C52	C	-0.414046	-1.012956	0.814583
C53	C	-0.356809	-1.070244	0.783171
C54	C	-0.377999	-1.148270	0.814282
C55	C	-0.378374	-1.147949	0.899927
C56	C	-0.278381	-1.050385	0.899974
C57	C	-0.278833	-1.048649	0.814323
C58	C	-0.356846	-1.070237	0.699311
C59	C	-0.356704	-1.070279	1.015413
H60	H	-0.792742	-1.026111	0.472075
C61	C	-0.492849	-0.640520	0.392834
C62	C	-0.559177	-0.686826	0.366552
C63	C	-0.616856	-0.714223	0.422754
C64	C	-0.608207	-0.695314	0.505239
C65	C	-0.541876	-0.649006	0.531525
C66	C	-0.484198	-0.621609	0.475323
H67	H	-0.565582	-0.700825	0.305488
H68	H	-0.665958	-0.748504	0.403295
H69	H	-0.650904	-0.715595	0.546843
H70	H	-0.535471	-0.635006	0.592589
H71	H	-0.435095	-0.587328	0.494782
C72	C	-0.257232	-0.971082	0.786849
C73	C	-0.242261	-0.908801	0.842799
C74	C	-0.220660	-0.831235	0.815319
C75	C	-0.214029	-0.815951	0.731889
C76	C	-0.229000	-0.878234	0.675934
C77	C	-0.250602	-0.955800	0.703413
H78	H	-0.247170	-0.920114	0.904564
H79	H	-0.209578	-0.785129	0.856742
H80	H	-0.198039	-0.758532	0.711547
H81	H	-0.224092	-0.866922	0.614169
H82	H	-0.261684	-1.001906	0.661991
H83	H	-0.400656	-0.954768	0.920783
C84	C	-0.454563	-1.171436	0.785328
C85	C	-0.497921	-1.119697	0.733496
C86	C	-0.574487	-1.142858	0.704544
C87	C	-0.607695	-1.217758	0.727424
C88	C	-0.564337	-1.269502	0.779259
C89	C	-0.487771	-1.246341	0.808211
H90	H	-0.473339	-1.064247	0.716557
H91	H	-0.606583	-1.104554	0.666172
H92	H	-0.664374	-1.234904	0.705992
H93	H	-0.588919	-1.324952	0.796198
H94	H	-0.455675	-1.284645	0.846582
H95	H	-0.278451	-0.633136	0.451947
C96	C	-0.495495	-0.498593	0.386998
C97	C	-0.541939	-0.553330	0.432639
C98	C	-0.602686	-0.524449	0.484714
C99	C	-0.616990	-0.440832	0.491149
C100	C	-0.570545	-0.386090	0.445507
C101	C	-0.509797	-0.414971	0.393431
H102	H	-0.531351	-0.615233	0.427877
H103	H	-0.637068	-0.564973	0.518502
H104	H	-0.661959	-0.419453	0.529698
H105	H	-0.581133	-0.324187	0.450269
H106	H	-0.475416	-0.374447	0.359644
C107	C	-0.928554	-0.935188	0.396707
C108	C	-0.974777	-0.892993	0.454311
C109	C	-1.003919	-0.815018	0.436638
C110	C	-0.986839	-0.779238	0.361360
C111	C	-0.940614	-0.821433	0.303751
C112	C	-0.911472	-0.899408	0.321424
H113	H	-0.987423	-0.919480	0.510041
H114	H	-1.038138	-0.783783	0.479284
H115	H	-1.008411	-0.721516	0.348277
H116	H	-0.927968	-0.794947	0.248022
H117	H	-0.877253	-0.930644	0.278778
H118	H	-0.234077	-1.087450	0.792940
C119	C	-0.455976	-0.499962	0.257248
C120	C	-0.402894	-0.449471	0.214021
C121	C	-0.424124	-0.421949	0.136346
C122	C	-0.498436	-0.444919	0.101898
C123	C	-0.551522	-0.495414	0.145125
C124	C	-0.530293	-0.522935	0.222800
H125	H	-0.347880	-0.432465	0.239521
H126	H	-0.384825	-0.384570	0.104346
H127	H	-0.514151	-0.424546	0.044398
H128	H	-0.606536	-0.512420	0.119625
H129	H	-0.569591	-0.560314	0.254800
C130	C	-0.252300	-0.974854	0.929119
C131	C	-0.301829	-0.930262	0.981977
C132	C	-0.275759	-0.854728	1.011122
C133	C	-0.200160	-0.823787	0.987410
C134	C	-0.150627	-0.868379	0.934549
C135	C	-0.176697	-0.943913	0.905404
H136	H	-0.357796	-0.953167	0.999533
H137	H	-0.312427	-0.821718	1.050254
H138	H	-0.180861	-0.767872	1.008985
H139	H	-0.094660	-0.845475	0.916993
H140	H	-0.140028	-0.976924	0.866273
C141	C	-0.928193	-1.174620	0.452609
C142	C	-0.973500	-1.246377	0.458337
C143	C	-1.002617	-1.272395	0.533922
C144	C	-0.986428	-1.226655	0.603780
C145	C	-0.941118	-1.154894	0.598054
C146	C	-0.912001	-1.128876	0.522468
H147	H	-0.985486	-1.280240	0.406622
H148	H	-1.036158	-1.325517	0.538161
H149	H	-1.007982	-1.245915	0.659733
H150	H	-0.929132	-1.121031	0.649768
H151	H	-0.878459	-1.075754	0.518230
H152	H	-0.793363	-0.954823	0.400947
C153	C	-0.927179	-1.030842	0.492823
C154	C	-0.978624	-1.097330	0.505759
C155	C	-1.006393	-1.115013	0.584206
C156	C	-0.982716	-1.066208	0.649716
C157	C	-0.931267	-0.999716	0.636781
C158	C	-0.903499	-0.982033	0.558335
H159	H	-0.996154	-1.133462	0.457263
H160	H	-1.044478	-1.164235	0.593780
H161	H	-1.003272	-1.079298	0.707786
H162	H	-0.913737	-0.963584	0.685277
H163	H	-0.865413	-0.932811	0.548760
C164	C	-0.492517	-1.030775	0.786984
C165	C	-0.529252	-1.104515	0.808172
C166	C	-0.607733	-1.122361	0.780610
C167	C	-0.649479	-1.066468	0.731859
C168	C	-0.612745	-0.992724	0.710669
C169	C	-0.534263	-0.974877	0.738231
H170	H	-0.498349	-1.145894	0.844262
H171	H	-0.634926	-1.176952	0.796296
H172	H	-0.707576	-1.079680	0.711456
H173	H	-0.643648	-0.951344	0.674579
H174	H	-0.507070	-0.920286	0.722544
H175	H	-0.312418	-0.633914	0.241709
C176	C	-0.323644	-1.207671	0.786798
C177	C	-0.333704	-1.288775	0.810447
C178	C	-0.279348	-1.348176	0.782961
C179	C	-0.214933	-1.326472	0.731825
C180	C	-0.204870	-1.245365	0.708173
C181	C	-0.259226	-1.185964	0.735659
H182	H	-0.381390	-1.304845	0.848303
H183	H	-0.286797	-1.408217	0.800470
H184	H	-0.174695	-1.370444	0.711478
H185	H	-0.157184	-1.229295	0.670317
H186	H	-0.251777	-1.125923	0.718150
H187	H	-0.793099	-1.089313	0.235045
H188	H	-0.235882	-1.092240	0.920252
H189	H	-0.919154	-0.991406	0.262345
C190	C	-0.927107	-1.102389	0.219573
C191	C	-0.871525	-1.145480	0.171722
C192	C	-0.899509	-1.199186	0.111998
C193	C	-0.983076	-1.209800	0.100124
C194	C	-1.038663	-1.166707	0.147976
C195	C	-1.010679	-1.113002	0.207700
H196	H	-0.809660	-1.137624	0.180511
H197	H	-0.858360	-1.231086	0.076574
H198	H	-1.003791	-1.249556	0.055912
H199	H	-1.100529	-1.174563	0.139187
H200	H	-1.051829	-1.081101	0.243124
C201	C	-0.784585	-0.972493	0.255643
C202	C	-0.732785	-0.929092	0.307293
C203	C	-0.703898	-0.852541	0.283993
C204	C	-0.726811	-0.819392	0.209043
C205	C	-0.778614	-0.862793	0.157388
C206	C	-0.807501	-0.939343	0.180688
H207	H	-0.715821	-0.953631	0.362780
H208	H	-0.665550	-0.820413	0.322232
H209	H	-0.705428	-0.762724	0.191795
H210	H	-0.795579	-0.838254	0.101901
H211	H	-0.845849	-0.971471	0.142449
H212	H	-0.793073	-1.164066	0.436180
H213	H	-0.312345	-0.506698	0.242082
C214	C	-0.784554	-1.208626	0.326372
C215	C	-0.732008	-1.188201	0.262675
C216	C	-0.703165	-1.248688	0.210282
C217	C	-0.726868	-1.329600	0.221587
C218	C	-0.779417	-1.350028	0.285288
C219	C	-0.808260	-1.289541	0.337680
H220	H	-0.714459	-1.128302	0.254303
H221	H	-0.664265	-1.233565	0.163126
H222	H	-0.705517	-1.374376	0.182803
H223	H	-0.796966	-1.409927	0.293659
H224	H	-0.847160	-1.304664	0.384836
H225	H	-0.435655	-1.164804	0.919913
C226	C	-0.221007	-0.500104	0.318236
C227	C	-0.158443	-0.555953	0.332675
C228	C	-0.080088	-0.528302	0.350906
C229	C	-0.064298	-0.444803	0.354698
C230	C	-0.126864	-0.388949	0.340258
C231	C	-0.205218	-0.416600	0.322027
H232	H	-0.170130	-0.617769	0.329869
H233	H	-0.033773	-0.569650	0.361595
H234	H	-0.006295	-0.424335	0.368193
H235	H	-0.115176	-0.327133	0.343064
H236	H	-0.251534	-0.375252	0.311338
H237	H	-0.241905	-0.634921	0.313145
C238	C	-0.324706	-1.207767	0.927955
C239	C	-0.281646	-1.255676	0.872405
C240	C	-0.227988	-1.315500	0.900430
C241	C	-0.217390	-1.327415	0.984004
C242	C	-0.260451	-1.279505	1.039559
C243	C	-0.314109	-1.219681	1.011535
H244	H	-0.289490	-1.246857	0.810534
H245	H	-0.196111	-1.350966	0.859303
H246	H	-0.177669	-1.371700	1.004749
H247	H	-0.252606	-1.288324	1.101430
H248	H	-0.345985	-1.184214	1.052661
H249	H	-0.919321	-1.191125	0.335249
H250	H	-0.400785	-0.955097	0.793546
H251	H	-0.471509	-1.025796	0.921730
H252	H	-0.376549	-0.507146	0.478855
C253	C	-0.259647	-0.498557	0.458728
C254	C	-0.246374	-0.414883	0.466357
C255	C	-0.169940	-0.385956	0.489966
C256	C	-0.106778	-0.440703	0.505945
C257	C	-0.120049	-0.524382	0.498315
C258	C	-0.196483	-0.553309	0.474707
H259	H	-0.293132	-0.374351	0.454528
H260	H	-0.160116	-0.324010	0.495613
H261	H	-0.050197	-0.419289	0.523421
H262	H	-0.073291	-0.564914	0.510144
H263	H	-0.206307	-0.615255	0.469060
C264	C	-0.460854	-0.642242	0.260947
C265	C	-0.477446	-0.587710	0.197755
C266	C	-0.503128	-0.616827	0.122064
C267	C	-0.512217	-0.700474	0.109566
C268	C	-0.495624	-0.755010	0.172760
C269	C	-0.469943	-0.725894	0.248450
H270	H	-0.470718	-0.525785	0.207005
H271	H	-0.515410	-0.576455	0.075284
H272	H	-0.531227	-0.722027	0.053536
H273	H	-0.502352	-0.816935	0.163510
H274	H	-0.457661	-0.766266	0.295230
C275	C	-0.389615	-0.641168	0.494264
C276	C	-0.455666	-0.689985	0.472167
C277	C	-0.509615	-0.718020	0.531664
C278	C	-0.497512	-0.697238	0.613259
C279	C	-0.431458	-0.648418	0.635360
C280	C	-0.377509	-0.620384	0.575863
H281	H	-0.464628	-0.705372	0.411763
H282	H	-0.558513	-0.754159	0.515303
H283	H	-0.537448	-0.717991	0.657302
H284	H	-0.422496	-0.633032	0.695764
H285	H	-0.328611	-0.584244	0.592224
