data_functionalizedCrystal
_audit_creation_method	'MofGen! by Chris Wilmer'
_symmetry_space_group_name_H-M	'P1'
_symmetry_Int_Tables_number	1
_symmetry_cell_setting	triclinic
loop_
_symmetry_equiv_pos_as_xyz
  x,y,z
_cell_length_a	19.076808
_cell_length_b	16.120542
_cell_length_c	19.076919
_cell_angle_alpha	89.498748
_cell_angle_beta	90.121640
_cell_angle_gamma	90.702109
loop_
_atom_site_label
_atom_site_type_symbol
_atom_site_fract_x
_atom_site_fract_y
_atom_site_fract_z
Zn1	Zn	-0.350886	-1.237030	0.436750
Zn2	Zn	-0.463696	-1.237379	0.314534
Zn3	Zn	-0.340254	-1.103976	0.313806
Zn4	Zn	-0.461933	-1.092796	0.426076
O5	O	-0.404192	-1.167795	0.372791
O6	O	-0.371038	-1.353268	0.425310
O7	O	-0.443610	-1.224508	0.216304
O8	O	-0.243530	-1.126159	0.334277
O9	O	-0.453919	-1.353525	0.335518
O10	O	-0.251341	-1.223912	0.424604
O11	O	-0.352917	-1.126498	0.215769
O12	O	-0.351207	-0.986302	0.323926
O13	O	-0.450914	-1.107104	0.525625
O14	O	-0.440604	-0.978088	0.406411
O15	O	-0.369328	-1.213072	0.533467
O16	O	-0.561597	-1.213668	0.325168
O17	O	-0.560301	-1.107443	0.407117
C18	C	-0.394561	-0.952067	0.363931
C19	C	-0.390459	-0.859776	0.360157
C20	C	-0.586396	-1.159402	0.365079
C21	C	-0.664348	-1.155886	0.361807
C22	C	-0.425451	-0.645635	0.392332
C23	C	-0.382975	-0.690804	0.353265
C24	C	-0.387140	-0.784829	0.357101
C25	C	-0.421287	-0.551602	0.388497
C26	C	-0.704975	-1.205088	0.407332
C27	C	-0.778219	-1.201781	0.404258
C28	C	-0.810834	-1.149276	0.355655
C29	C	-0.770201	-1.100069	0.310127
C30	C	-0.696958	-1.103372	0.313205
C31	C	-1.029456	-1.133940	0.341406
C32	C	-1.102704	-1.130642	0.338330
C33	C	-1.110718	-1.232353	0.432462
C34	C	-1.037473	-1.235656	0.435533
C35	C	-0.996846	-1.186445	0.390008
N36	N	-0.885701	-1.145896	0.352510
N37	N	-0.921981	-1.189821	0.393157
C38	C	-0.221279	-1.176244	0.380550
C39	C	-0.143332	-1.179844	0.383856
C40	C	-0.411110	-1.158802	0.555703
C41	C	-0.414058	-1.154969	0.633648
C42	C	-0.413857	-0.384367	0.381676
C43	C	-0.417965	-0.476658	0.385438
C44	C	-0.397253	-1.176804	0.190596
C45	C	-0.394114	-1.180807	0.112665
C46	C	-0.372968	-1.208337	0.674352
C47	C	-0.375735	-1.204726	0.747590
C48	C	-0.419596	-1.147750	0.780123
C49	C	-0.460688	-1.094376	0.739415
C50	C	-0.457917	-1.097984	0.666178
C51	C	-0.432435	-1.131041	0.998720
C52	C	-0.435205	-1.127439	1.071962
C53	C	-0.350250	-1.237788	1.080132
C54	C	-0.347486	-1.241394	1.006893
C55	C	-0.388575	-1.188017	0.966191
N56	N	-0.422427	-1.144059	0.854984
N57	N	-0.385740	-1.191704	0.891331
H58	H	-0.343482	-0.658859	0.316937
Br59	Br	-0.287960	-1.318724	0.962746
H60	H	-0.470923	-1.081039	1.098448
H61	H	-0.337253	-1.254736	0.647869
Br62	Br	-0.491280	-0.698876	0.452870
H63	H	-0.678426	-1.247847	0.446907
Br64	Br	-0.520211	-1.017046	0.783566
H65	H	-0.316796	-1.281243	1.113279
H66	H	-0.811296	-1.241853	0.441325
Br67	Br	-0.488198	-1.058599	0.943490
Br68	Br	-0.993216	-1.306916	0.501496
Br69	Br	-0.513680	-1.025548	0.610936
H70	H	-1.143804	-1.272417	0.469527
Br71	Br	-0.974328	-1.067143	0.279630
Br72	Br	-1.146966	-1.059386	0.272360
Br73	Br	-0.641819	-1.036592	0.251421
Br74	Br	-0.814462	-1.028799	0.244173
H75	H	-0.342276	-1.248186	0.780728
