data_functionalizedCrystal
_audit_creation_method	'MofGen! by Chris Wilmer'
_symmetry_space_group_name_H-M	'P1'
_symmetry_Int_Tables_number	1
_symmetry_cell_setting	triclinic
loop_
_symmetry_equiv_pos_as_xyz
  x,y,z
_cell_length_a	16.625546
_cell_length_b	13.032831
_cell_length_c	13.034356
_cell_angle_alpha	105.184960
_cell_angle_beta	82.786847
_cell_angle_gamma	97.173222
loop_
_atom_site_label
_atom_site_type_symbol
_atom_site_fract_x
_atom_site_fract_y
_atom_site_fract_z
Zn1	Zn	-0.408762	-1.700143	-0.806413
Zn2	Zn	-0.558798	-1.677440	-0.628773
Zn3	Zn	-0.408769	-1.499948	-0.606296
Zn4	Zn	-0.528336	-1.522474	-0.783828
O5	O	-0.476167	-1.600001	-0.706328
O6	O	-0.441411	-1.845768	-0.801708
O7	O	-0.551648	-1.634967	-0.477151
O8	O	-0.295939	-1.526579	-0.632887
O9	O	-0.551642	-1.829088	-0.671196
O10	O	-0.295934	-1.673661	-0.779913
O11	O	-0.441423	-1.504564	-0.460637
O12	O	-0.411884	-1.354300	-0.610987
O13	O	-0.499722	-1.564970	-0.935465
O14	O	-0.499729	-1.370849	-0.741419
O15	O	-0.411872	-1.695503	-0.952058
O16	O	-0.667587	-1.656809	-0.649296
O17	O	-0.645206	-1.542956	-0.763215
C18	C	-0.452502	-1.324035	-0.671314
C19	C	-0.442396	-1.205978	-0.656360
C20	C	-0.685653	-1.599895	-0.706270
C21	C	-0.775277	-1.599951	-0.706294
C22	C	-0.452399	-1.635282	-0.983380
C23	C	-0.442270	-1.650317	-1.101444
C24	C	-1.103459	-1.600151	-0.706428
C25	C	-1.012148	-1.600092	-0.706393
C26	C	-0.939371	-1.600050	-0.706360
C27	C	-0.848054	-1.599993	-0.706327
C28	C	-0.265863	-1.600140	-0.706412
C29	C	-0.176244	-1.600199	-0.706448
C30	C	-0.499924	-1.877045	-0.741479
C31	C	-0.510047	-1.995105	-0.756458
C32	C	-0.481441	-1.161549	-0.714132
C33	C	-0.470997	-1.039531	-0.698678
C34	C	-0.470758	-1.607970	-1.267894
C35	C	-0.481226	-1.592429	-1.145870
C36	C	-0.499789	-1.564919	-0.430361
C37	C	-0.509708	-1.550090	-0.312324
H38	H	-0.522598	-1.213844	-0.775037
Cl39	Cl	-0.544686	-1.498156	-1.065134
Cl40	Cl	-0.407310	-1.702251	-1.348635
H41	H	-0.401173	-1.711383	-1.153740
Cl42	Cl	-0.573587	-1.075832	-0.850510
H43	H	-0.429830	-0.987240	-0.637777
H44	H	-0.550808	-1.489035	-1.260024
Cl45	Cl	-0.378841	-1.125248	-0.562335
