data_functionalizedCrystal
_audit_creation_method	'MofGen! by Chris Wilmer'
_symmetry_space_group_name_H-M	'P1'
_symmetry_Int_Tables_number	1
_symmetry_cell_setting	triclinic
loop_
_symmetry_equiv_pos_as_xyz
  x,y,z
_cell_length_a	16.109301
_cell_length_b	17.699083
_cell_length_c	14.586319
_cell_angle_alpha	89.995320
_cell_angle_beta	89.999213
_cell_angle_gamma	83.372248
loop_
_atom_site_label
_atom_site_type_symbol
_atom_site_fract_x
_atom_site_fract_y
_atom_site_fract_z
O1	O	1.102963	0.097285	-0.076184
O2	O	1.602963	0.597285	0.423816
O3	O	0.860880	0.109391	-0.076199
O4	O	1.360880	0.609391	0.423801
O5	O	0.988761	-0.006841	-0.076183
O6	O	1.488761	0.493159	0.423817
O7	O	0.975082	0.213517	-0.076200
O8	O	1.475082	0.713517	0.423800
O9	O	0.988752	-0.006843	0.076298
O10	O	1.488752	0.493157	0.576298
O11	O	0.860872	0.109390	0.076282
O12	O	1.360872	0.609390	0.576282
O13	O	1.102954	0.097283	0.076297
O14	O	1.602954	0.597283	0.576297
Cu15	Cu	0.981912	0.103336	0.090212
Cu16	Cu	1.481912	0.603336	0.590212
Cu17	Cu	0.981923	0.103338	-0.090114
Cu18	Cu	1.481923	0.603338	0.409886
O19	O	0.975074	0.213516	0.076281
O20	O	1.475074	0.713516	0.576281
C21	C	0.829902	0.108900	0.000040
C22	C	1.329902	0.608900	0.500040
C23	C	0.737609	0.107430	0.000034
C24	C	1.237609	0.607430	0.500034
C25	C	0.515224	0.172981	0.000040
C26	C	1.015224	0.672981	0.500040
C27	C	0.428506	0.171594	0.000046
C28	C	0.928506	0.671594	0.500046
C29	C	0.448618	0.033688	0.000053
C30	C	0.948618	0.533688	0.500053
C31	C	0.535334	0.035076	0.000053
C32	C	1.035334	0.535076	0.500053
C33	C	0.568635	0.104725	0.000042
C34	C	1.068635	0.604725	0.500042
C35	C	0.395200	0.101949	0.000047
C36	C	0.895200	0.601949	0.500047
C37	C	0.301177	0.100445	0.000054
C38	C	0.801177	0.600445	0.500054
C39	C	0.662664	0.106230	0.000037
C40	C	1.162664	0.606230	0.500037
C41	C	0.988267	-0.035040	0.000057
C42	C	1.488267	0.464960	0.500057
C43	C	0.986796	-0.119060	0.000058
C44	C	1.486796	0.380940	0.500058
C45	C	1.061860	-0.167574	0.000064
C46	C	1.561860	0.332426	0.500064
C47	C	1.060473	-0.246519	0.000055
C48	C	1.560473	0.253481	0.500055
C49	C	0.984022	-0.276949	0.000048
C50	C	1.484022	0.223051	0.500048
C51	C	0.908953	-0.228429	0.000039
C52	C	1.408953	0.271571	0.500039
C53	C	0.910341	-0.149485	0.000041
C54	C	1.410341	0.350515	0.500041
C55	C	0.903356	-0.546800	0.000031
C56	C	1.403356	-0.046800	0.500031
C57	C	0.901974	-0.625750	0.000033
C58	C	1.401974	-0.125750	0.500033
C59	C	1.053488	-0.643834	0.000046
C60	C	1.553488	-0.143834	0.500046
C61	C	1.054876	-0.564890	0.000048
C62	C	1.554876	-0.064890	0.500048
C63	C	0.979807	-0.516377	0.000034
C64	C	1.479807	-0.016377	0.500034
C65	C	0.981312	-0.430776	0.000041
C66	C	1.481312	0.069224	0.500041
C67	C	0.982517	-0.362549	0.000047
C68	C	1.482517	0.137451	0.500047
C69	C	1.133933	0.097774	0.000056
C70	C	1.633933	0.597774	0.500056
C71	C	1.226226	0.099244	0.000055
C72	C	1.726226	0.599244	0.500055
C73	C	0.975568	0.241714	0.000038
C74	C	1.475568	0.741714	0.500038
C75	C	0.977039	0.325734	0.000032
C76	C	1.477039	0.825734	0.500032
N77	N	0.981911	0.103334	0.217044
N78	N	1.481911	0.603334	0.717044
N79	N	0.981931	0.103334	-0.216946
N80	N	1.481931	0.603334	0.283054
C81	C	1.038555	0.051884	0.452057
C82	C	1.538555	0.551884	0.952057
C83	C	1.038558	0.051882	0.548038
C84	C	1.538558	0.551882	1.048038
C85	C	0.925280	0.154787	0.548034
C86	C	1.425280	0.654787	1.048034
C87	C	0.925274	0.154785	0.452054
C88	C	1.425274	0.654785	0.952054
C89	C	0.981917	0.103334	0.404068
C90	C	1.481917	0.603334	0.904068
C91	C	0.981925	0.103334	0.596029
C92	C	1.481925	0.603334	1.096029
C93	C	0.981927	0.103333	0.700096
C94	C	1.481927	0.603333	1.200096
C95	C	0.981914	0.103334	0.299995
C96	C	1.481914	0.603334	0.799995
H97	H	0.421494	-0.023018	0.000067
H98	H	0.921494	0.476982	0.500067
H99	H	0.842230	-0.507310	0.000021
H100	H	1.342230	-0.007310	0.500021
C101	C	0.370420	0.245645	-0.000106
C102	C	0.870420	0.745645	0.499894
C103	C	0.320033	0.248869	-0.078541
C104	C	0.820033	0.748869	0.421459
C105	C	0.266508	0.317071	-0.078705
C106	C	0.766508	0.817071	0.421295
H107	H	0.402571	0.287383	-0.000160
H108	H	0.902571	0.787383	0.499840
H109	H	0.336125	0.247978	0.053041
H110	H	0.836125	0.747978	0.553041
H111	H	0.354324	0.246543	-0.131674
H112	H	0.854324	0.746543	0.368326
H113	H	0.287864	0.207147	-0.078504
H114	H	0.787864	0.707147	0.421496
H115	H	0.232213	0.319404	-0.025559
H116	H	0.732213	0.819404	0.474441
H117	H	0.298666	0.358804	-0.078757
H118	H	0.798666	0.858804	0.421243
H119	H	0.232309	0.319265	-0.131918
H120	H	0.732309	0.819265	0.368082
H121	H	1.084677	0.009985	0.587108
H122	H	1.584677	0.509985	1.087108
H123	H	1.114613	-0.683343	0.000052
H124	H	1.614613	-0.183343	0.500052
H125	H	0.542334	0.229694	0.000038
H126	H	1.042334	0.729694	0.500038
C127	C	0.593192	-0.039118	0.000008
C128	C	1.093192	0.460882	0.500008
C129	C	0.545471	-0.100411	-0.000015
C130	C	1.045471	0.399589	0.499985
C131	C	0.598740	-0.168765	-0.000065
C132	C	1.098740	0.331235	0.499935
H133	H	0.627456	-0.041551	0.053168
H134	H	1.127456	0.458449	0.553168
H135	H	0.627428	-0.041481	-0.053186
H136	H	1.127428	0.458519	0.446814
H137	H	0.511250	-0.098049	0.053174
H138	H	1.011250	0.401951	0.553174
H139	H	0.511209	-0.098003	-0.053171
H140	H	1.011209	0.401997	0.446829
H141	H	0.632976	-0.171128	-0.053259
H142	H	1.132976	0.328872	0.446741
H143	H	0.633001	-0.171190	0.053096
H144	H	1.133001	0.328810	0.553096
H145	H	0.566369	-0.210360	-0.000088
H146	H	1.066369	0.289640	0.499912
C147	C	0.863885	0.210618	0.600301
C148	C	1.363885	0.710618	1.100301
C149	C	0.876027	0.199625	0.694628
C150	C	1.376027	0.699625	1.194628
C151	C	0.819494	0.251052	0.742802
C152	C	1.319494	0.751052	1.242802
H153	H	0.808378	0.202435	0.584690
H154	H	1.308378	0.702435	1.084690
H155	H	0.872819	0.261149	0.584614
H156	H	1.372819	0.761149	1.084614
H157	H	0.867087	0.149106	0.710308
H158	H	1.367087	0.649106	1.210308
H159	H	0.931523	0.207813	0.710265
H160	H	1.431523	0.707813	1.210265
H161	H	0.828428	0.301583	0.727115
H162	H	1.328428	0.801583	1.227115
H163	H	0.763990	0.242865	0.727184
H164	H	1.263990	0.742865	1.227184
H165	H	0.827730	0.243604	0.806807
H166	H	1.327730	0.743604	1.306807
H167	H	0.879149	0.196682	0.412979
H168	H	1.379149	0.696682	0.912979
C169	C	1.144951	-0.134686	0.000022
C170	C	1.644951	0.365314	0.500022
C171	C	1.210390	-0.194074	-0.000002
C172	C	1.710390	0.305926	0.499998
C173	C	1.286947	-0.163810	-0.000058
C174	C	1.786947	0.336190	0.499942
H175	H	1.148762	-0.104281	0.053180
H176	H	1.648762	0.395719	0.553180
H177	H	1.148687	-0.104285	-0.053173
H178	H	1.648687	0.395715	0.446827
H179	H	1.206656	-0.224462	0.053188
H180	H	1.706656	0.275538	0.553188
H181	H	1.206607	-0.224484	-0.053157
H182	H	1.706607	0.275516	0.446843
H183	H	1.290684	-0.133409	-0.053253
H184	H	1.790684	0.366591	0.446747
H185	H	1.290749	-0.133405	0.053102
H186	H	1.790749	0.366595	0.553102
H187	H	1.331357	-0.204099	-0.000083
H188	H	1.831357	0.295901	0.499917
H189	H	1.117130	-0.540119	0.000058
H190	H	1.617130	-0.040119	0.500058
C191	C	1.141948	-0.299225	-0.000128
C192	C	1.641948	0.200775	0.499872
C193	C	1.145599	-0.345051	-0.078593
C194	C	1.645599	0.154949	0.421407
C195	C	1.220650	-0.393603	-0.078803
C196	C	1.720650	0.106397	0.421197
H197	H	1.144637	-0.330476	0.052979
H198	H	1.644637	0.169524	0.552979
H199	H	1.187699	-0.269819	-0.000169
H200	H	1.687699	0.230181	0.499831
H201	H	1.099861	-0.374454	-0.078543
H202	H	1.599861	0.125546	0.421457
H203	H	1.142925	-0.313820	-0.131713
H204	H	1.642925	0.186180	0.368287
H205	H	1.266401	-0.364197	-0.078844
H206	H	1.766401	0.135803	0.421156
H207	H	1.223332	-0.424849	-0.025692
H208	H	1.723332	0.075151	0.474308
H209	H	1.223141	-0.424697	-0.132044
H210	H	1.723141	0.075303	0.367956
C211	C	0.828869	-0.096773	-0.000153
C212	C	1.328869	0.403227	0.499847
C213	C	0.825237	-0.050933	-0.078614
C214	C	1.325237	0.449067	0.421386
C215	C	0.750191	-0.002373	-0.078834
C216	C	1.250191	0.497627	0.421166
H217	H	0.826176	-0.065531	0.052957
H218	H	1.326176	0.434469	0.552957
H219	H	0.783113	-0.126173	-0.000206
H220	H	1.283113	0.373827	0.499794
H221	H	0.870980	-0.021535	-0.078552
H222	H	1.370980	0.478465	0.421448
H223	H	0.827916	-0.082154	-0.131736
H224	H	1.327916	0.417846	0.368264
H225	H	0.704436	-0.031773	-0.078887
H226	H	1.204436	0.468227	0.421113
H227	H	0.747505	0.028864	-0.025721
H228	H	1.247505	0.528864	0.474279
H229	H	0.747714	0.028730	-0.132073
H230	H	1.247714	0.528730	0.367927
H231	H	1.084675	0.009988	0.412989
H232	H	1.584675	0.509988	0.912989
C233	C	0.818941	-0.658747	-0.000174
C234	C	1.318941	-0.158747	0.499826
C235	C	0.773594	-0.634104	-0.078643
C236	C	1.273594	-0.134104	0.421357
C237	C	0.697109	-0.664494	-0.078870
C238	C	1.197109	-0.164494	0.421130
H239	H	0.787928	-0.642118	0.052930
H240	H	1.287928	-0.142118	0.552930
H241	H	0.828834	-0.712714	-0.000220
H242	H	1.328834	-0.212714	0.499780
H243	H	0.763698	-0.580148	-0.078589
H244	H	1.263698	-0.080148	0.421411
H245	H	0.804580	-0.650732	-0.131760
H246	H	1.304580	-0.150732	0.368240
H247	H	0.707002	-0.718461	-0.078916
H248	H	1.207002	-0.218461	0.421084
H249	H	0.666105	-0.647862	-0.025763
H250	H	1.166105	-0.147862	0.474237
H251	H	0.666335	-0.647783	-0.132115
H252	H	1.166335	-0.147783	0.367885
C253	C	0.826032	-0.261611	0.000078
C254	C	1.326032	0.238389	0.500078
C255	C	0.840881	-0.341131	0.000105
C256	C	1.340881	0.158869	0.500105
C257	C	0.764513	-0.371722	0.000157
C258	C	1.264513	0.128278	0.500157
H259	H	0.795071	-0.245039	-0.053083
H260	H	1.295071	0.254961	0.446917
H261	H	0.795121	-0.245002	0.053271
H262	H	1.295121	0.254998	0.553271
H263	H	0.871778	-0.357733	-0.053082
H264	H	1.371778	0.142267	0.446918
H265	H	0.871830	-0.357724	0.053262
H266	H	1.371830	0.142276	0.553262
H267	H	0.733602	-0.355113	0.053349
H268	H	1.233602	0.144887	0.553349
H269	H	0.733557	-0.355144	-0.053005
H270	H	1.233557	0.144856	0.446995
H271	H	0.774577	-0.425678	0.000183
H272	H	1.274577	0.074322	0.500183
