data_functionalizedCrystal
_audit_creation_method	'MofGen! by Chris Wilmer'
_symmetry_space_group_name_H-M	'P1'
_symmetry_Int_Tables_number	1
_symmetry_cell_setting	triclinic
loop_
_symmetry_equiv_pos_as_xyz
  x,y,z
_cell_length_a	19.188905
_cell_length_b	27.731996
_cell_length_c	17.666332
_cell_angle_alpha	89.987533
_cell_angle_beta	89.983521
_cell_angle_gamma	82.877971
loop_
_atom_site_label
_atom_site_type_symbol
_atom_site_fract_x
_atom_site_fract_y
_atom_site_fract_z
O1	O	0.925760	0.060292	-0.063083
O2	O	1.425760	0.560292	0.436917
O3	O	0.722392	0.068429	-0.063058
O4	O	1.222392	0.568429	0.436942
O5	O	0.830411	-0.006019	-0.063055
O6	O	1.330411	0.493981	0.436945
O7	O	0.817741	0.134740	-0.063086
O8	O	1.317741	0.634740	0.436914
O9	O	0.830392	-0.006023	0.062842
O10	O	1.330392	0.493977	0.562842
O11	O	0.722373	0.068425	0.062838
O12	O	1.222373	0.568425	0.562838
O13	O	0.925741	0.060288	0.062814
O14	O	1.425741	0.560288	0.562814
Cu15	Cu	0.824055	0.064356	0.074322
Cu16	Cu	1.324055	0.564356	0.574322
Cu17	Cu	0.824078	0.064361	-0.074566
Cu18	Cu	1.324078	0.564361	0.425434
O19	O	0.817722	0.134736	0.062811
O20	O	1.317722	0.634736	0.562811
C21	C	0.696373	0.068165	-0.000106
C22	C	1.196373	0.568165	0.499894
C23	C	0.618873	0.067380	-0.000096
C24	C	1.118873	0.567380	0.499904
C25	C	0.582494	0.067005	-0.068725
C26	C	1.082494	0.567005	0.431275
C27	C	0.509675	0.066262	-0.068734
C28	C	1.009675	0.566262	0.431266
C29	C	0.473240	0.065885	-0.000111
C30	C	0.973240	0.565885	0.499889
C31	C	0.509627	0.066262	0.068526
C32	C	1.009627	0.566262	0.568526
C33	C	0.582444	0.067010	0.068534
C34	C	1.082444	0.567010	0.568534
N35	N	0.364403	0.037201	0.050965
N36	N	0.864403	0.537201	0.550965
N37	N	0.295231	0.036490	0.050953
N38	N	0.795231	0.536490	0.550953
C39	C	0.253848	0.063633	-0.000129
C40	C	0.753848	0.563633	0.499871
N41	N	0.284253	0.091508	-0.051210
N42	N	0.784253	0.591508	0.448790
N43	N	0.353432	0.092218	-0.051201
N44	N	0.853432	0.592218	0.448799
C45	C	0.394283	0.065074	-0.000111
C46	C	0.894283	0.565074	0.499889
C47	C	0.138511	0.062453	-0.068772
C48	C	0.638511	0.562453	0.431228
C49	C	0.065690	0.061713	-0.068778
C50	C	0.565690	0.561713	0.431222
C51	C	0.065645	0.061708	0.068484
C52	C	0.565645	0.561708	0.568484
C53	C	0.138463	0.062453	0.068488
C54	C	0.638463	0.562453	0.568488
C55	C	0.174892	0.062823	-0.000142
C56	C	0.674892	0.562823	0.499858
C57	C	0.830141	-0.024029	-0.000104
C58	C	1.330141	0.475971	0.499896
C59	C	0.829357	-0.077688	-0.000096
C60	C	1.329357	0.422312	0.499904
C61	C	0.824435	-0.410417	-0.068759
C62	C	1.324435	0.089583	0.431241
C63	C	0.821458	-0.612084	-0.068772
C64	C	1.321458	-0.112084	0.431228
O65	O	0.821052	-0.638154	-0.127136
O66	O	1.321052	-0.138154	0.372864
N67	N	0.821078	-0.637305	-0.000146
N68	N	1.321078	-0.137305	0.499854
C69	C	0.821438	-0.612105	0.068488
C70	C	1.321438	-0.112105	0.568488
O71	O	0.821039	-0.638183	0.126858
O72	O	1.321039	-0.138183	0.626858
C73	C	0.824410	-0.410438	0.068500
C74	C	1.324410	0.089562	0.568500
C75	C	0.824797	-0.385221	-0.000130
C76	C	1.324797	0.114779	0.499870
C77	C	0.824822	-0.385200	-0.137383
C78	C	1.324822	0.114800	0.362617
C79	C	0.825570	-0.334786	-0.137380
C80	C	1.325570	0.165214	0.362620
C81	C	0.825931	-0.309590	-0.068751
C82	C	1.325931	0.190410	0.431249
C83	C	0.825545	-0.334807	-0.000126
C84	C	1.325545	0.165193	0.499874
C85	C	0.824765	-0.385238	0.137133
C86	C	1.324765	0.114762	0.637133
C87	C	0.825506	-0.334818	0.137130
C88	C	1.325506	0.165182	0.637130
C89	C	0.825893	-0.309601	0.068500
C90	C	1.325893	0.190399	0.568500
C91	C	0.826655	-0.259198	0.068506
C92	C	1.326655	0.240802	0.568506
N93	N	0.827035	-0.233977	-0.000120
N94	N	1.327035	0.266023	0.499880
C95	C	0.826673	-0.259174	-0.068748
C96	C	1.326673	0.240826	0.431252
C97	C	0.819879	-0.717983	0.068477
C98	C	1.319879	-0.217983	0.568477
C99	C	0.819137	-0.768399	0.068474
C100	C	1.319137	-0.268399	0.568474
C101	C	0.819156	-0.768375	-0.068786
C102	C	1.319156	-0.268375	0.431214
C103	C	0.819903	-0.717958	-0.068783
C104	C	1.319903	-0.217958	0.431217
C105	C	0.820259	-0.692762	-0.000149
C106	C	1.320259	-0.192762	0.499851
C107	C	0.828245	-0.153302	-0.068735
C108	C	1.328245	0.346698	0.431265
C109	C	0.828996	-0.102884	-0.068725
C110	C	1.328996	0.397116	0.431275
C111	C	0.828973	-0.102912	0.068535
C112	C	1.328973	0.397088	0.568535
C113	C	0.828226	-0.153326	0.068525
C114	C	1.328226	0.346674	0.568525
C115	C	0.827859	-0.178519	-0.000116
C116	C	1.327859	0.321481	0.499884
O117	O	0.827054	-0.233096	0.126840
O118	O	1.327054	0.266904	0.626840
O119	O	0.827056	-0.233085	-0.127109
O120	O	1.327056	0.266915	0.372891
C121	C	0.823687	-0.460830	-0.068763
C122	C	1.323687	0.039170	0.431237
C123	C	0.823301	-0.486048	-0.000138
C124	C	1.323301	0.013952	0.499862
C125	C	0.823663	-0.460851	0.068490
C126	C	1.323663	0.039149	0.568490
C127	C	0.822559	-0.536464	-0.000141
C128	C	1.322559	-0.036464	0.499859
C129	C	0.822198	-0.561660	-0.068770
C130	C	1.322198	-0.061660	0.431230
C131	C	0.822578	-0.536440	-0.137395
C132	C	1.322578	-0.036440	0.362605
C133	C	0.823326	-0.486027	-0.137391
C134	C	1.323326	0.013973	0.362609
C135	C	0.823283	-0.486072	0.137116
C136	C	1.323283	0.013928	0.637116
C137	C	0.822536	-0.536485	0.137107
C138	C	1.322536	-0.036485	0.637107
C139	C	0.822174	-0.561682	0.068478
C140	C	1.322174	-0.061682	0.568478
C141	C	0.951760	0.060551	-0.000139
C142	C	1.451760	0.560551	0.499861
C143	C	1.029260	0.061336	-0.000155
C144	C	1.529260	0.561336	0.499845
C145	C	0.817992	0.152746	-0.000142
C146	C	1.317992	0.652746	0.499858
C147	C	0.818776	0.206405	-0.000155
C148	C	1.318776	0.706405	0.499845
N149	N	0.824045	0.064352	0.179041
N150	N	1.324045	0.564352	0.679041
N151	N	0.824094	0.064360	-0.179285
N152	N	1.324094	0.564360	0.320715
C153	C	0.871891	0.031403	0.218652
C154	C	1.371891	0.531403	0.718652
C155	C	0.871895	0.031401	0.297900
C156	C	1.371895	0.531401	0.797900
C157	C	0.824060	0.064356	0.337533
C158	C	1.324060	0.564356	0.837533
C159	C	0.776205	0.097308	0.297912
C160	C	1.276205	0.597308	0.797912
C161	C	0.776197	0.097306	0.218666
C162	C	1.276197	0.597306	0.718666
N163	N	0.814699	0.107148	0.461943
N164	N	1.314699	0.607148	0.961943
N165	N	0.814710	0.107148	0.537223
N166	N	1.314710	0.607148	1.037223
C167	C	0.824078	0.064363	0.576297
C168	C	1.324078	0.564363	1.076297
N169	N	0.833448	0.021576	0.537247
N170	N	1.333448	0.521576	1.037247
N171	N	0.833440	0.021576	0.461959
N172	N	1.333440	0.521576	0.961959
C173	C	0.824062	0.064361	0.423462
C174	C	1.324062	0.564361	0.923462
C175	C	0.871931	0.031408	0.701838
C176	C	1.371931	0.531408	1.201838
C177	C	0.871930	0.031405	0.781087
C178	C	1.371930	0.531405	1.281087
C179	C	0.776243	0.097317	0.781098
C180	C	1.276243	0.597317	1.281098
C181	C	0.776241	0.097315	0.701850
C182	C	1.276241	0.597315	1.201850
C183	C	0.824088	0.064362	0.662225
C184	C	1.324088	0.564362	1.162225
H185	H	0.829312	-0.082355	-0.124614
H186	H	1.329312	0.417645	0.375386
O187	O	0.818732	-0.795599	0.142494
O188	O	1.318732	-0.295599	0.642494
H189	H	0.771259	-0.781515	0.175404
H190	H	1.271259	-0.281515	0.675404
H191	H	0.818863	-0.788899	-0.124666
H192	H	1.318863	-0.288899	0.375334
O193	O	0.026341	0.061392	0.142502
O194	O	0.526341	0.561392	0.642502
H195	H	-0.030411	0.060840	0.130969
H196	H	0.469589	0.560840	0.630969
O197	O	0.177809	0.062861	-0.142789
O198	O	0.677809	0.562861	0.357211
H199	H	0.140274	0.062484	-0.190514
H200	H	0.640274	0.562484	0.309486
H201	H	0.737292	0.124148	0.813367
H202	H	1.237292	0.624148	1.313367
H203	H	0.480049	0.065958	-0.124621
H204	H	0.980049	0.565958	0.375379
O205	O	0.820315	-0.690761	-0.142805
O206	O	1.320315	-0.190761	0.357195
H207	H	0.773048	-0.663376	-0.146081
H208	H	1.273048	-0.163376	0.353919
O209	O	0.026441	0.061309	-0.142798
O210	O	0.526441	0.561309	0.357202
H211	H	-0.000143	0.028031	-0.146059
H212	H	0.499857	0.528031	0.353941
O213	O	0.177703	0.062853	0.142513
O214	O	0.677703	0.562853	0.642513
H215	H	0.234457	0.063441	0.130990
H216	H	0.734457	0.563441	0.630990
H217	H	0.827943	-0.173808	-0.124629
H218	H	1.327943	0.326192	0.375371
H219	H	0.910850	0.004569	0.186392
H220	H	1.410850	0.504569	0.686392
O221	O	0.825969	-0.307588	-0.211402
O222	O	1.325969	0.192412	0.288598
H223	H	0.825581	-0.333585	-0.259118
H224	H	1.325581	0.166415	0.240882
O225	O	0.724596	0.132849	0.175935
O226	O	1.224596	0.632849	0.675935
H227	H	0.691334	0.155768	0.216805
H228	H	1.191334	0.655768	0.716805
H229	H	0.824451	-0.405762	0.193019
H230	H	1.324451	0.094238	0.693019
O231	O	0.824414	-0.412371	-0.211410
O232	O	1.324414	0.087629	0.288590
H233	H	0.824805	-0.386357	-0.259121
H234	H	1.324805	0.113643	0.240879
O235	O	0.923509	-0.004134	0.340639
O236	O	1.423509	0.495866	0.840639
H237	H	0.956782	-0.027046	0.299771
H238	H	1.456782	0.472954	0.799771
O239	O	0.724613	0.132857	0.340653
O240	O	1.224613	0.632857	0.840653
H241	H	0.732661	0.127327	0.402413
H242	H	1.232661	0.627327	0.902413
H243	H	0.823578	-0.465562	0.193003
H244	H	1.323578	0.034438	0.693003
H245	H	0.822226	-0.557013	0.192998
H246	H	1.322226	-0.057013	0.692998
O247	O	0.820278	-0.690810	0.142507
O248	O	1.320278	-0.190810	0.642507
H249	H	0.819900	-0.716824	0.190219
H250	H	1.319900	-0.216824	0.690219
O251	O	0.825898	-0.307643	0.211157
O252	O	1.325898	0.192357	0.711157
H253	H	0.825512	-0.333652	0.258874
H254	H	1.325512	0.166348	0.758874
O255	O	0.470290	0.066089	0.142543
O256	O	0.970290	0.566089	0.642543
H257	H	0.413528	0.065586	0.131008
H258	H	0.913528	0.565586	0.631008
H259	H	0.827917	-0.173859	0.124409
H260	H	1.327917	0.326141	0.624409
O261	O	0.923545	-0.004130	0.823817
O262	O	1.423545	0.495870	1.323817
H263	H	0.956820	-0.027038	0.782946
H264	H	1.456820	0.472962	1.282946
H265	H	0.829271	-0.082389	0.124410
H266	H	1.329271	0.417611	0.624410
H267	H	0.910890	0.004574	0.669574
H268	H	1.410890	0.504574	1.169574
O269	O	0.823730	-0.458829	-0.211414
O270	O	1.323730	0.041171	0.288586
H271	H	0.823344	-0.484826	-0.259129
H272	H	1.323344	0.015174	0.240871
O273	O	0.822181	-0.563619	-0.211419
O274	O	1.322181	-0.063619	0.288581
H275	H	0.821590	-0.602912	-0.199883
H276	H	1.321590	-0.102912	0.300117
O277	O	0.621682	0.067421	0.142560
O278	O	1.121682	0.567421	0.642560
H279	H	0.614296	0.034339	0.175481
H280	H	1.114296	0.534339	0.675481
O281	O	0.621786	0.067411	-0.142743
O282	O	1.121786	0.567411	0.357257
H283	H	0.584249	0.067030	-0.190467
H284	H	1.084249	0.567030	0.309533
O285	O	0.724643	0.132859	0.659118
O286	O	1.224643	0.632859	1.159118
H287	H	0.691384	0.155779	0.699989
H288	H	1.191384	0.655779	1.199989
