data_functionalizedCrystal
_audit_creation_method	'MofGen! by Chris Wilmer'
_symmetry_space_group_name_H-M	'P1'
_symmetry_Int_Tables_number	1
_symmetry_cell_setting	triclinic
loop_
_symmetry_equiv_pos_as_xyz
  x,y,z
_cell_length_a	14.853569
_cell_length_b	14.853567
_cell_length_c	13.930277
_cell_angle_alpha	90.000757
_cell_angle_beta	90.005244
_cell_angle_gamma	83.635248
loop_
_atom_site_label
_atom_site_type_symbol
_atom_site_fract_x
_atom_site_fract_y
_atom_site_fract_z
O1	O	1.196368	0.117710	0.079779
O2	O	1.696368	0.617710	0.579779
O3	O	0.933908	0.131730	0.079789
O4	O	1.433908	0.631730	0.579789
O5	O	1.072149	-0.006510	0.079787
O6	O	1.572149	0.493490	0.579787
O7	O	1.058127	0.255950	0.079781
O8	O	1.558127	0.755950	0.579781
O9	O	1.072129	-0.006513	-0.079875
O10	O	1.572129	0.493487	0.420125
O11	O	0.933889	0.131727	-0.079873
O12	O	1.433889	0.631727	0.420127
O13	O	1.196348	0.117707	-0.079883
O14	O	1.696348	0.617707	0.420117
Zn15	Zn	1.065116	0.124717	-0.105228
Zn16	Zn	1.565116	0.624717	0.394772
Zn17	Zn	1.065141	0.124721	0.105134
Zn18	Zn	1.565141	0.624721	0.605134
O19	O	1.058108	0.255947	-0.079881
O20	O	1.558108	0.755947	0.420119
C21	C	0.900310	0.131093	-0.000040
C22	C	1.400310	0.631093	0.499960
C23	C	0.800226	0.129189	-0.000036
C24	C	1.300226	0.629189	0.499964
C25	C	0.763850	0.046178	-0.000031
C26	C	1.263850	0.546178	0.499969
C27	C	0.742560	0.210410	-0.000045
C28	C	1.242560	0.710410	0.499955
C29	C	0.648526	0.208624	-0.000046
C30	C	1.148526	0.708624	0.499954
C31	C	0.612150	0.125613	-0.000041
C32	C	1.112150	0.625613	0.499959
C33	C	0.669807	0.044389	-0.000035
C34	C	1.169807	0.544389	0.499965
C35	C	0.590862	0.289847	-0.000062
C36	C	1.090862	0.789847	0.499938
C37	C	0.496821	0.288064	-0.000064
C38	C	0.996821	0.788064	0.499936
C39	C	0.460443	0.205052	-0.000052
C40	C	0.960443	0.705052	0.499948
C41	C	0.518107	0.123824	-0.000045
C42	C	1.018107	0.623824	0.499955
C43	C	0.481730	0.040813	-0.000040
C44	C	0.981730	0.540813	0.499960
C45	C	0.539393	-0.040415	-0.000026
C46	C	1.039393	0.459585	0.499974
C47	C	0.633429	-0.038623	-0.000023
C48	C	1.133429	0.461377	0.499977
C49	C	0.366407	0.203259	-0.000055
C50	C	0.866407	0.703259	0.499945
C51	C	0.387688	0.039024	-0.000044
C52	C	0.887688	0.539024	0.499956
C53	C	1.071504	-0.040100	-0.000042
C54	C	1.571504	0.459900	0.499958
C55	C	1.069600	-0.140183	-0.000033
C56	C	1.569600	0.359817	0.499967
C57	C	0.979434	-0.552718	-0.000048
C58	C	1.479434	-0.052718	0.499952
C59	C	1.143667	-0.573998	-0.000054
C60	C	1.643667	-0.073998	0.499946
C61	C	1.145457	-0.479964	-0.000049
C62	C	1.645457	0.020036	0.499951
C63	C	1.064234	-0.422303	-0.000044
C64	C	1.564234	0.077697	0.499956
C65	C	0.981222	-0.458675	-0.000045
C66	C	1.481222	0.041325	0.499955
C67	C	1.228468	-0.443585	-0.000058
C68	C	1.728468	0.056415	0.499942
C69	C	1.230262	-0.349545	-0.000053
C70	C	1.730262	0.150455	0.499947
C71	C	1.149038	-0.291882	-0.000042
C72	C	1.649038	0.208118	0.499958
C73	C	1.066022	-0.328260	-0.000041
C74	C	1.566022	0.171740	0.499959
C75	C	0.984800	-0.270599	-0.000037
C76	C	1.484800	0.229401	0.499963
C77	C	0.901783	-0.306974	-0.000030
C78	C	1.401783	0.193026	0.499970
C79	C	0.899998	-0.401012	-0.000034
C80	C	1.399998	0.098988	0.499966
C81	C	1.150822	-0.197845	-0.000038
C82	C	1.650822	0.302155	0.499962
C83	C	0.986587	-0.176556	-0.000034
C84	C	1.486587	0.323444	0.499966
C85	C	1.229947	0.118344	-0.000052
C86	C	1.729947	0.618344	0.499948
C87	C	1.330030	0.120249	-0.000050
C88	C	1.830030	0.620249	0.499950
C89	C	1.058753	0.289537	-0.000050
C90	C	1.558753	0.789537	0.499950
C91	C	1.060657	0.389621	-0.000052
C92	C	1.560657	0.889621	0.499948
N93	N	1.065105	0.124713	-0.248794
N94	N	1.565105	0.624713	0.251206
C95	C	1.003926	0.185909	-0.701062
C96	C	1.503926	0.685909	-0.201062
C97	C	1.126381	0.063525	-0.701034
C98	C	1.626381	0.563525	-0.201034
C99	C	1.126370	0.063522	-0.600538
C100	C	1.626370	0.563522	-0.100538
C101	C	1.065137	0.124715	-0.550300
C102	C	1.565137	0.624715	-0.050300
C103	C	1.003915	0.185910	-0.600557
C104	C	1.503915	0.685910	-0.100557
C105	C	1.187598	0.002334	-0.550273
C106	C	1.687598	0.502334	-0.050273
C107	C	1.187590	0.002330	-0.449771
C108	C	1.687590	0.502330	0.050229
C109	C	1.126352	0.063518	-0.399531
C110	C	1.626352	0.563518	0.100469
C111	C	1.065126	0.124716	-0.449794
C112	C	1.565126	0.624716	0.050206
C113	C	1.003893	0.185908	-0.399556
C114	C	1.503893	0.685908	0.100444
C115	C	0.942663	0.247101	-0.449818
C116	C	1.442663	0.747101	0.050182
C117	C	0.942677	0.247099	-0.550317
C118	C	1.442677	0.747099	-0.050317
C119	C	1.126338	0.063521	-0.299032
C120	C	1.626338	0.563521	0.200968
C121	C	1.003883	0.185909	-0.299051
C122	C	1.503883	0.685909	0.200949
N123	N	1.065159	0.124717	0.248700
N124	N	1.565159	0.624717	0.748700
H125	H	0.772184	0.277994	-0.000056
H126	H	1.272184	0.777994	0.499944
H127	H	0.920445	-0.129613	-0.000026
H128	H	1.420445	0.370387	0.499974
Br129	Br	0.338328	-0.073640	-0.000025
Br130	Br	0.838328	0.426360	0.499975
H131	H	0.954070	0.235730	-0.741987
H132	H	1.454070	0.735730	-0.241987
Br133	Br	0.791556	-0.228709	-0.000036
Br134	Br	1.291556	0.271291	0.499964
H135	H	0.620487	0.357430	-0.000072
H136	H	1.120487	0.857430	0.499928
Br137	Br	1.209489	-0.019511	-0.769210
Br138	Br	1.709489	0.480489	-0.269210
Br139	Br	1.270705	-0.080702	-0.618450
Br140	Br	1.770705	0.419298	-0.118450
Br141	Br	1.270684	-0.080716	-0.381565
Br142	Br	1.770684	0.419284	0.118435
Br143	Br	1.209438	-0.019513	-0.230826
Br144	Br	1.709438	0.480487	0.269174
H145	H	0.509763	-0.108003	-0.000015
H146	H	1.009763	0.391997	0.499985
Br147	Br	0.288156	0.313488	-0.000089
Br148	Br	0.788156	0.813488	0.499911
Br149	Br	0.711688	-0.148851	-0.000013
Br150	Br	1.211688	0.351149	0.499987
Br151	Br	0.866774	-0.602081	-0.000025
Br152	Br	1.366774	-0.102081	0.499975
Br153	Br	0.842100	-0.064056	-0.000007
Br154	Br	1.342100	0.435944	0.499993
Br155	Br	0.787343	-0.450385	-0.000018
Br156	Br	1.287343	0.049615	0.499982
Br157	Br	0.418574	0.398299	-0.000077
Br158	Br	0.918574	0.898299	0.499923
Br159	Br	1.338692	-0.521841	-0.000090
Br160	Br	1.838692	-0.021841	0.499910
H161	H	1.297859	-0.319937	-0.000057
H162	H	1.797859	0.180063	0.499943
Br163	Br	1.263478	-0.148480	-0.000070
Br164	Br	1.763478	0.351520	0.499930
Br165	Br	0.920769	0.268953	-0.230878
Br166	Br	1.420769	0.768953	0.269122
H167	H	1.209794	-0.620951	-0.000066
H168	H	1.709794	-0.120951	0.499934
Br169	Br	0.859572	0.330154	-0.381627
Br170	Br	1.359572	0.830154	0.118373
Br171	Br	0.859586	0.330142	-0.618530
Br172	Br	1.359586	0.830142	-0.118530
