data_functionalizedCrystal
_audit_creation_method	'MofGen! by Chris Wilmer'
_symmetry_space_group_name_H-M	'P1'
_symmetry_Int_Tables_number	1
_symmetry_cell_setting	triclinic
loop_
_symmetry_equiv_pos_as_xyz
  x,y,z
_cell_length_a	18.627255
_cell_length_b	18.627235
_cell_length_c	18.627297
_cell_angle_alpha	59.997377
_cell_angle_beta	90.002727
_cell_angle_gamma	120.000121
loop_
_atom_site_label
_atom_site_type_symbol
_atom_site_fract_x
_atom_site_fract_y
_atom_site_fract_z
O1	O	-0.492477	0.633250	-0.021371
O2	O	-0.388082	0.486240	0.021244
O3	O	-0.388080	0.633244	-0.125764
O4	O	-0.492479	0.486245	0.125637
O5	O	-0.507483	0.513842	-0.125764
O6	O	-0.507484	0.366837	0.021244
O7	O	-0.611879	0.513847	-0.021371
Zn8	Zn	-0.578640	0.421384	-0.000063
Zn9	Zn	-0.421322	0.578703	-0.000064
O10	O	-0.611881	0.366843	0.125637
C11	C	-0.612978	0.644051	-0.031075
C12	C	-0.568679	0.593650	-0.024972
C13	C	-0.569572	0.731060	-0.031685
C14	C	-0.742976	0.644056	-0.031083
C15	C	-0.837672	0.593661	-0.024989
C16	C	-0.699373	0.731065	-0.031693
C17	C	-0.612975	0.774058	-0.031083
C18	C	-0.568673	0.862661	-0.024990
C19	C	-0.699376	0.601255	-0.031685
O20	O	-1.125677	0.366846	0.021233
O21	O	-0.874275	0.513857	-0.021387
O22	O	-1.021262	0.366859	0.125623
O23	O	-0.978690	0.513844	-0.125777
O24	O	-1.021259	0.486267	0.125614
O25	O	-0.874272	0.633265	-0.021396
O26	O	-1.125674	0.486254	0.021225
Zn27	Zn	-0.999973	0.578718	-0.000087
Zn28	Zn	-0.999977	0.421393	-0.000075
O29	O	-0.978687	0.633252	-0.125785
C30	C	-0.386979	0.644041	-0.387063
C31	C	-0.431279	0.593645	-0.431364
C32	C	-0.300580	0.731048	-0.430467
C33	C	-0.386979	0.644041	-0.257063
C34	C	-0.431280	0.593644	-0.162366
C35	C	-0.300580	0.731047	-0.300663
C36	C	-0.256978	0.774042	-0.387062
C37	C	-0.162282	0.862642	-0.431360
C38	C	-0.430383	0.601244	-0.300665
C39	C	-0.256975	0.356050	0.030927
C40	C	-0.162278	0.406449	0.024828
C41	C	-0.300576	0.269045	0.031532
C42	C	-0.386978	0.356045	0.030933
C43	C	-0.431281	0.406439	0.024841
C44	C	-0.430382	0.269041	0.031538
C45	C	-0.386976	0.226049	0.030926
C46	C	-0.431276	0.137450	0.024827
C47	C	-0.300579	0.398844	0.031539
O48	O	-0.507481	1.104443	0.021233
O49	O	-0.611875	0.895660	-0.021386
O50	O	-0.611870	0.895639	0.125623
O51	O	-0.507486	1.104464	-0.125777
O52	O	-0.492463	0.895649	0.125612
O53	O	-0.492468	0.895669	-0.021398
O54	O	-0.388074	1.104453	0.021221
Zn55	Zn	-0.421312	1.000063	-0.000090
Zn56	Zn	-0.578636	1.000050	-0.000075
O57	O	-0.388079	1.104473	-0.125788
O58	O	0.125716	1.104441	-0.492549
O59	O	-0.125682	0.895643	-0.388159
O60	O	0.021315	0.895637	-0.388147
O61	O	-0.021280	1.104447	-0.492561
O62	O	0.021319	0.895641	-0.507550
O63	O	-0.125678	0.895647	-0.507563
O64	O	0.125720	1.104444	-0.611952
Zn65	Zn	0.000022	1.000046	-0.578716
Zn66	Zn	0.000017	1.000042	-0.421396
O67	O	-0.021277	1.104451	-0.611965
O68	O	-0.492484	0.486240	-0.611961
O69	O	-0.388080	0.633245	-0.507567
O70	O	-0.388084	0.486237	-0.507556
O71	O	-0.492480	0.633247	-0.611971
O72	O	-0.507485	0.366837	-0.388154
O73	O	-0.507480	0.513844	-0.388165
O74	O	-0.611885	0.366839	-0.492559
Zn75	Zn	-0.578640	0.421384	-0.421404
Zn76	Zn	-0.421325	0.578699	-0.578721
O77	O	-0.611880	0.513846	-0.492569
C78	C	-0.742985	0.226044	0.386934
C79	C	-0.837681	0.137444	0.431232
C80	C	-0.699384	0.269037	0.430340
C81	C	-0.612983	0.356045	0.256935
C82	C	-0.568682	0.406443	0.162239
C83	C	-0.569580	0.398841	0.300539
C84	C	-0.612985	0.356043	0.386937
C85	C	-0.568686	0.406439	0.431238
C86	C	-0.699382	0.269039	0.300536
C87	C	-1.030899	0.356105	0.386903
C88	C	-1.024793	0.406511	0.431195
C89	C	-1.031495	0.269104	0.430309
C90	C	-1.030927	0.356084	0.256913
C91	C	-1.024852	0.406468	0.162219
C92	C	-1.031523	0.269083	0.300517
C93	C	-1.030896	0.226102	0.386911
C94	C	-1.024788	0.137507	0.431212
C95	C	-1.031526	0.398889	0.300509
C96	C	-0.969048	0.774014	-0.387075
C97	C	-0.975150	0.862613	-0.431378
C98	C	-0.968455	0.731008	-0.430472
C99	C	-0.969023	0.644027	-0.257075
C100	C	-0.975098	0.593643	-0.162382
C101	C	-0.968430	0.601219	-0.300670
C102	C	-0.969057	0.644003	-0.387064
C103	C	-0.975168	0.593594	-0.431355
C104	C	-0.968421	0.731032	-0.300680
C105	C	-0.612953	0.644020	0.386910
C106	C	-0.568648	0.593623	0.431205
C107	C	-0.699351	0.601215	0.430319
C108	C	-0.612962	0.774028	0.256916
C109	C	-0.568666	0.862637	0.162219
C110	C	-0.699360	0.731026	0.300522
C111	C	-0.742957	0.644012	0.386919
C112	C	-0.837654	0.593608	0.431224
C113	C	-0.569553	0.731034	0.300512
O114	O	-0.978554	0.513943	0.611773
O115	O	-1.021177	0.366922	0.507393
O116	O	-0.874169	0.513945	0.507361
O117	O	-1.125562	0.366920	0.611804
O118	O	-0.874197	0.633332	0.387963
O119	O	-1.021205	0.486309	0.387995
O120	O	-0.978583	0.633330	0.492374
Zn121	Zn	-0.999898	0.578775	0.421228
Zn122	Zn	-0.999861	0.421477	0.578540
O123	O	-1.125591	0.486307	0.492406
C124	C	-0.256993	1.356101	-0.387085
C125	C	-0.162296	1.406506	-0.431390
C126	C	-0.300599	1.398898	-0.430484
C127	C	-0.386988	1.226084	-0.257081
C128	C	-0.431283	1.137475	-0.162384
C129	C	-0.430397	1.269078	-0.300677
C130	C	-0.386998	1.356092	-0.387075
C131	C	-0.431303	1.406488	-0.431368
C132	C	-0.300589	1.269087	-0.300687
H133	H	-0.265574	0.767018	-0.265649
C134	C	-0.745943	0.779168	0.253892
C135	C	-0.699168	0.878933	0.229774
C136	C	-0.742061	0.923306	0.186841
H137	H	-0.748977	0.779642	0.202767
H138	H	-0.803735	0.741125	0.292266
H139	H	-0.641391	0.916966	0.191403
H140	H	-0.696131	0.878489	0.280883
H141	H	-0.799853	0.885263	0.225214
H142	H	-0.745093	0.923772	0.135719
H143	H	-0.710335	0.990997	0.170479
C144	C	-0.746153	0.507782	-0.032809
C145	C	-0.821376	0.428248	0.042026
C146	C	-0.864478	0.342126	0.041024
H147	H	-0.762684	0.522816	-0.084021
H148	H	-0.707832	0.488267	-0.033024
H149	H	-0.859690	0.447760	0.042233
H150	H	-0.804870	0.413183	0.093250
H151	H	-0.826158	0.322612	0.040810
H152	H	-0.881004	0.357171	-0.010191
H153	H	-0.915518	0.288150	0.091802
C154	C	-0.967301	0.507746	-0.253973
C155	C	-1.042145	0.428207	-0.249650
C156	C	-1.041141	0.342085	-0.206631
H157	H	-0.916097	0.522776	-0.285544
H158	H	-0.967070	0.488238	-0.196141
H159	H	-1.042368	0.447712	-0.307471
H160	H	-1.093360	0.413146	-0.218073
H161	H	-1.040910	0.322577	-0.148799
H162	H	-0.989934	0.357125	-0.238206
H163	H	-1.091925	0.288105	-0.203685
H164	H	-0.265568	0.233063	0.032513
H165	H	-0.265571	0.468852	0.032522
H166	H	-0.734350	0.531198	0.501308
H167	H	-1.032463	0.233130	0.501297
C168	C	-0.474869	0.492075	0.253897
C169	C	-0.421853	0.469461	0.229757
C170	C	-0.334605	0.555317	0.186809
H171	H	-0.471392	0.546219	0.202780
H172	H	-0.455120	0.511501	0.292267
H173	H	-0.441597	0.450049	0.191389
H174	H	-0.425303	0.415332	0.280858
H175	H	-0.314855	0.574743	0.225179
H176	H	-0.331137	0.609455	0.135695
H177	H	-0.298621	0.539983	0.170431
H178	H	-1.032490	0.468912	0.265497
H179	H	-0.734389	0.233051	0.265533
H180	H	-0.498587	0.766973	0.265483
C181	C	-0.967309	0.778777	-0.525078
C182	C	-1.042134	0.708218	-0.529758
C183	C	-1.041103	0.752180	-0.616893
H184	H	-0.967088	0.836839	-0.544891
H185	H	-0.916075	0.798385	-0.561198
H186	H	-1.093355	0.688625	-0.493651
H187	H	-1.042370	0.650154	-0.509963
H188	H	-0.989868	0.771788	-0.653013
H189	H	-1.040880	0.810241	-0.636698
H190	H	-1.091866	0.704310	-0.620081
H191	H	-0.734388	0.233039	0.501334
H192	H	-0.967436	0.767025	-0.265683
C193	C	-0.253900	1.221175	-0.253905
C194	C	-0.249598	1.220778	-0.178676
C195	C	-0.206590	1.176660	-0.135563
H196	H	-0.285466	1.153434	-0.237376
H197	H	-0.196064	1.259276	-0.292220
H198	H	-0.307424	1.182677	-0.140369
H199	H	-0.218026	1.288507	-0.195181
H200	H	-0.148754	1.214761	-0.173878
H201	H	-0.238161	1.108921	-0.119040
H202	H	-0.203659	1.176393	-0.084521
C203	C	-1.032974	0.220897	0.254002
C204	C	-1.108589	0.121110	0.300806
C205	C	-1.109951	0.076686	0.257992
H206	H	-1.033299	0.258858	0.196196
H207	H	-0.982282	0.220475	0.251030
H208	H	-1.159269	0.121537	0.303767
H209	H	-1.108281	0.083122	0.358610
H210	H	-1.059258	0.076265	0.255020
H211	H	-1.110272	0.114655	0.200187
H212	H	-1.161250	0.008974	0.289746
H213	H	-0.265590	1.468924	-0.501468
C214	C	-0.525109	1.220941	-0.254024
C215	C	-0.578114	1.121170	-0.229888
C216	C	-0.665364	1.076807	-0.186927
H217	H	-0.528584	1.220482	-0.202905
H218	H	-0.544869	1.258981	-0.292386
H219	H	-0.558360	1.083139	-0.191528
H220	H	-0.574665	1.121600	-0.280991
H221	H	-0.685124	1.114848	-0.225289
H222	H	-0.668830	1.076355	-0.135812
H223	H	-0.701340	1.009111	-0.170553
H224	H	-0.265578	0.767029	-0.501456
H225	H	-0.498585	0.767036	-0.032657
C226	C	-0.746019	0.779133	-0.033181
C227	C	-0.770161	0.808000	-0.108814
C228	C	-0.813115	0.852298	-0.110219
H229	H	-0.797134	0.731495	0.017483
H230	H	-0.707653	0.837256	-0.033508
H231	H	-0.808524	0.749885	-0.108479
H232	H	-0.719062	0.855649	-0.159490
H233	H	-0.774750	0.910422	-0.110546
H234	H	-0.864227	0.804654	-0.059552
H235	H	-0.829494	0.871899	-0.161539
H236	H	-0.501364	0.531214	-0.265655
H237	H	-0.501371	0.233060	0.032515
