data_functionalizedCrystal
_audit_creation_method	'MofGen! by Chris Wilmer'
_symmetry_space_group_name_H-M	'P1'
_symmetry_Int_Tables_number	1
_symmetry_cell_setting	triclinic
loop_
_symmetry_equiv_pos_as_xyz
  x,y,z
_cell_length_a	14.519709
_cell_length_b	17.699083
_cell_length_c	13.596369
_cell_angle_alpha	89.999551
_cell_angle_beta	90.004651
_cell_angle_gamma	96.518421
loop_
_atom_site_label
_atom_site_type_symbol
_atom_site_fract_x
_atom_site_fract_y
_atom_site_fract_z
O1	O	-1.223441	0.099215	0.081649
O2	O	-0.723441	0.599215	0.581649
O3	O	-0.954914	0.110899	0.081677
O4	O	-0.454914	0.610899	0.581677
O5	O	-1.096764	-0.005110	0.081672
O6	O	-0.596764	0.494890	0.581672
O7	O	-1.081591	0.215225	0.081654
O8	O	-0.581591	0.715225	0.581654
O9	O	-1.096762	-0.005117	-0.081911
O10	O	-0.596762	0.494883	0.418089
O11	O	-0.954912	0.110892	-0.081906
O12	O	-0.454912	0.610892	0.418094
O13	O	-1.223439	0.099208	-0.081934
O14	O	-0.723439	0.599208	0.418066
Zn15	Zn	-1.089175	0.105049	-0.107892
Zn16	Zn	-0.589175	0.605049	0.392108
Zn17	Zn	-1.089178	0.105058	0.107635
Zn18	Zn	-0.589178	0.605058	0.607635
O19	O	-1.081589	0.215217	-0.081929
O20	O	-0.581589	0.715217	0.418071
C21	C	-0.920556	0.110351	-0.000110
C22	C	-0.420556	0.610351	0.499890
C23	C	-0.818181	0.108719	-0.000099
C24	C	-0.318181	0.608719	0.499901
C25	C	-1.096219	-0.033312	-0.000115
C26	C	-0.596219	0.466688	0.499885
C27	C	-1.094588	-0.117335	-0.000101
C28	C	-0.594588	0.382665	0.499899
C29	C	-1.257797	0.099756	-0.000144
C30	C	-0.757797	0.599756	0.499856
C31	C	-1.360171	0.101388	-0.000149
C32	C	-0.860171	0.601388	0.499851
C33	C	-0.443311	0.102712	-0.000143
C34	C	0.056689	0.602712	0.499857
C35	C	-0.547612	0.104380	-0.000130
C36	C	-0.047612	0.604380	0.499870
C37	C	-0.630743	0.105716	-0.000120
C38	C	-0.130743	0.605716	0.499880
C39	C	-0.735050	0.107384	-0.000109
C40	C	-0.235050	0.607384	0.499891
C41	C	-1.082134	0.243420	-0.000140
C42	C	-0.582134	0.743420	0.499860
C43	C	-1.083765	0.327442	-0.000147
C44	C	-0.583765	0.827442	0.499853
N45	N	-1.089180	0.105042	-0.254984
N46	N	-0.589180	0.605042	0.245016
C47	C	-1.000502	0.375825	-0.000138
C48	C	-0.500502	0.875825	0.499862
C49	C	-1.002040	0.454773	-0.000127
C50	C	-0.502040	0.954773	0.499873
C51	C	-1.086842	0.485336	-0.000131
C52	C	-0.586842	0.985336	0.499869
C53	C	-1.170111	0.436948	-0.000137
C54	C	-0.670111	0.936948	0.499863
C55	C	-1.168572	0.358001	-0.000142
C56	C	-0.668572	0.858001	0.499858
C57	C	-1.176319	0.755328	-0.000118
C58	C	-0.676319	1.255328	0.499882
C59	C	-1.177852	0.834281	-0.000117
C60	C	-0.677852	1.334281	0.499883
C61	C	-1.009787	0.852100	-0.000104
C62	C	-0.509787	1.352100	0.499896
C63	C	-1.008248	0.773154	-0.000108
C64	C	-0.508248	1.273154	0.499892
C65	C	-1.091517	0.724772	-0.000109
C66	C	-0.591517	1.224772	0.499891
C67	C	-1.089848	0.639168	-0.000119
C68	C	-0.589848	1.139168	0.499881
C69	C	-1.088511	0.570939	-0.000128
C70	C	-0.588511	1.070939	0.499872
N71	N	-1.089181	0.105059	0.254727
N72	N	-0.589181	0.605059	0.754727
C73	C	-1.089176	0.105051	0.656018
C74	C	-0.589176	0.605051	1.156018
C75	C	-1.089174	0.105056	0.544367
C76	C	-0.589174	0.605056	1.044367
C77	C	-1.089177	0.105055	0.455376
C78	C	-0.589177	0.605055	0.955376
C79	C	-1.089177	0.105060	0.343718
C80	C	-0.589177	0.605060	0.843718
H81	H	-0.934239	0.494163	-0.000117
H82	H	-0.434239	0.994163	0.499883
H83	H	-1.244122	0.715945	-0.000125
H84	H	-0.744122	1.215945	0.499875
H85	H	-1.239158	0.461838	-0.000143
H86	H	-0.739158	0.961838	0.499857
C87	C	-0.907218	0.342212	-0.000128
C88	C	-0.407218	0.842212	0.499872
H89	H	-0.857851	0.382337	-0.000110
H90	H	-0.357851	0.882337	0.499890
H91	H	-0.903117	0.311786	-0.057171
H92	H	-0.403117	0.811786	0.442829
H93	H	-0.903130	0.311786	0.056926
H94	H	-0.403130	0.811786	0.556926
H95	H	-0.939194	0.748274	-0.000110
H96	H	-0.439194	1.248274	0.499890
C97	C	-1.271136	0.867903	-0.000118
C98	C	-0.771136	1.367903	0.499882
H99	H	-1.260123	0.921850	-0.000127
H100	H	-0.760123	1.421850	0.499873
H101	H	-1.305412	0.851306	0.056925
H102	H	-0.805412	1.351306	0.556925
H103	H	-1.305414	0.851304	-0.057172
H104	H	-0.805414	1.351304	0.442828
C105	C	-0.918192	0.905322	-0.000088
C106	C	-0.418192	1.405322	0.499912
H107	H	-0.931249	0.956717	-0.000074
H108	H	-0.431249	1.456717	0.499926
H109	H	-0.883411	0.896049	-0.057130
H110	H	-0.383411	1.396049	0.442870
H111	H	-0.883415	0.896039	0.056967
H112	H	-0.383415	1.396039	0.556967
H113	H	-1.236373	0.318608	-0.000145
H114	H	-0.736373	0.818608	0.499855
