data_functionalizedCrystal
_audit_creation_method	'MofGen! by Chris Wilmer'
_symmetry_space_group_name_H-M	'P1'
_symmetry_Int_Tables_number	1
_symmetry_cell_setting	triclinic
loop_
_symmetry_equiv_pos_as_xyz
  x,y,z
_cell_length_a	16.109295
_cell_length_b	16.109301
_cell_length_c	15.186229
_cell_angle_alpha	90.000894
_cell_angle_beta	90.000428
_cell_angle_gamma	96.539667
loop_
_atom_site_label
_atom_site_type_symbol
_atom_site_fract_x
_atom_site_fract_y
_atom_site_fract_z
O1	O	-1.103134	0.106844	-0.073159
O2	O	-0.603134	0.606844	0.426841
O3	O	-0.861071	0.120148	-0.073173
O4	O	-0.361071	0.620148	0.426827
O5	O	-0.988752	-0.007535	-0.073171
O6	O	-0.488752	0.492465	0.426829
O7	O	-0.975453	0.234527	-0.073162
O8	O	-0.475453	0.734527	0.426838
O9	O	-0.988743	-0.007537	0.073287
O10	O	-0.488743	0.492463	0.573287
O11	O	-0.861062	0.120146	0.073284
O12	O	-0.361062	0.620146	0.573284
O13	O	-1.103125	0.106842	0.073298
O14	O	-0.603125	0.606842	0.573298
Zn15	Zn	-0.982092	0.113494	0.096544
Zn16	Zn	-0.482092	0.613494	0.596544
Zn17	Zn	-0.982104	0.113496	-0.096420
Zn18	Zn	-0.482104	0.613496	0.403580
O19	O	-0.975444	0.234525	0.073295
O20	O	-0.475444	0.734525	0.573295
C21	C	-0.830092	0.119609	0.000053
C22	C	-0.330092	0.619609	0.500053
C23	C	-0.737796	0.117996	0.000048
C24	C	-0.237796	0.617996	0.500048
N25	N	-0.982091	0.113492	0.228237
N26	N	-0.482091	0.613492	0.728237
C27	C	-0.515523	0.190008	0.000060
C28	C	-0.015523	0.690008	0.500060
C29	C	-0.428803	0.188486	0.000065
C30	C	0.071197	0.688486	0.500065
C31	C	-0.448677	0.036996	0.000056
C32	C	0.051323	0.536996	0.500056
C33	C	-0.535396	0.038520	0.000057
C34	C	-0.035396	0.538520	0.500057
C35	C	-0.568816	0.115028	0.000054
C36	C	-0.068816	0.615028	0.500054
C37	C	-0.395377	0.111982	0.000059
C38	C	0.104623	0.611982	0.500059
C39	C	-0.301351	0.110331	0.000064
C40	C	0.198649	0.610331	0.500064
C41	C	-0.662849	0.116679	0.000050
C42	C	-0.162849	0.616679	0.500050
C43	C	-0.134104	0.107386	0.000068
C44	C	0.365896	0.607386	0.500068
C45	C	-0.226397	0.109014	0.000065
C46	C	0.273603	0.609014	0.500065
C47	C	-0.975987	0.265501	0.000068
C48	C	-0.475987	0.765501	0.500068
C49	C	-0.977602	0.357796	0.000071
C50	C	-0.477602	0.857796	0.500071
C51	C	-0.988209	-0.038511	0.000055
C52	C	-0.488209	0.461489	0.500055
C53	C	-0.986594	-0.130806	0.000046
C54	C	-0.486594	0.369194	0.500046
C55	C	-0.905594	0.580070	0.000054
C56	C	-0.405594	1.080070	0.500054
C57	C	-0.907118	0.666790	0.000048
C58	C	-0.407118	1.166790	0.500048
C59	C	-1.058607	0.646913	0.000060
C60	C	-0.558607	1.146913	0.500060
C61	C	-1.057083	0.560194	0.000060
C62	C	-0.557083	1.060194	0.500060
C63	C	-0.980573	0.526775	0.000062
C64	C	-0.480573	1.026775	0.500062
C65	C	-0.983622	0.700215	0.000055
C66	C	-0.483622	1.200215	0.500055
C67	C	-0.985275	0.794241	0.000048
C68	C	-0.485275	1.294241	0.500048
C69	C	-0.978920	0.432744	0.000067
C70	C	-0.478920	0.932744	0.500067
N71	N	-0.982112	0.113492	-0.228112
N72	N	-0.482112	0.613492	0.271888
C73	C	-1.038647	0.056973	0.453961
C74	C	-0.538647	0.556973	0.953961
C75	C	-1.038650	0.056971	0.546151
C76	C	-0.538650	0.556971	1.046151
C77	C	-0.925549	0.170014	0.546157
C78	C	-0.425549	0.670014	1.046157
C79	C	-0.925543	0.170011	0.453969
C80	C	-0.425543	0.670011	0.953969
C81	C	-0.982097	0.113491	0.407873
C82	C	-0.482097	0.613491	0.907873
C83	C	-0.982106	0.113492	0.592251
C84	C	-0.482106	0.613492	1.092251
C85	C	-0.982108	0.113490	0.692207
C86	C	-0.482108	0.613490	1.192207
C87	C	-0.982094	0.113492	0.307911
C88	C	-0.482094	0.613492	0.807911
H89	H	-0.542731	0.252306	0.000064
H90	H	-0.042731	0.752306	0.500064
H91	H	-0.578790	-0.022542	0.000055
H92	H	-0.078790	0.477458	0.500055
F93	F	-1.136890	0.503470	0.000064
F94	F	-0.636890	1.003470	0.500064
H95	H	-1.084697	0.010947	0.583672
H96	H	-0.584697	0.510947	1.083672
H97	H	-0.385414	0.249542	0.000071
H98	H	0.114586	0.749542	0.500071
F99	F	-0.413101	-0.044424	0.000055
F100	F	0.086899	0.455576	0.500055
F101	F	-1.098834	-0.003183	0.404906
F102	F	-0.598834	0.496817	0.904906
H103	H	-0.843296	0.552864	0.000058
H104	H	-0.343296	1.052864	0.500058
F105	F	-0.827315	0.723507	0.000035
F106	F	-0.327315	1.223507	0.500035
F107	F	-0.865366	0.230165	0.595222
F108	F	-0.365366	0.730165	1.095222
F109	F	-0.865349	0.230166	0.404916
F110	F	-0.365349	0.730166	0.904916
H111	H	-1.120899	0.674134	0.000068
H112	H	-0.620899	1.174134	0.500068
