data_functionalizedCrystal
_audit_creation_method	'MofGen! by Chris Wilmer'
_symmetry_space_group_name_H-M	'P1'
_symmetry_Int_Tables_number	1
_symmetry_cell_setting	triclinic
loop_
_symmetry_equiv_pos_as_xyz
  x,y,z
_cell_length_a	14.560438
_cell_length_b	19.851628
_cell_length_c	14.560438
_cell_angle_alpha	90.003165
_cell_angle_beta	59.997945
_cell_angle_gamma	60.004008
loop_
_atom_site_label
_atom_site_type_symbol
_atom_site_fract_x
_atom_site_fract_y
_atom_site_fract_z
Zr1	Zr	1.005114	0.649067	-0.120403
O2	O	1.196723	0.541518	-0.267066
O3	O	0.813518	0.682025	-0.075445
O4	O	1.005111	0.682042	-0.267046
O5	O	1.005128	0.541501	0.075676
O6	O	1.005093	0.792904	-0.267027
O7	O	1.005130	0.541501	-0.075465
O8	O	0.662369	0.792873	0.075712
O9	O	1.347852	0.541531	-0.267064
O10	O	0.892306	0.778831	-0.056254
O11	O	0.892317	0.696096	0.056527
O12	O	1.117893	0.696116	-0.169059
O13	O	1.117904	0.613381	-0.056278
Zr14	Zr	1.005081	0.825879	0.120679
Zr15	Zr	1.005086	0.825879	-0.120373
Zr16	Zr	1.005110	0.649067	0.120650
Zr17	Zr	1.246147	0.649089	-0.120399
Zr18	Zr	0.764048	0.825858	0.120675
O19	O	1.196677	0.792921	0.075721
O20	O	1.196683	0.792921	-0.267024
O21	O	1.196717	0.541518	0.075679
O22	O	0.813472	0.933429	0.267342
O23	O	0.813478	0.933429	-0.075403
O24	O	0.813513	0.682025	0.267301
O25	O	1.005068	0.933446	-0.075400
O26	O	1.005084	0.792904	0.267322
O27	O	1.005102	0.682043	0.267304
O28	O	1.005065	0.933446	0.075741
O29	O	1.347830	0.682073	-0.267040
O30	O	0.662366	0.792874	0.267317
O31	O	0.662343	0.933415	0.267340
O32	O	0.662346	0.933415	0.075736
O33	O	1.347849	0.541531	-0.075459
O34	O	1.347826	0.682073	-0.075436
O35	O	0.892302	0.778831	0.169335
O36	O	0.892291	0.861566	0.056554
O37	O	1.117878	0.778851	-0.056251
O38	O	1.117889	0.696116	0.056530
C39	C	0.703602	0.737446	0.000133
C40	C	0.601277	0.737437	0.000132
C41	C	1.005133	0.516309	0.000101
C42	C	1.005145	0.441248	0.000089
C43	C	0.469949	0.798526	0.083407
C44	C	0.373769	0.798561	0.083416
C45	C	0.540259	0.676415	-0.083135
C46	C	0.636437	0.676377	-0.083139
C47	C	0.434789	0.859586	0.166678
C48	C	0.303455	0.920680	0.249960
C49	C	0.207274	0.920715	0.249969
C50	C	0.242428	0.859656	0.166696
C51	C	1.128116	0.214803	-0.061379
C52	C	1.066633	0.192436	-0.105948
C53	C	1.005111	0.303841	0.000121
C54	C	1.066602	0.192467	0.044669
C55	C	1.005088	0.171109	0.000152
C56	C	0.943628	0.282463	-0.044509
C57	C	0.943615	0.282491	0.106167
C58	C	0.882042	0.260177	0.061624
C59	C	1.005128	0.380303	0.000101
C60	C	1.005061	0.094652	0.000170
C61	C	1.306594	0.737500	0.000143
C62	C	1.408919	0.737510	0.000145
C63	C	1.005103	0.737473	-0.301381
C64	C	1.005105	0.737473	-0.403714
C65	C	1.005062	0.958638	0.000175
C66	C	1.005050	1.033699	0.000187
C67	C	1.122856	0.694293	-0.510674
C68	C	1.122850	0.694296	-0.606822
C69	C	0.887330	0.780659	-0.489039
C70	C	0.887337	0.780660	-0.392893
C71	C	1.240624	0.651106	-0.521495
C72	C	1.358385	0.607922	-0.628459
C73	C	1.358379	0.607925	-0.724608
C74	C	1.240611	0.651111	-0.713793
C75	C	1.005092	0.737473	0.301658
C76	C	1.005091	0.737474	0.403991
C77	C	0.703566	0.958611	0.000170
C78	C	0.601229	1.033663	0.000181
C79	C	0.703596	0.737446	0.301653
C80	C	0.601270	0.737437	0.403984
C81	C	0.703561	0.958611	0.301690
C82	C	0.601222	1.033663	0.404033
C83	C	1.306634	0.516336	-0.301413
C84	C	1.408973	0.441283	-0.403757
C85	C	1.306629	0.516336	0.000106
C86	C	1.408966	0.441284	0.000095
C87	C	1.306599	0.737500	-0.301377
C88	C	1.408926	0.737509	-0.403708
C89	C	0.553178	1.025721	-0.058709
C90	C	0.457035	1.096234	-0.058721
C91	C	0.408938	1.174687	0.000163
C92	C	0.456998	1.182627	0.059055
C93	C	0.553146	1.112115	0.059060
C94	C	0.553157	1.112102	0.393224
C95	C	0.457012	1.182629	0.489378
C96	C	0.408928	1.174714	0.596339
C97	C	0.457003	1.096266	0.607146
C98	C	0.553152	1.025742	0.510994
C99	C	1.457050	0.362844	-0.392948
C100	C	1.553225	0.292318	-0.489102
C101	C	1.601314	0.300233	-0.596063
C102	C	1.553233	0.378681	-0.606870
C103	C	1.457067	0.449205	-0.510717
C104	C	1.457027	0.449225	0.058975
C105	C	1.553197	0.378713	0.058961
C106	C	1.601297	0.300259	0.000073
C107	C	1.553233	0.292319	-0.058814
C108	C	1.457071	0.362831	-0.058806
C109	C	0.553184	0.780621	0.510945
C110	C	0.457042	0.780606	0.607092
C111	C	0.457077	0.694222	0.489305
C112	C	0.553223	0.694233	0.393160
C113	C	0.601230	0.823825	0.521769
C114	C	0.553143	0.867014	0.628734
C115	C	0.457001	0.866998	0.724881
C116	C	0.408946	0.823795	0.714063
H117	H	0.513094	0.859566	0.166678
F118	F	0.703550	0.823846	0.419446
F119	F	0.604297	0.912983	0.640243
F120	F	0.746023	0.284423	0.129552
H121	H	1.592411	0.228433	-0.106759
H122	H	1.592356	0.228449	-0.480281
H123	H	1.592315	0.385194	0.106918
F124	F	0.875721	0.333213	0.223346
H125	H	1.417943	0.356353	-0.106750
H126	H	0.330671	0.823779	0.792358
F127	F	1.134580	0.141757	0.093898
F128	F	0.604353	0.942232	-0.121390
H129	H	0.417916	1.089753	-0.106678
H130	H	0.417879	1.246498	0.480559
F131	F	1.134583	0.141713	-0.223150
F132	F	1.264056	0.190702	-0.129452
H133	H	0.417942	0.659049	0.480507
H134	H	1.679598	0.242851	0.000075
F135	F	0.604268	1.120580	0.121749
F136	F	1.240611	0.651121	-0.816127
H137	H	0.891680	0.321153	-0.082275
F138	F	0.604405	0.648270	0.279319
H139	H	0.417860	0.902157	0.811973
H140	H	0.274842	0.970388	0.317762
F141	F	1.240640	0.651097	-0.419171
H142	H	0.592275	0.961875	0.519810
F143	F	0.762002	0.826614	-0.477536
H144	H	0.417823	1.246513	0.106996
H145	H	1.592400	0.385115	-0.693969
F146	F	0.067502	0.985730	0.338611
F147	F	0.762012	0.826632	-0.279053
H148	H	1.417923	0.513072	-0.519531
F149	F	0.306595	1.249780	0.698665
H150	H	0.592293	1.118563	0.306140
H151	H	0.417838	1.089834	0.694247
F152	F	0.140059	0.859692	0.166717
H153	H	1.679618	0.242801	-0.674348
F154	F	0.577663	0.611437	-0.171755
F155	F	1.483714	0.561971	-0.639965
H156	H	1.417870	0.513100	0.106936
H157	H	0.743372	0.626622	-0.150934
H158	H	1.454266	0.572769	-0.811699
H159	H	1.417901	0.356384	-0.305864
F160	F	0.306606	1.249726	0.000149
