data_functionalizedCrystal
_audit_creation_method	'MofGen! by Chris Wilmer'
_symmetry_space_group_name_H-M	'P1'
_symmetry_Int_Tables_number	1
_symmetry_cell_setting	triclinic
loop_
_symmetry_equiv_pos_as_xyz
  x,y,z
_cell_length_a	21.395362
_cell_length_b	16.625546
_cell_length_c	16.625539
_cell_angle_alpha	90.028532
_cell_angle_beta	90.036465
_cell_angle_gamma	90.038346
loop_
_atom_site_label
_atom_site_type_symbol
_atom_site_fract_x
_atom_site_fract_y
_atom_site_fract_z
Zn1	Zn	0.957849	-0.320673	0.456315
Zn2	Zn	0.957780	-0.455512	0.321478
Zn3	Zn	0.853078	-0.320734	0.321450
Zn4	Zn	0.853048	-0.455505	0.456222
O5	O	0.905439	-0.388106	0.388866
O6	O	1.045518	-0.338537	0.438479
O7	O	0.943875	-0.437662	0.208642
O8	O	0.867017	-0.207894	0.339368
O9	O	1.045467	-0.437603	0.339415
O10	O	0.943992	-0.207849	0.438453
O11	O	0.866950	-0.338642	0.208621
O12	O	0.765396	-0.338635	0.339277
O13	O	0.866967	-0.437591	0.569067
O14	O	0.765374	-0.437650	0.438293
O15	O	0.943964	-0.338530	0.569135
O16	O	0.943846	-0.568343	0.339324
O17	O	0.866900	-0.568338	0.438320
C18	C	0.742651	-0.388149	0.388773
C19	C	0.673010	-0.388186	0.388752
C20	C	0.640302	-0.439812	0.440232
C21	C	0.574867	-0.439792	0.440268
C22	C	0.542142	-0.388155	0.388809
C23	C	0.574858	-0.336520	0.337325
C24	C	0.640292	-0.336535	0.337296
C25	C	0.438424	-0.381673	0.316222
C26	C	0.372991	-0.381663	0.316249
C27	C	0.340321	-0.388103	0.388898
C28	C	0.373092	-0.394570	0.461523
C29	C	0.438526	-0.394585	0.461494
C30	C	0.471189	-0.388132	0.388835
C31	C	0.236660	-0.439710	0.440422
C32	C	0.171224	-0.439684	0.440459
C33	C	0.171216	-0.336416	0.337509
C34	C	0.236651	-0.336437	0.337479
C35	C	0.269370	-0.388088	0.388934
C36	C	0.905380	-0.597597	0.388832
C37	C	0.905412	-0.687218	0.388845
C38	C	0.905521	-1.015394	0.388929
C39	C	0.905488	-0.924085	0.388908
C40	C	0.905466	-0.851309	0.388887
C41	C	0.905434	-0.759995	0.388866
C42	C	1.068862	-0.388064	0.388961
C43	C	1.138503	-0.388046	0.389001
C44	C	0.905470	-0.388053	0.599175
C45	C	0.905483	-0.388030	0.688796
C46	C	0.905515	-0.177797	0.388918
C47	C	0.905548	-0.088176	0.388940
C48	C	0.905444	-0.388101	0.179375
C49	C	0.905553	-0.387896	0.089755
C50	C	0.905493	-0.388012	0.761579
C51	C	0.905508	-0.387982	0.852887
C52	C	0.905522	-0.387954	0.925664
C53	C	0.905538	-0.387925	1.016978
H54	H	0.465018	-0.376425	0.257058
O55	O	0.470331	-0.400717	0.532070
C56	C	0.454409	-0.335633	0.582433
H57	H	0.436424	-0.283621	0.544245
H58	H	0.416450	-0.355248	0.626349
C59	C	0.534680	-0.372180	0.676609
C60	C	0.512595	-0.308296	0.629706
H61	H	0.570571	-0.355319	0.705772
H62	H	0.545406	-0.416031	0.642681
H63	H	0.503042	-0.388521	0.713199
H64	H	0.544231	-0.291964	0.593110
H65	H	0.501877	-0.264442	0.663629
O66	O	0.543142	-0.286401	0.287223
C67	C	0.559051	-0.303935	0.206822
H68	H	0.606539	-0.334939	0.205078
H69	H	0.522177	-0.345345	0.179604
C70	C	0.503766	-0.187187	0.160263
C71	C	0.562094	-0.225261	0.158121
H72	H	0.505640	-0.138659	0.130220
H73	H	0.493045	-0.175375	0.214430
H74	H	0.473044	-0.221704	0.137582
H75	H	0.592813	-0.190748	0.180811
H76	H	0.572820	-0.237065	0.103957
O77	O	0.341232	-0.375486	0.245642
C78	C	0.357135	-0.440584	0.195288
H79	H	0.404641	-0.465437	0.213870
H80	H	0.320280	-0.489797	0.201048
C81	C	0.301769	-0.381115	0.084578
C82	C	0.360119	-0.411636	0.107397
H83	H	0.303607	-0.363261	0.030362
H84	H	0.291052	-0.337259	0.118503
H85	H	0.271063	-0.422132	0.089384
H86	H	0.390822	-0.370616	0.102600
H87	H	0.370841	-0.455485	0.073468
H88	H	0.263301	-0.481763	0.482324
H89	H	0.666922	-0.294493	0.295375
H90	H	0.666937	-0.481869	0.482132
H91	H	0.144594	-0.481723	0.482386
O92	O	0.543182	-0.490016	0.490308
C93	C	0.586091	-0.535587	0.535736
H94	H	0.632709	-0.538353	0.502686
H95	H	0.593118	-0.506140	0.597023
C96	C	0.503244	-0.618010	0.587811
C97	C	0.560499	-0.621414	0.547214
H98	H	0.487457	-0.670951	0.594894
H99	H	0.474334	-0.587307	0.557207
H100	H	0.509107	-0.593468	0.638878
H101	H	0.554633	-0.645947	0.496144
H102	H	0.589407	-0.652124	0.577809
H103	H	0.346494	-0.399812	0.520681
H104	H	0.144572	-0.294368	0.295614
O105	O	0.268331	-0.286267	0.287388
C106	C	0.225418	-0.240671	0.241991
H107	H	0.178750	-0.273681	0.239159
H108	H	0.218522	-0.179470	0.271631
C109	C	0.308217	-0.188399	0.159663
C110	C	0.250900	-0.228947	0.156180
H111	H	0.323936	-0.181163	0.106732
H112	H	0.337129	-0.219116	0.190250
H113	H	0.302463	-0.137403	0.184367
H114	H	0.256656	-0.279945	0.131485
H115	H	0.221990	-0.198238	0.125586
