data_functionalizedCrystal
_audit_creation_method	'MofGen! by Chris Wilmer'
_symmetry_space_group_name_H-M	'P1'
_symmetry_Int_Tables_number	1
_symmetry_cell_setting	triclinic
loop_
_symmetry_equiv_pos_as_xyz
  x,y,z
_cell_length_a	10.868271
_cell_length_b	10.654550
_cell_length_c	11.792241
_cell_angle_alpha	95.660827
_cell_angle_beta	90.005281
_cell_angle_gamma	89.998935
loop_
_atom_site_label
_atom_site_type_symbol
_atom_site_fract_x
_atom_site_fract_y
_atom_site_fract_z
O1	O	0.102231	-1.667390	0.159421
O2	O	0.602231	-1.167390	0.659421
O3	O	0.102254	-1.301868	0.174609
O4	O	0.602254	-0.801868	0.674609
O5	O	0.102233	-1.493499	0.001865
O6	O	0.602233	-0.993499	0.501865
O7	O	0.102251	-1.475759	0.332165
O8	O	0.602251	-0.975759	0.832165
O9	O	-0.102412	-1.493483	0.001858
O10	O	0.397588	-0.993483	0.501858
O11	O	-0.102391	-1.301853	0.174602
O12	O	0.397609	-0.801853	0.674602
O13	O	-0.102414	-1.667374	0.159414
O14	O	0.397586	-1.167374	0.659414
Zn15	Zn	-0.134894	-1.484611	0.167007
Zn16	Zn	0.365106	-0.984611	0.667007
Zn17	Zn	0.134734	-1.484632	0.167016
Zn18	Zn	0.634734	-0.984632	0.667016
O19	O	-0.102393	-1.475743	0.332158
O20	O	0.397607	-0.975743	0.832158
C21	C	-0.000066	-1.255066	0.173491
C22	C	0.499934	-0.755066	0.673491
C23	C	-0.000057	-1.115632	0.170154
C24	C	0.499943	-0.615632	0.670154
N25	N	-0.318908	-1.484606	0.167000
N26	N	0.181092	-0.984606	0.667000
C27	C	-0.000089	-1.492377	-0.040432
C28	C	0.499911	-0.992377	0.459568
C29	C	-0.000087	-1.489042	-0.166453
C30	C	0.499913	-0.989042	0.333547
C31	C	-0.569914	-1.484625	0.167014
C32	C	-0.069914	-0.984625	0.667014
C33	C	-0.430237	-1.484610	0.167009
C34	C	0.069763	-0.984610	0.667009
N35	N	0.318748	-1.484647	0.167014
N36	N	0.818748	-0.984647	0.667014
C37	C	-0.000091	-1.714177	0.160533
C38	C	0.499909	-1.214177	0.660533
C39	C	-0.000092	-1.853611	0.163869
C40	C	0.499908	-1.353611	0.663869
C41	C	-0.000055	-1.035859	0.271863
C42	C	0.499945	-0.535859	0.771863
C43	C	-0.000077	-0.904847	0.268721
C44	C	0.499923	-0.404847	0.768721
C45	C	-0.000098	-0.933394	0.062152
C46	C	0.499902	-0.433394	0.562152
C47	C	-0.000085	-1.064403	0.065295
C48	C	0.499915	-0.564403	0.565295
C49	C	-0.000066	-1.482908	-0.397180
C50	C	0.499934	-0.982908	0.102820
C51	C	-0.000078	-1.486316	-0.268787
C52	C	0.499922	-0.986316	0.231213
C53	C	-0.000069	-1.476865	0.374455
C54	C	0.499931	-0.976865	0.874455
C55	C	-0.000062	-1.480201	0.500477
C56	C	0.499938	-0.980201	1.000477
H57	H	-0.000042	-1.077564	0.357246
H58	H	0.499958	-0.577564	0.857246
H59	H	-0.000078	-0.839900	0.351543
H60	H	0.499922	-0.339900	0.851543
H61	H	-0.000127	-0.891668	-0.023220
H62	H	0.499873	-0.391668	0.476780
H63	H	-0.000090	-1.129359	-0.017534
H64	H	0.499910	-0.629359	0.482466
