data_functionalizedCrystal
_audit_creation_method	'MofGen! by Chris Wilmer'
_symmetry_space_group_name_H-M	'P1'
_symmetry_Int_Tables_number	1
_symmetry_cell_setting	triclinic
loop_
_symmetry_equiv_pos_as_xyz
  x,y,z
_cell_length_a	21.295417
_cell_length_b	17.077404
_cell_length_c	17.077396
_cell_angle_alpha	90.019501
_cell_angle_beta	89.966808
_cell_angle_gamma	89.969268
loop_
_atom_site_label
_atom_site_type_symbol
_atom_site_fract_x
_atom_site_fract_y
_atom_site_fract_z
Zn1	Zn	-0.250605	-1.200013	-0.443817
Zn2	Zn	-0.355878	-1.199903	-0.312540
Zn3	Zn	-0.250628	-1.068745	-0.312565
Zn4	Zn	-0.355841	-1.068695	-0.443764
O5	O	-0.303238	-1.134339	-0.378171
O6	O	-0.264577	-1.309845	-0.426415
O7	O	-0.341942	-1.182479	-0.202697
O8	O	-0.162535	-1.086225	-0.330008
O9	O	-0.341920	-1.309764	-0.329966
O10	O	-0.162519	-1.182667	-0.426439
O11	O	-0.264614	-1.086118	-0.202715
O12	O	-0.264578	-0.958891	-0.329957
O13	O	-0.341857	-1.086140	-0.553618
O14	O	-0.341878	-0.958855	-0.426348
O15	O	-0.264540	-1.182619	-0.553657
O16	O	-0.443963	-1.182431	-0.329915
O17	O	-0.443935	-1.086033	-0.426324
C18	C	-0.303227	-0.930391	-0.378150
C19	C	-0.303237	-0.843141	-0.378159
C20	C	-0.466790	-1.134236	-0.378128
C21	C	-0.536758	-1.134264	-0.378136
C22	C	-0.303192	-1.134386	-0.582916
C23	C	-0.303172	-1.134407	-0.670166
C24	C	-0.569618	-1.184503	-0.327987
C25	C	-0.635360	-1.184539	-0.328004
C26	C	-0.668240	-1.134323	-0.378163
C27	C	-0.635372	-1.084081	-0.428321
C28	C	-0.569631	-1.084051	-0.428308
N29	N	-0.771506	-1.065655	-0.384140
N30	N	-0.833958	-1.065685	-0.384148
C31	C	-0.866315	-1.134411	-0.378208
N32	N	-0.833862	-1.203107	-0.372244
N33	N	-0.771405	-1.203076	-0.372231
C34	C	-0.739526	-1.134351	-0.378183
C35	C	-0.970461	-1.184694	-0.328075
C36	C	-1.036204	-1.184732	-0.328098
C37	C	-1.036215	-1.084267	-0.428411
C38	C	-0.970473	-1.084236	-0.428392
C39	C	-0.937599	-1.134449	-0.378220
C40	C	-0.139048	-1.134464	-0.378232
C41	C	-0.069080	-1.134517	-0.378258
C42	C	-0.303250	-1.339083	-0.378194
C43	C	-0.303255	-1.426333	-0.378203
C44	C	-0.343548	-0.802153	-0.428270
C45	C	-0.343549	-0.720172	-0.428282
C46	C	-0.303242	-0.679182	-0.378180
C47	C	-0.262927	-0.720176	-0.328067
C48	C	-0.262923	-0.802155	-0.328059
C49	C	-0.262940	-0.549306	-0.328086
C50	C	-0.262944	-0.467322	-0.328093
C51	C	-0.343566	-0.467323	-0.428309
C52	C	-0.343562	-0.549302	-0.428301
C53	C	-0.303247	-0.590291	-0.378187
C54	C	-0.262910	-1.184645	-0.711177
C55	C	-0.262889	-1.184654	-0.793158
C56	C	-0.303134	-1.134429	-0.834125
C57	C	-0.343397	-1.084185	-0.793108
C58	C	-0.343415	-1.084172	-0.711129
C59	C	-0.343360	-1.084217	-0.963978
C60	C	-0.343343	-1.084231	-1.045963
C61	C	-0.262834	-1.184699	-1.046007
C62	C	-0.262851	-1.184686	-0.964028
C63	C	-0.303116	-1.134443	-0.923016
C64	C	-0.303239	-1.134337	-0.174224
C65	C	-0.303081	-1.134469	-0.086974
H66	H	-0.662120	-1.225453	-0.287167
H67	H	-0.662147	-1.043196	-0.469162
H68	H	-0.542876	-1.043140	-0.469146
H69	H	-1.062985	-1.043384	-0.469255
O70	O	-0.938620	-1.233545	-0.279319
C71	C	-0.945547	-1.333156	-0.179788
C72	C	-0.981681	-1.277888	-0.234978
H73	H	-0.980345	-1.369010	-0.143912
H74	H	-0.914730	-1.374218	-0.215816
H75	H	-0.914806	-1.297109	-0.138736
H76	H	-1.012456	-1.313872	-0.276041
H77	H	-1.012458	-1.236824	-0.198901
H78	H	-0.376138	-1.043291	-0.930589
H79	H	-0.230084	-1.225588	-0.930675
H80	H	-0.376113	-1.043331	-1.079316
O81	O	-0.938646	-1.035351	-0.477125
C82	C	-0.945597	-0.935738	-0.576651
C83	C	-0.981718	-0.991048	-0.521484
H84	H	-0.980404	-0.899917	-0.612542
H85	H	-0.914888	-0.894649	-0.540602
H86	H	-0.914749	-0.971750	-0.617689
H87	H	-1.012599	-0.955100	-0.480435
H88	H	-1.012387	-1.032140	-0.557582
H89	H	-1.062958	-1.225648	-0.287263
O90	O	-0.223738	-0.427429	-0.279551
C91	C	-0.138689	-0.334988	-0.269261
C92	C	-0.183074	-0.380095	-0.324313
H93	H	-0.105792	-0.296720	-0.305429
H94	H	-0.167486	-0.296508	-0.228145
H95	H	-0.109900	-0.378394	-0.233446
H96	H	-0.211872	-0.336746	-0.360179
H97	H	-0.154240	-0.418587	-0.365377
H98	H	-0.376372	-0.835521	-0.469066
H99	H	-0.376194	-1.043255	-0.677738
O100	O	-0.223628	-1.233464	-1.085751
C101	C	-0.116543	-1.271627	-1.110900
C102	C	-0.160870	-1.216363	-1.065827
H103	H	-0.065794	-1.257809	-1.094821
H104	H	-0.127556	-1.334924	-1.094773
H105	H	-0.123468	-1.263025	-1.176527
H106	H	-0.153970	-1.224895	-1.000190
H107	H	-0.149846	-1.153087	-1.082019
H108	H	-0.230106	-0.582677	-0.287285
O109	O	-0.223855	-0.842062	-0.279341
C110	C	-0.215276	-0.934546	-0.173343
C111	C	-0.259594	-0.889414	-0.228477
H112	H	-0.244154	-0.972828	-0.132195
H113	H	-0.182407	-0.973014	-0.209414
H114	H	-0.186454	-0.891156	-0.137569
H115	H	-0.288457	-0.932748	-0.264264
H116	H	-0.292422	-0.850935	-0.192362
H117	H	-0.376163	-1.043288	-0.826470
H118	H	-0.376375	-0.686803	-0.469086
H119	H	-0.376386	-0.582674	-0.469094
H120	H	-0.376389	-0.433946	-0.469116
O121	O	-0.223861	-0.680323	-0.279317
C122	C	-0.215283	-0.587686	-0.173401
C123	C	-0.259597	-0.632782	-0.228549
H124	H	-0.244158	-0.549225	-0.132352
H125	H	-0.186479	-0.631028	-0.137527
H126	H	-0.182397	-0.549375	-0.209541
H127	H	-0.292522	-0.671094	-0.192470
H128	H	-0.288358	-0.589398	-0.264426
H129	H	-0.542854	-1.225390	-0.287136
H130	H	-0.230140	-1.225547	-0.677828
H131	H	-0.230105	-1.225565	-0.826546
