data_functionalizedCrystal
_audit_creation_method	'MofGen! by Chris Wilmer'
_symmetry_space_group_name_H-M	'P1'
_symmetry_Int_Tables_number	1
_symmetry_cell_setting	triclinic
loop_
_symmetry_equiv_pos_as_xyz
  x,y,z
_cell_length_a	29.839125
_cell_length_b	16.120530
_cell_length_c	16.120484
_cell_angle_alpha	90.167327
_cell_angle_beta	87.117439
_cell_angle_gamma	92.908554
loop_
_atom_site_label
_atom_site_type_symbol
_atom_site_fract_x
_atom_site_fract_y
_atom_site_fract_z
Zn1	Zn	-0.299056	-1.254394	0.395737
Zn2	Zn	-0.227530	-1.247256	0.534766
Zn3	Zn	-0.219950	-1.115354	0.388670
Zn4	Zn	-0.298644	-1.108246	0.527690
O5	O	-0.261295	-1.181313	0.461716
O6	O	-0.292912	-1.369812	0.420099
O7	O	-0.163657	-1.229747	0.515389
O8	O	-0.227444	-1.139760	0.273243
O9	O	-0.240362	-1.364568	0.522242
O10	O	-0.285562	-1.241912	0.278435
O11	O	-0.158088	-1.132839	0.408053
O12	O	-0.227045	-0.998047	0.401192
O13	O	-0.361566	-1.127645	0.510183
O14	O	-0.284861	-0.992824	0.503330
O15	O	-0.361868	-1.235019	0.413238
O16	O	-0.239964	-1.222854	0.650192
O17	O	-0.292211	-1.120724	0.644993
C18	C	-0.255086	-0.965264	0.450727
C19	C	-0.252441	-0.872836	0.446046
C20	C	-0.266876	-1.170266	0.677766
C21	C	-0.269281	-1.165616	0.770197
C22	C	-0.378474	-1.181335	0.461710
C23	C	-0.428409	-1.181345	0.461707
C24	C	-0.738210	-1.237318	0.411091
C25	C	-0.925883	-1.237363	0.411022
O26	O	-0.950283	-1.284887	0.368062
N27	N	-0.949191	-1.181467	0.461490
C28	C	-0.925579	-1.125552	0.511974
O29	O	-0.949710	-1.078004	0.554892
C30	C	-0.737907	-1.125504	0.512038
C31	C	-0.714601	-1.181409	0.461573
C32	C	-0.714905	-1.293218	0.360630
C33	C	-0.667989	-1.293209	0.360651
C34	C	-0.644380	-1.237300	0.411133
C35	C	-0.667686	-1.181400	0.461594
C36	C	-0.714295	-1.069586	0.562517
C37	C	-0.667374	-1.069577	0.562527
C38	C	-0.644068	-1.125482	0.512062
C39	C	-0.597161	-1.125483	0.512098
N40	N	-0.573853	-1.181379	0.461630
C41	C	-0.597462	-1.237288	0.411148
C42	C	-1.024109	-1.125582	0.511938
C43	C	-1.071027	-1.125595	0.511924
C44	C	-1.071328	-1.237405	0.410970
C45	C	-1.024409	-1.237396	0.410990
C46	C	-1.000801	-1.181478	0.461471
C47	C	-0.498937	-1.237266	0.411197
C48	C	-0.452018	-1.237254	0.411225
C49	C	-0.451721	-1.125442	0.512174
C50	C	-0.498636	-1.125455	0.512150
C51	C	-0.522243	-1.181371	0.461654
O52	O	-0.572733	-1.077977	0.555028
O53	O	-0.573322	-1.284816	0.368223
C54	C	-0.785126	-1.237327	0.411070
C55	C	-0.808431	-1.181427	0.461531
C56	C	-0.784822	-1.125518	0.512013
C57	C	-0.855349	-1.181439	0.461516
C58	C	-0.878958	-1.237348	0.411034
C59	C	-0.855650	-1.293244	0.360567
C60	C	-0.808735	-1.293236	0.360588
C61	C	-0.808130	-1.069622	0.562481
C62	C	-0.855046	-1.069636	0.562456
C63	C	-0.878655	-1.125544	0.511974
C64	C	-0.144572	-1.181341	0.461665
C65	C	-0.094636	-1.181504	0.461441
C66	C	-0.267528	-1.398205	0.472748
C67	C	-0.270185	-1.490632	0.477450
C68	C	-0.247616	-0.703610	0.437480
C69	C	-0.275009	-0.659853	0.486013
C70	C	-0.272324	-0.565690	0.481247
C71	C	-0.250300	-0.797782	0.442245
C72	C	-0.255703	-1.192425	0.244824
C73	C	-0.253320	-1.197161	0.152397
C74	C	-0.273680	-1.157131	0.939430
C75	C	-0.248922	-1.205643	0.983169
C76	C	-0.251370	-1.200922	1.077336
C77	C	-0.271233	-1.161851	0.845254
H78	H	-0.433045	-1.282782	0.370130
H79	H	-0.225887	-1.250720	0.949894
H80	H	-1.004891	-1.080048	0.553051
O81	O	-0.301118	-1.103372	0.979248
C82	C	-0.297486	-1.110579	1.065766
H83	H	-0.263913	-1.137289	1.078912
H84	H	-0.299554	-1.046660	1.095743
H85	H	-0.326053	-1.153612	1.092605
O86	O	-0.305414	-0.699616	0.539746
C87	C	-0.334666	-0.752282	0.494984
H88	H	-0.317612	-0.768404	0.432559
H89	H	-0.343239	-0.811675	0.531908
H90	H	-0.366800	-0.719356	0.484289
O91	O	-0.645332	-1.347573	0.311734
C92	C	-0.620942	-1.398848	0.361786
H93	H	-0.636919	-1.400666	0.427538
H94	H	-0.621464	-1.464371	0.334937
H95	H	-0.584722	-1.372969	0.363357
H96	H	-0.222149	-0.670355	0.392355
H97	H	-0.518152	-1.282794	0.370075
H98	H	-1.090559	-1.282929	0.369866
O99	O	-0.737767	-1.347614	0.311567
C100	C	-0.707125	-1.396927	0.267023
H101	H	-0.674646	-1.398036	0.301247
H102	H	-0.722326	-1.462908	0.261484
H103	H	-0.699627	-1.369715	0.202319
H104	H	-1.005437	-1.282917	0.369896
O105	O	-1.093593	-1.071215	0.560975
C106	C	-1.062688	-1.021883	0.605545
H107	H	-1.028281	-1.020747	0.571345
H108	H	-1.074588	-0.955913	0.611079
H109	H	-1.060206	-1.049097	0.670250
H110	H	-0.733262	-1.024061	0.603611
H111	H	-0.648153	-1.024033	0.603626
H112	H	-0.432490	-1.079924	0.553278
O113	O	-0.521235	-1.071191	0.561290
C114	C	-0.512452	-1.085127	0.645102
H115	H	-0.479352	-1.117001	0.648474
H116	H	-0.510088	-1.023201	0.679334
H117	H	-0.540815	-1.126446	0.675269
O118	O	-0.786167	-1.347569	0.311485
C119	C	-0.817075	-1.396924	0.266945
H120	H	-0.849464	-1.363012	0.262330
H121	H	-0.802084	-1.409150	0.201881
H122	H	-0.824669	-1.458520	0.300607
H123	H	-0.874017	-1.024112	0.603559
O124	O	-0.878603	-1.347439	0.311430
C125	C	-0.902998	-1.302842	0.255325
H126	H	-0.886840	-1.237612	0.246867
H127	H	-0.902743	-1.336190	0.192857
H128	H	-0.939138	-1.298660	0.280880
O129	O	-0.785271	-1.015278	0.611598
C130	C	-0.815908	-0.965934	0.656114
H131	H	-0.850404	-0.999861	0.660704
H132	H	-0.803798	-0.953702	0.721188
H133	H	-0.818296	-0.904342	0.622447
