data_functionalizedCrystal
_audit_creation_method	'MofGen! by Chris Wilmer'
_symmetry_space_group_name_H-M	'P1'
_symmetry_Int_Tables_number	1
_symmetry_cell_setting	triclinic
loop_
_symmetry_equiv_pos_as_xyz
  x,y,z
_cell_length_a	25.639243
_cell_length_b	25.639240
_cell_length_c	13.897441
_cell_angle_alpha	90.041488
_cell_angle_beta	90.024451
_cell_angle_gamma	90.035481
loop_
_atom_site_label
_atom_site_type_symbol
_atom_site_fract_x
_atom_site_fract_y
_atom_site_fract_z
Zn1	Zn	0.799290	-0.208096	0.545404
Zn2	Zn	1.132624	0.125237	0.878737
Zn3	Zn	1.465957	0.458571	1.212071
Zn4	Zn	0.799210	-0.295539	0.384075
Zn5	Zn	1.132543	0.037795	0.717408
Zn6	Zn	1.465877	0.371128	1.050741
Zn7	Zn	0.711854	-0.208123	0.384112
Zn8	Zn	1.045187	0.125210	0.717445
Zn9	Zn	1.378520	0.458543	1.050778
Zn10	Zn	0.711821	-0.295506	0.545317
Zn11	Zn	1.045154	0.037827	0.878650
Zn12	Zn	1.378488	0.371160	1.211983
O13	O	0.755544	-0.251816	0.464727
O14	O	1.088877	0.081517	0.798060
O15	O	1.422210	0.414851	1.131393
O16	O	0.872445	-0.219698	0.524024
O17	O	1.205778	0.113636	0.857357
O18	O	1.539112	0.446969	1.190691
O19	O	0.787602	-0.283968	0.249098
O20	O	1.120935	0.049366	0.582431
O21	O	1.454269	0.382699	0.915764
O22	O	0.723500	-0.134954	0.405560
O23	O	1.056833	0.198379	0.738893
O24	O	1.390167	0.531712	1.072226
O25	O	0.872386	-0.283941	0.405496
O26	O	1.205719	0.049392	0.738830
O27	O	1.539053	0.382725	1.072163
O28	O	0.787739	-0.134934	0.524060
O29	O	1.121073	0.198399	0.857394
O30	O	1.454406	0.531732	1.190727
O31	O	0.723422	-0.219744	0.249125
O32	O	1.056755	0.113589	0.582458
O33	O	1.390089	0.446923	0.915792
O34	O	0.638684	-0.219713	0.405475
O35	O	0.972018	0.113621	0.738808
O36	O	1.305351	0.446954	1.072142
O37	O	0.723444	-0.283887	0.680310
O38	O	1.056777	0.049447	1.013643
O39	O	1.390111	0.382780	1.346977
O40	O	0.638660	-0.283913	0.523912
O41	O	0.971993	0.049421	0.857245
O42	O	1.305327	0.382754	1.190578
O43	O	0.787707	-0.219666	0.680374
O44	O	1.121041	0.113667	1.013707
O45	O	1.454374	0.447000	1.347041
O46	O	0.787570	-0.368700	0.405412
O47	O	1.120904	-0.035366	0.738745
O48	O	1.454237	0.297967	1.072078
O49	O	0.723366	-0.368676	0.523876
O50	O	1.056699	-0.035343	0.857209
O51	O	1.390032	0.297991	1.190542
C52	C	0.619701	-0.251813	0.464689
C53	C	0.953035	0.081521	0.798022
C54	C	1.286368	0.414854	1.131355
C55	C	0.561587	-0.251824	0.464695
C56	C	0.894921	0.081510	0.798028
C57	C	1.228254	0.414843	1.131362
C58	C	0.201249	-0.218417	0.526547
C59	C	0.534583	0.114916	0.859880
C60	C	0.867916	0.448250	1.193214
C61	C	0.146645	-0.218417	0.526553
C62	C	0.479978	0.114917	0.859886
C63	C	0.813312	0.448250	1.193220
O64	O	0.118430	-0.190003	0.579094
O65	O	0.451763	0.143330	0.912428
O66	O	0.785096	0.476663	1.245761
N67	N	0.119305	-0.251815	0.464753
N68	N	0.452638	0.081519	0.798087
N69	N	0.785971	0.414852	1.131420
C70	C	0.146572	-0.285212	0.402936
C71	C	0.479905	0.048122	0.736270
C72	C	0.813238	0.381455	1.069603
O73	O	0.118303	-0.313619	0.350371
O74	O	0.451636	0.019715	0.683704
O75	O	0.784969	0.353048	1.017037
C76	C	0.201175	-0.285209	0.402926
C77	C	0.534508	0.048124	0.736260
C78	C	0.867842	0.381458	1.069593
C79	C	0.228512	-0.251812	0.464737
C80	C	0.561846	0.081521	0.798071
C81	C	0.895179	0.414854	1.131404
C82	C	0.228587	-0.185023	0.588352
C83	C	0.561920	0.148311	0.921685
C84	C	0.895254	0.481644	1.255019
C85	C	0.283187	-0.185024	0.588347
C86	C	0.616521	0.148309	0.921680
C87	C	0.949854	0.481643	1.255014
C88	C	0.310450	-0.218420	0.526537
C89	C	0.643784	0.114914	0.859871
C90	C	0.977117	0.448247	1.193204
C91	C	0.283113	-0.251814	0.464732
C92	C	0.616446	0.081520	0.798066
C93	C	0.949780	0.414853	1.131399
C94	C	0.228441	-0.318603	0.341105
C95	C	0.561774	0.014731	0.674439
C96	C	0.895107	0.348064	1.007772
C97	C	0.283048	-0.318597	0.341100
C98	C	0.616381	0.014736	0.674434
C99	C	0.949714	0.348070	1.007767
C100	C	0.310385	-0.285201	0.402911
C101	C	0.643719	0.048133	0.736244
C102	C	0.977052	0.381466	1.069578
C103	C	0.364976	-0.285210	0.402917
C104	C	0.698310	0.048123	0.736251
C105	C	1.031643	0.381456	1.069584
N106	N	0.392317	-0.251812	0.464717
N107	N	0.725650	0.081521	0.798050
N108	N	1.058983	0.414854	1.131384
C109	C	0.365054	-0.218417	0.526527
C110	C	0.698387	0.114916	0.859860
C111	C	1.031720	0.448250	1.193194
C112	C	0.031901	-0.285214	0.402961
C113	C	0.365234	0.048120	0.736295
C114	C	0.698568	0.381453	1.069628
C115	C	-0.022701	-0.285219	0.402976
C116	C	0.310632	0.048114	0.736309
C117	C	0.643965	0.381447	1.069642
C118	C	-0.022624	-0.218424	0.526591
C119	C	0.310709	0.114910	0.859924
C120	C	0.644042	0.448243	1.193258
C121	C	0.031979	-0.218421	0.526581
C122	C	0.365312	0.114912	0.859914
C123	C	0.698646	0.448246	1.193248
C124	C	0.059241	-0.251816	0.464761
C125	C	0.392575	0.081518	0.798094
C126	C	0.725908	0.414851	1.131428
C127	C	0.479719	-0.218422	0.526513
C128	C	0.813052	0.114911	0.859846
C129	C	1.146385	0.448244	1.193179
C130	C	0.534324	-0.218428	0.526505
C131	C	0.867658	0.114905	0.859838
C132	C	1.200991	0.448238	1.193172
C133	C	0.534242	-0.285222	0.402886
C134	C	0.867576	0.048112	0.736220
C135	C	1.200909	0.381445	1.069553
C136	C	0.479642	-0.285218	0.402897
C137	C	0.812975	0.048115	0.736230
C138	C	1.146308	0.381448	1.069564
C139	C	0.452381	-0.251814	0.464713
C140	C	0.785715	0.081519	0.798047
C141	C	1.119048	0.414852	1.131380
O142	O	0.393226	-0.313608	0.350400
O143	O	0.726560	0.019726	0.683733
O144	O	1.059893	0.353059	1.017067
O145	O	0.393329	-0.190010	0.579075
O146	O	0.726663	0.143324	0.912408
O147	O	1.059996	0.476657	1.245742
C148	C	0.755470	-0.387659	0.464651
C149	C	1.088803	-0.054325	0.797985
C150	C	1.422137	0.279008	1.131318
C151	C	0.755486	-0.445773	0.464651
C152	C	1.088819	-0.112439	0.797984
C153	C	1.422153	0.220894	1.131318
C154	C	0.789010	-0.806087	0.526541
C155	C	1.122343	-0.472754	0.859875
C156	C	1.455677	-0.139420	1.193208
C157	C	0.789025	-0.860691	0.526561
C158	C	1.122359	-0.527358	0.859894
C159	C	1.455692	-0.194025	1.193228
O160	O	0.817440	-0.888886	0.579105
O161	O	1.150774	-0.555553	0.912438
O162	O	1.484107	-0.222220	1.245771
N163	N	0.755616	-0.888055	0.464820
N164	N	1.088950	-0.554722	0.798153
N165	N	1.422283	-0.221388	1.131487
C166	C	0.722186	-0.860812	0.403062
C167	C	1.055519	-0.527479	0.736396
C168	C	1.388853	-0.194145	1.069729
O169	O	0.693770	-0.889101	0.350549
O170	O	1.027104	-0.555768	0.683883
O171	O	1.360437	-0.222434	1.017216
C172	C	0.722168	-0.806209	0.403048
C173	C	1.055502	-0.472875	0.736382
C174	C	1.388835	-0.139542	1.069715
C175	C	0.755583	-0.778848	0.464786
C176	C	1.088917	-0.445514	0.798120
C177	C	1.422250	-0.112181	1.131453
C178	C	0.822422	-0.778726	0.588275
C179	C	1.155755	-0.445392	0.921609
C180	C	1.489088	-0.112059	1.254942
C181	C	0.822407	-0.724125	0.588254
C182	C	1.155740	-0.390792	0.921587
C183	C	1.489073	-0.057459	1.254921
C184	C	0.788980	-0.696886	0.526499
C185	C	1.122313	-0.363553	0.859832
C186	C	1.455647	-0.030219	1.193166
C187	C	0.755568	-0.724247	0.464765
C188	C	1.088902	-0.390914	0.798099
C189	C	1.422235	-0.057580	1.131432
C190	C	0.688736	-0.778966	0.341296
C191	C	1.022069	-0.445633	0.674630
C192	C	1.355403	-0.112300	1.007963
C193	C	0.688721	-0.724359	0.341288
C194	C	1.022054	-0.391026	0.674621
C195	C	1.355388	-0.057693	1.007955
C196	C	0.722136	-0.696998	0.403026
C197	C	1.055469	-0.363665	0.736359
C198	C	1.388802	-0.030332	1.069693
C199	C	0.722127	-0.642407	0.402989
C200	C	1.055460	-0.309074	0.736323
C201	C	1.388794	0.024260	1.069656
N202	N	0.755536	-0.615043	0.464730
N203	N	1.088869	-0.281710	0.798063
N204	N	1.422203	0.051624	1.131397
C205	C	0.788962	-0.642283	0.526485
C206	C	1.122296	-0.308949	0.859818
C207	C	1.455629	0.024384	1.193152
C208	C	0.722225	-0.975483	0.403098
C209	C	1.055558	-0.642149	0.736431
C210	C	1.388892	-0.308816	1.069764
C211	C	0.722245	-1.030085	0.403106
C212	C	1.055578	-0.696751	0.736439
C213	C	1.388912	-0.363418	1.069773
C214	C	0.789084	-1.029960	0.526606
C215	C	1.122417	-0.696627	0.859940
C216	C	1.455750	-0.363294	1.193273
C217	C	0.789066	-0.975357	0.526592
C218	C	1.122399	-0.642024	0.859926
C219	C	1.455733	-0.308690	1.193259
C220	C	0.755634	-0.948119	0.464839
C221	C	1.088967	-0.614785	0.798172
C222	C	1.422301	-0.281452	1.131505
C223	C	0.788929	-0.527617	0.526435
C224	C	1.122262	-0.194284	0.859769
C225	C	1.455596	0.139049	1.193102
C226	C	0.788913	-0.473012	0.526406
C227	C	1.122246	-0.139679	0.859739
C228	C	1.455579	0.193655	1.193073
C229	C	0.722072	-0.473141	0.402910
C230	C	1.055406	-0.139808	0.736243
C231	C	1.388739	0.193525	1.069577
C232	C	0.722090	-0.527742	0.402935
C233	C	1.055424	-0.194409	0.736269
C234	C	1.388757	0.138925	1.069602
C235	C	0.755520	-0.554979	0.464706
C236	C	1.088854	-0.221645	0.798039
C237	C	1.422187	0.111688	1.131373
O238	O	0.693725	-0.614177	0.350475
O239	O	1.027058	-0.280844	0.683809
O240	O	1.360391	0.052490	1.017142
O241	O	0.817369	-0.613987	0.578998
O242	O	1.150702	-0.280653	0.912332
O243	O	1.484035	0.052680	1.245665
C244	C	0.891917	-0.251820	0.464766
C245	C	1.225250	0.081513	0.798099
C246	C	1.558583	0.414847	1.131432
C247	C	0.950031	-0.251822	0.464782
C248	C	1.283364	0.081512	0.798116
C249	C	1.616697	0.414845	1.131449
C250	C	0.755581	-0.251770	0.716320
C251	C	1.088914	0.081563	1.049653
C252	C	1.422248	0.414897	1.382987
C253	C	0.755597	-0.251750	0.823534
C254	C	1.088930	0.081583	1.156867
C255	C	1.422263	0.414916	1.490201
C256	C	0.755632	-0.115443	0.464824
C257	C	1.088966	0.217890	0.798157
C258	C	1.422299	0.551224	1.131490
C259	C	0.755670	-0.057329	0.464865
C260	C	1.089003	0.276004	0.798198
C261	C	1.422337	0.609338	1.131532
C262	C	0.755537	-0.251824	0.214112
C263	C	1.088870	0.081509	0.547446
C264	C	1.422204	0.414842	0.880779
C265	C	0.755622	-0.251697	0.106899
C266	C	1.088956	0.081637	0.440232
C267	C	1.422289	0.414970	0.773566
C268	C	0.755611	-0.251715	1.019829
C269	C	1.088944	0.081618	1.353163
C270	C	1.422278	0.414952	1.686496
C271	C	0.755601	-0.251736	0.910597
C272	C	1.088935	0.081597	1.243930
C273	C	1.422268	0.414931	1.577263
H274	H	0.556580	-0.191232	0.576842
H275	H	0.889913	0.142101	0.910175
H276	H	1.223247	0.475434	1.243509
F277	F	0.824659	-1.058960	0.592333
F278	F	1.157992	-0.725627	0.925666
F279	F	1.491326	-0.392293	1.259000
F280	F	0.450714	-0.182870	0.592304
F281	F	0.784047	0.150463	0.925638
F282	F	1.117381	0.483797	1.258971
H283	H	0.305441	-0.157828	0.638678
H284	H	0.638774	0.175505	0.972012
H285	H	0.972107	0.508838	1.305345
H286	H	0.849614	-0.701851	0.638529
H287	H	1.182948	-0.368518	0.971863
H288	H	1.516281	-0.035184	1.305196
F289	F	0.858000	-0.807708	0.654013
F290	F	1.191333	-0.474374	0.987346
F291	F	1.524667	-0.141041	1.320680
H292	H	0.054094	-0.312412	0.352623
H293	H	0.387428	0.020921	0.685956
H294	H	0.720761	0.354254	1.019289
H295	H	-0.044955	-0.312420	0.352654
H296	H	0.288378	0.020913	0.685987
H297	H	0.621712	0.354247	1.019320
F298	F	0.199358	-0.354141	0.275302
F299	F	0.532691	-0.020807	0.608635
F300	F	0.866025	0.312526	0.941969
H301	H	0.206395	-0.157825	0.638685
H302	H	0.539728	0.175508	0.972019
H303	H	0.873062	0.508841	1.305352
H304	H	0.054234	-0.191225	0.576911
H305	H	0.387567	0.142108	0.910244
H306	H	0.720900	0.475441	1.243577
H307	H	-0.044832	-0.191230	0.576918
H308	H	0.288502	0.142104	0.910251
H309	H	0.621835	0.475437	1.243584
H310	H	0.457382	-0.312418	0.352577
H311	H	0.790716	0.020915	0.685910
H312	H	1.124049	0.354248	1.019243
H313	H	0.695041	-1.052358	0.352822
H314	H	1.028374	-0.719024	0.686156
H315	H	1.361708	-0.385691	1.019489
F316	F	0.312059	-0.354142	0.275302
F317	F	0.645392	-0.020809	0.608635
F318	F	0.978726	0.312525	0.941969
H319	H	0.556450	-0.312413	0.352564
H320	H	0.889783	0.020921	0.685897
H321	H	1.223116	0.354254	1.019231
F322	F	0.824480	-0.443895	0.592117
F323	F	1.157813	-0.110562	0.925451
F324	F	1.491146	0.222771	1.258784
H325	H	0.816147	-0.549787	0.576742
H326	H	1.149481	-0.216454	0.910075
H327	H	1.482814	0.116880	1.243408
F328	F	0.653169	-0.808074	0.275587
F329	F	0.986503	-0.474741	0.608921
F330	F	1.319836	-0.141408	0.942254
H331	H	0.816275	-0.953083	0.576865
H332	H	1.149608	-0.619749	0.910198
H333	H	1.482942	-0.286416	1.243532
F334	F	0.686643	-0.946498	0.337361
F335	F	1.019976	-0.613165	0.670694
F336	F	1.353310	-0.279831	1.004028
F337	F	0.653137	-0.695373	0.275560
F338	F	0.986470	-0.362040	0.608893
F339	F	1.319803	-0.028707	0.942227
F340	F	0.686533	-0.556863	0.337215
F341	F	1.019867	-0.223529	0.670549
F342	F	1.353200	0.109804	1.003882
H343	H	0.694858	-0.450955	0.352627
H344	H	1.028192	-0.117621	0.685960
H345	H	1.361525	0.215712	1.019293
