data_functionalizedCrystal
_audit_creation_method	'MofGen! by Chris Wilmer'
_symmetry_space_group_name_H-M	'P1'
_symmetry_Int_Tables_number	1
_symmetry_cell_setting	triclinic
loop_
_symmetry_equiv_pos_as_xyz
  x,y,z
_cell_length_a	12.827893
_cell_length_b	14.908520
_cell_length_c	14.908854
_cell_angle_alpha	89.778335
_cell_angle_beta	93.280202
_cell_angle_gamma	93.320575
loop_
_atom_site_label
_atom_site_type_symbol
_atom_site_fract_x
_atom_site_fract_y
_atom_site_fract_z
Zn1	Zn	1.540281	-0.328613	-0.529007
Zn2	Zn	1.538996	-0.487666	-0.387321
Zn3	Zn	1.374993	-0.337325	-0.378670
Zn4	Zn	1.354862	-0.478933	-0.537634
O5	O	1.452283	-0.408134	-0.458158
O6	O	1.686346	-0.349721	-0.510222
O7	O	1.525128	-0.475025	-0.260350
O8	O	1.405881	-0.210342	-0.391382
O9	O	1.685402	-0.466577	-0.406126
O10	O	1.527318	-0.203942	-0.501834
O11	O	1.404635	-0.364570	-0.253994
O12	O	1.226088	-0.356101	-0.399747
O13	O	1.371571	-0.451691	-0.662313
O14	O	1.211298	-0.460139	-0.516537
O15	O	1.507798	-0.341252	-0.655975
O16	O	1.505608	-0.612335	-0.414491
O17	O	1.370326	-0.605919	-0.524925
C18	C	1.180776	-0.408118	-0.458140
C19	C	1.064621	-0.408132	-0.458155
C20	C	1.005544	-0.459703	-0.515867
C21	C	0.885492	-0.459718	-0.515884
C22	C	1.435670	-0.641751	-0.471602
C23	C	1.428657	-0.741692	-0.477384
C24	C	1.556479	-0.936106	-0.373346
C25	C	1.549893	-1.030009	-0.378775
C26	C	1.408904	-1.023403	-0.493676
C27	C	1.415490	-0.929500	-0.488247
C28	C	1.489279	-0.885855	-0.428079
C29	C	1.495860	-0.791950	-0.422645
C30	C	1.354876	-0.785345	-0.537550
C31	C	1.348290	-0.879249	-0.542980
C32	C	1.724851	-0.408152	-0.458177
C33	C	1.841003	-0.408159	-0.458185
C34	C	1.437583	-0.394526	-0.692681
C35	C	1.431318	-0.388727	-0.792621
C36	C	1.468988	-0.173604	-0.444681
C37	C	1.476107	-0.073661	-0.438937
C38	C	1.545040	-0.492844	-0.987038
C39	C	1.539157	-0.487398	-1.080940
C40	C	1.413676	-0.372385	-1.074330
C41	C	1.419559	-0.377831	-0.980427
C42	C	1.485242	-0.438063	-0.936785
C43	C	1.491118	-0.443513	-0.842881
C44	C	1.365643	-0.328496	-0.836271
C45	C	1.359761	-0.323050	-0.930174
C46	C	1.466991	-0.421625	-0.224544
C47	C	1.473476	-0.427171	-0.124590
H48	H	1.616554	-0.900570	-0.324348
H49	H	1.288216	-0.914797	-0.591970
O50	O	0.818246	-0.518205	-0.581341
H51	H	0.734505	-0.509033	-0.571088
H52	H	1.306286	-0.274009	-0.965720
H53	H	1.300155	-0.744420	-0.582115
H54	H	1.043845	-0.503841	-0.565267
H55	H	0.891773	-0.364007	-0.408770
H56	H	1.026320	-0.363987	-0.408761
H57	H	1.360207	-0.323341	-1.109879
H58	H	1.544606	-0.492553	-0.807349
O59	O	1.615884	-0.557802	-0.939962
H60	H	1.591814	-0.627327	-0.962041
O61	O	1.622366	-1.084214	-0.319738
H62	H	1.674773	-1.038085	-0.276984
H63	H	1.555939	-0.756416	-0.373651
H64	H	1.348836	-1.058955	-0.542668
O65	O	1.603636	-0.546494	-1.135147
H66	H	1.650285	-0.589297	-1.089021
H67	H	1.316950	-0.283891	-0.795345
