data_functionalizedCrystal
_audit_creation_method	'MofGen! by Chris Wilmer'
_symmetry_space_group_name_H-M	'P1'
_symmetry_Int_Tables_number	1
_symmetry_cell_setting	triclinic
loop_
_symmetry_equiv_pos_as_xyz
  x,y,z
_cell_length_a	17.699083
_cell_length_b	26.809956
_cell_length_c	27.731996
_cell_angle_alpha	90.001656
_cell_angle_beta	97.047798
_cell_angle_gamma	89.997648
loop_
_atom_site_label
_atom_site_type_symbol
_atom_site_fract_x
_atom_site_fract_y
_atom_site_fract_z
O1	O	-1.003525	0.041411	0.061120
O2	O	-0.753525	0.291411	0.311120
O3	O	-0.503525	0.541411	0.561120
O4	O	-0.253525	0.791411	0.811120
O5	O	-0.783074	0.041430	0.069073
O6	O	-0.533074	0.291430	0.319073
O7	O	-0.283074	0.541430	0.569073
O8	O	-0.033074	0.791430	0.819073
O9	O	-0.900167	0.041409	-0.005277
O10	O	-0.650167	0.291409	0.244723
O11	O	-0.400167	0.541409	0.494723
O12	O	-0.150167	0.791409	0.744723
O13	O	-0.886432	0.041432	0.135471
O14	O	-0.636432	0.291432	0.385471
O15	O	-0.386432	0.541432	0.635471
O16	O	-0.136432	0.791432	0.885471
O17	O	-0.900145	-0.041550	-0.005266
O18	O	-0.650145	0.208450	0.244734
O19	O	-0.400145	0.458450	0.494734
O20	O	-0.150145	0.708450	0.744734
O21	O	-0.783052	-0.041530	0.069085
O22	O	-0.533052	0.208470	0.319085
O23	O	-0.283052	0.458470	0.569085
O24	O	-0.033052	0.708470	0.819085
O25	O	-1.003503	-0.041548	0.061132
O26	O	-0.753503	0.208452	0.311132
O27	O	-0.503503	0.458452	0.561132
O28	O	-0.253503	0.708452	0.811132
Zn29	Zn	-0.893274	-0.054710	0.065110
Zn30	Zn	-0.643274	0.195290	0.315110
Zn31	Zn	-0.393274	0.445290	0.565110
Zn32	Zn	-0.143274	0.695290	0.815110
Zn33	Zn	-0.893303	0.054592	0.065095
Zn34	Zn	-0.643303	0.304592	0.315095
Zn35	Zn	-0.393303	0.554592	0.565095
Zn36	Zn	-0.143303	0.804592	0.815095
O37	O	-0.886410	-0.041527	0.135482
O38	O	-0.636410	0.208473	0.385482
O39	O	-0.386410	0.458473	0.635482
O40	O	-0.136410	0.708473	0.885482
C41	C	-0.754869	-0.000048	0.068794
C42	C	-0.504869	0.249952	0.318794
C43	C	-0.254869	0.499952	0.568794
C44	C	-0.004869	0.749952	0.818794
C45	C	-0.670858	-0.000041	0.067939
C46	C	-0.420858	0.249959	0.317939
C47	C	-0.170858	0.499959	0.567939
C48	C	0.079142	0.749959	0.817939
N49	N	-0.893260	-0.129306	0.065120
N50	N	-0.643260	0.120694	0.315120
N51	N	-0.393260	0.370694	0.565120
N52	N	-0.143260	0.620694	0.815120
C53	C	-0.621840	-0.000034	0.111581
C54	C	-0.371840	0.249966	0.361581
C55	C	-0.121840	0.499966	0.611581
C56	C	0.128160	0.749966	0.861581
C57	C	-0.542904	-0.000040	0.110775
C58	C	-0.292904	0.249960	0.360775
C59	C	-0.042904	0.499960	0.610775
C60	C	0.207096	0.749960	0.860775
C61	C	-0.512988	-0.000050	0.066326
C62	C	-0.262988	0.249950	0.316326
C63	C	-0.012988	0.499950	0.566326
C64	C	0.237012	0.749950	0.816326
C65	C	-0.562013	-0.000059	0.022681
C66	C	-0.312013	0.249941	0.272681
C67	C	-0.062013	0.499941	0.522681
C68	C	0.187987	0.749941	0.772681
C69	C	-0.640947	-0.000056	0.023488
C70	C	-0.390947	0.249944	0.273488
C71	C	-0.140947	0.499944	0.523488
C72	C	0.109053	0.749944	0.773488
C73	C	-0.243679	-0.000070	0.019427
C74	C	0.006321	0.249930	0.269427
C75	C	0.256321	0.499930	0.519427
C76	C	0.506321	0.749930	0.769427
C77	C	-0.164739	-0.000071	0.018623
C78	C	0.085261	0.249929	0.268623
C79	C	0.335261	0.499929	0.518623
C80	C	0.585261	0.749929	0.768623
C81	C	-0.145636	-0.000054	0.106714
C82	C	0.104364	0.249946	0.356714
C83	C	0.354364	0.499946	0.606714
C84	C	0.604364	0.749946	0.856714
C85	C	-0.224571	-0.000052	0.107521
C86	C	0.025429	0.249948	0.357521
C87	C	0.275429	0.499948	0.607521
C88	C	0.525429	0.749948	0.857521
C89	C	-0.273588	-0.000063	0.063876
C90	C	-0.023588	0.249937	0.313876
C91	C	0.226412	0.499937	0.563876
C92	C	0.476412	0.749937	0.813876
C93	C	-0.359180	-0.000057	0.064750
C94	C	-0.109180	0.249943	0.314750
C95	C	0.140820	0.499943	0.564750
C96	C	0.390820	0.749943	0.814750
C97	C	-0.427398	-0.000052	0.065451
C98	C	-0.177398	0.249948	0.315451
C99	C	0.072602	0.499948	0.565451
C100	C	0.322602	0.749948	0.815451
C101	C	-0.945145	-0.473941	0.032181
C102	C	-0.695145	-0.223941	0.282181
C103	C	-0.445145	0.026059	0.532181
C104	C	-0.195145	0.276059	0.782181
C105	C	-0.945163	-0.682819	0.032174
C106	C	-0.695163	-0.432819	0.282174
C107	C	-0.445163	-0.182819	0.532174
C108	C	-0.195163	0.067181	0.782174
O109	O	-0.989247	-0.709831	0.004171
O110	O	-0.739247	-0.459831	0.254171
O111	O	-0.489247	-0.209831	0.504171
O112	O	-0.239247	0.040169	0.754171
N113	N	-0.893307	-0.708933	0.065085
N114	N	-0.643307	-0.458933	0.315085
N115	N	-0.393307	-0.208933	0.565085
N116	N	-0.143307	0.041067	0.815085
C117	C	-0.841440	-0.682825	0.097997
C118	C	-0.591440	-0.432825	0.347997
C119	C	-0.341440	-0.182825	0.597997
C120	C	-0.091440	0.067175	0.847997
O121	O	-0.797329	-0.709830	0.125987
O122	O	-0.547329	-0.459830	0.375987
O123	O	-0.297329	-0.209830	0.625987
O124	O	-0.047329	0.040170	0.875987
C125	C	-0.841419	-0.473948	0.098002
C126	C	-0.591419	-0.223948	0.348002
C127	C	-0.341419	0.026052	0.598002
C128	C	-0.091419	0.276052	0.848002
C129	C	-0.893283	-0.447837	0.065092
C130	C	-0.643283	-0.197837	0.315092
C131	C	-0.393283	0.052163	0.565092
C132	C	-0.143283	0.302163	0.815092
C133	C	-0.997005	-0.447830	-0.000727
C134	C	-0.747005	-0.197830	0.249273
C135	C	-0.497005	0.052170	0.499273
C136	C	-0.247005	0.302170	0.749273
C137	C	-0.997002	-0.395614	-0.000723
C138	C	-0.747002	-0.145614	0.249277
C139	C	-0.497002	0.104386	0.499277
C140	C	-0.247002	0.354386	0.749277
C141	C	-0.945140	-0.369509	0.032189
C142	C	-0.695140	-0.119509	0.282189
C143	C	-0.445140	0.130491	0.532189
C144	C	-0.195140	0.380491	0.782189
C145	C	-0.893281	-0.395620	0.065096
C146	C	-0.643281	-0.145620	0.315096
C147	C	-0.393281	0.104380	0.565096
C148	C	-0.143281	0.354380	0.815096
C149	C	-0.789549	-0.447841	0.130912
C150	C	-0.539549	-0.197841	0.380912
C151	C	-0.289549	0.052159	0.630912
C152	C	-0.039549	0.302159	0.880912
C153	C	-0.789547	-0.395618	0.130910
C154	C	-0.539547	-0.145618	0.380910
C155	C	-0.289547	0.104382	0.630910
C156	C	-0.039547	0.354382	0.880910
C157	C	-0.841411	-0.369507	0.098000
C158	C	-0.591411	-0.119507	0.348000
C159	C	-0.341411	0.130493	0.598000
C160	C	-0.091411	0.380493	0.848000
C161	C	-0.841417	-0.317300	0.098012
C162	C	-0.591417	-0.067300	0.348012
C163	C	-0.341417	0.182700	0.598012
C164	C	-0.091417	0.432700	0.848012
N165	N	-0.893273	-0.291185	0.065101
N166	N	-0.643273	-0.041185	0.315101
N167	N	-0.393273	0.208815	0.565101
N168	N	-0.143273	0.458815	0.815101
C169	C	-0.945135	-0.317290	0.032189
C170	C	-0.695135	-0.067290	0.282189
C171	C	-0.445135	0.182710	0.532189
C172	C	-0.195135	0.432710	0.782189
C173	C	-0.841456	-0.792488	0.097993
C174	C	-0.591456	-0.542488	0.347993
C175	C	-0.341456	-0.292488	0.597993
C176	C	-0.091456	-0.042488	0.847993
C177	C	-0.841462	-0.844707	0.097993
C178	C	-0.591462	-0.594707	0.347993
C179	C	-0.341462	-0.344707	0.597993
C180	C	-0.091462	-0.094707	0.847993
C181	C	-0.945184	-0.844698	0.032168
C182	C	-0.695184	-0.594698	0.282168
C183	C	-0.445184	-0.344698	0.532168
C184	C	-0.195184	-0.094698	0.782168
C185	C	-0.945181	-0.792478	0.032171
C186	C	-0.695181	-0.542478	0.282171
C187	C	-0.445181	-0.292478	0.532171
C188	C	-0.195181	-0.042478	0.782171
C189	C	-0.893311	-0.766374	0.065082
C190	C	-0.643311	-0.516374	0.315082
C191	C	-0.393311	-0.266374	0.565082
C192	C	-0.143311	-0.016374	0.815082
C193	C	-0.945126	-0.207632	0.032200
C194	C	-0.695126	0.042368	0.282200
C195	C	-0.445126	0.292368	0.532200
C196	C	-0.195126	0.542368	0.782200
C197	C	-0.945121	-0.155411	0.032209
C198	C	-0.695121	0.094589	0.282209
C199	C	-0.445121	0.344589	0.532209
C200	C	-0.195121	0.594589	0.782209
C201	C	-0.841397	-0.155425	0.098031
C202	C	-0.591397	0.094575	0.348031
C203	C	-0.341397	0.344575	0.598031
C204	C	-0.091397	0.594575	0.848031
C205	C	-0.841404	-0.207641	0.098025
C206	C	-0.591404	0.042359	0.348025
C207	C	-0.341404	0.292359	0.598025
C208	C	-0.091404	0.542359	0.848025
C209	C	-0.893272	-0.233744	0.065106
C210	C	-0.643272	0.016256	0.315106
C211	C	-0.393272	0.266256	0.565106
C212	C	-0.143272	0.516256	0.815106
O213	O	-0.797350	-0.290256	0.125996
O214	O	-0.547350	-0.040256	0.375996
O215	O	-0.297350	0.209744	0.625996
O216	O	-0.047350	0.459744	0.875996
O217	O	-0.989228	-0.290276	0.004197
O218	O	-0.739228	-0.040276	0.254197
O219	O	-0.489228	0.209724	0.504197
O220	O	-0.239228	0.459724	0.754197
C221	C	-0.945147	-0.526158	0.032177
C222	C	-0.695147	-0.276158	0.282177
C223	C	-0.445147	-0.026158	0.532177
C224	C	-0.195147	0.223842	0.782177
C225	C	-0.893288	-0.552269	0.065084
C226	C	-0.643288	-0.302269	0.315084
C227	C	-0.393288	-0.052269	0.565084
C228	C	-0.143288	0.197731	0.815084
C229	C	-0.841426	-0.526165	0.097996
C230	C	-0.591426	-0.276165	0.347996
C231	C	-0.341426	-0.026165	0.597996
C232	C	-0.091426	0.223835	0.847996
C233	C	-0.893294	-0.604488	0.065084
C234	C	-0.643294	-0.354488	0.315084
C235	C	-0.393294	-0.104488	0.565084
C236	C	-0.143294	0.145512	0.815084
C237	C	-0.945156	-0.630593	0.032173
C238	C	-0.695156	-0.380593	0.282173
C239	C	-0.445156	-0.130593	0.532173
C240	C	-0.195156	0.119407	0.782173
C241	C	-0.997011	-0.604479	-0.000738
C242	C	-0.747011	-0.354479	0.249262
C243	C	-0.497011	-0.104479	0.499262
C244	C	-0.247011	0.145521	0.749262
C245	C	-0.997009	-0.552262	-0.000734
C246	C	-0.747009	-0.302262	0.249266
C247	C	-0.497009	-0.052262	0.499266
C248	C	-0.247009	0.197738	0.749266
C249	C	-0.789570	-0.552279	0.130907
C250	C	-0.539570	-0.302279	0.380907
C251	C	-0.289570	-0.052279	0.630907
C252	C	-0.039570	0.197721	0.880907
C253	C	-0.789578	-0.604495	0.130901
C254	C	-0.539578	-0.354495	0.380901
C255	C	-0.289578	-0.104495	0.630901
C256	C	-0.039578	0.145505	0.880901
C257	C	-0.841439	-0.630600	0.097989
C258	C	-0.591439	-0.380600	0.347989
C259	C	-0.341439	-0.130600	0.597989
C260	C	-0.091439	0.119400	0.847989
C261	C	-0.031708	-0.000068	0.061411
C262	C	0.218292	0.249932	0.311411
C263	C	0.468292	0.499932	0.561411
C264	C	0.718292	0.749932	0.811411
C265	C	-0.115719	-0.000068	0.062266
C266	C	0.134281	0.249932	0.312266
C267	C	0.384281	0.499932	0.562266
C268	C	0.634281	0.749932	0.812266
C269	C	-0.899874	-0.000072	-0.023280
C270	C	-0.649874	0.249928	0.226720
C271	C	-0.399874	0.499928	0.476720
C272	C	-0.149874	0.749928	0.726720
C273	C	-0.899024	-0.000077	-0.076939
C274	C	-0.649024	0.249923	0.173061
C275	C	-0.399024	0.499923	0.423061
C276	C	-0.149024	0.749923	0.673061
N277	N	-0.893323	0.129188	0.065081
N278	N	-0.643323	0.379188	0.315081
N279	N	-0.393323	0.629188	0.565081
N280	N	-0.143323	0.879188	0.815081
C281	C	-0.893689	0.045169	-0.409681
C282	C	-0.643689	0.295169	-0.159681
C283	C	-0.393689	0.545169	0.090319
C284	C	-0.143689	0.795169	0.340319
C285	C	-0.890462	0.045178	-0.611350
C286	C	-0.640462	0.295178	-0.361350
C287	C	-0.390462	0.545178	-0.111350
C288	C	-0.140462	0.795178	0.138650
O289	O	-0.890023	0.083637	-0.637428
O290	O	-0.640023	0.333637	-0.387428
O291	O	-0.390023	0.583637	-0.137428
O292	O	-0.140023	0.833637	0.112572
N293	N	-0.890049	-0.000043	-0.636563
N294	N	-0.640049	0.249957	-0.386563
N295	N	-0.390049	0.499957	-0.136563
N296	N	-0.140049	0.749957	0.113437
C297	C	-0.890438	-0.045269	-0.611354
C298	C	-0.640438	0.204731	-0.361354
C299	C	-0.390438	0.454731	-0.111354
C300	C	-0.140438	0.704731	0.138646
O301	O	-0.890005	-0.083732	-0.637426
O302	O	-0.640005	0.166268	-0.387426
O303	O	-0.390005	0.416268	-0.137426
O304	O	-0.140005	0.666268	0.112574
C305	C	-0.893660	-0.045278	-0.409685
C306	C	-0.643660	0.204722	-0.159685
C307	C	-0.393660	0.454722	0.090315
C308	C	-0.143660	0.704722	0.340315
C309	C	-0.894080	-0.000054	-0.384476
C310	C	-0.644080	0.249946	-0.134476
C311	C	-0.394080	0.499946	0.115524
C312	C	-0.144080	0.749946	0.365524
C313	C	-0.894109	0.090389	-0.384471
C314	C	-0.644109	0.340389	-0.134471
C315	C	-0.394109	0.590389	0.115529
C316	C	-0.144109	0.840389	0.365529
C317	C	-0.894920	0.090386	-0.334057
C318	C	-0.644920	0.340386	-0.084057
C319	C	-0.394920	0.590386	0.165943
C320	C	-0.144920	0.840386	0.415943
C321	C	-0.895311	0.045163	-0.308852
C322	C	-0.645311	0.295163	-0.058852
C323	C	-0.395311	0.545163	0.191148
C324	C	-0.145311	0.795163	0.441148
C325	C	-0.894891	-0.000057	-0.334062
C326	C	-0.644891	0.249943	-0.084062
C327	C	-0.394891	0.499943	0.165938
C328	C	-0.144891	0.749943	0.415938
C329	C	-0.894043	-0.090503	-0.384477
C330	C	-0.644043	0.159497	-0.134477
C331	C	-0.394043	0.409497	0.115523
C332	C	-0.144043	0.659497	0.365523
C333	C	-0.894847	-0.090501	-0.334056
C334	C	-0.644847	0.159499	-0.084056
C335	C	-0.394847	0.409499	0.165944
C336	C	-0.144847	0.659499	0.415944
C337	C	-0.895268	-0.045278	-0.308847
C338	C	-0.645268	0.204722	-0.058847
C339	C	-0.395268	0.454722	0.191153
C340	C	-0.145268	0.704722	0.441153
C341	C	-0.896093	-0.045282	-0.258443
C342	C	-0.646093	0.204718	-0.008443
C343	C	-0.396093	0.454718	0.241557
C344	C	-0.146093	0.704718	0.491557
N345	N	-0.896506	-0.000061	-0.233230
N346	N	-0.646506	0.249939	0.016770
N347	N	-0.396506	0.499939	0.266770
N348	N	-0.146506	0.749939	0.516770
C349	C	-0.896115	0.045161	-0.258435
C350	C	-0.646115	0.295161	-0.008435
C351	C	-0.396115	0.545161	0.241565
C352	C	-0.146115	0.795161	0.491565
C353	C	-0.888748	-0.045261	-0.717234
C354	C	-0.638748	0.204739	-0.467234
C355	C	-0.388748	0.454739	-0.217234
C356	C	-0.138748	0.704739	0.032766
C357	C	-0.887944	-0.045259	-0.767651
C358	C	-0.637944	0.204741	-0.517651
C359	C	-0.387944	0.454741	-0.267651
C360	C	-0.137944	0.704741	-0.017651
C361	C	-0.887967	0.045188	-0.767644
C362	C	-0.637967	0.295188	-0.517644
C363	C	-0.387967	0.545188	-0.267644
C364	C	-0.137967	0.795188	-0.017644
C365	C	-0.888776	0.045185	-0.717226
C366	C	-0.638776	0.295185	-0.467226
C367	C	-0.388776	0.545185	-0.217226
C368	C	-0.138776	0.795185	0.032774
C369	C	-0.889161	-0.000041	-0.692021
C370	C	-0.639161	0.249959	-0.442021
C371	C	-0.389161	0.499959	-0.192021
C372	C	-0.139161	0.749959	0.057979
C373	C	-0.897819	0.045152	-0.152562
C374	C	-0.647819	0.295152	0.097438
C375	C	-0.397819	0.545152	0.347438
C376	C	-0.147819	0.795152	0.597438
C377	C	-0.898633	0.045145	-0.102144
C378	C	-0.648633	0.295145	0.147856
C379	C	-0.398633	0.545145	0.397856
C380	C	-0.148633	0.795145	0.647856
C381	C	-0.898606	-0.045301	-0.102155
C382	C	-0.648606	0.204699	0.147845
C383	C	-0.398606	0.454699	0.397845
C384	C	-0.148606	0.704699	0.647845
C385	C	-0.897796	-0.045295	-0.152569
C386	C	-0.647796	0.204705	0.097431
C387	C	-0.397796	0.454705	0.347431
C388	C	-0.147796	0.704705	0.597431
C389	C	-0.897400	-0.000064	-0.177771
C390	C	-0.647400	0.249936	0.072229
C391	C	-0.397400	0.499936	0.322229
C392	C	-0.147400	0.749936	0.572229
O393	O	-0.896525	-0.083721	-0.232333
O394	O	-0.646525	0.166279	0.017667
O395	O	-0.396525	0.416279	0.267667
O396	O	-0.146525	0.666279	0.517667
O397	O	-0.896531	0.083618	-0.232354
O398	O	-0.646531	0.333618	0.017646
O399	O	-0.396531	0.583618	0.267646
O400	O	-0.146531	0.833618	0.517646
C401	C	-0.892878	0.045171	-0.460095
C402	C	-0.642878	0.295171	-0.210095
C403	C	-0.392878	0.545171	0.039905
C404	C	-0.142878	0.795171	0.289905
C405	C	-0.892459	-0.000049	-0.485304
C406	C	-0.642459	0.249951	-0.235304
C407	C	-0.392459	0.499951	0.014696
C408	C	-0.142459	0.749951	0.264696
C409	C	-0.892850	-0.045271	-0.460099
C410	C	-0.642850	0.204729	-0.210099
C411	C	-0.392850	0.454729	0.039901
C412	C	-0.142850	0.704729	0.289901
C413	C	-0.891655	-0.000047	-0.535721
C414	C	-0.641655	0.249953	-0.285721
C415	C	-0.391655	0.499953	-0.035721
C416	C	-0.141655	0.749953	0.214279
C417	C	-0.891264	0.045176	-0.560926
C418	C	-0.641264	0.295176	-0.310926
C419	C	-0.391264	0.545176	-0.060926
C420	C	-0.141264	0.795176	0.189074
C421	C	-0.891676	0.090397	-0.535714
C422	C	-0.641676	0.340397	-0.285714
C423	C	-0.391676	0.590397	-0.035714
C424	C	-0.141676	0.840397	0.214286
C425	C	-0.892487	0.090394	-0.485300
C426	C	-0.642487	0.340394	-0.235300
C427	C	-0.392487	0.590394	0.014700
C428	C	-0.142487	0.840394	0.264700
C429	C	-0.892437	-0.090492	-0.485312
C430	C	-0.642437	0.159508	-0.235312
C431	C	-0.392437	0.409508	0.014688
C432	C	-0.142437	0.659508	0.264688
C433	C	-0.891627	-0.090485	-0.535726
C434	C	-0.641627	0.159515	-0.285726
C435	C	-0.391627	0.409515	-0.035726
C436	C	-0.141627	0.659515	0.214274
C437	C	-0.891236	-0.045263	-0.560931
C438	C	-0.641236	0.204737	-0.310931
C439	C	-0.391236	0.454737	-0.060931
C440	C	-0.141236	0.704737	0.189069
C441	C	-0.886703	-0.000045	0.153485
C442	C	-0.636703	0.249955	0.403485
C443	C	-0.386703	0.499955	0.653485
C444	C	-0.136703	0.749955	0.903485
C445	C	-0.887553	-0.000037	0.207144
C446	C	-0.637553	0.249963	0.457144
C447	C	-0.387553	0.499963	0.707144
C448	C	-0.137553	0.749963	0.957144
H449	H	-0.646191	-0.000026	0.147777
H450	H	-0.396191	0.249974	0.397777
H451	H	-0.146191	0.499974	0.647777
H452	H	0.103809	0.749974	0.897777
H453	H	-0.799216	-0.771238	0.124795
H454	H	-0.549216	-0.521238	0.374795
H455	H	-0.299216	-0.271238	0.624795
H456	H	-0.049216	-0.021238	0.874795
H457	H	-0.893702	-0.127329	-0.404994
H458	H	-0.643702	0.122671	-0.154994
H459	H	-0.393702	0.372671	0.095006
H460	H	-0.143702	0.622671	0.345006
H461	H	-0.889118	0.082010	-0.696704
H462	H	-0.639118	0.332010	-0.446704
H463	H	-0.389118	0.582010	-0.196704
H464	H	-0.139118	0.832010	0.053296
H465	H	-0.898928	-0.082120	-0.081625
H466	H	-0.648928	0.167880	0.168375
H467	H	-0.398928	0.417880	0.418375
H468	H	-0.148928	0.667880	0.668375
H469	H	-0.502996	-0.000034	0.146313
H470	H	-0.252996	0.249966	0.396313
H471	H	-0.002996	0.499966	0.646313
H472	H	0.247004	0.749966	0.896313
H473	H	-0.799179	-0.228902	0.124828
H474	H	-0.549179	0.021098	0.374828
H475	H	-0.299179	0.271098	0.624828
H476	H	-0.049179	0.521098	0.874828
H477	H	-0.891361	0.127219	-0.556245
H478	H	-0.641361	0.377219	-0.306245
H479	H	-0.391361	0.627219	-0.056245
H480	H	-0.141361	0.877219	0.193755
H481	H	-0.799237	-0.865964	0.124796
H482	H	-0.549237	-0.615964	0.374796
H483	H	-0.299237	-0.365964	0.624796
H484	H	-0.049237	-0.115964	0.874796
H485	H	-0.248923	-0.000042	0.143716
H486	H	0.001077	0.249958	0.393716
H487	H	0.251077	0.499958	0.643716
H488	H	0.501077	0.749958	0.893716
H489	H	-1.039242	-0.625742	-0.027535
H490	H	-0.789242	-0.375742	0.222465
H491	H	-0.539242	-0.125742	0.472465
H492	H	-0.289242	0.124258	0.722465
H493	H	-0.892757	-0.127318	-0.464795
H494	H	-0.642757	0.122682	-0.214795
H495	H	-0.392757	0.372682	0.035205
H496	H	-0.142757	0.622682	0.285205
H497	H	-0.897492	0.081983	-0.173075
H498	H	-0.647492	0.331983	0.076925
H499	H	-0.397492	0.581983	0.326925
H500	H	-0.147492	0.831983	0.576925
H501	H	-0.747306	-0.374367	0.157710
H502	H	-0.497306	-0.124367	0.407710
H503	H	-0.247306	0.125633	0.657710
H504	H	0.002694	0.375633	0.907710
H505	H	-0.537649	-0.000074	-0.013510
H506	H	-0.287649	0.249926	0.236490
H507	H	-0.037649	0.499926	0.486490
H508	H	0.212351	0.749926	0.736490
H509	H	-0.799174	-0.134163	0.124829
H510	H	-0.549174	0.115837	0.374829
H511	H	-0.299174	0.365837	0.624829
H512	H	-0.049174	0.615837	0.874829
H513	H	-0.283581	-0.000080	-0.016112
H514	H	-0.033581	0.249920	0.233888
H515	H	0.216419	0.499920	0.483888
H516	H	0.466419	0.749920	0.733888
H517	H	-0.987413	-0.865961	0.005371
H518	H	-0.737413	-0.615961	0.255371
H519	H	-0.487413	-0.365961	0.505371
H520	H	-0.237413	-0.115961	0.755371
H521	H	-0.105716	-0.000048	0.142252
H522	H	0.144284	0.249952	0.392252
H523	H	0.394284	0.499952	0.642252
H524	H	0.644284	0.749952	0.892252
H525	H	-0.680858	-0.000062	-0.012050
H526	H	-0.430858	0.249938	0.237950
H527	H	-0.180858	0.499938	0.487950
H528	H	0.069142	0.749938	0.737950
H529	H	-0.987361	-0.228878	0.005394
H530	H	-0.737361	0.021122	0.255394
H531	H	-0.487361	0.271122	0.505394
H532	H	-0.237361	0.521122	0.755394
H533	H	-0.140385	-0.000080	-0.017574
H534	H	0.109615	0.249920	0.232426
H535	H	0.359615	0.499920	0.482426
H536	H	0.609615	0.749920	0.732426
H537	H	-0.987358	-0.134153	0.005409
H538	H	-0.737358	0.115847	0.255409
H539	H	-0.487358	0.365847	0.505409
H540	H	-0.237358	0.615847	0.755409
H541	H	-0.898977	0.081973	-0.081621
H542	H	-0.648977	0.331973	0.168379
H543	H	-0.398977	0.581973	0.418379
H544	H	-0.148977	0.831973	0.668379
H545	H	-1.039242	-0.531006	-0.027533
H546	H	-0.789242	-0.281006	0.222467
H547	H	-0.539242	-0.031006	0.472467
H548	H	-0.289242	0.218994	0.722467
H549	H	-0.897461	-0.082120	-0.173096
H550	H	-0.647461	0.167880	0.076904
H551	H	-0.397461	0.417880	0.326904
H552	H	-0.147461	0.667880	0.576904
H553	H	-0.895259	0.127212	-0.313536
H554	H	-0.645259	0.377212	-0.063536
H555	H	-0.395259	0.627212	0.186464
H556	H	-0.145259	0.877212	0.436464
H557	H	-1.039237	-0.469080	-0.027529
H558	H	-0.789237	-0.219080	0.222471
H559	H	-0.539237	0.030920	0.472471
H560	H	-0.289237	0.280920	0.722471
H561	H	-1.039232	-0.374357	-0.027522
H562	H	-0.789232	-0.124357	0.222478
H563	H	-0.539232	0.125643	0.472478
H564	H	-0.289232	0.375643	0.722478
H565	H	-0.987413	-0.771221	0.005373
H566	H	-0.737413	-0.521221	0.255373
H567	H	-0.487413	-0.271221	0.505373
H568	H	-0.237413	-0.021221	0.755373
H569	H	-0.887649	0.082010	-0.788174
H570	H	-0.637649	0.332010	-0.538174
H571	H	-0.387649	0.582010	-0.288174
H572	H	-0.137649	0.832010	-0.038174
H573	H	-0.747345	-0.625752	0.157704
H574	H	-0.497345	-0.375752	0.407704
H575	H	-0.247345	-0.125752	0.657704
H576	H	0.002655	0.124248	0.907704
H577	H	-0.747316	-0.469094	0.157710
H578	H	-0.497316	-0.219094	0.407710
H579	H	-0.247316	0.030906	0.657710
H580	H	0.002684	0.280906	0.907710
H581	H	-0.747337	-0.531029	0.157707
H582	H	-0.497337	-0.281029	0.407707
H583	H	-0.247337	-0.031029	0.657707
H584	H	0.002663	0.218971	0.907707
H585	H	-0.892829	0.127220	-0.464779
H586	H	-0.642829	0.377220	-0.214779
H587	H	-0.392829	0.627220	0.035221
H588	H	-0.142829	0.877220	0.285221
H589	H	-0.893788	0.127216	-0.404988
H590	H	-0.643788	0.377216	-0.154988
H591	H	-0.393788	0.627216	0.095012
H592	H	-0.143788	0.877216	0.345012
H593	H	-0.887614	-0.082085	-0.788173
H594	H	-0.637614	0.167915	-0.538173
H595	H	-0.387614	0.417915	-0.288173
H596	H	-0.137614	0.667915	-0.038173
H597	H	-0.889066	-0.082092	-0.696717
H598	H	-0.639066	0.167908	-0.446717
H599	H	-0.389066	0.417908	-0.196717
H600	H	-0.139066	0.667908	0.053283
H601	H	-0.895149	-0.127330	-0.313536
H602	H	-0.645149	0.122670	-0.063536
H603	H	-0.395149	0.372670	0.186464
H604	H	-0.145149	0.622670	0.436464
H605	H	-0.891291	-0.127315	-0.556247
H606	H	-0.641291	0.122685	-0.306247
H607	H	-0.391291	0.372685	-0.056247
H608	H	-0.141291	0.622685	0.193753
