data_functionalizedCrystal
_audit_creation_method	'MofGen! by Chris Wilmer'
_symmetry_space_group_name_H-M	'P1'
_symmetry_Int_Tables_number	1
_symmetry_cell_setting	triclinic
loop_
_symmetry_equiv_pos_as_xyz
  x,y,z
_cell_length_a	11.169417
_cell_length_b	14.908178
_cell_length_c	11.169409
_cell_angle_alpha	93.334554
_cell_angle_beta	90.019824
_cell_angle_gamma	93.314955
loop_
_atom_site_label
_atom_site_type_symbol
_atom_site_fract_x
_atom_site_fract_y
_atom_site_fract_z
Zn1	Zn	1.807331	-0.359096	0.650924
Zn2	Zn	2.140664	-0.025763	0.984257
Zn3	Zn	2.473998	0.307571	1.317591
Zn4	Zn	1.795609	-0.510002	0.438634
Zn5	Zn	2.128942	-0.176669	0.771968
Zn6	Zn	2.462275	0.156664	1.105301
Zn7	Zn	1.606613	-0.359151	0.450254
Zn8	Zn	1.939946	-0.025818	0.783587
Zn9	Zn	2.273279	0.307516	1.116921
Zn10	Zn	1.595018	-0.509929	0.639285
Zn11	Zn	1.928352	-0.176596	0.972618
Zn12	Zn	2.261685	0.156738	1.305952
O13	O	1.701143	-0.434545	0.544774
O14	O	2.034476	-0.101211	0.878108
O15	O	2.367809	0.232122	1.211441
O16	O	1.973725	-0.379122	0.622771
O17	O	2.307059	-0.045789	0.956105
O18	O	2.640392	0.287545	1.289438
O19	O	1.770484	-0.490045	0.272222
O20	O	2.103818	-0.156712	0.605555
O21	O	2.437151	0.176621	0.938888
O22	O	1.642997	-0.232888	0.486607
O23	O	1.976330	0.100445	0.819941
O24	O	2.309663	0.433779	1.153274
O25	O	1.965113	-0.489992	0.466803
O26	O	2.298446	-0.156659	0.800136
O27	O	2.631780	0.176675	1.133470
O28	O	1.790464	-0.232848	0.634039
O29	O	2.123797	0.100486	0.967372
O30	O	2.457130	0.433819	1.300705
O31	O	1.631630	-0.379216	0.280759
O32	O	1.964963	-0.045882	0.614092
O33	O	2.298297	0.287451	0.947425
O34	O	1.437126	-0.379144	0.475321
O35	O	1.770459	-0.045811	0.808655
O36	O	2.103792	0.287522	1.141988
O37	O	1.623236	-0.489867	0.808783
O38	O	1.956569	-0.156533	1.142116
O39	O	2.289902	0.176800	1.475449
O40	O	1.428607	-0.489920	0.614201
O41	O	1.761941	-0.156587	0.947535
O42	O	2.095274	0.176747	1.280868
O43	O	1.779221	-0.379051	0.817334
O44	O	2.112554	-0.045717	1.150667
O45	O	2.445888	0.287616	1.484001
O46	O	1.759242	-0.636248	0.455517
O47	O	2.092575	-0.302915	0.788851
O48	O	2.425909	0.030418	1.122184
O49	O	1.611869	-0.636194	0.602934
O50	O	1.945202	-0.302861	0.936268
O51	O	2.278536	0.030472	1.269601
C52	C	1.389319	-0.434531	0.544760
C53	C	1.722652	-0.101198	0.878093
C54	C	2.055986	0.232136	1.211427
C55	C	1.255918	-0.434547	0.544781
C56	C	1.589251	-0.101213	0.878114
C57	C	1.922585	0.232120	1.211447
C58	C	1.683058	-0.668958	0.526728
C59	C	2.016391	-0.335625	0.860061
C60	C	2.349725	-0.002291	1.193395
C61	C	1.675431	-0.769241	0.519048
C62	C	2.008764	-0.435908	0.852381
C63	C	2.342098	-0.102574	1.185714
C64	C	1.814540	-0.957492	0.658301
C65	C	2.147873	-0.624158	0.991634
C66	C	2.481207	-0.290825	1.324967
C67	C	1.807378	-1.051716	0.651089
C68	C	2.140711	-0.718383	0.984422
C69	C	2.474045	-0.385050	1.317755
C70	C	1.653940	-1.051917	0.497418
C71	C	1.987273	-0.718584	0.830752
C72	C	2.320606	-0.385251	1.164085
C73	C	1.661102	-0.957693	0.504630
C74	C	1.994435	-0.624359	0.837964
C75	C	2.327768	-0.291026	1.171297
C76	C	1.741406	-0.910483	0.585073
C77	C	2.074739	-0.577150	0.918406
C78	C	2.408072	-0.243816	1.251740
C79	C	1.748573	-0.816256	0.592278
C80	C	2.081906	-0.482923	0.925612
C81	C	2.415240	-0.149590	1.258945
C82	C	1.595129	-0.816459	0.438615
C83	C	1.928463	-0.483126	0.771948
C84	C	2.261796	-0.149792	1.105281
C85	C	1.587967	-0.910684	0.431403
C86	C	1.921301	-0.577351	0.764736
C87	C	2.254634	-0.244017	1.098069
C88	C	2.014184	-0.434559	0.544789
C89	C	2.347517	-0.101226	0.878123
C90	C	2.680851	0.232108	1.211456
C91	C	2.147583	-0.434565	0.544796
C92	C	2.480917	-0.101232	0.878129
C93	C	2.814250	0.232102	1.211462
C94	C	1.701243	-0.434444	0.857825
C95	C	2.034576	-0.101111	1.191158
C96	C	2.367909	0.232222	1.524491
C97	C	1.701285	-0.434402	0.991228
C98	C	2.034619	-0.101068	1.324561
C99	C	2.367952	0.232265	1.657895
C100	C	1.719331	-0.199216	0.562917
C101	C	2.052664	0.134118	0.896251
C102	C	2.385998	0.467451	1.229584
C103	C	1.727082	-0.098933	0.570649
C104	C	2.060415	0.234401	0.903982
C105	C	2.393748	0.567734	1.237316
C106	C	1.701117	-0.434579	0.232947
C107	C	2.034451	-0.101246	0.566280
C108	C	2.367784	0.232087	0.899614
C109	C	1.701327	-0.434368	0.099564
C110	C	2.034660	-0.101034	0.432897
C111	C	2.367994	0.232299	0.766230
H112	H	1.879935	-0.919053	0.723792
H113	H	2.213269	-0.585720	1.057125
H114	H	2.546602	-0.252386	1.390459
H115	H	1.535582	-0.778174	0.378984
H116	H	1.868915	-0.444841	0.712317
H117	H	2.202249	-0.111507	1.045651
H118	H	1.588554	-1.090372	0.431931
H119	H	1.921888	-0.757038	0.765265
H120	H	2.255221	-0.423705	1.098598
H121	H	1.813964	-0.777819	0.657776
H122	H	2.147297	-0.444486	0.991109
H123	H	2.480631	-0.111152	1.324442
H124	H	1.866925	-1.089987	0.710724
H125	H	2.200259	-0.756654	1.044058
H126	H	2.533592	-0.423321	1.377391
H127	H	1.522583	-0.949135	0.365912
H128	H	1.855917	-0.615802	0.699245
H129	H	2.189250	-0.282468	1.032578
