data_functionalizedCrystal
_audit_creation_method	'MofGen! by Chris Wilmer'
_symmetry_space_group_name_H-M	'P1'
_symmetry_Int_Tables_number	1
_symmetry_cell_setting	triclinic
loop_
_symmetry_equiv_pos_as_xyz
  x,y,z
_cell_length_a	14.044220
_cell_length_b	17.038272
_cell_length_c	13.101039
_cell_angle_alpha	93.604737
_cell_angle_beta	86.340132
_cell_angle_gamma	92.150217
loop_
_atom_site_label
_atom_site_type_symbol
_atom_site_fract_x
_atom_site_fract_y
_atom_site_fract_z
O1	O	1.277881	0.185592	-0.085106
O2	O	1.001361	0.178751	-0.085132
O3	O	1.137977	0.068241	-0.085111
O4	O	1.141265	0.296101	-0.085127
O5	O	1.128176	0.076185	0.085317
O6	O	0.991560	0.186694	0.085296
O7	O	1.268080	0.193535	0.085322
Zn8	Zn	1.128264	0.191376	0.112368
Zn9	Zn	1.141177	0.180910	-0.112178
O10	O	1.131464	0.304045	0.085301
C11	C	0.960905	0.179728	0.000079
C12	C	0.854960	0.170796	0.000069
C13	C	1.130087	0.042876	0.000103
C14	C	1.121168	-0.044541	0.000101
C15	C	0.660980	0.154468	0.000091
C16	C	0.608455	0.217813	0.000090
C17	C	0.500518	0.208729	0.000102
C18	C	0.768927	0.163552	0.000079
C19	C	1.203056	-0.088926	0.000110
C20	C	1.194670	-0.171064	0.000100
C21	C	1.104396	-0.208815	0.000088
C22	C	1.022502	-0.164424	0.000076
C23	C	1.030889	-0.082288	0.000079
C24	C	1.074767	-0.456646	0.000071
C25	C	1.066386	-0.538788	0.000071
C26	C	1.238555	-0.545423	0.000093
C27	C	1.246934	-0.463285	0.000102
C28	C	1.165040	-0.418901	0.000085
C29	C	1.095822	-0.292773	0.000080
C30	C	1.173615	-0.334945	0.000085
C31	C	1.308536	0.192558	0.000109
C32	C	1.414482	0.201490	0.000112
C33	C	1.139354	0.329410	0.000085
C34	C	1.148273	0.416827	0.000080
N35	N	1.119458	0.198518	0.265616
N36	N	1.149990	0.173762	-0.265426
C37	C	1.107478	0.208243	0.474656
C38	C	1.161967	0.164040	0.525540
C39	C	1.155301	0.169451	0.641858
C40	C	1.114143	0.202833	0.358328
H41	H	0.624887	0.093419	0.000100
O42	O	1.290825	-0.052386	0.000074
C43	C	1.460704	-0.067643	0.000141
C44	C	1.361363	-0.109123	0.000165
H45	H	1.517759	-0.113495	0.000237
H46	H	1.473098	-0.032701	-0.071199
H47	H	1.464789	-0.026011	0.071449
H48	H	1.357208	-0.150792	-0.071095
H49	H	1.349011	-0.144014	0.071552
H50	H	0.644550	0.278868	0.000081
H51	H	1.055826	0.250148	0.518445
H52	H	1.261352	-0.207199	0.000109
O53	O	1.334702	-0.426743	0.000072
C54	C	1.504580	-0.441991	0.000171
C55	C	1.405244	-0.483476	0.000171
H56	H	1.561639	-0.487839	0.000273
H57	H	1.516984	-0.407044	-0.071164
H58	H	1.508650	-0.400363	0.071484
H59	H	1.401103	-0.525141	-0.071094
H60	H	1.392882	-0.518373	0.071553
H61	H	1.305228	-0.581568	0.000105
O62	O	0.978618	-0.575338	0.000003
C63	C	0.808732	-0.560093	0.000019
C64	C	0.908063	-0.518601	0.000073
H65	H	0.751660	-0.514239	0.000097
H66	H	0.804555	-0.601679	-0.071324
H67	H	0.796444	-0.595085	0.071324
H68	H	0.920416	-0.483567	-0.071184
H69	H	0.912191	-0.477061	0.071463
H70	H	1.008083	-0.420519	0.000057
H71	H	0.948998	-0.195167	0.000060
O72	O	1.223481	0.113868	0.473455
C73	C	1.269823	-0.020568	0.440774
C74	C	1.200089	0.036198	0.499741
H75	H	1.250948	-0.083374	0.462021
H76	H	1.264373	-0.016252	0.354870
H77	H	1.345825	-0.004088	0.461831
H78	H	1.124056	0.019756	0.478771
H79	H	1.205623	0.031874	0.585631
O80	O	0.951243	-0.039286	0.000116
C81	C	0.779594	-0.041372	0.000025
C82	C	0.869715	-0.090164	0.000015
H83	H	0.713657	-0.082487	-0.000079
H84	H	0.775042	0.000553	0.071364
H85	H	0.783377	-0.006055	-0.071284
H86	H	0.865994	-0.125528	0.071276
H87	H	0.874235	-0.132039	-0.071371
H88	H	1.247118	-0.304206	0.000072
O89	O	1.008121	-0.329419	-0.000107
C90	C	0.863459	-0.352964	-0.088382
C91	C	0.962764	-0.311428	-0.088305
H92	H	0.826751	-0.338420	-0.159671
H93	H	0.871490	-0.419302	-0.088452
H94	H	0.818590	-0.331875	-0.017026
H95	H	1.007686	-0.332453	-0.159648
H96	H	0.954662	-0.245096	-0.088181
