data_functionalizedCrystal
_audit_creation_method	'MofGen! by Chris Wilmer'
_symmetry_space_group_name_H-M	'P1'
_symmetry_Int_Tables_number	1
_symmetry_cell_setting	triclinic
loop_
_symmetry_equiv_pos_as_xyz
  x,y,z
_cell_length_a	16.956995
_cell_length_b	15.944551
_cell_length_c	16.053802
_cell_angle_alpha	92.564789
_cell_angle_beta	87.607939
_cell_angle_gamma	79.776605
loop_
_atom_site_label
_atom_site_type_symbol
_atom_site_fract_x
_atom_site_fract_y
_atom_site_fract_z
O1	O	1.061405	0.031039	-0.069487
O2	O	1.561405	0.531039	0.430513
O3	O	0.829249	0.060528	-0.069477
O4	O	1.329249	0.560528	0.430523
O5	O	0.951667	-0.076932	-0.069475
O6	O	1.451667	0.423068	0.430525
O7	O	0.938988	0.168498	-0.069489
O8	O	1.438988	0.668498	0.430511
O9	O	0.944929	-0.069395	0.069384
O10	O	1.444929	0.430605	0.569384
O11	O	0.822511	0.068065	0.069382
O12	O	1.322511	0.568065	0.569382
O13	O	1.054667	0.038576	0.069372
O14	O	1.554667	0.538576	0.569372
Zn15	Zn	0.937519	0.054517	0.091424
Zn16	Zn	1.437519	0.554517	0.591424
Zn17	Zn	0.946397	0.044587	-0.091529
Zn18	Zn	1.446397	0.544587	0.408471
O19	O	0.932250	0.176035	0.069369
O20	O	1.432250	0.676035	0.569369
C21	C	0.796172	0.065806	-0.000046
C22	C	1.296172	0.565806	0.499954
C23	C	0.707652	0.070295	-0.000042
C24	C	1.207652	0.570295	0.499958
C25	C	0.208355	0.103874	-0.000075
C26	C	0.708355	0.603874	0.499925
C27	C	0.291530	0.099649	-0.000074
C28	C	0.791530	0.599649	0.499926
C29	C	0.342613	0.020360	-0.000063
C30	C	0.842613	0.520360	0.499937
C31	C	0.310519	-0.054712	-0.000061
C32	C	0.810519	0.445288	0.499939
C33	C	0.227345	-0.050487	-0.000068
C34	C	0.727345	0.449513	0.499932
C35	C	0.592384	-0.000552	-0.000047
C36	C	1.092384	0.499448	0.499953
C37	C	0.675562	-0.004770	-0.000038
C38	C	1.175562	0.495230	0.499962
C39	C	0.656568	0.149591	-0.000052
C40	C	1.156568	0.649591	0.499948
C41	C	0.573393	0.153809	-0.000054
C42	C	1.073393	0.653809	0.499946
C43	C	0.541306	0.078738	-0.000057
C44	C	1.041306	0.578738	0.499943
N45	N	0.427632	0.016040	-0.000059
N46	N	0.927632	0.516040	0.499941
N47	N	0.456290	0.083058	-0.000066
N48	N	0.956290	0.583058	0.499934
C49	C	0.947771	-0.104420	-0.000045
C50	C	1.447771	0.395580	0.499955
C51	C	0.946193	-0.197557	-0.000045
C52	C	1.446193	0.302443	0.499955
C53	C	0.866542	-0.406879	-0.000053
C54	C	1.366542	0.093121	0.499947
C55	C	0.900207	-0.466751	0.068411
C56	C	1.400207	0.033249	0.568411
C57	C	0.943339	-0.368085	-0.000051
C58	C	1.443339	0.131915	0.499949
C59	C	0.906868	-0.474166	-0.068492
C60	C	1.406868	0.025834	0.431508
C61	C	0.940576	-0.532806	-0.000061
C62	C	1.440576	-0.032806	0.499939
C63	C	0.977022	-0.426726	0.068470
C64	C	1.477022	0.073274	0.568470
C65	C	0.983676	-0.434138	-0.068496
C66	C	1.483676	0.065862	0.431504
C67	C	1.017397	-0.493995	-0.000015
C68	C	1.517397	0.006005	0.499985
C69	C	0.944928	-0.273193	-0.000045
C70	C	1.444928	0.226807	0.499955
C71	C	0.938992	-0.627697	-0.000061
C72	C	1.438992	-0.127697	0.499939
C73	C	1.087744	0.033298	-0.000061
C74	C	1.587744	0.533298	0.499939
C75	C	1.176265	0.028808	-0.000071
C76	C	1.676265	0.528808	0.499929
C77	C	0.936145	0.203524	-0.000062
C78	C	1.436145	0.703524	0.499938
C79	C	0.937724	0.296660	-0.000068
C80	C	1.437724	0.796660	0.499932
N81	N	0.931466	0.061293	0.216284
N82	N	1.431466	0.561293	0.716284
N83	N	0.952457	0.037803	-0.216389
N84	N	1.452457	0.537803	0.283611
C85	C	0.983574	0.002822	0.259979
C86	C	1.483574	0.502822	0.759979
C87	C	0.979347	0.007570	0.347385
C88	C	1.479347	0.507570	0.847385
C89	C	0.923016	0.070792	0.391096
C90	C	1.423016	0.570792	0.891096
C91	C	0.870903	0.129266	0.347395
C92	C	1.370903	0.629266	0.847395
C93	C	0.875126	0.124514	0.259990
C94	C	1.375126	0.624514	0.759990
C95	C	0.904567	0.091525	0.652505
C96	C	1.404567	0.591525	1.152505
C97	C	0.900349	0.096274	0.739916
C98	C	1.400349	0.596274	1.239916
C99	C	1.008793	-0.025424	0.739901
C100	C	1.508793	0.474576	1.239901
C101	C	1.013015	-0.030167	0.652494
C102	C	1.513015	0.469833	1.152494
C103	C	0.960899	0.028304	0.608801
C104	C	1.460899	0.528304	1.108801
N105	N	0.918696	0.075648	0.480439
N106	N	1.418696	0.575648	0.980439
N107	N	0.965216	0.023444	0.519459
N108	N	1.465216	0.523444	1.019459
H109	H	0.682702	0.210710	-0.000051
H110	H	1.182702	0.710710	0.499949
H111	H	0.854475	0.147762	0.775501
H112	H	1.354475	0.647762	1.275501
C113	C	1.031315	-0.414230	-0.146699
C114	C	1.531315	0.085770	0.353301
N115	N	1.067190	-0.399233	-0.205609
N116	N	1.567190	0.100767	0.294391
H117	H	1.081196	-0.531585	0.000021
H118	H	1.581196	-0.031585	0.500021
H119	H	1.006665	-0.405846	0.126414
H120	H	1.506665	0.094154	0.626414
H121	H	1.051223	-0.073029	0.775484
H122	H	1.551223	0.426971	1.275484
H123	H	0.825032	0.180741	0.382989
H124	H	1.325032	0.680741	0.882989
H125	H	0.862133	0.139136	0.616937
H126	H	1.362133	0.639136	1.116937
H127	H	0.877185	-0.495127	-0.126377
H128	H	1.377185	0.004873	0.373623
H129	H	0.832694	0.172126	0.224414
H130	H	1.332694	0.672126	0.724414
H131	H	0.166767	0.168441	-0.000078
H132	H	0.666767	0.668441	0.499922
H133	H	1.029448	-0.048657	0.224395
H134	H	1.529448	0.451343	0.724395
C135	C	0.366713	-0.141931	-0.000044
C136	C	0.866713	0.358069	0.499956
N137	N	0.409038	-0.207627	-0.000025
N138	N	0.909038	0.292373	0.499975
H139	H	1.021777	-0.040042	0.382961
H140	H	1.521777	0.459958	0.882961
H141	H	0.717154	-0.069341	-0.000033
H142	H	1.217154	0.430659	0.499967
H143	H	1.058884	-0.081648	0.616907
H144	H	1.558884	0.418352	1.116907
H145	H	0.201220	-0.111613	-0.000067
H146	H	0.701220	0.388387	0.499933
H147	H	0.566269	-0.061680	-0.000047
H148	H	1.066269	0.438320	0.499953
H149	H	0.317653	0.160775	-0.000085
H150	H	0.817653	0.660775	0.499915
H151	H	0.531806	0.218375	-0.000065
H152	H	1.031806	0.718375	0.499935
H153	H	0.802793	-0.369138	0.000019
H154	H	1.302793	0.130862	0.500019
C155	C	0.852530	-0.486627	0.146608
C156	C	1.352530	0.013373	0.646608
N157	N	0.816615	-0.501596	0.205502
N158	N	1.316615	-0.001596	0.705502
