data_functionalizedCrystal
_audit_creation_method	'MofGen! by Chris Wilmer'
_symmetry_space_group_name_H-M	'P1'
_symmetry_Int_Tables_number	1
_symmetry_cell_setting	triclinic
loop_
_symmetry_equiv_pos_as_xyz
  x,y,z
_cell_length_a	13.032831
_cell_length_b	12.645330
_cell_length_c	13.034296
_cell_angle_alpha	97.207872
_cell_angle_beta	105.185450
_cell_angle_gamma	82.822813
loop_
_atom_site_label
_atom_site_type_symbol
_atom_site_fract_x
_atom_site_fract_y
_atom_site_fract_z
Zn1	Zn	1.700202	-0.537420	0.806483
Zn2	Zn	2.200202	-0.037420	1.306483
Zn3	Zn	1.677517	-0.734681	0.628864
Zn4	Zn	2.177517	-0.234681	1.128864
Zn5	Zn	1.500005	-0.537429	0.606364
Zn6	Zn	2.000005	-0.037429	1.106364
Zn7	Zn	1.522548	-0.694629	0.783916
Zn8	Zn	2.022548	-0.194629	1.283916
O9	O	1.600068	-0.626040	0.706407
O10	O	2.100068	-0.126040	1.206407
O11	O	1.845831	-0.580344	0.801782
O12	O	2.345831	-0.080344	1.301782
O13	O	1.635042	-0.725281	0.477240
O14	O	2.135042	-0.225281	0.977240
O15	O	1.526622	-0.389085	0.632938
O16	O	2.026622	0.110915	1.132938
O17	O	1.829164	-0.725271	0.671287
O18	O	2.329164	-0.225271	1.171287
O19	O	1.673706	-0.389078	0.779964
O20	O	2.173706	0.110922	1.279964
O21	O	1.504625	-0.580361	0.460709
O22	O	2.004625	-0.080361	0.960709
O23	O	1.354357	-0.541525	0.611056
O24	O	1.854357	-0.041525	1.111056
O25	O	1.565042	-0.657009	0.935549
O26	O	2.065042	-0.157009	1.435549
O27	O	1.370919	-0.657019	0.741502
O28	O	1.870919	-0.157019	1.241502
O29	O	1.695564	-0.541508	0.952129
O30	O	2.195564	-0.041508	1.452129
O31	O	1.656900	-0.877711	0.649405
O32	O	2.156900	-0.377711	1.149405
O33	O	1.543045	-0.848285	0.763320
O34	O	2.043045	-0.348285	1.263320
C35	C	1.324098	-0.594927	0.671389
C36	C	1.824098	-0.094927	1.171389
C37	C	1.206040	-0.581640	0.656434
C38	C	1.706040	-0.081640	1.156434
C39	C	1.161616	-0.632975	0.714212
C40	C	1.661616	-0.132975	1.214212
C41	C	1.039597	-0.619243	0.698756
C42	C	1.539597	-0.119243	1.198756
C43	C	1.599989	-0.901462	0.706382
C44	C	2.099989	-0.401462	1.206382
C45	C	1.600056	-1.019296	0.706419
C46	C	2.100056	-0.519296	1.206419
C47	C	1.528801	-1.168402	0.778380
C48	C	2.028801	-0.668402	1.278380
C49	C	1.528349	-1.045826	0.778062
C50	C	2.028349	-0.545826	1.278062
C51	C	1.555529	-1.073073	0.590639
C52	C	2.055529	-0.573073	1.090639
C53	C	1.555094	-1.195559	0.591075
C54	C	2.055094	-0.695559	1.091075
C55	C	1.716224	-1.195833	0.749395
C56	C	2.216224	-0.695833	1.249395
C57	C	1.715846	-1.072873	0.751755
C58	C	2.215846	-0.572873	1.251755
C59	C	1.877116	-0.657274	0.741562
C60	C	2.377116	-0.157274	1.241562
C61	C	1.995177	-0.670585	0.756543
C62	C	2.495177	-0.170585	1.256543
C63	C	1.635348	-0.594790	0.983458
C64	C	2.135348	-0.094790	1.483458
C65	C	1.650383	-0.581473	1.101520
C66	C	2.150383	-0.081473	1.601520
C67	C	1.600180	-0.349542	0.706458
C68	C	2.100180	0.150458	1.206458
C69	C	1.600227	-0.231715	0.706480
C70	C	2.100227	0.268285	1.206480
C71	C	1.564986	-0.657098	0.430441
C72	C	2.064986	-0.157098	0.930441
C73	C	1.550158	-0.670140	0.312406
C74	C	2.050158	-0.170140	0.812406
C75	C	1.592506	-0.632684	1.145953
C76	C	2.092506	-0.132684	1.645953
C77	C	1.608043	-0.618922	1.267977
C78	C	2.108043	-0.118922	1.767977
H79	H	1.153740	-0.527520	0.595530
H80	H	1.653740	-0.027520	1.095530
F81	F	1.687856	-0.548298	1.336325
F82	F	2.187856	-0.048298	1.836325
H83	H	1.469876	-1.217729	0.556375
H84	H	1.969876	-0.717729	1.056375
F85	F	0.971246	-0.548499	0.619144
F86	F	1.471246	-0.048499	1.119144
H87	H	1.047474	-0.724697	0.817462
H88	H	1.547474	-0.224697	1.317462
F89	F	1.229972	-0.703713	0.793823
F90	F	1.729972	-0.203713	1.293823
H91	H	1.471112	-1.036086	0.555608
H92	H	1.971112	-0.536086	1.055608
F93	F	1.619124	-1.252053	0.517660
F94	F	2.119124	-0.752053	1.017660
H95	H	1.489104	-0.724180	1.260114
H96	H	1.989104	-0.224180	1.760114
H97	H	1.769613	-1.238439	0.697201
H98	H	2.269613	-0.738439	1.197201
H99	H	1.711439	-0.527445	1.153818
H100	H	2.211439	-0.027445	1.653818
F101	F	1.620547	-1.052732	0.517885
F102	F	2.120547	-0.552732	1.017885
H103	H	1.557856	-1.008468	0.863467
H104	H	2.057856	-0.508468	1.363467
F105	F	1.567181	-1.197365	0.890340
F106	F	2.067181	-0.697365	1.390340
H107	H	1.754063	-1.220763	0.833138
H108	H	2.254063	-0.720763	1.333138
F109	F	1.790561	-1.050436	0.689778
F110	F	2.290561	-0.550436	1.189778
F111	F	1.512705	-0.703312	1.077602
F112	F	2.012705	-0.203312	1.577602
F113	F	1.759402	-1.026022	0.863221
F114	F	2.259402	-0.526022	1.363221
H115	H	1.442642	-1.009343	0.748508
H116	H	1.942642	-0.509343	1.248508
F117	F	1.417500	-1.199376	0.740172
F118	F	1.917500	-0.699376	1.240172
