data_functionalizedCrystal
_audit_creation_method	'MofGen! by Chris Wilmer'
_symmetry_space_group_name_H-M	'P1'
_symmetry_Int_Tables_number	1
_symmetry_cell_setting	triclinic
loop_
_symmetry_equiv_pos_as_xyz
  x,y,z
_cell_length_a	23.532407
_cell_length_b	23.532407
_cell_length_c	22.610064
_cell_angle_alpha	89.999397
_cell_angle_beta	89.997161
_cell_angle_gamma	82.848678
loop_
_atom_site_label
_atom_site_type_symbol
_atom_site_fract_x
_atom_site_fract_y
_atom_site_fract_z
O1	O	0.755263	0.069127	-0.049117
O2	O	0.589400	0.079130	-0.049135
O3	O	0.677333	-0.008803	-0.049114
O4	O	0.667330	0.157060	-0.049137
O5	O	0.677318	-0.008790	0.049255
O6	O	0.589385	0.079143	0.049234
O7	O	0.755248	0.069140	0.049252
Zn8	Zn	0.672314	0.074144	0.064862
Zn9	Zn	0.672334	0.074127	-0.064744
O10	O	0.667315	0.157073	0.049232
C11	C	0.568176	0.078882	0.000048
C12	C	0.504959	0.078116	0.000041
C13	C	0.677071	-0.030013	0.000072
C14	C	0.676305	-0.093230	0.000076
C15	C	0.105856	0.125350	0.000061
C16	C	0.046456	0.124638	0.000065
O17	O	0.009711	0.168424	0.000081
N18	N	0.023830	0.072362	0.000071
C19	C	0.060607	0.020794	0.000080
O20	O	0.035908	-0.023737	0.000086
C21	C	0.120006	0.021506	0.000080
C22	C	0.142629	0.073785	0.000068
C23	C	0.128479	0.177625	0.000050
C24	C	0.187876	0.178336	0.000045
C25	C	0.224649	0.126772	0.000052
C26	C	0.202025	0.074497	0.000063
C27	C	0.156783	-0.030062	0.000093
C28	C	0.216185	-0.029345	0.000094
C29	C	0.238808	0.022934	0.000082
C30	C	0.298194	0.023643	0.000065
N31	N	0.320820	0.075920	0.000059
C32	C	0.284048	0.127484	0.000052
C33	C	-0.064135	0.019302	0.000080
C34	C	-0.123533	0.018589	0.000075
C35	C	-0.137680	0.122434	0.000061
C36	C	-0.078281	0.123146	0.000062
C37	C	-0.041509	0.071578	0.000074
C38	C	0.408784	0.128974	0.000042
C39	C	0.468186	0.129680	0.000034
C40	C	0.482329	0.025836	0.000051
C41	C	0.422932	0.025129	0.000055
C42	C	0.386160	0.076702	0.000052
O43	O	0.334974	-0.020119	0.000052
O44	O	0.308755	0.172007	0.000054
C45	C	0.723539	-0.492333	0.000049
C46	C	0.722827	-0.551733	0.000044
O47	O	0.766613	-0.588478	0.000027
N48	N	0.670551	-0.574359	0.000039
C49	C	0.618983	-0.537582	0.000032
O50	O	0.574452	-0.562281	0.000027
C51	C	0.619695	-0.478182	0.000033
C52	C	0.671974	-0.455560	0.000044
C53	C	0.775814	-0.469710	0.000060
C54	C	0.776525	-0.410313	0.000065
C55	C	0.724961	-0.373540	0.000060
C56	C	0.672685	-0.396164	0.000050
C57	C	0.568127	-0.441406	0.000022
C58	C	0.568844	-0.382004	0.000021
C59	C	0.621123	-0.359381	0.000033
C60	C	0.621832	-0.299995	0.000050
N61	N	0.674109	-0.277368	0.000056
C62	C	0.725673	-0.314141	0.000061
C63	C	0.617491	-0.662324	0.000031
C64	C	0.616778	-0.721722	0.000034
C65	C	0.720623	-0.735869	0.000045
C66	C	0.721335	-0.676470	0.000046
C67	C	0.669767	-0.639698	0.000036
C68	C	0.727163	-0.189405	0.000073
C69	C	0.727869	-0.130003	0.000081
C70	C	0.624025	-0.115860	0.000067
C71	C	0.623318	-0.175257	0.000062
C72	C	0.674891	-0.212029	0.000063
O73	O	0.578070	-0.263215	0.000065
O74	O	0.770196	-0.289433	0.000058
C75	C	0.776472	0.069388	0.000069
C76	C	0.839689	0.070154	0.000071
C77	C	0.667577	0.178283	0.000045
C78	C	0.668343	0.241500	0.000036
N79	N	0.672304	0.074155	0.153314
N80	N	0.672349	0.074111	-0.153196
C81	C	0.711273	0.035196	0.561965
C82	C	0.711276	0.035192	0.623884
O83	O	0.744384	0.002076	0.655911
N84	N	0.672334	0.074115	0.654851
C85	C	0.633383	0.113041	0.623895
O86	O	0.600259	0.146147	0.655920
C87	C	0.633377	0.113042	0.561976
C88	C	0.672326	0.074120	0.531013
C89	C	0.750218	-0.003724	0.531001
C90	C	0.750215	-0.003719	0.469085
C91	C	0.711268	0.035206	0.438133
C92	C	0.672323	0.074125	0.469097
C93	C	0.594424	0.151965	0.531021
C94	C	0.594422	0.151962	0.469098
C95	C	0.633370	0.113040	0.438134
C96	C	0.633374	0.113054	0.376229
N97	N	0.672316	0.074131	0.345262
C98	C	0.711263	0.035207	0.376214
C99	C	0.633396	0.113035	0.753928
C100	C	0.633403	0.113037	0.815846
C101	C	0.711296	0.035187	0.815831
C102	C	0.711291	0.035188	0.753913
C103	C	0.672338	0.074112	0.722962
C104	C	0.711255	0.035220	0.246187
C105	C	0.711251	0.035230	0.184266
C106	C	0.633357	0.113078	0.184286
C107	C	0.633363	0.113071	0.246202
C108	C	0.672314	0.074137	0.277151
O109	O	0.600281	0.146152	0.344163
O110	O	0.744376	0.002101	0.344182
H111	H	0.486602	0.172255	0.000024
O112	O	-0.056403	0.173980	0.000080
C113	C	-0.101604	0.219335	0.000057
H114	H	-0.141871	0.203604	0.018680
H115	H	-0.110093	0.235217	-0.047139
C116	C	-0.035660	0.287997	0.015753
C117	C	-0.085116	0.268677	0.038632
H118	H	-0.025490	0.318435	0.039546
H119	H	-0.005207	0.257441	0.015767
H120	H	-0.042741	0.301228	-0.023576
H121	H	-0.078032	0.255440	0.077957
H122	H	-0.115568	0.299232	0.038625
O123	O	0.827295	-0.388313	0.000173
C124	C	0.830810	-0.354366	0.051111
H125	H	0.801128	-0.368247	0.086720
H126	H	0.817407	-0.307447	0.039591
C127	C	0.929308	-0.344867	0.030475
C128	C	0.892855	-0.361918	0.074213
H129	H	0.967580	-0.349523	0.044724
H130	H	0.926939	-0.367736	-0.003844
H131	H	0.918132	-0.305769	0.020879
H132	H	0.904027	-0.401017	0.083802
H133	H	0.895227	-0.339056	0.108534
H134	H	0.763906	-0.658056	0.000054
H135	H	-0.141947	-0.023982	0.000076
O136	O	0.825893	-0.505448	-0.000039
C137	C	0.828603	-0.540244	-0.050976
H138	H	0.799357	-0.518337	-0.086591
H139	H	0.814123	-0.583365	-0.039459
C140	C	0.926549	-0.576501	-0.030322
C141	C	0.890633	-0.549593	-0.074067
H142	H	0.964812	-0.582271	-0.044564
H143	H	0.924724	-0.553061	0.003997
H144	H	0.914476	-0.612433	-0.020728
H145	H	0.902702	-0.513659	-0.083654
H146	H	0.892462	-0.573027	-0.108388
H147	H	0.525555	-0.459814	0.000009
O148	O	0.567342	-0.626686	0.000056
C149	C	0.521054	-0.659400	0.000036
H150	H	0.535773	-0.703815	0.018659
H151	H	0.505020	-0.663543	-0.047158
C152	C	0.454193	-0.574990	0.015738
C153	C	0.472269	-0.629540	0.038616
H154	H	0.424098	-0.556570	0.039533
H155	H	0.485377	-0.552949	0.015749
H156	H	0.440835	-0.578450	-0.023590
H157	H	0.485633	-0.626079	0.077940
H158	H	0.441086	-0.651579	0.038612
H159	H	0.526850	-0.352066	0.000013
O160	O	-0.028497	-0.030847	0.000055
C161	C	-0.061211	-0.077135	0.000074
H162	H	-0.105625	-0.062415	-0.018548
H163	H	-0.065356	-0.093171	0.047268
C164	C	0.023200	-0.143995	-0.015627
C165	C	-0.031349	-0.125918	-0.038505
H166	H	0.041621	-0.174089	-0.039422
H167	H	0.045241	-0.112811	-0.015638
H168	H	0.019738	-0.157355	0.023701
H169	H	-0.027886	-0.112552	-0.077829
H170	H	-0.053389	-0.157101	-0.038502
H171	H	0.762610	-0.765821	0.000047
H172	H	0.574207	-0.740136	0.000035
H173	H	0.781933	-0.035423	0.556197
O174	O	0.595538	0.150910	0.723957
C175	C	0.561164	0.185251	0.764572
H176	H	0.584516	0.185768	0.808705
H177	H	0.518964	0.166975	0.771164
C178	C	0.520393	0.246120	0.686212
C179	C	0.549077	0.246758	0.740416
H180	H	0.512934	0.284059	0.671311
H181	H	0.543550	0.222982	0.658848
H182	H	0.485229	0.230887	0.691713
H183	H	0.584242	0.261984	0.734913
H184	H	0.525925	0.269899	0.767779
H185	H	0.404512	-0.017441	0.000056
O186	O	0.251824	-0.079493	0.000076
C187	C	0.219114	-0.125783	0.000101
H188	H	0.174698	-0.111068	-0.018521
H189	H	0.214972	-0.141816	0.047297
C190	C	0.303528	-0.192640	-0.015599
C191	C	0.248978	-0.174568	-0.038475
H192	H	0.321950	-0.222734	-0.039391
H193	H	0.325567	-0.161454	-0.015613
H194	H	0.300069	-0.205997	0.023731
H195	H	0.252438	-0.161205	-0.077801
H196	H	0.226941	-0.205753	-0.038467
H197	H	0.580748	-0.193677	0.000069
H198	H	0.601653	0.144770	0.271413
O199	O	0.749108	-0.002637	0.154280
C200	C	0.783491	-0.036983	0.194882
H201	H	0.760145	-0.037509	0.239021
H202	H	0.825690	-0.018706	0.201466
C203	C	0.824252	-0.097836	0.116503
C204	C	0.795577	-0.098486	0.170714
H205	H	0.831711	-0.135773	0.101595
H206	H	0.801090	-0.074695	0.089149
H207	H	0.859416	-0.082602	0.121997
H208	H	0.760412	-0.113713	0.165218
H209	H	0.818734	-0.121631	0.198067
H210	H	0.138375	-0.072634	0.000103
H211	H	0.582043	-0.085909	0.000065
H212	H	0.512280	-0.016146	0.000054
O213	O	0.595602	0.150909	0.154147
C214	C	0.625895	0.185901	0.118337
H215	H	0.670590	0.162998	0.109062
H216	H	0.629516	0.227978	0.142195
C217	C	0.538823	0.226357	0.070911
C218	C	0.593716	0.198224	0.059516
H219	H	0.518973	0.233961	0.034629
H220	H	0.518413	0.202784	0.095039
H221	H	0.541848	0.261418	0.090795
H222	H	0.590690	0.163161	0.039640
H223	H	0.614125	0.221792	0.035384
O224	O	0.373151	0.179124	0.000009
C225	C	0.405867	0.225410	0.000011
H226	H	0.450282	0.210684	-0.018610
H227	H	0.410009	0.241460	0.047199
C228	C	0.321459	0.292269	-0.015708
C229	C	0.376009	0.274183	-0.038582
H230	H	0.303041	0.322356	-0.039511
H231	H	0.299417	0.261086	-0.015707
H232	H	0.324918	0.305640	0.023616
H233	H	0.372549	0.260806	-0.077902
H234	H	0.398050	0.305366	-0.038591
H235	H	0.742973	0.003516	0.271379
H236	H	0.781929	-0.035414	0.443878
H237	H	0.206289	0.220908	0.000035
O238	O	0.749143	-0.002678	0.723929
C239	C	0.783528	-0.037019	0.764533
H240	H	0.760185	-0.037540	0.808673
H241	H	0.825728	-0.018740	0.771112
C242	C	0.824288	-0.097881	0.686160
C243	C	0.795615	-0.098525	0.740373
H244	H	0.831746	-0.135820	0.671256
H245	H	0.801124	-0.074744	0.658804
H246	H	0.859451	-0.082646	0.691650
H247	H	0.760450	-0.113753	0.734881
H248	H	0.818773	-0.121666	0.767728
H249	H	0.743008	0.003492	0.841044
H250	H	0.770443	-0.111587	0.000092
O251	O	0.595549	0.150772	0.845986
C252	C	0.560579	0.120450	0.881791
H253	H	0.583515	0.075769	0.891068
H254	H	0.518513	0.116793	0.857927
C255	C	0.520050	0.207501	0.929212
C256	C	0.548222	0.152624	0.940611
H257	H	0.512425	0.227348	0.965494
H258	H	0.543608	0.227930	0.905088
H259	H	0.484999	0.204446	0.909325
H260	H	0.583276	0.155680	0.960491
H261	H	0.524669	0.132196	0.964740
O262	O	0.092844	0.227771	0.000015
C263	C	0.125562	0.274056	0.000021
H264	H	0.169979	0.259328	-0.018596
H265	H	0.129701	0.290106	0.047210
C266	C	0.041158	0.340918	-0.015704
C267	C	0.095709	0.322830	-0.038574
H268	H	0.022742	0.371006	-0.039509
H269	H	0.019114	0.309736	-0.015706
H270	H	0.044614	0.354289	0.023620
H271	H	0.092251	0.309453	-0.077894
H272	H	0.117751	0.354012	-0.038580
O273	O	0.556533	0.189795	0.560997
C274	C	0.522169	0.224152	0.520389
H275	H	0.521666	0.200800	0.476253
H276	H	0.540415	0.266369	0.513800
C277	C	0.461282	0.264879	0.598758
C278	C	0.460660	0.236196	0.544551
H279	H	0.423341	0.272312	0.613663
H280	H	0.484434	0.241734	0.626117
H281	H	0.476489	0.300057	0.593260
H282	H	0.445460	0.201017	0.550051
H283	H	0.437504	0.259336	0.517193
O284	O	0.556661	0.189799	0.438968
C285	C	0.586954	0.224796	0.403163
H286	H	0.631646	0.201890	0.393878
H287	H	0.590583	0.266866	0.427030
C288	C	0.499879	0.265271	0.355756
C289	C	0.554769	0.237135	0.344348
H290	H	0.480025	0.272886	0.319477
H291	H	0.479469	0.241695	0.379880
H292	H	0.502911	0.300327	0.375647
H293	H	0.551736	0.202078	0.324464
H294	H	0.575178	0.260706	0.320219
H295	H	0.769159	-0.219337	0.000071
H296	H	-0.167632	0.164421	0.000059
