data_functionalizedCrystal
_audit_creation_method	'MofGen! by Chris Wilmer'
_symmetry_space_group_name_H-M	'P1'
_symmetry_Int_Tables_number	1
_symmetry_cell_setting	triclinic
loop_
_symmetry_equiv_pos_as_xyz
  x,y,z
_cell_length_a	19.077105
_cell_length_b	12.759400
_cell_length_c	19.076919
_cell_angle_alpha	87.723966
_cell_angle_beta	89.923776
_cell_angle_gamma	87.709695
loop_
_atom_site_label
_atom_site_type_symbol
_atom_site_fract_x
_atom_site_fract_y
_atom_site_fract_z
Zn1	Zn	1.058336	-0.508277	0.440443
Zn2	Zn	1.391670	-0.174944	0.773776
Zn3	Zn	1.725003	0.158390	1.107110
Zn4	Zn	1.062998	-0.677204	0.322945
Zn5	Zn	1.396332	-0.343871	0.656278
Zn6	Zn	1.729665	-0.010537	0.989611
Zn7	Zn	0.945552	-0.494202	0.318236
Zn8	Zn	1.278886	-0.160869	0.651569
Zn9	Zn	1.612219	0.172464	0.984902
Zn10	Zn	0.940820	-0.676571	0.435697
Zn11	Zn	1.274153	-0.343237	0.769031
Zn12	Zn	1.607487	-0.009904	1.102364
O13	O	1.001927	-0.589064	0.379330
O14	O	1.335260	-0.255730	0.712664
O15	O	1.668593	0.077603	1.045997
O16	O	1.157287	-0.536841	0.428814
O17	O	1.490621	-0.203507	0.762147
O18	O	1.823954	0.129826	1.095480
O19	O	1.051350	-0.647304	0.223988
O20	O	1.384684	-0.313970	0.557322
O21	O	1.718017	0.019363	0.890655
O22	O	0.960543	-0.349051	0.334462
O23	O	1.293876	-0.015718	0.667796
O24	O	1.627210	0.317616	1.001129
O25	O	1.160712	-0.660951	0.342488
O26	O	1.494046	-0.327618	0.675821
O27	O	1.827379	0.005716	1.009155
O28	O	1.043405	-0.359392	0.424247
O29	O	1.376738	-0.026058	0.757581
O30	O	1.710072	0.307275	1.090914
O31	O	0.965063	-0.512853	0.220529
O32	O	1.298397	-0.179520	0.553862
O33	O	1.631730	0.153814	0.887196
O34	O	0.846592	-0.512239	0.329860
O35	O	1.179925	-0.178905	0.663194
O36	O	1.513259	0.154428	0.996527
O37	O	0.952477	-0.659871	0.534658
O38	O	1.285810	-0.326538	0.867992
O39	O	1.619144	0.006796	1.201325
O40	O	0.843115	-0.646224	0.416159
O41	O	1.176448	-0.312890	0.749492
O42	O	1.509782	0.020443	1.082826
O43	O	1.038816	-0.536226	0.538145
O44	O	1.372149	-0.202893	0.871478
O45	O	1.705483	0.130440	1.204812
O46	O	1.046762	-0.824138	0.337886
O47	O	1.380095	-0.490805	0.671219
O48	O	1.713428	-0.157472	1.004553
O49	O	0.956998	-0.823673	0.420725
O50	O	1.290331	-0.490340	0.754058
O51	O	1.623664	-0.157006	1.087392
C52	C	0.819357	-0.577636	0.371984
C53	C	1.152690	-0.244303	0.705317
C54	C	1.486024	0.089031	1.038651
C55	C	0.741252	-0.572773	0.368858
C56	C	1.074586	-0.239440	0.702191
C57	C	1.407919	0.093893	1.035525
C58	C	0.702769	-0.640345	0.412250
C59	C	1.036103	-0.307012	0.745583
C60	C	1.369436	0.026322	1.078916
C61	C	0.629382	-0.635763	0.409316
C62	C	0.962715	-0.302429	0.742649
C63	C	1.296048	0.030904	1.075983
C64	C	0.594478	-0.563613	0.362986
C65	C	0.927811	-0.230280	0.696320
C66	C	1.261145	0.103054	1.029653
C67	C	0.632966	-0.496034	0.319593
C68	C	0.966299	-0.162701	0.652926
C69	C	1.299633	0.170633	0.986259
C70	C	0.706352	-0.500612	0.322531
C71	C	1.039686	-0.167279	0.655864
C72	C	1.373019	0.166055	0.989197
C73	C	0.375188	-0.542425	0.349393
C74	C	0.708521	-0.209092	0.682726
C75	C	1.041855	0.124242	1.016059
C76	C	0.301796	-0.537854	0.346457
C77	C	0.635130	-0.204521	0.679790
C78	C	0.968463	0.128813	1.013123
C79	C	0.298217	-0.677582	0.436181
C80	C	0.631550	-0.344249	0.769514
C81	C	0.964884	-0.010915	1.102848
C82	C	0.371605	-0.682158	0.439112
C83	C	0.704938	-0.348825	0.772445
C84	C	1.038272	-0.015491	1.105778
C85	C	0.410086	-0.614575	0.395721
C86	C	0.743420	-0.281242	0.729054
C87	C	1.076753	0.052091	1.062388
N88	N	0.519464	-0.558929	0.359985
N89	N	0.852797	-0.225596	0.693318
N90	N	1.186130	0.107737	1.026651
N91	N	0.485099	-0.619255	0.398726
N92	N	0.818432	-0.285921	0.732060
N93	N	1.151766	0.047412	1.065393
C94	C	1.001890	-0.862028	0.379318
C95	C	1.335224	-0.528695	0.712651
C96	C	1.668557	-0.195361	1.045984
C97	C	1.001938	-0.978809	0.379338
C98	C	1.335271	-0.645475	0.712672
C99	C	1.668605	-0.312142	1.046005
C100	C	1.045060	-1.038976	0.426125
C101	C	1.378394	-0.705643	0.759459
C102	C	1.711727	-0.372309	1.092792
C103	C	1.045092	-1.148703	0.426144
C104	C	1.378426	-0.815370	0.759477
C105	C	1.711759	-0.482036	1.092810
C106	C	0.958878	-1.138085	0.332582
C107	C	1.292212	-0.804752	0.665915
C108	C	1.625545	-0.471419	0.999249
C109	C	0.958843	-1.028360	0.332568
C110	C	1.292176	-0.695027	0.665901
C111	C	1.625510	-0.361694	0.999234
C112	C	1.088155	-0.989424	0.472896
C113	C	1.421489	-0.656091	0.806230
C114	C	1.754822	-0.322758	1.139563
C115	C	1.131282	-1.049592	0.519687
C116	C	1.464615	-0.716259	0.853020
C117	C	1.797948	-0.382925	1.186353
C118	C	1.131314	-1.159319	0.519705
C119	C	1.464647	-0.825986	0.853038
C120	C	1.797980	-0.492652	1.186372
C121	C	1.088219	-1.208878	0.472933
C122	C	1.421553	-0.875545	0.806266
C123	C	1.754886	-0.542212	1.139600
C124	C	1.185209	-0.600536	0.386705
C125	C	1.518543	-0.267203	0.720039
C126	C	1.851876	0.066130	1.053372
C127	C	1.263313	-0.605426	0.389848
C128	C	1.596647	-0.272092	0.723182
C129	C	1.929980	0.061241	1.056515
C130	C	0.994599	-0.599548	0.562611
C131	C	1.327932	-0.266215	0.895944
C132	C	1.661265	0.067119	1.229278
C133	C	0.991476	-0.604016	0.640714
C134	C	1.324809	-0.270683	0.974048
C135	C	1.658143	0.062651	1.307381
C136	C	1.001982	-0.315035	0.379359
C137	C	1.335315	0.018298	0.712692
C138	C	1.668648	0.351631	1.046026
C139	C	1.002005	-0.198261	0.379371
C140	C	1.335339	0.135073	0.712705
C141	C	1.668672	0.468406	1.046038
C142	C	1.009267	-0.578547	0.196764
C143	C	1.342600	-0.245213	0.530097
C144	C	1.675933	0.088120	0.863431
C145	C	1.012526	-0.573791	0.118667
C146	C	1.345859	-0.240458	0.452000
C147	C	1.679192	0.092875	0.785333
C148	C	1.034959	-0.541743	0.679224
C149	C	1.368292	-0.208409	1.012557
C150	C	1.701625	0.124924	1.345890
C151	C	1.032016	-0.545936	0.752610
C152	C	1.365349	-0.212603	1.085943
C153	C	1.698682	0.120731	1.419276
C154	C	0.985593	-0.612409	0.787485
C155	C	1.318927	-0.279076	1.120818
C156	C	1.652260	0.054258	1.454152
C157	C	0.942106	-0.674685	0.748970
C158	C	1.275439	-0.341351	1.082304
C159	C	1.608773	-0.008018	1.415637
C160	C	0.945046	-0.670485	0.675585
C161	C	1.278379	-0.337152	1.008919
C162	C	1.611712	-0.003818	1.342252
C163	C	0.971978	-0.631867	1.006767
C164	C	1.305311	-0.298534	1.340100
C165	C	1.638645	0.034800	1.673434
C166	C	0.969043	-0.636064	1.080157
C167	C	1.302376	-0.302731	1.413491
C168	C	1.635710	0.030602	1.746824
C169	C	1.058952	-0.507314	1.083792
C170	C	1.392286	-0.173981	1.417125
C171	C	1.725619	0.159353	1.750458
C172	C	1.061891	-0.503125	1.010405
C173	C	1.395224	-0.169791	1.343739
C174	C	1.728557	0.163542	1.677072
C175	C	1.018401	-0.565396	0.971897
C176	C	1.351734	-0.232063	1.305230
C177	C	1.685067	0.101270	1.638564
N178	N	0.982586	-0.616700	0.862497
N179	N	1.315919	-0.283366	1.195831
N180	N	1.649253	0.049967	1.529164
N181	N	1.021405	-0.561100	0.896886
N182	N	1.354739	-0.227766	1.230219
N183	N	1.688072	0.105567	1.563552
H184	H	0.731183	-0.699101	0.449974
H185	H	1.064516	-0.365767	0.783307
H186	H	1.397849	-0.032434	1.116641
H187	H	0.400018	-0.740912	0.476837
H188	H	0.733352	-0.407579	0.810170
H189	H	1.066685	-0.074246	1.143503
H190	H	1.099695	-0.448998	0.982015
H191	H	1.433028	-0.115665	1.315348
H192	H	1.766361	0.217668	1.648682
H193	H	0.598052	-0.690788	0.444649
H194	H	0.931385	-0.357454	0.777983
H195	H	1.264719	-0.024121	1.111316
H196	H	0.266877	-0.732602	0.471508
H197	H	0.600211	-0.399269	0.804842
H198	H	0.933544	-0.065936	1.138175
H199	H	1.094358	-0.456615	1.115153
H200	H	1.427692	-0.123281	1.448486
H201	H	1.761025	0.210052	1.781820
H202	H	0.273380	-0.479089	0.308734
H203	H	0.606713	-0.145756	0.642067
H204	H	0.940047	0.187578	0.975400
H205	H	1.088241	-1.298226	0.472960
H206	H	1.421574	-0.964893	0.806293
H207	H	1.754907	-0.631559	1.139626
H208	H	0.604542	-0.437284	0.281873
H209	H	0.937875	-0.103950	0.615207
H210	H	1.271208	0.229383	0.948540
H211	H	0.923793	-1.178446	0.294502
H212	H	1.257127	-0.845112	0.627836
H213	H	1.590460	-0.511779	0.961169
H214	H	0.923728	-0.979371	0.294470
H215	H	1.257062	-0.646038	0.627803
H216	H	1.590395	-0.312705	0.961136
H217	H	0.909630	-0.721183	0.644231
H218	H	1.242964	-0.387850	0.977565
H219	H	1.576297	-0.054517	1.310898
H220	H	0.737684	-0.445583	0.287200
H221	H	1.071017	-0.112249	0.620533
H222	H	1.404351	0.221084	0.953867
H223	H	0.406511	-0.487402	0.314055
H224	H	0.739844	-0.154069	0.647389
H225	H	1.073178	0.179265	0.980722
H226	H	0.931238	-0.690197	1.108550
H227	H	1.264572	-0.356864	1.441884
H228	H	1.597905	-0.023530	1.775217
H229	H	1.088136	-0.900080	0.472885
H230	H	1.421469	-0.566746	0.806218
H231	H	1.754802	-0.233413	1.139552
H232	H	1.166364	-1.009235	0.557771
H233	H	1.499697	-0.675902	0.891104
H234	H	1.833030	-0.342568	1.224437
H235	H	1.166423	-1.208305	0.557809
H236	H	1.499757	-0.874972	0.891142
H237	H	1.833090	-0.541638	1.224476
H238	H	1.072763	-0.487616	0.650834
H239	H	1.406096	-0.154283	0.984167
H240	H	1.739429	0.179050	1.317500
H241	H	1.067426	-0.495229	0.783961
H242	H	1.400759	-0.161896	1.117295
H243	H	1.734092	0.171437	1.450628
H244	H	0.936576	-0.682589	0.975423
H245	H	1.269909	-0.349256	1.308756
H246	H	1.603242	-0.015922	1.642089
H247	H	0.904305	-0.728804	0.777371
H248	H	1.237639	-0.395471	1.110705
H249	H	1.570972	-0.062138	1.444038
