data_functionalizedCrystal
_audit_creation_method	'MofGen! by Chris Wilmer'
_symmetry_space_group_name_H-M	'P1'
_symmetry_Int_Tables_number	1
_symmetry_cell_setting	triclinic
loop_
_symmetry_equiv_pos_as_xyz
  x,y,z
_cell_length_a	27.732048
_cell_length_b	26.210047
_cell_length_c	27.732048
_cell_angle_alpha	89.999521
_cell_angle_beta	97.357345
_cell_angle_gamma	90.003465
loop_
_atom_site_label
_atom_site_type_symbol
_atom_site_fract_x
_atom_site_fract_y
_atom_site_fract_z
O1	O	0.640931	0.042369	-0.057510
O2	O	1.140931	0.542369	0.442490
O3	O	0.500138	0.042385	-0.066256
O4	O	1.000138	0.542385	0.433744
O5	O	0.574907	0.042367	0.008514
O6	O	1.074907	0.542367	0.508514
O7	O	0.566162	0.042387	-0.132279
O8	O	1.066162	0.542387	0.367721
O9	O	0.574893	-0.042491	0.008502
O10	O	1.074893	0.457509	0.508502
O11	O	0.500123	-0.042473	-0.066267
O12	O	1.000123	0.457527	0.433733
O13	O	0.640917	-0.042489	-0.057522
O14	O	1.140917	0.457511	0.442478
Cu15	Cu	0.570519	-0.050229	-0.061896
Cu16	Cu	1.070519	0.449771	0.438104
Cu17	Cu	0.570536	0.050125	-0.061882
Cu18	Cu	1.070536	0.550125	0.438118
O19	O	0.566147	-0.042471	-0.132291
O20	O	1.066147	0.457529	0.367709
C21	C	0.482124	-0.000042	-0.066078
C22	C	0.982124	0.499958	0.433922
C23	C	0.428469	-0.000036	-0.065525
C24	C	0.928469	0.499964	0.434475
N25	N	0.570510	-0.120813	-0.061905
N26	N	1.070510	0.379187	0.438095
C27	C	0.089654	-0.000053	-0.106229
C28	C	0.589654	0.499947	0.393771
C29	C	-0.112006	-0.000057	-0.104178
C30	C	0.387994	0.499943	0.395822
O31	O	-0.143262	-0.000074	-0.141398
O32	O	0.356738	0.499926	0.358602
N33	N	-0.131130	-0.000063	-0.059843
N34	N	0.368870	0.499937	0.440157
C35	C	-0.099835	-0.000071	-0.016017
C36	C	0.400165	0.499929	0.483983
O37	O	-0.120728	-0.000081	0.021740
O38	O	0.379272	0.499919	0.521740
C39	C	0.101824	-0.000069	-0.018068
C40	C	0.601824	0.499931	0.481932
C41	C	0.120944	-0.000059	-0.062407
C42	C	0.620944	0.499941	0.437593
C43	C	0.108775	-0.000043	-0.150563
C44	C	0.608775	0.499957	0.349437
C45	C	0.159187	-0.000039	-0.151076
C46	C	0.659187	0.499961	0.348924
C47	C	0.190477	-0.000045	-0.107253
C48	C	0.690477	0.499955	0.392747
C49	C	0.171356	-0.000055	-0.062919
C50	C	0.671356	0.499945	0.437081
C51	C	0.133117	-0.000081	0.025757
C52	C	0.633117	0.499919	0.525757
C53	C	0.183535	-0.000082	0.025240
C54	C	0.683535	0.499918	0.525240
C55	C	0.202655	-0.000071	-0.019098
C56	C	0.702655	0.499929	0.480902
C57	C	0.253059	-0.000057	-0.019609
C58	C	0.753059	0.499943	0.480391
N59	N	0.272183	-0.000051	-0.063944
N60	N	0.772183	0.499949	0.436056
C61	C	0.240892	-0.000045	-0.107766
C62	C	0.740892	0.499955	0.392234
C63	C	-0.205709	-0.000070	-0.014943
C64	C	0.294291	0.499930	0.485057
C65	C	-0.256124	-0.000070	-0.014430
C66	C	0.243876	0.499930	0.485570
C67	C	-0.268291	-0.000057	-0.102591
C68	C	0.231709	0.499943	0.397409
C69	C	-0.217876	-0.000054	-0.103104
C70	C	0.282124	0.499946	0.396896
C71	C	-0.186585	-0.000065	-0.059278
C72	C	0.313415	0.499935	0.440722
C73	C	0.346761	-0.000036	-0.108839
C74	C	0.846761	0.499964	0.391161
C75	C	0.397178	-0.000030	-0.109347
C76	C	0.897178	0.499970	0.390653
C77	C	0.409341	-0.000045	-0.021186
C78	C	0.909341	0.499955	0.478814
C79	C	0.358929	-0.000049	-0.020678
C80	C	0.858929	0.499951	0.479322
C81	C	0.327639	-0.000046	-0.064508
C82	C	0.827639	0.499954	0.435492
O83	O	0.284343	-0.000046	0.017592
O84	O	0.784343	0.499954	0.517592
O85	O	0.261794	-0.000047	-0.145518
O86	O	0.761794	0.499953	0.354482
C87	C	0.039242	-0.000057	-0.105716
C88	C	0.539242	0.499943	0.394284
C89	C	0.020120	-0.000067	-0.061382
C90	C	0.520120	0.499933	0.438618
C91	C	0.051411	-0.000073	-0.017560
C92	C	0.551411	0.499927	0.482440
C93	C	-0.030294	-0.000066	-0.060869
C94	C	0.469706	0.499934	0.439131
C95	C	-0.061585	-0.000060	-0.104691
C96	C	0.438415	0.499940	0.395309
C97	C	-0.042461	-0.000054	-0.149026
C98	C	0.457539	0.499946	0.350974
C99	C	0.007951	-0.000050	-0.149539
C100	C	0.507951	0.499950	0.350461
C101	C	0.032287	-0.000078	0.026775
C102	C	0.532287	0.499922	0.526775
C103	C	-0.018125	-0.000082	0.027284
C104	C	0.481875	0.499918	0.527284
C105	C	-0.049416	-0.000076	-0.016538
C106	C	0.450584	0.499924	0.483462
C107	C	0.603640	-0.473336	-0.028781
C108	C	1.103640	0.026664	0.471219
C109	C	0.603651	-0.686994	-0.028774
C110	C	1.103651	-0.186994	0.471226
O111	O	0.631801	-0.714623	-0.000614
O112	O	1.131801	-0.214623	0.499386
N113	N	0.570538	-0.713707	-0.061871
N114	N	1.070538	-0.213707	0.438129
C115	C	0.537419	-0.687003	-0.094970
C116	C	1.037419	-0.187003	0.405030
O117	O	0.509251	-0.714626	-0.123117
O118	O	1.009251	-0.214626	0.376883
C119	C	0.537406	-0.473345	-0.094974
C120	C	1.037406	0.026655	0.405026
C121	C	0.570524	-0.446635	-0.061878
C122	C	1.070524	0.053365	0.438122
C123	C	0.636755	-0.446625	0.004312
C124	C	1.136755	0.053375	0.504312
C125	C	0.636754	-0.393214	0.004308
C126	C	1.136754	0.106786	0.504308
C127	C	0.603638	-0.366513	-0.028789
C128	C	1.103638	0.133487	0.471211
C129	C	0.570523	-0.393223	-0.061882
C130	C	1.070523	0.106777	0.438118
C131	C	0.504284	-0.446641	-0.128070
C132	C	1.004284	0.053359	0.371930
C133	C	0.504283	-0.393223	-0.128067
C134	C	1.004283	0.106777	0.371933
C135	C	0.537401	-0.366513	-0.094971
C136	C	1.037401	0.133487	0.405029
C137	C	0.537405	-0.313111	-0.094983
C138	C	1.037405	0.186889	0.405017
N139	N	0.570518	-0.286397	-0.061886
N140	N	1.070518	0.213603	0.438114
C141	C	0.603634	-0.313098	-0.028789
C142	C	1.103634	0.186902	0.471211
C143	C	0.537428	-0.799176	-0.094966
C144	C	1.037428	-0.299176	0.405034
C145	C	0.537432	-0.852590	-0.094965
C146	C	1.037432	-0.352590	0.405035
C147	C	0.603664	-0.852578	-0.028769
C148	C	1.103664	-0.352578	0.471231
C149	C	0.603662	-0.799163	-0.028773
C150	C	1.103662	-0.299163	0.471227
C151	C	0.570541	-0.772463	-0.061869
C152	C	1.070541	-0.272463	0.438131
C153	C	0.603629	-0.200931	-0.028800
C154	C	1.103629	0.299069	0.471200
C155	C	0.603626	-0.147514	-0.028808
C156	C	1.103626	0.352486	0.471192
C157	C	0.537393	-0.147531	-0.095002
C158	C	1.037393	0.352469	0.404998
C159	C	0.537397	-0.200943	-0.094996
C160	C	1.037397	0.299057	0.405004
C161	C	0.570517	-0.227641	-0.061891
C162	C	1.070517	0.272359	0.438109
O163	O	0.509267	-0.285449	-0.123125
O164	O	1.009267	0.214551	0.376875
O165	O	0.631790	-0.285466	-0.000639
O166	O	1.131790	0.214534	0.499361
C167	C	0.603641	-0.526747	-0.028777
C168	C	1.103641	-0.026747	0.471223
C169	C	0.570527	-0.553457	-0.061871
C170	C	1.070527	-0.053457	0.438129
C171	C	0.537410	-0.526756	-0.094968
C172	C	1.037410	-0.026756	0.405032
C173	C	0.570530	-0.606872	-0.061870
C174	C	1.070530	-0.106872	0.438130
C175	C	0.603646	-0.633573	-0.028773
C176	C	1.103646	-0.133573	0.471227
C177	C	0.636759	-0.606859	0.004323
C178	C	1.136759	-0.106859	0.504323
C179	C	0.636758	-0.553448	0.004320
C180	C	1.136758	-0.053448	0.504320
C181	C	0.504298	-0.553470	-0.128064
C182	C	1.004298	-0.053470	0.371936
C183	C	0.504302	-0.606881	-0.128058
C184	C	1.004302	-0.106881	0.371942
C185	C	0.537418	-0.633582	-0.094961
C186	C	1.037418	-0.133582	0.405039
C187	C	0.658931	-0.000061	-0.057699
C188	C	1.158931	0.499939	0.442301
C189	C	0.712586	-0.000064	-0.058252
C190	C	1.212586	0.499936	0.441748
C191	C	0.574716	-0.000064	0.026515
C192	C	1.074716	0.499936	0.526515
C193	C	0.574164	-0.000068	0.080170
C194	C	1.074164	0.499932	0.580170
N195	N	0.570548	0.120709	-0.061868
N196	N	1.070548	0.620709	0.438132
C197	C	0.566338	-0.000040	-0.150292
C198	C	1.066338	0.499960	0.349708
C199	C	0.566891	-0.000032	-0.203947
C200	C	1.066891	0.499968	0.296053
C201	C	0.614867	-0.000046	0.418985
C202	C	1.114867	0.499954	0.918985
C203	C	0.612816	-0.000039	0.620645
C204	C	1.112816	0.499961	1.120645
O205	O	0.650037	-0.000021	0.651900
O206	O	1.150037	0.499979	1.151900
N207	N	0.568481	-0.000034	0.639768
N208	N	1.068481	0.499966	1.139768
C209	C	0.524656	-0.000028	0.608474
C210	C	1.024656	0.499972	1.108474
O211	O	0.486899	-0.000019	0.629367
O212	O	0.986899	0.499981	1.129367
C213	C	0.526707	-0.000032	0.406815
C214	C	1.026707	0.499968	0.906815
C215	C	0.571045	-0.000042	0.387694
C216	C	1.071045	0.499958	0.887694
C217	C	0.659202	-0.000056	0.399864
C218	C	1.159202	0.499944	0.899864
C219	C	0.659714	-0.000060	0.349452
C220	C	1.159714	0.499940	0.849452
C221	C	0.615892	-0.000056	0.318161
C222	C	1.115892	0.499944	0.818161
C223	C	0.571557	-0.000046	0.337282
C224	C	1.071557	0.499954	0.837282
C225	C	0.482882	-0.000022	0.375521
C226	C	0.982882	0.499978	0.875521
C227	C	0.483399	-0.000022	0.325104
C228	C	0.983399	0.499978	0.825104
C229	C	0.527737	-0.000032	0.305983
C230	C	1.027737	0.499968	0.805983
C231	C	0.528247	-0.000046	0.255580
C232	C	1.028247	0.499954	0.755580
N233	N	0.572583	-0.000051	0.236456
N234	N	1.072583	0.499949	0.736456
C235	C	0.616405	-0.000056	0.267747
C236	C	1.116405	0.499944	0.767747
C237	C	0.523582	-0.000027	0.714348
C238	C	1.023582	0.499973	1.214348
C239	C	0.523069	-0.000027	0.764762
C240	C	1.023069	0.499973	1.264762
C241	C	0.611230	-0.000037	0.776930
C242	C	1.111230	0.499963	1.276930
C243	C	0.611742	-0.000041	0.726514
C244	C	1.111742	0.499959	1.226514
C245	C	0.567917	-0.000032	0.695224
C246	C	1.067917	0.499968	1.195224
C247	C	0.617477	-0.000066	0.161878
C248	C	1.117477	0.499934	0.661878
C249	C	0.617986	-0.000073	0.111461
C250	C	1.117986	0.499927	0.611461
C251	C	0.529825	-0.000060	0.099298
C252	C	1.029825	0.499940	0.599298
C253	C	0.529316	-0.000056	0.149710
C254	C	1.029316	0.499944	0.649710
C255	C	0.573147	-0.000057	0.180999
C256	C	1.073147	0.499943	0.680999
O257	O	0.491047	-0.000059	0.224296
O258	O	0.991047	0.499941	0.724296
O259	O	0.654156	-0.000054	0.246844
O260	O	1.154156	0.499946	0.746844
C261	C	0.614355	-0.000042	0.469397
C262	C	1.114355	0.499958	0.969397
C263	C	0.570021	-0.000033	0.488518
C264	C	1.070021	0.499967	0.988518
C265	C	0.526198	-0.000028	0.457228
C266	C	1.026198	0.499972	0.957228
C267	C	0.569508	-0.000033	0.538933
C268	C	1.069508	0.499967	1.038933
C269	C	0.613330	-0.000037	0.570223
C270	C	1.113330	0.499963	1.070223
C271	C	0.657665	-0.000042	0.551100
C272	C	1.157665	0.499958	1.051100
C273	C	0.658177	-0.000046	0.500688
C274	C	1.158177	0.499954	1.000688
C275	C	0.481863	-0.000023	0.476351
C276	C	0.981863	0.499977	0.976351
C277	C	0.481355	-0.000019	0.526764
C278	C	0.981355	0.499981	1.026764
C279	C	0.525177	-0.000024	0.558054
C280	C	1.025177	0.499976	1.058054
H281	H	0.321291	-0.000036	-0.144530
H282	H	0.821291	0.499964	0.355470
C283	C	0.434107	-0.000013	0.396542
C284	C	0.934107	0.499987	0.896542
C285	C	0.421610	-0.044075	0.429520
C286	C	0.921610	0.455925	0.929520
C287	C	0.372831	-0.044067	0.450537
C288	C	0.872831	0.455933	0.950537
C289	C	0.336547	0.000003	0.438576
C290	C	0.836547	0.500003	0.938576
C291	C	0.349043	0.044069	0.405595
C292	C	0.849043	0.544069	0.905595
C293	C	0.397822	0.044061	0.384578
C294	C	0.897822	0.544061	0.884578
H295	H	0.448470	-0.076702	0.438377
H296	H	0.948470	0.423298	0.938377
H297	H	0.363581	-0.076688	0.474952
H298	H	0.863581	0.423312	0.974952
H299	H	0.300438	0.000009	0.454134
H300	H	0.800438	0.500009	0.954134
H301	H	0.322183	0.076696	0.396739
H302	H	0.822183	0.576696	0.896739
H303	H	0.407072	0.076682	0.360164
H304	H	0.907072	0.576682	0.860164
C305	C	0.180212	-0.000036	-0.199850
C306	C	0.680212	0.499964	0.300150
C307	C	0.168247	-0.044100	-0.236143
C308	C	0.668247	0.455900	0.263857
C309	C	0.189266	-0.044101	-0.284922
C310	C	0.689266	0.455899	0.215078
C311	C	0.222251	-0.000037	-0.297407
C312	C	0.722251	0.499963	0.202593
C313	C	0.234217	0.044030	-0.261113
C314	C	0.734217	0.544030	0.238887
C315	C	0.213198	0.044031	-0.212335
C316	C	0.713198	0.544031	0.287665
H317	H	0.143829	-0.076721	-0.226901
H318	H	0.643829	0.423279	0.273099
H319	H	0.180408	-0.076723	-0.311789
H320	H	0.680408	0.423277	0.188211
H321	H	0.237810	-0.000038	-0.333516
H322	H	0.737810	0.499962	0.166484
H323	H	0.258636	0.076651	-0.270355
H324	H	0.758636	0.576651	0.229645
H325	H	0.222057	0.076653	-0.185468
H326	H	0.722057	0.576653	0.314532
H327	H	0.023514	-0.000042	-0.185643
H328	H	0.523514	0.499958	0.314357
C329	C	0.480547	-0.000048	0.170750
C330	C	0.980547	0.499952	0.670750
C331	C	0.444241	-0.044106	0.158807
C332	C	0.944241	0.455894	0.658807
C333	C	0.395472	-0.044092	0.179844
C334	C	0.895472	0.455908	0.679844
C335	C	0.383009	-0.000018	0.212824
C336	C	0.883009	0.499982	0.712824
C337	C	0.419316	0.044043	0.224768
C338	C	0.919316	0.544043	0.724768
C339	C	0.468085	0.044029	0.203731
C340	C	0.968085	0.544029	0.703731
H341	H	0.453466	-0.076735	0.134391
H342	H	0.953466	0.423265	0.634391
H343	H	0.368596	-0.076710	0.171001
H344	H	0.868596	0.423290	0.671001
H345	H	0.346907	-0.000008	0.228396
H346	H	0.846907	0.499992	0.728396
H347	H	0.410091	0.076672	0.249184
H348	H	0.910091	0.576672	0.749184
H349	H	0.494961	0.076647	0.212574
H350	H	0.994961	0.576647	0.712574
H351	H	-0.202311	-0.000049	-0.139207
H352	H	0.297689	0.499951	0.360793
H353	H	0.117558	-0.000090	0.061861
H354	H	0.617558	0.499910	0.561861
H355	H	0.477317	-0.468381	-0.155019
H356	H	0.977317	0.031619	0.344981
H357	H	0.477311	-0.371487	-0.155018
H358	H	0.977311	0.128513	0.344982
H359	H	0.447710	-0.000014	0.299629
H360	H	0.947710	0.499986	0.799629
C361	C	0.475369	-0.000025	0.679933
C362	C	0.975369	0.499975	1.179933
C363	C	0.438937	0.044040	0.681851
C364	C	0.938937	0.544040	1.181851
C365	C	0.390724	0.044039	0.647440
C366	C	0.890724	0.544039	1.147440
C367	C	0.378943	-0.000027	0.611110
C368	C	0.878943	0.499973	1.111110
C369	C	0.415376	-0.044094	0.609190
C370	C	0.915376	0.455906	1.109190
C371	C	0.463589	-0.044093	0.643602
C372	C	0.963589	0.455907	1.143602
H373	H	0.447657	0.076663	0.708746
H374	H	0.947657	0.576663	1.208746
H375	H	0.363754	0.076661	0.648861
H376	H	0.863754	0.576661	1.148861
H377	H	0.343252	-0.000027	0.585637
H378	H	0.843252	0.499973	1.085637
H379	H	0.406656	-0.076717	0.582296
H380	H	0.906656	0.423283	1.082296
H381	H	0.490559	-0.076715	0.642181
H382	H	0.990559	0.423285	1.142181
C383	C	0.217954	-0.000091	0.073450
C384	C	0.717954	0.499909	0.573450
C385	C	0.216038	-0.044163	0.109877
C386	C	0.716038	0.455837	0.609877
C387	C	0.250456	-0.044171	0.158086
C388	C	0.750456	0.455829	0.658086
C389	C	0.286790	-0.000107	0.169867
C390	C	0.786790	0.499893	0.669867
C391	C	0.288707	0.043968	0.133439
C392	C	0.788707	0.543968	0.633439
C393	C	0.254289	0.043976	0.085230
C394	C	0.754289	0.543976	0.585230
H395	H	0.189140	-0.076785	0.101157
H396	H	0.689140	0.423215	0.601157
H397	H	0.249037	-0.076799	0.185053
H398	H	0.749037	0.423201	0.685053
H399	H	0.312268	-0.000113	0.205555
H400	H	0.812268	0.499887	0.705555
H401	H	0.315604	0.076589	0.142159
H402	H	0.815604	0.576589	0.642159
H403	H	0.255708	0.076603	0.058263
H404	H	0.755708	0.576603	0.558263
C405	C	0.500970	-0.230325	-0.131404
C406	C	1.000970	0.269675	0.368596
C407	C	0.445935	-0.222979	-0.130971
C408	C	0.945935	0.277021	0.369029
C409	C	0.409503	-0.252356	-0.167376
C410	C	0.909503	0.247644	0.332624
C411	C	0.428106	-0.289080	-0.204215
C412	C	0.928106	0.210920	0.295785
C413	C	0.483145	-0.296428	-0.204649
C414	C	0.983145	0.203572	0.295351
C415	C	0.519577	-0.267051	-0.168244
C416	C	1.019577	0.232949	0.331756
H417	H	0.432160	-0.195792	-0.103699
H418	H	0.932160	0.304208	0.396301
H419	H	0.368760	-0.246917	-0.167054
H420	H	0.868760	0.253083	0.332946
H421	H	0.401137	-0.310827	-0.231164
H422	H	0.901137	0.189173	0.268836
H423	H	0.496919	-0.323615	-0.231920
H424	H	0.996919	0.176385	0.268080
H425	H	0.560320	-0.272491	-0.168566
H426	H	1.060320	0.227509	0.331434
C427	C	-0.171294	-0.000076	0.033270
C428	C	0.328706	0.499924	0.533270
C429	C	-0.173216	-0.044142	0.069702
C430	C	0.326784	0.455858	0.569702
C431	C	-0.138805	-0.044144	0.117915
C432	C	0.361195	0.455856	0.617915
C433	C	-0.102471	-0.000080	0.129696
C434	C	0.397529	0.499920	0.629696
C435	C	-0.100548	0.043990	0.093262
C436	C	0.399452	0.543990	0.593262
C437	C	-0.134959	0.043992	0.045049
C438	C	0.365041	0.543992	0.545049
H439	H	-0.200114	-0.076764	0.060983
H440	H	0.299886	0.423236	0.560983
H441	H	-0.140229	-0.076767	0.144886
H442	H	0.359771	0.423233	0.644886
H443	H	-0.076998	-0.000081	0.165386
H444	H	0.423002	0.499919	0.665386
H445	H	-0.073650	0.076611	0.101981
H446	H	0.426350	0.576611	0.601981
H447	H	-0.133535	0.076615	0.018078
H448	H	0.366465	0.576615	0.518078
C449	C	0.500965	-0.118155	-0.131406
C450	C	1.000965	0.381845	0.368594
C451	C	0.500962	-0.059401	-0.131404
C452	C	1.000962	0.440599	0.368596
C453	C	0.464530	-0.030024	-0.167806
C454	C	0.964530	0.469976	0.332194
C455	C	0.428100	-0.059400	-0.204210
C456	C	0.928100	0.440600	0.295790
C457	C	0.428101	-0.118157	-0.204214
C458	C	0.928101	0.381843	0.295786
C459	C	0.464533	-0.147534	-0.167812
C460	C	0.964533	0.352466	0.332188
H461	H	0.527931	-0.037652	-0.104455
H462	H	1.027931	0.462348	0.395545
H463	H	0.464530	0.013472	-0.167804
H464	H	0.964530	0.513472	0.332196
H465	H	0.401131	-0.037654	-0.231157
H466	H	0.901131	0.462346	0.268843
H467	H	0.401132	-0.139906	-0.231163
H468	H	0.901132	0.360094	0.268837
H469	H	0.464534	-0.191030	-0.167814
H470	H	0.964534	0.308970	0.332186
H471	H	0.663725	-0.531704	0.031269
H472	H	1.163725	-0.031704	0.531269
H473	H	-0.293777	-0.000053	-0.138273
H474	H	0.206223	0.499947	0.361727
C475	C	0.706951	-0.000052	0.479660
C476	C	1.206951	0.499948	0.979660
C477	C	0.743239	-0.044118	0.491620
C478	C	1.243239	0.455882	0.991620
C479	C	0.792016	-0.044122	0.470597
C480	C	1.292016	0.455878	0.970597
C481	C	0.804504	-0.000060	0.437614
C482	C	1.304504	0.499940	0.937614
C483	C	0.768214	0.044010	0.425652
C484	C	1.268214	0.544010	0.925652
C485	C	0.719438	0.044014	0.446675
C486	C	1.219438	0.544014	0.946675
H487	H	0.733996	-0.076739	0.516037
H488	H	1.233996	0.423261	1.016037
H489	H	0.818879	-0.076746	0.479451
H490	H	1.318879	0.423254	0.979451
H491	H	0.840611	-0.000063	0.422051
H492	H	1.340611	0.499937	0.922051
H493	H	0.777458	0.076631	0.401235
H494	H	1.277458	0.576631	0.901235
H495	H	0.692574	0.076637	0.437821
H496	H	1.192574	0.576637	0.937821
C497	C	0.673187	-0.636237	0.040732
C498	C	1.173187	-0.136237	0.540732
C499	C	0.654572	-0.672958	0.077568
C500	C	1.154572	-0.172958	0.577568
C501	C	0.690996	-0.702339	0.113976
C502	C	1.190996	-0.202339	0.613976
C503	C	0.746033	-0.694998	0.113548
C504	C	1.246033	-0.194998	0.613548
C505	C	0.764650	-0.658275	0.076710
C506	C	1.264650	-0.158275	0.576710
C507	C	0.728227	-0.628894	0.040302
C508	C	1.228227	-0.128894	0.540302
H509	H	0.613828	-0.678394	0.077887
H510	H	1.113828	-0.178394	0.577887
H511	H	0.677214	-0.729524	0.141246
H512	H	1.177214	-0.229524	0.641246
H513	H	0.772996	-0.716747	0.140499
H514	H	1.272996	-0.216747	0.640499
H515	H	0.805395	-0.652839	0.076391
H516	H	1.305395	-0.152839	0.576391
H517	H	0.742009	-0.601710	0.013032
H518	H	1.242009	-0.101710	0.513032
C519	C	0.665690	-0.000071	0.196291
C520	C	1.165690	0.499929	0.696291
C521	C	0.702113	-0.044145	0.194374
C522	C	1.202113	0.455855	0.694374
C523	C	0.750325	-0.044154	0.228788
C524	C	1.250325	0.455846	0.728788
C525	C	0.762114	-0.000091	0.265118
C526	C	1.262114	0.499909	0.765118
C527	C	0.725690	0.043986	0.267036
C528	C	1.225690	0.543986	0.767036
C529	C	0.677478	0.043996	0.232622
C530	C	1.177478	0.543996	0.732622
H531	H	0.693387	-0.076766	0.167479
H532	H	1.193387	0.423234	0.667479
H533	H	0.777288	-0.076783	0.227367
H534	H	1.277288	0.423217	0.727367
H535	H	0.797803	-0.000098	0.290592
H536	H	1.297803	0.499902	0.790592
H537	H	0.734416	0.076608	0.293930
H538	H	1.234416	0.576608	0.793930
H539	H	0.650515	0.076625	0.234042
H540	H	1.150515	0.576625	0.734042
C541	C	0.074361	-0.000034	-0.198773
C542	C	0.574361	0.499966	0.301227
C543	C	0.076286	0.044040	-0.235197
C544	C	0.576286	0.544040	0.264803
C545	C	0.041876	0.044054	-0.283411
C546	C	0.541876	0.544054	0.216589
C547	C	0.005540	-0.000006	-0.295201
C548	C	0.505540	0.499994	0.204799
C549	C	0.003613	-0.044083	-0.258776
C550	C	0.503613	0.455917	0.241224
C551	C	0.038023	-0.044097	-0.210562
C552	C	0.538023	0.455903	0.289438
H553	H	0.103186	0.076659	-0.226471
H554	H	0.603186	0.576659	0.273529
H555	H	0.043303	0.076682	-0.310375
H556	H	0.543303	0.576682	0.189625
H557	H	-0.019932	0.000004	-0.330892
H558	H	0.480068	0.500004	0.169108
H559	H	-0.023286	-0.076702	-0.267503
H560	H	0.476714	0.423298	0.232497
H561	H	0.036596	-0.076726	-0.183598
H562	H	0.536596	0.423274	0.316402
C563	C	0.640090	-0.881956	0.007640
C564	C	1.140090	-0.381956	0.507640
C565	C	0.640086	-0.940709	0.007638
C566	C	1.140086	-0.440709	0.507638
C567	C	0.676507	-0.970090	0.044048
C568	C	1.176507	-0.470090	0.544048
C569	C	0.712931	-0.940718	0.080461
C570	C	1.212931	-0.440718	0.580461
C571	C	0.712936	-0.881961	0.080465
C572	C	1.212936	-0.381961	0.580465
C573	C	0.676515	-0.852580	0.044054
C574	C	1.176515	-0.352580	0.544054
H575	H	0.613121	-0.962456	-0.019318
H576	H	1.113121	-0.462456	0.480682
H577	H	0.676503	-1.013586	0.044045
H578	H	1.176503	-0.513586	0.544045
H579	H	0.739892	-0.962467	0.107414
H580	H	1.239892	-0.462467	0.607414
H581	H	0.739901	-0.860215	0.107421
H582	H	1.239901	-0.360215	0.607421
H583	H	0.676519	-0.809084	0.044057
H584	H	1.176519	-0.309084	0.544057
H585	H	0.510469	-0.874334	-0.121920
H586	H	1.010469	-0.374334	0.378080
C587	C	0.467869	-0.636260	-0.164466
C588	C	0.967869	-0.136260	0.335534
C589	C	0.412834	-0.628914	-0.164027
C590	C	0.912834	-0.128914	0.335973
C591	C	0.376400	-0.658290	-0.200430
C592	C	0.876400	-0.158290	0.299570
C593	C	0.395000	-0.695013	-0.237272
C594	C	0.895000	-0.195013	0.262728
C595	C	0.450037	-0.702360	-0.237712
C596	C	0.950037	-0.202360	0.262288
C597	C	0.486472	-0.672984	-0.201309
C598	C	0.986472	-0.172984	0.298691
H599	H	0.399063	-0.601728	-0.136754
H600	H	0.899063	-0.101728	0.363246
H601	H	0.335657	-0.652851	-0.200104
H602	H	0.835657	-0.152851	0.299896
H603	H	0.368028	-0.716759	-0.264220
H604	H	0.868028	-0.216759	0.235780
H605	H	0.463809	-0.729546	-0.264986
H606	H	0.963809	-0.229546	0.235014
H607	H	0.527215	-0.678423	-0.201635
H608	H	1.027215	-0.178423	0.298365
H609	H	0.647846	-0.000048	0.710950
H610	H	1.147846	0.499952	1.210950
H611	H	0.477330	-0.531734	-0.155015
H612	H	0.977330	-0.031734	0.344985
C613	C	0.705870	-0.000045	0.585526
C614	C	1.205870	0.499955	1.085526
C615	C	0.717630	-0.044107	0.621864
C616	C	1.217630	0.455893	1.121864
C617	C	0.765832	-0.044107	0.656292
C618	C	1.265832	0.455893	1.156292
C619	C	0.802274	-0.000046	0.654383
C620	C	1.302274	0.499954	1.154383
C621	C	0.790516	0.044019	0.618044
C622	C	1.290516	0.544019	1.118044
C623	C	0.742313	0.044019	0.583615
C624	C	1.242313	0.544019	1.083615
H625	H	0.690652	-0.076726	0.623278
H626	H	1.190652	0.423274	1.123278
H627	H	0.774536	-0.076727	0.683193
H628	H	1.274536	0.423273	1.183193
H629	H	0.837956	-0.000046	0.679869
H630	H	1.337956	0.499954	1.179869
H631	H	0.817493	0.076639	0.616629
H632	H	1.317493	0.576639	1.116629
H633	H	0.733609	0.076639	0.556715
H634	H	1.233609	0.576639	1.056715
C635	C	0.673179	-0.363835	0.040718
C636	C	1.173179	0.136165	0.540718
C637	C	0.672777	-0.371184	0.095758
C638	C	1.172777	0.128816	0.595758
C639	C	0.709202	-0.341809	0.132172
C640	C	1.209202	0.158191	0.632172
C641	C	0.746030	-0.305084	0.113545
C642	C	1.246030	0.194916	0.613545
C643	C	0.746433	-0.297733	0.058503
C644	C	1.246433	0.202267	0.558503
C645	C	0.710008	-0.327108	0.022089
C646	C	1.210008	0.172892	0.522089
H647	H	0.645514	-0.398372	0.109549
H648	H	1.145514	0.101628	0.609549
H649	H	0.708903	-0.347251	0.172918
H650	H	1.208903	0.152749	0.672918
H651	H	0.772994	-0.283339	0.140501
H652	H	1.272994	0.216661	0.640501
H653	H	0.773697	-0.270546	0.044712
H654	H	1.273697	0.229454	0.544712
H655	H	0.710307	-0.321666	-0.018657
H656	H	1.210307	0.178334	0.481343
H657	H	0.412743	-0.000021	-0.145454
H658	H	0.912743	0.499979	0.354546
H659	H	0.343360	-0.000050	0.015426
H660	H	0.843360	0.499950	0.515426
H661	H	-0.271687	-0.000070	0.021674
H662	H	0.228313	0.499930	0.521674
H663	H	0.434827	-0.000048	0.014492
H664	H	0.934827	0.499952	0.514492
C665	C	0.066702	-0.000081	0.074984
C666	C	0.566702	0.499919	0.574984
C667	C	0.064785	-0.044147	0.111418
C668	C	0.564785	0.455853	0.611418
C669	C	0.099197	-0.044145	0.159630
C670	C	0.599197	0.455855	0.659630
C671	C	0.135526	-0.000077	0.171409
C672	C	0.635526	0.499923	0.671409
C673	C	0.137445	0.043992	0.134975
C674	C	0.637445	0.543992	0.634975
C675	C	0.103033	0.043990	0.086762
C676	C	0.603033	0.543990	0.586762
H677	H	0.037890	-0.076772	0.102699
H678	H	0.537890	0.423228	0.602699
H679	H	0.097777	-0.076769	0.186601
H680	H	0.597777	0.423231	0.686601
H681	H	0.161001	-0.000076	0.207099
H682	H	0.661001	0.499924	0.707099
H683	H	0.164339	0.076617	0.143694
H684	H	0.664339	0.576617	0.643694
H685	H	0.104453	0.076614	0.059791
H686	H	0.604453	0.576614	0.559791
H687	H	-0.067947	-0.000047	-0.184708
H688	H	0.432053	0.499953	0.315292
H689	H	-0.033688	-0.000086	0.063392
H690	H	0.466312	0.499914	0.563392
H691	H	0.630597	-0.125768	-0.001858
H692	H	1.130597	0.374232	0.498142
H693	H	0.646911	-0.000041	0.802415
H694	H	1.146911	0.499959	1.302415
H695	H	0.630598	-0.222662	-0.001842
H696	H	1.130598	0.277338	0.498158
H697	H	0.663722	-0.468360	0.031266
H698	H	1.163722	0.031640	0.531266
H699	H	0.630629	-0.777418	-0.001823
H700	H	1.130629	-0.277418	0.498177
H701	H	0.510456	-0.777440	-0.121918
H702	H	1.010456	-0.277440	0.378082
H703	H	0.654093	-0.000082	0.095896
H704	H	1.154093	0.499918	0.595896
H705	H	0.695819	-0.000066	0.333889
H706	H	1.195819	0.499934	0.833889
H707	H	0.445246	-0.000016	0.542327
H708	H	0.945246	0.499984	1.042327
H709	H	0.694889	-0.000058	0.425336
H710	H	1.194889	0.499942	0.925336
H711	H	0.494146	-0.000058	0.073812
H712	H	0.994146	0.499942	0.573812
H713	H	0.486964	-0.000028	0.780325
H714	H	0.986964	0.499972	1.280325
H715	H	0.446177	-0.000018	0.450879
H716	H	0.946177	0.499982	0.950879
