data_functionalizedCrystal
_audit_creation_method	'MofGen! by Chris Wilmer'
_symmetry_space_group_name_H-M	'P1'
_symmetry_Int_Tables_number	1
_symmetry_cell_setting	triclinic
loop_
_symmetry_equiv_pos_as_xyz
  x,y,z
_cell_length_a	17.639617
_cell_length_b	12.594516
_cell_length_c	17.640968
_cell_angle_alpha	101.230308
_cell_angle_beta	109.666032
_cell_angle_gamma	101.197819
loop_
_atom_site_label
_atom_site_type_symbol
_atom_site_fract_x
_atom_site_fract_y
_atom_site_fract_z
Zn1	Zn	1.354366	0.140778	0.721237
Zn2	Zn	1.326429	-0.082343	0.583405
Zn3	Zn	1.188668	0.050580	0.555513
Zn4	Zn	1.216518	-0.082239	0.693288
O5	O	1.271495	0.006694	0.638361
O6	O	1.466003	0.148886	0.726324
O7	O	1.284808	-0.102502	0.464362
O8	O	1.210684	0.211507	0.577520
O9	O	1.445478	-0.015040	0.625059
O10	O	1.332422	0.277775	0.699278
O11	O	1.183595	-0.004844	0.443870
O12	O	1.077019	-0.004744	0.550419
O13	O	1.258151	-0.014864	0.812338
O14	O	1.097481	-0.102325	0.651641
O15	O	1.359427	0.148986	0.832872
O16	O	1.311813	-0.231291	0.597957
O17	O	1.231062	-0.231215	0.678687
C18	C	1.057343	-0.063312	0.594971
C19	C	0.965732	-0.093280	0.576428
C20	C	0.717912	0.234447	0.779432
C21	C	0.631826	0.206255	0.761992
C22	C	0.610444	0.035735	0.656393
C23	C	0.696531	0.063910	0.673827
C24	C	0.750258	0.163268	0.735347
C25	C	0.728877	-0.007269	0.629742
C26	C	0.814956	0.020906	0.647173
C27	C	0.868688	0.120261	0.708688
C28	C	0.836337	0.191443	0.752777
C29	C	0.675148	-0.106623	0.568218
C30	C	0.707494	-0.177802	0.524133
C31	C	0.793575	-0.149631	0.541568
C32	C	0.847307	-0.050276	0.603083
C33	C	0.825926	-0.220813	0.497478
C34	C	0.912004	-0.192638	0.514908
C35	C	0.933386	-0.022100	0.620513
C36	C	1.271454	-0.269864	0.638339
C37	C	1.271518	-0.388143	0.638372
C38	C	1.315514	-0.457359	0.594534
C39	C	1.350865	-0.496859	0.673841
C40	C	1.236280	-0.559393	0.559134
C41	C	1.306915	-0.426060	0.717726
C42	C	1.192285	-0.488615	0.602961
C43	C	1.227617	-0.528075	0.682314
C44	C	1.486484	0.076972	0.681920
C45	C	1.578099	0.106921	0.700483
C46	C	1.315012	0.077134	0.853348
C47	C	1.333556	0.107152	0.944963
C48	C	1.271563	0.284345	0.638405
C49	C	1.271591	0.402664	0.638424
C50	C	1.228195	-0.063380	0.424219
C51	C	1.209811	-0.093045	0.332637
C52	C	1.130933	-0.220663	1.192824
C53	C	1.148375	-0.192438	1.278913
C54	C	1.253825	-0.021835	1.300284
C55	C	1.236388	-0.050043	1.214194
C56	C	1.174942	-0.149459	1.160470
C57	C	1.280398	0.021160	1.181840
C58	C	1.262965	-0.007049	1.095758
C59	C	1.201524	-0.106462	1.042029
C60	C	1.157510	-0.177669	1.074388
C61	C	1.341848	0.120571	1.235566
C62	C	1.385857	0.191775	1.203212
C63	C	1.368421	0.163570	1.117128
C64	C	1.306979	0.064157	1.063399
C65	C	1.412435	0.234777	1.084769
C66	C	1.395003	0.206568	0.998687
C67	C	1.289547	0.035948	0.977317
H68	H	0.566688	-0.045159	0.606301
H69	H	1.462470	0.315715	1.128524
H70	H	0.880086	0.272348	0.802876
H71	H	1.080877	-0.301598	1.149074
H72	H	0.938341	-0.250599	0.479010
H73	H	0.605054	-0.129542	0.554011
H74	H	1.125260	-0.483942	0.572965
O75	O	1.200766	-0.627883	0.479122
C76	C	1.207031	-0.669517	0.342488
C77	C	1.247314	-0.591857	0.433066
H78	H	1.244657	-0.640434	0.305230
H79	H	1.139822	-0.665824	0.311855
H80	H	1.206821	-0.759850	0.343340
H81	H	1.247584	-0.501491	0.432290
H82	H	1.314501	-0.595648	0.463662
H83	H	1.356041	0.143534	1.305659
O84	O	1.183278	-0.565081	0.726567
C85	C	1.133039	-0.719039	0.775808
C86	C	1.183252	-0.677284	0.725648
H87	H	1.133017	-0.809751	0.775097
H88	H	1.065738	-0.715166	0.746185
H89	H	1.163242	-0.663071	0.843334
H90	H	1.153122	-0.733217	0.658116
H91	H	1.250551	-0.681131	0.755339
H92	H	1.303857	0.059107	1.344037
H93	H	0.663737	-0.258697	0.474041
O94	O	1.430820	-0.502412	0.709744
C95	C	1.530332	-0.548467	0.821319
C96	C	1.439759	-0.542229	0.780755
H97	H	1.537583	-0.580680	0.878729
H98	H	1.575835	-0.460911	0.841135
H99	H	1.544615	-0.608508	0.774079
H100	H	1.425395	-0.482239	0.827950
H101	H	1.394305	-0.629825	0.760922
H102	H	1.112533	-0.250428	1.305251
H103	H	0.605494	0.264230	0.797892
O104	O	1.445593	0.288363	1.255290
C105	C	1.548305	0.454659	1.267390
C106	C	1.480692	0.345291	1.208325
H107	H	1.576691	0.500729	1.229440
H108	H	1.599608	0.433152	1.316402
H109	H	1.518625	0.511107	1.300055
H110	H	1.510298	0.288792	1.175602
H111	H	1.429398	0.366882	1.159364
O112	O	0.769990	0.331024	0.839202
C113	C	0.782135	0.497151	0.942167
C114	C	0.723062	0.387836	0.874487
H115	H	0.744220	0.543103	0.970726
H116	H	0.814772	0.553778	0.912599
H117	H	0.831165	0.475452	0.993324
H118	H	0.673984	0.409431	0.823309
H119	H	0.690487	0.331240	0.904117
H120	H	1.239492	-0.044987	0.933568
O121	O	0.773619	-0.317303	0.437769
C122	C	0.631524	-0.436241	0.364068
C123	C	0.690668	-0.326946	0.431725
H124	H	0.564443	-0.444060	0.359148
H125	H	0.651293	-0.511896	0.381845
H126	H	0.635047	-0.433639	0.301077
H127	H	0.687174	-0.329437	0.494741
H128	H	0.670880	-0.251338	0.413876
H129	H	1.352736	-0.426268	0.557506
O130	O	1.184737	-0.133824	0.958439
C131	C	1.238712	-0.175898	0.850897
C132	C	1.257843	-0.144887	0.945586
H133	H	1.297801	-0.184875	0.840475
H134	H	1.216938	-0.106709	0.824038
H135	H	1.187208	-0.259156	0.818073
H136	H	1.309363	-0.061658	0.978481
H137	H	1.279569	-0.214144	0.972382
H138	H	1.430838	0.264550	0.972344
H139	H	0.977135	0.058804	0.670612
O140	O	1.342730	-0.357482	0.797713
C141	C	1.453793	-0.195856	0.897170
C142	C	1.413326	-0.273449	0.806567
H143	H	1.510867	-0.127883	0.904352
H144	H	1.474108	-0.247747	0.942607
H145	H	1.406319	-0.154448	0.911611
H146	H	1.460756	-0.314875	0.792046
H147	H	1.392994	-0.221502	0.761179
O148	O	0.952321	0.147488	0.725700
C149	C	1.080108	0.092708	0.771722
C150	C	0.985404	0.061749	0.752501
H151	H	1.106880	0.023395	0.793378
H152	H	1.112999	0.175907	0.823300
H153	H	1.090541	0.101713	0.712651
H154	H	0.974893	0.052683	0.811523
H155	H	0.952560	-0.021424	0.700891
O156	O	1.097834	-0.274323	1.022319
C157	C	0.995070	-0.440579	1.010195
C158	C	1.062629	-0.331162	1.069256
H159	H	0.966575	-0.486552	1.048118
H160	H	1.024730	-0.497130	0.977583
H161	H	0.943847	-0.419011	0.961142
H162	H	1.113872	-0.352626	1.118357
H163	H	1.032908	-0.274641	1.101806
