data_functionalizedCrystal
_audit_creation_method	'MofGen! by Chris Wilmer'
_symmetry_space_group_name_H-M	'P1'
_symmetry_Int_Tables_number	1
_symmetry_cell_setting	triclinic
loop_
_symmetry_equiv_pos_as_xyz
  x,y,z
_cell_length_a	19.805407
_cell_length_b	16.625546
_cell_length_c	19.805399
_cell_angle_alpha	89.972133
_cell_angle_beta	89.982197
_cell_angle_gamma	90.019784
loop_
_atom_site_label
_atom_site_type_symbol
_atom_site_fract_x
_atom_site_fract_y
_atom_site_fract_z
Zn1	Zn	1.034754	-0.321078	-0.382686
Zn2	Zn	1.368088	0.012255	-0.049353
Zn3	Zn	1.701421	0.345589	0.283980
Zn4	Zn	1.034677	-0.455915	-0.269498
Zn5	Zn	1.368010	-0.122582	0.063836
Zn6	Zn	1.701343	0.210751	0.397169
Zn7	Zn	0.921569	-0.321094	-0.269514
Zn8	Zn	1.254902	0.012239	0.063819
Zn9	Zn	1.588236	0.345573	0.397152
Zn10	Zn	0.921540	-0.455866	-0.382648
Zn11	Zn	1.254873	-0.122533	-0.049314
Zn12	Zn	1.588207	0.210801	0.284019
O13	O	0.978135	-0.388488	-0.326086
O14	O	1.311468	-0.055155	0.007247
O15	O	1.644802	0.278178	0.340580
O16	O	1.129460	-0.338978	-0.367681
O17	O	1.462794	-0.005645	-0.034347
O18	O	1.796127	0.327688	0.298986
O19	O	1.019652	-0.438058	-0.174783
O20	O	1.352986	-0.104725	0.158550
O21	O	1.686319	0.228609	0.491884
O22	O	0.936628	-0.208259	-0.284550
O23	O	1.269961	0.125074	0.048783
O24	O	1.603294	0.458407	0.382117
O25	O	1.129404	-0.438043	-0.284521
O26	O	1.462737	-0.104709	0.048812
O27	O	1.796070	0.228624	0.382145
O28	O	1.019784	-0.208248	-0.367697
O29	O	1.353118	0.125086	-0.034364
O30	O	1.686451	0.458419	0.298970
O31	O	0.936552	-0.339006	-0.174796
O32	O	1.269886	-0.005672	0.158538
O33	O	1.603219	0.327661	0.491871
O34	O	0.826848	-0.338958	-0.284513
O35	O	1.160182	-0.005625	0.048821
O36	O	1.493515	0.327709	0.382154
O37	O	0.936579	-0.437959	-0.477369
O38	O	1.269912	-0.104626	-0.144036
O39	O	1.603245	0.228708	0.189297
O40	O	0.826827	-0.437974	-0.367631
O41	O	1.160161	-0.104641	-0.034298
O42	O	1.493494	0.228692	0.299035
O43	O	1.019756	-0.338931	-0.477398
O44	O	1.353090	-0.005597	-0.144064
O45	O	1.686423	0.327736	0.189269
O46	O	1.019625	-0.568741	-0.284484
O47	O	1.352958	-0.235408	0.048849
O48	O	1.686291	0.097926	0.382183
O49	O	0.936504	-0.568705	-0.367615
O50	O	1.269837	-0.235372	-0.034282
O51	O	1.603170	0.097962	0.299052
C52	C	0.802279	-0.388463	-0.326070
C53	C	1.135612	-0.055130	0.007263
C54	C	1.468946	0.278204	0.340597
C55	C	0.727047	-0.388472	-0.326079
C56	C	1.060380	-0.055138	0.007254
C57	C	1.393714	0.278195	0.340588
C58	C	0.691733	-0.336980	-0.369446
C59	C	1.025066	-0.003647	-0.036113
C60	C	1.358400	0.329687	0.297221
C61	C	0.621045	-0.336984	-0.369449
C62	C	0.954378	-0.003651	-0.036115
C63	C	1.287711	0.329682	0.297218
C64	C	0.585671	-0.388485	-0.326087
C65	C	0.919005	-0.055151	0.007246
C66	C	1.252338	0.278182	0.340579
C67	C	0.620990	-0.439979	-0.282716
C68	C	0.954324	-0.106645	0.050618
C69	C	1.287657	0.226688	0.383951
C70	C	0.691677	-0.439970	-0.282710
C71	C	1.025011	-0.106636	0.050623
C72	C	1.358344	0.226697	0.383957
C73	C	0.335917	-0.440015	-0.282736
C74	C	0.669250	-0.106682	0.050597
C75	C	1.002584	0.226652	0.383930
C76	C	0.265225	-0.440022	-0.282747
C77	C	0.598558	-0.106688	0.050587
C78	C	0.931892	0.226645	0.383920
C79	C	0.265284	-0.337030	-0.369475
C80	C	0.598618	-0.003696	-0.036142
C81	C	0.931951	0.329637	0.297192
C82	C	0.335971	-0.337021	-0.369469
C83	C	0.669305	-0.003687	-0.036136
C84	C	1.002638	0.329646	0.297197
C85	C	0.371284	-0.388511	-0.326095
C86	C	0.704617	-0.055178	0.007238
C87	C	1.037951	0.278156	0.340571
C88	C	0.447932	-0.388505	-0.326092
C89	C	0.781266	-0.055171	0.007241
C90	C	1.114599	0.278162	0.340574
C91	C	0.509024	-0.388496	-0.326093
C92	C	0.842358	-0.055162	0.007240
C93	C	1.175691	0.278171	0.340573
C94	C	0.978071	-0.597979	-0.326058
C95	C	1.311404	-0.264646	0.007275
C96	C	1.644738	0.068687	0.340609
C97	C	0.978105	-0.687600	-0.326069
C98	C	1.311439	-0.354267	0.007265
C99	C	1.644772	-0.020934	0.340598
C100	C	0.978224	-1.015776	-0.326139
C101	C	1.311557	-0.682443	0.007194
C102	C	1.644890	-0.349109	0.340527
C103	C	0.978189	-0.924467	-0.326121
C104	C	1.311522	-0.591134	0.007212
C105	C	1.644855	-0.257801	0.340545
C106	C	0.978164	-0.851691	-0.326104
C107	C	1.311497	-0.518358	0.007230
C108	C	1.644831	-0.185024	0.340563
C109	C	0.978130	-0.760377	-0.326087
C110	C	1.311463	-0.427043	0.007247
C111	C	1.644797	-0.093710	0.340580
C112	C	1.154678	-0.388514	-0.326103
C113	C	1.488011	-0.055181	0.007230
C114	C	1.821344	0.278152	0.340563
C115	C	1.229910	-0.388525	-0.326111
C116	C	1.563243	-0.055192	0.007223
C117	C	1.896576	0.278141	0.340556
C118	C	0.978173	-0.388438	-0.502629
C119	C	1.311506	-0.055104	-0.169296
C120	C	1.644840	0.278229	0.164037
C121	C	0.978189	-0.388416	-0.577861
C122	C	1.311522	-0.055083	-0.244528
C123	C	1.644856	0.278251	0.088805
C124	C	0.978218	-0.178179	-0.326130
C125	C	1.311551	0.155154	0.007204
C126	C	1.644884	0.488487	0.340537
C127	C	0.978253	-0.088558	-0.326148
C128	C	1.311586	0.244775	0.007185
C129	C	1.644920	0.578108	0.340518
C130	C	1.021501	-0.336849	-0.613221
C131	C	1.354834	-0.003516	-0.279888
C132	C	1.688167	0.329817	0.053445
C133	C	1.021508	-0.336826	-0.683910
C134	C	1.354841	-0.003493	-0.350576
C135	C	1.688174	0.329841	-0.017243
C136	C	0.978206	-0.388374	-0.719237
C137	C	1.311539	-0.055040	-0.385904
C138	C	1.644873	0.278293	-0.052570
C139	C	0.934889	-0.439943	-0.683872
C140	C	1.268223	-0.106609	-0.350539
C141	C	1.601556	0.226724	-0.017205
C142	C	0.934880	-0.439961	-0.613185
C143	C	1.268213	-0.106628	-0.279852
C144	C	1.601546	0.226705	0.053482
C145	C	0.934928	-0.439867	-0.968945
C146	C	1.268261	-0.106534	-0.635612
C147	C	1.601594	0.226799	-0.302279
C148	C	0.934942	-0.439846	-1.039638
C149	C	1.268276	-0.106513	-0.706304
C150	C	1.601609	0.226820	-0.372971
C151	C	1.021556	-0.336732	-1.039670
C152	C	1.354889	-0.003399	-0.706337
C153	C	1.688222	0.329935	-0.373004
C154	C	1.021546	-0.336751	-0.968983
C155	C	1.354879	-0.003417	-0.635650
C156	C	1.688213	0.329916	-0.302317
C157	C	0.978227	-0.388316	-0.933624
C158	C	1.311561	-0.054983	-0.600291
C159	C	1.644894	0.278350	-0.266958
C160	C	0.978219	-0.388340	-0.856976
C161	C	1.311553	-0.055007	-0.523643
C162	C	1.644886	0.278327	-0.190309
C163	C	0.978217	-0.388355	-0.795884
C164	C	1.311550	-0.055021	-0.462551
C165	C	1.644883	0.278312	-0.129217
C166	C	0.978136	-0.388481	-0.150231
C167	C	1.311469	-0.055147	0.183103
C168	C	1.644803	0.278186	0.516436
C169	C	0.978251	-0.388275	-0.074999
C170	C	1.311584	-0.054942	0.258334
C171	C	1.644918	0.278391	0.591668
H172	H	0.236426	-0.481961	-0.247434
H173	H	0.569759	-0.148628	0.085899
H174	H	0.903093	0.184705	0.419233
H175	H	0.364660	-0.481942	-0.247419
H176	H	0.697993	-0.148609	0.085914
H177	H	1.031327	0.184724	0.419247
H178	H	1.056778	-0.294837	-0.712697
H179	H	1.390111	0.038496	-0.379363
H180	H	1.723445	0.371829	-0.046030
F181	F	0.729261	-0.494775	-0.236553
F182	F	1.062594	-0.161441	0.096780
F183	F	1.395927	0.171892	0.430113
F184	F	0.583342	-0.494785	-0.236563
F185	F	0.916675	-0.161452	0.096770
F186	F	1.250008	0.171881	0.430103
F187	F	1.067658	-0.281848	-1.077307
F188	F	1.400991	0.051485	-0.743974
F189	F	1.734324	0.384818	-0.410641
F190	F	0.888780	-0.494843	-0.575552
F191	F	1.222113	-0.161510	-0.242219
F192	F	1.555446	0.171823	0.091114
F193	F	0.888852	-0.494713	-1.077234
F194	F	1.222185	-0.161380	-0.743901
F195	F	1.555518	0.171954	-0.410567
H196	H	1.056764	-0.294876	-0.584463
H197	H	1.390098	0.038458	-0.251130
H198	H	1.723431	0.371791	0.082204
H199	H	0.899630	-0.481911	-0.712641
H200	H	1.232963	-0.148577	-0.379308
H201	H	1.566297	0.184756	-0.045974
F202	F	0.729374	-0.282169	-0.415601
F203	F	1.062707	0.051164	-0.082268
F204	F	1.396040	0.384498	0.251066
F205	F	0.583464	-0.282182	-0.415607
F206	F	0.916797	0.051152	-0.082274
F207	F	1.250131	0.384485	0.251060
F208	F	1.067636	-0.281890	-0.931389
F209	F	1.400969	0.051444	-0.598056
F210	F	1.734303	0.384777	-0.264723
H211	H	0.364769	-0.295086	-0.404781
H212	H	0.698102	0.038247	-0.071448
H213	H	1.031435	0.371580	0.261886
F214	F	0.227696	-0.282226	-0.415636
F215	F	0.561030	0.051107	-0.082303
F216	F	0.894363	0.384441	0.251031
H217	H	0.899665	-0.481867	-0.940165
H218	H	1.232998	-0.148534	-0.606832
H219	H	1.566332	0.184800	-0.273498
