data_functionalizedCrystal
_audit_creation_method	'MofGen! by Chris Wilmer'
_symmetry_space_group_name_H-M	'P1'
_symmetry_Int_Tables_number	1
_symmetry_cell_setting	triclinic
loop_
_symmetry_equiv_pos_as_xyz
  x,y,z
_cell_length_a	15.944493
_cell_length_b	14.519709
_cell_length_c	12.996460
_cell_angle_alpha	89.999966
_cell_angle_beta	89.999729
_cell_angle_gamma	96.422406
loop_
_atom_site_label
_atom_site_type_symbol
_atom_site_fract_x
_atom_site_fract_y
_atom_site_fract_z
O1	O	0.110112	-1.223651	-0.085419
O2	O	0.443445	-0.890318	0.247914
O3	O	0.776779	-0.556984	0.581248
O4	O	0.123079	-0.955148	-0.085449
O5	O	0.456412	-0.621815	0.247884
O6	O	0.789746	-0.288482	0.581218
O7	O	-0.005672	-1.096760	-0.085442
O8	O	0.327661	-0.763426	0.247892
O9	O	0.660995	-0.430093	0.581225
O10	O	0.238863	-1.082040	-0.085426
O11	O	0.572196	-0.748706	0.247907
O12	O	0.905530	-0.415373	0.581240
O13	O	-0.005679	-1.096745	0.085692
O14	O	0.327654	-0.763412	0.419025
O15	O	0.660988	-0.430078	0.752359
O16	O	0.123072	-0.955134	0.085685
O17	O	0.456405	-0.621800	0.419018
O18	O	0.789739	-0.288467	0.752352
O19	O	0.110105	-1.223636	0.085715
O20	O	0.443438	-0.890303	0.419048
O21	O	0.776772	-0.556970	0.752381
Cu22	Cu	0.116588	-1.089384	0.101326
Cu23	Cu	0.449921	-0.756050	0.434659
Cu24	Cu	0.783254	-0.422717	0.767992
Cu25	Cu	0.116596	-1.089401	-0.101060
Cu26	Cu	0.449930	-0.756068	0.232274
Cu27	Cu	0.783263	-0.422734	0.565607
O28	O	0.238856	-1.082025	0.085708
O29	O	0.572189	-0.748692	0.419041
O30	O	0.905523	-0.415358	0.752374
C31	C	0.122471	-0.920783	0.000114
C32	C	0.455804	-0.587449	0.333447
C33	C	0.789138	-0.254116	0.666781
C34	C	0.120660	-0.818405	0.000102
C35	C	0.453994	-0.485072	0.333435
C36	C	0.787327	-0.151738	0.666769
C37	C	-0.036971	-1.096151	0.000121
C38	C	0.296362	-0.762817	0.333454
C39	C	0.629695	-0.429484	0.666787
C40	C	-0.130222	-1.094347	0.000107
C41	C	0.203111	-0.761014	0.333441
C42	C	0.536444	-0.427680	0.666774
C43	C	0.110713	-1.258002	0.000150
C44	C	0.444046	-0.924669	0.333483
C45	C	0.777379	-0.591336	0.666816
C46	C	0.112524	-1.360380	0.000155
C47	C	0.445857	-1.027047	0.333488
C48	C	0.779190	-0.693713	0.666822
C49	C	-0.365861	-1.177703	0.000136
C50	C	-0.032528	-0.844369	0.333470
C51	C	0.300805	-0.511036	0.666803
C52	C	-0.416491	-1.132759	-0.084246
C53	C	-0.083158	-0.799426	0.249087
C54	C	0.250176	-0.466093	0.582421
C55	C	-0.300948	-1.091005	0.000120
C56	C	0.032385	-0.757672	0.333453
C57	C	0.365718	-0.424338	0.666786
C58	C	-0.416474	-1.132725	0.084478
C59	C	-0.083141	-0.799391	0.417812
C60	C	0.250192	-0.466058	0.751145
C61	C	-0.465863	-1.087783	0.000136
C62	C	-0.132529	-0.754450	0.333469
C63	C	0.200804	-0.421116	0.666803
C64	C	-0.350350	-1.046085	-0.084332
C65	C	-0.017016	-0.712752	0.249001
C66	C	0.316317	-0.379418	0.582334
C67	C	-0.350330	-1.046063	0.084468
C68	C	-0.016996	-0.712730	0.417801
C69	C	0.316337	-0.379396	0.751135
C70	C	-0.400926	-1.001056	0.000065
C71	C	-0.067593	-0.667723	0.333398
C72	C	0.265740	-0.334389	0.666732
C73	C	-0.205946	-1.092863	0.000109
C74	C	0.127388	-0.759530	0.333443
C75	C	0.460721	-0.426197	0.666776
C76	C	-0.560862	-1.085918	0.000139
C77	C	-0.227529	-0.752584	0.333472
C78	C	0.105804	-0.419251	0.666806
C79	C	0.270155	-1.082634	0.000143
C80	C	0.603488	-0.749301	0.333476
C81	C	0.936822	-0.415967	0.666810
C82	C	0.363406	-1.084438	0.000149
C83	C	0.696740	-0.751104	0.333483
C84	C	1.030073	-0.417771	0.666816
N85	N	0.116581	-1.089378	0.243673
N86	N	0.449915	-0.756045	0.577006
N87	N	0.783248	-0.422711	0.910339
C88	C	0.113994	-0.443522	0.000148
C89	C	0.447327	-0.110189	0.333482
C90	C	0.780660	0.223144	0.666815
C91	C	0.115845	-0.547826	0.000135
C92	C	0.449178	-0.214493	0.333468
C93	C	0.782511	0.118840	0.666802
C94	C	0.117327	-0.630960	0.000124
C95	C	0.450660	-0.297627	0.333457
C96	C	0.783993	0.035706	0.666791
C97	C	0.119178	-0.735271	0.000113
C98	C	0.452512	-0.401938	0.333446
C99	C	0.785845	-0.068604	0.666780
N100	N	0.116596	-1.089414	-0.243407
N101	N	0.449929	-0.756081	0.089926
N102	N	0.783263	-0.422747	0.423260
C103	C	0.116597	-1.089400	0.663487
C104	C	0.449930	-0.756066	0.996820
C105	C	0.783264	-0.422733	1.330154
C106	C	0.116596	-1.089391	0.546682
C107	C	0.449929	-0.756058	0.880015
C108	C	0.783262	-0.422724	1.213349
C109	C	0.116590	-1.089389	0.453584
C110	C	0.449923	-0.756056	0.786917
C111	C	0.783256	-0.422723	1.120250
C112	C	0.116587	-1.089380	0.336771
C113	C	0.449920	-0.756046	0.670104
C114	C	0.783254	-0.422713	1.003438
H115	H	-0.350125	-1.252382	0.000060
H116	H	-0.016791	-0.919049	0.333393
H117	H	0.316542	-0.585715	0.666726
Cl118	Cl	-0.305679	-0.989592	0.194604
Cl119	Cl	0.027654	-0.656259	0.527938
Cl120	Cl	0.360987	-0.322926	0.861271
H121	H	-0.321580	-1.009498	-0.155747
H122	H	0.011753	-0.676165	0.177586
H123	H	0.345087	-0.342832	0.510920
H124	H	-0.445381	-1.169379	-0.155578
H125	H	-0.112047	-0.836046	0.177755
H126	H	0.221286	-0.502713	0.511089
H127	H	-0.445355	-1.169350	0.155812
H128	H	-0.112022	-0.836017	0.489146
H129	H	0.221312	-0.502684	0.822479
Cl130	Cl	-0.424977	-0.885670	-0.000015
Cl131	Cl	-0.091644	-0.552336	0.333318
Cl132	Cl	0.241689	-0.219003	0.666652
