data_functionalizedCrystal
_audit_creation_method	'MofGen! by Chris Wilmer'
_symmetry_space_group_name_H-M	'P1'
_symmetry_Int_Tables_number	1
_symmetry_cell_setting	triclinic
loop_
_symmetry_equiv_pos_as_xyz
  x,y,z
_cell_length_a	16.109302
_cell_length_b	16.109301
_cell_length_c	14.048226
_cell_angle_alpha	89.992144
_cell_angle_beta	89.991597
_cell_angle_gamma	83.461631
loop_
_atom_site_label
_atom_site_type_symbol
_atom_site_fract_x
_atom_site_fract_y
_atom_site_fract_z
O1	O	1.103134	0.106872	-0.079206
O2	O	1.436467	0.440205	0.254127
O3	O	1.769800	0.773538	0.587460
O4	O	0.861072	0.120171	-0.079199
O5	O	1.194405	0.453504	0.254134
O6	O	1.527738	0.786837	0.587467
O7	O	0.988752	-0.007510	-0.079193
O8	O	1.322086	0.325824	0.254140
O9	O	1.655419	0.659157	0.587473
O10	O	0.975453	0.234552	-0.079212
O11	O	1.308786	0.567885	0.254121
O12	O	1.642120	0.901219	0.587454
O13	O	0.988737	-0.007517	0.079128
O14	O	1.322070	0.325816	0.412461
O15	O	1.655404	0.659149	0.745795
O16	O	0.861056	0.120163	0.079122
O17	O	1.194390	0.453496	0.412455
O18	O	1.527723	0.786830	0.745789
O19	O	1.103118	0.106864	0.079115
O20	O	1.436452	0.440198	0.412448
O21	O	1.769785	0.773531	0.745782
Zn22	Zn	0.982085	0.113512	0.104255
Zn23	Zn	1.315418	0.446846	0.437589
Zn24	Zn	1.648752	0.780179	0.770922
Zn25	Zn	0.982105	0.113522	-0.104340
Zn26	Zn	1.315438	0.446856	0.228994
Zn27	Zn	1.648772	0.780189	0.562327
O28	O	0.975438	0.234545	0.079109
O29	O	1.308771	0.567878	0.412442
O30	O	1.642104	0.901211	0.745776
C31	C	0.830089	0.119628	-0.000038
C32	C	1.163423	0.452961	0.333296
C33	C	1.496756	0.786295	0.666629
C34	C	0.737794	0.118013	-0.000035
C35	C	1.071127	0.451346	0.333299
C36	C	1.404461	0.784679	0.666632
C37	C	0.988206	-0.038488	-0.000032
C38	C	1.321539	0.294845	0.333301
C39	C	1.654873	0.628178	0.666634
C40	C	0.986591	-0.130784	-0.000031
C41	C	1.319924	0.202550	0.333303
C42	C	1.653258	0.535883	0.666636
C43	C	0.525445	0.114273	0.086257
C44	C	0.858778	0.447607	0.419591
C45	C	1.192111	0.780940	0.752924
C46	C	0.438725	0.112747	0.086254
C47	C	0.772058	0.446080	0.419587
C48	C	1.105391	0.779413	0.752921
C49	C	0.438752	0.112759	-0.086357
C50	C	0.772085	0.446092	0.246977
C51	C	1.105418	0.779426	0.580310
C52	C	0.525471	0.114280	-0.086352
C53	C	0.858804	0.447613	0.246981
C54	C	1.192138	0.780946	0.580314
C55	C	0.568815	0.115041	-0.000043
C56	C	0.902148	0.448374	0.333291
C57	C	1.235481	0.781708	0.666624
C58	C	0.395375	0.111994	-0.000050
C59	C	0.728709	0.445327	0.333283
C60	C	1.062042	0.778660	0.666617
C61	C	0.301350	0.110338	-0.000054
C62	C	0.634683	0.443672	0.333279
C63	C	0.968016	0.777005	0.666613
C64	C	0.662847	0.116695	-0.000038
C65	C	0.996180	0.450028	0.333295
C66	C	1.329513	0.783362	0.666628
C67	C	1.058599	-0.353056	-0.000048
C68	C	1.391932	-0.019723	0.333285
C69	C	1.725265	0.313611	0.666619
C70	C	1.057074	-0.439776	-0.000056
C71	C	1.390408	-0.106443	0.333278
C72	C	1.723741	0.226890	0.666611
C73	C	0.905586	-0.419902	-0.000048
C74	C	1.238919	-0.086569	0.333286
C75	C	1.572252	0.246764	0.666619
C76	C	0.907111	-0.333184	-0.000047
C77	C	1.240444	0.000150	0.333287
C78	C	1.573777	0.333483	0.666620
C79	C	0.983620	-0.299763	-0.000042
C80	C	1.316953	0.033570	0.333291
C81	C	1.650286	0.366904	0.666625
C82	C	0.980571	-0.473202	-0.000051
C83	C	1.313904	-0.139869	0.333283
C84	C	1.647237	0.193465	0.666616
C85	C	0.978918	-0.567228	-0.000059
C86	C	1.312251	-0.233895	0.333274
C87	C	1.645584	0.099438	0.666608
C88	C	0.985273	-0.205731	-0.000035
C89	C	1.318606	0.127602	0.333298
C90	C	1.651940	0.460936	0.666631
C91	C	1.134101	0.107407	-0.000049
C92	C	1.467434	0.440740	0.333285
C93	C	1.800768	0.774074	0.666618
C94	C	1.226396	0.109022	-0.000058
C95	C	1.559729	0.442356	0.333275
C96	C	1.893063	0.775689	0.666609
C97	C	0.975984	0.265523	-0.000054
C98	C	1.309317	0.598857	0.333279
C99	C	1.642651	0.932190	0.666612
C100	C	0.977599	0.357819	-0.000062
C101	C	1.310933	0.691152	0.333271
C102	C	1.644266	1.024485	0.666605
N103	N	0.982077	0.113505	0.246616
N104	N	1.315411	0.446839	0.579949
N105	N	1.648744	0.780172	0.913283
N106	N	0.982119	0.113523	-0.246700
N107	N	1.315453	0.446856	0.086633
N108	N	1.648786	0.780190	0.419966
C109	C	1.038632	0.056992	0.296437
C110	C	1.371965	0.390325	0.629770
C111	C	1.705299	0.723658	0.963103
C112	C	1.038638	0.056991	0.396094
C113	C	1.371971	0.390325	0.729428
C114	C	1.705304	0.723658	1.062761
C115	C	0.982092	0.113509	0.445930
C116	C	1.315425	0.446842	0.779263
C117	C	1.648758	0.780176	1.112596
C118	C	0.925531	0.170025	0.396102
C119	C	1.258864	0.503358	0.729435
C120	C	1.592198	0.836692	1.062769
C121	C	0.925522	0.170021	0.296446
C122	C	1.258855	0.503354	0.629779
C123	C	1.592189	0.836688	0.963113
C124	C	0.925555	0.170031	0.603816
C125	C	1.258888	0.503364	0.937149
C126	C	1.592222	0.836698	1.270483
C127	C	0.925565	0.170037	0.703479
C128	C	1.258898	0.503370	1.036812
C129	C	1.592231	0.836703	1.370146
C130	C	1.038670	0.057001	0.703465
C131	C	1.372004	0.390335	1.036798
C132	C	1.705337	0.723668	1.370131
C133	C	1.038662	0.056997	0.603809
C134	C	1.371995	0.390331	0.937142
C135	C	1.705328	0.723664	1.270475
C136	C	0.982102	0.113515	0.553988
C137	C	1.315435	0.446848	0.887321
C138	C	1.648768	0.780181	1.220655
H139	H	0.560732	0.114893	0.156536
H140	H	0.894066	0.448227	0.489870
H141	H	1.227399	0.781560	0.823203
H142	H	0.843295	-0.447124	-0.000049
H143	H	1.176628	-0.113791	0.333284
H144	H	1.509962	0.219542	0.666617
F145	F	0.392617	0.111932	-0.178208
F146	F	0.725951	0.445266	0.155125
F147	F	1.059284	0.778599	0.488458
H148	H	0.403417	0.112122	0.156528
H149	H	0.736750	0.445455	0.489861
H150	H	1.070083	0.778788	0.823195
F151	F	0.865379	0.230190	0.756510
F152	F	1.198713	0.563523	1.089844
F153	F	1.532046	0.896856	1.423177
H154	H	1.084709	0.010980	0.563233
H155	H	1.418042	0.344314	0.896566
H156	H	1.751376	0.677647	1.229900
H157	H	1.084723	0.010983	0.744034
H158	H	1.418056	0.344316	1.077368
H159	H	1.751390	0.677650	1.410701
F160	F	0.865354	0.230182	0.550797
F161	F	1.198687	0.563515	0.884131
F162	F	1.532021	0.896849	1.217464
F163	F	0.865346	0.230172	0.449141
F164	F	1.198679	0.563506	0.782474
F165	F	1.532013	0.896839	1.115808
H166	H	0.879469	0.216039	0.255883
H167	H	1.212802	0.549372	0.589216
H168	H	1.546135	0.882706	0.922550
H169	H	0.560784	0.114903	-0.156632
H170	H	0.894118	0.448236	0.176701
H171	H	1.227451	0.781569	0.510034
H172	H	1.118130	-0.483165	-0.000063
H173	H	1.451463	-0.149831	0.333271
H174	H	1.784797	0.183502	0.666604
F175	F	1.140026	-0.317490	-0.000044
F176	F	1.473359	0.015843	0.333289
F177	F	1.806692	0.349176	0.666623
H178	H	0.846050	-0.289790	-0.000045
H179	H	1.179383	0.043543	0.333289
H180	H	1.512717	0.376877	0.666622
H181	H	1.084688	0.010973	0.436658
H182	H	1.418021	0.344306	0.769991
H183	H	1.751355	0.677640	1.103325
F184	F	1.098821	-0.003160	0.243408
F185	F	1.432154	0.330174	0.576741
F186	F	1.765488	0.663507	0.910075
