data_functionalizedCrystal
_audit_creation_method	'MofGen! by Chris Wilmer'
_symmetry_space_group_name_H-M	'P1'
_symmetry_Int_Tables_number	1
_symmetry_cell_setting	triclinic
loop_
_symmetry_equiv_pos_as_xyz
  x,y,z
_cell_length_a	17.640280
_cell_length_b	21.395364
_cell_length_c	21.395355
_cell_angle_alpha	90.025600
_cell_angle_beta	78.784922
_cell_angle_gamma	101.202359
loop_
_atom_site_label
_atom_site_type_symbol
_atom_site_fract_x
_atom_site_fract_y
_atom_site_fract_z
Zn1	Zn	-0.314798	-1.008383	-0.303902
Zn2	Zn	0.018536	-0.675050	0.029431
Zn3	Zn	0.351869	-0.341716	0.362765
Zn4	Zn	-0.446947	-1.029495	-0.177977
Zn5	Zn	-0.113613	-0.696162	0.155357
Zn6	Zn	0.219720	-0.362828	0.488690
Zn7	Zn	-0.314792	-0.903597	-0.199138
Zn8	Zn	0.018541	-0.570264	0.134196
Zn9	Zn	0.351874	-0.236930	0.467529
Zn10	Zn	-0.446921	-0.924772	-0.282719
Zn11	Zn	-0.113587	-0.591439	0.050614
Zn12	Zn	0.219746	-0.258106	0.383947
O13	O	-0.380864	-0.966562	-0.240934
O14	O	-0.047531	-0.633229	0.092399
O15	O	0.285802	-0.299895	0.425733
O16	O	-0.332341	-1.098864	-0.287207
O17	O	0.000992	-0.765530	0.046126
O18	O	0.334326	-0.432197	0.379460
O19	O	-0.429425	-1.012768	-0.093105
O20	O	-0.096091	-0.679434	0.240229
O21	O	0.237242	-0.346101	0.573562
O22	O	-0.204192	-0.899800	-0.230756
O23	O	0.129141	-0.566466	0.102577
O24	O	0.462475	-0.233133	0.435911
O25	O	-0.429430	-1.114374	-0.194690
O26	O	-0.096097	-0.781041	0.138643
O27	O	0.237236	-0.447708	0.471976
O28	O	-0.204196	-0.976786	-0.307726
O29	O	0.129137	-0.643452	0.025608
O30	O	0.462471	-0.310119	0.358941
O31	O	-0.332331	-0.920271	-0.108651
O32	O	0.001002	-0.586938	0.224682
O33	O	0.334335	-0.253604	0.558015
O34	O	-0.332306	-0.818726	-0.210216
O35	O	0.001027	-0.485393	0.123118
O36	O	0.334361	-0.152059	0.456451
O37	O	-0.429386	-0.935890	-0.373208
O38	O	-0.096052	-0.602557	-0.039875
O39	O	0.237281	-0.269223	0.293458
O40	O	-0.429380	-0.834283	-0.271623
O41	O	-0.096047	-0.500950	0.061711
O42	O	0.237286	-0.167617	0.395044
O43	O	-0.332316	-0.997318	-0.388771
O44	O	0.001018	-0.663985	-0.055438
O45	O	0.334351	-0.330652	0.277895
O46	O	-0.557544	-1.033301	-0.174150
O47	O	-0.224211	-0.699967	0.159183
O48	O	0.109122	-0.366634	0.492517
O49	O	-0.557525	-0.956361	-0.251104
O50	O	-0.224192	-0.623028	0.082229
O51	O	0.109141	-0.289695	0.415563
C52	C	-0.380840	-0.803770	-0.240917
C53	C	-0.047507	-0.470437	0.092416
C54	C	0.285826	-0.137104	0.425749
C55	C	-0.380849	-0.734131	-0.240922
C56	C	-0.047516	-0.400797	0.092411
C57	C	0.285818	-0.067464	0.425745
C58	C	-0.431490	-0.240467	-0.272846
C59	C	-0.098157	0.092867	0.060487
C60	C	0.235177	0.426200	0.393821
C61	C	-0.431491	-0.305902	-0.272840
C62	C	-0.098158	0.027431	0.060493
C63	C	0.235175	0.360764	0.393827
C64	C	-0.380870	-0.330496	-0.240943
C65	C	-0.047537	0.002838	0.092390
C66	C	0.285797	0.336171	0.425723
C67	C	-0.330258	-0.289650	-0.209036
C68	C	0.003076	0.043684	0.124297
C69	C	0.336409	0.377017	0.457631
C70	C	-0.330263	-0.224216	-0.209037
C71	C	0.003070	0.109117	0.124296
C72	C	0.336403	0.442450	0.457629
C73	C	-0.309644	-0.422753	-0.247492
C74	C	0.023689	-0.089420	0.085842
C75	C	0.357023	0.243914	0.419175
C76	C	-0.309637	-0.488185	-0.247495
C77	C	0.023696	-0.154851	0.085838
C78	C	0.357030	0.178482	0.419172
C79	C	-0.380853	-0.532314	-0.240935
C80	C	-0.047520	-0.198980	0.092398
C81	C	0.285814	0.134353	0.425731
C82	C	-0.452078	-0.511003	-0.234385
C83	C	-0.118745	-0.177670	0.098948
C84	C	0.214589	0.155664	0.432282
C85	C	-0.452084	-0.445570	-0.234386
C86	C	-0.118750	-0.112236	0.098947
C87	C	0.214583	0.221097	0.432280
C88	C	-0.380859	-0.401446	-0.240938
C89	C	-0.047525	-0.068113	0.092396
C90	C	0.285808	0.265221	0.425729
C91	C	-0.431467	-0.644105	-0.272830
C92	C	-0.098134	-0.310771	0.060503
C93	C	0.235199	0.022562	0.393836
C94	C	-0.431470	-0.709542	-0.272820
C95	C	-0.098137	-0.376208	0.060513
C96	C	0.235197	-0.042875	0.393847
C97	C	-0.330229	-0.693287	-0.209020
C98	C	0.003104	-0.359953	0.124313
C99	C	0.336437	-0.026620	0.457646
C100	C	-0.330234	-0.627852	-0.209026
C101	C	0.003100	-0.294519	0.124307
C102	C	0.336433	0.038815	0.457640
C103	C	-0.380852	-0.603265	-0.240935
C104	C	-0.047518	-0.269931	0.092398
C105	C	0.285815	0.063402	0.425732
C106	C	-0.586212	-0.999437	-0.208046
C107	C	-0.252879	-0.666103	0.125287
C108	C	0.080454	-0.332770	0.458621
C109	C	-0.674061	-1.013558	-0.193997
C110	C	-0.340728	-0.680225	0.139336
C111	C	-0.007395	-0.346891	0.472670
C112	C	-0.963072	-0.859540	-0.347888
C113	C	-0.629739	-0.526207	-0.014555
C114	C	-0.296406	-0.192874	0.318778
C115	C	-1.045619	-0.872811	-0.334667
C116	C	-0.712286	-0.539478	-0.001334
C117	C	-0.378953	-0.206144	0.331999
C118	C	-1.045574	-0.952977	-0.254616
C119	C	-0.712241	-0.619644	0.078717
C120	C	-0.378907	-0.286311	0.412050
C121	C	-0.963025	-0.939716	-0.267833
C122	C	-0.629692	-0.606383	0.065501
C123	C	-0.296358	-0.273049	0.398834
C124	C	-0.921781	-0.892996	-0.314469
C125	C	-0.588447	-0.559663	0.018865
C126	C	-0.255114	-0.226330	0.352198
C127	C	-0.921734	-0.973172	-0.234413
C128	C	-0.588400	-0.639838	0.098920
C129	C	-0.255067	-0.306505	0.432253
C130	C	-0.839192	-0.959909	-0.247626
C131	C	-0.505858	-0.626575	0.085707
C132	C	-0.172525	-0.293242	0.419040
C133	C	-0.797942	-0.913190	-0.294259
C134	C	-0.464608	-0.579857	0.039074
C135	C	-0.131275	-0.246523	0.372408
C136	C	-0.839239	-0.879733	-0.327682
C137	C	-0.505906	-0.546400	0.005651
C138	C	-0.172572	-0.213067	0.338985
C139	C	-0.962980	-1.019888	-0.187774
C140	C	-0.629646	-0.686555	0.145559
C141	C	-0.296313	-0.353221	0.478892
C142	C	-0.921688	-1.053344	-0.154355
C143	C	-0.588355	-0.720010	0.178978
C144	C	-0.255021	-0.386677	0.512312
C145	C	-0.839145	-1.040084	-0.167571
C146	C	-0.505811	-0.706751	0.165762
C147	C	-0.172478	-0.373417	0.499096
C148	C	-0.797894	-0.993365	-0.214203
C149	C	-0.464561	-0.660032	0.119130
C150	C	-0.131228	-0.326699	0.452463
C151	C	-0.797847	-1.073541	-0.134148
C152	C	-0.464514	-0.740207	0.199185
C153	C	-0.131181	-0.406874	0.532519
C154	C	-0.715306	-1.060278	-0.147361
C155	C	-0.381972	-0.726944	0.185972
C156	C	-0.048639	-0.393611	0.519306
C157	C	-0.715353	-0.980102	-0.227417
C158	C	-0.382019	-0.646769	0.105917
C159	C	-0.048686	-0.313436	0.439250
C160	C	-0.174714	-0.933576	-0.273964
C161	C	0.158619	-0.600242	0.059369
C162	C	0.491952	-0.266909	0.392703
C163	C	-0.086866	-0.919519	-0.288040
C164	C	0.246468	-0.586185	0.045294
C165	C	0.579801	-0.252852	0.378627
C166	C	-0.380848	-0.966611	-0.404360
C167	C	-0.047515	-0.633278	-0.071026
C168	C	0.285818	-0.299945	0.262307
C169	C	-0.380842	-0.966632	-0.474002
C170	C	-0.047508	-0.633299	-0.140669
C171	C	0.285825	-0.299966	0.192664
C172	C	-0.380885	-0.129988	-0.240948
C173	C	-0.047551	0.203345	0.092385
C174	C	0.285782	0.536678	0.425719
C175	C	-0.380881	-0.199629	-0.240946
C176	C	-0.047548	0.133704	0.092387
C177	C	0.285785	0.467038	0.425721
C178	C	-0.330295	-0.998616	-0.514820
C179	C	0.003038	-0.665283	-0.181487
C180	C	0.336372	-0.331949	0.151846
C181	C	-0.330261	-0.998610	-0.580261
C182	C	0.003072	-0.665276	-0.246928
C183	C	0.336406	-0.331943	0.086406
C184	C	-0.380788	-0.966629	-0.604879
C185	C	-0.047454	-0.633295	-0.271546
C186	C	0.285879	-0.299962	0.061787
C187	C	-0.431338	-0.934638	-0.564053
C188	C	-0.098004	-0.601304	-0.230719
C189	C	0.235329	-0.267971	0.102614
C190	C	-0.431365	-0.934640	-0.498614
C191	C	-0.098031	-0.601306	-0.165281
C192	C	0.235302	-0.267973	0.168052
C193	C	-0.451952	-0.973074	-0.697156
C194	C	-0.118619	-0.639741	-0.363823
C195	C	0.214714	-0.306408	-0.030490
C196	C	-0.451927	-0.973077	-0.762593
C197	C	-0.118593	-0.639744	-0.429260
C198	C	0.214740	-0.306410	-0.095927
C199	C	-0.380704	-0.966619	-0.806713
C200	C	-0.047371	-0.633286	-0.473380
C201	C	0.285962	-0.299952	-0.140047
C202	C	-0.309505	-0.960171	-0.785389
C203	C	0.023828	-0.626838	-0.452055
C204	C	0.357162	-0.293504	-0.118722
C205	C	-0.309532	-0.960173	-0.719950
C206	C	0.023801	-0.626840	-0.386617
C207	C	0.357135	-0.293506	-0.053284
C208	C	-0.380764	-0.966623	-0.675835
C209	C	-0.047430	-0.633289	-0.342502
C210	C	0.285903	-0.299956	-0.009169
C211	C	-0.330117	-0.998597	-0.918491
C212	C	0.003217	-0.665264	-0.585157
C213	C	0.336550	-0.331931	-0.251824
C214	C	-0.330081	-0.998586	-0.983933
C215	C	0.003252	-0.665253	-0.650600
C216	C	0.336585	-0.331920	-0.317266
C217	C	-0.431165	-0.934619	-0.967722
C218	C	-0.097832	-0.601286	-0.634389
C219	C	0.235502	-0.267952	-0.301055
C220	C	-0.431193	-0.934625	-0.902282
C221	C	-0.097860	-0.601292	-0.568949
C222	C	0.235473	-0.267959	-0.235616
C223	C	-0.380670	-0.966618	-0.877670
C224	C	-0.047337	-0.633285	-0.544337
C225	C	0.285997	-0.299951	-0.211004
C226	C	-0.380823	-0.966539	-0.078153
C227	C	-0.047490	-0.633206	0.255180
C228	C	0.285843	-0.299873	0.588514
C229	C	-0.380607	-0.966604	-0.008547
C230	C	-0.047274	-0.633271	0.324787
C231	C	0.286059	-0.299937	0.658120
H232	H	-0.289050	-0.190965	-0.183061
H233	H	0.044284	0.142368	0.150273
H234	H	0.377617	0.475701	0.483606
Br235	Br	-0.659262	-1.105674	-0.101998
Br236	Br	-0.325928	-0.772340	0.231336
Br237	Br	0.007405	-0.439007	0.564669
H238	H	-0.831441	-1.111575	-0.096173
H239	H	-0.498108	-0.778242	0.237161
H240	H	-0.164774	-0.444909	0.570494
Br241	Br	-0.261562	-0.323025	-0.165742
Br242	Br	0.071771	0.010308	0.167592
Br243	Br	0.405105	0.343642	0.500925
H244	H	-0.289015	-0.713310	-0.183047
H245	H	0.044318	-0.379977	0.150287
H246	H	0.377652	-0.046643	0.483620
Br247	Br	-0.499798	-0.891218	-0.846882
Br248	Br	-0.166464	-0.557884	-0.513549
Br249	Br	0.166869	-0.224551	-0.180215
H250	H	-0.289154	-1.024666	-0.494786
H251	H	0.044179	-0.691333	-0.161453
H252	H	0.377513	-0.357999	0.171881
Br253	Br	-0.659370	-0.916704	-0.290717
Br254	Br	-0.326037	-0.583371	0.042616
Br255	Br	0.007296	-0.250038	0.375949
H256	H	-0.289096	-1.024653	-0.613502
H257	H	0.044238	-0.691319	-0.280169
H258	H	0.377571	-0.357986	0.053165
H259	H	-0.288973	-1.024644	-0.898451
H260	H	0.044360	-0.691310	-0.565118
H261	H	0.377693	-0.357977	-0.231785
H262	H	-0.509902	-0.978331	-0.779950
H263	H	-0.176568	-0.644998	-0.446617
H264	H	0.156765	-0.311665	-0.113283
H265	H	-0.288916	-1.024630	-1.017168
H266	H	0.044418	-0.691296	-0.683834
H267	H	0.377751	-0.357963	-0.350501
H268	H	-0.472710	-0.220453	-0.298826
H269	H	-0.139377	0.112880	0.034508
H270	H	0.193957	0.446214	0.367841
H271	H	-1.079167	-0.991015	-0.216644
H272	H	-0.745833	-0.657681	0.116690
H273	H	-0.412500	-0.324348	0.450023
H274	H	-0.289020	-0.594600	-0.183052
H275	H	0.044313	-0.261267	0.150281
H276	H	0.377647	0.072066	0.483614
Br277	Br	-0.500167	-0.764968	-0.316110
Br278	Br	-0.166834	-0.431635	0.017224
Br279	Br	0.166499	-0.098301	0.350557
H280	H	-0.509936	-0.978163	-0.661240
H281	H	-0.176602	-0.644830	-0.327907
H282	H	0.156731	-0.311497	0.005426
H283	H	-0.730731	-0.902388	-0.305012
H284	H	-0.397397	-0.569054	0.028322
H285	H	-0.064064	-0.235721	0.361655
Br286	Br	-0.212975	-0.517100	-0.256397
Br287	Br	0.120358	-0.183767	0.076937
Br288	Br	0.453692	0.149567	0.410270
Br289	Br	-0.548736	-0.570884	-0.225482
Br290	Br	-0.215402	-0.237551	0.107852
Br291	Br	0.117931	0.095782	0.441185
H292	H	-0.805656	-0.841694	-0.365662
H293	H	-0.472323	-0.508361	-0.032329
H294	H	-0.138989	-0.175027	0.301004
H295	H	-1.030190	-1.030687	-0.177019
H296	H	-0.696857	-0.697353	0.156314
H297	H	-0.363524	-0.364020	0.489647
H298	H	-0.251648	-0.386827	-0.252823
H299	H	0.081685	-0.053493	0.080510
H300	H	0.415018	0.279840	0.413843
H301	H	-0.929489	-0.821501	-0.385869
H302	H	-0.596156	-0.488168	-0.052535
H303	H	-0.262823	-0.154835	0.280798
H304	H	-0.472474	-0.908596	-0.584101
H305	H	-0.139141	-0.575263	-0.250768
H306	H	0.194192	-0.241929	0.082565
H307	H	-1.079236	-0.845571	-0.361893
H308	H	-0.745903	-0.512238	-0.028559
H309	H	-0.412569	-0.178904	0.304774
H310	H	-0.955280	-1.091381	-0.116382
H311	H	-0.621947	-0.758048	0.216951
H312	H	-0.288614	-0.424714	0.550285
H313	H	-0.251559	-0.954921	-0.702591
H314	H	0.081774	-0.621588	-0.369257
H315	H	0.415108	-0.288255	-0.035924
H316	H	-0.251509	-0.954913	-0.821311
H317	H	0.081825	-0.621580	-0.487978
H318	H	0.415158	-0.288247	-0.154644
H319	H	-0.472297	-0.908572	-0.987767
H320	H	-0.138963	-0.575238	-0.654433
H321	H	0.194370	-0.241905	-0.321100
Br322	Br	-0.499968	-0.891229	-0.443214
Br323	Br	-0.166635	-0.557895	-0.109881
Br324	Br	0.166699	-0.224562	0.223452
H325	H	-0.472703	-0.339158	-0.298819
H326	H	-0.139370	-0.005825	0.034514
H327	H	0.193964	0.327508	0.367848
H328	H	-0.510078	-0.428222	-0.229052
H329	H	-0.176744	-0.094888	0.104282
H330	H	0.156589	0.238445	0.437615
H331	H	-0.472684	-0.624085	-0.298811
H332	H	-0.139351	-0.290752	0.034522
H333	H	0.193982	0.042582	0.367855
