data_functionalizedCrystal
_audit_creation_method	'MofGen! by Chris Wilmer'
_symmetry_space_group_name_H-M	'P1'
_symmetry_Int_Tables_number	1
_symmetry_cell_setting	triclinic
loop_
_symmetry_equiv_pos_as_xyz
  x,y,z
_cell_length_a	12.837943
_cell_length_b	10.654541
_cell_length_c	11.892095
_cell_angle_alpha	93.927124
_cell_angle_beta	85.689438
_cell_angle_gamma	89.656434
loop_
_atom_site_label
_atom_site_type_symbol
_atom_site_fract_x
_atom_site_fract_y
_atom_site_fract_z
O1	O	1.384375	0.319511	-0.093982
O2	O	1.082454	0.303370	-0.093989
O3	O	1.240357	0.129459	-0.093979
O4	O	1.226472	0.493422	-0.093993
O5	O	1.227191	0.143935	0.094028
O6	O	1.069288	0.317845	0.094017
O7	O	1.371209	0.333987	0.094024
Zn8	Zn	1.218158	0.328214	0.123871
Zn9	Zn	1.235505	0.309142	-0.123836
O10	O	1.213306	0.507897	0.094014
C11	C	1.037212	0.305155	0.000013
C12	C	0.922018	0.288892	0.000011
C13	C	1.232755	0.089788	0.000024
C14	C	1.229707	-0.049989	0.000022
C15	C	0.682463	0.484397	0.000020
C16	C	0.574228	0.469123	0.000018
C17	C	0.597309	0.243071	0.000015
C18	C	0.705544	0.258345	0.000016
C19	C	0.748117	0.379012	0.000017
C20	C	0.856355	0.394285	0.000010
C21	C	0.879434	0.168234	0.000015
C22	C	0.771199	0.152960	0.000014
C23	C	1.418522	-0.057354	0.000040
C24	C	1.511493	-0.126702	0.000052
C25	C	1.508622	-0.258033	0.000048
C26	C	1.412770	-0.320020	0.000030
C27	C	1.319799	-0.250672	0.000018
C28	C	1.322680	-0.119337	0.000025
C29	C	1.130987	-0.243308	-0.000008
C30	C	1.133855	-0.111975	0.000003
C31	C	1.035135	-0.305294	-0.000027
C32	C	0.942161	-0.235946	-0.000030
C33	C	0.945036	-0.104606	-0.000025
C34	C	1.040884	-0.042627	-0.000008
C35	C	1.416452	0.332202	0.000019
C36	C	1.531646	0.348464	0.000014
C37	C	1.220908	0.547569	0.000009
C38	C	1.223958	0.687344	0.000003
N39	N	1.206327	0.341231	0.292924
N40	N	1.247344	0.296117	-0.292889
C41	C	1.329669	0.205471	0.529580
C42	C	1.321407	0.214579	0.647922
C43	C	1.181537	0.368549	0.647950
C44	C	1.189799	0.359440	0.529609
C45	C	1.263869	0.277900	0.470428
C46	C	1.272135	0.268799	0.352085
C47	C	1.132260	0.422761	0.352116
C48	C	1.123998	0.431869	0.470457
H49	H	0.891016	0.492538	0.000013
C50	C	1.411150	0.115783	0.464479
N51	N	1.472522	0.048227	0.415446
H52	H	0.717126	0.582649	0.000018
H53	H	0.520775	0.554939	0.000023
C54	C	0.724355	0.020233	0.000011
N55	N	0.689075	-0.079740	0.000005
C56	C	1.353610	0.179100	0.286987
N57	N	1.414975	0.111532	0.237959
C58	C	1.100041	0.458203	0.713070
N59	N	1.038652	0.525723	0.762119
C60	C	1.421688	0.087115	0.000054
N61	N	1.424076	0.195931	0.000063
H62	H	1.374987	0.155598	0.696080
C63	C	1.409618	-0.464489	0.000022
N64	N	1.407243	-0.573304	0.000019
C65	C	1.031979	-0.449762	-0.000023
N66	N	1.029600	-0.558577	-0.000013
H67	H	0.932903	0.082421	0.000005
H68	H	0.562620	0.144837	0.000108
C69	C	1.044055	0.101840	-0.000004
N70	N	1.046448	0.210655	-0.000006
C71	C	1.059875	0.502438	0.287039
N72	N	1.005357	0.562452	0.238022
C73	C	1.042518	0.521549	0.535569
N74	N	0.981145	0.589098	0.584611
H75	H	1.589533	-0.076217	0.000077
H76	H	0.869327	-0.048151	-0.000040
H77	H	1.584328	-0.314497	0.000049
H78	H	0.864127	-0.286426	-0.000053
