data_functionalizedCrystal
_audit_creation_method	'MofGen! by Chris Wilmer'
_symmetry_space_group_name_H-M	'P1'
_symmetry_Int_Tables_number	1
_symmetry_cell_setting	triclinic
loop_
_symmetry_equiv_pos_as_xyz
  x,y,z
_cell_length_a	12.837943
_cell_length_b	10.489741
_cell_length_c	11.295483
_cell_angle_alpha	94.137284
_cell_angle_beta	85.461227
_cell_angle_gamma	89.684057
loop_
_atom_site_label
_atom_site_type_symbol
_atom_site_fract_x
_atom_site_fract_y
_atom_site_fract_z
O1	O	1.384854	0.324137	-0.099003
O2	O	1.082927	0.307742	-0.099010
O3	O	1.240760	0.131100	-0.098999
O4	O	1.227021	0.500780	-0.099013
O5	O	1.226897	0.146588	0.099051
O6	O	1.069064	0.323231	0.099040
O7	O	1.370991	0.339626	0.099047
Cu8	Cu	1.218762	0.332842	0.117127
Cu9	Cu	1.235156	0.314526	-0.117090
O10	O	1.213158	0.516268	0.099036
C11	C	1.037334	0.309948	0.000014
C12	C	0.922133	0.293430	0.000012
C13	C	1.232791	0.091198	0.000025
C14	C	1.229686	-0.050774	0.000023
C15	C	0.682657	0.492006	0.000021
C16	C	0.574415	0.476492	0.000020
C17	C	0.597406	0.246889	0.000016
C18	C	0.705648	0.262403	0.000017
C19	C	0.748269	0.384966	0.000018
C20	C	0.856513	0.400478	0.000011
C21	C	0.879501	0.170877	0.000016
C22	C	0.771260	0.155363	0.000014
C23	C	1.129262	-0.129987	0.000012
C24	C	1.169867	-0.209242	0.097662
C25	C	1.183558	-0.224485	-0.097600
C26	C	1.270327	-0.128153	0.097754
C27	C	1.284011	-0.143394	-0.097596
C28	C	1.324687	-0.222613	0.000078
C29	C	1.416585	0.337420	0.000020
C30	C	1.531786	0.353937	0.000015
C31	C	1.221127	0.556170	0.000010
C32	C	1.224233	0.698141	0.000004
N33	N	1.207238	0.345726	0.281863
N34	N	1.246688	0.301633	-0.281825
C35	C	1.329641	0.208822	0.531161
C36	C	1.320940	0.218568	0.655824
C37	C	1.181131	0.374956	0.655854
C38	C	1.189832	0.365210	0.531191
C39	C	1.264090	0.282142	0.468849
C40	C	1.272796	0.272403	0.344183
C41	C	1.132982	0.428784	0.344216
C42	C	1.124281	0.438530	0.468879
H43	H	0.891213	0.500275	0.000014
H44	H	1.146833	-0.266591	-0.180163
O45	O	1.401800	0.128036	0.470779
C46	C	1.457816	0.065441	0.552511
H47	H	1.409067	0.065742	0.641386
H48	H	1.534272	0.117356	0.565749
C49	C	1.541453	-0.073839	0.394693
C50	C	1.481575	-0.073479	0.503848
H51	H	1.556113	-0.159530	0.364675
H52	H	1.503717	-0.031665	0.339627
H53	H	1.605159	-0.030570	0.405740
H54	H	1.417865	-0.116733	0.492798
H55	H	1.519301	-0.115664	0.558911
H56	H	1.333263	0.204769	0.293425
H57	H	0.932936	0.083716	0.000006
H58	H	1.046686	-0.089431	0.000108
H59	H	1.374316	0.158862	0.706555
O60	O	1.108946	0.455463	0.716562
C61	C	1.039386	0.384885	0.788657
H62	H	1.078667	0.291491	0.807304
H63	H	0.965991	0.363092	0.740634
C64	C	0.961242	0.578095	0.884191
C65	C	1.009490	0.463392	0.907102
H66	H	0.942797	0.626522	0.957251
H67	H	1.008103	0.625646	0.835617
H68	H	0.900086	0.559918	0.844169
H69	H	1.070652	0.481570	0.947109
H70	H	0.962639	0.415845	0.955686
O71	O	1.112125	-0.244075	0.196060
C72	C	1.009149	-0.196753	0.195730
H73	H	0.991926	-0.179377	0.100704
H74	H	1.000328	-0.103098	0.253604
C75	C	0.952997	-0.316388	0.362268
C76	C	0.931841	-0.295056	0.245554
H77	H	0.905309	-0.377022	0.393007
H78	H	1.022375	-0.348266	0.362494
H79	H	0.945647	-0.238334	0.410482
H80	H	0.939204	-0.373105	0.197340
H81	H	0.862462	-0.263193	0.245322
H82	H	0.562677	0.147112	0.000113
H83	H	0.717359	0.591801	0.000020
O84	O	0.729817	0.036323	-0.000200
C85	C	0.675047	0.012484	-0.102757
H86	H	0.706160	0.076707	-0.174444
H87	H	0.588302	0.033381	-0.079563
C88	C	0.652157	-0.207419	-0.061228
C89	C	0.690376	-0.128547	-0.149280
H90	H	0.661607	-0.294415	-0.089924
H91	H	0.689052	-0.191358	0.007869
H92	H	0.579872	-0.189990	-0.041908
H93	H	0.762662	-0.145966	-0.168588
H94	H	0.653493	-0.144614	-0.218382
O95	O	1.052099	0.519048	0.529578
C96	C	0.982529	0.448491	0.601679
H97	H	1.021798	0.355096	0.620342
H98	H	0.909135	0.426701	0.553653
C99	C	0.904399	0.641724	0.697182
C100	C	0.952634	0.527019	0.720112
H101	H	0.885953	0.690165	0.770235
H102	H	0.951267	0.689261	0.648603
H103	H	0.843243	0.623549	0.657157
H104	H	1.013795	0.545196	0.760122
H105	H	0.905775	0.479488	0.768701
H106	H	0.520997	0.563656	0.000025
H107	H	1.306997	-0.086177	0.180402
H108	H	1.407326	-0.262921	0.000134
H109	H	1.332246	-0.114126	-0.180154
H110	H	1.079610	0.488490	0.293468
