data_functionalizedCrystal
_audit_creation_method	'MofGen! by Chris Wilmer'
_symmetry_space_group_name_H-M	'P1'
_symmetry_Int_Tables_number	1
_symmetry_cell_setting	triclinic
loop_
_symmetry_equiv_pos_as_xyz
  x,y,z
_cell_length_a	10.540539
_cell_length_b	11.792241
_cell_length_c	10.868271
_cell_angle_alpha	89.994719
_cell_angle_beta	89.997750
_cell_angle_gamma	84.359454
loop_
_atom_site_label
_atom_site_type_symbol
_atom_site_fract_x
_atom_site_fract_y
_atom_site_fract_z
O1	O	1.685366	0.159957	-0.102265
O2	O	2.185366	0.659957	0.397735
O3	O	1.315904	0.175028	-0.102280
O4	O	1.815904	0.675028	0.397720
O5	O	1.509601	0.002345	-0.102263
O6	O	2.009601	0.502345	0.397737
O7	O	1.491669	0.332639	-0.102281
O8	O	1.991669	0.832639	0.397719
O9	O	1.509585	0.002338	0.102381
O10	O	2.009585	0.502338	0.602381
O11	O	1.315888	0.175021	0.102365
O12	O	1.815888	0.675021	0.602365
O13	O	1.685350	0.159950	0.102380
O14	O	2.185350	0.659950	0.602380
Zn15	Zn	1.500616	0.167484	0.134864
Zn16	Zn	2.000616	0.667484	0.634864
Zn17	Zn	1.500637	0.167493	-0.134764
Zn18	Zn	2.000637	0.667493	0.365236
O19	O	1.491653	0.332632	0.102363
O20	O	1.991653	0.832632	0.602363
C21	C	1.268596	0.173894	0.000040
C22	C	1.768596	0.673894	0.500040
C23	C	1.127659	0.170513	0.000035
C24	C	1.627659	0.670513	0.500035
C25	C	1.508466	-0.039952	0.000058
C26	C	2.008466	0.460048	0.500058
C27	C	1.505095	-0.165975	0.000057
C28	C	2.005095	0.334025	0.500057
C29	C	1.498896	-0.396703	0.000036
C30	C	1.998896	0.103297	0.500036
C31	C	1.502340	-0.268309	0.000048
C32	C	2.002340	0.231691	0.500048
C33	C	0.944655	0.040941	0.000520
C34	C	1.444655	0.540941	0.500520
C35	C	1.091262	0.044369	0.000045
C36	C	1.591262	0.544369	0.500045
C37	C	1.065798	0.231222	-0.116826
C38	C	1.565798	0.731222	0.383174
C39	C	0.919268	0.226917	-0.116911
C40	C	1.419268	0.726917	0.383089
C41	C	0.918753	0.229475	0.115808
C42	C	1.418753	0.729475	0.615808
C43	C	1.065731	0.230637	0.117340
C44	C	1.565731	0.730637	0.617340
C45	C	1.732657	0.161083	0.000057
C46	C	2.232657	0.661083	0.500057
C47	C	1.873594	0.164465	0.000054
C48	C	2.373594	0.664465	0.500054
C49	C	1.492787	0.374930	0.000039
C50	C	1.992787	0.874930	0.500039
C51	C	1.496159	0.500952	0.000032
C52	C	1.996159	1.000952	0.500032
N53	N	1.500611	0.167477	0.318878
N54	N	2.000611	0.667477	0.818878
N55	N	1.500653	0.167491	-0.318778
N56	N	2.000653	0.667491	0.181222
C57	C	1.500631	0.167491	0.569884
C58	C	2.000631	0.667491	1.069884
C59	C	1.500616	0.167487	0.430207
C60	C	2.000616	0.667487	0.930207
H61	H	1.134024	-0.003399	0.083817
H62	H	1.634024	0.496601	0.583817
H63	H	0.871004	0.317637	-0.122220
H64	H	1.371004	0.817637	0.377780
H65	H	0.916225	-0.008895	0.084328
H66	H	1.416225	0.491105	0.584328
H67	H	0.887333	0.188649	0.204388
H68	H	1.387333	0.688649	0.704388
F69	F	1.119325	0.172575	0.230340
F70	F	1.619325	0.672575	0.730340
H71	H	1.089657	0.322604	0.124391
H72	H	1.589657	0.822604	0.624391
F73	F	1.094650	0.352296	-0.122539
F74	F	1.594650	0.852296	0.377461
F75	F	1.121649	0.176108	-0.230499
F76	F	1.621649	0.676108	0.269501
H77	H	1.133170	-0.003730	-0.083865
H78	H	1.633170	0.496270	0.416135
F79	F	0.856638	0.348566	0.116835
F80	F	1.356638	0.848566	0.616835
H81	H	0.891210	0.182053	-0.204261
H82	H	1.391210	0.682053	0.295739
F83	F	0.905386	-0.023923	-0.108399
F84	F	1.405386	0.476077	0.391601
