data_functionalizedCrystal
_audit_creation_method	'MofGen! by Chris Wilmer'
_symmetry_space_group_name_H-M	'P1'
_symmetry_Int_Tables_number	1
_symmetry_cell_setting	triclinic
loop_
_symmetry_equiv_pos_as_xyz
  x,y,z
_cell_length_a	11.169417
_cell_length_b	18.050590
_cell_length_c	11.169417
_cell_angle_alpha	90.011088
_cell_angle_beta	90.003400
_cell_angle_gamma	90.019802
loop_
_atom_site_label
_atom_site_type_symbol
_atom_site_fract_x
_atom_site_fract_y
_atom_site_fract_z
Zn1	Zn	1.834703	-0.295772	0.678485
Zn2	Zn	2.168036	0.037562	1.011818
Zn3	Zn	2.501370	0.370895	1.345152
Zn4	Zn	1.834620	-0.419928	0.477782
Zn5	Zn	2.167953	-0.086595	0.811116
Zn6	Zn	2.501287	0.246738	1.144449
Zn7	Zn	1.634045	-0.295759	0.477821
Zn8	Zn	1.967379	0.037574	0.811154
Zn9	Zn	2.300712	0.370907	1.144487
Zn10	Zn	1.633968	-0.419927	0.678428
Zn11	Zn	1.967301	-0.086594	1.011761
Zn12	Zn	2.300634	0.246740	1.345095
O13	O	1.734334	-0.357847	0.578129
O14	O	2.067667	-0.024513	0.911462
O15	O	2.401001	0.308820	1.244796
O16	O	2.002642	-0.312247	0.651869
O17	O	2.335975	0.021086	0.985203
O18	O	2.669308	0.354420	1.318536
O19	O	1.808011	-0.403453	0.309838
O20	O	2.141344	-0.070119	0.643171
O21	O	2.474678	0.263214	0.976504
O22	O	1.660730	-0.191836	0.504479
O23	O	1.994063	0.141497	0.837812
O24	O	2.327397	0.474830	1.171146
O25	O	2.002581	-0.403464	0.504414
O26	O	2.335914	-0.070131	0.837747
O27	O	2.669247	0.263202	1.171080
O28	O	1.808152	-0.191845	0.651906
O29	O	2.141486	0.141488	0.985240
O30	O	2.474819	0.474821	1.318573
O31	O	1.660650	-0.312226	0.309866
O32	O	1.993983	0.021107	0.643199
O33	O	2.327316	0.354440	0.976533
O34	O	1.466085	-0.312225	0.504424
O35	O	1.799419	0.021108	0.837757
O36	O	2.132752	0.354442	1.171091
O37	O	1.660598	-0.403462	0.846385
O38	O	1.993931	-0.070129	1.179719
O39	O	2.327264	0.263205	1.513052
O40	O	1.466028	-0.403450	0.651809
O41	O	1.799361	-0.070117	0.985143
O42	O	2.132695	0.263216	1.318476
O43	O	1.808077	-0.312246	0.846427
O44	O	2.141410	0.021088	1.179760
O45	O	2.474744	0.354421	1.513094
O46	O	1.807936	-0.523853	0.504359
O47	O	2.141269	-0.190519	0.837692
O48	O	2.474602	0.142814	1.171025
O49	O	1.660517	-0.523852	0.651772
O50	O	1.993851	-0.190518	0.985106
O51	O	2.327184	0.142815	1.318439
C52	C	1.422509	-0.357837	0.578115
C53	C	1.755843	-0.024503	0.911449
C54	C	2.089176	0.308830	1.244782
C55	C	1.289109	-0.357850	0.578138
C56	C	1.622443	-0.024517	0.911471
C57	C	1.955776	0.308816	1.244805
C58	C	1.734242	-0.550799	0.578081
C59	C	2.067575	-0.217465	0.911415
C60	C	2.400908	0.115868	1.244748
C61	C	1.734312	-0.633345	0.578101
C62	C	2.067645	-0.300011	0.911434
C63	C	2.400979	0.033322	1.244768
C64	C	1.814645	-0.832769	0.498049
C65	C	2.147978	-0.499435	0.831383
C66	C	2.481312	-0.166102	1.164716
C67	C	1.843938	-0.882121	0.607585
C68	C	2.177271	-0.548788	0.940918
C69	C	2.510605	-0.215455	1.274252
C70	C	1.734380	-0.784475	0.578149
C71	C	2.067713	-0.451142	0.911482
C72	C	2.401047	-0.117808	1.244815
C73	C	1.705209	-0.882204	0.468662
C74	C	2.038542	-0.548870	0.801996
C75	C	2.371876	-0.215537	1.135329
C76	C	1.734448	-0.930460	0.578185
C77	C	2.067782	-0.597127	0.911519
C78	C	2.401115	-0.263793	1.244852
C79	C	1.763730	-0.832740	0.687742
C80	C	2.097063	-0.499407	1.021075
C81	C	2.430396	-0.166074	1.354409
C82	C	1.624950	-0.832818	0.548745
C83	C	1.958283	-0.499485	0.882079
C84	C	2.291616	-0.166152	1.215412
C85	C	1.654201	-0.882149	0.658357
C86	C	1.987534	-0.548815	0.991690
C87	C	2.320868	-0.215482	1.325023
C88	C	1.734344	-0.700377	0.578126
C89	C	2.067677	-0.367043	0.911459
C90	C	2.401011	-0.033710	1.244793
C91	C	1.734484	-1.014556	0.578220
C92	C	2.067817	-0.681223	0.911554
C93	C	2.401151	-0.347890	1.244887
C94	C	2.047376	-0.357857	0.578144
C95	C	2.380710	-0.024524	0.911477
C96	C	2.714043	0.308809	1.244810
C97	C	2.180776	-0.357862	0.578150
C98	C	2.514110	-0.024528	0.911483
C99	C	2.847443	0.308805	1.244816
C100	C	1.734338	-0.357855	0.891171
C101	C	2.067671	-0.024522	1.224505
C102	C	2.401005	0.308812	1.557838
C103	C	1.734340	-0.357859	1.024571
C104	C	2.067673	-0.024525	1.357905
C105	C	2.401006	0.308808	1.691238
C106	C	1.734459	-0.164141	0.578203
C107	C	2.067793	0.169192	0.911537
C108	C	2.401126	0.502526	1.244870
C109	C	1.734513	-0.081595	0.578235
C110	C	2.067846	0.251738	0.911568
C111	C	2.401179	0.585071	1.244902
C112	C	1.734325	-0.357857	1.266304
C113	C	2.067658	-0.024524	1.599638
C114	C	2.400992	0.308809	1.932971
C115	C	1.734335	-0.357862	1.132904
C116	C	2.067669	-0.024528	1.466238
C117	C	2.401002	0.308805	1.799571
H118	H	1.882545	-0.811087	0.430382
H119	H	2.215878	-0.477753	0.763715
H120	H	2.549212	-0.144420	1.097048
H121	H	1.680508	-0.903931	0.376056
H122	H	2.013841	-0.570598	0.709389
H123	H	2.347175	-0.237264	1.042722
H124	H	1.788339	-0.811105	0.780428
H125	H	2.121672	-0.477772	1.113762
H126	H	2.455005	-0.144439	1.447095
H127	H	1.936510	-0.903780	0.632478
H128	H	2.269844	-0.570447	0.965811
H129	H	2.603177	-0.237113	1.299145
N130	N	1.564309	-0.910679	0.748192
N131	N	1.897642	-0.577346	1.081525
N132	N	2.230975	-0.244012	1.414858
H133	H	1.586518	-0.892582	0.830834
H134	H	1.919851	-0.559249	1.164167
H135	H	2.253185	-0.225916	1.497501
H136	H	1.564349	-0.966627	0.747135
H137	H	1.897682	-0.633293	1.080468
H138	H	2.231015	-0.299960	1.413801
H139	H	1.532404	-0.811144	0.523820
H140	H	1.865737	-0.477811	0.857153
H141	H	2.199071	-0.144477	1.190486
