data_functionalizedCrystal
_audit_creation_method	'MofGen! by Chris Wilmer'
_symmetry_space_group_name_H-M	'P1'
_symmetry_Int_Tables_number	1
_symmetry_cell_setting	triclinic
loop_
_symmetry_equiv_pos_as_xyz
  x,y,z
_cell_length_a	10.540491
_cell_length_b	9.065218
_cell_length_c	7.540329
_cell_angle_alpha	89.997902
_cell_angle_beta	90.002525
_cell_angle_gamma	95.239223
loop_
_atom_site_label
_atom_site_type_symbol
_atom_site_fract_x
_atom_site_fract_y
_atom_site_fract_z
O1	O	-1.686688	0.207589	-0.147459
O2	O	-1.317340	0.227255	-0.147466
O3	O	-1.509648	0.002740	-0.147457
O4	O	-1.494380	0.432104	-0.147468
O5	O	-1.509637	0.002737	0.147508
O6	O	-1.317328	0.227252	0.147499
O7	O	-1.686676	0.207587	0.147506
Cu8	Cu	-1.502001	0.217419	0.174435
Cu9	Cu	-1.502015	0.217423	-0.174395
O10	O	-1.494368	0.432102	0.147497
C11	C	-1.270025	0.225794	0.000016
C12	C	-1.129057	0.221427	0.000013
N13	N	-1.502001	0.217416	0.419784
C14	C	-0.912177	0.377403	-0.000672
C15	C	-1.058791	0.382062	0.000006
C16	C	-1.083987	0.139202	0.168450
C17	C	-0.937211	0.135681	0.168578
C18	C	-0.937406	0.132339	-0.166853
C19	C	-1.083777	0.139947	-0.169066
C20	C	-0.733990	0.209067	0.000016
C21	C	-0.874951	0.213493	-0.000005
C22	C	-1.495841	0.487082	0.000013
C23	C	-1.500229	0.650902	0.000009
C24	C	-1.508175	-0.052240	0.000023
C25	C	-1.503787	-0.216060	0.000015
N26	N	-1.502025	0.217414	-0.419744
H27	H	-1.088380	0.446388	-0.120741
H28	H	-1.112621	0.199773	-0.293674
F29	F	-1.147338	-0.013346	-0.182354
H30	H	-1.115047	0.196303	0.293799
H31	H	-0.895050	0.182999	-0.294521
H32	H	-0.914806	0.011741	-0.167989
F33	F	-1.145345	-0.015373	0.176640
F34	F	-0.906569	-0.021342	0.178662
H35	H	-0.870459	0.439987	-0.121469
H36	H	-0.868895	0.439625	0.119436
F37	F	-0.884906	0.209138	0.333142
F38	F	-1.096230	0.466640	0.158094
