data_functionalizedCrystal
_audit_creation_method	'MofGen! by Chris Wilmer'
_symmetry_space_group_name_H-M	'P1'
_symmetry_Int_Tables_number	1
_symmetry_cell_setting	triclinic
loop_
_symmetry_equiv_pos_as_xyz
  x,y,z
_cell_length_a	21.395362
_cell_length_b	25.639240
_cell_length_c	21.395355
_cell_angle_alpha	89.978599
_cell_angle_beta	90.043940
_cell_angle_gamma	89.940961
loop_
_atom_site_label
_atom_site_type_symbol
_atom_site_fract_x
_atom_site_fract_y
_atom_site_fract_z
Zn1	Zn	0.957805	0.207990	0.354573
Zn2	Zn	1.291139	0.541323	0.687906
Zn3	Zn	1.624472	0.874656	1.021240
Zn4	Zn	0.957685	0.295410	0.249790
Zn5	Zn	1.291018	0.628743	0.583124
Zn6	Zn	1.624352	0.962076	0.916457
Zn7	Zn	0.853020	0.208014	0.249774
Zn8	Zn	1.186354	0.541347	0.583108
Zn9	Zn	1.519687	0.874681	0.916441
Zn10	Zn	0.852967	0.295420	0.354495
Zn11	Zn	1.186300	0.628754	0.687828
Zn12	Zn	1.519633	0.962087	1.021162
O13	O	0.905369	0.251708	0.302158
O14	O	1.238703	0.585042	0.635491
O15	O	1.572036	0.918375	0.968825
O16	O	1.045467	0.219572	0.340713
O17	O	1.378801	0.552905	0.674046
O18	O	1.712134	0.886238	1.007379
O19	O	0.943773	0.283822	0.162110
O20	O	1.277106	0.617155	0.495444
O21	O	1.610440	0.950489	0.828777
O22	O	0.866993	0.134846	0.263702
O23	O	1.200326	0.468179	0.597035
O24	O	1.533660	0.801512	0.930369
O25	O	1.045379	0.283798	0.263729
O26	O	1.378712	0.617132	0.597063
O27	O	1.712046	0.950465	0.930396
O28	O	0.943978	0.134828	0.340697
O29	O	1.277311	0.468161	0.674031
O30	O	1.610645	0.801494	1.007364
O31	O	0.866876	0.219613	0.162098
O32	O	1.200210	0.552946	0.495432
O33	O	1.533543	0.886280	0.828765
O34	O	0.765335	0.219623	0.263626
O35	O	1.098669	0.552957	0.596960
O36	O	1.432002	0.886290	0.930293
O37	O	0.866902	0.283817	0.442183
O38	O	1.200235	0.617150	0.775517
O39	O	1.533568	0.950483	1.108850
O40	O	0.765296	0.283840	0.340564
O41	O	1.098629	0.617174	0.673898
O42	O	1.431963	0.950507	1.007231
O43	O	0.943926	0.219582	0.442241
O44	O	1.277259	0.552915	0.775574
O45	O	1.610593	0.886249	1.108907
O46	O	0.943721	0.368576	0.263654
O47	O	1.277054	0.701910	0.596987
O48	O	1.610388	1.035243	0.930320
O49	O	0.866785	0.368584	0.340580
O50	O	1.200118	0.701917	0.673913
O51	O	1.533452	1.035251	1.007246
C52	C	0.742582	0.251736	0.302085
C53	C	1.075915	0.585069	0.635419
C54	C	1.409248	0.918403	0.968752
C55	C	0.672940	0.251760	0.302069
C56	C	1.006274	0.585094	0.635403
C57	C	1.339607	0.918427	0.968736
C58	C	0.640223	0.285243	0.342071
C59	C	0.973556	0.618576	0.675404
C60	C	1.306890	0.951909	1.008737
C61	C	0.574788	0.285230	0.342099
C62	C	0.908121	0.618563	0.675432
C63	C	1.241454	0.951896	1.008765
C64	C	0.542072	0.251740	0.302114
C65	C	0.875405	0.585074	0.635447
C66	C	1.208739	0.918407	0.968780
C67	C	0.574797	0.218252	0.262110
C68	C	0.908131	0.551585	0.595443
C69	C	1.241464	0.884918	0.928776
C70	C	0.640231	0.218262	0.262087
C71	C	0.973565	0.551595	0.595421
C72	C	1.306898	0.884929	0.928754
C73	C	0.438348	0.247528	0.245709
C74	C	0.771682	0.580862	0.579042
C75	C	1.105015	0.914195	0.912376
C76	C	0.372915	0.247522	0.245730
C77	C	0.706249	0.580855	0.579063
C78	C	1.039582	0.914189	0.912397
C79	C	0.340251	0.251706	0.302183
C80	C	0.673585	0.585040	0.635516
C81	C	1.006918	0.918373	0.968850
C82	C	0.373028	0.255908	0.358616
C83	C	0.706362	0.589241	0.691950
C84	C	1.039695	0.922575	1.025283
C85	C	0.438462	0.255918	0.358594
C86	C	0.771796	0.589251	0.691927
C87	C	1.105129	0.922585	1.025261
C88	C	0.471120	0.251725	0.302134
C89	C	0.804453	0.585059	0.635467
C90	C	1.137786	0.918392	0.968801
C91	C	0.236582	0.285176	0.342218
C92	C	0.569915	0.618510	0.675552
C93	C	0.903248	0.951843	1.008885
C94	C	0.171145	0.285160	0.342247
C95	C	0.504478	0.618493	0.675580
C96	C	0.837812	0.951826	1.008914
C97	C	0.171156	0.218185	0.262252
C98	C	0.504489	0.551518	0.595586
C99	C	0.837822	0.884851	0.928919
C100	C	0.236591	0.218198	0.262229
C101	C	0.569924	0.551532	0.595562
C102	C	0.903258	0.884865	0.928896
C103	C	0.269300	0.251697	0.302211
C104	C	0.602633	0.585030	0.635544
C105	C	0.935967	0.918364	0.968878
C106	C	0.905251	0.387551	0.302124
C107	C	1.238585	0.720884	0.635457
C108	C	1.571918	1.054218	0.968790
C109	C	0.905258	0.445665	0.302130
C110	C	1.238591	0.778998	0.635463
C111	C	1.571925	1.112332	0.968796
C112	C	0.945483	0.806011	0.262147
C113	C	1.278816	1.139345	0.595480
C114	C	1.612149	1.472678	0.928814
C115	C	0.945502	0.860616	0.262153
C116	C	1.278835	1.193949	0.595486
C117	C	1.612168	1.527282	0.928820
O118	O	0.979619	0.888838	0.228139
O119	O	1.312952	1.222172	0.561472
O120	O	1.646286	1.555505	0.894806
N121	N	0.905420	0.887947	0.302172
N122	N	1.238753	1.221281	0.635505
N123	N	1.572087	1.554614	0.968839
C124	C	0.865321	0.860672	0.342192
C125	C	1.198654	1.194005	0.675526
C126	C	1.531987	1.527339	1.008859
O127	O	0.831230	0.888934	0.376233
O128	O	1.164563	1.222267	0.709566
O129	O	1.497897	1.555601	1.042899
C130	C	0.865305	0.806069	0.342189
C131	C	1.198638	1.139402	0.675522
C132	C	1.531972	1.472735	1.008856
C133	C	0.905385	0.778740	0.302163
C134	C	1.238718	1.112073	0.635496
C135	C	1.572052	1.445407	0.968829
C136	C	0.985560	0.778682	0.222125
C137	C	1.318893	1.112016	0.555458
C138	C	1.652227	1.445349	0.888791
C139	C	0.985540	0.724082	0.222118
C140	C	1.318873	1.057415	0.555451
C141	C	1.652206	1.390749	0.888785
C142	C	0.945442	0.696810	0.262134
C143	C	1.278776	1.030144	0.595467
C144	C	1.612109	1.363477	0.928800
C145	C	0.905365	0.724139	0.302156
C146	C	1.238698	1.057473	0.635489
C147	C	1.572032	1.390806	0.968823
C148	C	0.825210	0.778794	0.382212
C149	C	1.158543	1.112128	0.715545
C150	C	1.491876	1.445461	1.048878
C151	C	0.825198	0.724187	0.382205
C152	C	1.158531	1.057521	0.715539
C153	C	1.491864	1.390854	1.048872
C154	C	0.865278	0.696858	0.342179
C155	C	1.198611	1.030192	0.675513
C156	C	1.531944	1.363525	1.008846
C157	C	0.865247	0.642267	0.342165
C158	C	1.198581	0.975601	0.675498
C159	C	1.531914	1.308934	1.008832
N160	N	0.905329	0.614935	0.302146
N161	N	1.238663	0.948269	0.635479
N162	N	1.571996	1.281602	0.968813
C163	C	0.945427	0.642207	0.262130
C164	C	1.278760	0.975540	0.595464
C165	C	1.612093	1.308874	0.928797
C166	C	0.865357	0.975343	0.342197
C167	C	1.198690	1.308676	0.675530
C168	C	1.532024	1.642009	1.008864
C169	C	0.865369	1.029945	0.342198
C170	C	1.198702	1.363278	0.675531
C171	C	1.532036	1.696612	1.008864
C172	C	0.945551	1.029885	0.262159
C173	C	1.278884	1.363218	0.595492
C174	C	1.612218	1.696552	0.928826
C175	C	0.945536	0.975282	0.262156
C176	C	1.278869	1.308615	0.595489
C177	C	1.612202	1.641948	0.928822
C178	C	0.905439	0.948011	0.302178
C179	C	1.238772	1.281344	0.635511
C180	C	1.572106	1.614678	0.968845
C181	C	0.945381	0.527542	0.262119
C182	C	1.278714	0.860875	0.595452
C183	C	1.612048	1.194209	0.928786
C184	C	0.945355	0.472937	0.262114
C185	C	1.278689	0.806270	0.595447
C186	C	1.612022	1.139603	0.928781
C187	C	0.865176	0.473002	0.342155
C188	C	1.198509	0.806335	0.675488
C189	C	1.531843	1.139668	1.008821
C190	C	0.865199	0.527602	0.342157
C191	C	1.198532	0.860935	0.675491
C192	C	1.531866	1.194269	1.008824
C193	C	0.905306	0.554871	0.302138
C194	C	1.238640	0.888204	0.635471
C195	C	1.571973	1.221538	0.968804
O196	O	0.831149	0.614010	0.376164
O197	O	1.164483	0.947343	0.709497
O198	O	1.497816	1.280677	1.042830
O199	O	0.979517	0.613939	0.228101
O200	O	1.312851	0.947272	0.561435
O201	O	1.646184	1.280605	0.894768
C202	C	1.068793	0.251681	0.302231
C203	C	1.402126	0.585014	0.635565
C204	C	1.735459	0.918348	0.968898
C205	C	1.138434	0.251669	0.302263
C206	C	1.471767	0.585003	0.635596
C207	C	1.805101	0.918336	0.968929
C208	C	0.905421	0.251698	0.465581
C209	C	1.238755	0.585031	0.798915
C210	C	1.572088	0.918364	1.132248
C211	C	0.905443	0.251693	0.535223
C212	C	1.238777	0.585027	0.868556
C213	C	1.572110	0.918360	1.201889
C214	C	0.905481	1.115335	0.302196
C215	C	1.238815	1.448669	0.635529
C216	C	1.572148	1.782002	0.968862
C217	C	0.905469	1.057221	0.302184
C218	C	1.238802	1.390555	0.635517
C219	C	1.572136	1.723888	0.968851
C220	C	0.905354	0.251681	0.139371
C221	C	1.238687	0.585015	0.472704
C222	C	1.572020	0.918348	0.806037
C223	C	0.905453	0.251538	0.069730
C224	C	1.238786	0.584872	0.403063
C225	C	1.572120	0.918205	0.736396
C226	C	0.945548	0.218245	0.567967
C227	C	1.278882	0.551578	0.901300
C228	C	1.612215	0.884912	1.234633
C229	C	0.945548	0.218222	0.633402
C230	C	1.278881	0.551556	0.966736
C231	C	1.612214	0.884889	1.300069
C232	C	0.905448	0.251658	0.666091
C233	C	1.238782	0.584991	0.999424
C234	C	1.572115	0.918324	1.332758
C235	C	0.865336	0.285109	0.633339
C236	C	1.198669	0.618442	0.966673
C237	C	1.532002	0.951775	1.300006
C238	C	0.865333	0.285126	0.567905
C239	C	1.198667	0.618460	0.901238
C240	C	1.532000	0.951793	1.234572
C241	C	0.900460	0.298736	0.769752
C242	C	1.233794	0.632069	1.103085
C243	C	1.567127	0.965403	1.436419
C244	C	0.900467	0.298719	0.835185
C245	C	1.233800	0.632053	1.168518
C246	C	1.567134	0.965386	1.501852
C247	C	0.905452	0.251602	0.867912
C248	C	1.238786	0.584936	1.201245
C249	C	1.572119	0.918269	1.534579
C250	C	0.910444	0.204501	0.835198
C251	C	1.243777	0.537834	1.168531
C252	C	1.577111	0.871168	1.501865
C253	C	0.910441	0.204519	0.769764
C254	C	1.243775	0.537852	1.103097
C255	C	1.577108	0.871186	1.436430
C256	C	0.905446	0.251642	0.737044
C257	C	1.238780	0.584975	1.070377
C258	C	1.572113	0.918309	1.403710
C259	C	0.945558	0.218127	0.971609
C260	C	1.278892	0.551460	1.304942
C261	C	1.612225	0.884793	1.638275
C262	C	0.945553	0.218103	1.037045
C263	C	1.278887	0.551437	1.370379
C264	C	1.612220	0.884770	1.703712
C265	C	0.865345	0.284994	1.036981
C266	C	1.198678	0.618328	1.370314
C267	C	1.532011	0.951661	1.703648
C268	C	0.865347	0.285013	0.971546
C269	C	1.198680	0.618346	1.304879
C270	C	1.532013	0.951680	1.638212
C271	C	0.905457	0.251580	0.938863
C272	C	1.238790	0.584913	1.272197
C273	C	1.572123	0.918247	1.605530
H274	H	0.548144	0.312495	0.374675
H275	H	0.881477	0.645828	0.708008
H276	H	1.214811	0.979161	1.041342
H277	H	0.832726	1.052192	0.374785
H278	H	1.166059	1.385525	0.708118
H279	H	1.499393	1.718858	1.041452
C280	C	0.821235	0.321774	1.072935
C281	C	1.154569	0.655107	1.406268
C282	C	1.487902	0.988441	1.739602
N283	N	0.788010	0.349477	1.100019
N284	N	1.121344	0.682811	1.433352
N285	N	1.454677	1.016144	1.766686
C286	C	0.676221	0.181430	0.218077
C287	C	1.009555	0.514763	0.551410
C288	C	1.342888	0.848097	0.884744
N289	N	0.703330	0.153689	0.184926
N290	N	1.036663	0.487022	0.518260
N291	N	1.369997	0.820356	0.851593
C292	C	0.989628	0.945225	0.218126
C293	C	1.322962	1.278558	0.551460
C294	C	1.656295	1.611891	0.884793
N295	N	1.022842	0.922589	0.184962
N296	N	1.356175	1.255922	0.518295
N297	N	1.689508	1.589255	0.851629
H298	H	0.832672	0.312363	0.541245
H299	H	1.166005	0.645697	0.874579
H300	H	1.499339	0.979030	1.207912
H301	H	0.832700	0.953142	0.374786
H302	H	1.166034	1.286475	0.708119
H303	H	1.499367	1.619808	1.041453
C304	C	0.989673	0.181304	1.073064
C305	C	1.323006	0.514638	1.406397
C306	C	1.656340	0.847971	1.739730
N307	N	1.022906	0.153587	1.100193
N308	N	1.356239	0.486921	1.433526
N309	N	1.689572	0.820254	1.766860
H310	H	0.832692	0.312253	0.944885
H311	H	1.166026	0.645587	1.278219
H312	H	1.499359	0.978920	1.611552
C313	C	0.135172	0.181345	0.218269
C314	C	0.468506	0.514679	0.551602
C315	C	0.801839	0.848012	0.884936
N316	N	0.108066	0.153596	0.185140
N317	N	0.441400	0.486930	0.518473
N318	N	0.774733	0.820263	0.851807
H319	H	0.666851	0.312519	0.374628
H320	H	1.000184	0.645852	0.707961
H321	H	1.333517	0.979186	1.041295
H322	H	0.978215	0.190901	0.944997
H323	H	1.311548	0.524234	1.278331
H324	H	1.644882	0.857567	1.611664
C325	C	0.272564	0.322019	0.386206
C326	C	0.605897	0.655352	0.719539
C327	C	0.939230	0.988686	1.052873
N328	N	0.299664	0.349768	0.419339
N329	N	0.632997	0.683102	0.752673
N330	N	0.966330	1.016435	1.086006
H331	H	0.978203	1.052099	0.229578
H332	H	1.311536	1.385433	0.562911
H333	H	1.644870	1.718766	0.896245
H334	H	0.263230	0.190936	0.229652
H335	H	0.596563	0.524269	0.562986
H336	H	0.929897	0.857603	0.896319
C337	C	0.989445	0.442878	0.218077
C338	C	1.322779	0.776211	0.551410
C339	C	1.656112	1.109545	0.884744
N340	N	1.022653	0.420240	0.184909
N341	N	1.355986	0.753573	0.518242
N342	N	1.689319	1.086906	0.851576
H343	H	0.792547	0.701986	0.414798
H344	H	1.125880	1.035320	0.748132
H345	H	1.459214	1.368653	1.081465
H346	H	0.896406	0.337072	0.861816
H347	H	1.229740	0.670405	1.195149
H348	H	1.563073	1.003739	1.528483
C349	C	0.336867	0.242896	0.183653
C350	C	0.670201	0.576230	0.516986
C351	C	1.003534	0.909563	0.850320
N352	N	0.309717	0.239410	0.136895
N353	N	0.643051	0.572743	0.470228
N354	N	0.976384	0.906076	0.803562
H355	H	0.832564	0.549855	0.374752
H356	H	1.165898	0.883188	0.708085
H357	H	1.499231	1.216521	1.041419
C358	C	0.894988	0.350573	0.733759
C359	C	1.228321	0.683906	1.067093
C360	C	1.561654	1.017239	1.400426
N361	N	0.890870	0.389615	0.706650
N362	N	1.224204	0.722948	1.039983
N363	N	1.557537	1.056282	1.373317
C364	C	0.474272	0.242927	0.183602
C365	C	0.807606	0.576261	0.516935
C366	C	1.140939	0.909594	0.850268
N367	N	0.501329	0.239463	0.136824
N368	N	0.834663	0.572796	0.470158
N369	N	1.167996	0.906129	0.803491
C370	C	0.781119	0.808844	0.426247
C371	C	1.114453	1.142177	0.759580
C372	C	1.447786	1.475511	1.092913
N373	N	0.747909	0.831477	0.459417
N374	N	1.081242	1.164810	0.792751
N375	N	1.414575	1.498143	1.126084
C376	C	0.821073	0.442992	0.386172
C377	C	1.154407	0.776326	0.719506
C378	C	1.487740	1.109659	1.052839
N379	N	0.787859	0.420388	0.419331
N380	N	1.121192	0.753721	0.752664
N381	N	1.454526	1.087055	1.085997
H382	H	0.914504	0.166134	0.861843
H383	H	1.247838	0.499468	1.195176
H384	H	1.581171	0.832801	1.528509
H385	H	0.832685	0.312330	0.659959
H386	H	1.166018	0.645663	0.993292
H387	H	1.499351	0.978997	1.326625
H388	H	0.465147	0.259338	0.404544
H389	H	0.798480	0.592671	0.737877
H390	H	1.131813	0.926004	1.071211
C391	C	0.989498	0.557530	0.218091
C392	C	1.322831	0.890863	0.551425
C393	C	1.656164	1.224196	0.884758
N394	N	1.022723	0.580116	0.184926
N395	N	1.356056	0.913450	0.518259
N396	N	1.689389	1.246783	0.851593
C397	C	0.337103	0.260509	0.420720
C398	C	0.670436	0.593842	0.754053
C399	C	1.003769	0.927176	1.087387
N400	N	0.310041	0.263975	0.467495
N401	N	0.643374	0.597308	0.800828
N402	N	0.976708	0.930641	1.134161
H403	H	1.018215	0.800881	0.189539
H404	H	1.351549	1.134214	0.522872
H405	H	1.684882	1.467548	0.856205
C406	C	0.989663	0.181460	0.532020
C407	C	1.322996	0.514794	0.865353
C408	C	1.656329	0.848127	1.198687
N409	N	1.022887	0.153752	0.504944
N410	N	1.356221	0.487085	0.838277
N411	N	1.689554	0.820418	1.171611
C412	C	0.538809	0.181413	0.218126
C413	C	0.872142	0.514747	0.551459
C414	C	1.205475	0.848080	0.884793
N415	N	0.511702	0.153664	0.184998
N416	N	0.845036	0.486998	0.518331
N417	N	1.178369	0.820331	0.851664
C418	C	0.135156	0.321999	0.386249
C419	C	0.468490	0.655332	0.719582
C420	C	0.801823	0.988666	1.052916
N421	N	0.108049	0.349750	0.419389
N422	N	0.441382	0.683083	0.752723
N423	N	0.774716	1.016416	1.086056
H424	H	0.914504	0.166167	0.743130
H425	H	1.247837	0.499501	1.076464
H426	H	1.581171	0.832834	1.409797
C427	C	0.989672	0.181428	0.669428
C428	C	1.323005	0.514761	1.002761
C429	C	1.656338	0.848095	1.336095
N430	N	1.022908	0.153716	0.696561
N431	N	1.356241	0.487049	1.029894
N432	N	1.689574	0.820383	1.363227
H433	H	1.018178	0.701834	0.189527
H434	H	1.351511	1.035167	0.522860
H435	H	1.684845	1.368500	0.856194
