data_functionalizedCrystal
_audit_creation_method	'MofGen! by Chris Wilmer'
_symmetry_space_group_name_H-M	'P1'
_symmetry_Int_Tables_number	1
_symmetry_cell_setting	triclinic
loop_
_symmetry_equiv_pos_as_xyz
  x,y,z
_cell_length_a	15.995350
_cell_length_b	15.995292
_cell_length_c	12.503572
_cell_angle_alpha	93.525692
_cell_angle_beta	86.485305
_cell_angle_gamma	83.480495
loop_
_atom_site_label
_atom_site_type_symbol
_atom_site_fract_x
_atom_site_fract_y
_atom_site_fract_z
O1	O	1.115787	0.103091	-0.089222
O2	O	1.615787	0.603091	0.410778
O3	O	0.872010	0.116418	-0.089243
O4	O	1.372010	0.616418	0.410757
O5	O	1.000588	-0.012137	-0.089233
O6	O	1.500588	0.487863	0.410767
O7	O	0.987209	0.231645	-0.089231
O8	O	1.487209	0.731645	0.410769
O9	O	0.990918	-0.002453	0.089408
O10	O	1.490918	0.497547	0.589408
O11	O	0.862340	0.126102	0.089398
O12	O	1.362340	0.626102	0.589398
O13	O	1.106117	0.112775	0.089419
O14	O	1.606117	0.612775	0.589419
Cu15	Cu	0.983346	0.120323	0.105720
Cu16	Cu	1.483346	0.620323	0.605720
Cu17	Cu	0.994782	0.108870	-0.105544
Cu18	Cu	1.494782	0.608870	0.394456
O19	O	0.977540	0.241329	0.089410
O20	O	1.477540	0.741329	0.589410
C21	C	0.835981	0.120708	0.000075
C22	C	1.335981	0.620708	0.500075
C23	C	0.743031	0.119056	0.000066
C24	C	1.243031	0.619056	0.500066
C25	C	0.405284	0.113125	0.000089
C26	C	0.905284	0.613125	0.500089
C27	C	0.452715	0.021592	0.000486
C28	C	0.952715	0.521592	0.500486
C29	C	0.549427	0.023222	0.000076
C30	C	1.049427	0.523222	0.500076
C31	C	0.572844	0.116067	0.000078
C32	C	1.072844	0.616067	0.500078
C33	C	0.537269	0.155695	-0.101930
C34	C	1.037269	0.655695	0.398070
C35	C	0.440638	0.153391	-0.102008
C36	C	0.940638	0.653391	0.397992
C37	C	0.429303	0.166295	0.101141
C38	C	0.929303	0.666295	0.601141
C39	C	0.526175	0.166346	0.102481
C40	C	1.026175	0.666346	0.602481
C41	C	0.667542	0.117734	0.000069
C42	C	1.167542	0.617734	0.500069
C43	C	0.310586	0.111460	0.000091
C44	C	0.810586	0.611460	0.500091
C45	C	0.995209	-0.038490	0.000084
C46	C	1.495209	0.461510	0.500084
C47	C	0.993577	-0.131444	0.000076
C48	C	1.493577	0.368556	0.500076
C49	C	0.987575	-0.469182	0.000085
C50	C	1.487575	0.030818	0.500085
C51	C	1.080357	-0.445847	0.000493
C52	C	1.580357	0.054153	0.500493
C53	C	1.082143	-0.349194	0.000086
C54	C	1.582143	0.150806	0.500086
C55	C	0.990553	-0.301626	0.000081
C56	C	1.490553	0.198374	0.500081
C57	C	0.949677	-0.336257	-0.101932
C58	C	1.449677	0.163743	0.398068
C59	C	0.948564	-0.433052	-0.102014
C60	C	1.448564	0.066948	0.397986
C61	C	0.935673	-0.421897	0.101135
C62	C	1.435673	0.078103	0.601135
C63	C	0.939039	-0.325331	0.102479
C64	C	1.439039	0.174669	0.602479
C65	C	0.992231	-0.206930	0.000076
C66	C	1.492231	0.293070	0.500076
C67	C	0.985894	-0.563878	0.000084
C68	C	1.485894	-0.063878	0.500084
C69	C	1.142147	0.108484	0.000099
C70	C	1.642147	0.608484	0.500099
C71	C	1.235097	0.110136	0.000101
C72	C	1.735097	0.610136	0.500101
C73	C	0.982919	0.267683	0.000090
C74	C	1.482919	0.767683	0.500090
C75	C	0.984551	0.360636	0.000091
C76	C	1.484551	0.860636	0.500091
N77	N	0.975309	0.128377	0.254312
N78	N	1.475309	0.628377	0.754312
N79	N	1.002825	0.100809	-0.254135
N80	N	1.502825	0.600809	0.245865
C81	C	0.963486	0.140233	0.473426
C82	C	1.463486	0.640233	0.973426
C83	C	1.014646	0.088956	0.526757
C84	C	1.514646	0.588956	1.026757
C85	C	1.008067	0.095553	0.648680
C86	C	1.508067	0.595553	1.148680
C87	C	0.970063	0.133637	0.351492
C88	C	1.470063	0.633637	0.851492
H89	H	0.426464	0.116326	-0.178263
H90	H	0.926464	0.616326	0.321737
H91	H	0.880770	-0.447853	-0.106639
H92	H	1.380770	0.052147	0.393361
O93	O	0.993016	-0.317098	-0.192426
O94	O	1.493016	0.182902	0.307574
C95	C	0.990890	-0.228811	-0.193836
C96	C	1.490890	0.271189	0.306164
H97	H	0.978670	-0.198911	-0.108357
H98	H	1.478670	0.301089	0.391643
H99	H	1.053961	-0.212751	-0.229423
H100	H	1.553961	0.287249	0.270577
H101	H	0.938321	-0.203382	-0.244870
H102	H	1.438321	0.296618	0.255130
H103	H	0.573905	-0.008310	0.073200
H104	H	1.073905	0.491690	0.573200
H105	H	0.430241	-0.011039	0.073641
H106	H	0.930241	0.488961	0.573641
H107	H	0.437067	-0.018780	-0.072265
H108	H	0.937067	0.481220	0.427735
H109	H	0.541193	0.234385	0.108644
H110	H	1.041193	0.734385	0.608644
H111	H	0.914750	0.189084	0.519330
H112	H	1.414750	0.689084	1.019330
H113	H	1.063386	0.040103	0.480848
H114	H	1.563386	0.540103	0.980848
H115	H	0.408626	0.220358	-0.106636
H116	H	0.908626	0.720358	0.393364
O117	O	0.587355	-0.024030	-0.087432
O118	O	1.087355	0.475970	0.412568
C119	C	0.557470	0.009509	-0.181497
C120	C	1.057470	0.509509	0.318503
H121	H	0.532337	0.078871	-0.163660
H122	H	1.032337	0.578871	0.336340
H123	H	0.611236	0.003474	-0.246728
H124	H	1.111236	0.503474	0.253272
H125	H	0.504674	-0.026696	-0.210167
H126	H	1.004674	0.473304	0.289833
H127	H	0.960713	-0.445794	0.178460
H128	H	1.460713	0.054206	0.678460
H129	H	0.404588	0.140555	0.178461
H130	H	0.904588	0.640555	0.678461
O131	O	0.554451	0.236801	-0.106327
O132	O	1.054451	0.736801	0.393673
C133	C	0.598969	0.258994	-0.016958
C134	C	1.098969	0.758994	0.483042
H135	H	0.631762	0.199479	0.014954
H136	H	1.131762	0.699479	0.514954
H137	H	0.648098	0.301615	-0.042198
H138	H	1.148098	0.801615	0.457802
H139	H	0.553048	0.293834	0.048635
H140	H	1.053048	0.793834	0.548635
O141	O	0.974544	-0.298209	0.192411
O142	O	1.474544	0.201791	0.692411
C143	C	1.045683	-0.258013	0.162930
C144	C	1.545683	0.241987	0.662930
H145	H	1.039703	-0.234869	0.078999
H146	H	1.539703	0.265131	0.578999
H147	H	1.049739	-0.202057	0.222640
H148	H	1.549739	0.297943	0.722640
H149	H	1.105131	-0.304605	0.163314
H150	H	1.605131	0.195395	0.663314
O151	O	0.858906	-0.285564	0.109648
O152	O	1.358906	0.214436	0.609648
C153	C	0.847624	-0.235160	0.021846
C154	C	1.347624	0.264840	0.521846
H155	H	0.895646	-0.260243	-0.047054
H156	H	1.395646	0.239757	0.452946
H157	H	0.781160	-0.237149	-0.005554
H158	H	1.281160	0.262851	0.494446
H159	H	0.856942	-0.167330	0.047147
H160	H	1.356942	0.332670	0.547147
H161	H	0.867325	-0.435850	0.101818
H162	H	1.367325	0.064150	0.601818
O163	O	0.991768	-0.470115	-0.192945
O164	O	1.491768	0.029885	0.307055
C165	C	0.991346	-0.558267	-0.194188
C166	C	1.491346	-0.058267	0.305812
H167	H	0.935356	-0.573266	-0.140854
H168	H	1.435356	-0.073266	0.359146
H169	H	0.985922	-0.584746	-0.279909
H170	H	1.485922	-0.084746	0.220091
H171	H	1.052416	-0.588073	-0.162808
H172	H	1.552416	-0.088073	0.337192
H173	H	0.549414	0.137472	0.177947
H174	H	1.049414	0.637472	0.677947
H175	H	0.397490	0.233835	0.101832
H176	H	0.897490	0.733835	0.601832
H177	H	1.114522	-0.326205	0.073212
H178	H	1.614522	0.173795	0.573212
H179	H	1.112168	-0.469879	0.073651
H180	H	1.612168	0.030121	0.573651
H181	H	1.122660	-0.334760	-0.073163
H182	H	1.622660	0.165240	0.426837
O183	O	0.576164	0.113372	-0.192424
O184	O	1.076164	0.613372	0.307576
C185	C	0.663619	0.118606	-0.193829
C186	C	1.163619	0.618606	0.306171
H187	H	0.682158	0.131692	-0.108348
H188	H	1.182158	0.631692	0.391652
H189	H	0.699429	0.056448	-0.229415
H190	H	1.199429	0.556448	0.270585
H191	H	0.679988	0.171908	-0.244860
H192	H	1.179988	0.671908	0.255140
H193	H	0.882484	-0.304595	-0.105728
H194	H	1.382484	0.195405	0.394272
O195	O	1.127422	-0.485063	-0.086407
O196	O	1.627422	0.014937	0.413593
C197	C	1.091841	-0.459114	-0.181115
C198	C	1.591841	0.040886	0.318885
H199	H	1.052109	-0.395384	-0.163530
H200	H	1.552109	0.104616	0.336470
H201	H	1.144372	-0.453298	-0.245122
H202	H	1.644372	0.046702	0.254878
H203	H	1.050273	-0.507677	-0.211278
H204	H	1.550273	-0.007677	0.288722
