data_functionalizedCrystal
_audit_creation_method	'MofGen! by Chris Wilmer'
_symmetry_space_group_name_H-M	'P1'
_symmetry_Int_Tables_number	1
_symmetry_cell_setting	triclinic
loop_
_symmetry_equiv_pos_as_xyz
  x,y,z
_cell_length_a	18.050589
_cell_length_b	12.759401
_cell_length_c	12.759393
_cell_angle_alpha	90.018713
_cell_angle_beta	90.029370
_cell_angle_gamma	90.036223
loop_
_atom_site_label
_atom_site_type_symbol
_atom_site_fract_x
_atom_site_fract_y
_atom_site_fract_z
Zn1	Zn	0.295593	-1.606097	-0.594028
Zn2	Zn	0.419801	-1.605934	-0.418352
Zn3	Zn	0.295633	-1.430403	-0.418364
Zn4	Zn	0.419749	-1.430327	-0.593989
O5	O	0.357694	-1.518190	-0.506183
O6	O	0.312075	-1.753097	-0.570736
O7	O	0.403368	-1.582613	-0.271333
O8	O	0.191703	-1.453809	-0.441687
O9	O	0.403330	-1.752977	-0.441668
O10	O	0.191674	-1.582891	-0.570747
O11	O	0.312142	-1.453651	-0.271341
O12	O	0.312092	-1.283372	-0.441649
O13	O	0.403241	-1.453680	-0.741016
O14	O	0.403280	-1.283316	-0.570681
O15	O	0.312024	-1.582817	-0.741044
O16	O	0.523719	-1.582539	-0.441630
O17	O	0.523681	-1.453521	-0.570669
C18	C	0.550646	-1.518033	-0.506167
C19	C	0.633192	-1.518061	-0.506195
C20	C	0.357685	-1.245223	-0.506163
C21	C	0.357699	-1.128446	-0.506179
C22	C	0.357623	-1.518258	-0.780217
C23	C	0.357592	-1.518287	-0.896994
C24	C	0.832649	-1.447938	-0.576343
C25	C	0.882097	-1.422318	-0.480475
C26	C	0.784322	-1.518140	-0.506209
C27	C	0.881956	-1.543788	-0.602090
C28	C	0.930307	-1.518215	-0.506232
C29	C	0.832683	-1.492470	-0.410290
C30	C	0.832538	-1.613985	-0.531970
C31	C	0.881964	-1.588401	-0.436035
C32	C	0.700224	-1.518095	-0.506198
C33	C	1.014404	-1.518260	-0.506233
C34	C	1.163988	-1.518337	-0.506224
C35	C	1.081443	-1.518297	-0.506245
C36	C	0.357704	-1.792223	-0.506205
C37	C	0.357708	-1.909000	-0.506214
C38	C	0.405253	-1.073583	-0.573259
C39	C	0.405256	-0.963859	-0.573280
C40	C	0.310149	-0.963871	-0.439130
C41	C	0.310143	-1.073593	-0.439115
C42	C	0.431903	-0.813945	-0.697142
C43	C	0.479469	-0.759077	-0.764213
C44	C	0.551945	-0.794639	-0.780163
C45	C	0.576870	-0.885065	-0.729026
C46	C	0.529309	-0.939927	-0.661947
C47	C	0.456822	-0.904367	-0.646017
C48	C	0.283503	-1.223509	-0.315253
C49	C	0.235944	-1.278373	-0.248167
C50	C	0.163467	-1.242814	-0.232207
C51	C	0.138545	-1.152383	-0.283325
C52	C	0.186103	-1.097520	-0.350411
C53	C	0.258579	-1.133087	-0.366373
C54	C	0.405067	-1.451068	-0.951842
C55	C	0.405039	-1.451105	-1.061566
C56	C	0.310056	-1.585585	-1.061584
C57	C	0.310088	-1.585552	-0.951861
C58	C	0.492579	-1.413525	-1.211503
C59	C	0.540047	-1.346289	-1.266355
C60	C	0.551454	-1.243753	-1.230740
C61	C	0.515383	-1.208432	-1.140274
C62	C	0.467909	-1.275662	-1.085428
C63	C	0.456516	-1.378213	-1.121041
C64	C	0.222548	-1.623121	-0.801923
C65	C	0.175070	-1.690346	-0.747074
C66	C	0.163655	-1.792885	-0.782687
C67	C	0.199713	-1.828202	-0.873156
C68	C	0.247191	-1.760976	-0.928005
C69	C	0.258607	-1.658439	-0.892385
C70	C	0.357712	-1.518183	-0.233216
C71	C	0.357533	-1.518358	-0.116440
H72	H	0.810995	-1.388494	-0.635569
H73	H	0.190414	-1.911694	-0.902159
Cl74	Cl	0.129738	-1.645945	-0.633340
H75	H	0.165802	-1.023892	-0.392042
H76	H	0.903480	-1.647800	-0.376666
H77	H	0.903881	-1.341301	-0.458706
H78	H	0.569415	-1.375057	-1.340014
Cl79	Cl	0.374659	-1.268123	-0.335182
H80	H	0.459167	-0.685452	-0.805850
H81	H	0.438538	-1.246903	-1.011775
Cl82	Cl	0.799409	-1.458879	-0.285078
Cl83	Cl	0.798903	-1.739041	-0.565649
Cl84	Cl	0.250337	-1.670137	-1.130568
Cl85	Cl	0.340782	-0.769243	-0.677112
Cl86	Cl	0.250369	-0.894906	-0.354825
H87	H	0.903600	-1.565453	-0.683166
H88	H	0.276548	-1.789739	-1.001674
H89	H	0.443974	-1.118240	-0.627869
H90	H	0.549602	-1.013550	-0.620311
Cl91	Cl	0.667993	-0.929756	-0.749067
Cl92	Cl	0.103684	-1.311779	-0.147854
Cl93	Cl	0.103963	-1.877394	-0.713735
H94	H	0.079532	-1.123418	-0.270313
Cl95	Cl	0.478252	-1.542439	-1.256274
H96	H	0.590672	-0.749958	-0.834776
H97	H	0.256243	-1.352006	-0.206543
Cl98	Cl	0.236906	-1.494215	-0.757134
H99	H	0.443743	-1.396290	-0.907172
H100	H	0.524667	-1.124931	-1.111291
Cl101	Cl	0.611127	-1.159230	-1.299701
