data_functionalizedCrystal
_audit_creation_method	'MofGen! by Chris Wilmer'
_symmetry_space_group_name_H-M	'P1'
_symmetry_Int_Tables_number	1
_symmetry_cell_setting	triclinic
loop_
_symmetry_equiv_pos_as_xyz
  x,y,z
_cell_length_a	14.971482
_cell_length_b	15.944493
_cell_length_c	14.048226
_cell_angle_alpha	89.999441
_cell_angle_beta	89.994098
_cell_angle_gamma	83.543826
loop_
_atom_site_label
_atom_site_type_symbol
_atom_site_fract_x
_atom_site_fract_y
_atom_site_fract_z
O1	O	1.186807	0.109451	-0.079136
O2	O	1.520140	0.442785	0.254198
O3	O	1.853473	0.776118	0.587531
O4	O	0.926389	0.122563	-0.079139
O5	O	1.259722	0.455897	0.254195
O6	O	1.593056	0.789230	0.587528
O7	O	1.063736	-0.006264	-0.079145
O8	O	1.397070	0.327069	0.254188
O9	O	1.730403	0.660403	0.587522
O10	O	1.049459	0.238279	-0.079129
O11	O	1.382793	0.571612	0.254204
O12	O	1.716126	0.904945	0.587537
O13	O	1.063720	-0.006272	0.079176
O14	O	1.397053	0.327062	0.412510
O15	O	1.730386	0.660395	0.745843
O16	O	0.926373	0.122556	0.079183
O17	O	1.259706	0.455889	0.412516
O18	O	1.593039	0.789222	0.745849
O19	O	1.186790	0.109444	0.079186
O20	O	1.520124	0.442777	0.412519
O21	O	1.853457	0.776110	0.745852
Zn22	Zn	1.056579	0.115999	0.104321
Zn23	Zn	1.389912	0.449332	0.437654
Zn24	Zn	1.723245	0.782665	0.770988
Zn25	Zn	1.056600	0.116009	-0.104274
Zn26	Zn	1.389934	0.449342	0.229059
Zn27	Zn	1.723267	0.782675	0.562393
O28	O	1.049443	0.238271	0.079192
O29	O	1.382776	0.571605	0.412525
O30	O	1.716110	0.904938	0.745859
C31	C	0.893057	0.121974	0.000021
C32	C	1.226390	0.455307	0.333355
C33	C	1.559723	0.788640	0.666688
C34	C	0.793762	0.120218	0.000020
C35	C	1.127095	0.453552	0.333353
C36	C	1.460428	0.786885	0.666686
C37	C	0.747109	0.119387	0.086321
C38	C	1.080443	0.452721	0.419655
C39	C	1.413776	0.786054	0.752988
C40	C	0.653813	0.117724	0.086322
C41	C	0.987146	0.451058	0.419656
C42	C	1.320480	0.784391	0.752989
C43	C	0.607170	0.116898	0.000020
C44	C	0.940503	0.450232	0.333354
C45	C	1.273837	0.783565	0.666687
C46	C	0.653830	0.117727	-0.086288
C47	C	0.987163	0.451060	0.247045
C48	C	1.320496	0.784394	0.580378
C49	C	0.747125	0.119384	-0.086288
C50	C	1.080458	0.452717	0.247045
C51	C	1.413792	0.786050	0.580379
C52	C	0.459372	0.114275	-0.086282
C53	C	0.792705	0.447609	0.247051
C54	C	1.126039	0.780942	0.580384
C55	C	0.366070	0.112620	-0.086283
C56	C	0.699403	0.445953	0.247051
C57	C	1.032737	0.779287	0.580384
C58	C	0.366060	0.112616	0.086328
C59	C	0.699393	0.445949	0.419662
C60	C	1.032727	0.779282	0.752995
C61	C	0.459356	0.114273	0.086328
C62	C	0.792689	0.447606	0.419662
C63	C	1.126022	0.780939	0.752995
C64	C	0.506008	0.115103	0.000019
C65	C	0.839342	0.448436	0.333353
C66	C	1.172675	0.781769	0.666686
C67	C	1.063145	-0.037563	0.000012
C68	C	1.396478	0.295770	0.333345
C69	C	1.729811	0.629103	0.666678
C70	C	1.061395	-0.130813	-0.000000
C71	C	1.394728	0.202520	0.333333
C72	C	1.728062	0.535853	0.666666
C73	C	1.142241	-0.366497	0.000019
C74	C	1.475574	-0.033164	0.333352
C75	C	1.808908	0.300169	0.666685
C76	C	1.098652	-0.417103	-0.078042
C77	C	1.431985	-0.083769	0.255291
C78	C	1.765319	0.249564	0.588625
C79	C	1.058154	-0.301538	0.000011
C80	C	1.391487	0.031796	0.333344
C81	C	1.724820	0.365129	0.666678
C82	C	1.098616	-0.417086	0.078050
C83	C	1.431949	-0.083753	0.411384
C84	C	1.765283	0.249580	0.744717
C85	C	1.055029	-0.466450	0.000027
C86	C	1.388362	-0.133117	0.333360
C87	C	1.721695	0.200217	0.666693
C88	C	1.014587	-0.350915	-0.078114
C89	C	1.347921	-0.017581	0.255219
C90	C	1.681254	0.315752	0.588553
C91	C	1.014564	-0.350895	0.078049
C92	C	1.347897	-0.017561	0.411382
C93	C	1.681230	0.315772	0.744715
C94	C	0.970913	-0.401467	-0.000031
C95	C	1.304246	-0.068134	0.333302
C96	C	1.637580	0.265199	0.666635
C97	C	1.059956	-0.206536	0.000001
C98	C	1.393290	0.126797	0.333335
C99	C	1.726623	0.460131	0.666668
C100	C	1.053219	-0.561449	0.000029
C101	C	1.386553	-0.228116	0.333363
C102	C	1.719886	0.105218	0.666696
C103	C	1.220122	0.110033	0.000024
C104	C	1.553456	0.443367	0.333357
C105	C	1.886789	0.776700	0.666690
C106	C	1.319417	0.111789	0.000019
C107	C	1.652751	0.445122	0.333353
C108	C	1.986084	0.778456	0.666686
C109	C	1.050035	0.269570	0.000033
C110	C	1.383368	0.602904	0.333367
C111	C	1.716701	0.936237	0.666700
C112	C	1.051784	0.362821	0.000039
C113	C	1.385117	0.696154	0.333373
C114	C	1.718451	1.029487	0.666706
N115	N	1.056570	0.115991	0.246682
N116	N	1.389904	0.449325	0.580015
N117	N	1.723237	0.782658	0.913348
N118	N	1.056616	0.116009	-0.246635
N119	N	1.389949	0.449343	0.086699
N120	N	1.723283	0.782676	0.420032
C121	C	1.117407	0.058970	0.296497
C122	C	1.450740	0.392303	0.629830
C123	C	1.784074	0.725637	0.963164
C124	C	1.117413	0.058970	0.396155
C125	C	1.450746	0.392303	0.729488
C126	C	1.784080	0.725636	1.062821
C127	C	1.056586	0.115995	0.445995
C128	C	1.389919	0.449328	0.779329
C129	C	1.723253	0.782662	1.112662
C130	C	0.995743	0.173019	0.396173
C131	C	1.329077	0.506352	0.729506
C132	C	1.662410	0.839686	1.062840
C133	C	0.995734	0.173015	0.296517
C134	C	1.329067	0.506348	0.629851
C135	C	1.662400	0.839681	0.963184
C136	C	0.995769	0.173025	0.603887
C137	C	1.329102	0.506358	0.937221
C138	C	1.662436	0.839692	1.270554
C139	C	0.995779	0.173031	0.703550
C140	C	1.329113	0.506364	1.036883
C141	C	1.662446	0.839697	1.370217
C142	C	1.117448	0.058980	0.703525
C143	C	1.450782	0.392313	1.036858
C144	C	1.784115	0.725647	1.370191
C145	C	1.117439	0.058976	0.603869
C146	C	1.450772	0.392309	0.937202
C147	C	1.784105	0.725642	1.270536
C148	C	1.056597	0.116001	0.554054
C149	C	1.389930	0.449334	0.887387
C150	C	1.723263	0.782668	1.220720
H151	H	0.497354	0.114952	-0.156564
H152	H	0.830687	0.448285	0.176769
H153	H	1.164021	0.781618	0.510102
H154	H	1.166943	0.012537	0.255923
H155	H	1.500276	0.345870	0.589257
H156	H	1.833609	0.679204	0.922590
F157	F	1.145075	-0.454892	-0.164301
F158	F	1.478409	-0.121558	0.169032
F159	F	1.811742	0.211775	0.502366
H160	H	1.214671	-0.350801	-0.000059
H161	H	1.548005	-0.017468	0.333274
H162	H	1.881338	0.315866	0.666608
H163	H	0.946212	0.219447	0.436759
H164	H	1.279546	0.552781	0.770092
H165	H	1.612879	0.886114	1.103426
H166	H	0.979076	-0.321971	0.144045
H167	H	1.312410	0.011363	0.477379
H168	H	1.645743	0.344696	0.810712
F169	F	1.145043	-0.454860	0.164305
F170	F	1.478377	-0.121527	0.497639
F171	F	1.811710	0.211807	0.830972
F172	F	0.931037	0.233724	0.756587
F173	F	1.264371	0.567057	1.089920
F174	F	1.597704	0.900391	1.423254
H175	H	0.615846	0.117048	-0.156557
H176	H	0.949180	0.450382	0.176777
H177	H	1.282513	0.783715	0.510110
H178	H	0.785108	0.120062	-0.156564
H179	H	1.118441	0.453395	0.176769
H180	H	1.451775	0.786729	0.510103
H181	H	1.166950	0.012538	0.436714
H182	H	1.500283	0.345871	0.770047
H183	H	1.833617	0.679205	1.103381
F184	F	1.182182	-0.001711	0.550824
F185	F	1.515515	0.331622	0.884158
F186	F	1.848848	0.664955	1.217491
H187	H	0.946222	0.219458	0.563331
H188	H	1.279555	0.552792	0.896664
H189	H	1.612889	0.886125	1.229998
F190	F	1.182201	-0.001709	0.756546
F191	F	1.515535	0.331624	1.089879
F192	F	1.848868	0.664958	1.423212
F193	F	0.968210	-0.313288	-0.164468
F194	F	1.301543	0.020045	0.168865
F195	F	1.634876	0.353378	0.502199
H196	H	0.898426	-0.417001	-0.000075
H197	H	1.231760	-0.083668	0.333259
H198	H	1.565093	0.249665	0.666592
F199	F	0.930980	0.233702	0.243502
F200	F	1.264313	0.567036	0.576835
F201	F	1.597647	0.900369	0.910168
H202	H	0.328071	0.111940	0.156604
H203	H	0.661404	0.445273	0.489937
H204	H	0.994738	0.778607	0.823271
F205	F	0.796741	0.120272	0.178178
F206	F	1.130074	0.453605	0.511511
F207	F	1.463408	0.786938	0.844844
H208	H	0.497329	0.114950	0.156603
H209	H	0.830662	0.448284	0.489936
H210	H	1.163996	0.781617	0.823270
F211	F	0.604164	0.116851	0.178177
F212	F	0.937498	0.450185	0.511510
F213	F	1.270831	0.783518	0.844844
H214	H	0.328096	0.111948	-0.156557
H215	H	0.661429	0.445281	0.176776
H216	H	0.994762	0.778615	0.510109
