data_functionalizedCrystal
_audit_creation_method	'MofGen! by Chris Wilmer'
_symmetry_space_group_name_H-M	'P1'
_symmetry_Int_Tables_number	1
_symmetry_cell_setting	triclinic
loop_
_symmetry_equiv_pos_as_xyz
  x,y,z
_cell_length_a	12.759394
_cell_length_b	18.215407
_cell_length_c	18.215399
_cell_angle_alpha	89.985640
_cell_angle_beta	89.972315
_cell_angle_gamma	90.012280
loop_
_atom_site_label
_atom_site_type_symbol
_atom_site_fract_x
_atom_site_fract_y
_atom_site_fract_z
Zn1	Zn	-0.418324	1.125101	-0.416081
Zn2	Zn	0.081676	1.625101	0.083919
Zn3	Zn	-0.594029	1.125038	-0.293021
Zn4	Zn	-0.094029	1.625038	0.206979
Zn5	Zn	-0.418357	1.002040	-0.293034
Zn6	Zn	0.081643	1.502040	0.206966
Zn7	Zn	-0.593954	1.002021	-0.416051
Zn8	Zn	-0.093954	1.502021	0.083949
O9	O	-0.506166	1.063550	-0.354547
O10	O	-0.006166	1.563550	0.145453
O11	O	-0.441649	1.228077	-0.399764
O12	O	0.058351	1.728077	0.100236
O13	O	-0.570771	1.108703	-0.190038
O14	O	-0.070771	1.608703	0.309962
O15	O	-0.271331	1.018399	-0.309375
O16	O	0.228669	1.518399	0.190625
O17	O	-0.570739	1.228031	-0.309352
O18	O	-0.070739	1.728031	0.190648
O19	O	-0.271307	1.108812	-0.399777
O20	O	0.228693	1.608812	0.100223
O21	O	-0.441705	1.018338	-0.190048
O22	O	0.058295	1.518338	0.309952
O23	O	-0.441632	0.899054	-0.309345
O24	O	0.058368	1.399054	0.190655
O25	O	-0.570611	1.018367	-0.519039
O26	O	-0.070611	1.518367	-0.019039
O27	O	-0.570643	0.899040	-0.399725
O28	O	-0.070643	1.399040	0.100275
O29	O	-0.441577	1.108793	-0.519061
O30	O	0.058423	1.608793	-0.019061
O31	O	-0.741040	1.108685	-0.309323
O32	O	-0.241040	1.608685	0.190677
O33	O	-0.740985	1.018305	-0.399712
O34	O	-0.240985	1.518305	0.100288
C35	C	-0.506133	0.872344	-0.354534
C36	C	-0.006133	1.372344	0.145466
C37	C	-0.506145	0.790545	-0.354546
C38	C	-0.006145	1.290545	0.145454
C39	C	-0.439066	0.602375	-0.401698
C40	C	0.060934	1.102375	0.098302
C41	C	-0.439075	0.525516	-0.401700
C42	C	0.060925	1.025516	0.098300
C43	C	-0.573295	0.525478	-0.307409
C44	C	-0.073295	1.025478	0.192591
C45	C	-0.573280	0.602335	-0.307403
C46	C	-0.073280	1.102335	0.192597
C47	C	-0.506167	0.640782	-0.354552
C48	C	-0.006167	1.140782	0.145448
C49	C	-0.506191	0.487066	-0.354560
C50	C	-0.006191	0.987066	0.145440
C51	C	-0.506201	0.403732	-0.354562
C52	C	-0.006201	0.903732	0.145438
C53	C	-0.506155	0.724121	-0.354548
C54	C	-0.006155	1.224121	0.145452
C55	C	-0.779133	1.063506	-0.354529
C56	C	-0.279133	1.563506	0.145471
C57	C	-0.895910	1.063555	-0.354546
C58	C	-0.395910	1.563555	0.145454
C59	C	-0.895914	1.157738	-0.260493
C60	C	-0.395914	1.657738	0.239507
C61	C	-0.950777	1.204848	-0.213476
C62	C	-0.450777	1.704848	0.286524
C63	C	-1.060498	1.204891	-0.213496
C64	C	-0.560498	1.704891	0.286504
C65	C	-1.115360	1.157820	-0.260540
C66	C	-0.615360	1.657820	0.239460
C67	C	-1.060497	1.110710	-0.307558
C68	C	-0.560497	1.610710	0.192442
C69	C	-0.950773	1.110670	-0.307531
C70	C	-0.450773	1.610670	0.192469
C71	C	-1.060493	1.016532	-0.401613
C72	C	-0.560493	1.516532	0.098387
C73	C	-0.950771	1.016484	-0.401590
C74	C	-0.450771	1.516484	0.098410
C75	C	-1.115354	0.969461	-0.448657
C76	C	-0.615354	1.469461	0.051343
C77	C	-1.060491	0.922345	-0.495672
C78	C	-0.560491	1.422345	0.004328
C79	C	-0.950763	0.922303	-0.495649
C80	C	-0.450763	1.422303	0.004351
C81	C	-0.895908	0.969373	-0.448607
C82	C	-0.395908	1.469373	0.051393
C83	C	-0.232132	1.063615	-0.354581
C84	C	0.267868	1.563615	0.145419
C85	C	-0.115356	1.063642	-0.354595
C86	C	0.384644	1.563642	0.145405
C87	C	-0.506082	1.063585	-0.546500
C88	C	-0.006082	1.563585	-0.046500
C89	C	-0.506046	1.063600	-0.628299
C90	C	-0.006046	1.563600	-0.128299
C91	C	-0.506199	1.255503	-0.354560
C92	C	-0.006199	1.755503	0.145440
C93	C	-0.506213	1.337302	-0.354566
C94	C	-0.006213	1.837302	0.145434
C95	C	-0.438796	1.016586	-0.816498
C96	C	0.061204	1.516586	-0.316498
C97	C	-0.438775	1.016599	-0.893357
C98	C	0.061225	1.516599	-0.393357
C99	C	-0.573171	1.110702	-0.893336
C100	C	-0.073171	1.610702	-0.393336
C101	C	-0.573196	1.110684	-0.816479
C102	C	-0.073196	1.610684	-0.316479
C103	C	-0.506003	1.063628	-0.778062
C104	C	-0.006003	1.563628	-0.278062
C105	C	-0.505956	1.063658	-0.931778
C106	C	-0.005956	1.563658	-0.431778
C107	C	-0.505934	1.063672	-1.015112
C108	C	-0.005934	1.563672	-0.515112
C109	C	-0.506027	1.063613	-0.694723
C110	C	-0.006027	1.563613	-0.194723
C111	C	-0.506174	1.063558	-0.163340
C112	C	-0.006174	1.563558	0.336660
C113	C	-0.505913	1.063686	-0.081542
C114	C	-0.005913	1.563686	0.418458
H115	H	-0.627936	0.494166	-0.269023
H116	H	-0.127936	0.994166	0.230977
H117	H	-0.384416	0.633675	-0.440087
H118	H	0.115584	1.133675	0.059913
H119	H	-0.384434	0.494248	-0.440090
H120	H	0.115566	0.994248	0.059910
Cl121	Cl	-0.657634	1.169857	-0.941637
Cl122	Cl	-0.157634	1.669857	-0.441637
Cl123	Cl	-0.657631	0.650622	-0.248121
Cl124	Cl	-0.157631	1.150622	0.251879
Cl125	Cl	-0.757978	1.157893	-0.260671
Cl126	Cl	-0.257978	1.657893	0.239329
H127	H	-0.384083	0.978270	-0.785222
H128	H	0.115917	1.478270	-0.285222
Cl129	Cl	-0.354296	0.957448	-0.941674
Cl130	Cl	0.145704	1.457448	-0.441674
Cl131	Cl	-1.253295	1.157565	-0.260252
Cl132	Cl	-0.753295	1.657565	0.239748
H133	H	-0.627928	1.148993	-0.785183
H134	H	-0.127928	1.648993	-0.285183
H135	H	-0.906099	1.243175	-0.175174
H136	H	-0.406099	1.743175	0.324826
H137	H	-1.105168	1.243256	-0.175214
H138	H	-0.605168	1.743256	0.324786
H139	H	-1.204695	0.969502	-0.448673
H140	H	-0.704695	1.469502	0.051327
Cl141	Cl	-1.129464	0.863182	-0.554811
Cl142	Cl	-0.629464	1.363182	-0.054811
H143	H	-0.806567	0.969339	-0.448580
H144	H	-0.306567	1.469339	0.051420
Cl145	Cl	-0.881802	0.863079	-0.554765
Cl146	Cl	-0.381802	1.363079	-0.054765
