data_functionalizedCrystal
_audit_creation_method	'MofGen! by Chris Wilmer'
_symmetry_space_group_name_H-M	'P1'
_symmetry_Int_Tables_number	1
_symmetry_cell_setting	triclinic
loop_
_symmetry_equiv_pos_as_xyz
  x,y,z
_cell_length_a	17.077404
_cell_length_b	12.759394
_cell_length_c	17.077396
_cell_angle_alpha	89.975378
_cell_angle_beta	89.978556
_cell_angle_gamma	90.012103
loop_
_atom_site_label
_atom_site_type_symbol
_atom_site_fract_x
_atom_site_fract_y
_atom_site_fract_z
Zn1	Zn	1.200104	-0.418316	-0.443904
Zn2	Zn	1.200032	-0.594016	-0.312647
Zn3	Zn	1.068836	-0.418346	-0.312648
Zn4	Zn	1.068824	-0.593948	-0.443866
O5	O	1.134449	-0.506156	-0.378267
O6	O	1.309941	-0.441638	-0.426509
O7	O	1.182603	-0.570755	-0.202800
O8	O	1.086284	-0.271321	-0.330076
O9	O	1.309888	-0.570725	-0.330074
O10	O	1.182726	-0.271299	-0.426509
O11	O	1.086214	-0.441691	-0.202801
O12	O	0.958987	-0.441625	-0.330039
O13	O	1.086264	-0.570608	-0.553718
O14	O	0.958979	-0.570638	-0.426444
O15	O	1.182715	-0.441572	-0.553746
O16	O	1.182592	-0.741028	-0.330038
O17	O	1.086194	-0.740978	-0.426444
C18	C	0.930501	-0.506128	-0.378238
C19	C	0.843251	-0.506141	-0.378244
C20	C	0.467462	-0.439091	-0.428589
C21	C	0.549442	-0.439083	-0.428580
C22	C	0.590402	-0.506179	-0.378286
C23	C	0.549378	-0.573293	-0.328004
C24	C	0.467399	-0.573306	-0.328017
C25	C	0.720248	-0.573262	-0.327978
C26	C	0.802233	-0.573249	-0.327964
C27	C	0.802291	-0.439040	-0.428541
C28	C	0.720312	-0.439052	-0.428555
C29	C	0.679293	-0.506165	-0.378271
C30	C	1.134405	-0.779124	-0.378254
C31	C	1.134458	-0.895901	-0.378274
C32	C	1.234809	-0.895719	-0.478766
C33	C	1.285008	-0.950489	-0.529018
C34	C	1.285055	-1.060210	-0.529035
C35	C	1.234895	-1.115165	-0.478796
C36	C	1.184695	-1.060395	-0.428544
C37	C	1.184655	-0.950671	-0.428531
C38	C	1.084342	-1.060576	-0.328058
C39	C	1.084298	-0.950855	-0.328036
C40	C	1.034182	-1.115531	-0.277819
C41	C	0.983985	-1.060761	-0.227562
C42	C	0.983941	-0.951033	-0.227547
C43	C	1.034098	-0.896085	-0.277784
C44	C	1.339193	-0.506186	-0.378296
C45	C	1.426443	-0.506198	-0.378308
C46	C	1.134496	-0.506079	-0.583011
C47	C	1.134517	-0.506046	-0.670261
C48	C	1.134514	-0.232123	-0.378297
C49	C	1.134542	-0.115346	-0.378310
C50	C	1.184740	-0.438851	-0.711267
C51	C	1.184750	-0.438816	-0.793247
C52	C	1.134539	-0.505982	-0.834220
C53	C	1.084310	-0.573180	-0.793209
C54	C	1.084297	-0.573209	-0.711230
C55	C	1.084341	-0.573117	-0.964079
C56	C	1.084355	-0.573090	-1.046063
C57	C	1.184794	-0.438724	-1.046096
C58	C	1.184781	-0.438753	-0.964117
C59	C	1.134553	-0.505953	-0.923111
C60	C	1.134447	-0.506158	-0.174319
C61	C	1.134579	-0.505895	-0.087069
H62	H	0.835580	-0.627886	-0.287013
C63	C	0.847413	-0.365220	-0.483860
N64	N	0.881403	-0.309621	-0.525523
C65	C	1.029070	-0.647053	-0.838282
N66	N	0.987461	-0.702695	-0.872230
C67	C	0.422279	-0.647126	-0.272702
N68	N	0.388296	-0.702732	-0.231039
C69	C	0.594437	-0.647095	-0.272677
N70	N	0.628375	-0.702679	-0.231000
C71	C	1.240045	-0.364803	-1.091205
N72	N	1.281661	-0.309132	-1.125184
C73	C	1.234767	-0.775022	-0.478747
N74	N	1.234737	-0.684112	-0.478734
C75	C	0.928850	-1.121217	-0.172271
N76	N	0.887336	-1.166757	-0.130610
H77	H	1.325847	-0.905736	-0.569923
H78	H	0.434118	-0.384448	-0.469539
H79	H	1.325924	-1.104804	-0.569962
H80	H	1.034071	-0.806744	-0.277773
H81	H	1.043428	-0.627821	-0.930694
H82	H	1.043467	-0.627780	-1.079421
H83	H	0.686964	-0.384412	-0.469505
H84	H	1.234931	-1.204506	-0.478821
H85	H	1.043392	-0.627915	-0.677844
H86	H	1.225630	-0.384160	-0.677912
C87	C	1.240014	-0.364865	-0.919049
N88	N	1.281613	-0.309207	-0.885103
C89	C	1.034244	-1.236227	-0.277830
N90	N	1.034296	-1.327138	-0.277832
H91	H	0.582836	-0.384441	-0.469526
C92	C	0.928713	-0.890794	-0.172268
N93	N	0.887114	-0.845427	-0.130631
H94	H	1.225649	-0.384102	-0.826631
H95	H	0.686853	-0.627917	-0.287035
