data_functionalizedCrystal
_audit_creation_method	'MofGen! by Chris Wilmer'
_symmetry_space_group_name_H-M	'P1'
_symmetry_Int_Tables_number	1
_symmetry_cell_setting	triclinic
loop_
_symmetry_equiv_pos_as_xyz
  x,y,z
_cell_length_a	18.215407
_cell_length_b	29.839131
_cell_length_c	18.215399
_cell_angle_alpha	89.969127
_cell_angle_beta	89.980167
_cell_angle_gamma	90.041868
loop_
_atom_site_label
_atom_site_type_symbol
_atom_site_fract_x
_atom_site_fract_y
_atom_site_fract_z
Zn1	Zn	1.124987	-0.178853	-0.416101
Zn2	Zn	1.124860	-0.253982	-0.293028
Zn3	Zn	1.001920	-0.178867	-0.293048
Zn4	Zn	1.001850	-0.253957	-0.416053
O5	O	1.063404	-0.216415	-0.354558
O6	O	1.227955	-0.188823	-0.399787
O7	O	1.108528	-0.244034	-0.190047
O8	O	1.018327	-0.115998	-0.309400
O9	O	1.227861	-0.244020	-0.309366
O10	O	1.108745	-0.115987	-0.399806
O11	O	1.018204	-0.188848	-0.190061
O12	O	0.898926	-0.188824	-0.309354
O13	O	1.018209	-0.243978	-0.519044
O14	O	0.898875	-0.243992	-0.399725
O15	O	1.108677	-0.188799	-0.519079
O16	O	1.108460	-0.316846	-0.309320
O17	O	1.018086	-0.316827	-0.399705
C18	C	0.872198	-0.216407	-0.354537
C19	C	0.790399	-0.216414	-0.354545
C20	C	0.602198	-0.245186	-0.401542
C21	C	0.525339	-0.245187	-0.401551
C22	C	0.525363	-0.187652	-0.307589
C23	C	0.602220	-0.187648	-0.307584
C24	C	0.640636	-0.216418	-0.354560
C25	C	0.486920	-0.216423	-0.354574
C26	C	0.403586	-0.216424	-0.354583
C27	C	0.723975	-0.216416	-0.354551
C28	C	1.063272	-0.333137	-0.354521
C29	C	1.063282	-0.383072	-0.354530
C30	C	1.110548	-0.692712	-0.307563
C31	C	1.110639	-0.880385	-0.307591
O32	O	1.150721	-0.904647	-0.267629
N33	N	1.063557	-0.903857	-0.354613
C34	C	1.016452	-0.880407	-0.401635
O35	O	0.976414	-0.904678	-0.441636
C36	C	1.016366	-0.692735	-0.401609
C37	C	1.063446	-0.669266	-0.354579
C38	C	1.157625	-0.669243	-0.260536
C39	C	1.157599	-0.622327	-0.260527
C40	C	1.110496	-0.598881	-0.307544
C41	C	1.063420	-0.622350	-0.354570
C42	C	0.969265	-0.669287	-0.448634
C43	C	0.969249	-0.622365	-0.448625
C44	C	1.016329	-0.598896	-0.401595
C45	C	1.016291	-0.551989	-0.401577
N46	N	1.063373	-0.528517	-0.354554
C47	C	1.110476	-0.551963	-0.307538
C48	C	1.016500	-0.978938	-0.401644
C49	C	1.016521	-1.025856	-0.401649
C50	C	1.110709	-1.025830	-0.307606
C51	C	1.110684	-0.978911	-0.307598
C52	C	1.063582	-0.955466	-0.354622
C53	C	1.110417	-0.453437	-0.307521
C54	C	1.110385	-0.406518	-0.307514
C55	C	1.016200	-0.406547	-0.401559
C56	C	1.016229	-0.453463	-0.401564
C57	C	1.063344	-0.476907	-0.354543
O58	O	0.976236	-0.527698	-0.441523
O59	O	1.150520	-0.527685	-0.267554
C60	C	1.110574	-0.739627	-0.307572
C61	C	1.063498	-0.763097	-0.354598
C62	C	1.016395	-0.739651	-0.401615
C63	C	1.063518	-0.810015	-0.354604
C64	C	1.110621	-0.833461	-0.307587
C65	C	1.157703	-0.809989	-0.260565
C66	C	1.157677	-0.763074	-0.260555
C67	C	0.969313	-0.763122	-0.448637
C68	C	0.969342	-0.810038	-0.448642
C69	C	1.016445	-0.833484	-0.401625
C70	C	1.255357	-0.216423	-0.354579
C71	C	1.337156	-0.216426	-0.354589
C72	C	1.063449	-0.216384	-0.546511
C73	C	1.063468	-0.216370	-0.628310
C74	C	1.063558	-0.099236	-0.354610
C75	C	1.063623	-0.049302	-0.354633
C76	C	1.110592	-0.187612	-0.816523
C77	C	1.110601	-0.187599	-0.893382
C78	C	1.016397	-0.245059	-0.893334
C79	C	1.016385	-0.245070	-0.816477
C80	C	1.063487	-0.216347	-0.778073
C81	C	1.063507	-0.216323	-0.931789
C82	C	1.063517	-0.216309	-1.015123
C83	C	1.063477	-0.216360	-0.694734
C84	C	1.063402	-0.216413	-0.163351
C85	C	1.063526	-0.216300	-0.081553
H86	H	1.148784	-0.472520	-0.269233
H87	H	0.978177	-1.044960	-0.439939
H88	H	1.149062	-1.044928	-0.269324
H89	H	0.930924	-0.688387	-0.486928
C90	C	0.483739	-0.276471	-0.452588
C91	C	0.533836	-0.301671	-0.493710
C92	C	0.495541	-0.330500	-0.540728
H93	H	0.453788	-0.259362	-0.484773
H94	H	0.453739	-0.296049	-0.424397
H95	H	0.563824	-0.282096	-0.521899
H96	H	0.563788	-0.318789	-0.461544
H97	H	0.465541	-0.350077	-0.512538
H98	H	0.465591	-0.313387	-0.572909
H99	H	0.529525	-0.347604	-0.568631
H100	H	0.978021	-0.268469	-0.785170
H101	H	0.633474	-0.268610	-0.439794
H102	H	0.633517	-0.164220	-0.269325
C103	C	0.965344	-0.276229	-0.935164
C104	C	0.975450	-0.270079	-1.010703
C105	C	0.928440	-0.298790	-1.049257
H106	H	0.915873	-0.269683	-0.922652
H107	H	0.976082	-0.306425	-0.922596
H108	H	0.964707	-0.239889	-1.023265
H109	H	1.024911	-0.276628	-1.023237
H110	H	0.939178	-0.328987	-1.036689
H111	H	0.878973	-0.292242	-1.036739
H112	H	0.935296	-0.294624	-1.100514
C113	C	0.483520	-0.156468	-0.256616
C114	C	0.407984	-0.162635	-0.266661
C115	C	0.369418	-0.133920	-0.219709
H116	H	0.496065	-0.126272	-0.267430
H117	H	0.496046	-0.163007	-0.207132
H118	H	0.395464	-0.156093	-0.316134
H119	H	0.395417	-0.192824	-0.255842
H120	H	0.381943	-0.140459	-0.170226
H121	H	0.381968	-0.103726	-0.230527
H122	H	0.318163	-0.138103	-0.226514
H123	H	1.148958	-0.164199	-0.924684
C124	C	1.161633	-0.156349	-0.774867
C125	C	1.145648	-0.111897	-0.793571
C126	C	1.192644	-0.083082	-0.755208
H127	H	1.211100	-0.162861	-0.787439
H128	H	1.154876	-0.160438	-0.723579
H129	H	1.152411	-0.107809	-0.844848
H130	H	1.096189	-0.105370	-0.780998
H131	H	1.185888	-0.087172	-0.703920
H132	H	1.242109	-0.089599	-0.767783
H133	H	1.181801	-0.052918	-0.767888
C134	C	1.161585	-0.381118	-0.256423
C135	C	1.202854	-0.411698	-0.215267
C136	C	1.250033	-0.388318	-0.168205
H137	H	1.133526	-0.362845	-0.224261
H138	H	1.193665	-0.362793	-0.284584
H139	H	1.170778	-0.430015	-0.187108
H140	H	1.230928	-0.429972	-0.247410
H141	H	1.282113	-0.369993	-0.196365
H142	H	1.221968	-0.370046	-0.136047
H143	H	1.278045	-0.409062	-0.140280
H144	H	1.195937	-0.603221	-0.222233
C145	C	1.208910	-0.694699	-0.209633
C146	C	1.256087	-0.721563	-0.251375
C147	C	1.303369	-0.745003	-0.204514
H148	H	1.180922	-0.713078	-0.177500
H149	H	1.236981	-0.673996	-0.181669
H150	H	1.228019	-0.742264	-0.279326
H151	H	1.284091	-0.703195	-0.283507
H152	H	1.331440	-0.724300	-0.176550
H153	H	1.275375	-0.763380	-0.172383
H154	H	1.335388	-0.763230	-0.232829
H155	H	1.149021	-0.959806	-0.269302
H156	H	0.978143	-0.959852	-0.439938
C157	C	0.918030	-0.596992	-0.499712
C158	C	0.876798	-0.627592	-0.540884
C159	C	0.829601	-0.604236	-0.587945
H160	H	0.946074	-0.578658	-0.531864
H161	H	0.885927	-0.578730	-0.471550
H162	H	0.908897	-0.645846	-0.569045
H163	H	0.848738	-0.645927	-0.508752
H164	H	0.797498	-0.585974	-0.559783
H165	H	0.857652	-0.585902	-0.620092
H166	H	0.801615	-0.624994	-0.615881
H167	H	0.977895	-0.472573	-0.439862
H168	H	0.977847	-0.387450	-0.439837
H169	H	1.196014	-0.743968	-0.222259
H170	H	1.196053	-0.829087	-0.222280
H171	H	0.930998	-0.829142	-0.486939
H172	H	0.930957	-0.744036	-0.486924
