data_functionalizedCrystal
_audit_creation_method	'MofGen! by Chris Wilmer'
_symmetry_space_group_name_H-M	'P1'
_symmetry_Int_Tables_number	1
_symmetry_cell_setting	triclinic
loop_
_symmetry_equiv_pos_as_xyz
  x,y,z
_cell_length_a	12.837943
_cell_length_b	19.188930
_cell_length_c	11.295483
_cell_angle_alpha	94.076039
_cell_angle_beta	85.461227
_cell_angle_gamma	88.986861
loop_
_atom_site_label
_atom_site_type_symbol
_atom_site_fract_x
_atom_site_fract_y
_atom_site_fract_z
O1	O	1.381633	0.177215	-0.099031
O2	O	1.881633	0.677215	0.400969
O3	O	1.079869	0.168252	-0.099037
O4	O	1.579869	0.668252	0.400963
O5	O	1.239458	0.071676	-0.099010
O6	O	1.739458	0.571676	0.400990
O7	O	1.222044	0.273791	-0.099057
O8	O	1.722044	0.773791	0.400943
O9	O	1.225441	0.080144	0.099038
O10	O	1.725441	0.580144	0.599038
O11	O	1.065852	0.176720	0.099012
O12	O	1.565852	0.676720	0.599012
O13	O	1.367616	0.185683	0.099017
O14	O	1.867616	0.685683	0.599017
Cu15	Cu	1.215454	0.181975	0.117098
Cu16	Cu	1.715454	0.681975	0.617098
Cu17	Cu	1.232031	0.171960	-0.117117
Cu18	Cu	1.732031	0.671960	0.382883
O19	O	1.208027	0.282259	0.098991
O20	O	1.708027	0.782259	0.598991
C21	C	1.034253	0.169458	-0.000013
C22	C	1.534253	0.669458	0.499987
C23	C	0.919217	0.160427	-0.000014
C24	C	1.419217	0.660427	0.499986
C25	C	0.677767	0.268994	-0.000022
C26	C	1.177767	0.768994	0.499978
C27	C	0.569680	0.260512	-0.000022
C28	C	1.069680	0.760512	0.499978
C29	C	0.594953	0.134982	-0.000006
C30	C	1.094953	0.634982	0.499994
C31	C	0.703040	0.143464	-0.000006
C32	C	1.203040	0.643464	0.499994
C33	C	0.744443	0.210472	-0.000016
C34	C	1.244443	0.710472	0.499984
C35	C	0.852533	0.218953	-0.000024
C36	C	1.352533	0.718953	0.499976
C37	C	0.877803	0.093423	0.000001
C38	C	1.377803	0.593423	0.500001
C39	C	0.769716	0.084941	0.000001
C40	C	1.269716	0.584941	0.500001
C41	C	1.231885	0.049861	0.000017
C42	C	1.731885	0.549861	0.500017
C43	C	1.230191	-0.027760	0.000027
C44	C	1.730191	0.472240	0.500027
C45	C	1.323833	-0.066260	0.000035
C46	C	1.823833	0.433740	0.500035
C47	C	1.322244	-0.139194	0.000016
C48	C	1.822244	0.360806	0.500016
C49	C	1.227005	-0.173623	0.000013
C50	C	1.727005	0.326377	0.500013
C51	C	1.133352	-0.135114	-0.000001
C52	C	1.633352	0.364886	0.499999
C53	C	1.134944	-0.062182	0.000006
C54	C	1.634944	0.437818	0.500006
N55	N	1.149437	-0.283739	0.067411
N56	N	1.649437	0.216261	0.567411
N57	N	1.147930	-0.353022	0.067407
N58	N	1.647930	0.146978	0.567407
C59	C	1.222201	-0.393362	-0.000011
C60	C	1.722201	0.106638	0.499989
N61	N	1.298051	-0.361803	-0.067410
N62	N	1.798051	0.138197	0.432590
N63	N	1.299560	-0.292515	-0.067400
N64	N	1.799560	0.207485	0.432600
C65	C	1.225268	-0.252705	0.000005
C66	C	1.725268	0.247295	0.500005
C67	C	1.314126	-0.510946	-0.000026
C68	C	1.814126	-0.010946	0.499974
C69	C	1.312534	-0.583882	-0.000052
C70	C	1.812534	-0.083882	0.499948
C71	C	1.123638	-0.579799	-0.000057
C72	C	1.623638	-0.079799	0.499943
C73	C	1.125234	-0.506866	-0.000043
C74	C	1.625234	-0.006866	0.499957
C75	C	1.220481	-0.472444	-0.000021
C76	C	1.720481	0.027556	0.499979
C77	C	1.413232	0.184477	-0.000009
C78	C	1.913232	0.684477	0.499991
C79	C	1.528268	0.193508	-0.000016
C80	C	2.028268	0.693508	0.499984
C81	C	1.215600	0.304074	-0.000039
C82	C	1.715600	0.804074	0.499961
C83	C	1.217295	0.381694	-0.000057
C84	C	1.717295	0.881694	0.499943
N85	N	1.203803	0.189018	0.281832
N86	N	1.703803	0.689018	0.781832
N87	N	1.243691	0.164912	-0.281852
N88	N	1.743691	0.664912	0.218148
C89	C	1.327566	0.114169	0.531142
C90	C	1.827566	0.614169	1.031142
C91	C	1.318768	0.119497	0.655804
C92	C	1.818768	0.619497	1.155804
C93	C	1.177405	0.204999	0.655821
C94	C	1.677405	0.704999	1.155821
C95	C	1.186202	0.199671	0.531159
C96	C	1.686202	0.699671	1.031159
C97	C	1.261286	0.154255	0.468824
C98	C	1.761286	0.654255	0.968824
C99	C	1.270089	0.148931	0.344159
C100	C	1.770089	0.648931	0.844159
C101	C	1.128721	0.234429	0.344179
C102	C	1.628721	0.734429	0.844179
C103	C	1.119923	0.239757	0.468841
C104	C	1.619923	0.739757	0.968841
H105	H	0.711478	0.323555	-0.000032
H106	H	1.211478	0.823555	0.499968
C107	C	1.417644	-0.473700	-0.000088
C108	C	1.917644	0.026300	0.499912
C109	C	1.499319	-0.523034	-0.000134
C110	C	1.999319	-0.023034	0.499866
C111	C	1.594695	-0.488752	-0.000212
C112	C	2.094695	0.011248	0.499788
H113	H	1.417461	-0.442390	0.068959
H114	H	1.917461	0.057610	0.568959
H115	H	1.427130	-0.448296	-0.069177
H116	H	1.927130	0.051704	0.430823
H117	H	1.489836	-0.548426	0.068948
H118	H	1.989836	-0.048426	0.568948
H119	H	1.499536	-0.554346	-0.069176
H120	H	1.999536	-0.054346	0.430824
H121	H	1.604181	-0.463348	-0.069302
H122	H	2.104181	0.036652	0.430698
H123	H	1.594501	-0.457443	0.068836
H124	H	2.094501	0.042557	0.568836
H125	H	1.650123	-0.522220	-0.000255
H126	H	2.150123	-0.022220	0.499745
H127	H	1.388792	-0.615228	-0.000053
H128	H	1.888792	-0.115228	0.499947
H129	H	1.046093	-0.607831	-0.000065
H130	H	1.546093	-0.107831	0.499935
H131	H	0.886241	0.273515	-0.000030
H132	H	1.386241	0.773515	0.499970
H133	H	1.398501	-0.170548	0.000017
H134	H	1.898501	0.329452	0.500017
H135	H	1.401391	-0.038239	0.000048
H136	H	1.901391	0.461761	0.500048
H137	H	1.074755	0.267072	0.293425
H138	H	1.574755	0.767072	0.793425
C139	C	0.550138	0.062188	-0.000177
C140	C	1.050138	0.562188	0.499823
C141	C	0.591271	0.022022	-0.102049
C142	C	1.091271	0.522022	0.397951
C143	C	0.550021	-0.045042	-0.102240
C144	C	1.050021	0.454958	0.397760
H145	H	0.476225	0.065422	-0.000235
H146	H	0.976225	0.565422	0.499765
H147	H	0.568188	0.040700	0.068854
H148	H	1.068188	0.540700	0.568854
H149	H	0.573214	0.043504	-0.171062
H150	H	1.073214	0.543504	0.328938
H151	H	0.665181	0.018767	-0.102013
H152	H	1.165181	0.518767	0.397987
H153	H	0.568070	-0.066529	-0.033209
H154	H	1.068070	0.433471	0.466791
H155	H	0.476108	-0.041800	-0.102295
H156	H	0.976108	0.458200	0.397705
H157	H	0.577930	-0.072304	-0.171353
H158	H	1.077930	0.427696	0.328647
H159	H	1.048980	-0.475518	-0.000042
H160	H	1.548980	0.024482	0.499958
H161	H	0.735989	0.030385	0.000023
H162	H	1.235989	0.530385	0.500023
C163	C	0.950161	0.029842	-0.000236
C164	C	1.450161	0.529842	0.499764
C165	C	0.938715	-0.014429	-0.102138
C166	C	1.438715	0.485571	0.397862
C167	C	1.005363	-0.073001	-0.102411
C168	C	1.505363	0.426999	0.397589
H169	H	0.932821	0.005531	0.068750
H170	H	1.432821	0.505531	0.568750
H171	H	1.020486	0.044456	-0.000305
H172	H	1.520486	0.544456	0.499695
H173	H	0.868405	-0.029043	-0.102059
H174	H	1.368405	0.470957	0.397941
H175	H	0.956063	0.009861	-0.171141
H176	H	1.456063	0.509861	0.328859
H177	H	1.075688	-0.058387	-0.102480
H178	H	1.575688	0.441613	0.397520
H179	H	0.988017	-0.097306	-0.033421
H180	H	1.488017	0.402694	0.466579
H181	H	0.997612	-0.103043	-0.171555
H182	H	1.497612	0.396957	0.328445
C183	C	1.351634	0.099557	0.276693
C184	C	1.851634	0.599557	0.776693
C185	C	1.407774	0.065577	0.357958
C186	C	1.907774	0.565577	0.857958
C187	C	1.482892	0.020079	0.295855
C188	C	1.982892	0.520079	0.795855
H189	H	1.398193	0.125394	0.228042
H190	H	1.898193	0.625394	0.728042
H191	H	1.317942	0.065895	0.228103
H192	H	1.817942	0.565895	0.728103
H193	H	1.441465	0.099234	0.406527
H194	H	1.941465	0.599234	0.906527
H195	H	1.361244	0.039726	0.406611
H196	H	1.861244	0.539726	0.906611
H197	H	1.449199	-0.013583	0.247265
H198	H	1.949199	0.486417	0.747265
H199	H	1.529443	0.045921	0.247206
H200	H	2.029443	0.545921	0.747206
H201	H	1.520985	-0.002987	0.350984
H202	H	2.020985	0.497013	0.850984
H203	H	0.515395	0.308167	-0.000024
H204	H	1.015395	0.808167	0.499976
C205	C	1.030050	-0.172616	0.000058
C206	C	1.530050	0.327384	0.500058
C207	C	1.048694	-0.244726	0.000088
C208	C	1.548694	0.255274	0.500088
C209	C	0.953554	-0.279294	0.000152
C210	C	1.453554	0.220706	0.500152
H211	H	0.996314	-0.162854	-0.068989
H212	H	1.496314	0.337146	0.431011
H213	H	0.986604	-0.156917	0.069148
H214	H	1.486604	0.343083	0.569148
H215	H	1.092122	-0.260419	-0.068995
H216	H	1.592122	0.239581	0.431005
H217	H	1.082414	-0.254509	0.069129
H218	H	1.582414	0.245491	0.569129
H219	H	0.910108	-0.263595	0.069242
H220	H	1.410108	0.236405	0.569242
H221	H	0.919825	-0.269526	-0.068896
H222	H	1.419825	0.230474	0.431104
H223	H	0.966190	-0.328223	0.000183
H224	H	1.466190	0.171777	0.500183
H225	H	1.058687	-0.030834	0.000001
H226	H	1.558687	0.469166	0.500001
H227	H	1.388709	0.077195	0.480388
H228	H	1.888709	0.577195	0.980388
H229	H	1.372737	0.086854	0.706541
H230	H	1.872737	0.586854	1.206541
H231	H	1.116266	0.241971	0.706591
H232	H	1.616266	0.741971	1.206591
H233	H	1.058789	0.276732	0.519608
H234	H	1.558789	0.776732	1.019608
