data_functionalizedCrystal
_audit_creation_method	'MofGen! by Chris Wilmer'
_symmetry_space_group_name_H-M	'P1'
_symmetry_Int_Tables_number	1
_symmetry_cell_setting	triclinic
loop_
_symmetry_equiv_pos_as_xyz
  x,y,z
_cell_length_a	15.625950
_cell_length_b	15.625429
_cell_length_c	14.185569
_cell_angle_alpha	59.452262
_cell_angle_beta	120.545593
_cell_angle_gamma	89.777900
loop_
_atom_site_label
_atom_site_type_symbol
_atom_site_fract_x
_atom_site_fract_y
_atom_site_fract_z
O1	O	1.288167	0.025866	0.375600
O2	O	0.995800	0.069797	0.253305
O3	O	1.163971	-0.098366	0.375626
O4	O	1.119996	0.194029	0.253278
O5	O	1.213650	-0.148038	0.578594
O6	O	1.045479	0.020125	0.456272
O7	O	1.337846	-0.023806	0.578567
Cu8	Cu	1.196198	-0.006376	0.535952
Cu9	Cu	1.137447	0.052367	0.295920
O10	O	1.169674	0.144357	0.456246
C11	C	0.983486	0.047891	0.340213
C12	C	0.872784	0.056608	0.296786
C13	C	0.643960	-0.050014	0.706978
C14	C	0.539920	-0.041790	0.666107
C15	C	0.485814	0.012357	0.444860
C16	C	0.589851	0.004142	0.485710
C17	C	0.668917	-0.027045	0.616771
C18	C	0.614807	0.027111	0.395504
C19	C	0.718836	0.018891	0.436354
C20	C	0.797908	-0.012298	0.567410
C21	C	0.772946	-0.035265	0.657621
C22	C	0.535741	0.058290	0.264447
C23	C	0.560697	0.081259	0.174240
C24	C	0.664726	0.073047	0.215086
C25	C	0.743798	0.041858	0.346143
C26	C	0.689688	0.096014	0.124875
C27	C	0.793717	0.087795	0.165725
C28	C	0.847827	0.033639	0.386993
C29	C	1.191745	-0.160358	0.491690
C30	C	1.200478	-0.271071	0.535131
C31	C	1.093781	-0.499820	0.124846
C32	C	1.101991	-0.603860	0.165700
C33	C	1.156148	-0.657995	0.386961
C34	C	1.147947	-0.553959	0.346127
C35	C	1.116762	-0.474878	0.215068
C36	C	1.170928	-0.529017	0.436349
C37	C	1.162722	-0.424989	0.395516
C38	C	1.131536	-0.345902	0.264460
C39	C	1.108556	-0.370850	0.174234
C40	C	1.202106	-0.608098	0.567405
C41	C	1.225087	-0.583156	0.657627
C42	C	1.216889	-0.479128	0.616798
C43	C	1.185702	-0.400041	0.485742
C44	C	1.239868	-0.454180	0.707024
C45	C	1.231663	-0.350152	0.666190
C46	C	1.177497	-0.296013	0.444909
C47	C	1.350158	-0.001899	0.491657
C48	C	1.460859	-0.010613	0.535075
C49	C	1.141900	0.206350	0.340179
C50	C	1.133165	0.317065	0.296731
N51	N	1.237528	-0.047694	0.704781
N52	N	1.096127	0.093676	0.127097
C53	C	0.974704	0.215025	0.881297
C54	C	1.006017	0.183733	1.009087
C55	C	1.154955	0.034873	1.117355
C56	C	1.123652	0.066149	0.989571
C57	C	1.033527	0.156227	0.871550
C58	C	1.182474	0.007350	0.979825
C59	C	1.151176	0.038628	0.852052
C60	C	1.061056	0.128704	0.734026
C61	C	1.002229	0.187504	0.743777
C62	C	1.272604	-0.082722	1.097847
C63	C	1.331426	-0.141521	1.088101
C64	C	1.300124	-0.110248	0.960327
C65	C	1.210004	-0.020172	0.842301
C66	C	1.358951	-0.169048	0.950575
C67	C	1.327653	-0.137771	0.822803
C68	C	1.178706	0.011105	0.714528
H69	H	0.708339	-0.075394	0.813694
F70	F	1.144319	-0.211845	0.305425
H71	H	0.519604	-0.060472	0.739564
H72	H	0.421426	0.037744	0.338152
F73	F	0.820281	0.112238	0.069718
H74	H	0.928833	0.260848	0.647676
H75	H	1.375554	-0.185651	0.814871
H76	H	0.451034	0.064987	0.231189
H77	H	0.496309	0.106647	0.067532
H78	H	1.105310	0.084449	0.618427
F79	F	1.256126	-0.323606	0.762216
H80	H	1.404810	-0.214861	1.184207
H81	H	1.124845	-0.261194	0.231211
H82	H	0.625301	0.121396	0.018170
F83	F	1.075379	-0.286682	0.034750
H84	H	1.035577	0.154171	0.629988
H85	H	0.901309	0.288369	0.785195
F86	F	1.060604	-0.415653	-0.014638
H87	H	1.083265	-0.624157	0.092216
H88	H	1.181535	-0.722395	0.493669
F89	F	1.250874	-0.060990	1.242969
H90	H	0.912206	0.008259	0.493708
F91	F	0.943402	0.246327	1.019443
F92	F	1.210835	-0.718814	0.610860
H93	H	1.298086	-0.108182	1.201884
H94	H	1.250474	-0.647556	0.764335
H95	H	1.265249	-0.518580	0.813728
F96	F	1.454875	-0.264905	1.076191
H97	H	0.882614	-0.018990	0.600668
F98	F	0.857098	-0.068446	0.797107
