data_functionalizedCrystal
_audit_creation_method	'MofGen! by Chris Wilmer'
_symmetry_space_group_name_H-M	'P1'
_symmetry_Int_Tables_number	1
_symmetry_cell_setting	triclinic
loop_
_symmetry_equiv_pos_as_xyz
  x,y,z
_cell_length_a	19.188930
_cell_length_b	15.995350
_cell_length_c	14.472311
_cell_angle_alpha	90.006054
_cell_angle_beta	90.018994
_cell_angle_gamma	83.318578
loop_
_atom_site_label
_atom_site_type_symbol
_atom_site_fract_x
_atom_site_fract_y
_atom_site_fract_z
O1	O	-0.926411	-0.104538	-0.077134
O2	O	-0.723136	-0.118610	-0.077070
O3	O	-0.830330	0.010334	-0.077103
O4	O	-0.819217	-0.233482	-0.077101
O5	O	-0.830321	0.010347	0.076579
O6	O	-0.723126	-0.118597	0.076612
O7	O	-0.926402	-0.104525	0.076548
Cu8	Cu	-0.824763	-0.111560	0.090613
Cu9	Cu	-0.824774	-0.111575	-0.091134
O10	O	-0.819207	-0.233469	0.076581
C11	C	-0.697119	-0.118148	-0.000221
C12	C	-0.619611	-0.116780	-0.000196
C13	C	-0.952419	-0.104987	-0.000303
C14	C	-1.029927	-0.106355	-0.000333
C15	C	-0.574880	-0.192440	-0.000210
C16	C	-0.502052	-0.191155	-0.000220
C17	C	-0.473960	-0.114205	-0.000235
C18	C	-0.518701	-0.038535	-0.000216
C19	C	-0.591526	-0.039823	-0.000197
N20	N	-0.365833	-0.055391	-0.052577
N21	N	-0.296652	-0.054174	-0.052598
C22	C	-0.254541	-0.110322	-0.000292
N23	N	-0.284225	-0.167747	0.052024
N24	N	-0.353413	-0.168967	0.052040
C25	C	-0.394994	-0.112801	-0.000256
C26	C	-0.130842	-0.184594	-0.000315
C27	C	-0.058014	-0.183306	-0.000320
C28	C	-0.074664	-0.030684	-0.000325
C29	C	-0.147491	-0.031974	-0.000311
C30	C	-0.175575	-0.108932	-0.000311
C31	C	-0.829866	0.041533	-0.000263
C32	C	-0.828489	0.134479	-0.000268
C33	C	-0.819671	-0.264669	-0.000260
C34	C	-0.821049	-0.357614	-0.000261
N35	N	-0.824760	-0.111549	0.218444
C36	C	-0.823542	0.472208	-0.000263
C37	C	-0.747200	0.424494	-0.000584
C38	C	-0.748578	0.327809	-0.000238
C39	C	-0.825995	0.304657	-0.000266
C40	C	-0.863645	0.345879	0.087480
C41	C	-0.861727	0.442508	0.087554
C42	C	-0.863315	0.442858	-0.087211
C43	C	-0.863297	0.345912	-0.088371
C44	C	-0.827386	0.209964	-0.000265
C45	C	-0.822153	0.566901	-0.000259
N46	N	-0.824783	-0.111579	-0.218965
C47	C	-0.824768	-0.111560	0.406944
C48	C	-0.882139	-0.042588	0.446128
C49	C	-0.882347	-0.042770	0.553216
C50	C	-0.824775	-0.111569	0.592535
C51	C	-0.840385	-0.198984	0.553636
C52	C	-0.840793	-0.198574	0.446514
C53	C	-0.751615	-0.093904	0.446458
C54	C	-0.752110	-0.091923	0.553586
C55	C	-0.824778	-0.111579	0.697423
C56	C	-0.824766	-0.111555	0.302056
H57	H	-0.597741	-0.255105	-0.000212
F58	F	-0.454437	-0.271686	-0.000233
F59	F	-0.829456	0.308667	0.172857
F60	F	-0.160734	-0.266497	-0.000308
H61	H	-0.495823	0.024118	-0.000241
H62	H	-0.716691	0.442909	-0.063507
F63	F	-0.937089	0.326099	-0.095330
F64	F	-0.707386	0.450247	0.081004
F65	F	-0.827595	0.309770	-0.173229
F66	F	-0.731912	-0.012359	0.411169
H67	H	-0.718983	0.299274	-0.063137
H68	H	-0.838359	0.463300	-0.153719
H69	H	-0.936639	-0.054060	0.578819
F70	F	-0.010407	-0.263838	-0.000330
F71	F	-0.910512	-0.218897	0.413823
F72	F	-0.639135	0.040709	-0.000182
H73	H	-0.936123	-0.053706	0.419173
H74	H	-0.051792	0.031970	-0.000394
H75	H	-0.183912	0.029637	-0.000305
H76	H	-0.718776	0.299841	0.062787
F77	F	-0.936885	0.484641	-0.088011
F78	F	-0.787205	-0.267694	0.586920
H79	H	-0.800465	-0.251321	0.420593
F80	F	-0.693721	-0.153329	0.588563
H81	H	-0.893116	-0.214913	0.580441
F82	F	-0.825829	0.466307	0.173312
H83	H	-0.873096	0.022208	0.579517
H84	H	-0.917776	0.474962	0.091516
F85	F	-0.870248	0.042631	0.412478
F86	F	-0.736608	-0.007879	0.586836
F87	F	-0.695815	-0.159646	0.413338
F88	F	-0.937987	0.327690	0.091723
