data_functionalizedCrystal
_audit_creation_method	'MofGen! by Chris Wilmer'
_symmetry_space_group_name_H-M	'P1'
_symmetry_Int_Tables_number	1
_symmetry_cell_setting	triclinic
loop_
_symmetry_equiv_pos_as_xyz
  x,y,z
_cell_length_a	14.044220
_cell_length_b	9.798715
_cell_length_c	10.723024
_cell_angle_alpha	90.004017
_cell_angle_beta	91.171627
_cell_angle_gamma	89.995876
loop_
_atom_site_label
_atom_site_type_symbol
_atom_site_fract_x
_atom_site_fract_y
_atom_site_fract_z
O1	O	0.133040	-0.113506	-1.670498
O2	O	0.466373	0.219827	-1.337164
O3	O	0.799706	0.553160	-1.003831
O4	O	0.145774	-0.113507	-1.308619
O5	O	0.479108	0.219826	-0.975286
O6	O	0.812441	0.553160	-0.641953
O7	O	0.001387	-0.113493	-1.484127
O8	O	0.334721	0.219840	-1.150793
O9	O	0.668054	0.553173	-0.817460
O10	O	0.277427	-0.113520	-1.494990
O11	O	0.610760	0.219813	-1.161657
O12	O	0.944094	0.553146	-0.828323
O13	O	0.001387	0.113489	-1.484112
O14	O	0.334720	0.446822	-1.150779
O15	O	0.668053	0.780156	-0.817446
O16	O	0.145774	0.113475	-1.308605
O17	O	0.479107	0.446808	-0.975272
O18	O	0.812441	0.780142	-0.641938
O19	O	0.133039	0.113476	-1.670483
O20	O	0.466373	0.446809	-1.337150
O21	O	0.799706	0.780142	-1.003817
Zn22	Zn	0.139407	0.149514	-1.489542
Zn23	Zn	0.472740	0.482847	-1.156208
Zn24	Zn	0.806073	0.816180	-0.822875
Zn25	Zn	0.139407	-0.149545	-1.489561
Zn26	Zn	0.472740	0.183788	-1.156227
Zn27	Zn	0.806074	0.517122	-0.822894
O28	O	0.277427	0.113462	-1.494976
O29	O	0.610760	0.446795	-1.161643
O30	O	0.944093	0.780129	-0.828309
C31	C	-0.033958	-0.000002	-1.479364
C32	C	0.299375	0.333332	-1.146031
C33	C	0.632708	0.666665	-0.812697
C34	C	-0.139276	0.000000	-1.465180
C35	C	0.194057	0.333333	-1.131846
C36	C	0.527390	0.666667	-0.798513
C37	C	0.144847	-0.000016	-1.262020
C38	C	0.478181	0.333317	-0.928686
C39	C	0.811514	0.666651	-0.595353
C40	C	0.142075	-0.000016	-1.123188
C41	C	0.475408	0.333318	-0.789855
C42	C	0.808741	0.666651	-0.456521
N43	N	0.139406	0.353613	-1.489538
N44	N	0.472739	0.686947	-1.156205
N45	N	0.806072	1.020280	-0.822871
C46	C	-0.332106	-0.000020	-1.439248
C47	C	0.001227	0.333314	-1.105914
C48	C	0.334560	0.666647	-0.772581
C49	C	-0.389085	-0.000024	-1.539849
C50	C	-0.055752	0.333310	-1.206516
C51	C	0.277581	0.666643	-0.873183
C52	C	-0.496383	-0.000035	-1.525420
C53	C	-0.163049	0.333299	-1.192087
C54	C	0.170284	0.666632	-0.858754
C55	C	-0.224799	-0.000009	-1.453675
C56	C	0.108534	0.333325	-1.120341
C57	C	0.441868	0.666658	-0.787008
C58	C	0.312772	-0.000033	-1.499738
C59	C	0.646106	0.333301	-1.166405
C60	C	0.979439	0.666634	-0.833072
C61	C	0.418090	-0.000043	-1.513923
C62	C	0.751424	0.333290	-1.180589
C63	C	1.084757	0.666623	-0.847256
N64	N	0.139401	-0.353645	-1.489573
N65	N	0.472734	-0.020311	-1.156240
N66	N	0.806067	0.313022	-0.822907
C67	C	0.078514	0.421396	-1.563202
C68	C	0.411848	0.754729	-1.229869
C69	C	0.745181	1.088063	-0.896535
C70	C	0.078511	0.578559	-1.563222
C71	C	0.411844	0.911892	-1.229888
C72	C	0.745178	1.245226	-0.896555
C73	C	0.222866	-0.000024	-1.056288
C74	C	0.556200	0.333310	-0.722955
C75	C	0.889533	0.666643	-0.389622
C76	C	0.220002	-0.000024	-0.912798
C77	C	0.553336	0.333310	-0.579465
C78	C	0.886669	0.666643	-0.246132
C79	C	0.133966	-0.000015	-0.717083
C80	C	0.467300	0.333318	-0.383749
C81	C	0.800633	0.666651	-0.050416
C82	C	0.136739	-0.000016	-0.855914
C83	C	0.470072	0.333318	-0.522581
C84	C	0.803406	0.666651	-0.189248
H85	H	-0.357284	-0.000115	-1.636814
H86	H	-0.023951	0.333218	-1.303480
H87	H	0.309383	0.666552	-0.970147
O88	O	0.047636	0.000003	-1.058363
O89	O	0.380969	0.333336	-0.725029
O90	O	0.714303	0.666669	-0.391696
H91	H	0.042371	-0.092514	-0.999184
H92	H	0.375704	0.240819	-0.665851
H93	H	0.709038	0.574153	-0.332518
H94	H	-0.363906	-0.000023	-1.342291
H95	H	-0.030573	0.333310	-1.008958
H96	H	0.302761	0.666643	-0.675624
O97	O	0.208475	0.430837	-1.406022
O98	O	0.541809	0.764170	-1.072688
O99	O	0.875142	1.097503	-0.739355
H100	H	0.168233	0.495968	-1.340795
H101	H	0.501567	0.829301	-1.007461
H102	H	0.834900	1.162635	-0.674128
O103	O	0.009430	0.344164	-1.646690
O104	O	0.342763	0.677497	-1.313357
O105	O	0.676097	1.010831	-0.980024
H106	H	0.020264	0.232842	-1.633559
H107	H	0.353597	0.566175	-1.300225
H108	H	0.686930	0.899508	-0.966892
H109	H	0.294155	-0.000023	-1.105243
H110	H	0.627488	0.333310	-0.771909
H111	H	0.960822	0.666643	-0.438576
O112	O	0.009449	0.655754	-1.646766
O113	O	0.342783	0.989088	-1.313433
O114	O	0.676116	1.322421	-0.980099
H115	H	0.020279	0.767081	-1.633665
H116	H	0.353613	1.100415	-1.300331
H117	H	0.686946	1.433748	-0.966998
H118	H	0.191538	0.588074	-1.426508
H119	H	0.524872	0.921407	-1.093175
H120	H	0.858205	1.254740	-0.759841
H121	H	0.289166	-0.000036	-0.855286
H122	H	0.622500	0.333297	-0.521952
H123	H	0.955833	0.666631	-0.188619
H124	H	0.067571	-0.000017	-0.913420
H125	H	0.400905	0.333316	-0.580086
H126	H	0.734238	0.666649	-0.246753
