data_functionalizedCrystal
_audit_creation_method	'MofGen! by Chris Wilmer'
_symmetry_space_group_name_H-M	'P1'
_symmetry_Int_Tables_number	1
_symmetry_cell_setting	triclinic
loop_
_symmetry_equiv_pos_as_xyz
  x,y,z
_cell_length_a	12.594517
_cell_length_b	12.594516
_cell_length_c	16.120297
_cell_angle_alpha	87.123691
_cell_angle_beta	87.112004
_cell_angle_gamma	90.007702
loop_
_atom_site_label
_atom_site_type_symbol
_atom_site_fract_x
_atom_site_fract_y
_atom_site_fract_z
Zn1	Zn	1.596787	-0.454388	0.471199
Zn2	Zn	1.605718	-0.623357	0.331796
Zn3	Zn	1.427816	-0.445382	0.331825
Zn4	Zn	1.418787	-0.632311	0.471186
O5	O	1.512277	-0.538859	0.401501
O6	O	1.746918	-0.476824	0.452700
O7	O	1.589635	-0.592231	0.215135
O8	O	1.450271	-0.297632	0.350330
O9	O	1.753479	-0.600964	0.350281
O10	O	1.574413	-0.304248	0.452728
O11	O	1.458931	-0.461474	0.215156
O12	O	1.277672	-0.470157	0.350318
O13	O	1.434883	-0.616226	0.587852
O14	O	1.271038	-0.607493	0.452706
O15	O	1.565659	-0.485506	0.587862
O16	O	1.580880	-0.773489	0.350268
O17	O	1.443543	-0.780068	0.452678
C18	C	1.235735	-0.538820	0.401514
C19	C	1.117428	-0.538830	0.401539
C20	C	1.044605	-0.613659	0.457121
C21	C	0.972461	-0.517943	0.477625
C22	C	0.978773	-0.634625	0.381017
C23	C	1.046840	-0.443065	0.422083
C24	C	1.053161	-0.559810	0.325440
C25	C	0.981051	-0.464025	0.345915
C26	C	1.512228	-0.815399	0.401487
C27	C	1.512303	-0.933706	0.401509
C28	C	1.587080	-0.999346	0.345867
C29	C	1.608163	-1.074980	0.421958
C30	C	1.491350	-1.068875	0.325467
C31	C	1.533434	-1.007784	0.477639
C32	C	1.416578	-1.001669	0.381096
C33	C	1.437622	-1.077274	0.457239
C34	C	1.789898	-0.538900	0.401489
C35	C	1.908204	-0.538917	0.401484
C36	C	1.498267	-0.552869	0.618952
C37	C	1.492297	-0.558840	0.711617
C38	C	1.512353	-0.261241	0.401534
C39	C	1.512386	-0.142936	0.401548
C40	C	1.526293	-0.524827	0.184896
C41	C	1.532469	-0.518557	0.092232
C42	C	1.481359	-0.569716	0.881276
C43	C	1.543404	-0.507683	0.922578
C44	C	1.537318	-0.513735	1.016982
C45	C	1.487444	-0.563666	0.786864
H46	H	0.937177	-0.500228	0.541957
N47	N	1.555830	-0.974076	0.558352
N48	N	1.559447	-0.877162	0.571353
H49	H	1.575269	-0.853352	0.628355
N50	N	0.941229	-0.736209	0.359253
N51	N	0.969660	-0.771998	0.290710
H52	H	0.943149	-0.843744	0.275344
N53	N	1.315010	-0.961277	0.359402
N54	N	1.233476	-0.988030	0.402856
H55	H	1.161742	-0.959498	0.387528
N56	N	1.666422	-0.956582	0.286894
N57	N	1.762042	-0.979738	0.294618
H58	H	1.818080	-0.949536	0.252971
H59	H	1.473593	-1.095871	0.261143
N60	N	1.084244	-0.341460	0.443918
N61	N	1.181750	-0.325035	0.447493
H62	H	1.208171	-0.253279	0.462915
H63	H	1.088467	-0.577555	0.261126
N64	N	1.408995	-0.642031	0.925867
N65	N	1.404098	-0.646901	1.003604
H66	H	1.352993	-0.697974	1.035106
N67	N	1.709755	-1.115372	0.443610
N68	N	1.791041	-1.089875	0.399404
H69	H	1.862790	-1.118418	0.414679
H70	H	1.374418	-1.111180	0.504364
N71	N	0.946154	-0.384595	0.286921
N72	N	0.968532	-0.289026	0.294687
H73	H	0.943885	-0.232925	0.253025
H74	H	1.601093	-0.450029	0.887038
H75	H	1.072627	-0.676828	0.504184
