data_functionalizedCrystal
_audit_creation_method	'MofGen! by Chris Wilmer'
_symmetry_space_group_name_H-M	'P1'
_symmetry_Int_Tables_number	1
_symmetry_cell_setting	triclinic
loop_
_symmetry_equiv_pos_as_xyz
  x,y,z
_cell_length_a	17.699104
_cell_length_b	26.210047
_cell_length_c	17.699092
_cell_angle_alpha	89.993822
_cell_angle_beta	83.288943
_cell_angle_gamma	90.009906
loop_
_atom_site_label
_atom_site_type_symbol
_atom_site_fract_x
_atom_site_fract_y
_atom_site_fract_z
O1	O	1.004075	0.042437	0.095775
O2	O	0.783699	0.042436	0.108211
O3	O	0.900110	0.042436	-0.008195
O4	O	0.887664	0.042438	0.212181
O5	O	0.900087	-0.042423	-0.008177
O6	O	0.783677	-0.042422	0.108229
O7	O	1.004052	-0.042421	0.095793
Cu8	Cu	0.893862	-0.050170	0.102013
Cu9	Cu	0.893889	0.050185	0.101991
O10	O	0.887642	-0.042420	0.212199
C11	C	0.755491	0.000007	0.107772
C12	C	0.671474	0.000006	0.106427
N13	N	0.893849	-0.120754	0.102027
C14	C	0.146605	0.000012	0.167170
C15	C	0.225548	0.000014	0.168430
C16	C	0.274164	0.000013	0.100095
C17	C	0.243832	0.000016	0.030496
C18	C	0.164890	0.000018	0.029238
C19	C	0.562198	0.000008	0.035569
C20	C	0.641145	0.000004	0.036833
C21	C	0.622857	0.000003	0.174761
C22	C	0.543915	0.000006	0.173503
C23	C	0.513590	0.000011	0.103905
C24	C	0.427990	0.000011	0.102540
C25	C	0.359762	0.000010	0.101458
C26	C	0.945430	-0.473268	0.050458
C27	C	0.945447	-0.686926	0.050448
O28	O	0.989274	-0.714548	0.006605
N29	N	0.893893	-0.713647	0.101975
C30	C	0.842328	-0.686951	0.153505
O31	O	0.798473	-0.714581	0.197326
C32	C	0.842308	-0.473293	0.153511
C33	C	0.893871	-0.446575	0.101986
C34	C	0.996988	-0.446549	-0.001063
C35	C	0.996986	-0.393138	-0.001057
C36	C	0.945427	-0.366445	0.050470
C37	C	0.893869	-0.393163	0.101992
C38	C	0.790740	-0.446597	0.205037
C39	C	0.790738	-0.393179	0.205032
C40	C	0.842301	-0.366461	0.153507
C41	C	0.842307	-0.313059	0.153525
N42	N	0.893861	-0.286338	0.101998
C43	C	0.945421	-0.313031	0.050471
C44	C	0.842343	-0.799124	0.153499
C45	C	0.842348	-0.852538	0.153498
C46	C	0.945467	-0.852510	0.050440
C47	C	0.945464	-0.799095	0.050445
C48	C	0.893897	-0.772403	0.101972
C49	C	0.945413	-0.200863	0.050487
C50	C	0.945409	-0.147447	0.050500
C51	C	0.842288	-0.147479	0.153555
C52	C	0.842295	-0.200891	0.153545
C53	C	0.893860	-0.227581	0.102005
O54	O	0.798497	-0.285404	0.197339
O55	O	0.989258	-0.285391	0.006645
C56	C	0.945432	-0.526679	0.050452
C57	C	0.893875	-0.553398	0.101974
C58	C	0.842315	-0.526705	0.153501
C59	C	0.893880	-0.606812	0.101973
C60	C	0.945440	-0.633505	0.050446
C61	C	0.996994	-0.606784	-0.001081
C62	C	0.996992	-0.553372	-0.001075
C63	C	0.790761	-0.553426	0.205028
C64	C	0.790767	-0.606837	0.205019
C65	C	0.842327	-0.633530	0.153491
C66	C	1.032260	0.000010	0.096232
C67	C	1.116278	0.000014	0.097577
N68	N	0.893908	0.120769	0.101971
C69	C	0.899652	0.000007	-0.036383
C70	C	0.898311	0.000010	-0.120401
C71	C	0.897695	0.046266	-0.159878
C72	C	0.896430	0.046267	-0.238821
C73	C	0.895786	0.000010	-0.278286
C74	C	0.896400	-0.046250	-0.238803
C75	C	0.897659	-0.046250	-0.159861
C76	C	0.891320	-0.046251	-0.557169
C77	C	0.890062	-0.046247	-0.636117
C78	C	0.890090	0.046266	-0.636129
C79	C	0.891349	0.046266	-0.557187
C80	C	0.891959	0.000006	-0.517710
C81	C	0.893329	0.000006	-0.432111
C82	C	0.894421	0.000010	-0.363885
C83	C	0.888100	0.000009	0.240387
C84	C	0.889441	0.000010	0.324405
H85	H	0.107027	0.000009	0.222817
O86	O	0.532840	0.000076	-0.032084
C87	C	0.557698	0.044028	-0.073734
H88	H	0.612418	0.058679	-0.053205
H89	H	0.568768	0.034141	-0.136778
H90	H	0.512012	0.074805	-0.064897
O91	O	0.688480	-0.000015	-0.029482
C92	C	0.764659	-0.000006	-0.013443
H93	H	0.767573	-0.016077	0.046000
H94	H	0.800494	-0.024640	-0.057007
H95	H	0.787508	0.040704	-0.016353
O96	O	0.291163	-0.000007	-0.035815
C97	C	0.367343	0.000001	-0.019784
H98	H	0.370263	-0.016064	0.039662
H99	H	0.403174	-0.024637	-0.063345
H100	H	0.390195	0.040711	-0.022704
H101	H	1.038971	-0.371387	-0.043016
H102	H	0.140199	0.000020	-0.027432
H103	H	0.889589	0.083933	-0.668280
H104	H	0.987400	-0.125694	0.008542
H105	H	0.895871	-0.083913	-0.270941
O106	O	0.889400	-0.091229	-0.674332
C107	C	0.890225	-0.132060	-0.622564
H108	H	0.867175	-0.118501	-0.563118
H109	H	0.853117	-0.164409	-0.640503
H110	H	0.951048	-0.146288	-0.622212
O111	O	0.891949	0.091154	-0.518731
C112	C	0.893141	0.081235	-0.440582
H113	H	0.917312	0.041497	-0.432963
H114	H	0.930292	0.110803	-0.415422
H115	H	0.832785	0.083382	-0.410169
O116	O	0.898282	-0.091230	-0.121630
C117	C	0.897420	-0.132057	-0.173386
H118	H	0.920489	-0.118500	-0.232835
H119	H	0.934492	-0.164415	-0.155433
H120	H	0.836583	-0.146272	-0.173740
O121	O	0.891789	-0.091175	-0.518784
C122	C	0.827005	-0.093950	-0.464421
H123	H	0.780831	-0.067700	-0.482133
H124	H	0.805021	-0.134865	-0.460616
H125	H	0.842776	-0.081531	-0.406554
O126	O	0.792182	-0.226906	0.203494
C127	C	0.745556	-0.257790	0.163006
H128	H	0.775810	-0.265779	0.103743
H129	H	0.733523	-0.295358	0.194602
H130	H	0.689632	-0.237209	0.157933
O131	O	0.792307	-0.121487	0.203635
C132	C	0.832745	-0.090596	0.250296
H133	H	0.892027	-0.082589	0.220088
H134	H	0.801136	-0.053038	0.262295
H135	H	0.837773	-0.111181	0.306233
H136	H	1.038974	-0.468278	-0.043027
O137	O	0.254908	0.000082	0.236085
C138	C	0.230071	0.044037	0.277710
H139	H	0.175363	0.058687	0.257169
H140	H	0.218990	0.034153	0.340759
H141	H	0.275776	0.074813	0.268861
O142	O	0.496798	0.000029	0.239953
C143	C	0.540495	0.000017	0.301650
H144	H	0.599454	0.016079	0.282326
H145	H	0.511300	0.024655	0.349513
H146	H	0.546063	-0.040694	0.323000
H147	H	0.987402	-0.222588	0.008518
O148	O	1.047106	-0.527501	-0.051204
C149	C	1.092620	-0.562524	-0.096665
H150	H	1.061588	-0.600602	-0.097477
H151	H	1.104279	-0.547090	-0.157126
H152	H	1.148795	-0.568201	-0.072156
O153	O	0.740647	-0.527579	0.255160
C154	C	0.695137	-0.562624	0.300619
H155	H	0.726171	-0.600694	0.301423
H156	H	0.683480	-0.547205	0.361082
H157	H	0.638960	-0.568309	0.276112
O158	O	0.652442	0.000028	0.242305
C159	C	0.732542	0.000016	0.228768
H160	H	0.751188	0.016081	0.169667
H161	H	0.756710	0.024653	0.273288
H162	H	0.754501	-0.040694	0.232404
O163	O	0.995577	-0.773222	0.000317
C164	C	1.041097	-0.808243	-0.045144
H165	H	1.010070	-0.846322	-0.045956
H166	H	1.052755	-0.792808	-0.105604
H167	H	1.097272	-0.813916	-0.020633
H168	H	0.800369	-0.874289	0.195463
H169	H	0.748743	-0.371449	0.246991
O170	O	0.792222	-0.773278	0.203632
C171	C	0.746715	-0.808323	0.249093
H172	H	0.777754	-0.846391	0.249901
H173	H	0.735056	-0.792903	0.309555
H174	H	0.690540	-0.814013	0.224586
O175	O	0.740576	-0.472464	0.255116
C176	C	0.695085	-0.437439	0.300598
H177	H	0.694298	-0.399364	0.269561
H178	H	0.634620	-0.452875	0.312212
H179	H	0.719549	-0.431758	0.356797
H180	H	0.987450	-0.874253	0.008485
O181	O	1.046974	-0.632742	-0.051211
C182	C	1.006520	-0.663649	-0.097838
H183	H	0.946840	-0.647553	-0.099043
H184	H	1.037505	-0.664252	-0.158035
H185	H	1.002503	-0.704131	-0.074141
O186	O	0.740644	-0.632844	0.254971
C187	C	0.694017	-0.663729	0.214485
H188	H	0.724275	-0.671724	0.155226
H189	H	0.681974	-0.701293	0.246088
H190	H	0.638098	-0.643145	0.209402
O191	O	0.895900	0.091246	-0.277061
C192	C	0.896741	0.132073	-0.225301
H193	H	0.921559	0.118502	-0.172192
H194	H	0.933151	0.164411	-0.252979
H195	H	0.836193	0.146320	-0.208879
H196	H	0.898223	0.083934	-0.127752
