data_functionalizedCrystal
_audit_creation_method	'MofGen! by Chris Wilmer'
_symmetry_space_group_name_H-M	'P1'
_symmetry_Int_Tables_number	1
_symmetry_cell_setting	triclinic
loop_
_symmetry_equiv_pos_as_xyz
  x,y,z
_cell_length_a	18.215407
_cell_length_b	15.297510
_cell_length_c	18.215399
_cell_angle_alpha	99.650393
_cell_angle_beta	90.017368
_cell_angle_gamma	80.294185
loop_
_atom_site_label
_atom_site_type_symbol
_atom_site_fract_x
_atom_site_fract_y
_atom_site_fract_z
Zn1	Zn	1.074340	0.359235	0.466769
Zn2	Zn	1.052942	0.510106	0.364996
Zn3	Zn	0.951269	0.359257	0.343725
Zn4	Zn	0.929940	0.510048	0.488018
O5	O	1.002123	0.434661	0.415877
O6	O	1.174483	0.379264	0.453278
O7	O	1.039426	0.490129	0.259195
O8	O	0.985476	0.233007	0.342252
O9	O	1.158762	0.490108	0.378506
O10	O	1.075896	0.232991	0.432652
O11	O	0.964728	0.379300	0.243567
O12	O	0.845458	0.379244	0.362856
O13	O	0.949124	0.490009	0.588179
O14	O	0.829787	0.490030	0.468868
O15	O	1.055214	0.379207	0.572567
O16	O	1.018744	0.636345	0.399111
O17	O	0.928375	0.636302	0.489494
C18	C	0.810920	0.434634	0.415860
C19	C	0.729120	0.434643	0.415874
C20	C	0.549094	0.377046	0.454899
C21	C	0.472234	0.377053	0.454902
C22	C	0.455900	0.492302	0.376872
C23	C	0.532759	0.492289	0.376865
C24	C	0.579354	0.434662	0.415882
C25	C	0.425635	0.434683	0.415893
C26	C	0.342300	0.434692	0.415897
C27	C	0.662694	0.434652	0.415878
C28	C	0.968943	0.669058	0.448933
C29	C	0.954816	0.769333	0.463098
C30	C	1.103358	1.051958	0.314925
C31	C	1.116631	0.957744	0.301612
C32	C	1.076178	0.910636	0.341982
C33	C	1.022451	0.957753	0.395668
C34	C	1.009172	1.051976	0.408979
C35	C	0.981993	0.910655	0.436036
C36	C	0.928265	0.957771	0.489722
C37	C	0.914990	1.051985	0.503031
C38	C	0.955442	1.099092	0.462660
C39	C	0.995271	0.816431	0.422726
C40	C	0.901085	0.816450	0.516780
C41	C	0.887813	0.910664	0.530093
C42	C	1.194072	0.434690	0.415895
C43	C	1.275869	0.434702	0.415902
C44	C	1.002176	0.434599	0.607821
C45	C	1.002199	0.434573	0.689617
C46	C	1.035445	1.199350	0.382717
C47	C	1.049627	1.099074	0.368606
C48	C	1.002121	0.434658	0.224670
C49	C	1.002277	0.434430	0.142840
C50	C	1.057465	0.376824	0.869675
C51	C	1.057477	0.376798	0.946530
C52	C	0.947005	0.492181	0.962776
C53	C	0.946991	0.492202	0.885922
C54	C	1.002224	0.434525	0.839373
C55	C	1.002252	0.434478	0.993083
C56	C	1.002265	0.434450	1.076413
C57	C	1.002210	0.434552	0.756038
H58	H	0.417953	0.539221	0.345106
Cl59	Cl	1.154204	1.111182	0.264179
Cl60	Cl	0.570804	0.564718	0.327803
H61	H	1.102438	0.329857	0.831777
Cl62	Cl	1.126931	0.304264	0.984621
Cl63	Cl	0.820271	0.969906	0.597581
H64	H	1.039016	0.778078	0.379014
Cl65	Cl	0.607669	0.304597	0.503945
Cl66	Cl	1.093067	0.792195	0.325446
H67	H	0.944640	1.175809	0.473499
Cl68	Cl	0.850223	0.757236	0.567530
Cl69	Cl	1.184178	0.898519	0.234131
H70	H	0.902038	0.539142	1.000685
H71	H	0.871232	1.090344	0.546737
H72	H	0.447601	0.330135	0.486672
H73	H	0.902002	0.539189	0.861250
