data_functionalizedCrystal
_audit_creation_method	'MofGen! by Chris Wilmer'
_symmetry_space_group_name_H-M	'P1'
_symmetry_Int_Tables_number	1
_symmetry_cell_setting	triclinic
loop_
_symmetry_equiv_pos_as_xyz
  x,y,z
_cell_length_a	8.497374
_cell_length_b	8.497374
_cell_length_c	25.639242
_cell_angle_alpha	90.012325
_cell_angle_beta	90.003377
_cell_angle_gamma	90.005237
loop_
_atom_site_label
_atom_site_type_symbol
_atom_site_fract_x
_atom_site_fract_y
_atom_site_fract_z
Zn1	Zn	0.628518	0.892552	0.799311
Zn2	Zn	0.892263	0.628818	0.799307
Zn3	Zn	0.628471	0.628731	0.711902
Zn4	Zn	0.892229	0.892501	0.711890
O5	O	0.760370	0.760651	0.755602
O6	O	0.663538	0.857626	0.872476
O7	O	0.857265	0.408044	0.787716
O8	O	0.407715	0.663713	0.723504
O9	O	0.857311	0.663861	0.872473
O10	O	0.407749	0.857541	0.787723
O11	O	0.663458	0.407980	0.723500
O12	O	0.663425	0.663663	0.638735
O13	O	0.857252	1.113270	0.723483
O14	O	0.857207	0.857453	0.638726
O15	O	0.663505	1.113308	0.787711
O16	O	1.113021	0.663811	0.787704
O17	O	1.112996	0.857538	0.723479
C18	C	0.760308	0.760544	0.619760
C19	C	0.760319	0.760535	0.561646
C20	C	1.170250	0.760673	0.755596
C21	C	1.348894	0.760648	0.755610
C22	C	0.760372	1.172131	0.755599
C23	C	0.760389	1.350775	0.755600
C24	C	0.861441	0.861462	0.201287
C25	C	0.861451	0.861487	0.146683
O26	O	0.947351	0.947207	0.118449
N27	N	0.760414	0.760754	0.119363
C28	C	0.659349	0.660000	0.146651
O29	O	0.573409	0.574322	0.118400
C30	C	0.659333	0.659985	0.201255
C31	C	0.760388	0.760713	0.228571
C32	C	0.962487	0.962183	0.228603
C33	C	0.962479	0.962156	0.283204
C34	C	0.861425	0.861407	0.310488
C35	C	0.760380	0.760686	0.283171
C36	C	0.558261	0.559240	0.228541
C37	C	0.558252	0.559234	0.283149
C38	C	0.659308	0.659963	0.310465
C39	C	0.659318	0.659909	0.365056
N40	N	0.760355	0.760642	0.392375
C41	C	0.861409	0.861391	0.365091
C42	C	0.659389	0.660043	0.031981
C43	C	0.659412	0.660050	-0.022622
C44	C	0.861513	0.861538	-0.022587
C45	C	0.861496	0.861523	0.032017
C46	C	0.760426	0.760776	0.059300
C47	C	0.861385	0.861325	0.479756
C48	C	0.861373	0.861284	0.534362
C49	C	0.659268	0.659802	0.534322
C50	C	0.659285	0.659836	0.479721
C51	C	0.760349	0.760611	0.452440
O52	O	0.573457	0.574237	0.393324
O53	O	0.947320	0.947070	0.393349
C54	C	0.760434	0.760759	0.891975
C55	C	0.760461	0.760805	0.950089
H56	H	0.943670	0.943311	0.556600
O57	O	1.060586	1.060274	0.202162
C58	C	1.026335	1.217554	0.215514
H59	H	0.965660	1.220894	0.255153
H60	H	1.140308	1.288110	0.217406
H61	H	0.945346	1.270839	0.184780
H62	H	0.943678	0.943389	0.457550
H63	H	0.577087	0.577992	0.054191
H64	H	0.475938	0.477202	0.305360
O65	O	0.561065	0.561783	0.560750
C66	C	0.471843	0.472902	0.524936
H67	H	0.536445	0.467351	0.486012
H68	H	0.454821	0.348628	0.540701
H69	H	0.352119	0.530852	0.519134
H70	H	0.577001	0.577812	0.457479
O71	O	0.561435	0.562213	-0.049234
C72	C	0.583081	0.583837	-0.103281
H73	H	0.704894	0.635363	-0.110730
H74	H	0.572239	0.465678	-0.124040
H75	H	0.489615	0.667952	-0.118777
O76	O	1.060409	1.060102	0.309791
C77	C	0.970738	1.162150	0.341369
H78	H	0.851106	1.106672	0.349546
H79	H	1.035030	1.183217	0.379768
H80	H	0.953570	1.279076	0.320330
O81	O	0.959701	0.959527	0.058469
C82	C	1.048921	1.048414	0.022671
H83	H	0.984319	1.053968	-0.016254
H84	H	1.065941	1.172687	0.038456
H85	H	1.168646	0.990467	0.016865
H86	H	0.475975	0.477212	0.206310
H87	H	0.943791	0.943579	-0.044811
