data_functionalizedCrystal
_audit_creation_method	'MofGen! by Chris Wilmer'
_symmetry_space_group_name_H-M	'P1'
_symmetry_Int_Tables_number	1
_symmetry_cell_setting	triclinic
loop_
_symmetry_equiv_pos_as_xyz
  x,y,z
_cell_length_a	16.120530
_cell_length_b	12.827892
_cell_length_c	16.120297
_cell_angle_alpha	87.123928
_cell_angle_beta	89.871860
_cell_angle_gamma	87.111104
loop_
_atom_site_label
_atom_site_type_symbol
_atom_site_fract_x
_atom_site_fract_y
_atom_site_fract_z
Zn1	Zn	1.247499	-0.529438	0.534590
Zn2	Zn	1.580832	-0.196105	0.867924
Zn3	Zn	1.914165	0.137229	1.201257
Zn4	Zn	1.254468	-0.695798	0.395541
Zn5	Zn	1.587801	-0.362465	0.728874
Zn6	Zn	1.921135	-0.029132	1.062207
Zn7	Zn	1.115487	-0.511779	0.388507
Zn8	Zn	1.448821	-0.178446	0.721841
Zn9	Zn	1.782154	0.154887	1.055174
Zn10	Zn	1.108424	-0.694836	0.527510
Zn11	Zn	1.441758	-0.361503	0.860843
Zn12	Zn	1.775091	-0.028169	1.194177
O13	O	1.181470	-0.607963	0.461537
O14	O	1.514803	-0.274630	0.794870
O15	O	1.848136	0.058704	1.128204
O16	O	1.364790	-0.559299	0.522052
O17	O	1.698124	-0.225966	0.855385
O18	O	2.031457	0.107367	1.188718
O19	O	1.241904	-0.664400	0.278242
O20	O	1.575238	-0.331067	0.611575
O21	O	1.908571	0.002266	0.944909
O22	O	1.133038	-0.367889	0.407905
O23	O	1.466371	-0.034556	0.741239
O24	O	1.799705	0.298777	1.074572
O25	O	1.369911	-0.681523	0.419892
O26	O	1.703244	-0.348190	0.753226
O27	O	2.036577	-0.014857	1.086559
O28	O	1.230026	-0.380863	0.515232
O29	O	1.563360	-0.047530	0.848565
O30	O	1.896693	0.285803	1.181898
O31	O	1.139796	-0.529202	0.273075
O32	O	1.473129	-0.195869	0.606408
O33	O	1.806462	0.137465	0.939741
O34	O	0.998183	-0.528269	0.401040
O35	O	1.331516	-0.194936	0.734373
O36	O	1.664850	0.138398	1.067706
O37	O	1.121000	-0.679883	0.644815
O38	O	1.454334	-0.346550	0.978148
O39	O	1.787667	-0.013217	1.311482
O40	O	0.992994	-0.662760	0.503164
O41	O	1.326327	-0.329427	0.836498
O42	O	1.659661	0.003907	1.169831
O43	O	1.223178	-0.558366	0.650017
O44	O	1.556511	-0.225033	0.983350
O45	O	1.889844	0.108301	1.316683
O46	O	1.235056	-0.841903	0.413027
O47	O	1.568389	-0.508570	0.746360
O48	O	1.901722	-0.175236	1.079694
O49	O	1.127758	-0.841196	0.509984
O50	O	1.461091	-0.507863	0.843318
O51	O	1.794425	-0.174529	1.176651
C52	C	1.181418	-0.879469	0.461520
C53	C	1.514752	-0.546135	0.794853
C54	C	1.848085	-0.212802	1.128186
C55	C	1.181471	-0.995627	0.461544
C56	C	1.514804	-0.662293	0.794877
C57	C	1.848138	-0.328960	1.128211
C58	C	0.965416	-0.593495	0.450571
C59	C	1.298749	-0.260161	0.783904
C60	C	1.632083	0.073172	1.117238
C61	C	0.872986	-0.587331	0.445899
C62	C	1.206319	-0.253998	0.779233
C63	C	1.539653	0.079335	1.112566
C64	C	1.234622	-1.047734	0.413626
C65	C	1.567956	-0.714401	0.746959
C66	C	1.901289	-0.381067	1.080292
C67	C	1.234678	-1.167789	0.413650
C68	C	1.568011	-0.834456	0.746983
C69	C	1.901345	-0.501123	1.080316
C70	C	0.703755	-0.576055	0.437377
C71	C	1.037089	-0.242722	0.770711
C72	C	1.370422	0.090612	1.104044
C73	C	0.660021	-0.639952	0.485757
C74	C	0.993354	-0.306618	0.819091
C75	C	1.326688	0.026715	1.152424
C76	C	0.565855	-0.633677	0.481016
C77	C	0.899189	-0.300344	0.814349
C78	C	1.232522	0.032989	1.147682
C79	C	0.797930	-0.582328	0.442118
C80	C	1.131263	-0.248994	0.775451
C81	C	1.464596	0.084339	1.108785
C82	C	1.398367	-0.622489	0.472546
C83	C	1.731700	-0.289155	0.805880
C84	C	2.065034	0.044178	1.139213
C85	C	1.490796	-0.628679	0.477238
C86	C	1.824129	-0.295345	0.810571
C87	C	2.157462	0.037988	1.143905
C88	C	1.170524	-0.620987	0.678432
C89	C	1.503857	-0.287654	1.011765
C90	C	1.837190	0.045680	1.345098
C91	C	1.165859	-0.626537	0.770859
C92	C	1.499193	-0.293204	1.104193
C93	C	1.832526	0.040129	1.437526
C94	C	1.181543	-0.335400	0.461574
C95	C	1.514876	-0.002066	0.794907
C96	C	1.848209	0.331267	1.128240
C97	C	1.181574	-0.219250	0.461589
C98	C	1.514907	0.114084	0.794923
C99	C	1.848241	0.447417	1.128256
C100	C	1.192421	-0.594917	0.245488
C101	C	1.525754	-0.261584	0.578822
C102	C	1.859087	0.071749	0.912155
C103	C	1.197246	-0.589084	0.153069
C104	C	1.530579	-0.255750	0.486403
C105	C	1.863913	0.077583	0.819736
C106	C	1.157313	-0.636645	0.940085
C107	C	1.490646	-0.303312	1.273418
C108	C	1.823979	0.030022	1.606751
C109	C	1.205790	-0.578979	0.983850
C110	C	1.539123	-0.245645	1.317183
C111	C	1.872457	0.087688	1.650516
C112	C	1.201035	-0.584603	1.078012
C113	C	1.534368	-0.251269	1.411346
C114	C	1.867701	0.082064	1.744679
C115	C	1.162067	-0.631022	0.845913
C116	C	1.495400	-0.297689	1.179247
C117	C	1.828734	0.035644	1.512580
H118	H	1.280181	-1.212599	0.372623
H119	H	1.613514	-0.879266	0.705956
H120	H	1.946848	-0.545932	1.039289
H121	H	1.250863	-0.525384	0.950599
H122	H	1.584197	-0.192050	1.283933
H123	H	1.917530	0.141283	1.617266
H124	H	1.112243	-0.690235	0.973333
H125	H	1.445576	-0.356902	1.306666
H126	H	1.778910	-0.023569	1.639999
N127	N	1.121296	-1.159909	0.515940
N128	N	1.454629	-0.826576	0.849273
N129	N	1.787962	-0.493242	1.182607
H130	H	1.085865	-1.210752	0.547936
H131	H	1.419198	-0.877418	0.881269
H132	H	1.752532	-0.544085	1.214602
H133	H	1.084562	-1.110073	0.480067
H134	H	1.417896	-0.776740	0.813401
H135	H	1.751229	-0.443407	1.146734
N136	N	1.294855	-0.989109	0.359263
N137	N	1.628188	-0.655775	0.692597
N138	N	1.961521	-0.322442	1.025930
H139	H	1.286279	-0.911655	0.366954
H140	H	1.619612	-0.578322	0.700287
H141	H	1.952946	-0.244989	1.033621
H142	H	1.284983	-1.003743	0.299199
H143	H	1.618316	-0.670410	0.632532
H144	H	1.951650	-0.337076	0.965866
H145	H	0.670479	-0.516644	0.392400
H146	H	1.003812	-0.183311	0.725734
H147	H	1.337145	0.150022	1.059067
H148	H	0.693300	-0.699366	0.530739
H149	H	1.026633	-0.366033	0.864072
H150	H	1.359967	-0.032700	1.197405
N151	N	1.121240	-1.054256	0.515905
N152	N	1.454573	-0.720922	0.849238
N153	N	1.787906	-0.387589	1.182571
H154	H	1.085760	-1.002988	0.547878
H155	H	1.419093	-0.669654	0.881212
H156	H	1.752427	-0.336321	1.214545
H157	H	1.153167	-1.104065	0.556111
H158	H	1.486500	-0.770731	0.889445
H159	H	1.819833	-0.437398	1.222778
