data_functionalizedCrystal
_audit_creation_method	'MofGen! by Chris Wilmer'
_symmetry_space_group_name_H-M	'P1'
_symmetry_Int_Tables_number	1
_symmetry_cell_setting	triclinic
loop_
_symmetry_equiv_pos_as_xyz
  x,y,z
_cell_length_a	17.019372
_cell_length_b	15.500227
_cell_length_c	8.597213
_cell_angle_alpha	79.431251
_cell_angle_beta	83.844149
_cell_angle_gamma	88.970414
loop_
_atom_site_label
_atom_site_type_symbol
_atom_site_fract_x
_atom_site_fract_y
_atom_site_fract_z
O1	O	1.047148	-0.021065	0.202025
O2	O	0.818448	-0.005826	0.225989
O3	O	0.938157	0.003312	-0.016170
O4	O	0.927439	-0.030203	0.444184
O5	O	0.930893	-0.141127	-0.001533
O6	O	0.811184	-0.150265	0.240626
O7	O	1.039884	-0.165504	0.216662
Cu8	Cu	0.924871	-0.171073	0.229980
Cu9	Cu	0.933462	-0.000257	0.212671
O10	O	0.920175	-0.174642	0.458821
C11	C	0.785534	-0.075777	0.232112
C12	C	0.698282	-0.069015	0.228532
C13	C	0.205008	-0.026757	0.207822
C14	C	0.286990	-0.033123	0.211188
C15	C	0.324012	-0.115041	0.220861
C16	C	0.279049	-0.190597	0.227153
C17	C	0.197069	-0.184230	0.223776
C18	C	0.571339	-0.138204	0.231446
C19	C	0.653325	-0.144565	0.234828
C20	C	0.661260	0.012910	0.218860
C21	C	0.579278	0.019269	0.215493
C22	C	0.534323	-0.056287	0.221777
C23	C	0.407810	-0.121550	0.224307
C24	C	0.450527	-0.049776	0.218320
N25	N	0.918834	-0.291216	0.242154
C26	C	0.969577	-0.332625	0.139581
C27	C	0.965018	-0.423545	0.148803
C28	C	0.909720	-0.473057	0.260606
C29	C	0.858972	-0.431642	0.363184
C30	C	0.863527	-0.340722	0.353954
C31	C	0.893311	-0.747779	0.293831
C32	C	0.888762	-0.838705	0.303057
C33	C	0.994807	-0.830602	0.088673
C34	C	0.999361	-0.739682	0.079459
C35	C	0.948610	-0.698274	0.182031
C36	C	0.905062	-0.565993	0.270038
C37	C	0.953265	-0.605338	0.172590
C38	C	1.072799	-0.095552	0.210539
C39	C	1.160051	-0.102308	0.214119
C40	C	0.933779	-0.064459	-0.067772
C41	C	0.931546	-0.051201	-0.243336
N42	N	0.939505	0.119886	0.200484
C43	C	0.924553	-0.106870	0.510423
C44	C	0.926786	-0.120121	0.685987
H45	H	0.323591	0.028400	0.206051
H46	H	0.683465	-0.211277	0.242716
H47	H	1.044389	-0.699371	-0.011580
H48	H	0.933915	0.017939	0.682862
H49	H	0.174870	0.039949	0.199957
H50	H	0.549140	0.085975	0.207614
H51	H	0.924426	-0.189267	0.759795
H52	H	0.843729	-0.879014	0.394108
H53	H	0.420380	0.016922	0.210438
H54	H	0.309200	-0.257296	0.235019
H55	H	0.697871	0.074423	0.213742
H56	H	0.534748	-0.199725	0.236540
H57	H	1.014609	-0.292319	0.048546
H58	H	0.160465	-0.245753	0.228920
H59	H	0.437963	-0.188248	0.232185
H60	H	1.006337	-0.457260	0.065279
H61	H	1.036126	-0.864325	0.005162
H62	H	0.813943	-0.471959	0.454212
H63	H	0.851989	-0.714072	0.377353
H64	H	0.998286	-0.565023	0.081554
H65	H	0.822206	-0.307008	0.437477
H66	H	0.860038	-0.606313	0.361074
