data_functionalizedCrystal
_audit_creation_method	'MofGen! by Chris Wilmer'
_symmetry_space_group_name_H-M	'P1'
_symmetry_Int_Tables_number	1
_symmetry_cell_setting	triclinic
loop_
_symmetry_equiv_pos_as_xyz
  x,y,z
_cell_length_a	19.805407
_cell_length_b	12.759400
_cell_length_c	19.805398
_cell_angle_alpha	89.979545
_cell_angle_beta	89.984135
_cell_angle_gamma	90.013166
loop_
_atom_site_label
_atom_site_type_symbol
_atom_site_fract_x
_atom_site_fract_y
_atom_site_fract_z
Zn1	Zn	1.034773	-0.418308	-0.382745
Zn2	Zn	1.534773	0.081692	0.117255
Zn3	Zn	1.034722	-0.593996	-0.269568
Zn4	Zn	1.534722	-0.093996	0.230432
Zn5	Zn	0.921595	-0.418332	-0.269570
Zn6	Zn	1.421595	0.081668	0.230430
Zn7	Zn	0.921578	-0.593945	-0.382715
Zn8	Zn	1.421578	-0.093945	0.117285
O9	O	0.978167	-0.506145	-0.326149
O10	O	1.478167	-0.006145	0.173851
O11	O	1.129483	-0.441625	-0.367744
O12	O	1.629483	0.058375	0.132256
O13	O	1.019701	-0.570725	-0.174852
O14	O	1.519701	-0.070725	0.325148
O15	O	0.936637	-0.271308	-0.284597
O16	O	1.436637	0.228692	0.215403
O17	O	1.129445	-0.570702	-0.284593
O18	O	1.629445	-0.070702	0.215407
O19	O	1.019789	-0.271290	-0.367746
O20	O	1.519789	0.228710	0.132254
O21	O	0.936587	-0.441665	-0.174853
O22	O	1.436587	0.058335	0.325147
O23	O	0.826876	-0.441616	-0.284567
O24	O	1.326876	0.058384	0.215433
O25	O	0.936607	-0.570615	-0.477435
O26	O	1.436607	-0.070615	0.022565
O27	O	0.826863	-0.570639	-0.367694
O28	O	1.326863	-0.070639	0.132306
O29	O	1.019772	-0.441575	-0.477458
O30	O	1.519772	0.058425	0.022542
O31	O	1.019684	-0.741010	-0.284563
O32	O	1.519684	-0.241010	0.215437
O33	O	0.936557	-0.740973	-0.367692
O34	O	1.436557	-0.240973	0.132308
C35	C	0.802311	-0.506125	-0.326128
C36	C	1.302311	-0.006125	0.173872
C37	C	0.727079	-0.506142	-0.326134
C38	C	1.227079	-0.006142	0.173866
C39	C	0.691746	-0.573425	-0.369348
C40	C	1.191746	-0.073425	0.130652
C41	C	0.621057	-0.573427	-0.369358
C42	C	1.121057	-0.073427	0.130642
C43	C	0.585703	-0.506150	-0.326149
C44	C	1.085703	-0.006150	0.173851
C45	C	0.621041	-0.438859	-0.282933
C46	C	1.121041	0.061141	0.217067
C47	C	0.691729	-0.438853	-0.282928
C48	C	1.191729	0.061147	0.217072
C49	C	0.335968	-0.438883	-0.282956
C50	C	0.835968	0.061117	0.217044
C51	C	0.265276	-0.438896	-0.282963
C52	C	0.765276	0.061104	0.217037
C53	C	0.265297	-0.573456	-0.369386
C54	C	0.765297	-0.073456	0.130614
C55	C	0.335984	-0.573450	-0.369380
C56	C	0.835984	-0.073450	0.130620
C57	C	0.371316	-0.506156	-0.326167
C58	C	0.871316	-0.006156	0.173833
C59	C	0.447964	-0.506154	-0.326158
C60	C	0.947964	-0.006154	0.173842
C61	C	0.509056	-0.506157	-0.326154
C62	C	1.009056	-0.006157	0.173846
C63	C	0.978131	-0.779113	-0.326139
C64	C	1.478131	-0.279113	0.173861
C65	C	0.978178	-0.895889	-0.326157
C66	C	1.478178	-0.395889	0.173843
C67	C	1.021453	-0.950662	-0.369488
C68	C	1.521453	-0.450662	0.130512
C69	C	1.021485	-1.060386	-0.369505
C70	C	1.521485	-0.560386	0.130495
C71	C	0.934964	-1.060554	-0.282853
C72	C	1.434964	-0.560554	0.217147
C73	C	0.934930	-0.950832	-0.282840
C74	C	1.434930	-0.450832	0.217160
C75	C	1.064702	-0.895719	-0.412805
C76	C	1.564702	-0.395719	0.087195
C77	C	1.107981	-0.950493	-0.456139
C78	C	1.607981	-0.450493	0.043861
C79	C	1.108013	-1.060217	-0.456156
C80	C	1.608013	-0.560217	0.043844
C81	C	1.064765	-1.115167	-0.412838
C82	C	1.564765	-0.615167	0.087162
C83	C	1.154710	-0.506166	-0.326172
C84	C	1.654710	-0.006166	0.173828
C85	C	1.229942	-0.506175	-0.326181
C86	C	1.729942	-0.006175	0.173819
C87	C	0.978193	-0.506087	-0.502692
C88	C	1.478193	-0.006087	-0.002692
C89	C	0.978205	-0.506062	-0.577924
C90	C	1.478205	-0.006062	-0.077924
C91	C	0.978221	-0.232112	-0.326175
C92	C	1.478221	0.267888	0.173825
C93	C	0.978244	-0.115335	-0.326186
C94	C	1.478244	0.384665	0.173814
C95	C	1.021590	-0.438685	-1.039728
C96	C	1.521590	0.061315	-0.539728
C97	C	1.021579	-0.438717	-0.969040
C98	C	1.521579	0.061283	-0.469040
C99	C	0.978274	-0.505916	-0.933686
C100	C	1.478274	-0.005916	-0.433686
C101	C	0.934981	-0.573095	-0.969025
C102	C	1.434981	-0.073095	-0.469025
C103	C	0.934996	-0.573067	-1.039712
C104	C	1.434996	-0.073067	-0.539712
C105	C	0.934923	-0.573209	-0.683951
C106	C	1.434923	-0.073209	-0.183951
C107	C	0.934910	-0.573229	-0.613259
C108	C	1.434910	-0.073229	-0.113259
C109	C	1.021506	-0.438859	-0.613279
C110	C	1.521506	0.061141	-0.113279
C111	C	1.021521	-0.438831	-0.683966
C112	C	1.521521	0.061169	-0.183966
C113	C	0.978231	-0.506013	-0.719299
C114	C	1.478231	-0.006013	-0.219299
C115	C	0.978244	-0.505979	-0.795947
C116	C	1.478244	-0.005979	-0.295947
C117	C	0.978257	-0.505946	-0.857039
C118	C	1.478257	-0.005946	-0.357039
C119	C	0.978179	-0.506127	-0.150293
C120	C	1.478179	-0.006127	0.349707
C121	C	0.978299	-0.505856	-0.075062
C122	C	1.478299	-0.005856	0.424938
H123	H	0.720526	-0.628213	-0.404532
H124	H	1.220526	-0.128213	0.095468
F125	F	1.067616	-0.367316	-0.721589
F126	F	1.567616	0.132684	-0.221589
H127	H	0.899745	-0.627766	-1.068479
H128	H	1.399745	-0.127766	-0.568479
H129	H	0.592292	-0.628217	-0.404547
H130	H	1.092292	-0.128217	0.095453
H131	H	0.364766	-0.628237	-0.404563
H132	H	0.864766	-0.128237	0.095437
H133	H	0.592251	-0.384077	-0.247755
H134	H	1.092251	0.115923	0.252245
F135	F	0.888873	-0.892535	-0.236720
F136	F	1.388873	-0.392535	0.263280
H137	H	0.236521	-0.628247	-0.404575
H138	H	0.736521	-0.128247	0.095425
F139	F	0.227651	-0.367286	-0.236973
F140	F	0.727651	0.132714	0.263027
H141	H	0.364727	-0.384096	-0.247764
H142	H	0.864727	0.115904	0.252236
F143	F	1.154000	-0.892009	-0.502245
F144	F	1.654000	-0.392009	-0.002245
F145	F	1.067676	-0.367152	-1.077348
F146	F	1.567676	0.132848	-0.577348
H147	H	1.143247	-1.104810	-0.491446
H148	H	1.643247	-0.604810	0.008554
H149	H	1.056757	-0.384159	-0.584503
H150	H	1.556757	0.115841	-0.084503
H151	H	0.720496	-0.384059	-0.247742
H152	H	1.220496	0.115941	0.252258
F153	F	1.067656	-0.367225	-0.931438
F154	F	1.567656	0.132775	-0.431438
H155	H	0.899641	-0.627950	-0.584476
H156	H	1.399641	-0.127950	-0.084476
H157	H	1.064683	-0.806376	-0.412795
H158	H	1.564683	-0.306376	0.087205
F159	F	0.888852	-0.644714	-0.721545
F160	F	1.388852	-0.144714	-0.221545
H161	H	0.899725	-0.627814	-0.940234
H162	H	1.399725	-0.127814	-0.440234
H163	H	1.064786	-1.204512	-0.412863
H164	H	1.564786	-0.704512	0.087137
H165	H	0.899754	-1.105304	-0.247585
H166	H	1.399754	-0.605304	0.252415
