data_functionalizedCrystal
_audit_creation_method	'MofGen! by Chris Wilmer'
_symmetry_space_group_name_H-M	'P1'
_symmetry_Int_Tables_number	1
_symmetry_cell_setting	triclinic
loop_
_symmetry_equiv_pos_as_xyz
  x,y,z
_cell_length_a	13.635800
_cell_length_b	27.923496
_cell_length_c	13.536424
_cell_angle_alpha	90.943462
_cell_angle_beta	41.299216
_cell_angle_gamma	98.963946
loop_
_atom_site_label
_atom_site_type_symbol
_atom_site_fract_x
_atom_site_fract_y
_atom_site_fract_z
V1	V	-2.277195	-0.066920	0.467544
O2	O	-2.276735	0.003427	0.457671
O3	O	-2.240757	-0.132894	0.465283
O4	O	-2.372794	-0.065798	0.671029
O5	O	-2.143784	-0.064134	0.250500
V6	V	-2.505071	-0.058517	0.441470
O7	O	-2.438282	-0.085354	0.524740
O8	O	-2.569083	-0.040083	0.384275
O9	O	-2.429906	0.007457	0.443732
O10	O	-2.564230	-0.128864	0.451344
O11	O	-2.697181	-0.061303	0.658515
O12	O	-2.297869	-0.059639	0.237985
V13	V	-1.777195	-0.066920	0.467544
O14	O	-1.776735	0.003427	0.457671
O15	O	-1.740757	-0.132894	0.465283
O16	O	-1.872794	-0.065798	0.671029
O17	O	-1.643784	-0.064134	0.250500
V18	V	-2.005071	-0.058517	0.441470
O19	O	-1.938282	-0.085354	0.524740
O20	O	-2.069083	-0.040083	0.384275
O21	O	-1.929906	0.007457	0.443732
O22	O	-2.064230	-0.128864	0.451344
O23	O	-2.197181	-0.061303	0.658515
O24	O	-1.797869	-0.059639	0.237985
C25	C	-2.156405	-0.148980	0.458149
C26	C	-2.168055	-0.202914	0.457656
C27	C	-2.335584	-0.539840	0.462267
C28	C	-2.379474	-0.742550	0.460485
O29	O	-2.466040	-0.770863	0.466701
N30	N	-2.289896	-0.765428	0.452754
C31	C	-2.189345	-0.737626	0.445478
O32	O	-2.114172	-0.761737	0.438876
C33	C	-2.145464	-0.534918	0.447269
C34	C	-2.235038	-0.512041	0.454986
C35	C	-2.425151	-0.516964	0.469984
C36	C	-2.414172	-0.466289	0.470421
C37	C	-2.313626	-0.438490	0.463140
C38	C	-2.224059	-0.461367	0.455423
C39	C	-2.044922	-0.507117	0.440004
C40	C	-2.033962	-0.456437	0.440456
C41	C	-2.123536	-0.433561	0.448173
C42	C	-2.112534	-0.382893	0.448579
N43	N	-2.202112	-0.360015	0.456310
C44	C	-2.302658	-0.387814	0.463591
C45	C	-2.212388	-0.844051	0.444534
C46	C	-2.223356	-0.894727	0.444084
C47	C	-2.413486	-0.899648	0.459094
C48	C	-2.402509	-0.848970	0.459534
C49	C	-2.301966	-0.821173	0.452266
C50	C	-2.279593	-0.281392	0.464507
C51	C	-2.268601	-0.230713	0.464937
C52	C	-2.078477	-0.225797	0.449934
C53	C	-2.089463	-0.276472	0.449496
C54	C	-2.190033	-0.304269	0.456788
O55	O	-2.026016	-0.354551	0.442384
O56	O	-2.377842	-0.363695	0.470225
C57	C	-2.346562	-0.590515	0.461830
C58	C	-2.256995	-0.613391	0.454112
C59	C	-2.156449	-0.585593	0.446831
C60	C	-2.267963	-0.664068	0.453661
C61	C	-2.368509	-0.691866	0.460942
C62	C	-2.458087	-0.668988	0.468673
C63	C	-2.447108	-0.618313	0.469110
C64	C	-2.066871	-0.608471	0.439100
C65	C	-2.077856	-0.659146	0.438662
C66	C	-2.178402	-0.686944	0.445943
C67	C	-2.324829	-0.063392	0.720597
C68	C	-2.443552	-0.062911	0.886953
C69	C	-2.345927	0.023541	0.450862
C70	C	-2.323902	0.077474	0.451364
C71	C	-2.177500	-0.062047	0.188410
C72	C	-2.048396	-0.062525	0.022052
C73	C	-1.824829	-0.063392	0.720597
C74	C	-1.943552	-0.062911	0.886953
C75	C	-1.656405	-0.148980	0.458149
C76	C	-1.668055	-0.202914	0.457656
C77	C	-1.845927	0.023541	0.450862
C78	C	-1.823902	0.077474	0.451364
C79	C	-1.677500	-0.062047	0.188410
C80	C	-1.548396	-0.062525	0.022052
C81	C	-1.768601	-0.230713	0.464937
C82	C	-1.779578	-0.281391	0.464497
C83	C	-1.690000	-0.304269	0.456766
C84	C	-1.589449	-0.276467	0.449489
C85	C	-1.578481	-0.225790	0.449940
C86	C	-1.895852	0.105272	0.444088
C87	C	-1.875151	0.155950	0.444535
C88	C	-1.782508	0.178828	0.452269
C89	C	-1.710549	0.151027	0.459542
C90	C	-1.731242	0.100350	0.459084
H91	H	-2.341543	-0.212089	0.471215
O92	O	-1.653654	0.070371	0.466966
H93	H	-1.577370	0.052299	0.364575
O94	O	-2.388046	-0.311369	0.472351
H95	H	-2.448460	-0.286940	0.477772
O96	O	-1.492837	-0.301145	0.441153
H97	H	-1.517359	-0.341053	0.442051
H98	H	-1.996608	-0.203154	0.443999
H99	H	-1.635117	0.169662	0.465838
H100	H	-1.496598	-0.203160	0.444003
H101	H	-1.971293	0.086652	0.437791
H102	H	-1.765670	0.220093	0.452640
O103	O	-1.865229	-0.206042	0.473282
H104	H	-1.939248	-0.188203	0.576389
O105	O	-2.510836	-0.441621	0.478815
H106	H	-2.582614	-0.469473	0.483839
O107	O	-2.543762	-0.593650	0.477478
H108	H	-2.517000	-0.599432	0.378464
O109	O	-2.533590	-0.546942	0.477818
H110	H	-2.594005	-0.522512	0.483244
O111	O	-2.499148	-0.824298	0.467898
H112	H	-2.570915	-0.852148	0.472902
H113	H	-2.495345	-0.922289	0.465007
O114	O	-2.126741	-0.919398	0.435759
H115	H	-2.004571	-0.903355	0.329712
O116	O	-2.103932	-0.814071	0.436684
H117	H	-2.043485	-0.838498	0.431219
H118	H	-1.971971	-0.525733	0.433709
H119	H	-2.004900	-0.677766	0.432368
O120	O	-1.925520	-0.426454	0.432619
H121	H	-1.807561	-0.429866	0.326389
O122	O	-1.992853	-0.301151	0.441168
H123	H	-1.921098	-0.273305	0.436186
O124	O	-2.566534	-0.698975	0.476520
H125	H	-2.559113	-0.738056	0.474925
H126	H	-1.984996	-0.585842	0.433173
H127	H	-1.933756	0.178579	0.438615
H128	H	-1.861455	-0.304020	0.470419
H129	H	-1.698945	-0.345534	0.456400
