data_functionalizedCrystal
_audit_creation_method	'MofGen! by Chris Wilmer'
_symmetry_space_group_name_H-M	'P1'
_symmetry_Int_Tables_number	1
_symmetry_cell_setting	triclinic
loop_
_symmetry_equiv_pos_as_xyz
  x,y,z
_cell_length_a	38.077507
_cell_length_b	38.072239
_cell_length_c	38.067077
_cell_angle_alpha	119.999963
_cell_angle_beta	90.000403
_cell_angle_gamma	59.986515
loop_
_atom_site_label
_atom_site_type_symbol
_atom_site_fract_x
_atom_site_fract_y
_atom_site_fract_z
O1	O	-0.240826	-0.309872	-0.010459
O2	O	-0.189778	-0.237935	0.010394
O3	O	-0.189756	-0.309871	-0.061544
O4	O	-0.240848	-0.237937	0.061479
O5	O	-0.248185	-0.251440	-0.061538
O6	O	-0.248207	-0.179505	0.010400
O7	O	-0.299255	-0.251442	-0.010453
Cu8	Cu	-0.279066	-0.210138	-0.000026
Cu9	Cu	-0.209967	-0.279239	-0.000033
O10	O	-0.299277	-0.179506	0.061485
C11	C	-0.088914	0.005991	0.031595
C12	C	-0.110143	-0.015045	0.031895
C13	C	-0.025303	-0.057619	0.031599
C14	C	-0.046628	-0.078559	0.031899
C15	C	-0.088899	-0.057618	0.031601
C16	C	-0.046643	-0.015047	0.031893
C17	C	-0.127782	0.147867	0.020067
C18	C	-0.147808	0.188051	0.016808
C19	C	-0.189697	0.208208	0.015172
C20	C	-0.211410	0.251771	0.011630
C21	C	-0.211559	0.188182	0.016800
C22	C	-0.191534	0.148006	0.020065
C23	C	-0.149644	0.127849	0.021698
C24	C	-0.191899	-0.107977	0.020089
C25	C	-0.212051	-0.131255	0.016835
C26	C	-0.190312	-0.174782	0.015201
C27	C	-0.212155	-0.200029	0.011667
C28	C	-0.148418	-0.195029	0.016828
C29	C	-0.128269	-0.171747	0.020089
C30	C	-0.150015	-0.128220	0.021717
C31	C	0.128072	-0.107983	0.020081
C32	C	0.171510	-0.131266	0.016820
C33	C	0.193308	-0.174793	0.015188
C34	C	0.240407	-0.200041	0.011650
C35	C	0.171667	-0.195039	0.016814
C36	C	0.128230	-0.171756	0.020074
C37	C	0.106435	-0.128225	0.021711
C38	C	-0.127932	0.084281	0.025235
C39	C	-0.110626	0.049555	0.028055
C40	C	0.021794	-0.082863	0.028063
C41	C	0.059336	-0.102984	0.025245
C42	C	-0.110746	-0.082861	0.028066
C43	C	-0.128162	-0.102981	0.025250
C44	C	-0.360863	-0.386411	-0.025331
C45	C	-0.339616	-0.428988	-0.025633
C46	C	-0.424458	-0.386412	-0.025332
C47	C	-0.403115	-0.428989	-0.025633
C48	C	-0.360842	-0.450029	-0.025338
C49	C	-0.403135	-0.365468	-0.025626
C50	C	-0.361050	-0.317487	-0.020161
C51	C	-0.341039	-0.294065	-0.016900
C52	C	-0.299154	-0.314168	-0.015268
C53	C	-0.277455	-0.288774	-0.011730
C54	C	-0.277272	-0.357697	-0.016900
C55	C	-0.297281	-0.381119	-0.020162
C56	C	-0.339170	-0.361012	-0.021791
C57	C	-0.297084	-0.513624	-0.020183
C58	C	-0.276915	-0.553812	-0.016929
C59	C	-0.298639	-0.573968	-0.015297
C60	C	-0.276774	-0.617542	-0.011767
C61	C	-0.340532	-0.553943	-0.016922
C62	C	-0.360699	-0.513758	-0.020178
C63	C	-0.338975	-0.493598	-0.021806
C64	C	-0.493213	-0.317490	-0.020162
C65	C	-0.536654	-0.294065	-0.016897
C66	C	-0.558430	-0.314169	-0.015264
C67	C	-0.605530	-0.288776	-0.011727
C68	C	-0.536773	-0.357694	-0.016894
C69	C	-0.493334	-0.381119	-0.020158
C70	C	-0.471556	-0.361015	-0.021792
C71	C	-0.088793	-0.432047	-0.406442
C72	C	-0.046515	-0.474624	-0.427685
C73	C	-0.088793	-0.432047	-0.342829
C74	C	-0.046515	-0.474624	-0.364169
C75	C	-0.025178	-0.495664	-0.406448
C76	C	-0.110033	-0.411104	-0.364163
C77	C	-0.191841	-0.317483	-0.445277
C78	C	-0.212006	-0.294062	-0.465297
C79	C	-0.190269	-0.314165	-0.507193
C80	C	-0.212128	-0.288768	-0.528900
C81	C	-0.148367	-0.357693	-0.529069
C82	C	-0.128207	-0.381114	-0.509051
C83	C	-0.149946	-0.361007	-0.467153
C84	C	0.128225	-0.637557	-0.509501
C85	C	0.171667	-0.677744	-0.529668
C86	C	0.193462	-0.697903	-0.507935
C87	C	0.240565	-0.741472	-0.529794
C88	C	0.171808	-0.677874	-0.466033
C89	C	0.128366	-0.637694	-0.445869
C90	C	0.106577	-0.617535	-0.467608
C91	C	-0.191841	-0.317483	-0.189417
C92	C	-0.212004	-0.294058	-0.145971
C93	C	-0.190267	-0.314162	-0.124180
C94	C	-0.212127	-0.288764	-0.077073
C95	C	-0.148367	-0.357686	-0.145835
C96	C	-0.128206	-0.381107	-0.189279
C97	C	-0.149948	-0.361004	-0.211068
C98	C	-0.128081	-0.386405	-0.445448
C99	C	-0.110654	-0.406650	-0.428147
C100	C	-0.110654	-0.406650	-0.295724
C101	C	-0.128081	-0.386405	-0.258176
C102	C	0.021925	-0.539232	-0.428311
C103	C	0.059472	-0.573963	-0.445739
O104	O	0.378932	-0.251452	-0.010462
O105	O	0.255929	-0.179517	0.010383
O106	O	0.327864	-0.251462	-0.061552
O107	O	0.306997	-0.179507	0.061473
O108	O	0.327878	-0.309885	-0.061547
O109	O	0.255943	-0.237941	0.010388
O110	O	0.378946	-0.309875	-0.010457
Cu111	Cu	0.317446	-0.279242	-0.000034
Cu112	Cu	0.317429	-0.210150	-0.000040
O113	O	0.307010	-0.237931	0.061478
O114	O	-0.299134	0.368195	-0.010495
O115	O	-0.248038	0.266033	0.010359
O116	O	-0.248032	0.266017	-0.061579
O117	O	-0.299140	0.368211	0.061444
O118	O	-0.189621	0.266016	-0.061581
O119	O	-0.189627	0.266032	0.010358
O120	O	-0.240723	0.368195	-0.010497
Cu121	Cu	-0.209841	0.317113	-0.000070
Cu122	Cu	-0.278919	0.317114	-0.000068
O123	O	-0.240729	0.368210	0.061442
O124	O	0.379111	-0.857911	-0.558515
O125	O	0.256097	-0.755734	-0.507423
O126	O	0.328008	-0.755733	-0.507420
O127	O	0.307201	-0.857912	-0.558517
O128	O	0.328009	-0.755734	-0.565848
O129	O	0.256099	-0.755736	-0.565850
O130	O	0.379113	-0.857912	-0.616942
Cu131	Cu	0.317606	-0.806824	-0.596731
Cu132	Cu	0.317604	-0.806823	-0.527634
O133	O	0.307202	-0.857914	-0.616944
O134	O	-0.240853	-0.237932	-0.616613
O135	O	-0.189756	-0.309870	-0.565536
O136	O	-0.189780	-0.237933	-0.565528
O137	O	-0.240829	-0.309870	-0.616622
O138	O	-0.248208	-0.179504	-0.507095
O139	O	-0.248184	-0.251441	-0.507104
O140	O	-0.299280	-0.179503	-0.558181
Cu141	Cu	-0.279067	-0.210137	-0.527307
Cu142	Cu	-0.209970	-0.279236	-0.596410
O143	O	-0.299257	-0.251441	-0.558189
C144	C	-0.424569	-0.039354	0.321735
C145	C	-0.403233	-0.060393	0.342972
C146	C	-0.360953	-0.102971	0.258116
C147	C	-0.339714	-0.123913	0.279451
C148	C	-0.360954	-0.102970	0.321730
C149	C	-0.403232	-0.060394	0.279455
C150	C	-0.493321	0.024240	0.321574
C151	C	-0.536766	0.064428	0.341601
C152	C	-0.558555	0.084583	0.383494
C153	C	-0.605660	0.128156	0.405210
C154	C	-0.536904	0.064558	0.405367
C155	C	-0.493461	0.024374	0.385342
C156	C	-0.471672	0.004215	0.343445
C157	C	-0.361118	-0.107966	0.385486
C158	C	-0.341093	-0.131250	0.405645
C159	C	-0.299200	-0.174778	0.383905
C160	C	-0.277486	-0.200026	0.405761
C161	C	-0.277325	-0.195026	0.342005
C162	C	-0.297349	-0.171743	0.321847
C163	C	-0.339245	-0.128215	0.343587
C164	C	-0.361116	-0.107968	0.189363
C165	C	-0.341092	-0.131256	0.145915
C166	C	-0.299199	-0.174784	0.124123
C167	C	-0.277484	-0.200033	0.077015
C168	C	-0.277327	-0.195032	0.145771
C169	C	-0.297349	-0.171748	0.189217
C170	C	-0.339244	-0.128216	0.211011
C171	C	0.292126	-0.102943	0.321725
C172	C	0.291819	-0.060368	0.342962
C173	C	0.292124	-0.102952	0.258108
C174	C	0.291818	-0.060377	0.279441
C175	C	0.292111	-0.039334	0.321720
C176	C	0.291833	-0.123889	0.279447
C177	C	0.297303	-0.171857	0.321565
C178	C	0.300566	-0.195273	0.341592
C179	C	0.302197	-0.175166	0.383484
C180	C	0.305737	-0.200554	0.405200
C181	C	0.300560	-0.131640	0.405357
C182	C	0.297295	-0.108224	0.385331
C183	C	0.295668	-0.128335	0.343436
C184	C	0.297258	0.024262	0.385475
C185	C	0.300507	0.064448	0.405634
C186	C	0.302136	0.084598	0.383894
C187	C	0.305660	0.128168	0.405749
C188	C	0.300513	0.064569	0.341994
C189	C	0.297263	0.024386	0.321837
C190	C	0.295637	0.004233	0.343577
C191	C	0.297300	-0.171876	0.189355
C192	C	0.300567	-0.195305	0.145908
C193	C	0.302196	-0.175207	0.124115
C194	C	0.305735	-0.200605	0.077009
C195	C	0.300562	-0.131685	0.145763
C196	C	0.297296	-0.108256	0.189209
C197	C	0.295665	-0.128354	0.211003
C198	C	-0.360879	0.613633	0.321693
C199	C	-0.403152	0.634578	0.342932
C200	C	-0.360857	0.550008	0.258077
C201	C	-0.403130	0.571050	0.279413
C202	C	-0.424475	0.613632	0.321692
C203	C	-0.339631	0.571051	0.279413
C204	C	-0.297142	0.618630	0.321527
C205	C	-0.276994	0.641916	0.341552
C206	C	-0.298741	0.685449	0.383444
C207	C	-0.276898	0.710700	0.405158
C208	C	-0.340635	0.705699	0.405320
C209	C	-0.360781	0.682413	0.385297
C210	C	-0.339035	0.638881	0.343400
C211	C	-0.493232	0.682561	0.385451
C212	C	-0.536672	0.705983	0.405613
C213	C	-0.558447	0.685877	0.383875
C214	C	-0.605548	0.711273	0.405733
C215	C	-0.536787	0.642344	0.341975
C216	C	-0.493349	0.618921	0.321815
C217	C	-0.471573	0.639032	0.343553
C218	C	-0.297095	0.486406	0.189321
C219	C	-0.276926	0.446216	0.145873
C220	C	-0.298650	0.426058	0.124084
C221	C	-0.276782	0.382479	0.076976
C222	C	-0.340542	0.446086	0.145734
C223	C	-0.360713	0.486275	0.189180
C224	C	-0.338987	0.506434	0.210972
C225	C	0.349126	-0.495434	-0.406447
C226	C	0.349418	-0.474400	-0.427689
C227	C	0.349112	-0.431815	-0.342835
C228	C	0.349404	-0.410878	-0.364174
C229	C	0.349111	-0.431824	-0.406452
C230	C	0.349419	-0.474391	-0.364169
C231	C	0.337645	-0.637316	-0.445282
C232	C	0.334399	-0.677502	-0.465302
C233	C	0.332768	-0.697665	-0.507197
C234	C	0.329240	-0.741231	-0.528904
C235	C	0.334388	-0.677641	-0.529073
C236	C	0.337640	-0.637462	-0.509055
C237	C	0.339268	-0.617300	-0.467157
C238	C	0.337582	-0.381480	-0.509503
C239	C	0.334320	-0.358205	-0.529669
C240	C	0.332674	-0.314675	-0.507936
C241	C	0.329132	-0.289431	-0.529795
C242	C	0.334295	-0.294423	-0.466035
C243	C	0.337564	-0.317701	-0.445872
C244	C	0.339205	-0.361231	-0.467611
C245	C	0.337590	-0.381434	-0.189424
C246	C	0.334325	-0.358146	-0.145979
C247	C	0.332680	-0.314616	-0.124188
C248	C	0.329138	-0.289363	-0.077081
C249	C	0.334298	-0.294373	-0.145843
C250	C	0.337562	-0.317661	-0.189286
C251	C	0.339211	-0.361195	-0.211075
C252	C	0.342791	-0.573729	-0.445453
C253	C	0.345600	-0.539001	-0.428152
C254	C	0.345572	-0.406566	-0.295730
C255	C	0.342750	-0.386441	-0.258182
C256	C	0.345568	-0.406585	-0.428315
C257	C	0.342746	-0.386467	-0.445743
O258	O	0.327863	-0.251371	0.492927
O259	O	0.307005	-0.179452	0.441833
O260	O	0.378937	-0.251385	0.441830
O261	O	0.255932	-0.179438	0.492931
O262	O	0.378949	-0.309818	0.383404
O263	O	0.307018	-0.237885	0.383407
O264	O	0.327876	-0.309804	0.434502
Cu265	Cu	0.317448	-0.279179	0.403620
Cu266	Cu	0.317433	-0.210076	0.472715
O267	O	0.255944	-0.237871	0.434505
C268	C	-0.025261	-0.057715	-0.406483
C269	C	-0.046583	-0.078660	-0.427723
C270	C	-0.088878	0.005909	-0.342868
C271	C	-0.110104	-0.015133	-0.364204
C272	C	-0.088856	-0.057715	-0.406483
C273	C	-0.046605	-0.015133	-0.364204
C274	C	0.128116	-0.108082	-0.445330
C275	C	0.171553	-0.131364	-0.465353
C276	C	0.193355	-0.174900	-0.507250
C277	C	0.240456	-0.200152	-0.528959
C278	C	0.171715	-0.195151	-0.529123
C279	C	0.128279	-0.171866	-0.509101
C280	C	0.106479	-0.128329	-0.467203
C281	C	-0.127652	-0.172290	-0.509526
C282	C	-0.147661	-0.195713	-0.529690
C283	C	-0.189549	-0.175610	-0.507954
C284	C	-0.211245	-0.201006	-0.529810
C285	C	-0.211430	-0.132078	-0.466052
C286	C	-0.191425	-0.108651	-0.445892
C287	C	-0.149531	-0.128764	-0.467634
C288	C	-0.127763	0.147822	-0.189459
C289	C	-0.147792	0.188012	-0.146013
C290	C	-0.189682	0.208174	-0.124219
C291	C	-0.211401	0.251748	-0.077112
C292	C	-0.211540	0.188142	-0.145871
C293	C	-0.191509	0.147952	-0.189315
C294	C	-0.149620	0.127798	-0.211107
C295	C	0.059381	-0.103086	-0.445495
C296	C	0.021838	-0.082962	-0.428191
C297	C	-0.110595	0.049484	-0.295762
C298	C	-0.127905	0.084219	-0.258214
C299	C	-0.110549	-0.083114	-0.428343
C300	C	-0.127840	-0.103361	-0.445768
H301	H	-0.029494	-0.112815	0.032381
H302	H	-0.130005	0.204351	0.015481
H303	H	-0.279539	-0.188237	0.206842
H304	H	-0.358904	-0.114766	0.128293
H305	H	-0.420270	-0.331205	-0.026098
C306	C	-0.407127	-0.295371	-0.021959
N307	N	-0.441834	-0.278711	-0.023312
C308	C	-0.426303	0.680867	0.389862
N309	N	-0.443739	0.715730	0.425209
H310	H	0.110662	-0.188356	-0.526913
H311	H	-0.029384	-0.492227	-0.347037
H312	H	0.332957	-0.258926	-0.128097
C313	C	0.195780	-0.700052	-0.442126
N314	N	0.213837	-0.716755	-0.424119
H315	H	0.110370	-0.072633	-0.411216
C316	C	0.295495	-0.060347	0.409390
N317	N	0.294141	-0.024287	0.427510
C318	C	-0.273217	0.570740	0.275442
N319	N	-0.255196	0.534669	0.240729
C320	C	-0.407201	-0.060083	0.213335
N321	N	-0.441914	-0.024017	0.231390
H322	H	0.189469	-0.230598	-0.563235
C323	C	-0.560578	0.086450	0.317540
N324	N	-0.578515	0.103039	0.299417
H325	H	-0.420236	-0.446595	-0.026110
H326	H	-0.130673	-0.374059	-0.563182
C327	C	-0.230915	0.619640	0.317487
N328	N	-0.196205	0.602861	0.299362
H329	H	-0.475832	0.008075	0.403153
C330	C	-0.426375	-0.036604	0.389902
N331	N	-0.443805	-0.018688	0.425248
C332	C	0.302307	0.086738	0.318080
N333	N	0.303658	0.103433	0.300066
H334	H	0.333073	-0.693796	-0.447485
H335	H	0.295941	0.008080	0.287722
H336	H	0.349904	-0.492016	-0.462429
C337	C	-0.124455	-0.379802	-0.121865
N338	N	-0.106445	-0.396459	-0.103812
H339	H	-0.029525	0.002564	0.032373
C340	C	0.295499	-0.060381	0.213021
N341	N	0.294145	-0.024321	0.230955
C342	C	-0.365158	-0.108974	0.451733
N343	N	-0.383283	-0.092199	0.486447
C344	C	0.339400	-0.429319	-0.213390
N345	N	0.340763	-0.465385	-0.231441
H346	H	-0.554284	-0.258627	-0.015570
C347	C	-0.365111	-0.246186	-0.015104
N348	N	-0.383242	-0.210122	-0.013751
C349	C	-0.081573	-0.194410	-0.533446
N350	N	-0.046867	-0.211068	-0.551461
H351	H	-0.358339	0.741149	0.439434
C352	C	-0.082118	-0.428991	-0.533115
N353	N	-0.047402	-0.465052	-0.551240
C354	C	-0.023432	-0.124951	-0.474652
N355	N	-0.005995	-0.159818	-0.509997
H356	H	-0.304976	-0.158174	0.262317
H357	H	-0.475713	0.583476	0.287701
C358	C	0.291202	-0.170175	0.256307
N359	N	0.290728	-0.205037	0.238877
H360	H	0.110328	-0.072539	0.021413
H361	H	-0.279391	-0.497213	-0.021512
C362	C	-0.560878	0.086733	0.451453
N363	N	-0.578934	0.103432	0.486164
H364	H	-0.209608	-0.072535	0.021417
C365	C	-0.364426	-0.576126	-0.015134
N366	N	-0.382422	-0.592835	-0.013790
H367	H	-0.246160	-0.114768	0.015511
H368	H	-0.243210	-0.230471	0.324306
H369	H	-0.209309	0.131645	-0.206942
H370	H	-0.279464	-0.416559	-0.021489
C371	C	-0.560494	0.753868	0.451701
N372	N	-0.578440	0.789937	0.486414
H373	H	-0.093674	0.131460	0.021398
H374	H	0.338877	-0.301174	-0.206914
H375	H	-0.243164	-0.374063	-0.015569
C376	C	-0.560746	0.620230	0.318063
N377	N	-0.578790	0.603571	0.300051
H378	H	0.301891	-0.115322	0.128015
H379	H	0.333000	-0.374696	-0.563784
H380	H	-0.243214	-0.230479	0.128023
C381	C	-0.215582	0.125980	0.021854
N382	N	-0.233695	0.109389	0.023199
H383	H	0.295976	-0.188233	0.287452
H384	H	0.301898	-0.230710	0.323781
C385	C	-0.273291	-0.194020	0.275755
N386	N	-0.255172	-0.210802	0.241037
C387	C	0.302356	-0.243174	0.122101
N388	N	0.303703	-0.279229	0.104168
C389	C	0.195483	-0.699768	-0.575755
N390	N	0.213421	-0.716354	-0.610467
C391	C	-0.364440	0.423909	0.121762
N392	N	-0.382438	0.407203	0.103706
H393	H	-0.394824	0.502582	0.206807
C394	C	-0.560729	-0.379811	-0.015099
N395	N	-0.578774	-0.396469	-0.013748
C396	C	0.195354	-0.109090	-0.441290
N397	N	0.213282	-0.092313	-0.423163
H398	H	-0.242805	-0.570112	-0.015607
C399	C	0.302356	-0.109525	0.451442
N400	N	0.303709	-0.092866	0.486153
H401	H	-0.029485	0.002475	-0.347076
C402	C	0.302293	0.086475	0.451722
N403	N	0.303638	0.103068	0.486435
C404	C	-0.257634	0.210357	0.015001
N405	N	-0.292339	0.227057	0.013645
H406	H	0.291337	-0.042775	0.262307
C407	C	-0.123746	0.210044	-0.122199
N408	N	-0.105635	0.226640	-0.104263
H409	H	-0.394893	0.698906	0.403106
H410	H	0.332961	-0.258982	-0.448341
H411	H	-0.394808	-0.497455	-0.021502
C412	C	-0.081682	0.125648	-0.213427
N413	N	-0.046974	0.108944	-0.231480
C414	C	-0.215757	-0.295364	-0.213382
N415	N	-0.233769	-0.278705	-0.231433
C416	C	-0.426254	0.547257	0.256273
N417	N	-0.443671	0.529335	0.238845
C418	C	0.350040	-0.364596	-0.341032
N419	N	0.350520	-0.329738	-0.323603
H420	H	0.338885	-0.301210	-0.411757
C421	C	-0.230845	0.424188	0.122062
N422	N	-0.196135	0.407596	0.104124
C423	C	-0.157027	0.008658	-0.341061
N424	N	-0.192368	0.026576	-0.323632
C425	C	-0.123588	-0.243599	-0.575777
N426	N	-0.105455	-0.279668	-0.610490
H427	H	-0.245540	-0.115706	-0.448355
C428	C	0.350073	-0.498174	-0.341025
N429	N	0.350566	-0.516087	-0.323594
H430	H	-0.209244	-0.073206	-0.411777
H431	H	-0.144877	0.002568	0.032379
C432	C	0.195312	-0.108993	0.015032
N433	N	0.213238	-0.092214	0.013688
C434	C	0.332546	-0.380416	-0.122162
N435	N	0.331208	-0.397193	-0.104224
C436	C	0.339440	-0.615144	-0.399196
N437	N	0.340792	-0.598442	-0.364484
C438	C	0.104558	-0.615647	-0.399771
N439	N	0.086629	-0.599033	-0.365044
H440	H	-0.130718	-0.230467	0.015503
H441	H	-0.304909	0.553465	0.262274
C442	C	0.332591	-0.699819	-0.575156
N443	N	0.331235	-0.716522	-0.609866
H444	H	-0.144767	-0.376835	-0.347028
C445	C	0.339417	-0.615437	-0.533117
N446	N	0.340753	-0.598846	-0.551241
H447	H	-0.475702	-0.416558	-0.021484
C448	C	-0.215759	-0.295365	-0.399191
N449	N	-0.233772	-0.278708	-0.364479
C450	C	0.339393	-0.429365	-0.533419
N451	N	0.340757	-0.465432	-0.551430
C452	C	-0.257621	0.210321	-0.121898
N453	N	-0.292329	0.227026	-0.103842
C454	C	-0.292695	-0.452775	-0.026280
N455	N	-0.257355	-0.470690	-0.026766
H456	H	-0.094161	-0.188233	0.021415
H457	H	0.110613	-0.188242	0.021399
H458	H	-0.395231	-0.072522	0.403192
H459	H	-0.475482	-0.301119	-0.021496
C460	C	0.195644	-0.242919	0.015022
N461	N	0.213702	-0.278981	0.013673
H462	H	-0.029387	-0.492232	-0.462424
H463	H	-0.246118	-0.258615	-0.128340
H464	H	-0.246121	-0.258622	-0.447482
H465	H	0.291334	-0.042755	0.377702
H466	H	0.110486	-0.621148	-0.527205
C467	C	-0.082119	-0.428989	-0.213099
N468	N	-0.047406	-0.465055	-0.231041
H469	H	-0.279402	0.502815	0.207063
H470	H	-0.420363	-0.042783	0.262330
H471	H	-0.475581	0.007830	0.287461
H472	H	0.295929	0.007860	0.403182
H473	H	0.295970	-0.188242	0.207099
H474	H	-0.475504	0.698937	0.403154
