data_functionalizedCrystal
_audit_creation_method	'MofGen! by Chris Wilmer'
_symmetry_space_group_name_H-M	'P1'
_symmetry_Int_Tables_number	1
_symmetry_cell_setting	triclinic
loop_
_symmetry_equiv_pos_as_xyz
  x,y,z
_cell_length_a	26.210047
_cell_length_b	19.188930
_cell_length_c	27.731996
_cell_angle_alpha	82.883082
_cell_angle_beta	90.017346
_cell_angle_gamma	90.006159
loop_
_atom_site_label
_atom_site_type_symbol
_atom_site_fract_x
_atom_site_fract_y
_atom_site_fract_z
O1	O	-0.042600	-0.925730	-0.060355
O2	O	0.290734	-0.592397	0.272979
O3	O	0.624067	-0.259063	0.606312
O4	O	-0.042565	-0.722365	-0.068478
O5	O	0.290768	-0.389032	0.264855
O6	O	0.624101	-0.055698	0.598188
O7	O	-0.042573	-0.830383	0.005963
O8	O	0.290761	-0.497049	0.339296
O9	O	0.624094	-0.163716	0.672629
O10	O	-0.042592	-0.817712	-0.134796
O11	O	0.290741	-0.484379	0.198538
O12	O	0.624074	-0.151046	0.531871
O13	O	0.042286	-0.830400	0.005977
O14	O	0.375619	-0.497067	0.339310
O15	O	0.708952	-0.163733	0.672643
O16	O	0.042293	-0.722382	-0.068465
O17	O	0.375626	-0.389049	0.264869
O18	O	0.708959	-0.055716	0.598202
O19	O	0.042259	-0.925748	-0.060341
O20	O	0.375592	-0.592414	0.272993
O21	O	0.708925	-0.259081	0.606326
Cu22	Cu	0.050024	-0.824067	-0.064401
Cu23	Cu	0.383357	-0.490733	0.268932
Cu24	Cu	0.716690	-0.157400	0.602265
Cu25	Cu	-0.050331	-0.824046	-0.064418
Cu26	Cu	0.283003	-0.490713	0.268916
Cu27	Cu	0.616336	-0.157379	0.602249
O28	O	0.042266	-0.817730	-0.134782
O29	O	0.375599	-0.484397	0.198552
O30	O	0.708932	-0.151063	0.531885
C31	C	-0.000132	-0.696364	-0.068208
C32	C	0.333201	-0.363031	0.265125
C33	C	0.666535	-0.029698	0.598458
C34	C	-0.000118	-0.618865	-0.067419
C35	C	0.333215	-0.285532	0.265915
C36	C	0.666548	0.047802	0.599248
N37	N	-0.120915	-0.824032	-0.064426
N38	N	0.212419	-0.490698	0.268908
N39	N	0.545752	-0.157365	0.602241
C40	C	-0.000142	-0.830131	0.023978
C41	C	0.333192	-0.496798	0.357311
C42	C	0.666525	-0.163464	0.690644
C43	C	-0.000136	-0.829347	0.077636
C44	C	0.333197	-0.496014	0.410970
C45	C	0.666530	-0.162680	0.744303
C46	C	-0.473432	-0.871992	-0.031516
C47	C	-0.140099	-0.538658	0.301818
C48	C	0.193235	-0.205325	0.635151
C49	C	-0.687090	-0.872002	-0.031505
C50	C	-0.353757	-0.538669	0.301828
C51	C	-0.020424	-0.205335	0.635161
O52	O	-0.714715	-0.912775	-0.003542
O53	O	-0.381382	-0.579442	0.329791
O54	O	-0.048048	-0.246108	0.663124
N55	N	-0.713809	-0.824082	-0.064399
N56	N	-0.380475	-0.490749	0.268934
N57	N	-0.047142	-0.157415	0.602268
C58	C	-0.687109	-0.776159	-0.097299
C59	C	-0.353775	-0.442826	0.236034
C60	C	-0.020442	-0.109493	0.569367
O61	O	-0.714737	-0.735406	-0.125280
O62	O	-0.381403	-0.402072	0.208053
O63	O	-0.048070	-0.068739	0.541386
C64	C	-0.473451	-0.776153	-0.097312
C65	C	-0.140118	-0.442820	0.236022
C66	C	0.193216	-0.109486	0.569355
C67	C	-0.446736	-0.824071	-0.064413
C68	C	-0.113402	-0.490738	0.268921
C69	C	0.219931	-0.157404	0.602254
C70	C	-0.446716	-0.919906	0.001380
C71	C	-0.113383	-0.586573	0.334714
C72	C	0.219950	-0.253240	0.668047
C73	C	-0.393305	-0.919901	0.001379
C74	C	-0.059972	-0.586567	0.334712
C75	C	0.273362	-0.253234	0.668046
C76	C	-0.366609	-0.871980	-0.031518
C77	C	-0.033276	-0.538647	0.301815
C78	C	0.300058	-0.205314	0.635149
C79	C	-0.393324	-0.824066	-0.064414
C80	C	-0.059991	-0.490732	0.268920
C81	C	0.273342	-0.157399	0.602253
C82	C	-0.446752	-0.728234	-0.130214
C83	C	-0.113419	-0.394901	0.203119
C84	C	0.219914	-0.061567	0.536453
C85	C	-0.393334	-0.728238	-0.130215
C86	C	-0.060001	-0.394905	0.203118
C87	C	0.273332	-0.061571	0.536452
C88	C	-0.366619	-0.776156	-0.097316
C89	C	-0.033286	-0.442823	0.236017
C90	C	0.300048	-0.109489	0.569351
C91	C	-0.313217	-0.776140	-0.097312
C92	C	0.020117	-0.442806	0.236021
C93	C	0.353450	-0.109473	0.569355
N94	N	-0.286499	-0.824059	-0.064418
N95	N	0.046835	-0.490726	0.268915
N96	N	0.380168	-0.157393	0.602248
C97	C	-0.313195	-0.871980	-0.031521
C98	C	0.020139	-0.538646	0.301812
C99	C	0.353472	-0.205313	0.635145
C100	C	-0.799282	-0.776165	-0.097290
C101	C	-0.465949	-0.442832	0.236043
C102	C	-0.132615	-0.109499	0.569377
C103	C	-0.852696	-0.776166	-0.097287
C104	C	-0.519363	-0.442833	0.236047
C105	C	-0.186030	-0.109499	0.569380
C106	C	-0.852674	-0.872010	-0.031493
C107	C	-0.519341	-0.538676	0.301840
C108	C	-0.186008	-0.205343	0.635174
C109	C	-0.799259	-0.872005	-0.031495
C110	C	-0.465926	-0.538672	0.301839
C111	C	-0.132592	-0.205338	0.635172
C112	C	-0.772564	-0.824085	-0.064397
C113	C	-0.439231	-0.490752	0.268937
C114	C	-0.105897	-0.157418	0.602270
C115	C	-0.201027	-0.871964	-0.031526
C116	C	0.132306	-0.538631	0.301807
C117	C	0.465640	-0.205297	0.635141
C118	C	-0.147611	-0.871952	-0.031529
C119	C	0.185723	-0.538619	0.301805
C120	C	0.519056	-0.205286	0.635138
C121	C	-0.147637	-0.776111	-0.097324
C122	C	0.185696	-0.442778	0.236010
C123	C	0.519029	-0.109445	0.569343
C124	C	-0.201049	-0.776120	-0.097320
C125	C	0.132284	-0.442787	0.236014
C126	C	0.465618	-0.109454	0.569347
C127	C	-0.227742	-0.824053	-0.064419
C128	C	0.105591	-0.490719	0.268914
C129	C	0.438924	-0.157386	0.602248
O130	O	-0.285559	-0.735393	-0.125264
O131	O	0.047774	-0.402060	0.208069
O132	O	0.381107	-0.068726	0.541403
O133	O	-0.285558	-0.912738	-0.003552
O134	O	0.047776	-0.579404	0.329782
O135	O	0.381109	-0.246071	0.663115
C136	C	-0.526843	-0.871997	-0.031515
C137	C	-0.193510	-0.538664	0.301819
C138	C	0.139823	-0.205330	0.635152
C139	C	-0.553559	-0.824082	-0.064410
C140	C	-0.220225	-0.490749	0.268923
C141	C	0.113108	-0.157416	0.602256
C142	C	-0.526863	-0.776162	-0.097307
C143	C	-0.193529	-0.442829	0.236026
C144	C	0.139804	-0.109495	0.569359
C145	C	-0.606973	-0.824083	-0.064407
C146	C	-0.273640	-0.490750	0.268926
C147	C	0.059694	-0.157416	0.602260
C148	C	-0.633669	-0.872003	-0.031510
C149	C	-0.300336	-0.538670	0.301823
C150	C	0.032998	-0.205337	0.635157
C151	C	-0.606951	-0.919923	0.001384
C152	C	-0.273618	-0.586590	0.334717
C153	C	0.059716	-0.253256	0.668050
C154	C	-0.553539	-0.919918	0.001382
C155	C	-0.220206	-0.586584	0.334716
C156	C	0.113127	-0.253251	0.668049
C157	C	-0.553581	-0.728242	-0.130201
C158	C	-0.220247	-0.394909	0.203132
C159	C	0.113086	-0.061576	0.536466
C160	C	-0.606992	-0.728251	-0.130197
C161	C	-0.273659	-0.394918	0.203137
C162	C	0.059674	-0.061584	0.536470
C163	C	-0.633688	-0.776172	-0.097300
C164	C	-0.300355	-0.442838	0.236034
C165	C	0.032978	-0.109505	0.569367
N166	N	0.120608	-0.824086	-0.064390
N167	N	0.453941	-0.490753	0.268944
N168	N	0.787274	-0.157420	0.602277
C169	C	-0.000176	-0.951748	-0.060611
C170	C	0.333157	-0.618415	0.272723
C171	C	0.666490	-0.285082	0.606056
C172	C	-0.000193	-1.029247	-0.061400
C173	C	0.333140	-0.695914	0.271933
C174	C	0.666474	-0.362581	0.605266
C175	C	-0.000133	-0.573651	-0.111098
C176	C	0.333201	-0.240317	0.222235
C177	C	0.666534	0.093016	0.555568
C178	C	-0.000138	-0.500832	-0.110356
C179	C	0.333195	-0.167499	0.222977
C180	C	0.666529	0.165835	0.556310
C181	C	-0.000140	-0.473231	-0.065932
C182	C	0.333194	-0.139897	0.267401
C183	C	0.666527	0.193436	0.600734
C184	C	-0.000123	-0.518455	-0.022247
C185	C	0.333211	-0.185122	0.311086
C186	C	0.666544	0.148212	0.644420
C187	C	-0.000112	-0.591272	-0.022990
C188	C	0.333221	-0.257939	0.310343
C189	C	0.666555	0.075395	0.643677
N190	N	-0.029036	-0.365470	-0.031980
N191	N	0.304297	-0.032137	0.301353
N192	N	0.637630	0.301196	0.634686
N193	N	-0.029047	-0.296296	-0.031277
N194	N	0.304286	0.037037	0.302056
N195	N	0.637619	0.370370	0.635389
C196	C	-0.000171	-0.253837	-0.063690
C197	C	0.333163	0.079496	0.269643
C198	C	0.666496	0.412830	0.602976
N199	N	0.028712	-0.283163	-0.096841
N200	N	0.362045	0.050170	0.236493
N201	N	0.695378	0.383503	0.569826
N202	N	0.028720	-0.352343	-0.097545
N203	N	0.362054	-0.019010	0.235788
N204	N	0.695387	0.314323	0.569122
C205	C	-0.000151	-0.394274	-0.065122
C206	C	0.333182	-0.060940	0.268212
C207	C	0.666516	0.272393	0.601545
C208	C	-0.000190	-0.129663	-0.106569
C209	C	0.333143	0.203670	0.226765
C210	C	0.666477	0.537003	0.560098
C211	C	-0.000192	-0.056844	-0.105825
C212	C	0.333141	0.276490	0.227508
C213	C	0.666474	0.609823	0.560842
C214	C	-0.000182	-0.074468	-0.017714
C215	C	0.333151	0.258865	0.315619
C216	C	0.666485	0.592198	0.648952
C217	C	-0.000174	-0.147286	-0.018459
C218	C	0.333159	0.186047	0.314874
C219	C	0.666492	0.519380	0.648207
C220	C	-0.000181	-0.174879	-0.062888
C221	C	0.333152	0.158454	0.270446
C222	C	0.666486	0.491787	0.603779
C223	C	-0.000166	-0.817982	-0.152797
C224	C	0.333167	-0.484648	0.180536
C225	C	0.666500	-0.151315	0.513870
C226	C	-0.000175	-0.818765	-0.206456
C227	C	0.333158	-0.485432	0.126878
C228	C	0.666492	-0.152099	0.460211
C229	C	-0.046417	-0.824405	0.410360
C230	C	0.286917	-0.491072	0.743694
C231	C	0.620250	-0.157739	1.077027
C232	C	-0.046425	-0.821428	0.612028
C233	C	0.286908	-0.488095	0.945361
C234	C	0.620242	-0.154762	1.278694
O235	O	-0.085764	-0.821005	0.638093
O236	O	0.247569	-0.487672	0.971426
O237	O	0.580902	-0.154339	1.304760
N238	N	-0.000169	-0.821068	0.637253
N239	N	0.333164	-0.487735	0.970587
N240	N	0.666497	-0.154401	1.303920
C241	C	0.046092	-0.821448	0.612059
C242	C	0.379425	-0.488114	0.945392
C243	C	0.712759	-0.154781	1.278726
O244	O	0.085435	-0.821066	0.638142
O245	O	0.418768	-0.487732	0.971475
O246	O	0.752102	-0.154399	1.304808
C247	C	0.046100	-0.824420	0.410392
C248	C	0.379433	-0.491086	0.743725
C249	C	0.712766	-0.157753	1.077059
C250	C	-0.000159	-0.824787	0.385169
C251	C	0.333174	-0.491453	0.718503
C252	C	0.666508	-0.158120	1.051836
C253	C	-0.092672	-0.824772	0.385138
C254	C	0.240662	-0.491438	0.718471
C255	C	0.573995	-0.158105	1.051804
C256	C	-0.092669	-0.825520	0.334724
C257	C	0.240664	-0.492186	0.668057
C258	C	0.573998	-0.158853	1.001391
C259	C	-0.046411	-0.825901	0.309533
C260	C	0.286922	-0.492568	0.642867
C261	C	0.620255	-0.159235	0.976200
C262	C	-0.000156	-0.825535	0.334756
C263	C	0.333177	-0.492202	0.668089
C264	C	0.666510	-0.158868	1.001423
C265	C	0.092360	-0.824794	0.385198
C266	C	0.425694	-0.491461	0.718531
C267	C	0.759027	-0.158127	1.051865
C268	C	0.092358	-0.825535	0.334778
C269	C	0.425692	-0.492202	0.668111
C270	C	0.759025	-0.158869	1.001445
C271	C	0.046099	-0.825903	0.309555
C272	C	0.379433	-0.492569	0.642889
C273	C	0.712766	-0.159236	0.976222
C274	C	0.046104	-0.826664	0.259152
C275	C	0.379437	-0.493331	0.592485
C276	C	0.712770	-0.159998	0.925818
N277	N	-0.000152	-0.827025	0.233926
N278	N	0.333181	-0.493691	0.567259
N279	N	0.666515	-0.160358	0.900593
C280	C	-0.046410	-0.826643	0.259117
C281	C	0.286924	-0.493310	0.592450
C282	C	0.620257	-0.159976	0.925783
C283	C	0.046084	-0.819889	0.717937
C284	C	0.379418	-0.486555	1.051270
C285	C	0.712751	-0.153222	1.384604
C286	C	0.046083	-0.819147	0.768354
C287	C	0.379416	-0.485814	1.101687
C288	C	0.712749	-0.152480	1.435020
C289	C	-0.046435	-0.819126	0.768319
C290	C	0.286899	-0.485793	1.101652
C291	C	0.620232	-0.152460	1.434985
C292	C	-0.046432	-0.819873	0.717902
C293	C	0.286901	-0.486540	1.051235
C294	C	0.620234	-0.153206	1.384568
C295	C	-0.000171	-0.820249	0.692711
C296	C	0.333162	-0.486916	1.026045
C297	C	0.666495	-0.153582	1.359378
C298	C	-0.046401	-0.828215	0.153245
C299	C	0.286933	-0.494881	0.486578
C300	C	0.620266	-0.161548	0.819912
C301	C	-0.046394	-0.828966	0.102827
C302	C	0.286939	-0.495632	0.436161
C303	C	0.620273	-0.162299	0.769494
C304	C	0.046123	-0.828982	0.102866
C305	C	0.379456	-0.495649	0.436200
C306	C	0.712789	-0.162316	0.769533
C307	C	0.046116	-0.828235	0.153280
C308	C	0.379450	-0.494902	0.486613
C309	C	0.712783	-0.161568	0.819946
C310	C	-0.000149	-0.827849	0.178468
C311	C	0.333184	-0.494516	0.511801
C312	C	0.666517	-0.161182	0.845134
O313	O	0.085422	-0.827080	0.233054
O314	O	0.418756	-0.493747	0.566388
O315	O	0.752089	-0.160413	0.899721
O316	O	-0.085747	-0.827009	0.233024
O317	O	0.247586	-0.493676	0.566357
O318	O	0.580920	-0.160343	0.899690
C319	C	-0.046419	-0.823657	0.460774
C320	C	0.286914	-0.490324	0.794107
C321	C	0.620247	-0.156991	1.127440
C322	C	-0.000164	-0.823291	0.485996
C323	C	0.333169	-0.489957	0.819330
C324	C	0.666502	-0.156624	1.152663
C325	C	0.046093	-0.823672	0.460806
C326	C	0.379427	-0.490339	0.794139
C327	C	0.712760	-0.157006	1.127472
C328	C	-0.000166	-0.822549	0.536413
C329	C	0.333167	-0.489216	0.869746
C330	C	0.666501	-0.155882	1.203080
C331	C	-0.046424	-0.822167	0.561604
C332	C	0.286910	-0.488834	0.894937
C333	C	0.620243	-0.155501	1.228270
C334	C	-0.092679	-0.822528	0.536378
C335	C	0.240654	-0.489194	0.869711
C336	C	0.573987	-0.155861	1.203045
C337	C	-0.092677	-0.823276	0.485965
C338	C	0.240657	-0.489942	0.819298
C339	C	0.573990	-0.156609	1.152631
C340	C	0.092349	-0.823312	0.486031
C341	C	0.425682	-0.489979	0.819365
C342	C	0.759016	-0.156646	1.152698
C343	C	0.092343	-0.822565	0.536445
C344	C	0.425676	-0.489232	0.869778
C345	C	0.759009	-0.155898	1.203112
C346	C	0.046085	-0.822183	0.561636
C347	C	0.379419	-0.488850	0.894969
C348	C	0.712752	-0.155517	1.228302
H349	H	-0.125861	-0.910973	-0.004737
H350	H	0.207473	-0.577640	0.328596
H351	H	0.540806	-0.244306	0.661930
C352	C	-0.261119	-0.680977	-0.107851
C353	C	0.072215	-0.347643	0.225482
C354	C	0.405548	-0.014310	0.558816
C355	C	-0.230415	-0.723441	-0.133478
C356	C	0.102918	-0.390108	0.199855
C357	C	0.436251	-0.056774	0.533188
H358	H	-0.279242	-0.648454	-0.130177
H359	H	0.054091	-0.315121	0.203156
H360	H	0.387424	0.018212	0.536490
H361	H	-0.284664	-0.709517	-0.088267
H362	H	0.048670	-0.376184	0.245066
H363	H	0.382003	-0.042851	0.578400
H364	H	-0.240270	-0.656150	-0.087734
H365	H	0.093063	-0.322816	0.245599
H366	H	0.426396	0.010517	0.578933
H367	H	-0.251264	-0.748272	-0.153593
H368	H	0.082069	-0.414939	0.179741
H369	H	0.415402	-0.081605	0.513074
H370	H	-0.206868	-0.694897	-0.153071
H371	H	0.126466	-0.361563	0.180263
H372	H	0.459799	-0.028230	0.513596
H373	H	-0.125893	-0.737093	-0.124107
H374	H	0.207440	-0.403760	0.209227
H375	H	0.540774	-0.070426	0.542560
H376	H	-0.468448	-0.958932	0.028169
H377	H	-0.135114	-0.625599	0.361502
H378	H	0.198219	-0.292265	0.694836
C379	C	-0.398665	-1.014648	0.066402
C380	C	-0.065332	-0.681315	0.399735
C381	C	0.268001	-0.347982	0.733068
C382	C	-0.363944	-0.972587	0.037535
C383	C	-0.030611	-0.639253	0.370868
C384	C	0.302723	-0.305920	0.704201
H385	H	-0.380540	-1.047181	0.088720
H386	H	-0.047207	-0.713848	0.422053
H387	H	0.286126	-0.380514	0.755386
H388	H	-0.419485	-0.985836	0.083786
H389	H	-0.086152	-0.652502	0.417119
H390	H	0.247181	-0.319169	0.750453
H391	H	-0.419512	-1.039463	0.046276
H392	H	-0.086178	-0.706130	0.379609
H393	H	0.247155	-0.372796	0.712943
H394	H	-0.343100	-0.947768	0.057660
H395	H	-0.009767	-0.614434	0.390994
H396	H	0.323567	-0.281101	0.724327
H397	H	-0.343115	-1.001403	0.020149
H398	H	-0.009782	-0.668070	0.353483
H399	H	0.323552	-0.334736	0.686816
H400	H	0.083758	-0.820198	0.697432
H401	H	0.417091	-0.486865	1.030765
H402	H	0.750424	-0.153531	1.364099
H403	H	0.130029	-0.824496	0.405726
H404	H	0.463363	-0.491163	0.739059
H405	H	0.796696	-0.157829	1.072392
C406	C	0.043447	-0.067053	0.057619
C407	C	0.376780	0.266281	0.390953
C408	C	0.710114	0.599614	0.724286
C409	C	-0.000182	-0.044135	0.031118
C410	C	0.333152	0.289198	0.364451
C411	C	0.666485	0.622531	0.697784
H412	H	0.043449	-0.048319	0.087765
H413	H	0.376782	0.285014	0.421098
H414	H	0.710116	0.618347	0.754432
H415	H	0.043450	-0.116885	0.063428
H416	H	0.376783	0.216448	0.396762
H417	H	0.710116	0.549781	0.730095
H418	H	0.073031	-0.051484	0.039639
H419	H	0.406365	0.281849	0.372973
H420	H	0.739698	0.615182	0.706306
H421	H	-0.029766	-0.059708	0.049096
H422	H	0.303567	0.273625	0.382430
H423	H	0.636900	0.606958	0.715763
H424	H	-0.000189	0.005708	0.025310
H425	H	0.333144	0.339041	0.358643
H426	H	0.666477	0.672374	0.691977
C427	C	0.124974	-0.769159	0.081795
C428	C	0.458307	-0.435826	0.415129
C429	C	0.791640	-0.102493	0.748462
C430	C	0.096966	-0.829385	0.075165
C431	C	0.430299	-0.496052	0.408498
C432	C	0.763632	-0.162719	0.741832
H433	H	0.156362	-0.769404	0.064693
H434	H	0.489696	-0.436071	0.398026
H435	H	0.823029	-0.102737	0.731359
H436	H	0.105962	-0.728561	0.069759
H437	H	0.439296	-0.395228	0.403092
H438	H	0.772629	-0.061894	0.736426
H439	H	0.131598	-0.768676	0.115432
H440	H	0.464931	-0.435343	0.448765
H441	H	0.798265	-0.102009	0.782098
H442	H	0.090338	-0.829866	0.041529
H443	H	0.423671	-0.496533	0.374862
H444	H	0.757005	-0.163199	0.708195
H445	H	0.115981	-0.869994	0.087199
H446	H	0.449315	-0.536661	0.420532
H447	H	0.782648	-0.203328	0.753866
H448	H	-0.531792	-0.958937	0.028172
H449	H	-0.198458	-0.625604	0.361505
H450	H	0.134875	-0.292270	0.694838
C451	C	-0.043782	-0.239415	0.031808
C452	C	0.289551	0.093918	0.365142
C453	C	0.622884	0.427251	0.698475
C454	C	-0.000167	-0.196992	0.029555
C455	C	0.333167	0.136341	0.362888
C456	C	0.666500	0.469674	0.696222
H457	H	-0.043774	-0.270104	0.061451
H458	H	0.289559	0.063229	0.394784
H459	H	0.622892	0.396563	0.728118
H460	H	-0.073372	-0.210652	0.030263
H461	H	0.259961	0.122681	0.363597
H462	H	0.593294	0.456014	0.696930
H463	H	-0.043775	-0.266270	0.005242
H464	H	0.289558	0.067064	0.338575
H465	H	0.622892	0.400397	0.671909
H466	H	-0.000176	-0.170134	0.056120
H467	H	0.333157	0.163199	0.389453
H468	H	0.666490	0.496533	0.722786
H469	H	0.029431	-0.225759	0.031105
H470	H	0.362764	0.107575	0.364438
H471	H	0.696098	0.440908	0.697772
H472	H	-0.628695	-0.958940	0.028171
H473	H	-0.295362	-0.625606	0.361505
H474	H	0.037971	-0.292273	0.694838
C475	C	-0.601635	-0.633520	-0.195238
C476	C	-0.268302	-0.300187	0.138095
C477	C	0.065031	0.033147	0.471428
C478	C	-0.636354	-0.675575	-0.166364
C479	C	-0.303021	-0.342242	0.166969
C480	C	0.030313	-0.008909	0.500303
H481	H	-0.619762	-0.601008	-0.217569
H482	H	-0.286429	-0.267675	0.115764
H483	H	0.046905	0.065658	0.449097
H484	H	-0.580798	-0.608687	-0.175122
H485	H	-0.247465	-0.275354	0.158211
H486	H	0.085868	0.057979	0.491544
H487	H	-0.580805	-0.662345	-0.212612
H488	H	-0.247472	-0.329011	0.120721
H489	H	0.085861	0.004322	0.454055
H490	H	-0.657182	-0.646751	-0.148987
H491	H	-0.323848	-0.313418	0.184346
H492	H	0.009485	0.019916	0.517679
H493	H	-0.657200	-0.700410	-0.186482
H494	H	-0.323866	-0.367077	0.146851
H495	H	0.009467	-0.033743	0.480184
C496	C	-0.184115	-0.825413	0.339768
C497	C	0.149218	-0.492080	0.673102
C498	C	0.482551	-0.158746	1.006435
C499	C	-0.143519	-0.825911	0.307003
C500	C	0.189815	-0.492578	0.640336
C501	C	0.523148	-0.159244	0.973669
H502	H	-0.215509	-0.825648	0.322655
H503	H	0.117824	-0.492314	0.655988
H504	H	0.451158	-0.158981	0.989322
H505	H	-0.182198	-0.865854	0.363205
H506	H	0.151135	-0.532520	0.696538
H507	H	0.484468	-0.199187	1.029871
H508	H	-0.182174	-0.784391	0.355661
H509	H	0.151159	-0.451058	0.688994
H510	H	0.484492	-0.117724	1.022327
H511	H	-0.145458	-0.866936	0.291113
H512	H	0.187876	-0.533602	0.624446
H513	H	0.521209	-0.200269	0.957780
H514	H	-0.145437	-0.785466	0.283558
H515	H	0.187897	-0.452133	0.616891
H516	H	0.521230	-0.118800	0.950224
C517	C	-0.171518	-0.762221	0.546315
C518	C	0.161815	-0.428888	0.879648
C519	C	0.495148	-0.095555	1.212981
C520	C	-0.143525	-0.822095	0.564076
C521	C	0.189808	-0.488762	0.897409
C522	C	0.523141	-0.155428	1.230742
H523	H	-0.202907	-0.761952	0.563415
H524	H	0.130426	-0.428618	0.896748
H525	H	0.463760	-0.095285	1.230082
H526	H	-0.152497	-0.721384	0.550803
H527	H	0.180837	-0.388051	0.884137
H528	H	0.514170	-0.054718	1.217470
H529	H	-0.178143	-0.762730	0.512681
H530	H	0.155190	-0.429396	0.846014
H531	H	0.488524	-0.096063	1.179347
H532	H	-0.136898	-0.821584	0.597709
H533	H	0.196436	-0.488251	0.931042
H534	H	0.529769	-0.154917	1.264376
H535	H	-0.162551	-0.862942	0.559591
H536	H	0.170782	-0.529609	0.892925
H537	H	0.504116	-0.196276	1.226258
H538	H	-0.130346	-0.823574	0.465433
H539	H	0.202988	-0.490241	0.798766
H540	H	0.536321	-0.156908	1.132099
H541	H	-0.084065	-0.829266	0.082293
H542	H	0.249268	-0.495933	0.415627
H543	H	0.582602	-0.162600	0.748960
C544	C	0.043504	-0.511031	0.053087
C545	C	0.376838	-0.177698	0.386420
C546	C	0.710171	0.155635	0.719753
C547	C	-0.000125	-0.488118	0.026585
C548	C	0.333208	-0.154785	0.359918
C549	C	0.666541	0.178549	0.693252
H550	H	0.043505	-0.492299	0.083233
H551	H	0.376838	-0.158966	0.416566
H552	H	0.710171	0.174367	0.749900
H553	H	0.043510	-0.560864	0.058895
H554	H	0.376843	-0.227531	0.392228
H555	H	0.710177	0.105803	0.725561
H556	H	0.073088	-0.495459	0.035107
H557	H	0.406421	-0.162126	0.368440
H558	H	0.739755	0.171207	0.701774
H559	H	-0.029709	-0.503695	0.044563
H560	H	0.303624	-0.170362	0.377896
H561	H	0.636958	0.162972	0.711230
H562	H	-0.000136	-0.438275	0.020778
H563	H	0.333198	-0.104942	0.354111
H564	H	0.666531	0.228392	0.687445
H565	H	-0.777550	-0.737141	-0.124083
H566	H	-0.444217	-0.403808	0.209250
H567	H	-0.110884	-0.070475	0.542583
H568	H	-0.531849	-0.689220	-0.156990
H569	H	-0.198516	-0.355887	0.176343
H570	H	0.134818	-0.022554	0.509676
C571	C	0.099754	-0.878355	0.830634
C572	C	0.433087	-0.545021	1.163967
C573	C	0.766420	-0.211688	1.497300
C574	C	0.096930	-0.818742	0.796078
C575	C	0.430263	-0.485409	1.129411
C576	C	0.763596	-0.152076	1.462745
H577	H	0.131147	-0.878099	0.847746
H578	H	0.464480	-0.544766	1.181079
H579	H	0.797814	-0.211433	1.514412
H580	H	0.072208	-0.878020	0.852851
H581	H	0.405541	-0.544687	1.186184
H582	H	0.738875	-0.211353	1.519518
H583	H	0.097830	-0.919374	0.814737
H584	H	0.431163	-0.586040	1.148070
H585	H	0.764497	-0.252707	1.481403
H586	H	0.098850	-0.777723	0.811975
H587	H	0.432183	-0.444390	1.145309
H588	H	0.765516	-0.111056	1.478642
H589	H	0.124483	-0.819071	0.773857
H590	H	0.457816	-0.485737	1.107191
H591	H	0.791150	-0.152404	1.440524
C592	C	0.099797	-0.767379	0.204439
C593	C	0.433130	-0.434046	0.537772
C594	C	0.766464	-0.100712	0.871106
C595	C	0.096961	-0.827849	0.181014
C596	C	0.430294	-0.494515	0.514348
C597	C	0.763627	-0.161182	0.847681
H598	H	0.131185	-0.767143	0.221562
H599	H	0.464518	-0.433809	0.554895
H600	H	0.797851	-0.100476	0.888229
H601	H	0.097891	-0.726946	0.180995
H602	H	0.431224	-0.393613	0.514328
H603	H	0.764558	-0.060279	0.847662
H604	H	0.072242	-0.767046	0.226654
H605	H	0.405576	-0.433712	0.559987
H606	H	0.738909	-0.100379	0.893320
H607	H	0.124513	-0.828179	0.158797
H608	H	0.457847	-0.494846	0.492131
H609	H	0.791180	-0.161513	0.825464
H610	H	0.098872	-0.868292	0.204461
H611	H	0.432205	-0.534959	0.537795
H612	H	0.765538	-0.201625	0.871128
C613	C	-0.000142	-0.548910	-0.198116
C614	C	0.333191	-0.215576	0.135217
C615	C	0.666525	0.117757	0.468550
C616	C	-0.000131	-0.603980	-0.159934
C617	C	0.333202	-0.270647	0.173400
C618	C	0.666535	0.062687	0.506733
H619	H	-0.000137	-0.567637	-0.228265
H620	H	0.333196	-0.234303	0.105069
H621	H	0.666530	0.099030	0.438402
H622	H	-0.029737	-0.520891	-0.195999
H623	H	0.303596	-0.187557	0.137334
H624	H	0.636929	0.145776	0.470667
H625	H	0.029447	-0.520861	-0.195984
H626	H	0.362780	-0.187527	0.137349
H627	H	0.696113	0.145806	0.470683
H628	H	-0.029722	-0.632026	-0.162064
H629	H	0.303611	-0.298693	0.171269
H630	H	0.636944	0.034640	0.504602
H631	H	0.029467	-0.632011	-0.162052
H632	H	0.362800	-0.298678	0.171282
H633	H	0.696134	0.034656	0.504615
H634	H	-0.084075	-0.827897	0.173747
H635	H	0.249259	-0.494563	0.507080
H636	H	0.582592	-0.161230	0.840413
H637	H	-0.000148	-0.464011	-0.145927
H638	H	0.333185	-0.130678	0.187407
H639	H	0.666518	0.202655	0.520740
H640	H	-0.130342	-0.824458	0.405642
H641	H	0.202991	-0.491125	0.738976
H642	H	0.536324	-0.157792	1.072309
H643	H	-0.084100	-0.820171	0.697369
H644	H	0.249233	-0.486838	1.030702
H645	H	0.582566	-0.153504	1.364035
H646	H	-0.000101	-0.628087	0.012580
H647	H	0.333233	-0.294753	0.345914
H648	H	0.666566	0.038580	0.679247
C649	C	-0.000195	-0.104931	-0.193587
C650	C	0.333138	0.228402	0.139746
C651	C	0.666471	0.561735	0.473080
C652	C	-0.000189	-0.160000	-0.155403
C653	C	0.333144	0.173334	0.177930
C654	C	0.666477	0.506667	0.511264
H655	H	-0.000191	-0.123660	-0.223734
H656	H	0.333142	0.209674	0.109599
H657	H	0.666475	0.543007	0.442932
H658	H	-0.029788	-0.076907	-0.191471
H659	H	0.303545	0.256426	0.141862
H660	H	0.636878	0.589759	0.475195
H661	H	0.029396	-0.076886	-0.191454
H662	H	0.362729	0.256447	0.141879
H663	H	0.696062	0.589780	0.475212
H664	H	-0.029782	-0.188042	-0.157533
H665	H	0.303551	0.145292	0.175800
H666	H	0.636884	0.478625	0.509133
H667	H	0.029407	-0.188035	-0.157520
H668	H	0.362740	0.145298	0.175814
H669	H	0.696074	0.478631	0.509147
C670	C	-0.043836	0.035253	-0.156106
C671	C	0.289498	0.368586	0.177227
C672	C	0.622831	0.701919	0.510561
C673	C	-0.000209	-0.007140	-0.153841
C674	C	0.333124	0.326194	0.179492
C675	C	0.666458	0.659527	0.512825
H676	H	-0.043844	0.065940	-0.185749
H677	H	0.289489	0.399274	0.147585
H678	H	0.622823	0.732607	0.480918
H679	H	-0.073418	0.006469	-0.154568
H680	H	0.259915	0.339802	0.178766
H681	H	0.593248	0.673135	0.512099
H682	H	-0.043827	0.062108	-0.129540
H683	H	0.289506	0.395441	0.203793
H684	H	0.622840	0.728774	0.537127
H685	H	-0.000220	-0.033999	-0.180406
H686	H	0.333113	0.299334	0.152928
H687	H	0.666447	0.632668	0.486261
H688	H	0.029381	0.021648	-0.155385
H689	H	0.362714	0.354981	0.177949
H690	H	0.696048	0.688314	0.511282
C691	C	0.146037	-0.886418	0.283668
C692	C	0.479370	-0.553085	0.617001
C693	C	0.812703	-0.219751	0.950334
C694	C	0.143212	-0.825948	0.307091
C695	C	0.476545	-0.492615	0.640424
C696	C	0.809879	-0.159281	0.973757
H697	H	0.177430	-0.886670	0.266574
H698	H	0.510764	-0.553336	0.599908
H699	H	0.844097	-0.220003	0.933241
H700	H	0.144108	-0.926851	0.307110
H701	H	0.477442	-0.593517	0.640443
H702	H	0.810775	-0.260184	0.973776
H703	H	0.118490	-0.886737	0.261427
H704	H	0.451823	-0.553404	0.594761
H705	H	0.785156	-0.220070	0.928094
H706	H	0.170757	-0.825632	0.329334
H707	H	0.504090	-0.492298	0.662667
H708	H	0.837424	-0.158965	0.996000
H709	H	0.145145	-0.785505	0.283646
H710	H	0.478478	-0.452172	0.616979
H711	H	0.811812	-0.118838	0.950313
C712	C	0.183794	-0.822647	0.531402
C713	C	0.517128	-0.489314	0.864735
C714	C	0.850461	-0.155981	1.198068
C715	C	0.143196	-0.822159	0.564166
C716	C	0.476529	-0.488826	0.897499
C717	C	0.809862	-0.155492	1.230833
H718	H	0.215187	-0.822388	0.548514
H719	H	0.548520	-0.489054	0.881848
H720	H	0.881853	-0.155721	1.215181
H721	H	0.181866	-0.863670	0.515517
H722	H	0.515199	-0.530337	0.848850
H723	H	0.848533	-0.197003	1.182183
H724	H	0.181867	-0.782207	0.507958
H725	H	0.515200	-0.448874	0.841291
H726	H	0.848534	-0.115541	1.174624
H727	H	0.145121	-0.862602	0.587608
H728	H	0.478454	-0.529269	0.920941
H729	H	0.811788	-0.195935	1.254275
H730	H	0.145125	-0.781132	0.580059
H731	H	0.478458	-0.447799	0.913392
H732	H	0.811792	-0.114466	1.246725
H733	H	-0.084099	-0.818816	0.788838
H734	H	0.249234	-0.485483	1.122171
H735	H	0.582567	-0.152150	1.455504
C736	C	0.146013	-0.884211	0.434925
C737	C	0.479347	-0.550878	0.768258
C738	C	0.812680	-0.217545	1.101591
C739	C	0.143198	-0.823737	0.458344
C740	C	0.476532	-0.490404	0.791677
C741	C	0.809865	-0.157070	1.125011
H742	H	0.177406	-0.884473	0.417831
H743	H	0.510740	-0.551140	0.751164
H744	H	0.844073	-0.217807	1.084498
H745	H	0.144080	-0.924641	0.458369
H746	H	0.477414	-0.591308	0.791702
H747	H	0.810747	-0.257974	1.125035
H748	H	0.118465	-0.884525	0.412685
H749	H	0.451799	-0.551192	0.746018
H750	H	0.785132	-0.217859	1.079352
H751	H	0.170744	-0.823426	0.480587
H752	H	0.504077	-0.490092	0.813920
H753	H	0.837411	-0.156759	1.147253
H754	H	0.145136	-0.783297	0.434897
H755	H	0.478470	-0.449964	0.768231
H756	H	0.811803	-0.116630	1.101564
C757	C	-0.195625	-0.966693	0.033514
C758	C	0.137708	-0.633360	0.366847
C759	C	0.471041	-0.300027	0.700180
C760	C	-0.230363	-0.924646	0.004642
C761	C	0.102970	-0.591313	0.337975
C762	C	0.436304	-0.257980	0.671309
H763	H	-0.213737	-0.999211	0.055845
H764	H	0.119596	-0.665878	0.389178
H765	H	0.452930	-0.332544	0.722512
H766	H	-0.174803	-0.991520	0.013396
H767	H	0.158531	-0.658186	0.346729
H768	H	0.491864	-0.324853	0.680063
H769	H	-0.174783	-0.937864	0.050886
H770	H	0.158550	-0.604530	0.384220
H771	H	0.491884	-0.271197	0.717553
H772	H	-0.251203	-0.953476	-0.012734
H773	H	0.082130	-0.620142	0.320599
H774	H	0.415464	-0.286809	0.653933
H775	H	-0.251194	-0.899818	0.024762
H776	H	0.082139	-0.566485	0.358096
H777	H	0.415472	-0.233152	0.691429
H778	H	-0.874419	-0.911027	-0.004706
H779	H	-0.541086	-0.577694	0.328627
H780	H	-0.207752	-0.244361	0.661960
C781	C	-0.739169	-0.888069	0.034314
C782	C	-0.405836	-0.554735	0.367647
C783	C	-0.072503	-0.221402	0.700980
C784	C	-0.769895	-0.924680	0.004667
C785	C	-0.436562	-0.591346	0.338000
C786	C	-0.103229	-0.258013	0.671333
H787	H	-0.721046	-0.920591	0.056640
H788	H	-0.387713	-0.587258	0.389973
H789	H	-0.054380	-0.253924	0.723307
H790	H	-0.715624	-0.859540	0.014721
H791	H	-0.382291	-0.526207	0.348055
H792	H	-0.048958	-0.192873	0.681388
H793	H	-0.760002	-0.859254	0.051692
H794	H	-0.426669	-0.525921	0.385026
H795	H	-0.093336	-0.192588	0.718359
H796	H	-0.749062	-0.953490	-0.012715
H797	H	-0.415729	-0.620157	0.320618
H798	H	-0.082395	-0.286824	0.653952
H799	H	-0.793443	-0.953220	0.024261
H800	H	-0.460110	-0.619887	0.357595
H801	H	-0.126777	-0.286554	0.690928
C802	C	-0.441386	-0.633516	-0.195256
C803	C	-0.108053	-0.300182	0.138077
C804	C	0.225281	0.033151	0.471411
C805	C	-0.476108	-0.675565	-0.166382
C806	C	-0.142775	-0.342231	0.166952
C807	C	0.190558	-0.008898	0.500285
H808	H	-0.459510	-0.601002	-0.217588
H809	H	-0.126176	-0.267669	0.115745
H810	H	0.207157	0.065664	0.449078
H811	H	-0.420547	-0.608685	-0.175140
H812	H	-0.087214	-0.275352	0.158193
H813	H	0.246119	0.057982	0.491526
H814	H	-0.420558	-0.662345	-0.212628
H815	H	-0.087225	-0.329011	0.120705
H816	H	0.246109	0.004322	0.454038
H817	H	-0.496934	-0.646736	-0.149007
H818	H	-0.163601	-0.313403	0.184327
H819	H	0.169733	0.019930	0.517660
H820	H	-0.496956	-0.700397	-0.186500
H821	H	-0.163622	-0.367064	0.146833
H822	H	0.169711	-0.033731	0.480167
C823	C	-0.847339	-0.681434	-0.162322
C824	C	-0.514006	-0.348101	0.171011
C825	C	-0.180673	-0.014767	0.504344
C826	C	-0.882058	-0.723489	-0.133447
C827	C	-0.548725	-0.390156	0.199886
C828	C	-0.215391	-0.056822	0.533219
H829	H	-0.865466	-0.648918	-0.184650
H830	H	-0.532133	-0.315585	0.148683
H831	H	-0.198799	0.017749	0.482017
H832	H	-0.826499	-0.656606	-0.142206
H833	H	-0.493166	-0.323273	0.191127
H834	H	-0.159832	0.010060	0.524460
H835	H	-0.826513	-0.710259	-0.179699
H836	H	-0.493180	-0.376925	0.153634
H837	H	-0.159846	-0.043592	0.486967
H838	H	-0.902882	-0.694665	-0.116067
H839	H	-0.569549	-0.361331	0.217266
H840	H	-0.236215	-0.027998	0.550599
H841	H	-0.902907	-0.748318	-0.153566
H842	H	-0.569574	-0.414985	0.179768
H843	H	-0.236241	-0.081652	0.513101
H844	H	-0.371602	-0.689216	-0.157009
H845	H	-0.038269	-0.355883	0.176324
H846	H	0.295065	-0.022550	0.509657
