data_functionalizedCrystal
_audit_creation_method	'MofGen! by Chris Wilmer'
_symmetry_space_group_name_H-M	'P1'
_symmetry_Int_Tables_number	1
_symmetry_cell_setting	triclinic
loop_
_symmetry_equiv_pos_as_xyz
  x,y,z
_cell_length_a	10.686220
_cell_length_b	18.050590
_cell_length_c	18.050582
_cell_angle_alpha	89.976663
_cell_angle_beta	94.355462
_cell_angle_gamma	94.400502
loop_
_atom_site_label
_atom_site_type_symbol
_atom_site_fract_x
_atom_site_fract_y
_atom_site_fract_z
Zn1	Zn	1.929029	-0.208485	-0.332919
Zn2	Zn	2.179029	0.041515	-0.082919
Zn3	Zn	2.429029	0.291515	0.167081
Zn4	Zn	2.679029	0.541515	0.417081
Zn5	Zn	1.928913	-0.332674	-0.208733
Zn6	Zn	2.178913	-0.082674	0.041267
Zn7	Zn	2.428913	0.167326	0.291267
Zn8	Zn	2.678913	0.417326	0.541267
Zn9	Zn	1.718037	-0.218037	-0.218258
Zn10	Zn	1.968037	0.031963	0.031742
Zn11	Zn	2.218037	0.281963	0.281742
Zn12	Zn	2.468037	0.531963	0.531742
Zn13	Zn	1.717984	-0.342181	-0.342393
Zn14	Zn	1.967984	-0.092181	-0.092393
Zn15	Zn	2.217984	0.157819	0.157607
Zn16	Zn	2.467984	0.407819	0.407607
O17	O	1.823491	-0.275344	-0.275576
O18	O	2.073491	-0.025344	-0.025576
O19	O	2.323491	0.224656	0.224424
O20	O	2.573491	0.474656	0.474424
O21	O	2.105589	-0.216983	-0.308495
O22	O	2.355589	0.033017	-0.058495
O23	O	2.605589	0.283017	0.191505
O24	O	2.855589	0.533017	0.441505
O25	O	1.900913	-0.317486	-0.106073
O26	O	2.150913	-0.067486	0.143927
O27	O	2.400913	0.182514	0.393927
O28	O	2.650913	0.432514	0.643927
O29	O	1.746096	-0.112842	-0.233490
O30	O	1.996096	0.137158	0.016510
O31	O	2.246096	0.387158	0.266510
O32	O	2.496096	0.637158	0.516510
O33	O	2.105503	-0.308224	-0.217255
O34	O	2.355503	-0.058224	0.032745
O35	O	2.605503	0.191776	0.282745
O36	O	2.855503	0.441776	0.532745
O37	O	1.901111	-0.105825	-0.317731
O38	O	2.151111	0.144175	-0.067731
O39	O	2.401111	0.394175	0.182269
O40	O	2.651111	0.644175	0.432269
O41	O	1.745983	-0.233263	-0.113071
O42	O	1.995983	0.016737	0.136929
O43	O	2.245983	0.266737	0.386929
O44	O	2.495983	0.516737	0.636929
O45	O	1.541454	-0.242481	-0.242676
O46	O	1.791454	0.007519	0.007324
O47	O	2.041454	0.257519	0.257324
O48	O	2.291454	0.507519	0.507324
O49	O	1.746006	-0.324427	-0.445060
O50	O	1.996006	-0.074427	-0.195060
O51	O	2.246006	0.175573	0.054940
O52	O	2.496006	0.425573	0.304940
O53	O	1.541416	-0.333689	-0.333878
O54	O	1.791416	-0.083689	-0.083878
O55	O	2.041416	0.166311	0.166122
O56	O	2.291416	0.416311	0.416122
O57	O	1.901060	-0.226202	-0.438100
O58	O	2.151060	0.023798	-0.188100
O59	O	2.401060	0.273798	0.061900
O60	O	2.651060	0.523798	0.311900
O61	O	1.900862	-0.437863	-0.226442
O62	O	2.150862	-0.187863	0.023558
O63	O	2.400862	0.062137	0.273558
O64	O	2.650862	0.312137	0.523558
O65	O	1.745893	-0.444847	-0.324641
O66	O	1.995893	-0.194847	-0.074641
O67	O	2.245893	0.055153	0.175359
O68	O	2.495893	0.305153	0.425359
C69	C	1.495651	-0.290153	-0.290339
C70	C	1.745651	-0.040153	-0.040339
C71	C	1.995651	0.209847	0.209661
C72	C	2.245651	0.459847	0.459661
C73	C	1.355400	-0.296507	-0.296672
C74	C	1.605400	-0.046507	-0.046672
C75	C	1.855400	0.203493	0.203328
C76	C	2.105400	0.453493	0.453328
C77	C	1.823394	-0.468301	-0.275551
C78	C	2.073394	-0.218301	-0.025551
C79	C	2.323394	0.031699	0.224449
C80	C	2.573394	0.281699	0.474449
C81	C	1.823467	-0.550843	-0.275560
C82	C	2.073467	-0.300843	-0.025560
C83	C	2.323467	-0.050843	0.224440
C84	C	2.573467	0.199157	0.474440
C85	C	1.907915	-0.746461	-0.222220
C86	C	2.157915	-0.496461	0.027780
C87	C	2.407915	-0.246461	0.277780
C88	C	2.657915	0.003539	0.527780
C89	C	1.938728	-0.794406	-0.288610
C90	C	2.188728	-0.544406	-0.038610
C91	C	2.438728	-0.294406	0.211390
C92	C	2.688728	-0.044406	0.461390
C93	C	1.823539	-0.701970	-0.275586
C94	C	2.073539	-0.451970	-0.025586
C95	C	2.323539	-0.201970	0.224414
C96	C	2.573539	0.048030	0.474414
C97	C	1.792854	-0.801101	-0.209220
C98	C	2.042854	-0.551101	0.040780
C99	C	2.292854	-0.301101	0.290780
C100	C	2.542854	-0.051101	0.540780
C101	C	1.823611	-0.847952	-0.275605
C102	C	2.073611	-0.597952	-0.025605
C103	C	2.323611	-0.347952	0.224395
C104	C	2.573611	-0.097952	0.474395
C105	C	1.854412	-0.748826	-0.342009
C106	C	2.104412	-0.498826	-0.092009
C107	C	2.354412	-0.248826	0.157991
C108	C	2.604412	0.001174	0.407991
C109	C	1.708484	-0.755519	-0.262576
C110	C	1.958484	-0.505519	-0.012576
C111	C	2.208484	-0.255519	0.237424
C112	C	2.458484	-0.005519	0.487424
C113	C	1.739254	-0.803444	-0.329015
C114	C	1.989254	-0.553444	-0.079015
C115	C	2.239254	-0.303444	0.170985
C116	C	2.489254	-0.053444	0.420985
C117	C	1.823501	-0.617874	-0.275574
C118	C	2.073501	-0.367874	-0.025574
C119	C	2.323501	-0.117874	0.224426
C120	C	2.573501	0.132126	0.474426
C121	C	1.823648	-0.932047	-0.275625
C122	C	2.073648	-0.682047	-0.025625
C123	C	2.323648	-0.432047	0.224375
C124	C	2.573648	-0.182047	0.474375
C125	C	2.152610	-0.260478	-0.260756
C126	C	2.402610	-0.010478	-0.010756
C127	C	2.652610	0.239522	0.239244
C128	C	2.902610	0.489522	0.489244
C129	C	2.292862	-0.254143	-0.254440
C130	C	2.542862	-0.004143	-0.004440
C131	C	2.792862	0.245857	0.245560
C132	C	3.042862	0.495857	0.495560
C133	C	1.823540	-0.275309	-0.469279
C134	C	2.073540	-0.025309	-0.219279
C135	C	2.323540	0.224691	0.030721
C136	C	2.573540	0.474691	0.280721
C137	C	1.823561	-0.275294	-0.551824
C138	C	2.073561	-0.025294	-0.301824
C139	C	2.323561	0.224706	-0.051824
C140	C	2.573561	0.474706	0.198176
C141	C	1.823622	-0.081633	-0.275616
C142	C	2.073622	0.168367	-0.025616
C143	C	2.323622	0.418367	0.224384
C144	C	2.573622	0.668367	0.474384
C145	C	1.823678	0.000916	-0.275633
C146	C	2.073678	0.250916	-0.025633
C147	C	2.323678	0.500916	0.224367
C148	C	2.573678	0.750916	0.474367
C149	C	1.739307	-0.328638	-0.755057
C150	C	1.989307	-0.078638	-0.505057
C151	C	2.239307	0.171362	-0.255057
C152	C	2.489307	0.421362	-0.005057
C153	C	1.854434	-0.341586	-0.799257
C154	C	2.104434	-0.091586	-0.549257
C155	C	2.354434	0.158414	-0.299257
C156	C	2.604434	0.408414	-0.049257
C157	C	1.823623	-0.275235	-0.702952
C158	C	2.073623	-0.025235	-0.452952
C159	C	2.323623	0.224765	-0.202952
C160	C	2.573623	0.474765	0.047048
C161	C	1.708560	-0.262263	-0.805831
C162	C	1.958560	-0.012263	-0.555831
C163	C	2.208560	0.237737	-0.305831
C164	C	2.458560	0.487737	-0.055831
C165	C	1.823673	-0.275179	-0.848935
C166	C	2.073673	-0.025179	-0.598935
C167	C	2.323673	0.224821	-0.348935
C168	C	2.573673	0.474821	-0.098935
C169	C	1.938810	-0.288215	-0.746061
C170	C	2.188810	-0.038215	-0.496061
C171	C	2.438810	0.211785	-0.246061
C172	C	2.688810	0.461785	0.003939
C173	C	1.792859	-0.208864	-0.752635
C174	C	2.042859	0.041136	-0.502635
C175	C	2.292859	0.291136	-0.252635
C176	C	2.542859	0.541136	-0.002635
C177	C	1.908065	-0.221783	-0.796809
C178	C	2.158065	0.028217	-0.546809
C179	C	2.408065	0.278217	-0.296809
C180	C	2.658065	0.528217	-0.046809
C181	C	1.823593	-0.275269	-0.618855
C182	C	2.073593	-0.025269	-0.368855
C183	C	2.323593	0.224731	-0.118855
C184	C	2.573593	0.474731	0.131145
C185	C	1.823717	-0.275144	-0.933029
C186	C	2.073717	-0.025144	-0.683029
C187	C	2.323717	0.224856	-0.433029
C188	C	2.573717	0.474856	-0.183029
C189	C	1.823514	-0.275322	-0.082623
C190	C	2.073514	-0.025322	0.167377
C191	C	2.323514	0.224678	0.417377
C192	C	2.573514	0.474678	0.667377
C193	C	1.823737	-0.275117	-0.000067
C194	C	2.073737	-0.025117	0.249933
C195	C	2.323737	0.224883	0.499933
C196	C	2.573737	0.474883	0.749933
H197	H	1.979292	-0.721561	-0.177132
H198	H	2.229292	-0.471561	0.072868
H199	H	2.479292	-0.221561	0.322868
H200	H	2.729292	0.028439	0.572868
F201	F	1.363120	-0.200383	-0.200845
F202	F	1.613120	0.049617	0.049155
F203	F	1.863120	0.299617	0.299155
F204	F	2.113120	0.549617	0.549155
H205	H	1.979472	-0.176594	-0.815126
H206	H	2.229472	0.073406	-0.565126
H207	H	2.479472	0.323406	-0.315126
H208	H	2.729472	0.573406	-0.065126
F209	F	2.066060	-0.302616	-0.712090
F210	F	2.316060	-0.052616	-0.462090
F211	F	2.566060	0.197384	-0.212090
F212	F	2.816060	0.447384	0.037910
F213	F	1.285135	-0.350277	-0.350263
F214	F	1.535135	-0.100277	-0.100263
F215	F	1.785135	0.149723	0.149737
F216	F	2.035135	0.399723	0.399737
F217	F	1.758765	-0.135555	-0.725788
F218	F	2.008765	0.114445	-0.475788
F219	F	2.258765	0.364445	-0.225788
F220	F	2.508765	0.614445	0.024212
H221	H	1.611182	-0.738246	-0.251536
H222	H	1.861182	-0.488246	-0.001536
H223	H	2.111182	-0.238246	0.248464
H224	H	2.361182	0.011754	0.498464
H225	H	2.036058	-0.811662	-0.299628
H226	H	2.286058	-0.561662	-0.049628
H227	H	2.536058	-0.311662	0.200372
H228	H	2.786058	-0.061662	0.450372
H229	H	1.611232	-0.251314	-0.831914
H230	H	1.861232	-0.001314	-0.581914
H231	H	2.111232	0.248686	-0.331914
H232	H	2.361232	0.498686	-0.081914
H233	H	1.880298	-0.726008	-0.398196
H234	H	2.130298	-0.476008	-0.148196
H235	H	2.380298	-0.226008	0.101804
H236	H	2.630298	0.023992	0.351804
H237	H	1.667931	-0.828203	-0.374202
H238	H	1.917931	-0.578203	-0.124202
H239	H	2.167931	-0.328203	0.125798
H240	H	2.417931	-0.078203	0.375798
F241	F	1.646196	-0.387733	-0.730925
F242	F	1.896196	-0.137733	-0.480925
F243	F	2.146196	0.112267	-0.230925
F244	F	2.396196	0.362267	0.019075
F245	F	1.758891	-0.831052	-0.135852
F246	F	2.008891	-0.581052	0.114148
F247	F	2.258891	-0.331052	0.364148
F248	F	2.508891	-0.081052	0.614148
H249	H	1.880484	-0.397690	-0.819780
H250	H	2.130484	-0.147690	-0.569780
H251	H	2.380484	0.102310	-0.319780
H252	H	2.630484	0.352310	-0.069780
