data_functionalizedCrystal
_audit_creation_method	'MofGen! by Chris Wilmer'
_symmetry_space_group_name_H-M	'P1'
_symmetry_Int_Tables_number	1
_symmetry_cell_setting	triclinic
loop_
_symmetry_equiv_pos_as_xyz
  x,y,z
_cell_length_a	17.640112
_cell_length_b	13.897448
_cell_length_c	17.640968
_cell_angle_alpha	78.768361
_cell_angle_beta	92.139080
_cell_angle_gamma	101.242525
loop_
_atom_site_label
_atom_site_type_symbol
_atom_site_fract_x
_atom_site_fract_y
_atom_site_fract_z
Zn1	Zn	1.247780	-0.027714	-0.195080
Zn2	Zn	1.581114	0.305619	0.138253
Zn3	Zn	1.914447	0.638952	0.471587
Zn4	Zn	1.222024	-0.226719	-0.068097
Zn5	Zn	1.555358	0.106614	0.265236
Zn6	Zn	1.888691	0.439947	0.598570
Zn7	Zn	1.095117	-0.090459	-0.093726
Zn8	Zn	1.428450	0.242874	0.239608
Zn9	Zn	1.761783	0.576208	0.572941
Zn10	Zn	1.120765	-0.214022	-0.220679
Zn11	Zn	1.454098	0.119311	0.112654
Zn12	Zn	1.787431	0.452644	0.445988
O13	O	1.171421	-0.139729	-0.144395
O14	O	1.504755	0.193605	0.188938
O15	O	1.838088	0.526938	0.522271
O16	O	1.350631	-0.033168	-0.156796
O17	O	1.683965	0.300166	0.176537
O18	O	2.017298	0.633499	0.509870
O19	O	1.183677	-0.240217	0.034777
O20	O	1.517011	0.093117	0.368110
O21	O	1.850344	0.426450	0.701443
O22	O	1.115413	0.052860	-0.107183
O23	O	1.448746	0.386193	0.226150
O24	O	1.782080	0.719527	0.559484
O25	O	1.331709	-0.179376	-0.063502
O26	O	1.665042	0.153958	0.269831
O27	O	1.998376	0.487291	0.603164
O28	O	1.227574	0.098958	-0.181648
O29	O	1.560908	0.432292	0.151686
O30	O	1.894241	0.765625	0.485019
O31	O	1.090439	-0.140107	0.015947
O32	O	1.423772	0.193227	0.349280
O33	O	1.757105	0.526560	0.682614
O34	O	0.992251	-0.127795	-0.132005
O35	O	1.325584	0.205538	0.201328
O36	O	1.658918	0.538872	0.534661
O37	O	1.159126	-0.157736	-0.323556
O38	O	1.492459	0.175598	0.009777
O39	O	1.825793	0.508931	0.343110
O40	O	1.011094	-0.218577	-0.225277
O41	O	1.344428	0.114757	0.108056
O42	O	1.677761	0.448090	0.441389
O43	O	1.252444	-0.020856	-0.304749
O44	O	1.585777	0.312477	0.028585
O45	O	1.919111	0.645811	0.361918
O46	O	1.208547	-0.360031	-0.088325
O47	O	1.541880	-0.026698	0.245009
O48	O	1.875214	0.306636	0.578342
O49	O	1.134152	-0.350703	-0.200426
O50	O	1.467485	-0.017369	0.132907
O51	O	1.800818	0.315964	0.466241
C52	C	0.974119	-0.178617	-0.184201
C53	C	1.307452	0.154716	0.149133
C54	C	1.640785	0.488049	0.482466
C55	C	0.889716	-0.195272	-0.201248
C56	C	1.223049	0.138062	0.132086
C57	C	1.556382	0.471395	0.465419
C58	C	0.563040	-0.013187	-0.014898
C59	C	0.896373	0.320146	0.318435
C60	C	1.229707	0.653479	0.651769
C61	C	0.483732	-0.028853	-0.030926
C62	C	0.817066	0.304480	0.302407
C63	C	1.150399	0.637813	0.635740
C64	C	0.503374	-0.123604	-0.127883
C65	C	0.836708	0.209730	0.205450
C66	C	1.170041	0.543063	0.538784
C67	C	0.582686	-0.107942	-0.111865
C68	C	0.916019	0.225392	0.221468
C69	C	1.249353	0.558725	0.554801
C70	C	0.612512	-0.052734	-0.055371
C71	C	0.945845	0.280600	0.277962
C72	C	1.279179	0.613933	0.611295
C73	C	0.632158	-0.147488	-0.152339
C74	C	0.965491	0.185846	0.180995
C75	C	1.298824	0.519179	0.514328
C76	C	0.711462	-0.131831	-0.136319
C77	C	1.044795	0.201502	0.197014
C78	C	1.378128	0.534836	0.530347
C79	C	0.741294	-0.076628	-0.079826
C80	C	1.074627	0.256705	0.253507
C81	C	1.407960	0.590038	0.586840
C82	C	0.691816	-0.037077	-0.039352
C83	C	1.025149	0.296256	0.293981
C84	C	1.358483	0.629590	0.627315
C85	C	0.602329	-0.202701	-0.208829
C86	C	0.935663	0.130632	0.124505
C87	C	1.268996	0.463965	0.457838
C88	C	0.651801	-0.242247	-0.249302
C89	C	0.985135	0.091086	0.084031
C90	C	1.318468	0.424419	0.417365
C91	C	0.731108	-0.226585	-0.233287
C92	C	1.064441	0.106748	0.100047
C93	C	1.397774	0.440082	0.433380
C94	C	0.760940	-0.171382	-0.176794
C95	C	1.094273	0.161951	0.156540
C96	C	1.427606	0.495284	0.489873
C97	C	0.780586	-0.266136	-0.273761
C98	C	1.113919	0.067197	0.059572
C99	C	1.447252	0.400530	0.392906
C100	C	0.859889	-0.250480	-0.257742
C101	C	1.193223	0.082854	0.075592
C102	C	1.526556	0.416187	0.408925
C103	C	0.840244	-0.155726	-0.160774
C104	C	1.173577	0.177608	0.172559
C105	C	1.506910	0.510941	0.505892
C106	C	1.171362	-0.390361	-0.144385
C107	C	1.504695	-0.057027	0.188949
C108	C	1.838028	0.276306	0.522282
C109	C	1.171411	-0.497561	-0.144391
C110	C	1.504744	-0.164227	0.188942
C111	C	1.838077	0.169106	0.522275
C112	C	1.171500	-0.693826	-0.144423
C113	C	1.504833	-0.360493	0.188910
C114	C	1.838167	-0.027159	0.522244
C115	C	1.171449	-0.584610	-0.144408
C116	C	1.504782	-0.251276	0.188925
C117	C	1.838115	0.082057	0.522259
C118	C	1.369495	-0.100689	-0.104435
C119	C	1.702828	0.232644	0.228898
C120	C	2.036161	0.565978	0.562232
C121	C	1.453902	-0.084053	-0.087406
C122	C	1.787235	0.249281	0.245927
C123	C	2.120568	0.582614	0.579260
C124	C	1.211519	-0.080881	-0.342478
C125	C	1.544852	0.252453	-0.009145
C126	C	1.878186	0.585786	0.324188
C127	C	1.228606	-0.055803	-0.426890
C128	C	1.561939	0.277530	-0.093556
C129	C	1.895273	0.610864	0.239777
C130	C	1.171506	0.111891	-0.144419
C131	C	1.504839	0.445224	0.188915
C132	C	1.838172	0.778557	0.522248
C133	C	1.171541	0.219116	-0.144429
C134	C	1.504875	0.552449	0.188905
C135	C	1.838208	0.885783	0.522238
C136	C	1.041904	-0.329658	-0.753462
C137	C	1.375237	0.003675	-0.420129
C138	C	1.708571	0.337009	-0.086795
C139	C	1.057976	-0.306079	-0.832776
C140	C	1.391309	0.027255	-0.499443
C141	C	1.724643	0.360588	-0.166109
C142	C	1.155140	-0.163558	-0.813183
C143	C	1.488473	0.169775	-0.479850
C144	C	1.821806	0.503109	-0.146516
C145	C	1.139073	-0.187123	-0.733866
C146	C	1.472407	0.146211	-0.400533
C147	C	1.805740	0.479544	-0.067199
C148	C	1.082455	-0.270175	-0.704012
C149	C	1.415789	0.063159	-0.370679
C150	C	1.749122	0.396492	-0.037346
C151	C	1.179624	-0.127639	-0.684416
C152	C	1.512958	0.205694	-0.351083
C153	C	1.846291	0.539027	-0.017750
C154	C	1.163562	-0.151206	-0.605106
C155	C	1.496895	0.182128	-0.271773
C156	C	1.830229	0.515461	0.061561
C157	C	1.106948	-0.234255	-0.575246
C158	C	1.440282	0.099078	-0.241912
C159	C	1.773615	0.432411	0.091421
C160	C	1.066393	-0.293741	-0.624702
C161	C	1.399726	0.039592	-0.291369
C162	C	1.733059	0.372926	0.041965
C163	C	1.236246	-0.044592	-0.714271
C164	C	1.569579	0.288741	-0.380938
C165	C	1.902913	0.622075	-0.047604
C166	C	1.276797	0.014891	-0.664821
C167	C	1.610130	0.348225	-0.331488
C168	C	1.943464	0.681558	0.001845
C169	C	1.260731	-0.008670	-0.585510
C170	C	1.594064	0.324663	-0.252177
C171	C	1.927398	0.657996	0.081156
C172	C	1.204117	-0.091720	-0.555650
C173	C	1.537451	0.241613	-0.222316
C174	C	1.870784	0.574947	0.111017
C175	C	1.301286	0.050815	-0.536054
C176	C	1.634620	0.384149	-0.202721
C177	C	1.967953	0.717482	0.130613
C178	C	1.285224	0.027249	-0.456744
C179	C	1.618557	0.360582	-0.123410
C180	C	1.951891	0.693916	0.209923
C181	C	1.188055	-0.115286	-0.476339
C182	C	1.521388	0.218047	-0.143006
C183	C	1.854721	0.551380	0.190327
C184	C	1.131524	-0.198270	0.052926
C185	C	1.464857	0.135064	0.386259
C186	C	1.798190	0.468397	0.719593
C187	C	1.114584	-0.223047	0.137366
C188	C	1.447917	0.110287	0.470700
C189	C	1.781251	0.443620	0.804033
H190	H	0.537754	-0.215447	-0.221869
H191	H	0.871088	0.117886	0.111464
H192	H	1.204421	0.451219	0.444797
Cl193	Cl	1.372468	0.155210	-0.573593
Cl194	Cl	1.705802	0.488543	-0.240260
Cl195	Cl	2.039135	0.821876	0.093073
Cl196	Cl	0.995208	-0.398144	-0.587166
Cl197	Cl	1.328541	-0.064811	-0.253833
Cl198	Cl	1.661875	0.268523	0.079500
Cl199	Cl	1.116870	-0.219690	-0.438804
Cl200	Cl	1.450203	0.113644	-0.105471
Cl201	Cl	1.783537	0.446977	0.227863
H202	H	0.805868	-0.063884	-0.066783
H203	H	1.139202	0.269449	0.266550
H204	H	1.472535	0.602783	0.599884
H205	H	0.756288	-0.311095	-0.319753
H206	H	1.089621	0.022239	0.013581
H207	H	1.422954	0.355572	0.346914
Cl208	Cl	0.421539	0.020860	0.019967
Cl209	Cl	0.754872	0.354193	0.353300
Cl210	Cl	1.088205	0.687527	0.686633
H211	H	0.995782	-0.397268	-0.729157
H212	H	1.329115	-0.063934	-0.395824
H213	H	1.662449	0.269399	-0.062491
Cl214	Cl	0.614296	-0.311663	-0.320311
Cl215	Cl	0.947629	0.021670	0.013022
Cl216	Cl	1.280963	0.355004	0.346356
Cl217	Cl	0.922086	-0.300198	-0.308621
Cl218	Cl	1.255420	0.033135	0.024712
Cl219	Cl	1.588753	0.366468	0.358046
H220	H	1.093874	-0.253445	-0.510665
H221	H	1.427207	0.079889	-0.177332
H222	H	1.760541	0.413222	0.156002
H223	H	1.024950	-0.354524	-0.873037
H224	H	1.358284	-0.021190	-0.539703
H225	H	1.691617	0.312143	-0.206370
H226	H	1.201240	-0.095939	-0.837501
H227	H	1.534573	0.237394	-0.504167
H228	H	1.867907	0.570727	-0.170834
Cl229	Cl	0.877746	-0.086312	-0.089757
Cl230	Cl	1.211080	0.247021	0.243576
Cl231	Cl	1.544413	0.580355	0.576910
H232	H	0.716104	0.007896	0.006640
H233	H	1.049437	0.341230	0.339973
H234	H	1.382770	0.674563	0.673306
Cl235	Cl	1.256441	-0.014969	-0.813977
Cl236	Cl	1.589775	0.318365	-0.480643
Cl237	Cl	1.923108	0.651698	-0.147310
Cl238	Cl	0.600543	0.056226	0.056119
Cl239	Cl	0.933876	0.389559	0.389452
Cl240	Cl	1.267209	0.722893	0.722786
H241	H	1.322898	0.082510	-0.689139
H242	H	1.656231	0.415843	-0.355806
H243	H	1.989564	0.749177	-0.022473
Cl244	Cl	0.465869	-0.193019	-0.198892
Cl245	Cl	0.799202	0.140314	0.134441
Cl246	Cl	1.132536	0.473647	0.467774
H247	H	1.318244	0.075688	-0.416480
H248	H	1.651577	0.409021	-0.083147
H249	H	1.984910	0.742354	0.250186
