data_functionalizedCrystal
_audit_creation_method	'MofGen! by Chris Wilmer'
_symmetry_space_group_name_H-M	'P1'
_symmetry_Int_Tables_number	1
_symmetry_cell_setting	triclinic
loop_
_symmetry_equiv_pos_as_xyz
  x,y,z
_cell_length_a	27.732048
_cell_length_b	10.654550
_cell_length_c	9.730223
_cell_angle_alpha	89.993925
_cell_angle_beta	90.001204
_cell_angle_gamma	83.563793
loop_
_atom_site_label
_atom_site_type_symbol
_atom_site_fract_x
_atom_site_fract_y
_atom_site_fract_z
O1	O	-0.641857	-0.149419	0.114113
O2	O	-0.501205	-0.172138	0.114154
O3	O	-0.574765	0.022097	0.114124
O4	O	-0.568298	-0.343654	0.114143
O5	O	-0.574759	0.022108	-0.114456
O6	O	-0.501200	-0.172127	-0.114426
O7	O	-0.641851	-0.149408	-0.114467
Zn8	Zn	-0.571525	-0.160765	-0.150738
Zn9	Zn	-0.571532	-0.160780	0.150425
O10	O	-0.568292	-0.343642	-0.114437
C11	C	-0.483193	-0.171655	-0.000130
C12	C	-0.429529	-0.170219	-0.000115
C13	C	-0.574287	0.068880	-0.000165
C14	C	-0.572867	0.208264	-0.000163
C15	C	-0.659864	-0.149890	-0.000179
C16	C	-0.713528	-0.151326	-0.000186
C17	C	-0.091372	-0.275959	-0.000169
C18	C	0.110321	-0.270631	-0.000181
O19	O	0.140974	-0.367322	-0.000236
N20	N	0.130162	-0.155458	-0.000185
C21	C	0.099576	-0.041609	-0.000194
O22	O	0.121080	0.056475	-0.000212
C23	C	-0.102116	-0.046938	-0.000192
C24	C	-0.121954	-0.162118	-0.000174
C25	C	-0.111211	-0.391130	-0.000153
C26	C	-0.161631	-0.392461	-0.000142
C27	C	-0.192213	-0.278620	-0.000148
C28	C	-0.172374	-0.163449	-0.000164
C29	C	-0.132701	0.066910	-0.000211
C30	C	-0.183126	0.065567	-0.000214
C31	C	-0.202964	-0.049613	-0.000196
C32	C	-0.253376	-0.050940	-0.000158
N33	N	-0.273217	-0.166113	-0.000155
C34	C	-0.242635	-0.279953	-0.000149
C35	C	0.205467	-0.038819	-0.000193
C36	C	0.255890	-0.037486	-0.000191
C37	C	0.266631	-0.266509	-0.000181
C38	C	0.216208	-0.267840	-0.000173
C39	C	0.185626	-0.153992	-0.000190
C40	C	-0.348522	-0.282739	-0.000126
C41	C	-0.398947	-0.284060	-0.000109
C42	C	-0.409684	-0.055038	-0.000127
C43	C	-0.359263	-0.053716	-0.000136
C44	C	-0.328683	-0.167577	-0.000140
O45	O	-0.284058	0.045700	-0.000119
O46	O	-0.264149	-0.378023	-0.000162
C47	C	-0.040952	-0.274628	-0.000179
C48	C	-0.021113	-0.159457	-0.000195
C49	C	-0.051695	-0.045616	-0.000201
C50	C	0.029309	-0.158124	-0.000194
C51	C	0.059891	-0.271965	-0.000188
C52	C	0.040050	-0.387138	-0.000185
C53	C	-0.010370	-0.388468	-0.000174
C54	C	-0.031854	0.069557	-0.000204
C55	C	0.018567	0.070878	-0.000213
C56	C	0.049148	-0.042962	-0.000208
C57	C	-0.568769	-0.390426	-0.000145
C58	C	-0.570190	-0.529810	-0.000138
C59	C	-0.616177	0.289570	-0.000175
C60	C	-0.614840	0.420535	-0.000158
C61	C	-0.526876	0.388874	-0.000122
C62	C	-0.528215	0.257912	-0.000129
N63	N	-0.571523	-0.160754	-0.356275
C64	C	-0.541968	-0.085137	-0.572133
C65	C	-0.541961	-0.085120	-0.428250
C66	C	-0.601096	-0.236401	-0.428190
C67	C	-0.601105	-0.236411	-0.572070
N68	N	-0.571538	-0.160781	0.355962
H69	H	-0.415096	-0.377858	-0.000094
F70	F	-0.482115	0.171373	-0.000106
F71	F	-0.632560	-0.316891	-0.351585
F72	F	-0.479357	0.441724	-0.000086
F73	F	-0.182737	-0.515053	-0.000130
H74	H	-0.625187	-0.298011	-0.630617
H75	H	-0.650108	0.486730	-0.000165
F76	F	-0.315983	-0.403923	-0.000131
F77	F	-0.078670	-0.512306	-0.000147
H78	H	-0.517883	-0.023521	-0.369711
H79	H	0.200059	-0.361630	-0.000166
H80	H	0.291540	-0.359202	-0.000177
F81	F	-0.663700	0.236736	-0.000209
F82	F	0.039673	0.193478	-0.000215
F83	F	-0.064395	0.190728	-0.000213
H84	H	-0.517893	-0.023554	-0.630725
H85	H	0.272038	0.056305	-0.000184
H86	H	0.180572	0.053896	-0.000207
H87	H	-0.116558	0.160702	-0.000226
H88	H	-0.208024	0.158279	-0.000228
H89	H	-0.434592	0.037648	-0.000126
F90	F	-0.031477	-0.511060	-0.000156
F91	F	0.072606	-0.508295	-0.000172
F92	F	-0.338149	0.068871	-0.000156
