data_functionalizedCrystal
_audit_creation_method	'MofGen! by Chris Wilmer'
_symmetry_space_group_name_H-M	'P1'
_symmetry_Int_Tables_number	1
_symmetry_cell_setting	triclinic
loop_
_symmetry_equiv_pos_as_xyz
  x,y,z
_cell_length_a	19.077105
_cell_length_b	10.685194
_cell_length_c	19.076919
_cell_angle_alpha	92.275516
_cell_angle_beta	89.923776
_cell_angle_gamma	91.901544
loop_
_atom_site_label
_atom_site_type_symbol
_atom_site_fract_x
_atom_site_fract_y
_atom_site_fract_z
Zn1	Zn	1.033509	-0.606792	0.413481
Zn2	Zn	1.029920	-0.808462	0.287021
Zn3	Zn	0.921413	-0.589990	0.292020
Zn4	Zn	0.907772	-0.807705	0.399807
O5	O	0.973154	-0.703237	0.348082
O6	O	1.131065	-0.640893	0.400336
O7	O	1.019732	-0.772766	0.189651
O8	O	0.943493	-0.416705	0.315946
O9	O	1.128428	-0.789058	0.307427
O10	O	1.025850	-0.429050	0.405183
O11	O	0.940013	-0.612256	0.193324
O12	O	0.821571	-0.611522	0.302688
O13	O	0.920245	-0.787769	0.499654
O14	O	0.811550	-0.771476	0.381879
O15	O	1.012624	-0.640159	0.509700
O16	O	1.006506	-0.983875	0.294168
O17	O	0.916765	-0.983319	0.377032
C18	C	0.791142	-0.689595	0.341342
C19	C	0.713275	-0.683790	0.338474
C20	C	0.671491	-0.764458	0.378282
C21	C	0.598327	-0.758988	0.375591
C22	C	0.566948	-0.672854	0.333088
C23	C	0.608737	-0.592177	0.293280
C24	C	0.681900	-0.597642	0.295975
C25	C	0.348693	-0.647559	0.320619
C26	C	0.275525	-0.642102	0.317925
C27	C	0.265120	-0.808913	0.400237
C28	C	0.338285	-0.814375	0.402925
C29	C	0.380067	-0.733694	0.363120
N30	N	0.492163	-0.667262	0.330335
N31	N	0.454851	-0.739280	0.365877
C32	C	0.959784	-1.029108	0.333590
C33	C	0.954128	-1.168524	0.327416
C34	C	1.155876	-0.716934	0.354849
C35	C	1.233741	-0.722771	0.357732
C36	C	0.965313	-0.715754	0.530807
C37	C	0.961972	-0.721088	0.608673
C38	C	0.986594	-0.376096	0.362647
C39	C	0.992321	-0.236688	0.368854
C40	C	0.981007	-0.690682	0.166074
C41	C	0.984498	-0.685005	0.088229
C42	C	1.008497	-0.646745	0.650486
C43	C	1.005349	-0.651751	0.723650
C44	C	0.955680	-0.731108	0.754999
C45	C	0.909151	-0.805454	0.713180
C46	C	0.912296	-0.800440	0.640018
C47	C	0.941114	-0.754337	0.973249
C48	C	0.937974	-0.759348	1.046416
C49	C	1.034172	-0.605643	1.056880
C50	C	1.037315	-0.600642	0.983716
C51	C	0.990784	-0.674983	0.941904
N52	N	0.952463	-0.736230	0.829783
N53	N	0.993998	-0.669853	0.867121
H54	H	0.249978	-0.571947	0.283320
O55	O	0.701940	-0.848001	0.419675
C56	C	0.716693	-0.919089	0.536883
C57	C	0.682182	-0.824386	0.490086
H58	H	0.700720	-0.900047	0.593818
H59	H	0.776168	-0.909144	0.532034
H60	H	0.698700	-1.018257	0.519428
H61	H	0.700119	-0.725179	0.507509
H62	H	0.622712	-0.834442	0.494939
H63	H	1.029349	-1.188391	0.409058
H64	H	0.917092	-1.216828	0.287215
O65	O	1.056769	-0.569547	0.620151
C66	C	1.151876	-0.417672	0.638260
C67	C	1.097232	-0.505026	0.672702
H68	H	1.184614	-0.365502	0.680731
H69	H	1.123916	-0.347251	0.605758
H70	H	1.187583	-0.475669	0.602781
H71	H	1.061509	-0.447132	0.708214
H72	H	1.125237	-0.575450	0.705161
O73	O	0.722386	-0.519235	0.257233
C74	C	0.724990	-0.353165	0.175332
C75	C	0.679057	-0.441912	0.219158
H76	H	0.689978	-0.290609	0.144549
H77	H	0.758437	-0.410631	0.137310
H78	H	0.760570	-0.292493	0.211738
H79	H	0.643436	-0.502603	0.182807
H80	H	0.645658	-0.384371	0.257188
O81	O	0.557716	-0.837182	0.414339
C82	C	0.470350	-0.854657	0.505079
C83	C	0.516312	-0.765954	0.461254
H84	H	0.436852	-0.797105	0.543009
H85	H	0.505316	-0.917139	0.535964
H86	H	0.434817	-0.915407	0.468666
H87	H	0.551851	-0.705124	0.497616
H88	H	0.481304	-0.703557	0.430361
O89	O	1.050446	-0.579383	0.764295
C90	C	1.063270	-0.416433	0.854799
C91	C	1.012122	-0.498302	0.808804
H92	H	1.032305	-0.350878	0.890806
H93	H	1.099297	-0.358770	0.819855
H94	H	1.096080	-0.479117	0.887822
H95	H	0.979265	-0.435712	0.775775
H96	H	0.976142	-0.555976	0.843788
O97	O	1.085585	-0.523441	0.953380
C98	C	1.180695	-0.371570	0.971482
C99	C	1.126051	-0.458918	1.005929
H100	H	1.213436	-0.319399	1.013950
H101	H	1.152736	-0.301150	0.938980
H102	H	1.216400	-0.429572	0.936003
H103	H	1.090330	-0.401019	1.041440
H104	H	1.154056	-0.529341	1.038388
O105	O	0.368651	-0.898082	0.444273
C106	C	0.350607	-1.063014	0.525596
C107	C	0.316126	-0.968250	0.478816
H108	H	0.308156	-1.119788	0.553525
H109	H	0.385629	-1.010671	0.566142
H110	H	0.383571	-1.128801	0.491710
H111	H	0.283128	-0.902439	0.512645
H112	H	0.281145	-1.020675	0.438267
O113	O	1.079293	-0.533467	1.097601
C114	C	1.117110	-0.473112	1.214947
C115	C	1.065958	-0.554906	1.168916
H116	H	1.106357	-0.490436	1.272614
H117	H	1.109576	-0.370047	1.204661
H118	H	1.173306	-0.498365	1.201636
H119	H	1.009742	-0.529763	1.182200
H120	H	1.073553	-0.657949	1.179209
O121	O	0.889658	-0.836465	1.076757
C122	C	0.794600	-0.988443	1.058661
C123	C	0.849266	-0.901144	1.024208
H124	H	0.761937	-1.040779	1.016191
H125	H	0.758820	-0.930513	1.094099
H126	H	0.822611	-1.058733	1.091205
H127	H	0.821313	-0.830838	0.991629
H128	H	0.885042	-0.959155	0.988811
H129	H	0.903234	-0.814890	0.939213
H130	H	0.382704	-0.581871	0.288200
O131	O	0.860963	-0.882511	0.743743
C132	C	0.813457	-0.958302	0.851814
C133	C	0.868074	-0.870998	0.817295
H134	H	0.819177	-0.949003	0.911286
H135	H	0.822217	-1.059404	0.833432
H136	H	0.758502	-0.931063	0.836272
H137	H	0.923051	-0.898123	0.832821
H138	H	0.859252	-0.769917	0.835677
O139	O	0.867176	-0.872855	0.599421
C140	C	0.825356	-1.082121	0.566296
C141	C	0.876500	-1.000261	0.612300
H142	H	0.832866	-1.185144	0.576703
H143	H	0.836139	-1.065011	0.508609
H144	H	0.769159	-1.056795	0.579553
H145	H	0.932715	-1.025538	0.599105
H146	H	0.865656	-1.017382	0.669974
O147	O	0.224430	-0.887146	0.438886
C148	C	0.107107	-0.952707	0.471188
C149	C	0.153104	-0.864016	0.427391
H150	H	0.049431	-0.934056	0.461899
H151	H	0.119925	-0.935776	0.529213
H152	H	0.117918	-1.054024	0.454839
H153	H	0.142319	-0.762667	0.443680
H154	H	0.140278	-0.881055	0.369376
H155	H	0.583182	-0.522039	0.258677
