data_functionalizedCrystal
_audit_creation_method	'MofGen! by Chris Wilmer'
_symmetry_space_group_name_H-M	'P1'
_symmetry_Int_Tables_number	1
_symmetry_cell_setting	triclinic
loop_
_symmetry_equiv_pos_as_xyz
  x,y,z
_cell_length_a	16.974800
_cell_length_b	13.339070
_cell_length_c	15.455313
_cell_angle_alpha	93.394339
_cell_angle_beta	90.973911
_cell_angle_gamma	99.476486
loop_
_atom_site_label
_atom_site_type_symbol
_atom_site_fract_x
_atom_site_fract_y
_atom_site_fract_z
O1	O	1.077288	0.129038	0.003523
O2	O	1.577288	0.629038	0.503523
O3	O	0.851236	0.144496	-0.012353
O4	O	1.351236	0.644496	0.487647
O5	O	0.938318	-0.010570	-0.006234
O6	O	1.438318	0.489430	0.493766
O7	O	0.990206	0.284104	-0.002595
O8	O	1.490206	0.784104	0.497405
O9	O	0.933331	-0.001739	0.137677
O10	O	1.433331	0.498261	0.637677
O11	O	0.846248	0.153327	0.131559
O12	O	1.346248	0.653327	0.631559
O13	O	1.072301	0.137869	0.147435
O14	O	1.572301	0.637869	0.647435
Cu15	Cu	0.958819	0.146404	0.152637
Cu16	Cu	1.458819	0.646404	0.652637
Cu17	Cu	0.964718	0.135961	-0.017555
Cu18	Cu	1.464718	0.635961	0.482445
O19	O	0.985218	0.292935	0.141316
O20	O	1.485218	0.792935	0.641316
C21	C	0.819219	0.148162	0.057530
C22	C	1.319219	0.648162	0.557530
C23	C	0.731246	0.145916	0.051351
C24	C	1.231246	0.645916	0.551351
C25	C	0.687201	0.149672	0.126897
C26	C	1.187201	0.649672	0.626897
C27	C	0.604540	0.147545	0.121094
C28	C	1.104540	0.647545	0.621094
C29	C	0.565925	0.141670	0.039745
C30	C	1.065925	0.641670	0.539745
C31	C	0.609975	0.137911	-0.035806
C32	C	1.109975	0.637911	0.464194
C33	C	0.692634	0.140030	-0.030003
C34	C	1.192634	0.640030	0.469997
C35	C	0.319000	0.134809	0.013975
C36	C	0.819000	0.634809	0.513975
C37	C	0.236335	0.132693	0.008177
C38	C	0.736335	0.632693	0.508177
C39	C	0.230906	0.142326	0.165079
C40	C	0.730906	0.642326	0.665079
C41	C	0.313567	0.144451	0.170875
C42	C	0.813567	0.644451	0.670875
C43	C	0.357610	0.140686	0.095324
C44	C	0.857610	0.640686	0.595324
N45	N	0.481432	0.139499	0.033811
N46	N	0.981432	0.639499	0.533811
N47	N	0.442100	0.142849	0.101258
N48	N	0.942100	0.642849	0.601258
C49	C	0.927060	-0.043869	0.065105
C50	C	1.427060	0.456131	0.565105
C51	C	0.900934	-0.156245	0.063267
C52	C	1.400934	0.343755	0.563267
C53	C	1.104073	-0.520460	0.077533
C54	C	1.604073	-0.020460	0.577533
C55	C	1.128622	-0.414877	0.079266
C56	C	1.628622	0.085123	0.579266
C57	C	1.071702	-0.350214	0.075266
C58	C	1.571702	0.149786	0.575266
C59	C	0.990230	-0.391144	0.069534
C60	C	1.490230	0.108856	0.569534
C61	C	0.965678	-0.496737	0.067808
C62	C	1.465678	0.003263	0.567808
C63	C	0.933307	-0.326491	0.065541
C64	C	1.433307	0.173509	0.565541
C65	C	0.851835	-0.367422	0.059809
C66	C	1.351835	0.132578	0.559809
C67	C	0.827288	-0.473005	0.058083
C68	C	1.327288	0.026995	0.558083
C69	C	0.884207	-0.537667	0.062083
C70	C	1.384207	-0.037667	0.562083
C71	C	0.957858	-0.220898	0.067266
C72	C	1.457858	0.279102	0.567266
C73	C	0.819463	-0.197176	0.057541
C74	C	1.319463	0.302824	0.557541
C75	C	0.794915	-0.302759	0.055809
C76	C	1.294915	0.197241	0.555809
C77	C	1.104318	0.134203	0.077550
C78	C	1.604318	0.634203	0.577550
C79	C	1.192291	0.136449	0.083723
C80	C	1.692291	0.636449	0.583723
C81	C	0.996477	0.326234	0.069975
C82	C	1.496477	0.826234	0.569975
C83	C	1.022602	0.438610	0.071808
C84	C	1.522602	0.938610	0.571808
N85	N	0.954676	0.153749	0.272342
N86	N	1.454676	0.653749	0.772342
N87	N	0.968865	0.128608	-0.137259
N88	N	1.468865	0.628608	0.362741
C89	C	0.991695	0.087896	0.320337
C90	C	1.491695	0.587896	0.820337
C91	C	0.988571	0.093459	0.410925
C92	C	1.488571	0.593459	0.910925
C93	C	0.948432	0.164882	0.453517
C94	C	1.448432	0.664882	0.953517
C95	C	0.911408	0.230739	0.405515
C96	C	1.411408	0.730739	0.905515
C97	C	0.914528	0.225169	0.314928
C98	C	1.414528	0.725169	0.814928
C99	C	0.934961	0.188895	0.724152
C100	C	1.434961	0.688895	1.224152
C101	C	0.931846	0.194461	0.814746
C102	C	1.431846	0.694461	1.314746
C103	C	1.009008	0.057180	0.820149
C104	C	1.509008	0.557180	1.320149
C105	C	1.012128	0.051621	0.729560
C106	C	1.512128	0.551621	1.229560
C107	C	0.975100	0.117474	0.681566
C108	C	1.475100	0.617474	1.181566
N109	N	0.945240	0.170573	0.546113
N110	N	1.445240	0.670573	1.046113
N111	N	0.978288	0.111777	0.588972
N112	N	1.478288	0.611777	1.088972
H113	H	0.354849	0.131740	-0.047544
H114	H	0.854849	0.631740	0.452456
H115	H	1.024193	-0.187583	0.071933
H116	H	1.524193	0.312417	0.571933
Cl117	Cl	0.881383	0.284261	0.868284
Cl118	Cl	1.381383	0.784261	1.368284
H119	H	1.194956	-0.381559	0.083934
H120	H	1.694956	0.118441	0.583934
H121	H	0.728579	-0.336099	0.051142
H122	H	1.228579	0.163901	0.551142
Cl123	Cl	1.042162	-0.001893	0.266802
Cl124	Cl	1.542162	0.498107	0.766802
Cl125	Cl	0.747902	-0.115892	0.052518
Cl126	Cl	1.247902	0.384108	0.552518
H127	H	0.760947	-0.506326	0.053422
H128	H	1.260947	-0.006326	0.553422
Cl129	Cl	0.175533	0.147053	0.260051
Cl130	Cl	0.675533	0.647053	0.760051
H131	H	1.018714	0.039836	0.450002
H132	H	1.518714	0.539836	0.950002
Cl133	Cl	0.867984	0.307957	0.254592
Cl134	Cl	1.367984	0.807957	0.754592
Cl135	Cl	0.561426	0.130487	-0.138075
Cl136	Cl	1.061426	0.630487	0.361925
Cl137	Cl	0.362107	0.151844	0.273147
Cl138	Cl	0.862107	0.651844	0.773147
H139	H	0.718636	0.154465	0.193141
H140	H	1.218636	0.654465	0.693141
Cl141	Cl	0.888418	0.271683	0.663823
Cl142	Cl	1.388418	0.771683	1.163823
H143	H	0.728495	0.136973	-0.091520
H144	H	1.228495	0.636973	0.408480
H145	H	0.878722	0.288889	0.440198
H146	H	1.378722	0.788889	0.940198
H147	H	0.568680	0.150587	0.182611
H148	H	1.068680	0.650587	0.682611
Cl149	Cl	1.062589	-0.038167	0.676016
Cl150	Cl	1.562589	0.461833	1.176016
Cl151	Cl	0.187792	0.125309	-0.094098
Cl152	Cl	0.687792	0.625309	0.405902
Cl153	Cl	1.102565	-0.217479	0.077438
Cl154	Cl	1.602565	0.282521	0.577438
H155	H	1.039152	0.003565	0.859234
H156	H	1.539152	0.503565	1.359234
H157	H	1.150408	-0.573116	0.080797
H158	H	1.650408	-0.073116	0.580797
H159	H	0.864224	-0.623643	0.060669
H160	H	1.364224	-0.123643	0.560669
