data_functionalizedCrystal
_audit_creation_method	'MofGen! by Chris Wilmer'
_symmetry_space_group_name_H-M	'P1'
_symmetry_Int_Tables_number	1
_symmetry_cell_setting	triclinic
loop_
_symmetry_equiv_pos_as_xyz
  x,y,z
_cell_length_a	17.699083
_cell_length_b	15.944493
_cell_length_c	16.776229
_cell_angle_alpha	89.997542
_cell_angle_beta	89.999727
_cell_angle_gamma	83.379029
loop_
_atom_site_label
_atom_site_type_symbol
_atom_site_fract_x
_atom_site_fract_y
_atom_site_fract_z
O1	O	1.004239	0.106221	0.066166
O2	O	1.504239	0.606221	0.566166
O3	O	0.783881	0.120041	0.066191
O4	O	1.283881	0.620041	0.566191
O5	O	0.900100	-0.009160	0.066184
O6	O	1.400100	0.490840	0.566184
O7	O	0.888020	0.235422	0.066173
O8	O	1.388020	0.735422	0.566173
O9	O	0.900087	-0.009160	-0.066392
O10	O	1.400087	0.490840	0.433608
O11	O	0.783868	0.120041	-0.066386
O12	O	1.283868	0.620041	0.433614
O13	O	1.004226	0.106221	-0.066410
O14	O	1.504226	0.606221	0.433590
Zn15	Zn	0.894045	0.113131	-0.087447
Zn16	Zn	1.394045	0.613131	0.412553
Zn17	Zn	0.894062	0.113131	0.087228
Zn18	Zn	1.394062	0.613131	0.587228
O19	O	0.888007	0.235422	-0.066404
O20	O	1.388007	0.735422	0.433596
C21	C	0.755677	0.119546	-0.000094
C22	C	1.255677	0.619546	0.499906
C23	C	0.671657	0.118060	-0.000084
C24	C	1.171657	0.618060	0.499916
C25	C	0.623151	0.193898	-0.000088
C26	C	1.123151	0.693898	0.499912
C27	C	0.544206	0.192497	-0.000098
C28	C	1.044206	0.692497	0.499902
C29	C	0.513767	0.115257	-0.000099
C30	C	1.013767	0.615257	0.499901
C31	C	0.562279	0.039413	-0.000097
C32	C	1.062279	0.539413	0.499903
C33	C	0.641223	0.040815	-0.000093
C34	C	1.141223	0.540815	0.499907
C35	C	0.243908	0.033759	-0.000117
C36	C	0.743908	0.533759	0.499883
C37	C	0.164958	0.032363	-0.000119
C38	C	0.664958	0.532363	0.499881
C39	C	0.146890	0.185441	-0.000122
C40	C	0.646890	0.685441	0.499878
C41	C	0.225834	0.186843	-0.000118
C42	C	0.725834	0.686843	0.499882
C43	C	0.274339	0.110999	-0.000120
C44	C	0.774339	0.610999	0.499880
C45	C	0.359940	0.112519	-0.000111
C46	C	0.859940	0.612519	0.499889
C47	C	0.428167	0.113737	-0.000103
C48	C	0.928167	0.613737	0.499897
C49	C	0.899600	-0.040454	-0.000100
C50	C	1.399600	0.459546	0.499900
C51	C	0.898120	-0.133699	-0.000090
C52	C	1.398120	0.366301	0.499910
C53	C	0.966529	-0.369603	-0.000113
C54	C	1.466529	0.130397	0.499887
C55	C	0.929645	-0.420093	0.065258
C56	C	1.429645	0.079907	0.565258
C57	C	0.895377	-0.304415	-0.000100
C58	C	1.395377	0.195585	0.499900
C59	C	0.929615	-0.420070	-0.065452
C60	C	1.429615	0.079930	0.434548
C61	C	0.892733	-0.469319	-0.000112
C62	C	1.392733	0.030681	0.499888
C63	C	0.858512	-0.353677	0.065325
C64	C	1.358512	0.146323	0.565325
C65	C	0.858493	-0.353650	-0.065443
C66	C	1.358493	0.146350	0.434557
C67	C	0.821557	-0.404107	-0.000057
C68	C	1.321557	0.095893	0.499943
C69	C	0.896902	-0.209418	-0.000092
C70	C	1.396902	0.290582	0.499908
C71	C	0.891202	-0.564312	-0.000114
C72	C	1.391202	-0.064312	0.499886
C73	C	1.032430	0.106716	-0.000124
C74	C	1.532430	0.606716	0.499876
C75	C	1.116450	0.108202	-0.000129
C76	C	1.616450	0.608202	0.499871
C77	C	0.888507	0.266715	-0.000117
C78	C	1.388507	0.766715	0.499883
C79	C	0.889987	0.359961	-0.000122
C80	C	1.389987	0.859961	0.499878
N81	N	0.894039	0.113130	-0.206659
N82	N	1.394039	0.613130	0.293341
C83	C	0.939931	0.164014	-0.248380
C84	C	1.439931	0.664014	0.251620
C85	C	0.939939	0.164011	-0.331833
C86	C	1.439939	0.664011	0.168167
C87	C	0.894051	0.113127	-0.373561
C88	C	1.394051	0.613127	0.126439
C89	C	0.848157	0.062237	-0.331834
C90	C	1.348157	0.562237	0.168166
C91	C	0.848153	0.062237	-0.248383
C92	C	1.348153	0.562237	0.251617
C93	C	0.848172	0.062239	-0.668381
C94	C	1.348172	0.562239	-0.168381
C95	C	0.848178	0.062245	-0.751838
C96	C	1.348178	0.562245	-0.251838
C97	C	0.939958	0.164012	-0.751830
C98	C	1.439958	0.664012	-0.251830
C99	C	0.939955	0.164012	-0.668380
C100	C	1.439955	0.664012	-0.168380
C101	C	0.894064	0.113119	-0.626659
C102	C	1.394064	0.613119	-0.126659
C103	C	0.894056	0.113122	-0.536171
C104	C	1.394056	0.613122	-0.036171
C105	C	0.894054	0.113128	-0.464048
C106	C	1.394054	0.613128	0.035952
N107	N	0.894075	0.113125	0.206439
N108	N	1.394075	0.613125	0.706439
H109	H	0.140178	-0.030539	-0.000120
H110	H	0.640178	0.469461	0.499880
N111	N	0.967334	-0.456506	0.134579
N112	N	1.467334	0.043494	0.634579
N113	N	0.931684	-0.496104	0.183511
N114	N	1.431684	0.003896	0.683511
H115	H	0.958305	-0.521821	0.232467
H116	H	1.458305	-0.021821	0.732467
H117	H	0.810808	0.020807	-0.785811
H118	H	1.310808	0.520807	-0.285811
N119	N	0.801284	0.010261	-0.625783
N120	N	1.301284	0.510261	-0.125783
N121	N	0.810340	-0.068033	-0.635105
N122	N	1.310340	0.431967	-0.135105
H123	H	0.777216	-0.104740	-0.605021
H124	H	1.277216	0.395260	-0.105021
H125	H	0.828486	-0.324794	0.120650
H126	H	1.328486	0.175206	0.620650
N127	N	0.986826	0.215988	-0.374438
N128	N	1.486826	0.715988	0.125562
N129	N	1.027793	0.261418	-0.337170
N130	N	1.527793	0.761418	0.162830
H131	H	1.060910	0.298128	-0.367259
H132	H	1.560910	0.798128	0.132741
H133	H	0.959673	-0.449064	-0.120714
H134	H	1.459673	0.050936	0.379286
N135	N	0.986827	0.216000	-0.625768
N136	N	1.486827	0.716000	-0.125768
N137	N	1.027799	0.261430	-0.663030
N138	N	1.527799	0.761430	-0.163030
H139	H	1.060905	0.298147	-0.632937
H140	H	1.560905	0.798147	-0.132937
N141	N	0.801286	0.010237	-0.205775
N142	N	1.301286	0.510237	0.294225
N143	N	0.760327	-0.035202	-0.243040
N144	N	1.260327	0.464798	0.256960
H145	H	0.727232	-0.071937	-0.212950
H146	H	1.227232	0.428063	0.287050
H147	H	0.250612	0.249739	-0.000114
H148	H	0.750612	0.749739	0.499886
N149	N	0.744618	-0.423369	-0.000016
N150	N	1.244618	0.076631	0.499984
N151	N	0.720811	-0.464686	-0.056150
N152	N	1.220811	0.035314	0.443850
H153	H	0.666474	-0.478292	-0.056120
H154	H	1.166474	0.021708	0.443880
H155	H	1.027817	-0.354103	-0.000054
H156	H	1.527817	0.145897	0.499946
N157	N	0.097331	0.262908	-0.000122
N158	N	0.597331	0.762908	0.499878
N159	N	0.026847	0.261652	-0.000127
N160	N	0.526847	0.761652	0.499873
H161	H	-0.008154	0.316361	-0.000124
H162	H	0.491846	0.816361	0.499876
N163	N	0.293436	-0.043718	-0.000116
N164	N	0.793436	0.456282	0.499884
N165	N	0.266246	-0.112675	-0.000112
N166	N	0.766246	0.387325	0.499888
H167	H	0.301229	-0.167398	-0.000110
H168	H	0.801229	0.332602	0.499890
N169	N	0.494655	0.269962	-0.000122
N170	N	0.994655	0.769962	0.499878
N171	N	0.448602	0.286255	-0.056021
N172	N	0.948602	0.786255	0.443979
H173	H	0.413608	0.340969	-0.056045
H174	H	0.913608	0.840969	0.443955
N175	N	0.801282	0.010272	-0.374470
N176	N	1.301282	0.510272	0.125530
N177	N	0.751242	0.043147	-0.421039
N178	N	1.251242	0.543147	0.078961
H179	H	0.718134	0.006448	-0.451152
H180	H	1.218134	0.506448	0.048848
H181	H	0.537490	-0.023477	-0.000109
H182	H	1.037490	0.476523	0.499891
H183	H	0.680716	-0.020940	-0.000089
H184	H	1.180716	0.479060	0.499911
N185	N	0.820828	-0.317247	-0.134775
N186	N	1.320828	0.182753	0.365225
N187	N	0.845096	-0.338703	-0.202602
N188	N	1.345096	0.161297	0.297398
H189	H	0.818500	-0.312994	-0.251574
H190	H	1.318500	0.187006	0.248426
H191	H	0.977327	0.205450	-0.785809
H192	H	1.477327	0.705450	-0.285809
N193	N	0.654227	0.272806	-0.000080
N194	N	1.154227	0.772806	0.499920
N195	N	0.610905	0.340512	-0.000085
N196	N	1.110905	0.840512	0.499915
H197	H	0.632849	0.396244	-0.000082
H198	H	1.132849	0.896244	0.499918
N199	N	0.986812	0.215994	-0.205771
N200	N	1.486812	0.715994	0.294229
N201	N	1.027790	0.261415	-0.243037
N202	N	1.527790	0.761415	0.256963
H203	H	1.060906	0.298124	-0.212947
H204	H	1.560906	0.798124	0.287053
