data_functionalizedCrystal
_audit_creation_method	'MofGen! by Chris Wilmer'
_symmetry_space_group_name_H-M	'P1'
_symmetry_Int_Tables_number	1
_symmetry_cell_setting	triclinic
loop_
_symmetry_equiv_pos_as_xyz
  x,y,z
_cell_length_a	10.723024
_cell_length_b	17.038272
_cell_length_c	9.198806
_cell_angle_alpha	89.996565
_cell_angle_beta	89.996352
_cell_angle_gamma	87.789713
loop_
_atom_site_label
_atom_site_type_symbol
_atom_site_fract_x
_atom_site_fract_y
_atom_site_fract_z
O1	O	1.667337	0.109720	-0.120885
O2	O	1.305156	0.120222	-0.120890
O3	O	1.484094	0.001144	-0.120876
O4	O	1.488399	0.228799	-0.120899
O5	O	1.484079	0.001144	0.120909
O6	O	1.305141	0.120222	0.120895
O7	O	1.667322	0.109720	0.120900
Cu8	Cu	1.486230	0.114971	0.142975
Cu9	Cu	1.486248	0.114971	-0.142964
O10	O	1.488384	0.228798	0.120886
C11	C	1.258578	0.119458	0.000002
C12	C	1.119813	0.117171	0.000000
C13	C	1.050993	0.183801	-0.000007
C14	C	0.907571	0.181440	-0.000009
C15	C	1.480171	-0.028006	0.000016
C16	C	1.468489	-0.114864	0.000016
C17	C	1.575744	-0.164385	0.000019
C18	C	1.564760	-0.245996	0.000005
C19	C	1.446520	-0.278084	-0.000002
C20	C	1.339256	-0.228557	-0.000009
C21	C	1.350241	-0.146947	-0.000006
C22	C	1.407711	-0.524057	-0.000022
C23	C	1.396734	-0.605673	-0.000021
C24	C	1.622239	-0.623107	-0.000010
C25	C	1.633214	-0.541495	0.000002
C26	C	1.525950	-0.491974	-0.000013
C27	C	1.435289	-0.361504	-0.000011
C28	C	1.537182	-0.408556	-0.000014
C29	C	1.713900	0.110484	0.000005
C30	C	1.852666	0.112771	-0.000003
C31	C	1.492307	0.257948	-0.000009
C32	C	1.503989	0.344806	-0.000018
N33	N	1.486226	0.114970	0.344089
N34	N	1.486261	0.114966	-0.344078
C35	C	1.561337	0.064752	0.416291
C36	C	1.561356	0.064749	0.583704
H37	H	0.911814	0.055727	-0.000005
O38	O	1.760750	-0.506891	0.000012
H39	H	1.750368	-0.441823	0.000031
O40	O	1.401072	0.171915	0.573679
H41	H	1.423703	0.232962	0.602781
O42	O	1.057231	0.039286	0.000017
H43	H	0.998178	0.034944	-0.098534
H44	H	1.672028	-0.138265	0.000033
H45	H	1.421931	0.157959	0.406212
H46	H	1.652100	-0.286314	0.000011
H47	H	0.848415	0.238480	-0.000021
O48	O	1.737928	-0.676515	-0.000003
H49	H	1.710431	-0.738655	-0.000017
O50	O	1.269198	-0.640287	-0.000045
H51	H	1.196454	-0.592143	-0.000071
O52	O	1.664713	-0.373954	-0.000013
H53	H	1.675101	-0.337197	0.098541
H54	H	1.320369	-0.483747	-0.000034
O55	O	1.211720	-0.263160	-0.000001
H56	H	1.222098	-0.328228	0.000018
H57	H	1.098254	0.242594	-0.000005
H58	H	1.262902	-0.106627	-0.000008
H59	H	1.339017	-0.387640	-0.000014
H60	H	1.625624	0.021757	0.354170
O61	O	1.646541	0.007793	0.665933
H62	H	1.633182	0.016725	0.784521
