data_functionalizedCrystal
_audit_creation_method	'MofGen! by Chris Wilmer'
_symmetry_space_group_name_H-M	'P1'
_symmetry_Int_Tables_number	1
_symmetry_cell_setting	triclinic
loop_
_symmetry_equiv_pos_as_xyz
  x,y,z
_cell_length_a	11.792254
_cell_length_b	14.044209
_cell_length_c	10.868271
_cell_angle_alpha	89.995960
_cell_angle_beta	90.004308
_cell_angle_gamma	91.306725
loop_
_atom_site_label
_atom_site_type_symbol
_atom_site_fract_x
_atom_site_fract_y
_atom_site_fract_z
O1	O	1.519107	-0.130040	0.102330
O2	O	2.019107	0.369960	0.602330
O3	O	1.190024	-0.143424	0.102334
O4	O	1.690024	0.356576	0.602334
O5	O	1.349627	0.001279	0.102314
O6	O	1.849627	0.501279	0.602314
O7	O	1.359504	-0.274742	0.102349
O8	O	1.859504	0.225258	0.602349
O9	O	1.349612	0.001274	-0.102330
O10	O	1.849612	0.501274	0.397670
O11	O	1.190009	-0.143428	-0.102311
O12	O	1.690009	0.356572	0.397689
O13	O	1.519092	-0.130044	-0.102315
O14	O	2.019092	0.369956	0.397685
Zn15	Zn	1.354548	-0.136737	-0.134805
Zn16	Zn	1.854548	0.363263	0.365195
Zn17	Zn	1.354568	-0.136731	0.134824
Zn18	Zn	1.854568	0.363269	0.634824
O19	O	1.359488	-0.274747	-0.102295
O20	O	1.859488	0.225253	0.397705
C21	C	1.147647	-0.142583	0.000011
C22	C	1.647647	0.357417	0.500011
C23	C	1.021397	-0.140059	0.000012
C24	C	1.521397	0.359941	0.500012
C25	C	0.918868	-0.138009	0.000017
C26	C	1.418868	0.361991	0.500017
C27	C	0.790240	-0.135445	0.000018
C28	C	1.290240	0.364555	0.500018
C29	C	1.345296	0.036613	-0.000010
C30	C	1.845296	0.536613	0.499990
C31	C	1.332398	0.141906	-0.000015
C32	C	1.832398	0.641906	0.499985
C33	C	1.308818	0.334690	-0.000005
C34	C	1.808818	0.834690	0.499995
C35	C	1.400303	0.391849	-0.000004
C36	C	1.900303	0.891849	0.499996
C37	C	1.387182	0.499121	0.000002
C38	C	1.887182	0.999121	0.500002
C39	C	1.321936	0.227408	-0.000011
C40	C	1.821936	0.727408	0.499989
C41	C	1.561469	-0.130885	0.000010
C42	C	2.061469	0.369115	0.500010
C43	C	1.687719	-0.133409	0.000018
C44	C	2.187719	0.366591	0.500018
C45	C	1.363823	0.689919	0.000022
C46	C	1.863823	1.189919	0.500022
C47	C	1.376728	0.584627	0.000006
C48	C	1.876728	1.084627	0.500006
N49	N	1.354542	-0.136741	-0.318819
N50	N	1.854542	0.363259	0.181181
C51	C	1.354551	-0.136741	-0.430156
C52	C	1.854551	0.363259	0.069844
C53	C	1.354565	-0.136732	-0.569834
C54	C	1.854565	0.363268	-0.069834
N55	N	1.354582	-0.136720	0.318838
N56	N	1.854582	0.363280	0.818838
H57	H	1.488479	0.360222	0.000079
H58	H	1.988479	0.860222	0.500079
H59	H	1.220648	0.366315	-0.000002
H60	H	1.720648	0.866315	0.499998
