data_functionalizedCrystal
_audit_creation_method	'MofGen! by Chris Wilmer'
_symmetry_space_group_name_H-M	'P1'
_symmetry_Int_Tables_number	1
_symmetry_cell_setting	triclinic
loop_
_symmetry_equiv_pos_as_xyz
  x,y,z
_cell_length_a	11.792241
_cell_length_b	15.944493
_cell_length_c	10.268362
_cell_angle_alpha	90.000590
_cell_angle_beta	89.999626
_cell_angle_gamma	83.834229
loop_
_atom_site_label
_atom_site_type_symbol
_atom_site_fract_x
_atom_site_fract_y
_atom_site_fract_z
O1	O	1.505928	0.115131	-0.108156
O2	O	2.005928	0.615131	0.391844
O3	O	1.175486	0.126997	-0.108184
O4	O	1.675486	0.626997	0.391816
O5	O	1.349765	-0.001173	-0.108180
O6	O	1.849765	0.498827	0.391820
O7	O	1.331649	0.243301	-0.108160
O8	O	1.831649	0.743301	0.391840
O9	O	1.349750	-0.001179	0.108421
O10	O	1.849750	0.498821	0.608421
O11	O	1.175471	0.126991	0.108417
O12	O	1.675471	0.626991	0.608417
O13	O	1.505913	0.115126	0.108445
O14	O	2.005913	0.615126	0.608445
Cu15	Cu	1.340690	0.121058	0.128208
Cu16	Cu	1.840690	0.621058	0.628208
Cu17	Cu	1.340708	0.121064	-0.127947
Cu18	Cu	1.840708	0.621064	0.372053
O19	O	1.331634	0.243296	0.108441
O20	O	1.831634	0.743296	0.608441
C21	C	1.133194	0.126249	0.000112
C22	C	1.633194	0.626249	0.500112
C23	C	1.007199	0.124018	0.000101
C24	C	1.507199	0.624018	0.500101
C25	C	1.349017	-0.032474	0.000115
C26	C	1.849017	0.467526	0.500115
C27	C	1.346797	-0.125733	0.000098
C28	C	1.846797	0.374267	0.500098
C29	C	0.776522	0.119916	0.000138
C30	C	1.276522	0.619916	0.500138
C31	C	0.904887	0.122195	0.000117
C32	C	1.404887	0.622195	0.500117
C33	C	1.449381	-0.361030	0.000132
C34	C	1.949381	0.138970	0.500132
C35	C	1.394069	-0.411845	-0.106668
C36	C	1.894069	0.088155	0.393332
C37	C	1.342684	-0.296472	0.000114
C38	C	1.842684	0.203528	0.500114
C39	C	1.394029	-0.411826	0.106883
C40	C	1.894029	0.088174	0.606883
C41	C	1.338719	-0.461400	0.000135
C42	C	1.838719	0.038600	0.500135
C43	C	1.287400	-0.346059	-0.106774
C44	C	1.787400	0.153941	0.393226
C45	C	1.287376	-0.346037	0.106873
C46	C	1.787376	0.153963	0.606873
C47	C	1.231985	-0.396820	0.000048
C48	C	1.731985	0.103180	0.500048
C49	C	1.344971	-0.201462	0.000101
C50	C	1.844971	0.298538	0.500101
C51	C	1.336423	-0.556407	0.000138
C52	C	1.836423	-0.056407	0.500138
C53	C	1.548205	0.115874	0.000146
C54	C	2.048205	0.615874	0.500146
C55	C	1.674200	0.118105	0.000149
C56	C	2.174200	0.618105	0.500149
C57	C	1.332382	0.274597	0.000143
C58	C	1.832382	0.774597	0.500143
C59	C	1.334602	0.367855	0.000152
C60	C	1.834602	0.867855	0.500152
N61	N	1.340686	0.121053	0.308374
N62	N	1.840686	0.621053	0.808374
N63	N	1.340721	0.121063	-0.308113
N64	N	1.840721	0.621063	0.191887
C65	C	1.340702	0.121063	0.574045
C66	C	1.840702	0.621063	1.074045
C67	C	1.340690	0.121060	0.426207
C68	C	1.840690	0.621060	0.926207
H69	H	1.541288	-0.344986	0.000032
H70	H	2.041288	0.155014	0.500032
C71	C	1.226583	-0.307401	-0.228894
C72	C	1.726583	0.192599	0.271106
N73	N	1.180781	-0.278281	-0.320875
N74	N	1.680781	0.221719	0.179125
H75	H	1.242348	-0.317282	0.197161
H76	H	1.742348	0.182718	0.697161
H77	H	1.140007	-0.412701	-0.000019
H78	H	1.640007	0.087299	0.499981
C79	C	1.454953	-0.450680	-0.228631
C80	C	1.954953	0.049320	0.271369
N81	N	1.500819	-0.479930	-0.320488
N82	N	2.000819	0.020070	0.179512
H83	H	1.439105	-0.440556	0.197168
H84	H	1.939105	0.059444	0.697168
