data_functionalizedCrystal
_audit_creation_method	'MofGen! by Chris Wilmer'
_symmetry_space_group_name_H-M	'P1'
_symmetry_Int_Tables_number	1
_symmetry_cell_setting	triclinic
loop_
_symmetry_equiv_pos_as_xyz
  x,y,z
_cell_length_a	25.639242
_cell_length_b	16.120484
_cell_length_c	16.120297
_cell_angle_alpha	84.385569
_cell_angle_beta	92.869733
_cell_angle_gamma	87.078463
loop_
_atom_site_label
_atom_site_type_symbol
_atom_site_fract_x
_atom_site_fract_y
_atom_site_fract_z
Zn1	Zn	0.772386	0.356854	-0.489650
Zn2	Zn	1.272386	0.856854	0.010350
Zn3	Zn	0.772320	0.489544	-0.356960
Zn4	Zn	1.272320	0.989544	0.143040
Zn5	Zn	0.689623	0.349779	-0.349875
Zn6	Zn	1.189623	0.849779	0.150125
Zn7	Zn	0.680262	0.496572	-0.496659
Zn8	Zn	1.180262	0.996572	0.003341
O9	O	0.728648	0.423187	-0.423286
O10	O	1.228648	0.923187	0.076714
O11	O	0.845541	0.374475	-0.472080
O12	O	1.345541	0.874475	0.027920
O13	O	0.765240	0.465101	-0.239059
O14	O	1.265240	0.965101	0.260941
O15	O	0.704547	0.233753	-0.362517
O16	O	1.204547	0.733753	0.137483
O17	O	0.845493	0.471962	-0.374593
O18	O	1.345493	0.971962	0.125407
O19	O	0.765353	0.238951	-0.465209
O20	O	1.265353	0.738951	0.034791
O21	O	0.704483	0.362416	-0.233854
O22	O	1.204483	0.862416	0.266146
O23	O	0.615218	0.369231	-0.369314
O24	O	1.115218	0.869231	0.130686
O25	O	0.688592	0.483941	-0.612690
O26	O	1.188592	0.983941	-0.112690
O27	O	0.608340	0.477080	-0.477156
O28	O	1.108340	0.977080	0.022844
O29	O	0.756276	0.381290	-0.607540
O30	O	1.256276	0.881290	-0.107540
O31	O	0.756163	0.607441	-0.381390
O32	O	1.256163	1.107441	0.118610
O33	O	0.688528	0.612605	-0.484027
O34	O	1.188528	1.112605	0.015973
C35	C	0.721336	0.640351	-0.434256
C36	C	1.221336	1.140351	0.065744
C37	C	0.718255	0.733256	-0.438977
C38	C	1.218255	1.233256	0.061023
C39	C	0.592808	0.423151	-0.423228
C40	C	1.092808	0.923151	0.076772
C41	C	0.534694	0.423157	-0.423223
C42	C	1.034694	0.923157	0.076777
C43	C	0.721397	0.434189	-0.641290
C44	C	1.221397	0.934189	-0.141290
C45	C	0.718307	0.438877	-0.734190
C46	C	1.218307	0.938877	-0.234190
C47	C	0.170755	0.479431	-0.479393
C48	C	0.670755	0.979431	0.020607
C49	C	0.116150	0.479436	-0.479406
C50	C	0.616150	0.979436	0.020594
O51	O	0.084875	0.527239	-0.527114
O52	O	0.584875	1.027239	-0.027114
N53	N	0.092406	0.423213	-0.423342
N54	N	0.592406	0.923213	0.076658
C55	C	0.123271	0.366974	-0.367265
C56	C	0.623271	0.866974	0.132735
O57	O	0.098061	0.319152	-0.319579
O58	O	0.598061	0.819152	0.180421
C59	C	0.177874	0.366965	-0.367256
C60	C	0.677874	0.866965	0.132744
C61	C	0.201615	0.423198	-0.423319
C62	C	0.701615	0.923198	0.076681
C63	C	0.194495	0.535658	-0.535452
C64	C	0.694495	1.035658	-0.035452
C65	C	0.249097	0.535653	-0.535437
C66	C	0.749097	1.035653	-0.035437
C67	C	0.279957	0.479421	-0.479364
C68	C	0.779957	0.979421	0.020636
C69	C	0.256216	0.423193	-0.423305
C70	C	0.756216	0.923193	0.076695
C71	C	0.208738	0.310723	-0.311185
C72	C	0.708738	0.810723	0.188815
C73	C	0.263345	0.310718	-0.311181
C74	C	0.763345	0.810718	0.188819
C75	C	0.287086	0.366951	-0.367244
C76	C	0.787086	0.866951	0.132756
C77	C	0.341678	0.366955	-0.367216
C78	C	0.841678	0.866955	0.132784
N79	N	0.365421	0.423179	-0.423281
N80	N	0.865421	0.923179	0.076719
C81	C	0.334561	0.479412	-0.479355
C82	C	0.834561	0.979412	0.020645
C83	C	0.008598	0.366997	-0.367289
C84	C	0.508598	0.866997	0.132711
C85	C	-0.046004	0.367009	-0.367293
C86	C	0.453996	0.867009	0.132707
C87	C	-0.053122	0.479471	-0.479436
C88	C	0.446878	0.979471	0.020564
C89	C	0.001482	0.479461	-0.479427
C90	C	0.501482	0.979461	0.020573
C91	C	0.032342	0.423220	-0.423354
C92	C	0.532342	0.923220	0.076646
C93	C	0.449227	0.479397	-0.479319
C94	C	0.949227	0.979397	0.020681
C95	C	0.503834	0.479390	-0.479297
C96	C	1.003834	0.979390	0.020703
C97	C	0.510946	0.366926	-0.367158
C98	C	1.010946	0.866926	0.132842
C99	C	0.456345	0.366936	-0.367177
C100	C	0.956345	0.866936	0.132823
C101	C	0.425486	0.423175	-0.423264
C102	C	0.925486	0.923175	0.076736
O103	O	0.372985	0.319175	-0.319535
O104	O	0.872985	0.819175	0.180465
O105	O	0.359778	0.527219	-0.527040
O106	O	0.859778	1.027219	-0.027040
C107	C	0.865018	0.423224	-0.423345
C108	C	1.365018	0.923224	0.076655
C109	C	0.923130	0.423239	-0.423370
C110	C	1.423130	0.923239	0.076630
C111	C	0.736001	0.205176	-0.412291
C112	C	1.236001	0.705176	0.087709
C113	C	0.739135	0.112273	-0.407606
C114	C	1.239135	0.612273	0.092394
C115	C	0.712633	0.903356	-0.447614
C116	C	1.212633	1.403356	0.052386
C117	C	0.744756	0.942179	-0.398972
C118	C	1.244756	1.442179	0.101028
C119	C	0.741627	1.036828	-0.403777
C120	C	1.241627	1.536828	0.096223
C121	C	0.715761	0.808698	-0.442809
C122	C	1.215761	1.308698	0.057191
C123	C	0.712647	0.447418	-0.904279
C124	C	1.212647	0.947418	-0.404279
C125	C	0.744760	0.398706	-0.943132
C126	C	1.244760	0.898706	-0.443132
C127	C	0.741610	0.403458	-1.037775
C128	C	1.241610	0.903458	-0.537775
C129	C	0.715796	0.442667	-0.809627
C130	C	1.215796	0.942667	-0.309627
C131	C	0.735902	0.412168	-0.206127
C132	C	1.235902	0.912168	0.293873
C133	C	0.739101	0.407244	-0.113215
C134	C	1.239101	0.907244	0.386785
H135	H	0.523160	0.525185	-0.524951
H136	H	1.023160	1.025185	-0.024951
Br137	Br	0.662882	0.966431	-0.523034
Br138	Br	1.162882	1.466431	-0.023034
H139	H	0.536082	0.321145	-0.321502
H140	H	1.036082	0.821145	0.178498
Br141	Br	-0.078217	0.290703	-0.291192
Br142	Br	0.421783	0.790703	0.208808
H143	H	0.774616	0.353432	-0.905316
H144	H	1.274616	0.853432	-0.405316
H145	H	0.774606	0.904332	-0.353718
H146	H	1.274606	1.404332	0.146282
H147	H	0.424109	0.525191	-0.524993
H148	H	0.924109	1.025191	-0.024993
Br149	Br	0.281307	0.611970	-0.611530
Br150	Br	0.781307	1.111970	-0.111530
Br151	Br	0.662887	0.522875	-0.967305
Br152	Br	1.162887	1.022875	-0.467305
H153	H	0.169374	0.581450	-0.581119
H154	H	0.669374	1.081450	-0.081119
Br155	Br	0.033696	0.555780	-0.555515
Br156	Br	0.533696	1.055780	-0.055515
Br157	Br	0.176533	0.234397	-0.235099
Br158	Br	0.676533	0.734397	0.264901
Br159	Br	-0.095014	0.555781	-0.555543
Br160	Br	0.404986	1.055781	-0.055543
Br161	Br	0.050474	0.290667	-0.291178
Br162	Br	0.550474	0.790667	0.208822
Br163	Br	0.424124	0.290635	-0.291076
Br164	Br	0.924124	0.790635	0.208924
Br165	Br	0.305223	0.234384	-0.235080
Br166	Br	0.805223	0.734384	0.264920
