data_functionalizedCrystal
_audit_creation_method	'MofGen! by Chris Wilmer'
_symmetry_space_group_name_H-M	'P1'
_symmetry_Int_Tables_number	1
_symmetry_cell_setting	triclinic
loop_
_symmetry_equiv_pos_as_xyz
  x,y,z
_cell_length_a	8.559649
_cell_length_b	10.268362
_cell_length_c	8.559649
_cell_angle_alpha	89.996385
_cell_angle_beta	110.221336
_cell_angle_gamma	90.004416
loop_
_atom_site_label
_atom_site_type_symbol
_atom_site_fract_x
_atom_site_fract_y
_atom_site_fract_z
O1	O	2.126881	0.108280	0.055034
O2	O	2.626881	0.608280	0.555034
O3	O	1.651397	0.108285	-0.028747
O4	O	2.151397	0.608285	0.471253
O5	O	1.931030	0.108281	0.250886
O6	O	2.431030	0.608281	0.750886
O7	O	1.847248	0.108284	-0.224599
O8	O	2.347248	0.608284	0.275401
O9	O	1.931009	-0.108320	0.250893
O10	O	2.431009	0.391680	0.750893
O11	O	1.651376	-0.108316	-0.028740
O12	O	2.151376	0.391684	0.471260
O13	O	2.126861	-0.108321	0.055041
O14	O	2.626861	0.391679	0.555041
Cu15	Cu	1.889117	-0.128096	0.013151
Cu16	Cu	2.389117	0.371904	0.513151
Cu17	Cu	1.889141	0.128060	0.013143
Cu18	Cu	2.389141	0.628060	0.513143
O19	O	1.847228	-0.108317	-0.224592
O20	O	2.347228	0.391683	0.275408
C21	C	1.591077	-0.000015	-0.035093
C22	C	2.091077	0.499985	0.464907
C23	C	1.411378	-0.000013	-0.053992
C24	C	1.911378	0.499987	0.446008
N25	N	1.889112	-0.308262	0.013160
N26	N	2.389112	0.191738	0.513160
C27	C	1.889133	-0.573932	0.013145
C28	C	2.389133	-0.073932	0.513145
C29	C	1.889115	-0.426094	0.013148
C30	C	2.389115	0.073906	0.513148
C31	C	2.187180	-0.000018	0.061387
C32	C	2.687180	0.499982	0.561387
C33	C	2.366879	-0.000012	0.080286
C34	C	2.866879	0.499988	0.580286
C35	C	1.937369	-0.000017	0.311198
C36	C	2.437369	0.499983	0.811198
C37	C	1.956268	-0.000010	0.490898
C38	C	2.456268	0.499990	0.990898
N39	N	1.889160	0.308226	0.013148
N40	N	2.389160	0.808226	0.513148
C41	C	1.840889	-0.000016	-0.284904
C42	C	2.340889	0.499984	0.215096
C43	C	1.821990	-0.000014	-0.464604
C44	C	2.321990	0.499986	0.035396
H45	H	1.311990	-0.000005	-0.183420
H46	H	1.811990	0.499995	0.316580
H47	H	1.692570	-0.000017	0.436018
H48	H	2.192570	0.499983	0.936018
H49	H	2.085696	-0.000022	0.590286
H50	H	2.585696	0.499978	1.090286
H51	H	1.466258	-0.000006	0.209705
H52	H	1.966258	0.499994	0.709705
