data_functionalizedCrystal
_audit_creation_method	'MofGen! by Chris Wilmer'
_symmetry_space_group_name_H-M	'P1'
_symmetry_Int_Tables_number	1
_symmetry_cell_setting	triclinic
loop_
_symmetry_equiv_pos_as_xyz
  x,y,z
_cell_length_a	10.654550
_cell_length_b	10.065875
_cell_length_c	11.026660
_cell_angle_alpha	79.267252
_cell_angle_beta	96.534869
_cell_angle_gamma	98.836321
loop_
_atom_site_label
_atom_site_type_symbol
_atom_site_fract_x
_atom_site_fract_y
_atom_site_fract_z
O1	O	1.719291	0.113602	0.153033
O2	O	1.357341	0.113580	0.169306
O3	O	1.508320	0.113588	-0.015735
O4	O	1.568312	0.113594	0.338073
O5	O	1.479563	-0.113402	0.019693
O6	O	1.328584	-0.113410	0.204733
O7	O	1.690534	-0.113388	0.188460
Zn8	Zn	1.504993	-0.149439	0.202222
Zn9	Zn	1.542882	0.149631	0.155545
O10	O	1.539555	-0.113396	0.373501
C11	C	1.295905	0.000082	0.185826
C12	C	1.155685	0.000073	0.182253
N13	N	1.479144	-0.353546	0.234077
C14	C	1.482874	0.000095	-0.043325
C15	C	1.449881	0.000100	-0.178317
C16	C	1.099850	0.000095	0.291198
C17	C	0.968102	0.000119	0.287828
C18	C	0.948034	0.000104	0.066559
C19	C	1.079779	0.000071	0.069931
C20	C	1.175756	0.000097	0.403519
C21	C	1.119922	0.000121	0.512473
C22	C	0.988174	0.000144	0.509103
C23	C	0.912259	0.000145	0.396781
C24	C	1.751970	0.000113	0.171940
C25	C	1.892192	0.000130	0.175512
C26	C	1.533879	-0.421322	0.166620
C27	C	1.513996	-0.578490	0.191146
N28	N	1.568739	0.353738	0.123680
C29	C	1.506893	0.000099	-0.390876
C30	C	1.540997	0.000105	-0.251357
C31	C	1.565002	0.000100	0.401091
C32	C	1.597995	0.000103	0.536081
H33	H	1.181739	0.000109	0.603923
H34	H	1.630318	-0.587938	0.047760
H35	H	1.452406	-0.636814	0.267057
H36	H	1.701244	0.000160	-0.423171
N37	N	1.370129	0.000080	-0.444839
H38	H	1.337460	0.084221	-0.430043
H39	H	1.365250	0.000024	-0.536839
N40	N	1.313108	0.000091	-0.232264
H41	H	1.306001	0.084234	-0.297433
H42	H	1.284765	-0.084113	-0.271094
N43	N	0.927937	0.000082	0.626622
H44	H	0.996015	0.000054	0.698287
H45	H	0.884365	0.084218	0.616954
H46	H	0.804979	0.000142	0.394050
H47	H	1.417558	-0.411875	0.309983
H48	H	1.283034	0.000085	0.406274
H49	H	0.886217	0.000127	-0.024892
H50	H	1.125241	0.000057	-0.018782
N51	N	1.615441	-0.344046	0.066068
H52	H	1.704815	-0.368803	0.084461
H53	H	1.577982	-0.368871	-0.016399
N54	N	1.677765	0.000114	-0.197395
H55	H	1.682741	0.000114	-0.105376
H56	H	1.710345	-0.084036	-0.212281
