data_functionalizedCrystal
_audit_creation_method	'MofGen! by Chris Wilmer'
_symmetry_space_group_name_H-M	'P1'
_symmetry_Int_Tables_number	1
_symmetry_cell_setting	triclinic
loop_
_symmetry_equiv_pos_as_xyz
  x,y,z
_cell_length_a	14.853558
_cell_length_b	14.853559
_cell_length_c	15.186229
_cell_angle_alpha	89.998446
_cell_angle_beta	89.997168
_cell_angle_gamma	83.631294
loop_
_atom_site_label
_atom_site_type_symbol
_atom_site_fract_x
_atom_site_fract_y
_atom_site_fract_z
O1	O	1.196365	0.117664	-0.073213
O2	O	1.696365	0.617664	0.426787
O3	O	0.933904	0.131694	-0.073217
O4	O	1.433904	0.631694	0.426783
O5	O	1.072149	-0.006552	-0.073214
O6	O	1.572149	0.493448	0.426786
O7	O	1.058120	0.255909	-0.073216
O8	O	1.558120	0.755909	0.426784
O9	O	1.072140	-0.006554	0.073243
O10	O	1.572140	0.493446	0.573243
O11	O	0.933895	0.131692	0.073240
O12	O	1.433895	0.631692	0.573240
O13	O	1.196356	0.117662	0.073244
O14	O	1.696356	0.617662	0.573244
Zn15	Zn	1.065124	0.124676	0.096495
Zn16	Zn	1.565124	0.624676	0.596495
Zn17	Zn	1.065136	0.124679	-0.096468
Zn18	Zn	1.565136	0.624679	0.403532
O19	O	1.058110	0.255907	0.073241
O20	O	1.558110	0.755907	0.573241
C21	C	0.900310	0.131059	0.000011
C22	C	1.400310	0.631059	0.500011
C23	C	0.800226	0.129158	0.000010
C24	C	1.300226	0.629158	0.500010
C25	C	0.753211	0.128268	-0.079828
C26	C	1.253211	0.628268	0.420172
C27	C	0.753200	0.128255	0.079846
C28	C	1.253200	0.628255	0.579846
C29	C	0.659166	0.126465	0.079847
C30	C	1.159166	0.626465	0.579847
C31	C	0.612151	0.125574	0.000010
C32	C	1.112151	0.625574	0.500010
C33	C	0.659169	0.126475	-0.079829
C34	C	1.159169	0.626475	0.420171
C35	C	0.612142	0.125555	0.159684
C36	C	1.112142	0.625555	0.659684
C37	C	0.518102	0.123764	0.159689
C38	C	1.018102	0.623764	0.659689
C39	C	0.471085	0.122880	0.079851
C40	C	0.971085	0.622880	0.579851
C41	C	0.518109	0.123781	0.000009
C42	C	1.018109	0.623781	0.500009
C43	C	0.471094	0.122891	-0.079828
C44	C	0.971094	0.622891	0.420172
C45	C	0.518115	0.123799	-0.159671
C46	C	1.018115	0.623799	0.340329
C47	C	0.612152	0.125591	-0.159667
C48	C	1.112152	0.625591	0.340333
C49	C	0.377048	0.121088	0.079847
C50	C	0.877048	0.621088	0.579847
C51	C	0.377052	0.121098	-0.079829
C52	C	0.877052	0.621098	0.420171
C53	C	1.071510	-0.040142	0.000013
C54	C	1.571510	0.459858	0.500013
C55	C	1.069609	-0.140226	0.000008
C56	C	1.569609	0.359774	0.500008
C57	C	1.061551	-0.563399	-0.079826
C58	C	1.561551	-0.063399	0.420174
C59	C	1.061541	-0.563396	0.079847
C60	C	1.561541	-0.063396	0.579847
C61	C	1.063334	-0.469363	0.079848
C62	C	1.563334	0.030637	0.579848
C63	C	1.064234	-0.422343	0.000010
C64	C	1.564234	0.077657	0.500010
C65	C	1.063342	-0.469357	-0.079828
C66	C	1.563342	0.030643	0.420172
C67	C	1.064218	-0.422341	0.159685
C68	C	1.564218	0.077659	0.659685
C69	C	1.066010	-0.328302	0.159689
C70	C	1.566010	0.171698	0.659689
C71	C	1.066917	-0.281282	0.079850
C72	C	1.566917	0.218718	0.579850
C73	C	1.066025	-0.328301	0.000009
C74	C	1.566025	0.171699	0.500009
C75	C	1.066926	-0.281282	-0.079829
C76	C	1.566926	0.218718	0.420171
C77	C	1.066040	-0.328300	-0.159671
C78	C	1.566040	0.171700	0.340329
C79	C	1.064249	-0.422337	-0.159666
C80	C	1.564249	0.077663	0.340334
C81	C	1.068709	-0.187245	0.079845
C82	C	1.568709	0.312755	0.579845
C83	C	1.068717	-0.187239	-0.079830
C84	C	1.568717	0.312761	0.420170
C85	C	1.229949	0.118297	0.000014
C86	C	1.729949	0.618297	0.500014
C87	C	1.330033	0.120197	0.000010
C88	C	1.830033	0.620197	0.500010
C89	C	1.058749	0.289497	0.000012
C90	C	1.558749	0.789497	0.500012
C91	C	1.060650	0.389581	0.000011
C92	C	1.560650	0.889581	0.500011
N93	N	1.065122	0.124674	0.228188
N94	N	1.565122	0.624674	0.728188
N95	N	1.065145	0.124674	-0.228161
N96	N	1.565145	0.624674	0.271839
C97	C	1.126358	0.063480	0.453912
C98	C	1.626358	0.563480	0.953912
C99	C	1.126361	0.063477	0.546102
C100	C	1.626361	0.563477	1.046102
C101	C	1.003902	0.185872	0.546108
C102	C	1.503902	0.685872	1.046108
C103	C	1.003896	0.185869	0.453920
C104	C	1.503896	0.685869	0.953920
C105	C	1.065129	0.124674	0.407825
C106	C	1.565129	0.624674	0.907825
C107	C	1.065138	0.124675	0.592202
C108	C	1.565138	0.624675	1.092202
C109	C	1.065141	0.124673	0.692158
C110	C	1.565141	0.624673	1.192158
C111	C	1.065125	0.124674	0.307862
C112	C	1.565125	0.624674	0.807862
H113	H	0.791486	0.128973	0.144846
H114	H	1.291486	0.628973	0.644846
H115	H	1.060801	-0.601684	0.144847
H116	H	1.560801	-0.101684	0.644847
C117	C	0.936577	0.253231	0.403221
C118	C	1.436577	0.753231	0.903221
N119	N	0.885887	0.303980	0.365034
N120	N	1.385887	0.803980	0.865034
C121	C	0.466385	0.122784	0.247517
C122	C	0.966385	0.622784	0.747517
N123	N	0.427429	0.122053	0.313670
N124	N	0.927429	0.622053	0.813670
H125	H	1.063527	-0.460628	-0.224670
H126	H	1.563527	0.039372	0.275330
C127	C	1.193711	-0.003848	0.596794
C128	C	1.693711	0.496152	1.096794
N129	N	1.244438	-0.054564	0.634974
N130	N	1.744438	0.445436	1.134974
C131	C	1.193708	-0.003844	0.403210
C132	C	1.693708	0.496156	0.903210
N133	N	1.244436	-0.054557	0.365024
N134	N	1.744436	0.445443	0.865024
H135	H	1.069410	-0.148964	0.144852
H136	H	1.569410	0.351036	0.644852
C137	C	1.063212	-0.474066	0.247500
C138	C	1.563212	0.025934	0.747500
N139	N	1.062453	-0.513029	0.313645
N140	N	1.562453	-0.013029	0.813645
C141	C	0.663884	0.126578	-0.247486
C142	C	1.163884	0.626578	0.252514
N143	N	0.702853	0.127316	-0.313631
N144	N	1.202853	0.627316	0.186369
H145	H	0.479824	0.123069	-0.224674
H146	H	0.979824	0.623069	0.275326
C147	C	0.936548	0.253181	0.596822
C148	C	1.436548	0.753181	1.096822
N149	N	0.885815	0.303879	0.635019
N150	N	1.385815	0.803879	1.135019
C151	C	1.069708	-0.135525	-0.167660
C152	C	1.569708	0.364475	0.332340
N153	N	1.070453	-0.096575	-0.233814
N154	N	1.570453	0.403425	0.266186
C155	C	1.060575	-0.615120	-0.167649
C156	C	1.560575	-0.115120	0.332351
N157	N	1.059838	-0.654076	-0.233798
N158	N	1.559838	-0.154076	0.266202
H159	H	0.338778	0.120378	-0.144843
H160	H	0.838778	0.620378	0.355157
C161	C	0.804935	0.129263	-0.167651
C162	C	1.304935	0.629263	0.332349
N163	N	0.843896	0.130010	-0.233800
N164	N	1.343896	0.630010	0.266200
C165	C	0.663854	0.126607	0.247499
C166	C	1.163854	0.626607	0.747499
N167	N	0.702805	0.127428	0.313644
N168	N	1.202805	0.627428	0.813644
H169	H	0.338767	0.120357	0.144853
H170	H	0.838767	0.620357	0.644853
H171	H	1.066767	-0.290004	-0.224675
H172	H	1.566767	0.209996	0.275325
C173	C	1.066991	-0.276591	0.247516
C174	C	1.566991	0.223409	0.747516
N175	N	1.067733	-0.237642	0.313669
N176	N	1.567733	0.262358	0.813669
