data_functionalizedCrystal
_audit_creation_method	'MofGen! by Chris Wilmer'
_symmetry_space_group_name_H-M	'P1'
_symmetry_Int_Tables_number	1
_symmetry_cell_setting	triclinic
loop_
_symmetry_equiv_pos_as_xyz
  x,y,z
_cell_length_a	10.540539
_cell_length_b	11.026607
_cell_length_c	9.482900
_cell_angle_alpha	78.599815
_cell_angle_beta	99.382321
_cell_angle_gamma	96.555754
loop_
_atom_site_label
_atom_site_type_symbol
_atom_site_fract_x
_atom_site_fract_y
_atom_site_fract_z
O1	O	-1.738884	-0.152500	-0.120820
O2	O	-1.373010	-0.168642	-0.120838
O3	O	-1.525623	0.016344	-0.120825
O4	O	-1.586271	-0.337486	-0.120833
O5	O	-1.494659	-0.021383	0.120965
O6	O	-1.342045	-0.206369	0.120952
O7	O	-1.707920	-0.190227	0.120969
Cu8	Cu	-1.522155	-0.201743	0.143038
Cu9	Cu	-1.558774	-0.157126	-0.142906
O10	O	-1.555307	-0.375213	0.120957
C11	C	-1.309960	-0.186294	0.000055
C12	C	-1.168219	-0.182671	0.000048
C13	C	-1.770970	-0.172574	0.000074
C14	C	-1.912712	-0.176196	0.000071
C15	C	-0.954316	-0.043955	0.000616
C16	C	-1.101810	-0.047539	0.000056
C17	C	-1.138473	-0.226159	-0.138022
C18	C	-0.990931	-0.221532	-0.138122
C19	C	-0.955832	-0.267183	0.136838
C20	C	-1.102855	-0.268710	0.138648
C21	C	-1.498953	0.042789	0.000067
C22	C	-1.465601	0.177793	0.000061
C23	C	-1.581977	-0.401657	0.000061
C24	C	-1.615330	-0.536660	0.000058
N25	N	-1.496409	-0.233123	0.344156
C26	C	-1.557693	0.250800	0.000063
C27	C	-1.523225	0.390334	0.000056
N28	N	-1.584529	-0.125736	-0.344025
C29	C	-1.551170	-0.166375	0.416360
C30	C	-1.529760	-0.192494	0.583776
H31	H	-1.120541	-0.011813	0.099030
N32	N	-1.392284	0.441472	0.000068
N33	N	-1.305684	0.372903	0.000075
H34	H	-1.213207	0.409017	0.000087
H35	H	-1.613898	-0.089889	0.354237
N36	N	-1.663219	-0.029778	0.578040
N37	N	-1.680497	-0.008690	0.442152
H38	H	-1.736069	0.059080	0.387107
N39	N	-1.451046	-0.288432	0.661714
N40	N	-1.433759	-0.309509	0.797601
H41	H	-1.378167	-0.377263	0.852649
N42	N	-0.958877	-0.141019	-0.267568
N43	N	-0.844320	-0.123043	-0.291043
H44	H	-0.821684	-0.066176	-0.382464
N45	N	-1.334682	0.228979	0.000067
N46	N	-1.279121	0.280900	0.101984
H47	H	-1.186656	0.317050	0.101991
N48	N	-1.688626	0.199659	0.000061
N49	N	-1.773586	0.238669	-0.101854
H50	H	-1.866063	0.202556	-0.101855
H51	H	-0.901304	-0.239781	0.241494
H52	H	-1.719713	0.422568	-0.000046
H53	H	-0.929865	-0.364934	0.137769
N54	N	-1.417699	-0.329056	0.422100
N55	N	-1.400412	-0.350133	0.557988
H56	H	-1.344820	-0.417887	0.613036
H57	H	-0.925074	0.024568	-0.097849
N58	N	-0.887953	0.003574	0.124906
N59	N	-0.809209	-0.059452	0.214533
H60	H	-0.762362	-0.025902	0.302344
H61	H	-1.144965	0.019460	-0.099088
H62	H	-0.965052	-0.317739	-0.144391
H63	H	-1.184325	-0.164951	-0.240775
N64	N	-1.194607	-0.349648	-0.144456
N65	N	-1.257315	-0.407118	-0.047123
H66	H	-1.296962	-0.494333	-0.051663
H67	H	-1.120330	-0.237140	0.240792
H68	H	-1.147594	-0.368531	0.146982
