data_functionalizedCrystal
_audit_creation_method	'MofGen! by Chris Wilmer'
_symmetry_space_group_name_H-M	'P1'
_symmetry_Int_Tables_number	1
_symmetry_cell_setting	triclinic
loop_
_symmetry_equiv_pos_as_xyz
  x,y,z
_cell_length_a	29.839131
_cell_length_b	29.839134
_cell_length_c	29.839125
_cell_angle_alpha	89.987811
_cell_angle_beta	89.982291
_cell_angle_gamma	90.021992
loop_
_atom_site_label
_atom_site_type_symbol
_atom_site_fract_x
_atom_site_fract_y
_atom_site_fract_z
Zn1	Zn	-0.179149	0.686719	-0.254008
Zn2	Zn	0.154184	1.020053	0.079326
Zn3	Zn	0.487517	1.353386	0.412659
Zn4	Zn	-0.254261	0.686652	-0.178878
Zn5	Zn	0.079072	1.019985	0.154456
Zn6	Zn	0.412405	1.353318	0.487789
Zn7	Zn	-0.179121	0.611602	-0.178890
Zn8	Zn	0.154213	0.944936	0.154443
Zn9	Zn	0.487546	1.278269	0.487777
Zn10	Zn	-0.254227	0.611550	-0.253979
Zn11	Zn	0.079106	0.944883	0.079355
Zn12	Zn	0.412439	1.278217	0.412688
O13	O	-0.216690	0.649131	-0.216439
O14	O	0.116644	0.982464	0.116895
O15	O	0.449977	1.315798	0.450228
O16	O	-0.189139	0.749578	-0.244048
O17	O	0.144194	1.082911	0.089285
O18	O	0.477528	1.416244	0.422618
O19	O	-0.244296	0.676690	-0.116012
O20	O	0.089038	1.010023	0.217321
O21	O	0.422371	1.343356	0.550655
O22	O	-0.116257	0.621617	-0.188872
O23	O	0.217076	0.954950	0.144462
O24	O	0.550409	1.288284	0.477795
O25	O	-0.244324	0.749528	-0.188851
O26	O	0.089010	1.082861	0.144483
O27	O	0.422343	1.416194	0.477816
O28	O	-0.116278	0.676805	-0.244060
O29	O	0.217055	1.010139	0.089273
O30	O	0.550388	1.343472	0.422606
O31	O	-0.189090	0.621551	-0.116021
O32	O	0.144243	0.954885	0.217312
O33	O	0.477576	1.288218	0.550645
O34	O	-0.189058	0.548728	-0.188844
O35	O	0.144276	0.882062	0.144489
O36	O	0.477609	1.215395	0.477823
O37	O	-0.244266	0.621528	-0.316850
O38	O	0.089067	0.954861	0.016484
O39	O	0.422401	1.288195	0.349817
O40	O	-0.244238	0.548690	-0.244011
O41	O	0.089095	0.882023	0.089322
O42	O	0.422428	1.215357	0.422655
O43	O	-0.189106	0.676755	-0.316871
O44	O	0.144227	1.010088	0.016462
O45	O	0.477560	1.343421	0.349796
O46	O	-0.317124	0.676639	-0.188823
O47	O	0.016209	1.009972	0.144511
O48	O	0.349543	1.343306	0.477844
O49	O	-0.317099	0.621462	-0.243999
O50	O	0.016234	0.954795	0.089334
O51	O	0.349568	1.288129	0.422667
C52	C	-0.216641	0.532408	-0.216426
C53	C	0.116692	0.865742	0.116907
C54	C	0.450025	1.199075	0.450241
C55	C	-0.216632	0.482474	-0.216431
C56	C	0.116702	0.815807	0.116902
C57	C	0.450035	1.149141	0.450235
C58	C	-0.188015	0.125909	-0.245237
C59	C	0.145318	0.459242	0.088097
C60	C	0.478652	0.792575	0.421430
C61	C	-0.187979	0.313582	-0.245226
C62	C	0.145355	0.646915	0.088107
C63	C	0.478688	0.980248	0.421441
O64	O	-0.163591	0.337865	-0.269715
O65	O	0.169743	0.671198	0.063618
O66	O	0.503076	1.004531	0.396951
N67	N	-0.216661	0.337029	-0.216442
N68	N	0.116672	0.670362	0.116891
N69	N	0.450006	1.003695	0.450225
C70	C	-0.245357	0.313555	-0.187660
C71	C	0.087977	0.646888	0.145673
C72	C	0.421310	0.980221	0.479006
O73	O	-0.269755	0.337804	-0.163181
O74	O	0.063578	0.671138	0.170153
O75	O	0.396912	1.004471	0.503486
C76	C	-0.245395	0.125883	-0.187673
C77	C	0.087939	0.459216	0.145660
C78	C	0.421272	0.792549	0.478993
C79	C	-0.216707	0.102438	-0.216456
C80	C	0.116626	0.435771	0.116877
C81	C	0.449959	0.769104	0.450210
C82	C	-0.159330	0.102464	-0.274017
C83	C	0.174003	0.435797	0.059316
C84	C	0.507336	0.769130	0.392649
C85	C	-0.159338	0.055548	-0.274018
C86	C	0.173995	0.388882	0.059315
C87	C	0.507329	0.722215	0.392649
C88	C	-0.188030	0.032078	-0.245238
C89	C	0.145303	0.365411	0.088096
C90	C	0.478637	0.698744	0.421429
C91	C	-0.216715	0.055522	-0.216457
C92	C	0.116619	0.388856	0.116877
C93	C	0.449952	0.722189	0.450210
C94	C	-0.274092	0.102409	-0.158894
C95	C	0.059241	0.435743	0.174439
C96	C	0.392575	0.769076	0.507772
C97	C	-0.274100	0.055488	-0.158901
C98	C	0.059234	0.388822	0.174432
C99	C	0.392567	0.722155	0.507766
C100	C	-0.245412	0.032044	-0.187684
C101	C	0.087921	0.365377	0.145650
C102	C	0.421254	0.698710	0.478983
C103	C	-0.245415	-0.014864	-0.187677
C104	C	0.087919	0.318470	0.145656
C105	C	0.421252	0.651803	0.478990
N106	N	-0.216732	-0.038311	-0.216461
N107	N	0.116601	0.295022	0.116872
N108	N	0.449934	0.628356	0.450205
C109	C	-0.188040	-0.014840	-0.245242
C110	C	0.145293	0.318493	0.088092
C111	C	0.478627	0.651826	0.421425
C112	C	-0.245334	0.412085	-0.187655
C113	C	0.087999	0.745419	0.145678
C114	C	0.421333	1.078752	0.479012
C115	C	-0.245324	0.459003	-0.187651
C116	C	0.088009	0.792337	0.145682
C117	C	0.421343	1.125670	0.479016
C118	C	-0.187947	0.459027	-0.245218
C119	C	0.145387	0.792360	0.088116
C120	C	0.478720	1.125693	0.421449
C121	C	-0.187955	0.412108	-0.245219
C122	C	0.145379	0.745441	0.088114
C123	C	0.478712	1.078775	0.421448
C124	C	-0.216652	0.388638	-0.216439
C125	C	0.116682	0.721972	0.116894
C126	C	0.450015	1.055305	0.450228
C127	C	-0.188058	-0.113366	-0.245240
C128	C	0.145275	0.219967	0.088093
C129	C	0.478609	0.553301	0.421426
C130	C	-0.188067	-0.160286	-0.245237
C131	C	0.145267	0.173048	0.088096
C132	C	0.478600	0.506381	0.421430
C133	C	-0.245445	-0.160305	-0.187672
C134	C	0.087888	0.173028	0.145661
C135	C	0.421221	0.506361	0.478994
C136	C	-0.245435	-0.113390	-0.187674
C137	C	0.087898	0.219944	0.145660
C138	C	0.421231	0.553277	0.478993
C139	C	-0.216740	-0.089921	-0.216461
C140	C	0.116593	0.243412	0.116872
C141	C	0.449927	0.576745	0.450205
O142	O	-0.269794	-0.039176	-0.163204
O143	O	0.063540	0.294157	0.170129
O144	O	0.396873	0.627491	0.503462
O145	O	-0.163652	-0.039098	-0.269725
O146	O	0.169681	0.294236	0.063609
O147	O	0.503014	0.627569	0.396942
C148	C	-0.188007	0.172824	-0.245236
C149	C	0.145326	0.506157	0.088097
C150	C	0.478659	0.839491	0.421431
C151	C	-0.216692	0.196269	-0.216455
C152	C	0.116641	0.529602	0.116878
C153	C	0.449975	0.862935	0.450212
C154	C	-0.245384	0.172798	-0.187675
C155	C	0.087949	0.506131	0.145659
C156	C	0.421282	0.839465	0.478992
C157	C	-0.216682	0.243187	-0.216451
C158	C	0.116651	0.576520	0.116882
C159	C	0.449985	0.909853	0.450216
C160	C	-0.187990	0.266657	-0.245231
C161	C	0.145344	0.599991	0.088102
C162	C	0.478677	0.933324	0.421435
C163	C	-0.159308	0.243210	-0.274016
C164	C	0.174026	0.576543	0.059318
C165	C	0.507359	0.909877	0.392651
C166	C	-0.159315	0.196295	-0.274016
C167	C	0.174018	0.529628	0.059317
C168	C	0.507352	0.862961	0.392650
C169	C	-0.274067	0.196245	-0.158891
C170	C	0.059267	0.529578	0.174443
C171	C	0.392600	0.862912	0.507776
C172	C	-0.274056	0.243161	-0.158892
C173	C	0.059277	0.576494	0.174441
C174	C	0.392610	0.909827	0.507775
C175	C	-0.245364	0.266631	-0.187672
C176	C	0.087969	0.599965	0.145661
C177	C	0.421303	0.933298	0.478994
C178	C	-0.333412	0.649050	-0.216416
C179	C	-0.000079	0.982383	0.116917
C180	C	0.333255	1.315716	0.450250
C181	C	-0.383347	0.649056	-0.216422
C182	C	-0.050013	0.982389	0.116912
C183	C	0.283320	1.315723	0.450245
C184	C	-0.692990	0.677914	-0.187750
C185	C	-0.359657	1.011247	0.145583
C186	C	-0.026324	1.344580	0.478917
C187	C	-0.880663	0.677969	-0.187767
C188	C	-0.547330	1.011302	0.145566
C189	C	-0.213997	1.344636	0.478899
O190	O	-0.904928	0.702440	-0.163373
O191	O	-0.571595	1.035774	0.169961
O192	O	-0.238262	1.369107	0.503294
N193	N	-0.904132	0.649224	-0.216472
N194	N	-0.570798	0.982557	0.116861
N195	N	-0.237465	1.315891	0.450194
C196	C	-0.880679	0.620465	-0.245177
C197	C	-0.547346	0.953798	0.088156
C198	C	-0.214012	1.287132	0.421490
O199	O	-0.904946	0.596020	-0.269596
O200	O	-0.571613	0.929353	0.063737
O201	O	-0.238280	1.262687	0.397071
C202	C	-0.693007	0.620412	-0.245162
C203	C	-0.359673	0.953746	0.088172
C204	C	-0.026340	1.287079	0.421505
C205	C	-0.669541	0.649156	-0.216452
C206	C	-0.336207	0.982489	0.116882
C207	C	-0.002874	1.315823	0.450215
C208	C	-0.669524	0.706655	-0.159043
C209	C	-0.336191	1.039989	0.174291
C210	C	-0.002858	1.373322	0.507624
C211	C	-0.622609	0.706640	-0.159037
C212	C	-0.289276	1.039973	0.174296
C213	C	0.044058	1.373306	0.507630
C214	C	-0.599159	0.677882	-0.187738
C215	C	-0.265826	1.011215	0.145595
C216	C	0.067507	1.344549	0.478928
C217	C	-0.622625	0.649140	-0.216446
C218	C	-0.289292	0.982473	0.116888
C219	C	0.044041	1.315807	0.450221
C220	C	-0.669555	0.591656	-0.273868
C221	C	-0.336221	0.924989	0.059465
C222	C	-0.002888	1.258323	0.392799
C223	C	-0.622634	0.591646	-0.273863
C224	C	-0.289300	0.924979	0.059471
C225	C	0.044033	1.258313	0.392804
C226	C	-0.599168	0.620390	-0.245153
C227	C	-0.265834	0.953723	0.088181
C228	C	0.067499	1.287056	0.421514
C229	C	-0.552260	0.620367	-0.245141
C230	C	-0.218927	0.953700	0.088192
C231	C	0.114406	1.287033	0.421525
N232	N	-0.528792	0.649112	-0.216437
N233	N	-0.195459	0.982445	0.116897
N234	N	0.137875	1.315778	0.450230
C235	C	-0.552242	0.677869	-0.187735
C236	C	-0.218908	1.011203	0.145598
C237	C	0.114425	1.344536	0.478932
C238	C	-0.979209	0.620494	-0.245183
C239	C	-0.645876	0.953828	0.088151
C240	C	-0.312543	1.287161	0.421484
C241	C	-1.026127	0.620507	-0.245186
C242	C	-0.692794	0.953840	0.088147
C243	C	-0.359461	1.287173	0.421481
C244	C	-1.026109	0.678012	-0.187777
C245	C	-0.692775	1.011345	0.145557
C246	C	-0.359442	1.344678	0.478890
C247	C	-0.979190	0.677996	-0.187772
C248	C	-0.645857	1.011330	0.145562
C249	C	-0.312523	1.344663	0.478895
C250	C	-0.955741	0.649239	-0.216478
C251	C	-0.622408	0.982573	0.116856
C252	C	-0.289074	1.315906	0.450189
C253	C	-0.453716	0.677834	-0.187725
C254	C	-0.120382	1.011167	0.145609
C255	C	0.212951	1.344500	0.478942
C256	C	-0.406796	0.677814	-0.187720
C257	C	-0.073463	1.011147	0.145613
C258	C	0.259871	1.344480	0.478946
C259	C	-0.406819	0.620311	-0.245131
C260	C	-0.073486	0.953644	0.088203
C261	C	0.259848	1.286978	0.421536
C262	C	-0.453734	0.620329	-0.245134
C263	C	-0.120401	0.953662	0.088199
C264	C	0.212932	1.286995	0.421533
C265	C	-0.477182	0.649094	-0.216429
C266	C	-0.143848	0.982427	0.116904
C267	C	0.189485	1.315760	0.450237
O268	O	-0.527966	0.595912	-0.269527
O269	O	-0.194633	0.929245	0.063806
O270	O	0.138700	1.262578	0.397140
O271	O	-0.527966	0.702318	-0.163327
O272	O	-0.194633	1.035651	0.170007
O273	O	0.138701	1.368984	0.503340
C274	C	-0.739906	0.677930	-0.187756
C275	C	-0.406572	1.011263	0.145577
C276	C	-0.073239	1.344596	0.478911
C277	C	-0.763372	0.649188	-0.216463
C278	C	-0.430038	0.982521	0.116870
C279	C	-0.096705	1.315854	0.450204
C280	C	-0.739922	0.620430	-0.245165
C281	C	-0.406589	0.953763	0.088169
C282	C	-0.073255	1.287097	0.421502
C283	C	-0.810289	0.649200	-0.216467
C284	C	-0.476956	0.982534	0.116867
C285	C	-0.143623	1.315867	0.450200
C286	C	-0.833739	0.677958	-0.187765
C287	C	-0.500406	1.011291	0.145568
C288	C	-0.167072	1.344625	0.478902
C289	C	-0.810271	0.706703	-0.159060
C290	C	-0.476937	1.040036	0.174273
C291	C	-0.143604	1.373370	0.507607
C292	C	-0.763355	0.706687	-0.159054
C293	C	-0.430022	1.040021	0.174279
C294	C	-0.096689	1.373354	0.507612
C295	C	-0.763390	0.591685	-0.273870
C296	C	-0.430057	0.925018	0.059464
C297	C	-0.096724	1.258352	0.392797
C298	C	-0.810306	0.591703	-0.273873
C299	C	-0.476973	0.925036	0.059461
C300	C	-0.143639	1.258370	0.392794
C301	C	-0.833755	0.620461	-0.245171
C302	C	-0.500422	0.953794	0.088162
C303	C	-0.167089	1.287127	0.421496
C304	C	-0.099511	0.649225	-0.216471
C305	C	0.233822	0.982558	0.116863
C306	C	0.567155	1.315891	0.450196
C307	C	-0.049577	0.649264	-0.216484
C308	C	0.283757	0.982598	0.116849
C309	C	0.617090	1.315931	0.450182
C310	C	-0.216686	0.649143	-0.333617
C311	C	0.116648	0.982476	-0.000284
C312	C	0.449981	1.315810	0.333050
C313	C	-0.216684	0.649148	-0.383551
C314	C	0.116649	0.982482	-0.050218
C315	C	0.449983	1.315815	0.283115
C316	C	-0.216738	0.766309	-0.216451
C317	C	0.116595	1.099642	0.116882
C318	C	0.449928	1.432976	0.450215
C319	C	-0.216759	0.816244	-0.216457
C320	C	0.116574	1.149577	0.116877
C321	C	0.449908	1.482910	0.450210
C322	C	-0.187887	0.677935	-0.693209
C323	C	0.145446	1.011268	-0.359876
C324	C	0.478780	1.344602	-0.026542
C325	C	-0.187849	0.677957	-0.880882
C326	C	0.145485	1.011291	-0.547549
C327	C	0.478818	1.344624	-0.214215
O328	O	-0.163407	0.702399	-0.905159
O329	O	0.169926	1.035733	-0.571825
O330	O	0.503260	1.369066	-0.238492
N331	N	-0.216564	0.649208	-0.904337
N332	N	0.116770	0.982541	-0.571003
N333	N	0.450103	1.315874	-0.237670
C334	C	-0.245288	0.620449	-0.880870
C335	C	0.088045	0.953782	-0.547537
C336	C	0.421379	1.287115	-0.214203
O337	O	-0.269708	0.595993	-0.905126
O338	O	0.063626	0.929326	-0.571793
O339	O	0.396959	1.262659	-0.238459
C340	C	-0.245324	0.620424	-0.693198
C341	C	0.088010	0.953758	-0.359864
C342	C	0.421343	1.287091	-0.026531
C343	C	-0.216610	0.649179	-0.669746
C344	C	0.116723	0.982512	-0.336412
C345	C	0.450057	1.315846	-0.003079
C346	C	-0.159175	0.706687	-0.669757
C347	C	0.174158	1.040020	-0.336423
C348	C	0.507491	1.373354	-0.003090
C349	C	-0.159187	0.706683	-0.622841
C350	C	0.174146	1.040016	-0.289508
C351	C	0.507480	1.373349	0.043826
C352	C	-0.187910	0.677927	-0.599378
C353	C	0.145423	1.011260	-0.266045
C354	C	0.478756	1.344593	0.067289
C355	C	-0.216622	0.649175	-0.622830
C356	C	0.116712	0.982508	-0.289497
C357	C	0.450045	1.315841	0.043837
C358	C	-0.274045	0.591663	-0.669732
C359	C	0.059288	0.924997	-0.336399
C360	C	0.392621	1.258330	-0.003065
C361	C	-0.274051	0.591659	-0.622811
C362	C	0.059282	0.924992	-0.289478
C363	C	0.392616	1.258326	0.043856
C364	C	-0.245337	0.620414	-0.599359
C365	C	0.087996	0.953747	-0.266026
C366	C	0.421329	1.287080	0.067308
C367	C	-0.245356	0.620415	-0.552451
C368	C	0.087977	0.953748	-0.219118
C369	C	0.421310	1.287081	0.114215
N370	N	-0.216642	0.649164	-0.528997
N371	N	0.116692	0.982497	-0.195663
N372	N	0.450025	1.315831	0.137670
C373	C	-0.187918	0.677920	-0.552460
C374	C	0.145415	1.011253	-0.219127
C375	C	0.478748	1.344587	0.114207
C376	C	-0.245268	0.620464	-0.979401
C377	C	0.088066	0.953797	-0.646067
C378	C	0.421399	1.287131	-0.312734
C379	C	-0.245260	0.620471	-1.026319
C380	C	0.088074	0.953804	-0.692985
C381	C	0.421407	1.287137	-0.359652
C382	C	-0.187820	0.677979	-1.026327
C383	C	0.145514	1.011312	-0.692994
C384	C	0.478847	1.344645	-0.359661
C385	C	-0.187830	0.677974	-0.979409
C386	C	0.145503	1.011307	-0.646075
C387	C	0.478836	1.344641	-0.312742
C388	C	-0.216553	0.649213	-0.955946
C389	C	0.116780	0.982547	-0.622613
C390	C	0.450114	1.315880	-0.289279
C391	C	-0.187945	0.677910	-0.453934
C392	C	0.145388	1.011243	-0.120601
C393	C	0.478721	1.344576	0.212732
C394	C	-0.187961	0.677904	-0.407015
C395	C	0.145373	1.011238	-0.073681
C396	C	0.478706	1.344571	0.259652
C397	C	-0.245399	0.620395	-0.407010
C398	C	0.087935	0.953728	-0.073677
C399	C	0.421268	1.287061	0.259657
C400	C	-0.245385	0.620401	-0.453926
C401	C	0.087948	0.953735	-0.120592
C402	C	0.421281	1.287068	0.212741
C403	C	-0.216655	0.649160	-0.477386
C404	C	0.116679	0.982494	-0.144053
C405	C	0.450012	1.315827	0.189280
O406	O	-0.269782	0.595982	-0.528146
O407	O	0.063552	0.929315	-0.194812
O408	O	0.396885	1.262648	0.138521
O409	O	-0.163495	0.702365	-0.528196
O410	O	0.169838	1.035699	-0.194863
O411	O	0.503171	1.369032	0.138471
C412	C	-0.187875	0.677939	-0.740124
C413	C	0.145458	1.011272	-0.406791
C414	C	0.478791	1.344606	-0.073458
C415	C	-0.216587	0.649187	-0.763577
C416	C	0.116746	0.982521	-0.430243
C417	C	0.450080	1.315854	-0.096910
C418	C	-0.245310	0.620431	-0.740113
C419	C	0.088023	0.953765	-0.406780
C420	C	0.421357	1.287098	-0.073447
C421	C	-0.216579	0.649194	-0.810494
C422	C	0.116755	0.982527	-0.477161
C423	C	0.450088	1.315860	-0.143828
C424	C	-0.187856	0.677950	-0.833958
C425	C	0.145478	1.011283	-0.500624
C426	C	0.478811	1.344616	-0.167291
C427	C	-0.159141	0.706699	-0.810503
C428	C	0.174193	1.040033	-0.477170
C429	C	0.507526	1.373366	-0.143836
C430	C	-0.159152	0.706695	-0.763588
C431	C	0.174181	1.040028	-0.430254
C432	C	0.507514	1.373362	-0.096921
C433	C	-0.274025	0.591682	-0.763568
C434	C	0.059308	0.925015	-0.430235
C435	C	0.392642	1.258348	-0.096901
C436	C	-0.274011	0.591689	-0.810483
C437	C	0.059322	0.925022	-0.477150
C438	C	0.392655	1.258355	-0.143817
C439	C	-0.245288	0.620445	-0.833947
C440	C	0.088045	0.953778	-0.500613
C441	C	0.421378	1.287111	-0.167280
C442	C	-0.216661	0.649145	-0.099716
C443	C	0.116672	0.982478	0.233617
C444	C	0.450005	1.315811	0.566951
C445	C	-0.216536	0.649227	-0.049782
C446	C	0.116797	0.982560	0.283551
C447	C	0.450130	1.315893	0.616885
H448	H	-0.164704	-0.179372	-0.268675
H449	H	0.168629	0.153961	0.064658
H450	H	0.501963	0.487294	0.397991
C451	C	-0.276418	0.386549	-0.156379
C452	C	0.056915	0.719882	0.176955
C453	C	0.390249	1.053216	0.510288
C454	C	-0.250946	0.359601	-0.127637
C455	C	0.082387	0.692934	0.205696
C456	C	0.415720	1.026267	0.539029
C457	C	-0.279564	0.336068	-0.098823
C458	C	0.053769	0.669401	0.234511
C459	C	0.387102	1.002734	0.567844
H460	H	-0.293507	0.407184	-0.139194
H461	H	0.039827	0.740517	0.194140
H462	H	0.373160	1.073851	0.527473
H463	H	-0.296017	0.368222	-0.173516
H464	H	0.037316	0.701556	0.159817
H465	H	0.370650	1.034889	0.493151
H466	H	-0.231355	0.377926	-0.110502
H467	H	0.101978	0.711259	0.222832
H468	H	0.435311	1.044592	0.556165
H469	H	-0.233859	0.338957	-0.144810
H470	H	0.099475	0.672291	0.188524
H471	H	0.432808	1.005624	0.521857
H472	H	-0.299164	0.317741	-0.115960
H473	H	0.034170	0.651074	0.217373
H474	H	0.367503	0.984408	0.550707
H475	H	-0.296652	0.356706	-0.081641
H476	H	0.036682	0.690039	0.251692
H477	H	0.370015	1.023373	0.585026
H478	H	-0.262287	0.317777	-0.079321
H479	H	0.071047	0.651111	0.254012
H480	H	0.404380	0.984444	0.587345
C481	C	-0.156726	0.709244	-0.953923
C482	C	0.176607	1.042577	-0.620590
C483	C	0.509940	1.375910	-0.287257
C484	C	-0.182175	0.738024	-0.926992
C485	C	0.151158	1.071357	-0.593659
C486	C	0.484491	1.404690	-0.260326
C487	C	-0.153535	0.766838	-0.903516
C488	C	0.179798	1.100172	-0.570182
C489	C	0.513131	1.433505	-0.236849
H490	H	-0.137138	0.692122	-0.935588
H491	H	0.196195	1.025455	-0.602254
H492	H	0.529529	1.358789	-0.268921
H493	H	-0.139627	0.726396	-0.974606
H494	H	0.193706	1.059729	-0.641272
H495	H	0.527039	1.393063	-0.307939
H496	H	-0.199267	0.720873	-0.906312
H497	H	0.134067	1.054206	-0.572979
H498	H	0.467400	1.387540	-0.239646
H499	H	-0.201762	0.755155	-0.945317
H500	H	0.131571	1.088488	-0.611983
H501	H	0.464904	1.421822	-0.278650
H502	H	-0.136436	0.783991	-0.924198
H503	H	0.196897	1.117324	-0.590865
H504	H	0.530230	1.450657	-0.257531
H505	H	-0.133949	0.749713	-0.885182
H506	H	0.199385	1.083046	-0.551849
H507	H	0.532718	1.416380	-0.218516
H508	H	-0.170798	0.786372	-0.885243
H509	H	0.162535	1.119705	-0.551910
H510	H	0.495868	1.453038	-0.218577
C511	C	-0.953836	0.589216	-0.276364
C512	C	-0.620502	0.922550	0.056969
C513	C	-0.287169	1.255883	0.390302
C514	C	-0.984436	0.564039	-0.301490
C515	C	-0.651102	0.897372	0.031843
C516	C	-0.317769	1.230706	0.365176
C517	C	-0.961080	0.535215	-0.330213
C518	C	-0.627747	0.868548	0.003120
C519	C	-0.294414	1.201882	0.336454
H520	H	-0.935512	0.606327	-0.295997
H521	H	-0.602178	0.939660	0.037336
H522	H	-0.268845	1.272994	0.370670
H523	H	-0.935564	0.569624	-0.259169
H524	H	-0.602230	0.902957	0.074165
H525	H	-0.268897	1.236291	0.407498
H526	H	-1.002700	0.583629	-0.318685
H527	H	-0.669367	0.916962	0.014649
H528	H	-0.336033	1.250296	0.347982
H529	H	-1.002761	0.546919	-0.281869
H530	H	-0.669427	0.880253	0.051464
H531	H	-0.336094	1.213586	0.384797
H532	H	-0.942808	0.515623	-0.313017
H533	H	-0.609475	0.848956	0.020316
H534	H	-0.276142	1.182289	0.353650
H535	H	-0.942757	0.552329	-0.349842
H536	H	-0.609424	0.885663	-0.016509
H537	H	-0.276090	1.218996	0.316824
H538	H	-0.981839	0.518126	-0.347261
H539	H	-0.648505	0.851459	-0.013928
H540	H	-0.315172	1.184793	0.319406
H541	H	-0.387719	0.596895	-0.268498
H542	H	-0.054386	0.930229	0.064835
H543	H	0.278948	1.263562	0.398169
H544	H	-0.268804	-0.179424	-0.164238
H545	H	0.064529	0.153910	0.169095
H546	H	0.397862	0.487243	0.502428
H547	H	-0.164594	0.393023	-0.268656
H548	H	0.168739	0.726356	0.064677
H549	H	0.502072	1.059689	0.398011
C550	C	-0.835699	0.560475	-0.305095
C551	C	-0.502366	0.893809	0.028238
C552	C	-0.169032	1.227142	0.361571
C553	C	-0.805115	0.535299	-0.330236
C554	C	-0.471782	0.868632	0.003097
C555	C	-0.138448	1.201965	0.336430
C556	C	-0.828489	0.506536	-0.359009
C557	C	-0.495155	0.839870	-0.025676
C558	C	-0.161822	1.173203	0.307657
H559	H	-0.854027	0.540877	-0.287949
H560	H	-0.520693	0.874210	0.045384
H561	H	-0.187360	1.207543	0.378717
H562	H	-0.853969	0.577645	-0.324713
H563	H	-0.520636	0.910978	0.008621
H564	H	-0.187302	1.244311	0.341954
H565	H	-0.786853	0.518131	-0.310622
H566	H	-0.453519	0.851464	0.022712
H567	H	-0.120186	1.184797	0.356045
H568	H	-0.786786	0.554886	-0.347392
H569	H	-0.453453	0.888219	-0.014058
H570	H	-0.120120	1.221552	0.319275
H571	H	-0.846759	0.523705	-0.378627
H572	H	-0.513425	0.857039	-0.045294
H573	H	-0.180092	1.190372	0.288040
H574	H	-0.846815	0.486940	-0.341860
H575	H	-0.513482	0.820274	-0.008526
H576	H	-0.180149	1.153607	0.324807
H577	H	-0.807741	0.489453	-0.376074
H578	H	-0.474408	0.822787	-0.042741
H579	H	-0.141074	1.156120	0.290593
C580	C	-0.127926	0.737842	-0.597413
C581	C	0.205407	1.071176	-0.264080
C582	C	0.538740	1.404509	0.069254
C583	C	-0.083476	0.728077	-0.608835
C584	C	0.249857	1.061411	-0.275502
C585	C	0.583191	1.394744	0.057832
C586	C	-0.054660	0.756768	-0.585421
C587	C	0.278673	1.090102	-0.252088
C588	C	0.612006	1.423435	0.081245
H589	H	-0.134449	0.768039	-0.605089
H590	H	0.198884	1.101372	-0.271756
H591	H	0.532218	1.434706	0.061578
H592	H	-0.132005	0.733725	-0.566103
H593	H	0.201329	1.067058	-0.232770
H594	H	0.534662	1.400391	0.100563
H595	H	-0.079400	0.732199	-0.640138
H596	H	0.253934	1.065532	-0.306804
H597	H	0.587267	1.398865	0.026529
H598	H	-0.076939	0.697886	-0.601158
H599	H	0.256394	1.031219	-0.267825
H600	H	0.589727	1.364553	0.065509
H601	H	-0.058739	0.752651	-0.554112
H602	H	0.274595	1.085984	-0.220778
H603	H	0.607928	1.419317	0.112555
H604	H	-0.061187	0.786963	-0.593099
H605	H	0.272146	1.120297	-0.259766
H606	H	0.605480	1.453630	0.073568
H607	H	-0.024498	0.750144	-0.593165
H608	H	0.308836	1.083477	-0.259831
H609	H	0.642169	1.416811	0.073502
C610	C	-0.694943	0.560432	-0.305091
C611	C	-0.361609	0.893766	0.028242
C612	C	-0.028276	1.227099	0.361575
C613	C	-0.664355	0.535260	-0.330232
C614	C	-0.331022	0.868593	0.003101
C615	C	0.002311	1.201926	0.336434
C616	C	-0.687725	0.506495	-0.359006
C617	C	-0.354392	0.839828	-0.025673
C618	C	-0.021059	1.173162	0.307660
H619	H	-0.713268	0.540831	-0.287946
H620	H	-0.379935	0.874164	0.045388
H621	H	-0.046602	1.207498	0.378721
H622	H	-0.713214	0.577600	-0.324709
H623	H	-0.379881	0.910933	0.008625
H624	H	-0.046548	1.244267	0.341958
H625	H	-0.646091	0.518093	-0.310617
H626	H	-0.312758	0.851427	0.022716
H627	H	0.020575	1.184760	0.356049
H628	H	-0.646029	0.554849	-0.347387
H629	H	-0.312696	0.888182	-0.014054
H630	H	0.020638	1.221515	0.319280
H631	H	-0.705997	0.523662	-0.378624
H632	H	-0.372664	0.856996	-0.045290
H633	H	-0.039330	1.190329	0.288043
H634	H	-0.706050	0.486897	-0.341857
H635	H	-0.372717	0.820230	-0.008524
H636	H	-0.039383	1.153563	0.324809
H637	H	-0.666976	0.489415	-0.376071
H638	H	-0.333642	0.822748	-0.042738
H639	H	-0.000309	1.156081	0.290596
C640	C	-0.305281	0.560519	-0.695206
C641	C	0.028052	0.893852	-0.361873
C642	C	0.361386	1.227185	-0.028539
C643	C	-0.334095	0.585931	-0.722129
C644	C	-0.000762	0.919265	-0.388796
C645	C	0.332571	1.252598	-0.055463
C646	C	-0.362884	0.557256	-0.745595
C647	C	-0.029550	0.890589	-0.412262
C648	C	0.303783	1.223922	-0.078928
H649	H	-0.288142	0.540947	-0.713546
H650	H	0.045192	0.874280	-0.380213
H651	H	0.378525	1.207613	-0.046879
H652	H	-0.322410	0.543404	-0.674517
H653	H	0.010924	0.876737	-0.341184
H654	H	0.344257	1.210071	-0.007850
H655	H	-0.316968	0.603038	-0.742816
H656	H	0.016365	0.936372	-0.409483
H657	H	0.349698	1.269705	-0.076149
H658	H	-0.351244	0.605502	-0.703800
H659	H	-0.017911	0.938836	-0.370467
H660	H	0.315422	1.272169	-0.037134
H661	H	-0.380012	0.540141	-0.724906
H662	H	-0.046679	0.873474	-0.391573
H663	H	0.286654	1.206808	-0.058239
H664	H	-0.345741	0.537685	-0.763932
H665	H	-0.012407	0.871018	-0.430599
H666	H	0.320926	1.204352	-0.097266
H667	H	-0.382440	0.574494	-0.763862
H668	H	-0.049107	0.907827	-0.430529
H669	H	0.284226	1.241161	-0.097195
H670	H	-0.135755	0.730115	-0.829615
H671	H	0.197579	1.063448	-0.496282
H672	H	0.530912	1.396782	-0.162948
C673	C	-0.695053	0.737824	-0.127882
C674	C	-0.361720	1.071158	0.205452
C675	C	-0.028387	1.404491	0.538785
C676	C	-0.722044	0.712439	-0.099069
C677	C	-0.388710	1.045773	0.234265
C678	C	-0.055377	1.379106	0.567598
C679	C	-0.745576	0.741144	-0.070370
C680	C	-0.412242	1.074477	0.262963
C681	C	-0.078909	1.407811	0.596296
H682	H	-0.674418	0.754964	-0.110743
H683	H	-0.341085	1.088297	0.222590
H684	H	-0.007751	1.421631	0.555923
H685	H	-0.713352	0.757372	-0.145100
H686	H	-0.380018	1.090706	0.188233
H687	H	-0.046685	1.424039	0.521567
H688	H	-0.703747	0.692899	-0.081852
H689	H	-0.370414	1.026233	0.251481
H690	H	-0.037080	1.359566	0.584815
H691	H	-0.742687	0.695301	-0.116195
H692	H	-0.409354	1.028634	0.217139
H693	H	-0.076021	1.361968	0.550472
H694	H	-0.763874	0.760692	-0.087589
H695	H	-0.430541	1.094025	0.245744
H696	H	-0.097207	1.427359	0.579078
H697	H	-0.724937	0.758282	-0.053235
H698	H	-0.391604	1.091615	0.280098
H699	H	-0.058270	1.424949	0.613431
H700	H	-0.763894	0.723925	-0.050820
H701	H	-0.430561	1.057258	0.282513
H702	H	-0.097228	1.390592	0.615846
H703	H	-0.960087	0.701402	-0.164394
H704	H	-0.626753	1.034736	0.168940
H705	H	-0.293420	1.368069	0.502273
C706	C	-0.479134	0.589104	-0.276352
C707	C	-0.145800	0.922437	0.056981
C708	C	0.187533	1.255770	0.390314
C709	C	-0.448553	0.563923	-0.301493
C710	C	-0.115219	0.897256	0.031840
C711	C	0.218114	1.230589	0.365174
C712	C	-0.471930	0.535162	-0.330265
C713	C	-0.138597	0.868495	0.003069
C714	C	0.194737	1.201828	0.336402
H715	H	-0.497463	0.569508	-0.259205
H716	H	-0.164129	0.902841	0.074128
H717	H	0.169204	1.236174	0.407462
H718	H	-0.497402	0.606274	-0.295970
H719	H	-0.164069	0.939608	0.037363
H720	H	0.169264	1.272941	0.370697
H721	H	-0.430292	0.546754	-0.281878
H722	H	-0.096958	0.880087	0.051455
H723	H	0.236375	1.213420	0.384789
H724	H	-0.430222	0.583507	-0.318649
H725	H	-0.096889	0.916840	0.014684
H726	H	0.236444	1.250174	0.348017
H727	H	-0.490199	0.552332	-0.349882
H728	H	-0.156865	0.885666	-0.016549
H729	H	0.176468	1.218999	0.316784
H730	H	-0.490259	0.515569	-0.313114
H731	H	-0.156925	0.848902	0.020220
H732	H	0.176408	1.182235	0.353553
H733	H	-0.451185	0.518076	-0.347329
H734	H	-0.117851	0.851409	-0.013996
H735	H	0.215482	1.184743	0.319338
C736	C	-0.156748	0.484434	-0.276485
C737	C	0.176585	0.817767	0.056848
C738	C	0.509919	1.151100	0.390181
C739	C	-0.131622	0.453864	-0.301692
C740	C	0.201711	0.787197	0.031642
C741	C	0.535045	1.120531	0.364975
C742	C	-0.102877	0.477254	-0.330497
C743	C	0.230456	0.810588	0.002837
C744	C	0.563789	1.143921	0.336170
H745	H	-0.173914	0.502740	-0.296063
H746	H	0.159419	0.836073	0.037270
H747	H	0.492753	1.169407	0.370604
H748	H	-0.137120	0.502726	-0.259345
H749	H	0.196214	0.836060	0.073988
H750	H	0.529547	1.169393	0.407322
H751	H	-0.151248	0.435579	-0.318831
H752	H	0.182086	0.768912	0.014503
H753	H	0.515419	1.102246	0.347836
H754	H	-0.114447	0.435557	-0.282126
H755	H	0.218887	0.768890	0.051208
H756	H	0.552220	1.102223	0.384541
H757	H	-0.083249	0.495547	-0.313356
H758	H	0.250084	0.828880	0.019977
H759	H	0.583417	1.162214	0.353310
H760	H	-0.120047	0.495560	-0.350072
H761	H	0.213286	0.828893	-0.016738
H762	H	0.546620	1.162226	0.316595
H763	H	-0.085823	0.456517	-0.347600
H764	H	0.247510	0.789850	-0.014266
H765	H	0.580844	1.123183	0.319067
C766	C	-0.128154	0.170925	-0.305319
C767	C	0.205180	0.504259	0.028015
C768	C	0.538513	0.837592	0.361348
C769	C	-0.103037	0.201530	-0.330528
C770	C	0.230297	0.534863	0.002805
C771	C	0.563630	0.868197	0.336139
C772	C	-0.074330	0.178180	-0.359375
C773	C	0.259004	0.511513	-0.026042
C774	C	0.592337	0.844847	0.307292
H775	H	-0.108515	0.152620	-0.288223
H776	H	0.224818	0.485953	0.045110
H777	H	0.558152	0.819287	0.378444
H778	H	-0.145360	0.152635	-0.324890
H779	H	0.187973	0.485968	0.008444
H780	H	0.521306	0.819302	0.341777
H781	H	-0.085831	0.219813	-0.310960
H782	H	0.247502	0.553146	0.022374
H783	H	0.580835	0.886479	0.355707
H784	H	-0.122664	0.219836	-0.347633
H785	H	0.210670	0.553170	-0.014300
H786	H	0.544003	0.886503	0.319033
H787	H	-0.091536	0.159890	-0.378946
H788	H	0.241797	0.493223	-0.045613
H789	H	0.575130	0.826556	0.287721
H790	H	-0.054694	0.159875	-0.342276
H791	H	0.278639	0.493209	-0.008942
H792	H	0.611973	0.826542	0.324391
H793	H	-0.057287	0.198941	-0.376486
H794	H	0.276046	0.532275	-0.043153
H795	H	0.609379	0.865608	0.290181
H796	H	-0.297416	0.568265	-0.744469
H797	H	0.035918	0.901599	-0.411136
H798	H	0.369251	1.234932	-0.077802
H799	H	-0.135980	0.036464	-0.297458
H800	H	0.197354	0.369797	0.035875
H801	H	0.530687	0.703130	0.369209
H802	H	-0.268679	0.478088	-0.164208
H803	H	0.064654	0.811421	0.169125
H804	H	0.397988	1.144755	0.502458
C805	C	-0.156853	-0.087972	-0.276511
C806	C	0.176480	0.245362	0.056822
C807	C	0.509813	0.578695	0.390155
C808	C	-0.131729	-0.118553	-0.301705
C809	C	0.201604	0.214780	0.031628
C810	C	0.534938	0.548113	0.364962
C811	C	-0.102973	-0.095177	-0.330510
C812	C	0.230360	0.238156	0.002824
C813	C	0.563693	0.571490	0.336157
H814	H	-0.174011	-0.069666	-0.296097
H815	H	0.159322	0.263667	0.037236
H816	H	0.492656	0.597000	0.370569
H817	H	-0.137224	-0.069679	-0.259372
H818	H	0.196109	0.263654	0.073962
H819	H	0.529442	0.596988	0.407295
H820	H	-0.151356	-0.136838	-0.318843
H821	H	0.181978	0.196495	0.014490
H822	H	0.515311	0.529828	0.347823
H823	H	-0.114562	-0.136860	-0.282131
H824	H	0.218771	0.196474	0.051203
H825	H	0.552104	0.529807	0.384536
H826	H	-0.083344	-0.076884	-0.313370
H827	H	0.249989	0.256449	0.019963
H828	H	0.583322	0.589782	0.353297
H829	H	-0.120135	-0.076872	-0.350093
H830	H	0.213199	0.256461	-0.016759
H831	H	0.546532	0.589794	0.316574
H832	H	-0.085920	-0.115923	-0.347604
H833	H	0.247413	0.217410	-0.014271
H834	H	0.580746	0.550744	0.319063
C835	C	-0.156734	0.709141	-0.381634
C836	C	0.176600	1.042474	-0.048300
C837	C	0.509933	1.375808	0.285033
C838	C	-0.131569	0.734315	-0.412228
C839	C	0.201765	1.067648	-0.078895
C840	C	0.535098	1.400981	0.254439
C841	C	-0.102794	0.763088	-0.388866
C842	C	0.230539	1.096422	-0.055532
C843	C	0.563873	1.429755	0.277801
H844	H	-0.173880	0.728741	-0.363331
H845	H	0.159453	1.062074	-0.029997
H846	H	0.492787	1.395408	0.303336
H847	H	-0.137132	0.691980	-0.363340
H848	H	0.196202	1.025313	-0.030007
H849	H	0.529535	1.358646	0.303326
H850	H	-0.151168	0.751474	-0.430514
H851	H	0.182165	1.084808	-0.097180
H852	H	0.515499	1.418141	0.236153
H853	H	-0.114413	0.714726	-0.430532
H854	H	0.218920	1.048060	-0.097199
H855	H	0.552254	1.381393	0.236135
H856	H	-0.083192	0.745927	-0.370572
H857	H	0.250141	1.079260	-0.037239
H858	H	0.583475	1.412594	0.296095
H859	H	-0.119944	0.782685	-0.370563
H860	H	0.213389	1.116019	-0.037230
H861	H	0.546723	1.449352	0.296103
H862	H	-0.085713	0.780169	-0.409620
H863	H	0.247620	1.113502	-0.076287
H864	H	0.580954	1.446836	0.257047
H865	H	-1.045209	0.701427	-0.164407
H866	H	-0.711876	1.034761	0.168926
H867	H	-0.378542	1.368094	0.502260
H868	H	-1.045229	0.597097	-0.268560
H869	H	-0.711896	0.930430	0.064773
H870	H	-0.378563	1.263763	0.398106
C871	C	-0.597151	0.560497	-0.305085
C872	C	-0.263818	0.893831	0.028248
C873	C	0.069516	1.227164	0.361582
C874	C	-0.570194	0.585907	-0.333907
C875	C	-0.236861	0.919241	-0.000574
C876	C	0.096472	1.252574	0.332760
C877	C	-0.546718	0.557229	-0.362678
C878	C	-0.213385	0.890562	-0.029345
C879	C	0.119948	1.223896	0.303989
H880	H	-0.578832	0.540919	-0.287934
H881	H	-0.245499	0.874252	0.045400
H882	H	0.087834	1.207585	0.378733
H883	H	-0.617834	0.543390	-0.322209
H884	H	-0.284500	0.876723	0.011124
H885	H	0.048833	1.210057	0.344457
H886	H	-0.549514	0.603007	-0.316785
H887	H	-0.216181	0.936340	0.016548
H888	H	0.117153	1.269674	0.349882
H889	H	-0.588502	0.605485	-0.351068
H890	H	-0.255168	0.938818	-0.017735
H891	H	0.078165	1.272151	0.315598
H892	H	-0.567401	0.540122	-0.379802
H893	H	-0.234068	0.873455	-0.046469
H894	H	0.099266	1.206788	0.286865
H895	H	-0.528402	0.537652	-0.345523
H896	H	-0.195069	0.870985	-0.012190
H897	H	0.138264	1.204319	0.321144
H898	H	-0.528429	0.574466	-0.382240
H899	H	-0.195095	0.907799	-0.048906
H900	H	0.138238	1.241132	0.284427
H901	H	-0.135965	0.121569	-0.297456
H902	H	0.197368	0.454902	0.035877
H903	H	0.530701	0.788235	0.369211
C904	C	-0.305276	0.170744	-0.127714
C905	C	0.028058	0.504078	0.205619
C906	C	0.361391	0.837411	0.538952
C907	C	-0.334125	0.143817	-0.153095
C908	C	-0.000791	0.477150	0.180238
C909	C	0.332542	0.810484	0.513571
C910	C	-0.362885	0.120327	-0.124388
C911	C	-0.029552	0.453660	0.208945
C912	C	0.303782	0.786993	0.542279
H913	H	-0.288118	0.152405	-0.108160
H914	H	0.045215	0.485738	0.225173
H915	H	0.378549	0.819072	0.558507
H916	H	-0.322380	0.191419	-0.110582
H917	H	0.010953	0.524752	0.222751
H918	H	0.344286	0.858085	0.556084
H919	H	-0.317022	0.123145	-0.170220
H920	H	0.016312	0.456478	0.163114
H921	H	0.349645	0.789812	0.496447
H922	H	-0.351292	0.162145	-0.172649
H923	H	-0.017959	0.495478	0.160685
H924	H	0.315374	0.828812	0.494018
H925	H	-0.379990	0.141001	-0.107256
H926	H	-0.046657	0.474334	0.226078
H927	H	0.286677	0.807667	0.559411
H928	H	-0.345724	0.101990	-0.104835
H929	H	-0.012391	0.435323	0.228498
H930	H	0.320943	0.768656	0.561832
H931	H	-0.382465	0.102057	-0.141605
H932	H	-0.049132	0.435390	0.191729
H933	H	0.284201	0.768723	0.525062
C934	C	-0.127930	0.737836	-0.695248
C935	C	0.205403	1.071170	-0.361915
C936	C	0.538736	1.404503	-0.028581
C937	C	-0.099107	0.712432	-0.722176
C938	C	0.234227	1.045765	-0.388843
C939	C	0.567560	1.379099	-0.055510
C940	C	-0.070313	0.741115	-0.745656
C941	C	0.263020	1.074449	-0.412323
C942	C	0.596353	1.407782	-0.078990
H943	H	-0.145065	0.757412	-0.713586
H944	H	0.188268	1.090745	-0.380253
H945	H	0.521601	1.424079	-0.046919
H946	H	-0.110809	0.754947	-0.674568
H947	H	0.222525	1.088280	-0.341234
H948	H	0.555858	1.421613	-0.007901
H949	H	-0.116227	0.695329	-0.742854
H950	H	0.217107	1.028662	-0.409521
H951	H	0.550440	1.361996	-0.076188
H952	H	-0.081962	0.692858	-0.703850
H953	H	0.251371	1.026191	-0.370516
H954	H	0.584705	1.359524	-0.037183
H955	H	-0.053192	0.758226	-0.724976
H956	H	0.280142	1.091559	-0.391643
H957	H	0.613475	1.424892	-0.058309
H958	H	-0.087452	0.760689	-0.763992
H959	H	0.245881	1.094023	-0.430658
H960	H	0.579215	1.427356	-0.097325
H961	H	-0.050750	0.723883	-0.763927
H962	H	0.282583	1.057216	-0.430593
H963	H	0.615916	1.390549	-0.097260
H964	H	-0.135943	0.262328	-0.297448
H965	H	0.197390	0.595662	0.035885
H966	H	0.530723	0.928995	0.369219
C967	C	-0.305263	0.560492	-0.835883
C968	C	0.028070	0.893826	-0.502550
C969	C	0.361403	1.227159	-0.169217
C970	C	-0.349719	0.570229	-0.824457
C971	C	-0.016385	0.903562	-0.491124
C972	C	0.316948	1.236895	-0.157790
C973	C	-0.378516	0.541494	-0.847839
C974	C	-0.045183	0.874828	-0.514506
C975	C	0.288150	1.208161	-0.181173
H976	H	-0.301208	0.564579	-0.867194
H977	H	0.032125	0.897913	-0.533861
H978	H	0.365458	1.231246	-0.200528
H979	H	-0.298701	0.530306	-0.828176
H980	H	0.034632	0.863640	-0.494843
H981	H	0.367966	1.196973	-0.161510
H982	H	-0.356279	0.600408	-0.832167
H983	H	-0.022945	0.933741	-0.498834
H984	H	0.310388	1.267074	-0.165500
H985	H	-0.353788	0.566139	-0.793150
H986	H	-0.020455	0.899473	-0.459817
H987	H	0.312879	1.232806	-0.126483
H988	H	-0.371954	0.511308	-0.840132
H989	H	-0.038621	0.844642	-0.506799
H990	H	0.294712	1.177975	-0.173466
H991	H	-0.374457	0.545583	-0.879149
H992	H	-0.041124	0.878917	-0.545816
H993	H	0.292209	1.212250	-0.212482
H994	H	-0.408682	0.548094	-0.840087
H995	H	-0.075349	0.881427	-0.506753
H996	H	0.257984	1.214760	-0.173420
C997	C	-0.835817	0.737923	-0.127961
C998	C	-0.502483	1.071256	0.205373
C999	C	-0.169150	1.404589	0.538706
C1000	C	-0.881927	0.731793	-0.134129
C1001	C	-0.548593	1.065127	0.199205
C1002	C	-0.215260	1.398460	0.532538
C1003	C	-0.905476	0.760555	-0.105501
C1004	C	-0.572142	1.093888	0.227832
C1005	C	-0.238809	1.427222	0.561165
H1006	H	-0.828210	0.731411	-0.097744
H1007	H	-0.494876	1.064744	0.235589
H1008	H	-0.161543	1.398078	0.568922
H1009	H	-0.828125	0.768106	-0.134580
H1010	H	-0.494792	1.101440	0.198753
H1011	H	-0.161458	1.434773	0.532086
H1012	H	-0.889615	0.701617	-0.127506
H1013	H	-0.556282	1.034950	0.205828
H1014	H	-0.222949	1.368283	0.539161
H1015	H	-0.889547	0.738308	-0.164339
H1016	H	-0.556214	1.071642	0.168995
H1017	H	-0.222881	1.404975	0.502328
H1018	H	-0.897784	0.790739	-0.112121
H1019	H	-0.564451	1.124072	0.221212
H1020	H	-0.231117	1.457405	0.554545
H1021	H	-0.897865	0.754041	-0.075287
H1022	H	-0.564532	1.087374	0.258046
H1023	H	-0.231198	1.420707	0.591380
H1024	H	-0.936764	0.756403	-0.109685
H1025	H	-0.603430	1.089736	0.223648
H1026	H	-0.270097	1.423070	0.556981
C1027	C	-0.305254	0.268531	-0.127622
C1028	C	0.028079	0.601864	0.205711
C1029	C	0.361412	0.935197	0.539045
C1030	C	-0.330390	0.237928	-0.102429
C1031	C	0.002943	0.571261	0.230904
C1032	C	0.336276	0.904595	0.564238
C1033	C	-0.359141	0.261281	-0.073627
C1034	C	-0.025807	0.594614	0.259706
C1035	C	0.307526	0.927947	0.593039
H1036	H	-0.288092	0.286836	-0.108035
H1037	H	0.045241	0.620169	0.225298
H1038	H	0.378574	0.953503	0.558631
H1039	H	-0.324876	0.286821	-0.144764
H1040	H	0.008457	0.620155	0.188569
H1041	H	0.341791	0.953488	0.521903
H1042	H	-0.310771	0.219645	-0.085289
H1043	H	0.022562	0.552979	0.248045
H1044	H	0.355896	0.886312	0.581378
H1045	H	-0.347562	0.219622	-0.122004
H1046	H	-0.014228	0.552955	0.211329
H1047	H	0.319105	0.886288	0.544663
H1048	H	-0.378762	0.279571	-0.090769
H1049	H	-0.045429	0.612904	0.242564
H1050	H	0.287904	0.946238	0.575897
H1051	H	-0.341975	0.279585	-0.054044
H1052	H	-0.008642	0.612918	0.279290
H1053	H	0.324692	0.946252	0.612623
H1054	H	-0.376202	0.240520	-0.056533
H1055	H	-0.042868	0.573854	0.276800
H1056	H	0.290465	0.907187	0.610133
C1057	C	-0.305166	0.560378	-0.597318
C1058	C	0.028167	0.893711	-0.263984
C1059	C	0.361501	1.227044	0.069349
C1060	C	-0.279727	0.531590	-0.570389
C1061	C	0.053606	0.864923	-0.237055
C1062	C	0.386940	1.198257	0.096278
C1063	C	-0.308376	0.502765	-0.546905
C1064	C	0.024958	0.836099	-0.213572
C1065	C	0.358291	1.169432	0.119762
H1066	H	-0.324763	0.577492	-0.578980
H1067	H	0.008570	0.910825	-0.245647
H1068	H	0.341903	1.244158	0.087687
H1069	H	-0.322254	0.543231	-0.617996
H1070	H	0.011079	0.876565	-0.284662
H1071	H	0.344412	1.209898	0.048671
H1072	H	-0.262646	0.548735	-0.549713
H1073	H	0.070687	0.882068	-0.216380
H1074	H	0.404021	1.215401	0.116954
H1075	H	-0.260131	0.514466	-0.588715
H1076	H	0.073203	0.847800	-0.255382
H1077	H	0.406536	1.181133	0.077952
H1078	H	-0.325464	0.485619	-0.567583
H1079	H	0.007869	0.818952	-0.234250
H1080	H	0.341203	1.152286	0.099084
H1081	H	-0.327972	0.519883	-0.528570
H1082	H	0.005362	0.853216	-0.195236
H1083	H	0.338695	1.186550	0.138097
H1084	H	-0.291119	0.483227	-0.528634
H1085	H	0.042214	0.816560	-0.195301
H1086	H	0.375547	1.149894	0.138033
H1087	H	-0.297452	0.121490	-0.135456
H1088	H	0.035881	0.454823	0.197877
H1089	H	0.369214	0.788157	0.531211
C1090	C	-0.305330	0.030065	-0.127678
C1091	C	0.028004	0.363398	0.205655
C1092	C	0.361337	0.696731	0.538989
C1093	C	-0.349790	0.041481	-0.137376
C1094	C	-0.016457	0.374814	0.195957
C1095	C	0.316877	0.708147	0.529291
C1096	C	-0.378570	0.018075	-0.108619
C1097	C	-0.045236	0.351408	0.224714
C1098	C	0.288097	0.684742	0.558048
H1099	H	-0.301290	-0.001243	-0.131770
H1100	H	0.032044	0.332090	0.201563
H1101	H	0.365377	0.665424	0.534896
H1102	H	-0.298737	0.037759	-0.097497
H1103	H	0.034596	0.371092	0.235836
H1104	H	0.367930	0.704426	0.569170
H1105	H	-0.356380	0.033784	-0.167550
H1106	H	-0.023047	0.367117	0.165783
H1107	H	0.310286	0.700450	0.499117
H1108	H	-0.353844	0.072784	-0.133281
H1109	H	-0.020511	0.406118	0.200052
H1110	H	0.312822	0.739451	0.533386
H1111	H	-0.371977	0.025769	-0.078438
H1112	H	-0.038644	0.359102	0.254895
H1113	H	0.294690	0.692436	0.588229
H1114	H	-0.374526	-0.013232	-0.112714
H1115	H	-0.041192	0.320102	0.220620
H1116	H	0.292141	0.653435	0.553953
H1117	H	-0.408739	0.025820	-0.115192
H1118	H	-0.075405	0.359154	0.218141
H1119	H	0.257928	0.692487	0.551474
C1120	C	-0.156646	0.709146	-1.051888
C1121	C	0.176688	1.042479	-0.718555
C1122	C	0.510021	1.375813	-0.385221
C1123	C	-0.162778	0.702984	-1.097995
C1124	C	0.170555	1.036317	-0.764662
C1125	C	0.503888	1.369651	-0.431328
C1126	C	-0.134063	0.731678	-1.121557
C1127	C	0.199271	1.065011	-0.788224
C1128	C	0.532604	1.398344	-0.454891
H1129	H	-0.163198	0.739346	-1.044260
H1130	H	0.170136	1.072680	-0.710926
H1131	H	0.503469	1.406013	-0.377593
H1132	H	-0.126451	0.702583	-1.044228
H1133	H	0.206882	1.035917	-0.710895
H1134	H	0.540216	1.369250	-0.377561
H1135	H	-0.192966	0.709550	-1.105652
H1136	H	0.140367	1.042883	-0.772319
H1137	H	0.473700	1.376217	-0.438985
H1138	H	-0.156223	0.672790	-1.105637
H1139	H	0.177110	1.006123	-0.772303
H1140	H	0.510443	1.339457	-0.438970
H1141	H	-0.103868	0.725115	-1.113897
H1142	H	0.229465	1.058448	-0.780564
H1143	H	0.562799	1.391781	-0.447231
H1144	H	-0.140617	0.761876	-1.113926
H1145	H	0.192716	1.095209	-0.780592
H1146	H	0.526050	1.428543	-0.447259
H1147	H	-0.138217	0.727498	-1.152843
H1148	H	0.195117	1.060831	-0.819510
H1149	H	0.528450	1.394164	-0.486177
C1150	C	-0.381377	0.708998	-0.156476
C1151	C	-0.048044	1.042332	0.176858
C1152	C	0.285290	1.375665	0.510191
C1153	C	-0.392827	0.699259	-0.112020
C1154	C	-0.059493	1.032592	0.221314
C1155	C	0.273840	1.365926	0.554647
C1156	C	-0.369426	0.727980	-0.083227
C1157	C	-0.036093	1.061314	0.250106
C1158	C	0.297241	1.394647	0.583440
H1159	H	-0.350069	0.704901	-0.160519
H1160	H	-0.016735	1.038234	0.172814
H1161	H	0.316598	1.371567	0.506147
H1162	H	-0.389053	0.739188	-0.163054
H1163	H	-0.055719	1.072522	0.170280
H1164	H	0.277614	1.405855	0.503613
H1165	H	-0.385148	0.669076	-0.105444
H1166	H	-0.051815	1.002410	0.227889
H1167	H	0.281519	1.335743	0.561222
H1168	H	-0.424131	0.703359	-0.107962
H1169	H	-0.090798	1.036693	0.225371
H1170	H	0.242536	1.370026	0.558705
H1171	H	-0.377102	0.758170	-0.089805
H1172	H	-0.043768	1.091504	0.243528
H1173	H	0.289565	1.424837	0.576862
H1174	H	-0.338119	0.723880	-0.087274
H1175	H	-0.004785	1.057214	0.246059
H1176	H	0.328548	1.390547	0.579392
H1177	H	-0.377194	0.721379	-0.053061
H1178	H	-0.043861	1.054712	0.280273
H1179	H	0.289472	1.388046	0.613606
H1180	H	-0.268770	0.596991	-0.473021
H1181	H	0.064563	0.930325	-0.139688
H1182	H	0.397896	1.263658	0.193645
H1183	H	-0.268791	-0.094300	-0.164232
H1184	H	0.064543	0.239033	0.169101
H1185	H	0.397876	0.572367	0.502434
C1186	C	-0.276455	0.589205	-1.051697
C1187	C	0.056878	0.922539	-0.718364
C1188	C	0.390211	1.255872	-0.385030
C1189	C	-0.301601	0.564014	-1.021101
C1190	C	0.031733	0.897347	-0.687767
C1191	C	0.365066	1.230681	-0.354434
C1192	C	-0.330337	0.535201	-1.044461
C1193	C	0.002996	0.868534	-0.711127
C1194	C	0.336329	1.201868	-0.377794
H1195	H	-0.296075	0.606325	-1.070001
H1196	H	0.037258	0.939658	-0.736667
H1197	H	0.370591	1.272992	-0.403334
H1198	H	-0.259269	0.569622	-1.069990
H1199	H	0.074064	0.902955	-0.736656
H1200	H	0.407398	1.236288	-0.403323
H1201	H	-0.318786	0.583595	-1.002816
H1202	H	0.014548	0.916929	-0.669482
H1203	H	0.347881	1.250262	-0.336149
H1204	H	-0.281993	0.546885	-1.002796
H1205	H	0.051341	0.880219	-0.669463
H1206	H	0.384674	1.213552	-0.336130
H1207	H	-0.313151	0.515617	-1.062754
H1208	H	0.020182	0.848951	-0.729420
H1209	H	0.353516	1.182284	-0.396087
H1210	H	-0.349954	0.552324	-1.062764
H1211	H	-0.016621	0.885658	-0.729430
H1212	H	0.316712	1.218991	-0.396097
H1213	H	-0.347399	0.518102	-1.023705
H1214	H	-0.014065	0.851436	-0.690372
H1215	H	0.319268	1.184769	-0.357038
H1216	H	-0.472801	0.701258	-0.164352
H1217	H	-0.139468	1.034591	0.168981
H1218	H	0.193866	1.367924	0.502315
H1219	H	-0.603506	0.730046	-0.135660
H1220	H	-0.270172	1.063380	0.197673
H1221	H	0.063161	1.396713	0.531006
C1222	C	-0.276532	0.589191	-0.381449
C1223	C	0.056801	0.922524	-0.048116
C1224	C	0.390134	1.255857	0.285218
C1225	C	-0.270383	0.595335	-0.335342
C1226	C	0.062950	0.928668	-0.002008
C1227	C	0.396284	1.262001	0.331325
C1228	C	-0.299048	0.566590	-0.311780
C1229	C	0.034285	0.899924	0.021553
C1230	C	0.367618	1.233257	0.354887
H1231	H	-0.306739	0.595709	-0.389078
H1232	H	0.026595	0.929042	-0.055745
H1233	H	0.359928	1.262375	0.277588
H1234	H	-0.269936	0.559002	-0.389108
H1235	H	0.063398	0.892335	-0.055775
H1236	H	0.396731	1.225669	0.277558
H1237	H	-0.276983	0.625516	-0.327685
H1238	H	0.056351	0.958850	0.005648
H1239	H	0.389684	1.292183	0.338981
H1240	H	-0.240183	0.588813	-0.327699
H1241	H	0.093151	0.922146	0.005634
H1242	H	0.426484	1.255480	0.338968
H1243	H	-0.292452	0.536402	-0.319440
H1244	H	0.040882	0.869735	0.013894
H1245	H	0.374215	1.203069	0.347227
H1246	H	-0.329253	0.573111	-0.319413
H1247	H	0.004080	0.906444	0.013920
H1248	H	0.337414	1.239778	0.347254
H1249	H	-0.294877	0.570752	-0.280494
H1250	H	0.038456	0.904086	0.052839
H1251	H	0.371790	1.237419	0.386173
H1252	H	-0.744253	0.730093	-0.135676
H1253	H	-0.410919	1.063426	0.197657
H1254	H	-0.077586	1.396760	0.530991
H1255	H	-0.744302	0.568268	-0.297242
H1256	H	-0.410968	0.901601	0.036091
H1257	H	-0.077635	1.234934	0.369424
H1258	H	-0.164549	0.701326	-0.473031
H1259	H	0.168785	1.034660	-0.139697
H1260	H	0.502118	1.367993	0.193636
H1261	H	-0.268660	0.597044	-0.960302
H1262	H	0.064673	0.930377	-0.626969
H1263	H	0.398007	1.263711	-0.293635
H1264	H	-0.135771	0.730110	-0.744497
H1265	H	0.197563	1.063443	-0.411164
H1266	H	0.530896	1.396777	-0.077830
