data_functionalizedCrystal
_audit_creation_method	'MofGen! by Chris Wilmer'
_symmetry_space_group_name_H-M	'P1'
_symmetry_Int_Tables_number	1
_symmetry_cell_setting	triclinic
loop_
_symmetry_equiv_pos_as_xyz
  x,y,z
_cell_length_a	14.908571
_cell_length_b	14.908520
_cell_length_c	12.759393
_cell_angle_alpha	93.263025
_cell_angle_beta	86.684760
_cell_angle_gamma	90.205961
loop_
_atom_site_label
_atom_site_type_symbol
_atom_site_fract_x
_atom_site_fract_y
_atom_site_fract_z
Zn1	Zn	1.353994	-0.437353	-0.714250
Zn2	Zn	1.345204	-0.587730	-0.548072
Zn3	Zn	1.203621	-0.428709	-0.527912
Zn4	Zn	1.194921	-0.578977	-0.713035
O5	O	1.274435	-0.508192	-0.625817
O6	O	1.478653	-0.464582	-0.701151
O7	O	1.326384	-0.566681	-0.398377
O8	O	1.230887	-0.304034	-0.544701
O9	O	1.472195	-0.575063	-0.579061
O10	O	1.341366	-0.310385	-0.681603
O11	O	1.222364	-0.449849	-0.383566
O12	O	1.076642	-0.441361	-0.543524
O13	O	1.216060	-0.560145	-0.860217
O14	O	1.070250	-0.551763	-0.679533
O15	O	1.332930	-0.456094	-0.861109
O16	O	1.317949	-0.712390	-0.577884
O17	O	1.207537	-0.705960	-0.699082
C18	C	1.040821	-0.494675	-0.609210
C19	C	0.940878	-0.488914	-0.602131
C20	C	1.260870	-0.741800	-0.640563
C21	C	1.255149	-0.841744	-0.646913
C22	C	0.746459	-0.593228	-0.730287
C23	C	0.652554	-0.587818	-0.723640
C24	C	0.659162	-0.472679	-0.582196
C25	C	0.753067	-0.478089	-0.588843
C26	C	0.796712	-0.538367	-0.662890
C27	C	0.890618	-0.543781	-0.669531
C28	C	0.897225	-0.428639	-0.528093
C29	C	0.803320	-0.423228	-0.521445
C30	C	1.359488	-1.036190	-0.532757
C31	C	1.354116	-1.130096	-0.538720
C32	C	1.239037	-1.123463	-0.664805
C33	C	1.244409	-1.029557	-0.658843
C34	C	1.304636	-0.985924	-0.592815
C35	C	1.310003	-0.892016	-0.586848
C36	C	1.194929	-0.885386	-0.712938
C37	C	1.189557	-0.979291	-0.718901
C38	C	1.508961	-0.521763	-0.642490
C39	C	1.608902	-0.527546	-0.649596
C40	C	1.274505	-0.508108	-0.899850
C41	C	1.274535	-0.508071	-1.016626
C42	C	1.288077	-0.273674	-0.611038
C43	C	1.293891	-0.173736	-0.604741
C44	C	1.335415	-0.453850	-1.181684
C45	C	1.335395	-0.453884	-1.071961
C46	C	1.213697	-0.562235	-1.071021
C47	C	1.213721	-0.562205	-1.180742
C48	C	1.443274	-0.427937	-0.927533
C49	C	1.504102	-0.373765	-0.873141
C50	C	1.523020	-0.286823	-0.904210
C51	C	1.481097	-0.254033	-0.989667
C52	C	1.420262	-0.308200	-1.044053
C53	C	1.401360	-0.395156	-1.012987
C54	C	1.105842	-0.588143	-1.325172
C55	C	1.045002	-0.642306	-1.379559
C56	C	1.026075	-0.729249	-1.348492
C57	C	1.067982	-0.762035	-1.263030
C58	C	1.128823	-0.707872	-1.208643
C59	C	1.147751	-0.620929	-1.239718
C60	C	1.274420	-0.508215	-0.352850
C61	C	1.274579	-0.508008	-0.236071
H62	H	0.926152	-0.592863	-0.729823
C63	C	1.401392	-0.395044	-1.241942
C64	C	1.388379	-0.406587	-1.349671
C65	C	1.449135	-0.352420	-1.405208
H66	H	1.461076	-0.411649	-1.229213
H67	H	1.391736	-0.333855	-1.219277
H68	H	1.398042	-0.467762	-1.372329
H69	H	1.328707	-0.389976	-1.362432
H70	H	1.439480	-0.291232	-1.382543
H71	H	1.508815	-0.369031	-1.392471
H72	H	1.440309	-0.360239	-1.478307
C73	C	1.424928	-0.988700	-0.461234
C74	C	1.485609	-0.938010	-0.521436
C75	C	1.545897	-0.894243	-0.455581
H76	H	1.456915	-1.031990	-0.426291
H77	H	1.392671	-0.950090	-0.410675
H78	H	1.517863	-0.976617	-0.571976
H79	H	1.453647	-0.894705	-0.556378
H80	H	1.513640	-0.855633	-0.405022
H81	H	1.577878	-0.937539	-0.420641
H82	H	1.587071	-0.859839	-0.496417
C83	C	1.135412	-0.830930	-0.778329
C84	C	1.153614	-0.854830	-0.885133
C85	C	1.098793	-0.804694	-0.945395
H86	H	1.147174	-0.768735	-0.765461
H87	H	1.074107	-0.842917	-0.759637
H88	H	1.214904	-0.842836	-0.903819
H89	H	1.141847	-0.917016	-0.898034
H90	H	1.037489	-0.816681	-0.926702
H91	H	1.110560	-0.742502	-0.932518
H92	H	1.111130	-0.820910	-1.017867
H93	H	1.398784	-1.171019	-0.489817
H94	H	1.359040	-0.856491	-0.533082
H95	H	1.386118	-0.281498	-1.113620
H96	H	0.781995	-0.642313	-0.790574
C97	C	1.173519	-1.170719	-0.736419
C98	C	1.085865	-1.142821	-0.705708
C99	C	1.025489	-1.186324	-0.771665
H100	H	1.178055	-1.233852	-0.731432
H101	H	1.187478	-1.156004	-0.806985
H102	H	1.071911	-1.157543	-0.635159
H103	H	1.081300	-1.079695	-0.710699
H104	H	1.039448	-1.171608	-0.842231
H105	H	1.030034	-1.249455	-0.766674
H106	H	0.966011	-1.167395	-0.750843
C107	C	1.501783	-0.159622	-1.023264
C108	C	1.564049	-0.119211	-0.957362
C109	C	1.583137	-0.032244	-0.988292
H110	H	1.448100	-0.125136	-1.018392
H111	H	1.526194	-0.162530	-1.093822
H112	H	1.539636	-0.116298	-0.886821
H113	H	1.617744	-0.153671	-0.962224
H114	H	1.607548	-0.035152	-1.058850
H115	H	1.529450	0.002234	-0.983420
H116	H	1.625392	-0.004817	-0.943589
C117	C	0.598149	-0.647488	-0.796873
C118	C	0.656474	-0.701445	-0.863123
C119	C	0.606388	-0.756433	-0.930595
H120	H	0.563519	-0.611126	-0.838050
H121	H	0.559247	-0.684566	-0.756518
H122	H	0.695360	-0.664371	-0.903474
H123	H	0.691105	-0.737826	-0.821975
H124	H	0.567486	-0.793511	-0.890240
H125	H	0.571760	-0.720064	-0.971765
H126	H	0.645953	-0.793055	-0.975547
C127	C	0.611935	-0.407148	-0.501777
C128	C	0.676042	-0.360241	-0.444187
C129	C	0.632570	-0.299857	-0.370106
H130	H	0.573289	-0.439285	-0.455415
H131	H	0.577614	-0.365854	-0.536959
H132	H	0.710347	-0.401529	-0.409007
H133	H	0.714690	-0.328085	-0.490520
H134	H	0.598249	-0.258563	-0.405288
H135	H	0.593926	-0.332002	-0.323752
H136	H	0.676059	-0.268018	-0.331030
C137	C	1.589125	-0.228161	-0.845059
C138	C	1.621802	-0.275490	-0.763588
C139	C	1.682711	-0.221490	-0.709083
H140	H	1.559673	-0.175124	-0.816459
H141	H	1.637742	-0.212475	-0.891954
H142	H	1.573194	-0.291163	-0.716700
H143	H	1.651270	-0.328523	-0.792159
H144	H	1.731328	-0.205804	-0.755978
H145	H	1.653252	-0.168456	-0.680490
H146	H	1.704896	-0.253597	-0.653805
C147	C	0.951947	-0.369115	-0.455039
C148	C	1.043529	-0.386739	-0.476719
C149	C	1.093965	-0.331920	-0.409450
H150	H	0.935875	-0.381269	-0.384122
H151	H	0.940120	-0.307813	-0.465634
H152	H	1.055351	-0.448027	-0.466114
H153	H	1.059628	-0.374580	-0.547623
H154	H	1.082138	-0.270618	-0.420046
H155	H	1.077885	-0.344079	-0.338537
H156	H	1.156109	-0.343865	-0.424157
H157	H	1.140524	-1.014831	-0.772661
C158	C	1.422936	-0.522373	-0.893789
C159	C	1.502307	-0.572824	-0.901022
C160	C	1.483611	-0.659818	-0.869926
H161	H	1.380751	-0.550064	-0.938368
H162	H	1.398611	-0.519469	-0.823195
H163	H	1.526620	-0.575732	-0.971605
H164	H	1.544503	-0.545161	-0.856443
H165	H	1.459286	-0.656914	-0.799333
H166	H	1.441424	-0.687501	-0.914509
H167	H	1.537462	-0.694058	-0.874821
H168	H	1.538236	-0.400471	-0.803562
C169	C	1.147484	-0.621025	-1.011079
C170	C	1.059662	-0.596321	-1.030230
C171	C	0.998643	-0.650472	-0.975048
H172	H	1.156050	-0.613346	-0.937920
H173	H	1.157091	-0.682201	-1.033833
H174	H	1.050058	-0.535160	-1.007470
H175	H	1.051067	-0.604003	-1.103378
H176	H	1.008251	-0.711648	-0.997803
H177	H	1.007218	-0.642789	-0.901892
H178	H	0.939050	-0.633724	-0.988042
C179	C	1.174562	-0.743564	-1.116075
C180	C	1.224355	-0.820339	-1.149911
C181	C	1.266565	-0.853227	-1.064705
H182	H	1.130434	-0.758489	-1.063193
H183	H	1.213564	-0.698869	-1.088216
H184	H	1.185356	-0.865025	-1.177753
H185	H	1.268497	-0.805438	-1.202781
H186	H	1.305567	-0.808532	-1.036846
H187	H	1.222431	-0.868146	-1.011829
H188	H	1.300361	-0.905317	-1.087653
H189	H	1.121253	-0.517347	-1.350480
H190	H	1.052573	-0.832832	-1.237735
H191	H	0.976558	-0.773360	-1.392808
C192	C	0.999533	-0.606879	-1.472466
C193	C	1.021534	-0.662031	-1.562723
C194	C	0.979655	-0.629434	-1.648324
H195	H	1.019475	-0.547363	-1.483337
H196	H	0.936250	-0.606889	-1.458440
H197	H	1.084803	-0.662012	-1.576747
H198	H	1.001591	-0.721549	-1.551887
H199	H	0.916372	-0.629444	-1.634298
H200	H	0.999600	-0.569918	-1.659185
H201	H	0.994570	-0.666854	-1.709571
H202	H	0.767772	-0.374150	-0.461161
