data_functionalizedCrystal
_audit_creation_method	'MofGen! by Chris Wilmer'
_symmetry_space_group_name_H-M	'P1'
_symmetry_Int_Tables_number	1
_symmetry_cell_setting	triclinic
loop_
_symmetry_equiv_pos_as_xyz
  x,y,z
_cell_length_a	13.032831
_cell_length_b	16.625546
_cell_length_c	13.033109
_cell_angle_alpha	97.150917
_cell_angle_beta	76.665514
_cell_angle_gamma	82.826778
loop_
_atom_site_label
_atom_site_type_symbol
_atom_site_fract_x
_atom_site_fract_y
_atom_site_fract_z
Zn1	Zn	1.700046	-0.566824	-0.806356
Zn2	Zn	2.200046	-0.066824	-0.306356
Zn3	Zn	1.677364	-0.682041	-0.628728
Zn4	Zn	2.177364	-0.182041	-0.128728
Zn5	Zn	1.499875	-0.527607	-0.606253
Zn6	Zn	1.999875	-0.027607	-0.106253
Zn7	Zn	1.522379	-0.681970	-0.783772
Zn8	Zn	2.022379	-0.181970	-0.283772
O9	O	1.599916	-0.614611	-0.706277
O10	O	2.099916	-0.114611	-0.206277
O11	O	1.845671	-0.598550	-0.801651
O12	O	2.345671	-0.098550	-0.301651
O13	O	1.634909	-0.645173	-0.477117
O14	O	2.134909	-0.145173	0.022883
O15	O	1.526502	-0.419988	-0.632842
O16	O	2.026502	0.080012	-0.132842
O17	O	1.829007	-0.683200	-0.671148
O18	O	2.329007	-0.183200	-0.171148
O19	O	1.673567	-0.448801	-0.779857
O20	O	2.173567	0.051199	-0.279857
O21	O	1.504509	-0.531710	-0.460604
O22	O	2.004509	-0.031710	0.039396
O23	O	1.354226	-0.531641	-0.610944
O24	O	1.854226	-0.031641	-0.110944
O25	O	1.564858	-0.683079	-0.935398
O26	O	2.064858	-0.183079	-0.435398
O27	O	1.370760	-0.645052	-0.741366
O28	O	1.870760	-0.145052	-0.241366
O29	O	1.695389	-0.598481	-0.951990
O30	O	2.195389	-0.098481	-0.451990
O31	O	1.656731	-0.794853	-0.649250
O32	O	2.156731	-0.294853	-0.149250
O33	O	1.542864	-0.794801	-0.763160
O34	O	2.042864	-0.294801	-0.263160
C35	C	1.323954	-0.584084	-0.671266
C36	C	1.823954	-0.084084	-0.171266
C37	C	1.205899	-0.571046	-0.656313
C38	C	1.705899	-0.071046	-0.156313
C39	C	1.161462	-0.621415	-0.714081
C40	C	1.661462	-0.121415	-0.214081
C41	C	1.039447	-0.607942	-0.698628
C42	C	1.539447	-0.107942	-0.198628
C43	C	1.599810	-0.824086	-0.706220
C44	C	2.099810	-0.324086	-0.206220
C45	C	1.599866	-0.913714	-0.706243
C46	C	2.099866	-0.413714	-0.206243
C47	C	1.600066	-1.241923	-0.706378
C48	C	2.100066	-0.741923	-0.206378
C49	C	1.600007	-1.150605	-0.706343
C50	C	2.100007	-0.650605	-0.206343
C51	C	1.599965	-1.077821	-0.706310
C52	C	2.099965	-0.577821	-0.206310
C53	C	1.599908	-0.986498	-0.706276
C54	C	2.099908	-0.486498	-0.206276
C55	C	1.876956	-0.645257	-0.741426
C56	C	2.376956	-0.145257	-0.241426
C57	C	1.995014	-0.658317	-0.756404
C58	C	2.495014	-0.158317	-0.256404
C59	C	1.635164	-0.645147	-0.983310
C60	C	2.135164	-0.145147	-0.483310
C61	C	1.650184	-0.658159	-1.101365
C62	C	2.150184	-0.158159	-0.601365
C63	C	1.600055	-0.404324	-0.706362
C64	C	2.100055	0.095676	-0.206362
C65	C	1.600114	-0.314712	-0.706398
C66	C	2.100114	0.185288	-0.206398
C67	C	1.592361	-0.607822	-1.145827
C68	C	2.092361	-0.107822	-0.645827
C69	C	1.607884	-0.621270	-1.267843
C70	C	2.107884	-0.121270	-0.767843
C71	C	1.564867	-0.584142	-0.430330
C72	C	2.064867	-0.084142	0.069670
C73	C	1.550052	-0.570925	-0.312302
C74	C	2.050052	-0.070925	0.187698
H75	H	1.153612	-0.517946	-0.595421
H76	H	1.653612	-0.017946	-0.095421
N77	N	0.973852	-0.541323	-0.622240
N78	N	1.473852	-0.041323	-0.122240
N79	N	0.874828	-0.530470	-0.609800
N80	N	1.374828	-0.030470	-0.109800
H81	H	0.828499	-0.483421	-0.555853
H82	H	1.328499	0.016579	-0.055853
N83	N	1.060588	-0.724946	-0.832790
N84	N	1.560588	-0.224946	-0.332790
N85	N	1.047334	-0.797189	-0.824009
N86	N	1.547334	-0.297189	-0.324009
H87	H	1.093645	-0.844247	-0.877955
H88	H	1.593645	-0.344247	-0.377955
H89	H	1.668883	-0.674326	-1.320105
H90	H	2.168883	-0.174326	-0.820105
N91	N	1.515834	-0.541276	-1.080254
N92	N	2.015834	-0.041276	-0.580254
N93	N	1.503329	-0.530449	-0.981229
N94	N	2.003329	-0.030449	-0.481229
H95	H	1.449279	-0.483450	-0.934918
H96	H	1.949279	0.016550	-0.434918
H97	H	1.489049	-0.517871	-1.260041
H98	H	1.989049	-0.017871	-0.760041
N99	N	1.726709	-0.724704	-1.166941
N100	N	2.226709	-0.224704	-0.666941
N101	N	1.802227	-0.710596	-1.237458
N102	N	2.302227	-0.210596	-0.737458
H103	H	1.856276	-0.757594	-1.283773
H104	H	2.356276	-0.257594	-0.783773
N105	N	1.227063	-0.688017	-0.790485
N106	N	1.727063	-0.188017	-0.290485
N107	N	1.326089	-0.698864	-0.802934
N108	N	1.826089	-0.198864	-0.302934
H109	H	1.372420	-0.745902	-0.856898
H110	H	1.872420	-0.245902	-0.356898
