data_functionalizedCrystal
_audit_creation_method	'MofGen! by Chris Wilmer'
_symmetry_space_group_name_H-M	'P1'
_symmetry_Int_Tables_number	1
_symmetry_cell_setting	triclinic
loop_
_symmetry_equiv_pos_as_xyz
  x,y,z
_cell_length_a	29.839134
_cell_length_b	29.839133
_cell_length_c	21.295411
_cell_angle_alpha	89.989633
_cell_angle_beta	90.034268
_cell_angle_gamma	89.971624
loop_
_atom_site_label
_atom_site_type_symbol
_atom_site_fract_x
_atom_site_fract_y
_atom_site_fract_z
Zn1	Zn	0.686799	0.178966	0.356124
Zn2	Zn	0.686725	0.254082	0.250870
Zn3	Zn	0.611665	0.178960	0.250851
Zn4	Zn	0.611640	0.254063	0.356084
O5	O	0.649207	0.216518	0.303482
O6	O	0.749656	0.188941	0.342186
O7	O	0.676748	0.244122	0.162778
O8	O	0.621674	0.116093	0.264824
O9	O	0.749602	0.244128	0.264857
O10	O	0.676874	0.116098	0.342168
O11	O	0.621602	0.188930	0.162764
O12	O	0.548795	0.188912	0.264786
O13	O	0.621630	0.244096	0.444178
O14	O	0.548776	0.244090	0.342100
O15	O	0.676849	0.188923	0.444208
O16	O	0.676723	0.316946	0.264818
O17	O	0.621558	0.316933	0.342118
C18	C	0.532485	0.216499	0.303437
C19	C	0.482550	0.216501	0.303432
C20	C	0.172907	0.245291	0.343690
C21	C	-0.014767	0.245304	0.343718
O22	O	-0.039032	0.269761	0.377920
N23	N	-0.038235	0.216534	0.303529
C24	C	-0.014782	0.187757	0.263334
O25	O	-0.039049	0.163283	0.229156
C26	C	0.172890	0.187742	0.263309
C27	C	0.196356	0.216517	0.303496
C28	C	0.196372	0.274064	0.383874
C29	C	0.243288	0.274062	0.383864
C30	C	0.266737	0.245288	0.343671
C31	C	0.243272	0.216516	0.303486
C32	C	0.196342	0.158963	0.223117
C33	C	0.243263	0.158961	0.223116
C34	C	0.266729	0.187736	0.263303
C35	C	0.313637	0.187740	0.263283
N36	N	0.337105	0.216510	0.303471
C37	C	0.313655	0.245284	0.343665
C38	C	-0.113312	0.187767	0.263349
C39	C	-0.160230	0.187771	0.263354
C40	C	-0.160212	0.245318	0.343739
C41	C	-0.113293	0.245316	0.343730
C42	C	-0.089844	0.216537	0.303537
C43	C	0.412181	0.245278	0.343641
C44	C	0.459101	0.245275	0.343626
C45	C	0.459078	0.187727	0.263243
C46	C	0.412163	0.187732	0.263256
C47	C	0.388715	0.216509	0.303460
O48	O	0.337931	0.163292	0.229104
O49	O	0.337931	0.269747	0.377848
C50	C	0.125991	0.245293	0.343700
C51	C	0.102525	0.216521	0.303516
C52	C	0.125975	0.187747	0.263322
C53	C	0.055607	0.216525	0.303521
C54	C	0.032158	0.245299	0.343715
C55	C	0.055626	0.274069	0.383904
C56	C	0.102541	0.274067	0.383894
C57	C	0.102507	0.158977	0.223133
C58	C	0.055591	0.158981	0.223146
C59	C	0.032141	0.187755	0.263340
C60	C	0.649142	0.333240	0.303479
C61	C	0.649156	0.383175	0.303499
C62	C	0.677931	0.739729	0.343797
C63	C	0.677901	0.552056	0.343798
O64	O	0.702331	0.527764	0.378054
N65	N	0.649181	0.528620	0.303497
C66	C	0.620469	0.552104	0.263190
O67	O	0.596043	0.527864	0.228907
C68	C	0.620501	0.739777	0.263186
C69	C	0.649220	0.763211	0.303495
C70	C	0.706647	0.763163	0.384102
C71	C	0.706653	0.810079	0.384103
C72	C	0.677942	0.833560	0.343801
C73	C	0.649225	0.810126	0.303497
C74	C	0.591791	0.763260	0.222877
C75	C	0.591803	0.810181	0.222878
C76	C	0.620521	0.833615	0.263187
C77	C	0.620519	0.880523	0.263196
N78	N	0.649239	0.903959	0.303497
C79	C	0.677950	0.880478	0.343799
C80	C	0.620453	0.453574	0.263195
C81	C	0.620444	0.406656	0.263197
C82	C	0.677878	0.406611	0.343804
C83	C	0.677884	0.453530	0.343805
C84	C	0.649173	0.477010	0.303496
C85	C	0.677959	0.979004	0.343801
C86	C	0.677961	1.025923	0.343801
C87	C	0.620530	1.025964	0.263191
C88	C	0.620526	0.979049	0.263193
C89	C	0.649245	0.955570	0.303500
O90	O	0.596106	0.904844	0.228953
O91	O	0.702379	0.904726	0.378067
C92	C	0.677925	0.692814	0.343795
C93	C	0.649209	0.669380	0.303491
C94	C	0.620498	0.692861	0.263188
C95	C	0.649200	0.622462	0.303492
C96	C	0.677911	0.598980	0.343795
C97	C	0.706631	0.622417	0.384096
C98	C	0.706637	0.669332	0.384098
C99	C	0.591778	0.669425	0.222887
C100	C	0.591774	0.622509	0.222889
C101	C	0.620485	0.599028	0.263192
C102	C	0.766386	0.216537	0.303528
C103	C	0.816320	0.216545	0.303548
C104	C	0.649245	0.216508	0.467672
C105	C	0.649260	0.216504	0.537641
C106	C	0.649268	1.099339	0.303497
C107	C	0.649250	1.049405	0.303498
C108	C	0.649196	0.216495	0.139931
C109	C	0.649267	0.216372	0.069963
C110	C	0.678012	0.187774	0.570524
C111	C	0.678011	0.187754	0.636266
C112	C	0.649264	0.216473	0.669123
C113	C	0.620507	0.245205	0.636232
C114	C	0.620505	0.245221	0.570491
N115	N	0.645796	0.255773	0.772349
N116	N	0.645800	0.255757	0.834800
C117	C	0.649267	0.216428	0.867198
N118	N	0.652738	0.177114	0.834785
N119	N	0.652736	0.177130	0.772328
C120	C	0.649262	0.216459	0.740409
C121	C	0.678019	0.187674	0.971366
C122	C	0.678015	0.187654	1.037110
C123	C	0.620513	0.245108	1.037075
C124	C	0.620515	0.245125	0.971333
C125	C	0.649270	0.216408	0.938482
H126	H	0.478204	0.268709	0.376352
Br127	Br	0.164557	0.313119	0.438431
Br128	Br	0.581549	0.947244	0.208491
Br129	Br	0.717022	0.148750	0.680903
Br130	Br	0.581482	0.284214	0.525861
H131	H	0.701426	0.164390	0.543781
Br132	Br	0.023792	0.313122	0.438448
Br133	Br	-0.081496	0.148706	0.208797
Br134	Br	0.717041	0.148701	0.926780
H135	H	-0.094190	0.268746	0.376455
H136	H	0.478179	0.164301	0.230517
Br137	Br	0.023751	0.119928	0.168598
H138	H	0.701427	0.164256	1.063882
H139	H	0.177245	0.135533	0.190391
H140	H	0.121595	0.135545	0.190402
H141	H	0.568423	0.829297	0.190053
H142	H	0.393096	0.268710	0.376381
H143	H	0.701346	1.045001	0.376628
H144	H	0.262353	0.135523	0.190389
Br145	Br	0.380315	0.148688	0.208704
H146	H	0.730022	0.688408	0.416921
Br147	Br	0.581493	0.284079	1.081660
H148	H	0.597105	0.268523	0.944559
Br149	Br	0.716935	0.947147	0.398503
H150	H	0.262390	0.297493	0.416590
Br151	Br	0.745628	0.841875	0.438813
H152	H	0.730030	0.744049	0.416920
H153	H	0.568384	0.603432	0.190067
H154	H	-0.179312	0.268747	0.376467
H155	H	0.701267	0.472607	0.376631
H156	H	0.701255	0.387485	0.376621
Br157	Br	0.581562	1.057841	0.208504
H158	H	-0.179332	0.164344	0.230623
H159	H	0.121643	0.297498	0.416618
H160	H	0.597054	0.387579	0.230381
Br161	Br	0.581483	0.485434	0.208486
H162	H	0.568406	0.744187	0.190054
H163	H	0.730007	0.603291	0.416914
Br164	Br	0.552808	0.701285	0.168186
Br165	Br	0.581489	0.284178	0.680822
