data_functionalizedCrystal
_audit_creation_method	'MofGen! by Chris Wilmer'
_symmetry_space_group_name_H-M	'P1'
_symmetry_Int_Tables_number	1
_symmetry_cell_setting	triclinic
loop_
_symmetry_equiv_pos_as_xyz
  x,y,z
_cell_length_a	12.759395
_cell_length_b	18.215406
_cell_length_c	18.215399
_cell_angle_alpha	89.980812
_cell_angle_beta	89.982699
_cell_angle_gamma	89.999303
loop_
_atom_site_label
_atom_site_type_symbol
_atom_site_fract_x
_atom_site_fract_y
_atom_site_fract_z
Zn1	Zn	1.606359	-0.292962	-0.416111
Zn2	Zn	2.106359	0.207038	0.083889
Zn3	Zn	1.606311	-0.416033	-0.293064
Zn4	Zn	2.106311	0.083967	0.206936
Zn5	Zn	1.430667	-0.292988	-0.293064
Zn6	Zn	1.930667	0.207012	0.206936
Zn7	Zn	1.430701	-0.415994	-0.416094
Zn8	Zn	1.930701	0.084006	0.083906
O9	O	1.518510	-0.354494	-0.354583
O10	O	2.018510	0.145506	0.145417
O11	O	1.753374	-0.309292	-0.399796
O12	O	2.253374	0.190708	0.100204
O13	O	1.582978	-0.399738	-0.190079
O14	O	2.082978	0.100262	0.309921
O15	O	1.453978	-0.190000	-0.309394
O16	O	1.953978	0.310000	0.190606
O17	O	1.753339	-0.399712	-0.309393
O18	O	2.253339	0.100288	0.190607
O19	O	1.583059	-0.189981	-0.399796
O20	O	2.083059	0.310019	0.100204
O21	O	1.453932	-0.309337	-0.190079
O22	O	1.953932	0.190663	0.309921
O23	O	1.283651	-0.309300	-0.309377
O24	O	1.783651	0.190700	0.190623
O25	O	1.454037	-0.399646	-0.519080
O26	O	1.954037	0.100354	-0.019080
O27	O	1.283676	-0.399672	-0.399767
O28	O	1.783676	0.100328	0.100233
O29	O	1.583092	-0.309255	-0.519093
O30	O	2.083092	0.190745	-0.019093
O31	O	1.583011	-0.519012	-0.309377
O32	O	2.083011	-0.019012	0.190623
O33	O	1.453991	-0.518984	-0.399766
O34	O	1.953991	-0.018984	0.100234
C35	C	1.245542	-0.354485	-0.354570
C36	C	1.745542	0.145515	0.145430
C37	C	1.128766	-0.354499	-0.354582
C38	C	1.628766	0.145501	0.145418
C39	C	1.518528	-0.545700	-0.354586
C40	C	2.018528	-0.045700	0.145414
C41	C	1.518632	-0.627499	-0.354611
C42	C	2.018632	-0.127499	0.145389
C43	C	1.518574	-0.354443	-0.546536
C44	C	2.018574	0.145557	-0.046536
C45	C	1.518601	-0.354422	-0.628335
C46	C	2.018601	0.145578	-0.128335
C47	C	1.128831	-0.448756	-0.448553
C48	C	1.628831	0.051244	0.051447
C49	C	1.074002	-0.495890	-0.495540
C50	C	1.574002	0.004110	0.004460
C51	C	0.964281	-0.495899	-0.495549
C52	C	1.464281	0.004101	0.004451
C53	C	0.909385	-0.448767	-0.448567
C54	C	1.409385	0.051233	0.051433
C55	C	0.964213	-0.401633	-0.401580
C56	C	1.464213	0.098367	0.098420
C57	C	1.073937	-0.401631	-0.401575
C58	C	1.573937	0.098369	0.098425
C59	C	0.964148	-0.307374	-0.307614
C60	C	1.464148	0.192626	0.192386
C61	C	1.073870	-0.307367	-0.307601
C62	C	1.573870	0.192633	0.192399
C63	C	0.909252	-0.260242	-0.260633
C64	C	1.409252	0.239758	0.239367
C65	C	0.964081	-0.213110	-0.213640
C66	C	1.464081	0.286890	0.286360
C67	C	1.073809	-0.213104	-0.213633
C68	C	1.573809	0.286896	0.286367
C69	C	1.128698	-0.260233	-0.260613
C70	C	1.628698	0.239767	0.239387
C71	C	1.792543	-0.354504	-0.354596
C72	C	2.292543	0.145496	0.145404
C73	C	1.909320	-0.354508	-0.354602
C74	C	2.409320	0.145492	0.145398
C75	C	1.518520	-0.162541	-0.354597
C76	C	2.018520	0.337459	0.145403
C77	C	1.518524	-0.080742	-0.354602
C78	C	2.018524	0.419258	0.145398
C79	C	1.451420	0.184334	-0.401672
C80	C	1.951420	0.684334	0.098328
C81	C	1.451399	0.107476	-0.401669
C82	C	1.951399	0.607476	0.098331
C83	C	1.585740	0.107429	-0.307537
C84	C	2.085740	0.607429	0.192463
C85	C	1.585755	0.184287	-0.307536
C86	C	2.085755	0.684287	0.192464
C87	C	1.518596	0.222737	-0.354608
C88	C	2.018596	0.722737	0.145392
C89	C	1.518560	0.069021	-0.354606
C90	C	2.018560	0.569021	0.145394
C91	C	1.518538	-0.014313	-0.354603
C92	C	2.018538	0.485687	0.145397
C93	C	1.518616	0.306076	-0.354610
C94	C	2.018616	0.806076	0.145390
C95	C	1.585824	-0.307311	-0.816537
C96	C	2.085824	0.192689	-0.316537
C97	C	1.585837	-0.307289	-0.893396
C98	C	2.085837	0.192711	-0.393396
C99	C	1.451452	-0.401419	-0.893371
C100	C	1.951452	0.098581	-0.393371
C101	C	1.451435	-0.401436	-0.816514
C102	C	1.951435	0.098564	-0.316514
C103	C	1.518627	-0.354383	-0.778099
C104	C	2.018627	0.145617	-0.278099
C105	C	1.518657	-0.354345	-0.931815
C106	C	2.018657	0.145655	-0.431815
C107	C	1.518670	-0.354322	-1.015148
C108	C	2.018670	0.145678	-0.515148
C109	C	1.518613	-0.354405	-0.694760
C110	C	2.018613	0.145595	-0.194760
C111	C	1.518506	-0.354492	-0.163377
C112	C	2.018506	0.145508	0.336623
C113	C	1.518683	-0.354306	-0.081578
C114	C	2.018683	0.145694	0.418422
H115	H	1.218172	-0.448759	-0.448545
H116	H	1.718172	0.051241	0.051455
H117	H	0.919640	-0.534276	-0.533814
H118	H	1.419640	-0.034276	-0.033814
F119	F	1.132153	-0.162933	-0.163625
F120	F	1.632153	0.337067	0.336375
H121	H	1.640419	0.076114	-0.269214
H122	H	2.140419	0.576114	0.230786
F123	F	0.792609	-0.448770	-0.448589
F124	F	1.292609	0.051230	0.051411
F125	F	0.792476	-0.260248	-0.260648
F126	F	1.292476	0.239752	0.239352
F127	F	1.379941	0.225254	-0.451767
F128	F	1.879941	0.725254	0.048233
F129	F	1.657255	0.225160	-0.257440
F130	F	2.157255	0.725160	0.242560
F131	F	1.657333	-0.257231	-0.775655
F132	F	2.157333	0.242769	-0.275655
H133	H	1.118711	-0.534262	-0.533793
H134	H	1.618711	-0.034262	-0.033793
F135	F	1.379900	0.066608	-0.451761
F136	F	1.879900	0.566608	0.048239
H137	H	1.640553	-0.268957	-0.924688
H138	H	2.140553	0.231043	-0.424688
H139	H	0.919376	-0.174736	-0.175395
H140	H	1.419376	0.325264	0.324605
H141	H	1.396749	-0.439729	-0.924658
H142	H	1.896749	0.060271	-0.424658
H143	H	1.218039	-0.260235	-0.260609
H144	H	1.718039	0.239765	0.239391
F145	F	1.379906	-0.451536	-0.775603
F146	F	1.879906	0.048464	-0.275603
