data_functionalizedCrystal
_audit_creation_method	'MofGen! by Chris Wilmer'
_symmetry_space_group_name_H-M	'P1'
_symmetry_Int_Tables_number	1
_symmetry_cell_setting	triclinic
loop_
_symmetry_equiv_pos_as_xyz
  x,y,z
_cell_length_a	14.519731
_cell_length_b	12.996460
_cell_length_c	10.654550
_cell_angle_alpha	90.000114
_cell_angle_beta	84.086892
_cell_angle_gamma	90.006310
loop_
_atom_site_label
_atom_site_type_symbol
_atom_site_fract_x
_atom_site_fract_y
_atom_site_fract_z
O1	O	1.224713	0.085569	0.164742
O2	O	0.956339	0.085570	0.184101
O3	O	1.096696	0.085563	-0.008377
O4	O	1.084355	0.085576	0.357219
O5	O	1.096678	-0.085571	-0.008366
O6	O	0.956321	-0.085563	0.184112
O7	O	1.224694	-0.085565	0.164753
Cu8	Cu	1.090506	-0.101190	0.174433
Cu9	Cu	1.090527	0.101195	0.174420
O10	O	1.084337	-0.085558	0.357230
C11	C	0.921965	0.000004	0.183199
C12	C	0.819571	0.000004	0.180481
C13	C	0.736416	0.000008	0.178272
C14	C	0.632093	0.000008	0.175513
C15	C	0.548942	0.000008	0.173322
C16	C	0.444612	0.000010	0.170563
N17	N	1.090497	-0.243537	0.174442
C18	C	1.090502	-0.336643	0.174445
C19	C	1.090510	-0.453448	0.174437
C20	C	1.090522	-0.546547	0.174423
C21	C	1.090531	-0.663359	0.174416
C22	C	1.259068	0.000004	0.165655
C23	C	1.361462	0.000010	0.168373
C24	C	1.095781	-0.000003	-0.055160
C25	C	1.093070	-0.000002	-0.194578
N26	N	1.090543	0.243543	0.174402
C27	C	1.175710	-0.000002	-0.274850
C28	C	1.173157	0.000011	-0.405846
C29	C	1.005317	0.000019	-0.376286
C30	C	1.007871	0.000014	-0.245293
C31	C	1.270494	0.059972	-0.602621
C32	C	1.353139	0.059954	-0.682897
C33	C	1.428052	-0.000019	-0.653434
C34	C	1.420324	-0.059998	-0.543697
C35	C	1.337678	-0.059990	-0.463426
C36	C	1.262768	0.000007	-0.492888
C37	C	0.910540	-0.059956	-0.048517
C38	C	0.827893	-0.059954	0.031756
C39	C	0.752972	0.000012	0.002297
C40	C	0.760690	0.059976	-0.107443
C41	C	0.843337	0.059975	-0.187716
C42	C	0.918259	0.000011	-0.158248
C43	C	1.085252	0.000011	0.404014
C44	C	1.087963	0.000016	0.543432
H45	H	1.245085	-0.000012	-0.233562
H46	H	0.699675	0.108784	-0.131447
H47	H	1.331385	-0.108827	-0.374083
H48	H	0.935950	0.000030	-0.417595
H49	H	1.481325	-0.108841	-0.519726
H50	H	1.209503	0.108821	-0.626612
H51	H	1.495343	-0.000031	-0.718805
H52	H	0.685672	-0.000006	0.067658
H53	H	1.359425	0.108797	-0.772244
H54	H	0.821609	-0.108794	0.121105
H55	H	0.849622	0.108816	-0.277063
H56	H	0.971553	-0.108766	-0.024501
