data_functionalizedCrystal
_audit_creation_method	'MofGen! by Chris Wilmer'
_symmetry_space_group_name_H-M	'P1'
_symmetry_Int_Tables_number	1
_symmetry_cell_setting	triclinic
loop_
_symmetry_equiv_pos_as_xyz
  x,y,z
_cell_length_a	17.699104
_cell_length_b	17.019294
_cell_length_c	16.776229
_cell_angle_alpha	86.114377
_cell_angle_beta	89.991971
_cell_angle_gamma	83.342939
loop_
_atom_site_label
_atom_site_type_symbol
_atom_site_fract_x
_atom_site_fract_y
_atom_site_fract_z
O1	O	1.004137	0.099835	-0.073156
O2	O	0.783770	0.112797	-0.074044
O3	O	0.900101	-0.008528	-0.065713
O4	O	0.887806	0.221160	-0.081487
O5	O	0.900085	-0.008536	0.066864
O6	O	0.783755	0.112789	0.058533
O7	O	1.004122	0.099828	0.059421
Zn8	Zn	0.893936	0.106307	0.080027
Zn9	Zn	0.893956	0.106317	-0.094649
O10	O	0.887791	0.221153	0.051090
C11	C	0.755565	0.112326	-0.007723
C12	C	0.671547	0.110924	-0.007626
C13	C	0.146720	0.174234	-0.011982
C14	C	0.225664	0.175547	-0.012074
C15	C	0.274233	0.104324	-0.007183
C16	C	0.243853	0.031785	-0.002207
C17	C	0.164910	0.030473	-0.002120
C18	C	0.562223	0.037072	-0.002557
C19	C	0.641171	0.038389	-0.002642
C20	C	0.622977	0.182145	-0.012511
C21	C	0.544034	0.180834	-0.012425
C22	C	0.513661	0.108295	-0.007453
C23	C	0.428060	0.106873	-0.007354
C24	C	0.359832	0.105745	-0.007276
C25	C	0.899627	-0.037921	0.002592
C26	C	0.898228	-0.125489	0.008601
C27	C	0.897581	-0.166620	-0.060843
C28	C	0.896262	-0.248899	-0.055195
C29	C	0.895595	-0.290045	0.019898
C30	C	0.896240	-0.248908	0.089348
C31	C	0.897553	-0.166630	0.083699
C32	C	0.891623	-0.538472	0.040570
C33	C	0.890311	-0.620756	0.046214
C34	C	0.890332	-0.620740	-0.098330
C35	C	0.891650	-0.538461	-0.103972
C36	C	0.892291	-0.497331	-0.034523
C37	C	0.894249	-0.374148	0.025673
C38	C	0.893631	-0.413229	-0.040299
C39	C	1.032327	0.100299	-0.006902
C40	C	1.116345	0.101700	-0.007004
C41	C	0.888265	0.250545	-0.017216
C42	C	0.889664	0.338113	-0.023230
N43	N	0.893927	0.106300	0.199238
N44	N	0.893970	0.106318	-0.213860
C45	C	0.945454	0.052599	0.244643
C46	C	0.945459	0.052599	0.328095
C47	C	0.893939	0.106303	0.366141
C48	C	0.842406	0.160006	0.320731
C49	C	0.842399	0.160003	0.237280
C50	C	0.842434	0.160022	0.657277
C51	C	0.842446	0.160023	0.740733
C52	C	0.945493	0.052618	0.748092
C53	C	0.945486	0.052614	0.664641
C54	C	0.893951	0.106314	0.619238
C55	C	0.893946	0.106313	0.528750
C56	C	0.893947	0.106308	0.456628
H57	H	0.283404	-0.026206	0.001771
H58	H	0.987440	0.008886	0.633667
H59	H	0.987453	0.008890	0.785068
H60	H	0.800454	0.203731	0.351713
H61	H	0.800490	0.203757	0.771708
H62	H	0.898070	-0.133141	0.140248
H63	H	0.892159	-0.504995	0.097121
H64	H	0.800474	0.203748	0.620316
N65	N	0.491669	0.257665	-0.017665
H66	H	0.501434	0.289337	-0.068976
H67	H	0.437065	0.245783	-0.016810
N68	N	0.892449	-0.494097	-0.184966
H69	H	0.893411	-0.435737	-0.178006
H70	H	0.939148	-0.514998	-0.215025
N71	N	0.895529	-0.293286	0.170342
H72	H	0.848094	-0.320951	0.175469
H73	H	0.941916	-0.333857	0.176293
N74	N	0.094338	0.251054	-0.017232
H75	H	0.125562	0.297202	-0.020395
H76	H	0.061186	0.253657	-0.066553
N77	N	0.258427	0.253779	-0.017457
H78	H	0.215680	0.298699	-0.020541
H79	H	0.290782	0.257457	0.031435
H80	H	0.800440	0.203730	0.200313
H81	H	0.647716	0.241210	-0.016563
N82	N	0.889640	-0.665101	-0.173232
H83	H	0.888706	-0.723468	-0.158262
H84	H	0.842976	-0.644236	-0.206222
H85	H	0.893708	-0.407659	0.086815
H86	H	0.680715	-0.019612	0.001339
H87	H	0.537503	-0.021993	0.001493
H88	H	0.140181	-0.028591	0.001932
N89	N	1.001060	-0.005294	0.377066
H90	H	1.033708	-0.039303	0.340300
H91	H	1.034471	0.024900	0.409589
H92	H	0.898128	-0.133124	-0.121993
N93	N	0.895650	-0.293236	-0.130120
H94	H	0.849019	-0.272445	-0.163196
H95	H	0.942840	-0.285327	-0.162117
N96	N	0.889594	-0.665139	0.127211
H97	H	0.890199	-0.626599	0.170351
H98	H	0.842155	-0.692801	0.132253
N99	N	0.894339	-0.368822	-0.121274
H100	H	0.941007	-0.389593	-0.151459
H101	H	0.847186	-0.376657	-0.152271
H102	H	0.987411	0.008870	0.213671
