data_functionalizedCrystal
_audit_creation_method	'MofGen! by Chris Wilmer'
_symmetry_space_group_name_H-M	'P1'
_symmetry_Int_Tables_number	1
_symmetry_cell_setting	triclinic
loop_
_symmetry_equiv_pos_as_xyz
  x,y,z
_cell_length_a	17.077404
_cell_length_b	16.959453
_cell_length_c	16.959447
_cell_angle_alpha	90.031064
_cell_angle_beta	90.014212
_cell_angle_gamma	90.017958
loop_
_atom_site_label
_atom_site_type_symbol
_atom_site_fract_x
_atom_site_fract_y
_atom_site_fract_z
Zn1	Zn	1.200038	-0.314709	0.446902
Zn2	Zn	1.700038	0.185291	0.946902
Zn3	Zn	1.199962	-0.446901	0.314722
Zn4	Zn	1.699962	0.053099	0.814722
Zn5	Zn	1.068780	-0.314736	0.314740
Zn6	Zn	1.568780	0.185264	0.814740
Zn7	Zn	1.068745	-0.446844	0.446861
Zn8	Zn	1.568745	0.053156	0.946861
O9	O	1.134381	-0.380798	0.380806
O10	O	1.634381	0.119202	0.880806
O11	O	1.309875	-0.332257	0.429378
O12	O	1.809875	0.167743	0.929378
O13	O	1.182542	-0.429404	0.204113
O14	O	1.682542	0.070596	0.704113
O15	O	1.086238	-0.204121	0.332297
O16	O	1.586238	0.295879	0.832297
O17	O	1.309819	-0.429378	0.332266
O18	O	1.809819	0.070622	0.832266
O19	O	1.182673	-0.204101	0.429396
O20	O	1.682673	0.295899	0.929396
O21	O	1.086164	-0.332303	0.204127
O22	O	1.586164	0.167697	0.704127
O23	O	0.958928	-0.332248	0.332256
O24	O	1.458928	0.167752	0.832256
O25	O	1.086179	-0.429281	0.557477
O26	O	1.586179	0.070719	1.057477
O27	O	0.958902	-0.429308	0.429325
O28	O	1.458902	0.070692	0.929325
O29	O	1.182639	-0.332202	0.557508
O30	O	1.682639	0.167798	1.057508
O31	O	1.182509	-0.557505	0.332226
O32	O	1.682509	-0.057505	0.832226
O33	O	1.086104	-0.557463	0.429307
O34	O	1.586104	-0.057463	0.929307
C35	C	0.930433	-0.380775	0.380789
C36	C	1.430433	0.119225	0.880789
C37	C	0.843183	-0.380785	0.380800
C38	C	1.343183	0.119215	0.880800
C39	C	0.802223	-0.330304	0.431443
C40	C	1.302223	0.169696	0.931443
C41	C	0.720243	-0.330309	0.431447
C42	C	1.220243	0.169691	0.931447
C43	C	0.679224	-0.380799	0.380810
C44	C	1.179224	0.119201	0.880810
C45	C	0.720190	-0.431283	0.330161
C46	C	1.220190	0.068717	0.830161
C47	C	0.802169	-0.431273	0.330154
C48	C	1.302169	0.068727	0.830154
C49	C	0.549320	-0.431301	0.330181
C50	C	1.049320	0.068699	0.830181
C51	C	0.467335	-0.431312	0.330189
C52	C	0.967335	0.068688	0.830189
C53	C	0.467394	-0.330336	0.431474
C54	C	0.967394	0.169664	0.931474
C55	C	0.549373	-0.330327	0.431467
C56	C	1.049373	0.169673	0.931467
C57	C	0.590333	-0.380811	0.380818
C58	C	1.090333	0.119189	0.880818
C59	C	1.134316	-0.586164	0.380777
C60	C	1.634316	-0.086164	0.880777
C61	C	1.134359	-0.674020	0.380791
C62	C	1.634359	-0.174020	0.880791
C63	C	1.184659	-1.045427	0.431461
C64	C	1.684659	-0.545427	0.931461
C65	C	1.084322	-1.045565	0.330269
C66	C	1.584322	-0.545565	0.830269
C67	C	1.084293	-0.963019	0.330251
C68	C	1.584293	-0.463019	0.830251
C69	C	1.134447	-0.921673	0.380839
C70	C	1.634447	-0.421673	0.880839
C71	C	1.184630	-0.962874	0.431446
C72	C	1.684630	-0.462874	0.931446
C73	C	1.034105	-0.921813	0.279650
C74	C	1.534105	-0.421813	0.779650
C75	C	1.034074	-0.839262	0.279631
C76	C	1.534074	-0.339262	0.779631
C77	C	1.084232	-0.797915	0.330216
C78	C	1.584232	-0.297915	0.830216
C79	C	1.134418	-0.839120	0.380824
C80	C	1.634418	-0.339120	0.880824
C81	C	1.184572	-0.797774	0.431413
C82	C	1.684572	-0.297774	0.931413
C83	C	1.234762	-0.838978	0.482018
C84	C	1.734762	-0.338978	0.982018
C85	C	1.234788	-0.921526	0.482032
C86	C	1.734788	-0.421526	0.982032
C87	C	1.084206	-0.715366	0.330203
C88	C	1.584206	-0.215366	0.830203
C89	C	1.184542	-0.715221	0.431398
C90	C	1.684542	-0.215221	0.931398
C91	C	1.339125	-0.380821	0.380825
C92	C	1.839125	0.119179	0.880825
C93	C	1.426375	-0.380830	0.380832
C94	C	1.926375	0.119170	0.880832
C95	C	1.134414	-0.380732	0.586975
C96	C	1.634414	0.119268	1.086975
C97	C	1.134428	-0.380704	0.674831
C98	C	1.634428	0.119296	1.174831
C99	C	1.134468	-0.174629	0.380853
C100	C	1.634468	0.325371	0.880853
C101	C	1.134505	-0.086773	0.380872
C102	C	1.634505	0.413227	0.880872
C103	C	1.134394	-0.380806	0.175440
C104	C	1.634394	0.119194	0.675440
C105	C	1.134532	-0.380611	0.087584
C106	C	1.634532	0.119389	0.587584
C107	C	1.084299	-0.431166	1.046294
C108	C	1.584299	0.068834	1.546294
C109	C	1.184744	-0.330076	1.046320
C110	C	1.684744	0.169924	1.546320
C111	C	1.184723	-0.330093	0.963775
C112	C	1.684723	0.169907	1.463775
C113	C	1.134490	-0.380648	0.922484
C114	C	1.634490	0.119352	1.422484
C115	C	1.084278	-0.431186	0.963740
C116	C	1.584278	0.068814	1.463740
C117	C	1.234940	-0.279561	0.922513
C118	C	1.734940	0.220439	1.422513
C119	C	1.234922	-0.279577	0.839962
C120	C	1.734922	0.220423	1.339962
C121	C	1.184684	-0.330128	0.798670
C122	C	1.684684	0.169872	1.298670
C123	C	1.134469	-0.380668	0.839931
C124	C	1.634469	0.119332	1.339931
C125	C	1.084236	-0.431222	0.798641
C126	C	1.584236	0.068778	1.298641
C127	C	1.034017	-0.481759	0.839900
C128	C	1.534017	0.018241	1.339900
C129	C	1.034040	-0.481737	0.922448
C130	C	1.534040	0.018263	1.422448
C131	C	1.184661	-0.330150	0.716121
C132	C	1.684661	0.169850	1.216121
C133	C	1.084215	-0.431242	0.716087
C134	C	1.584215	0.068758	1.216087
H135	H	0.686897	-0.289203	0.472688
H136	H	1.186897	0.210797	0.972688
H137	H	0.582768	-0.289217	0.472704
H138	H	1.082768	0.210783	0.972704
C139	C	0.847337	-0.274758	0.487148
C140	C	1.347337	0.225242	0.987148
N141	N	0.881314	-0.232917	0.529103
N142	N	1.381314	0.267083	1.029103
H143	H	1.225551	-0.289006	0.682532
H144	H	1.725551	0.210994	1.182532
C145	C	1.239992	-0.274464	1.091742
C146	C	1.739992	0.225536	1.591742
N147	N	1.281603	-0.232570	1.125958
N148	N	1.781603	0.267430	1.625958
C149	C	0.978762	-0.537367	0.794470
C150	C	1.478762	-0.037367	1.294470
N151	N	0.937144	-0.579249	0.760249
N152	N	1.437144	-0.079249	1.260249
H153	H	0.433940	-0.472426	0.288957
H154	H	0.933940	0.027574	0.788957
C155	C	0.978857	-0.793945	0.223972
C156	C	1.478857	-0.293945	0.723972
N157	N	0.937266	-0.759812	0.182050
N158	N	1.437266	-0.259812	0.682050
H159	H	0.582667	-0.472409	0.288936
H160	H	1.082667	0.027591	0.788936
H161	H	1.043338	-0.681822	0.289005
H162	H	1.543338	-0.181822	0.789005
C163	C	0.978800	-0.537318	0.967840
C164	C	1.478800	-0.037318	1.467840
N165	N	0.937192	-0.579180	1.002032
N166	N	1.437192	-0.079180	1.502032
C167	C	0.675066	-0.486822	0.274459
C168	C	1.175066	0.013178	0.774459
N169	N	0.641079	-0.528658	0.232506
N170	N	1.141079	-0.028658	0.732506
C171	C	0.979033	-0.967297	0.223914
C172	C	1.479033	-0.467297	0.723914
N173	N	0.937586	-1.001560	0.181895
N174	N	1.437586	-0.501560	0.681895
H175	H	0.434040	-0.289228	0.472712
H176	H	0.934040	0.210772	0.972712
C177	C	0.847224	-0.486808	0.274444
C178	C	1.347224	0.013192	0.774444
N179	N	0.881159	-0.528637	0.232480
N180	N	1.381159	-0.028637	0.732480
H181	H	1.043486	-1.079233	0.289085
H182	H	1.543486	-0.579233	0.789085
C183	C	1.028952	-0.486856	0.670674
C184	C	1.528952	0.013144	1.170674
N185	N	0.987328	-0.528745	0.636470
N186	N	1.487328	-0.028745	1.136470
C187	C	1.239720	-0.669747	0.487048
C188	C	1.739720	-0.169747	0.987048
N189	N	1.281280	-0.635497	0.528964
N190	N	1.781280	-0.135497	1.028964
H191	H	1.043409	-0.472309	1.079891
H192	H	1.543409	0.027691	1.579891
H193	H	1.275594	-0.805305	0.523212
H194	H	1.775594	-0.305305	1.023212
H195	H	1.275650	-0.955082	0.523232
H196	H	1.775650	-0.455082	1.023232
C197	C	1.239865	-1.090751	0.487124
C198	C	1.739865	-0.590751	0.987124
N199	N	1.281447	-1.124890	0.529051
N200	N	1.781447	-0.624890	1.029051
H201	H	1.275842	-0.238407	0.956137
H202	H	1.775842	0.261593	1.456137
C203	C	1.290156	-0.223978	0.794584
C204	C	1.790156	0.276022	1.294584
N205	N	1.331755	-0.182097	0.760405
N206	N	1.831755	0.317903	1.260405
