data_functionalizedCrystal
_audit_creation_method	'MofGen! by Chris Wilmer'
_symmetry_space_group_name_H-M	'P1'
_symmetry_Int_Tables_number	1
_symmetry_cell_setting	triclinic
loop_
_symmetry_equiv_pos_as_xyz
  x,y,z
_cell_length_a	19.188933
_cell_length_b	19.188924
_cell_length_c	7.088929
_cell_angle_alpha	83.795552
_cell_angle_beta	96.183987
_cell_angle_gamma	83.143767
loop_
_atom_site_label
_atom_site_type_symbol
_atom_site_fract_x
_atom_site_fract_y
_atom_site_fract_z
O1	O	0.918955	0.094371	-0.158935
O2	O	0.715642	0.106105	-0.158954
O3	O	0.823169	-0.001419	-0.158921
O4	O	0.811428	0.201895	-0.158967
O5	O	0.837539	-0.015821	0.159059
O6	O	0.730012	0.091703	0.159026
O7	O	0.933325	0.079969	0.159045
Cu8	Cu	0.832981	0.084521	0.188069
Cu9	Cu	0.815986	0.101553	-0.187978
O10	O	0.825798	0.187493	0.159012
C11	C	0.696816	0.098524	0.000034
C12	C	0.619312	0.097383	0.000028
C13	C	0.058224	0.097087	-0.173281
C14	C	0.131048	0.098156	-0.173288
C15	C	0.175298	0.090842	0.000042
C16	C	0.146721	0.082442	0.173392
C17	C	0.073900	0.081367	0.173395
N18	N	0.290147	0.126418	0.129050
N19	N	0.359324	0.127442	0.129035
C20	C	0.394707	0.094080	0.000044
N21	N	0.358297	0.059667	-0.128961
N22	N	0.289113	0.058647	-0.128953
C23	C	0.254262	0.092007	0.000058
C24	C	0.502240	0.103633	-0.173304
C25	C	0.575066	0.104697	-0.173304
C26	C	0.590737	0.088991	0.173381
C27	C	0.517913	0.087920	0.173377
C28	C	0.473668	0.095245	0.000029
C29	C	0.829975	-0.034631	0.000070
C30	C	0.828836	-0.112136	0.000075
C31	C	0.820472	-0.140685	-0.173256
C32	C	0.819391	-0.213507	-0.173270
C33	C	0.826690	-0.257780	0.000056
C34	C	0.835051	-0.229223	0.173410
C35	C	0.836125	-0.156401	0.173420
N36	N	0.870567	-0.383286	0.129062
N37	N	0.869549	-0.452463	0.129041
C38	C	0.823455	-0.477188	0.000037
N39	N	0.778425	-0.430122	-0.128974
N40	N	0.779447	-0.360939	-0.128959
C41	C	0.825526	-0.336744	0.000065
C42	C	0.813917	-0.584698	-0.173322
C43	C	0.812832	-0.657521	-0.173329
C44	C	0.828500	-0.673237	0.173356
C45	C	0.829577	-0.600414	0.173359
C46	C	0.822289	-0.556149	0.000015
C47	C	0.952150	0.087550	0.000053
C48	C	1.029655	0.088692	0.000047
C49	C	0.818992	0.220705	0.000017
C50	C	0.820130	0.298211	-0.000001
N51	N	0.844938	0.072541	0.452561
N52	N	0.804034	0.113527	-0.452470
H53	H	0.626765	0.083034	0.314510
H54	H	0.598326	0.111529	-0.314454
H55	H	0.834437	-0.709283	0.314482
C56	C	0.383648	0.108968	-0.327237
C57	C	0.453601	0.111676	-0.363839
H58	H	0.353622	0.113938	-0.444868
H59	H	0.380385	0.064863	-0.256021
H60	H	0.369491	0.146276	-0.256022
H61	H	0.467759	0.074365	-0.435042
H62	H	0.456867	0.155787	-0.435085
H63	H	0.887339	0.030070	0.534230
C64	C	0.540719	0.072513	0.516048
C65	C	0.486503	0.078704	0.363907
H66	H	0.521326	0.066826	0.633676
H67	H	0.574244	0.032554	0.508848
H68	H	0.563346	0.113968	0.508813
H69	H	0.463879	0.037246	0.371134
H70	H	0.452966	0.118667	0.371110
C71	C	0.747398	-0.096932	-0.468698
C72	C	0.812416	-0.092064	-0.363862
H73	H	0.742413	-0.066921	-0.586384
H74	H	0.745584	-0.144399	-0.493377
H75	H	0.710102	-0.082764	-0.397437
H76	H	0.849713	-0.106237	-0.435116
H77	H	0.814237	-0.044586	-0.339188
C78	C	0.050056	0.112713	-0.515961
C79	C	0.009593	0.105124	-0.363822
H80	H	0.020031	0.117668	-0.633591
H81	H	0.073328	0.153513	-0.508764
H82	H	0.084242	0.072098	-0.508721
H83	H	-0.024590	0.145741	-0.371055
H84	H	-0.013690	0.064320	-0.371023
H85	H	0.836394	-0.577171	0.314504
H86	H	0.154314	0.104996	-0.314437
H87	H	0.182755	0.076487	0.314519
H88	H	0.840992	-0.265275	0.314534
H89	H	0.761641	0.156000	0.465871
C90	C	0.749090	-0.278266	-0.374353
C91	C	0.810192	-0.244910	-0.363790
H92	H	0.743408	-0.297651	-0.491972
H93	H	0.753287	-0.315039	-0.271111
H94	H	0.709132	-0.244724	-0.367173
H95	H	0.850150	-0.278453	-0.370956
H96	H	0.806000	-0.208133	-0.467060
H97	H	0.842933	-0.133158	0.314571
H98	H	0.807978	-0.548655	-0.314469
C99	C	0.797486	-0.634671	-0.516006
C100	C	0.803648	-0.688905	-0.363871
H101	H	0.791824	-0.654050	-0.633638
H102	H	0.757523	-0.601148	-0.508828
H103	H	0.838940	-0.612044	-0.508743
H104	H	0.762192	-0.711529	-0.371126
H105	H	0.843615	-0.722441	-0.371053
H106	H	0.050639	0.074533	0.314543
