data_functionalizedCrystal
_audit_creation_method	'MofGen! by Chris Wilmer'
_symmetry_space_group_name_H-M	'P1'
_symmetry_Int_Tables_number	1
_symmetry_cell_setting	triclinic
loop_
_symmetry_equiv_pos_as_xyz
  x,y,z
_cell_length_a	11.792254
_cell_length_b	11.792254
_cell_length_c	15.186229
_cell_angle_alpha	89.996078
_cell_angle_beta	89.996693
_cell_angle_gamma	84.198598
loop_
_atom_site_label
_atom_site_type_symbol
_atom_site_fract_x
_atom_site_fract_y
_atom_site_fract_z
O1	O	1.506906	0.155634	-0.073228
O2	O	2.006906	0.655634	0.426772
O3	O	1.176567	0.171652	-0.073230
O4	O	1.676567	0.671652	0.426770
O5	O	1.349745	-0.001526	-0.073223
O6	O	1.849745	0.498474	0.426777
O7	O	1.333727	0.328812	-0.073236
O8	O	1.833727	0.828812	0.426764
O9	O	1.349734	-0.001529	0.073234
O10	O	1.849734	0.498471	0.573234
O11	O	1.176555	0.171649	0.073227
O12	O	1.676555	0.671649	0.573227
O13	O	1.506894	0.155631	0.073229
O14	O	2.006894	0.655631	0.573229
Zn15	Zn	1.341723	0.163640	0.096481
Zn16	Zn	1.841723	0.663640	0.596481
Zn17	Zn	1.341738	0.163643	-0.096483
Zn18	Zn	1.841738	0.663643	0.403517
O19	O	1.333716	0.328810	0.073222
O20	O	1.833716	0.828810	0.573222
C21	C	1.134271	0.170642	-0.000002
C22	C	1.634271	0.670642	0.499998
C23	C	1.008257	0.167621	-0.000002
C24	C	1.508257	0.667621	0.499998
C25	C	1.348730	-0.043818	0.000005
C26	C	1.848730	0.456182	0.500005
C27	C	1.345710	-0.169832	0.000005
C28	C	1.845710	0.330168	0.500005
C29	C	0.905921	0.165168	-0.000006
C30	C	1.405921	0.665168	0.499994
C31	C	0.777534	0.162099	-0.000007
C32	C	1.277534	0.662099	0.499993
C33	C	1.343256	-0.272168	0.000001
C34	C	1.843256	0.227832	0.500001
C35	C	1.340188	-0.400555	-0.000007
C36	C	1.840188	0.099445	0.499993
C37	C	1.549190	0.156642	-0.000001
C38	C	2.049190	0.656642	0.499999
C39	C	1.675204	0.159662	-0.000007
C40	C	2.175204	0.659662	0.499993
C41	C	1.334731	0.371102	-0.000009
C42	C	1.834731	0.871102	0.499991
C43	C	1.337751	0.497115	-0.000014
C44	C	1.837751	0.997115	0.499986
N45	N	1.341721	0.163637	0.228174
N46	N	1.841721	0.663637	0.728174
N47	N	1.341749	0.163637	-0.228175
N48	N	1.841749	0.663637	0.271825
C49	C	1.418430	0.086980	0.453900
C50	C	1.918430	0.586980	0.953900
C51	C	1.418434	0.086977	0.546090
C52	C	1.918434	0.586977	1.046090
C53	C	1.265031	0.240298	0.546092
C54	C	1.765031	0.740298	1.046092
C55	C	1.265023	0.240294	0.453904
C56	C	1.765023	0.740294	0.953904
C57	C	1.341729	0.163637	0.407811
C58	C	1.841729	0.663637	0.907811
C59	C	1.341741	0.163638	0.592188
C60	C	1.841741	0.663638	1.092188
C61	C	1.341744	0.163635	0.692144
C62	C	1.841744	0.663635	1.192144
C63	C	1.341725	0.163637	0.307848
C64	C	1.841725	0.663637	0.807848
H65	H	1.480887	0.024559	0.416373
H66	H	1.980887	0.524559	0.916373
N67	N	1.182319	0.322989	0.595811
N68	N	1.682319	0.822989	1.095811
H69	H	1.133727	0.371550	0.552622
H70	H	1.633727	0.871550	1.052622
H71	H	1.131878	0.279203	0.634072
H72	H	1.631878	0.779203	1.134072
N73	N	1.182281	0.322976	0.404193
N74	N	1.682281	0.822976	0.904193
H75	H	1.195846	0.403624	0.420225
H76	H	1.695846	0.903624	0.920225
H77	H	1.193949	0.311240	0.338814
H78	H	1.693949	0.811240	0.838814
H79	H	1.480889	0.024555	0.583613
H80	H	1.980889	0.524555	1.083613
