data_functionalizedCrystal
_audit_creation_method	'MofGen! by Chris Wilmer'
_symmetry_space_group_name_H-M	'P1'
_symmetry_Int_Tables_number	1
_symmetry_cell_setting	triclinic
loop_
_symmetry_equiv_pos_as_xyz
  x,y,z
_cell_length_a	21.295417
_cell_length_b	11.169417
_cell_length_c	11.169417
_cell_angle_alpha	89.997314
_cell_angle_beta	90.016676
_cell_angle_gamma	89.971271
loop_
_atom_site_label
_atom_site_type_symbol
_atom_site_fract_x
_atom_site_fract_y
_atom_site_fract_z
Zn1	Zn	-0.250742	-1.834569	0.678525
Zn2	Zn	-0.355984	-1.834455	0.477810
Zn3	Zn	-0.250730	-1.633922	0.477853
Zn4	Zn	-0.355974	-1.633792	0.678448
O5	O	-0.303357	-1.734184	0.578159
O6	O	-0.264712	-2.002504	0.651914
O7	O	-0.342022	-1.807860	0.309866
O8	O	-0.162642	-1.660640	0.504522
O9	O	-0.342033	-2.002419	0.504449
O10	O	-0.162651	-1.808055	0.651955
O11	O	-0.264692	-1.660529	0.309898
O12	O	-0.264681	-1.465955	0.504448
O13	O	-0.342015	-1.660420	0.846408
O14	O	-0.342003	-1.465860	0.651825
O15	O	-0.264701	-1.807930	0.846464
O16	O	-0.444072	-1.807734	0.504375
O17	O	-0.444065	-1.660308	0.651783
C18	C	-0.303340	-1.422360	0.578134
C19	C	-0.303348	-1.288960	0.578151
C20	C	-0.466909	-1.734027	0.578093
C21	C	-0.536877	-1.734070	0.578104
C22	C	-0.569727	-1.810902	0.501428
C23	C	-0.635469	-1.810959	0.501455
C24	C	-0.668360	-1.734161	0.578146
C25	C	-0.635502	-1.657323	0.654837
C26	C	-0.569761	-1.657277	0.654817
N27	N	-0.771625	-1.629168	0.587287
N28	N	-0.834076	-1.629214	0.587299
C29	C	-0.866434	-1.734295	0.578215
N30	N	-0.833982	-1.839330	0.569093
N31	N	-0.771524	-1.839282	0.569074
C32	C	-0.739645	-1.734202	0.578177
C33	C	-0.970570	-1.811195	0.501563
C34	C	-1.036313	-1.811254	0.501598
C35	C	-1.036345	-1.657607	0.654975
C36	C	-0.970602	-1.657559	0.654946
C37	C	-0.937719	-1.734352	0.578233
C38	C	-0.139167	-1.734375	0.578252
C39	C	-0.069199	-1.734456	0.578292
C40	C	-0.303358	-1.734173	0.891201
C41	C	-0.303359	-1.734168	1.024601
C42	C	-0.303369	-1.047227	0.578177
C43	C	-0.303358	-1.180627	0.578165
C44	C	-0.303368	-1.734182	1.266334
C45	C	-0.303360	-1.734171	1.132934
H46	H	-0.662221	-1.873529	0.439015
O47	O	-0.935175	-1.574664	0.737638
H48	H	-0.905187	-1.628298	0.798753
H49	H	-0.542955	-1.873434	0.438967
O50	O	-0.935100	-1.894058	0.418864
H51	H	-0.883866	-1.881117	0.431728
O52	O	-0.670976	-1.574478	0.737540
H53	H	-0.700897	-1.628157	0.798650
O54	O	-0.534323	-1.574382	0.737498
H55	H	-0.568236	-1.520978	0.790825
H56	H	-1.063059	-1.873828	0.439161
O57	O	-1.071808	-1.574765	0.737691
H58	H	-1.123042	-1.587697	0.724819
