data_functionalizedCrystal
_audit_creation_method	'MofGen! by Chris Wilmer'
_symmetry_space_group_name_H-M	'P1'
_symmetry_Int_Tables_number	1
_symmetry_cell_setting	triclinic
loop_
_symmetry_equiv_pos_as_xyz
  x,y,z
_cell_length_a	14.519709
_cell_length_b	8.559649
_cell_length_c	7.681481
_cell_angle_alpha	94.930900
_cell_angle_beta	84.260287
_cell_angle_gamma	76.729405
loop_
_atom_site_label
_atom_site_type_symbol
_atom_site_fract_x
_atom_site_fract_y
_atom_site_fract_z
O1	O	-1.199063	-0.224489	-0.146196
O2	O	-0.865729	0.108844	0.187138
O3	O	-0.532396	0.442178	0.520471
O4	O	-0.928812	-0.249156	-0.146249
O5	O	-0.595479	0.084178	0.187085
O6	O	-0.262145	0.417511	0.520418
O7	O	-1.087747	-0.004288	-0.146216
O8	O	-0.754413	0.329046	0.187118
O9	O	-0.421080	0.662379	0.520451
O10	O	-1.040128	-0.469357	-0.146229
O11	O	-0.706795	-0.136023	0.187105
O12	O	-0.373461	0.197310	0.520438
O13	O	-1.107314	0.025920	0.146646
O14	O	-0.773981	0.359253	0.479979
O15	O	-0.440647	0.692587	0.813313
O16	O	-0.948379	-0.218948	0.146613
O17	O	-0.615046	0.114385	0.479946
O18	O	-0.281713	0.447719	0.813280
O19	O	-1.218630	-0.194281	0.146666
O20	O	-0.885296	0.139052	0.480000
O21	O	-0.551963	0.472385	0.813333
Zn22	Zn	-1.086611	-0.201819	0.193138
Zn23	Zn	-0.753278	0.131515	0.526471
Zn24	Zn	-0.419945	0.464848	0.859804
Zn25	Zn	-1.060831	-0.241618	-0.192720
Zn26	Zn	-0.727497	0.091715	0.140613
Zn27	Zn	-0.394164	0.425048	0.473946
O28	O	-1.059695	-0.439149	0.146633
O29	O	-0.726362	-0.105816	0.479966
O30	O	-0.393028	0.227517	0.813300
C31	C	-0.904318	-0.232903	0.000175
C32	C	-0.570985	0.100430	0.333509
C33	C	-0.237651	0.433764	0.666842
C34	C	-0.802183	-0.229461	0.000155
C35	C	-0.468849	0.103872	0.333488
C36	C	-0.135516	0.437205	0.666822
C37	C	-1.101139	0.070335	0.000213
C38	C	-0.767805	0.403669	0.333546
C39	C	-0.434472	0.737002	0.666879
C40	C	-1.111880	0.247684	0.000205
C41	C	-0.778546	0.581017	0.333538
C42	C	-0.445213	0.914351	0.666872
C43	C	-1.243124	-0.210534	0.000238
C44	C	-0.909790	0.122799	0.333572
C45	C	-0.576457	0.456132	0.666905
C46	C	-1.345258	-0.213977	0.000247
C47	C	-1.011925	0.119356	0.333580
C48	C	-0.678592	0.452689	0.666914
C49	C	-0.428202	-0.216774	0.000235
C50	C	-0.094869	0.116560	0.333569
C51	C	0.238465	0.449893	0.666902
C52	C	-0.532256	-0.220297	0.000212
C53	C	-0.198923	0.113036	0.333546
C54	C	0.134411	0.446370	0.666879
C55	C	-0.615189	-0.223117	0.000193
C56	C	-0.281856	0.110216	0.333527
C57	C	0.051478	0.443549	0.666860
C58	C	-0.719249	-0.226641	0.000174
C59	C	-0.385916	0.106692	0.333507
C60	C	-0.052583	0.440026	0.666841
C61	C	-1.046303	-0.513773	0.000201
C62	C	-0.712969	-0.180439	0.333534
C63	C	-0.379636	0.152894	0.666868
C64	C	-1.035561	-0.691123	0.000197
C65	C	-0.702228	-0.357789	0.333530
C66	C	-0.368894	-0.024456	0.666864
N67	N	-1.104212	-0.174655	0.456476
N68	N	-0.770879	0.158678	0.789809
N69	N	-0.437546	0.492011	1.123142
N70	N	-1.043238	-0.268769	-0.456058
N71	N	-0.709904	0.064564	-0.122725
N72	N	-0.376571	0.397898	0.210608
H73	H	-1.185444	0.330983	0.000234
H74	H	-0.852110	0.664316	0.333567
H75	H	-0.518777	0.997649	0.666900
H76	H	-0.980995	-0.364830	0.468732
H77	H	-0.647662	-0.031497	0.802065
H78	H	-0.314329	0.301836	1.135399
H79	H	-0.962003	0.225590	0.000188
H80	H	-0.628670	0.558923	0.333521
H81	H	-0.295337	0.892257	0.666855
H82	H	-1.166465	-0.078599	0.531694
H83	H	-0.833131	0.254734	0.865028
H84	H	-0.499798	0.588067	1.198361
