data_functionalizedCrystal
_audit_creation_method	'MofGen! by Chris Wilmer'
_symmetry_space_group_name_H-M	'P1'
_symmetry_Int_Tables_number	1
_symmetry_cell_setting	triclinic
loop_
_symmetry_equiv_pos_as_xyz
  x,y,z
_cell_length_a	12.811445
_cell_length_b	12.837942
_cell_length_c	14.586319
_cell_angle_alpha	89.996741
_cell_angle_beta	84.565073
_cell_angle_gamma	89.412982
loop_
_atom_site_label
_atom_site_type_symbol
_atom_site_fract_x
_atom_site_fract_y
_atom_site_fract_z
O1	O	1.406644	0.139715	-0.193184
O2	O	1.906644	0.639715	0.306816
O3	O	1.102579	0.154897	-0.167907
O4	O	1.602579	0.654897	0.332093
O5	O	1.247870	-0.003626	-0.179979
O6	O	1.747870	0.496374	0.320021
O7	O	1.261354	0.298238	-0.181111
O8	O	1.761354	0.798238	0.318889
O9	O	1.247858	-0.003629	-0.027497
O10	O	1.747858	0.496371	0.472503
O11	O	1.102568	0.154894	-0.015425
O12	O	1.602568	0.654894	0.484575
O13	O	1.406633	0.139712	-0.040702
O14	O	1.906633	0.639712	0.459298
Cu15	Cu	1.254599	0.147303	-0.014141
Cu16	Cu	1.754599	0.647303	0.485859
Cu17	Cu	1.254613	0.147306	-0.194468
Cu18	Cu	1.754613	0.647306	0.305532
O19	O	1.261343	0.298235	-0.028630
O20	O	1.761343	0.798235	0.471370
C21	C	1.063384	0.154044	-0.088408
C22	C	1.563384	0.654044	0.411592
C23	C	0.946611	0.151492	-0.078700
C24	C	1.446611	0.651492	0.421300
C25	C	0.727192	0.146721	-0.226712
C26	C	1.227192	0.646721	0.273288
C27	C	0.617474	0.144324	-0.217594
C28	C	1.117474	0.644324	0.282406
C29	C	0.617454	0.144310	-0.051350
C30	C	1.117454	0.644310	0.448650
C31	C	0.727172	0.146706	-0.060467
C32	C	1.227172	0.646706	0.439533
C33	C	0.782038	0.147910	-0.148151
C34	C	1.282038	0.647910	0.351849
C35	C	0.891759	0.150299	-0.157267
C36	C	1.391759	0.650299	0.342733
C37	C	0.891736	0.150293	0.008977
C38	C	1.391736	0.650293	0.508977
C39	C	0.782018	0.147896	0.018094
C40	C	1.282018	0.647896	0.518094
C41	C	1.243309	-0.042268	-0.103360
C42	C	1.743309	0.457732	0.396640
C43	C	1.229722	-0.157404	-0.102232
C44	C	1.729722	0.342596	0.397768
C45	C	1.393052	-0.397654	-0.115829
C46	C	1.893052	0.102346	0.384171
C47	C	1.380292	-0.505835	-0.114770
C48	C	1.880292	-0.005835	0.385230
C49	C	1.191442	-0.481949	-0.099061
C50	C	1.691442	0.018051	0.400939
C51	C	1.204202	-0.373768	-0.100120
C52	C	1.704202	0.126232	0.399880
C53	C	1.305011	-0.331625	-0.108503
C54	C	1.805011	0.168375	0.391497
C55	C	1.317770	-0.223442	-0.109556
C56	C	1.817770	0.276558	0.390444
C57	C	1.128921	-0.199558	-0.093854
C58	C	1.628921	0.300442	0.406146
C59	C	1.116161	-0.307739	-0.092794
C60	C	1.616161	0.192261	0.407206
C61	C	1.445828	0.140566	-0.120203
C62	C	1.945828	0.640566	0.379797
C63	C	1.562601	0.143117	-0.129916
C64	C	2.062601	0.643117	0.370084
C65	C	1.265904	0.336877	-0.105251
C66	C	1.765904	0.836877	0.394749
C67	C	1.279490	0.452013	-0.106385
C68	C	1.779490	0.952013	0.393615
N69	N	1.254598	0.147301	0.112691
N70	N	1.754598	0.647301	0.612691
N71	N	1.254622	0.147300	-0.321301
N72	N	1.754622	0.647300	0.178699
C73	C	1.318958	0.077130	0.342350
C74	C	1.818958	0.577130	0.842350
C75	C	1.318961	0.077128	0.438331
C76	C	1.818961	0.577128	0.938331
C77	C	1.190255	0.217474	0.449035
C78	C	1.690255	0.717474	0.949035
C79	C	1.190247	0.217471	0.353056
C80	C	1.690247	0.717471	0.853056
C81	C	1.254605	0.147300	0.299715
C82	C	1.754605	0.647300	0.799715
C83	C	1.254615	0.147301	0.491675
C84	C	1.754615	0.647301	0.991675
C85	C	1.254618	0.147299	0.595742
C86	C	1.754618	0.647299	1.095742
C87	C	1.254601	0.147301	0.195642
C88	C	1.754601	0.647301	0.695642
H89	H	0.936429	0.151279	-0.228664
H90	H	1.436429	0.651279	0.271336
H91	H	0.936403	0.151260	0.072947
H92	H	1.436403	0.651260	0.572947
Cl93	Cl	1.444499	-0.170462	-0.120088
Cl94	Cl	1.944499	0.329538	0.379912
Cl95	Cl	0.713034	0.146387	0.128319
Cl96	Cl	1.213034	0.646387	0.628319
H97	H	1.451985	-0.559593	-0.120738
H98	H	1.951985	-0.059593	0.379262
Cl99	Cl	0.796171	0.148219	-0.336939
Cl100	Cl	1.296171	0.648219	0.163061
Cl101	Cl	0.548529	0.142832	-0.316361
Cl102	Cl	1.048529	0.642832	0.183639
H103	H	1.475134	-0.363341	-0.122646
H104	H	1.975134	0.136659	0.377354
H105	H	0.572763	0.143339	0.020038
H106	H	1.072763	0.643339	0.520038
H107	H	1.034085	-0.342067	-0.085973
H108	H	1.534085	0.157933	0.414027
Cl109	Cl	1.064722	-0.534949	-0.088551
Cl110	Cl	1.564722	-0.034949	0.411449
Cl111	Cl	1.018234	-0.116542	-0.084632
Cl112	Cl	1.518234	0.383458	0.415368
H113	H	1.371360	0.019992	0.298922
H114	H	1.871360	0.519992	0.798922
H115	H	1.137838	0.274612	0.318341
H116	H	1.637838	0.774612	0.818341
H117	H	1.137857	0.274607	0.492474
H118	H	1.637857	0.774607	0.992474
Cl119	Cl	1.399863	-0.011091	0.491926
Cl120	Cl	1.899863	0.488909	0.991926
