data_functionalizedCrystal
_audit_creation_method	'MofGen! by Chris Wilmer'
_symmetry_space_group_name_H-M	'P1'
_symmetry_Int_Tables_number	1
_symmetry_cell_setting	triclinic
loop_
_symmetry_equiv_pos_as_xyz
  x,y,z
_cell_length_a	12.811457
_cell_length_b	14.044190
_cell_length_c	11.295483
_cell_angle_alpha	94.464886
_cell_angle_beta	91.289320
_cell_angle_gamma	88.597539
loop_
_atom_site_label
_atom_site_type_symbol
_atom_site_fract_x
_atom_site_fract_y
_atom_site_fract_z
O1	O	1.401200	0.131066	0.052280
O2	O	1.099054	0.142860	0.019646
O3	O	1.245587	-0.001070	0.035496
O4	O	1.254668	0.274996	0.036430
O5	O	1.232715	0.011552	0.232155
O6	O	1.086182	0.155482	0.216305
O7	O	1.388328	0.143688	0.248938
Cu8	Cu	1.236080	0.150737	0.250578
Cu9	Cu	1.251303	0.135810	0.018007
O10	O	1.241796	0.287618	0.233088
C11	C	1.053716	0.148123	0.113774
C12	C	0.937800	0.144990	0.101256
C13	C	0.705946	0.152847	0.292153
C14	C	0.597032	0.149903	0.280397
C15	C	0.611057	0.136152	0.065988
C16	C	0.719971	0.139096	0.077744
C17	C	0.767411	0.147445	0.190831
C18	C	0.876327	0.150395	0.202586
C19	C	0.890350	0.136638	-0.011822
C20	C	0.781436	0.133694	-0.023578
C21	C	1.235179	-0.030116	0.133400
C22	C	1.223332	-0.135471	0.132131
C23	C	1.285693	-0.385081	0.138819
C24	C	1.201695	-0.328367	0.129755
C25	C	1.213737	-0.221030	0.131077
C26	C	1.273653	-0.492428	0.137498
C27	C	1.433666	0.138424	0.154808
C28	C	1.549583	0.141557	0.167318
C29	C	1.252204	0.316664	0.135182
C30	C	1.264051	0.422018	0.136443
N31	N	1.225381	0.161236	0.414157
N32	N	1.262010	0.125305	-0.145572
C33	C	1.339024	0.049679	0.675739
C34	C	1.330947	0.057619	0.799529
C35	C	1.201143	0.185052	0.785529
C36	C	1.209221	0.177111	0.661739
C37	C	1.278165	0.109424	0.606848
C38	C	1.286247	0.101488	0.483057
C39	C	1.156439	0.228916	0.469058
C40	C	1.148361	0.236856	0.592848
H41	H	0.744572	0.159657	0.384233
O42	O	0.537476	0.155206	0.378944
C43	C	0.535067	0.169097	0.592850
C44	C	0.602636	0.163124	0.481340
H45	H	0.587721	0.175479	0.675664
H46	H	0.480375	0.234341	0.592421
H47	H	0.487073	0.101816	0.593008
H48	H	0.650693	0.230356	0.481109
H49	H	0.657261	0.097838	0.481811
O50	O	1.097426	0.287094	0.402206
C51	C	1.054100	0.448965	0.359452
C52	C	1.121006	0.383185	0.435219
H53	H	1.073124	0.526669	0.386132
H54	H	1.071720	0.431754	0.261532
H55	H	0.967859	0.437165	0.374657
H56	H	1.207267	0.394949	0.420117
H57	H	1.103297	0.400412	0.533113
O58	O	1.382191	-0.346684	0.149315
C59	C	1.482327	-0.203131	0.160109
C60	C	1.372984	-0.246503	0.148238
H61	H	1.474922	-0.122131	0.159218
H62	H	1.521126	-0.222261	0.247204
H63	H	1.531893	-0.232909	0.082601
H64	H	1.323335	-0.216749	0.225681
H65	H	1.334268	-0.227381	0.061097
H66	H	1.120737	-0.360425	0.121005
H67	H	0.572412	0.129338	-0.026081
O68	O	0.735517	0.125548	-0.133512
C69	C	0.760920	0.112303	-0.344935
C70	C	0.813056	0.121496	-0.220505
H71	H	0.823585	0.109045	-0.415303
H72	H	0.713687	0.044306	-0.355521
H73	H	0.706876	0.176829	-0.356095
H74	H	0.867149	0.057022	-0.209260
H75	H	0.860224	0.189532	-0.209977
H76	H	1.395169	-0.005429	0.631047
H77	H	0.940406	0.132245	-0.094326
H78	H	1.380503	0.008968	0.855616
O79	O	1.353233	0.035659	0.429919
C80	C	1.481165	-0.089865	0.456881
C81	C	1.405331	-0.015366	0.517205
H82	H	1.523323	-0.131125	0.527426
H83	H	1.435571	-0.141556	0.393644
H84	H	1.540801	-0.052013	0.404906
H85	H	1.345679	-0.053137	0.569243
H86	H	1.450995	0.036321	0.580374
H87	H	1.092225	0.291964	0.637554
O88	O	0.922374	0.158334	0.312458
C89	C	0.947834	0.088985	0.499787
C90	C	0.895648	0.079870	0.375381
H91	H	0.926228	0.025568	0.550704
H92	H	1.036247	0.090106	0.490860
H93	H	0.919601	0.158078	0.549927
H94	H	0.923797	0.010783	0.325172
H95	H	0.807241	0.078805	0.384392
O96	O	1.134019	0.250688	0.838797
C97	C	0.955421	0.306661	0.857655
C98	C	1.031325	0.232261	0.797259
H99	H	0.872379	0.291801	0.824077
H100	H	0.960013	0.302058	0.957966
H101	H	0.977697	0.381254	0.835572
H102	H	1.009100	0.157634	0.819248
H103	H	1.026721	0.236947	0.696963
