data_functionalizedCrystal
_audit_creation_method	'MofGen! by Chris Wilmer'
_symmetry_space_group_name_H-M	'P1'
_symmetry_Int_Tables_number	1
_symmetry_cell_setting	triclinic
loop_
_symmetry_equiv_pos_as_xyz
  x,y,z
_cell_length_a	16.625545
_cell_length_b	25.639242
_cell_length_c	16.625539
_cell_angle_alpha	90.030785
_cell_angle_beta	89.971893
_cell_angle_gamma	89.979416
loop_
_atom_site_label
_atom_site_type_symbol
_atom_site_fract_x
_atom_site_fract_y
_atom_site_fract_z
Zn1	Zn	-0.321107	-0.799310	-0.456130
Zn2	Zn	0.178893	-0.299310	0.043870
Zn3	Zn	-0.455950	-0.799242	-0.321298
Zn4	Zn	0.044050	-0.299242	0.178702
Zn5	Zn	-0.321124	-0.711875	-0.321287
Zn6	Zn	0.178876	-0.211875	0.178713
Zn7	Zn	-0.455890	-0.711851	-0.456064
Zn8	Zn	0.044110	-0.211851	0.043936
O9	O	-0.388518	-0.755570	-0.388695
O10	O	0.111482	-0.255570	0.111305
O11	O	-0.339013	-0.872466	-0.438277
O12	O	0.160987	-0.372466	0.061723
O13	O	-0.438097	-0.787635	-0.208464
O14	O	0.061903	-0.287635	0.291536
O15	O	-0.208289	-0.723512	-0.339197
O16	O	0.291711	-0.223512	0.160803
O17	O	-0.438081	-0.872417	-0.339216
O18	O	0.061919	-0.372417	0.160784
O19	O	-0.208277	-0.787750	-0.438266
O20	O	0.291723	-0.287750	0.061734
O21	O	-0.339041	-0.723446	-0.208456
O22	O	0.160959	-0.223446	0.291544
O23	O	-0.338982	-0.638707	-0.339133
O24	O	0.161018	-0.138707	0.160867
O25	O	-0.437978	-0.723471	-0.568905
O26	O	0.062022	-0.223471	-0.068905
O27	O	-0.437994	-0.638689	-0.438153
O28	O	0.062006	-0.138689	0.061847
O29	O	-0.338954	-0.787727	-0.568954
O30	O	0.161046	-0.287727	-0.068954
O31	O	-0.568775	-0.787612	-0.339152
O32	O	-0.068775	-0.287612	0.160848
O33	O	-0.568730	-0.723406	-0.438164
O34	O	-0.068730	-0.223406	0.061836
C35	C	-0.388484	-0.619727	-0.388635
C36	C	0.111516	-0.119727	0.111365
C37	C	-0.388489	-0.561613	-0.388628
C38	C	0.111511	-0.061613	0.111372
C39	C	-0.598009	-0.755513	-0.388669
C40	C	-0.098009	-0.255513	0.111331
C41	C	-0.687630	-0.755536	-0.388685
C42	C	-0.187630	-0.255536	0.111315
C43	C	-0.440152	-0.201250	-0.440184
C44	C	0.059848	0.298750	0.059816
C45	C	-0.440156	-0.146646	-0.440195
C46	C	0.059844	0.353354	0.059805
O47	O	-0.484046	-0.118409	-0.483994
O48	O	0.015954	0.381591	0.016006
N49	N	-0.388531	-0.119331	-0.388723
N50	N	0.111469	0.380669	0.111277
C51	C	-0.336893	-0.146623	-0.337242
C52	C	0.163107	0.353377	0.162758
O53	O	-0.292982	-0.118376	-0.293463
O54	O	0.207018	0.381624	0.206537
C55	C	-0.336885	-0.201226	-0.337237
C56	C	0.163115	0.298774	0.162763
C57	C	-0.388519	-0.228538	-0.388706
C58	C	0.111481	0.271462	0.111294
C59	C	-0.491781	-0.228562	-0.491650
C60	C	0.008219	0.271438	0.008350
C61	C	-0.491778	-0.283162	-0.491638
C62	C	0.008222	0.216838	0.008362
C63	C	-0.440145	-0.310451	-0.440160
C64	C	0.059855	0.189549	0.059840
C65	C	-0.388516	-0.283139	-0.388694
C66	C	0.111484	0.216861	0.111306
C67	C	-0.285244	-0.228518	-0.285761
C68	C	0.214756	0.271482	0.214239
C69	C	-0.285240	-0.283125	-0.285760
C70	C	0.214760	0.216875	0.214240
C71	C	-0.336874	-0.310437	-0.337229
C72	C	0.163126	0.189563	0.162771
C73	C	-0.336880	-0.365028	-0.337204
C74	C	0.163120	0.134972	0.162796
N75	N	-0.388505	-0.392343	-0.388676
N76	N	0.111495	0.107657	0.111324
C77	C	-0.440138	-0.365054	-0.440154
C78	C	0.059862	0.134946	0.059846
C79	C	-0.336912	-0.031952	-0.337260
C80	C	0.163088	0.468048	0.162740
C81	C	-0.336923	0.022650	-0.337261
C82	C	0.163077	0.522650	0.162739
C83	C	-0.440185	0.022624	-0.440215
C84	C	0.059815	0.522624	0.059785
C85	C	-0.440178	-0.031980	-0.440209
C86	C	0.059822	0.468020	0.059791
C87	C	-0.388537	-0.059267	-0.388732
C88	C	0.111463	0.440733	0.111268
C89	C	-0.440127	-0.479719	-0.440125
C90	C	0.059873	0.020281	0.059875
C91	C	-0.440122	-0.534325	-0.440106
C92	C	0.059878	-0.034325	0.059894
C93	C	-0.336857	-0.534294	-0.337156
C94	C	0.163143	-0.034294	0.162844
C95	C	-0.336865	-0.479693	-0.337171
C96	C	0.163135	0.020307	0.162829
C97	C	-0.388503	-0.452407	-0.388663
C98	C	0.111497	0.047593	0.111337
O99	O	-0.293010	-0.393299	-0.293430
O100	O	0.206990	0.106701	0.206570
O101	O	-0.484034	-0.393308	-0.483934
O102	O	0.015966	0.106692	0.016066
C103	C	-0.760412	-0.755557	-0.388701
C104	C	-0.260412	-0.255557	0.111299
C105	C	-0.851720	-0.755587	-0.388719
C106	C	-0.351720	-0.255587	0.111281
C107	C	-0.924497	-0.755614	-0.388729
C108	C	-0.424497	-0.255614	0.111271
C109	C	-1.015811	-0.755644	-0.388746
C110	C	-0.515811	-0.255644	0.111254
C111	C	-0.178209	-0.755641	-0.388738
C112	C	0.321791	-0.255641	0.111262
C113	C	-0.088588	-0.755671	-0.388756
C114	C	0.411412	-0.255671	0.111244
C115	C	-0.388458	-0.755604	-0.599004
C116	C	0.111542	-0.255604	-0.099004
C117	C	-0.388432	-0.755618	-0.688625
C118	C	0.111568	-0.255618	-0.188625
C119	C	-0.388549	0.108057	-0.388746
C120	C	0.111451	0.608057	0.111254
C121	C	-0.388553	0.049943	-0.388743
C122	C	0.111447	0.549943	0.111257
C123	C	-0.388342	-0.755642	-1.016801
C124	C	0.111658	-0.255642	-0.516801
C125	C	-0.388369	-0.755634	-0.925492
C126	C	0.111631	-0.255634	-0.425492
C127	C	-0.388387	-0.755631	-0.852716
C128	C	0.111613	-0.255631	-0.352716
C129	C	-0.388414	-0.755622	-0.761401
C130	C	0.111586	-0.255622	-0.261401
C131	C	-0.388519	-0.755566	-0.179204
C132	C	0.111481	-0.255566	0.320796
C133	C	-0.388318	-0.755653	-0.089583
C134	C	0.111682	-0.255653	0.410417
H135	H	-0.482171	-0.556560	-0.482020
H136	H	0.017829	-0.056560	0.017980
H137	H	-0.482174	-0.457510	-0.482056
H138	H	0.017826	0.042490	0.017944
O139	O	-0.229539	-0.312553	-0.230234
O140	O	0.270461	0.187447	0.269766
H141	H	-0.238200	-0.355111	-0.238873
H142	H	0.261800	0.144889	0.261127
O143	O	-0.281189	-0.450243	-0.281631
O144	O	0.218811	0.049757	0.218369
H145	H	-0.317236	-0.425348	-0.240546
H146	H	0.182764	0.074652	0.259454
O147	O	-0.281164	-0.563730	-0.281638
O148	O	0.218836	-0.063730	0.218362
H149	H	-0.289834	-0.606287	-0.290290
H150	H	0.210166	-0.106287	0.209710
O151	O	-0.495858	-0.061431	-0.495739
O152	O	0.004142	0.438569	0.004261
H153	H	-0.459812	-0.086327	-0.536821
H154	H	0.040188	0.413673	-0.036821
O155	O	-0.281220	-0.061385	-0.281727
O156	O	0.218780	0.438615	0.218273
H157	H	-0.317256	-0.086241	-0.240644
H158	H	0.182744	0.413759	0.259356
H159	H	-0.243200	-0.206289	-0.243847
H160	H	0.256800	0.293711	0.256153
H161	H	-0.533827	-0.206349	-0.533574
H162	H	-0.033827	0.293651	-0.033574
O163	O	-0.495917	0.052028	-0.495743
O164	O	0.004083	0.552028	0.004257
H165	H	-0.459927	0.076884	-0.536867
H166	H	0.040073	0.576884	-0.036867
O167	O	-0.547457	-0.312618	-0.547164
O168	O	-0.047457	0.187382	-0.047164
H169	H	-0.583348	-0.284462	-0.582964
H170	H	-0.083348	0.215538	-0.082964
O171	O	-0.281237	0.052107	-0.281744
O172	O	0.218763	0.552107	0.218256
H173	H	-0.245332	0.023952	-0.245954
H174	H	0.254668	0.523952	0.254046
