data_functionalizedCrystal
_audit_creation_method	'MofGen! by Chris Wilmer'
_symmetry_space_group_name_H-M	'P1'
_symmetry_Int_Tables_number	1
_symmetry_cell_setting	triclinic
loop_
_symmetry_equiv_pos_as_xyz
  x,y,z
_cell_length_a	12.645330
_cell_length_b	10.686154
_cell_length_c	10.686551
_cell_angle_alpha	89.693980
_cell_angle_beta	85.595904
_cell_angle_gamma	85.603553
loop_
_atom_site_label
_atom_site_type_symbol
_atom_site_fract_x
_atom_site_fract_y
_atom_site_fract_z
Zn1	Zn	-0.258525	-1.972278	-0.562459
Zn2	Zn	-0.450400	-1.956039	-0.352706
Zn3	Zn	-0.285635	-1.746395	-0.368770
Zn4	Zn	-0.448245	-1.762469	-0.578477
O5	O	-0.360701	-1.859295	-0.465603
O6	O	-0.273535	-2.145667	-0.521208
O7	O	-0.440792	-1.914706	-0.179291
O8	O	-0.133686	-1.776428	-0.394482
O9	O	-0.414505	-2.133736	-0.367103
O10	O	-0.113769	-1.942384	-0.536784
O11	O	-0.319739	-1.760681	-0.191093
O12	O	-0.317649	-1.572984	-0.410014
O13	O	-0.410830	-1.803824	-0.751898
O14	O	-0.437117	-1.584794	-0.564085
O15	O	-0.271444	-1.957970	-0.740129
O16	O	-0.598467	-1.930292	-0.382636
O17	O	-0.596884	-1.788077	-0.548509
C18	C	-0.380092	-1.533373	-0.490532
C19	C	-0.388410	-1.393944	-0.501227
C20	C	-0.636138	-1.859202	-0.465592
C21	C	-0.753961	-1.859281	-0.465621
C22	C	-0.920528	-1.770236	-0.570240
C23	C	-0.798020	-1.769718	-0.569965
C24	C	-0.809875	-1.813344	-0.336154
C25	C	-0.932467	-1.812800	-0.336790
C26	C	-0.910780	-1.994770	-0.489351
C27	C	-0.788021	-1.994178	-0.492304
C28	C	-0.084186	-1.859425	-0.465638
C29	C	0.033649	-1.859480	-0.465653
C30	C	-0.337873	-1.884501	-0.792803
C31	C	-0.328145	-1.895243	-0.932236
C32	C	-0.341226	-1.186490	-0.440569
C33	C	-0.332902	-1.325919	-0.429880
C34	C	-0.383360	-1.834259	-0.139670
C35	C	-0.392775	-1.823761	-0.000219
H36	H	-0.759719	-1.799634	-0.666281
Cl37	Cl	-0.231222	-2.002433	-1.007067
Cl38	Cl	-0.249704	-1.400685	-0.322935
Cl39	Cl	-0.471626	-1.319173	-0.608163
H40	H	-0.958789	-1.670779	-0.555581
Cl41	Cl	-0.953348	-1.816135	-0.719472
H42	H	-0.787009	-1.715115	-0.314303
H43	H	-0.781825	-1.875835	-0.256545
Cl44	Cl	-0.489704	-1.716590	-0.925392
Cl45	Cl	-0.988765	-1.659643	-0.303975
Cl46	Cl	-0.764327	-1.615180	-0.546968
H47	H	-0.757415	-2.064984	-0.420869
H48	H	-0.963316	-1.874431	-0.256753
H49	H	-0.933094	-2.034692	-0.581618
Cl50	Cl	-0.730094	-2.047385	-0.639333
Cl51	Cl	-0.956526	-2.097625	-0.371573
