data_functionalizedCrystal
_audit_creation_method	'MofGen! by Chris Wilmer'
_symmetry_space_group_name_H-M	'P1'
_symmetry_Int_Tables_number	1
_symmetry_cell_setting	triclinic
loop_
_symmetry_equiv_pos_as_xyz
  x,y,z
_cell_length_a	10.723024
_cell_length_b	10.723024
_cell_length_c	9.798715
_cell_angle_alpha	90.001978
_cell_angle_beta	89.997513
_cell_angle_gamma	95.532131
loop_
_atom_site_label
_atom_site_type_symbol
_atom_site_fract_x
_atom_site_fract_y
_atom_site_fract_z
O1	O	1.657187	-0.175024	-0.113450
O2	O	1.294035	-0.191778	-0.113460
O3	O	1.483988	-0.001825	-0.113450
O4	O	1.467234	-0.364977	-0.113460
O5	O	1.483974	-0.001824	0.113532
O6	O	1.294021	-0.191777	0.113522
O7	O	1.657173	-0.175024	0.113532
Zn8	Zn	1.475595	-0.183401	0.149565
Zn9	Zn	1.475613	-0.183401	-0.149493
O10	O	1.467220	-0.364977	0.113522
C11	C	1.247528	-0.190558	0.000029
C12	C	1.108974	-0.186911	0.000025
N13	N	1.475591	-0.183399	0.353665
C14	C	1.482762	0.044675	0.000040
C15	C	1.479114	0.183229	0.000035
C16	C	1.703680	-0.176243	0.000040
C17	C	1.842234	-0.179891	0.000035
C18	C	1.917217	-0.073603	0.000036
C19	C	2.060420	-0.077371	0.000031
C20	C	1.468447	-0.411477	0.000029
C21	C	1.472094	-0.550031	0.000025
C22	C	1.585401	0.258212	0.000036
C23	C	1.581634	0.401415	0.000031
N24	N	1.475627	-0.183393	-0.353593
C25	C	1.555347	-0.103292	0.421446
C26	C	1.555367	-0.103288	0.578609
H27	H	1.875395	0.020182	0.000062
H28	H	1.623611	-0.034707	0.363128
Cl29	Cl	1.906793	-0.324697	0.000038
H30	H	1.679187	0.216390	0.000047
H31	H	1.407319	-0.251975	0.411986
H32	H	1.672624	0.465848	0.000038
H33	H	1.623654	-0.034709	0.636898
H34	H	1.407345	-0.251984	0.588127
H35	H	2.124853	0.013619	0.000023
H36	H	1.385328	0.225051	0.000023
H37	H	2.044549	-0.277906	0.000019
Cl38	Cl	1.331599	0.350504	0.000034
