data_functionalizedCrystal
_audit_creation_method	'MofGen! by Chris Wilmer'
_symmetry_space_group_name_H-M	'P1'
_symmetry_Int_Tables_number	1
_symmetry_cell_setting	triclinic
loop_
_symmetry_equiv_pos_as_xyz
  x,y,z
_cell_length_a	16.974897
_cell_length_b	16.109301
_cell_length_c	15.186229
_cell_angle_alpha	90.005167
_cell_angle_beta	93.654932
_cell_angle_gamma	83.431140
loop_
_atom_site_label
_atom_site_type_symbol
_atom_site_fract_x
_atom_site_fract_y
_atom_site_fract_z
O1	O	-1.049104	-0.106024	-0.147917
O2	O	-0.549104	0.393976	0.352083
O3	O	-0.818897	-0.119508	-0.131531
O4	O	-0.318897	0.380492	0.368469
O5	O	-0.940325	0.008270	-0.140165
O6	O	-0.440325	0.508270	0.359835
O7	O	-0.927677	-0.233802	-0.139283
O8	O	-0.427677	0.266198	0.360717
O9	O	-0.940317	0.008272	0.006293
O10	O	-0.440317	0.508272	0.506293
O11	O	-0.818889	-0.119506	0.014927
O12	O	-0.318889	0.380494	0.514927
O13	O	-1.049096	-0.106022	-0.001459
O14	O	-0.549096	0.393978	0.498541
Zn15	Zn	-0.933991	-0.112764	0.029987
Zn16	Zn	-0.433991	0.387236	0.529987
Zn17	Zn	-0.934002	-0.112766	-0.162977
Zn18	Zn	-0.434002	0.387234	0.337023
O19	O	-0.927669	-0.233800	0.007175
O20	O	-0.427669	0.266200	0.507175
C21	C	-0.939808	0.039246	-0.066899
C22	C	-0.439808	0.539246	0.433101
C23	C	-0.938272	0.131540	-0.066789
C24	C	-0.438272	0.631540	0.433211
C25	C	-0.789435	-0.118992	-0.056205
C26	C	-0.289435	0.381008	0.443795
C27	C	-0.701660	-0.117447	-0.049957
C28	C	-0.201660	0.382553	0.450043
C29	C	-1.078558	-0.106538	-0.076787
C30	C	-0.578558	0.393462	0.423213
C31	C	-1.166333	-0.108083	-0.083041
C32	C	-0.666333	0.391917	0.416959
C33	C	-0.660420	-0.116725	-0.126849
C34	C	-0.160420	0.383275	0.373151
C35	C	-0.577945	-0.115287	-0.120965
C36	C	-0.077945	0.384713	0.379035
C37	C	-0.536711	-0.114565	-0.038188
C38	C	-0.036711	0.385435	0.461812
C39	C	-0.577956	-0.115291	0.038710
C40	C	-0.077956	0.384709	0.538710
C41	C	-0.660430	-0.116735	0.032825
C42	C	-0.160430	0.383265	0.532825
C43	C	-0.290052	-0.110252	-0.012028
C44	C	0.209948	0.389748	0.487972
C45	C	-0.207573	-0.108805	-0.006149
C46	C	0.292427	0.391195	0.493851
C47	C	-0.207567	-0.108803	-0.165825
C48	C	0.292433	0.391197	0.334175
C49	C	-0.290042	-0.110242	-0.171702
C50	C	0.209958	0.389758	0.328298
C51	C	-0.331280	-0.110972	-0.094804
C52	C	0.168720	0.389028	0.405196
N53	N	-0.452408	-0.113093	-0.032172
N54	N	0.047592	0.386907	0.467828
N55	N	-0.415581	-0.112450	-0.100821
N56	N	0.084419	0.387550	0.399179
C57	C	-0.928185	-0.264776	-0.066093
C58	C	-0.428185	0.235224	0.433907
C59	C	-0.929721	-0.357070	-0.066209
C60	C	-0.429721	0.142930	0.433791
N61	N	-0.933990	-0.112762	0.161680
N62	N	-0.433990	0.387238	0.661680
C63	C	-1.006753	0.353867	-0.071677
C64	C	-0.506753	0.853867	0.428323
C65	C	-1.005304	0.440586	-0.071581
C66	C	-0.505304	0.940586	0.428419
C67	C	-0.861234	0.420596	-0.061323
C68	C	-0.361234	0.920596	0.438677
C69	C	-0.862685	0.333879	-0.061425
C70	C	-0.362685	0.833879	0.438575
C71	C	-0.935446	0.300517	-0.066598
C72	C	-0.435446	0.800517	0.433402
C73	C	-0.932547	0.473953	-0.066400
C74	C	-0.432547	0.973953	0.433600
C75	C	-0.930975	0.567978	-0.066296
C76	C	-0.430975	1.067978	0.433704
C77	C	-0.937019	0.206486	-0.066704
C78	C	-0.437019	0.706486	0.433296
N79	N	-0.934010	-0.112762	-0.294671
N80	N	-0.434010	0.387238	0.205329
C81	C	-0.987776	-0.056201	0.383578
C82	C	-0.487776	0.443799	0.883578
C83	C	-0.987779	-0.056199	0.475768
C84	C	-0.487779	0.443801	0.975768
C85	C	-0.880218	-0.169326	0.483425
C86	C	-0.380218	0.330674	0.983425
C87	C	-0.880212	-0.169323	0.391238
C88	C	-0.380212	0.330677	0.891238
C89	C	-0.933996	-0.112761	0.341316
C90	C	-0.433996	0.387239	0.841316
C91	C	-0.934004	-0.112762	0.525693
C92	C	-0.434004	0.387238	1.025693
C93	C	-0.934006	-0.112760	0.625649
C94	C	-0.434006	0.387240	1.125649
C95	C	-0.933993	-0.112762	0.241354
C96	C	-0.433993	0.387238	0.741354
H97	H	-0.693987	-0.117309	-0.194255
H98	H	-0.193987	0.382691	0.305745
H99	H	-1.063369	0.484021	-0.075719
H100	H	-0.563369	0.984021	0.424281
H101	H	-0.801994	0.447770	-0.057110
H102	H	-0.301994	0.947770	0.442890
C103	C	-1.034258	0.087753	0.500843
C104	C	-0.534258	0.587753	1.000843
C105	C	-1.046899	0.005973	0.522220
C106	C	-0.546899	0.505973	1.022220
H107	H	-1.070761	0.126136	0.529517
H108	H	-0.570761	0.626136	1.029517
H109	H	-0.981501	0.096753	0.519720
H110	H	-0.481501	0.596753	1.019720
H111	H	-1.041952	0.095835	0.438792
H112	H	-0.541952	0.595835	0.938792
H113	H	-1.039199	-0.002110	0.584270
H114	H	-0.539199	0.497890	1.084270
H115	H	-1.099668	-0.003030	0.503348
H116	H	-0.599668	0.496970	1.003348
H117	H	-1.031569	-0.010144	0.342934
H118	H	-0.531569	0.489856	0.842934
C119	C	-0.586226	-0.115404	-0.279386
C120	C	-0.086226	0.384596	0.220614
C121	C	-0.532616	-0.114479	-0.205488
C122	C	-0.032616	0.385521	0.294512
H123	H	-0.558241	-0.114899	-0.331568
H124	H	-0.058241	0.385101	0.168432
H125	H	-0.612352	-0.164425	-0.277943
H126	H	-0.112352	0.335575	0.222057
H127	H	-0.624434	-0.067506	-0.278769
H128	H	-0.124434	0.432494	0.221231
H129	H	-0.494410	-0.162380	-0.206101
H130	H	0.005590	0.337620	0.293899
H131	H	-0.506476	-0.065453	-0.206932
H132	H	-0.006476	0.434547	0.293068
H133	H	-0.323610	-0.110823	-0.239108
H134	H	0.176390	0.389177	0.260892
C135	C	-0.772623	-0.187425	0.594781
C136	C	-0.272623	0.312575	1.094781
C137	C	-0.821108	-0.231500	0.538306
C138	C	-0.321108	0.268500	1.038306
H139	H	-0.736135	-0.225812	0.628664
H140	H	-0.236135	0.274188	1.128664
H141	H	-0.744189	-0.152840	0.560851
H142	H	-0.244189	0.347160	1.060851
H143	H	-0.804664	-0.153742	0.633140
H144	H	-0.304664	0.346258	1.133140
H145	H	-0.789067	-0.265179	0.499943
H146	H	-0.289067	0.234821	0.999943
H147	H	-0.849544	-0.266100	0.572238
H148	H	-0.349544	0.233900	1.072238
C149	C	-0.081137	-0.106597	-0.227707
C150	C	0.418863	0.393403	0.272293
C151	C	-0.162235	-0.108013	-0.250347
C152	C	0.337765	0.391987	0.249653
H153	H	-0.053153	-0.106117	-0.279891
H154	H	0.446847	0.393883	0.220109
H155	H	-0.073664	-0.057902	-0.194376
H156	H	0.426336	0.442098	0.305624
H157	H	-0.061594	-0.154821	-0.193510
H158	H	0.438406	0.345179	0.306490
H159	H	-0.181780	-0.059785	-0.284538
H160	H	0.318220	0.440215	0.215462
H161	H	-0.169713	-0.156712	-0.283692
H162	H	0.330287	0.343288	0.216308
C163	C	-0.215857	-0.108966	0.151101
C164	C	0.284143	0.391034	0.651101
C165	C	-0.162246	-0.108017	0.084846
C166	C	0.337754	0.391983	0.584846
H167	H	-0.187872	-0.108482	0.207273
H168	H	0.312128	0.391518	0.707273
H169	H	-0.254063	-0.061075	0.145065
H170	H	0.245937	0.438925	0.645065
H171	H	-0.241985	-0.157993	0.145904
H172	H	0.258015	0.342007	0.645904
H173	H	-0.136123	-0.058986	0.090039
H174	H	0.363877	0.441014	0.590039
H175	H	-0.124027	-0.155913	0.090885
H176	H	0.375973	0.344087	0.590885
H177	H	-0.804614	0.290438	-0.057291
H178	H	-0.304614	0.790438	0.442709
C179	C	-0.391696	-0.040437	0.073362
C180	C	0.108304	0.459563	0.573362
C181	C	-0.335373	-0.111041	0.072499
C182	C	0.164627	0.388959	0.572499
H183	H	-0.419679	-0.040926	0.125546
H184	H	0.080321	0.459074	0.625546
H185	H	-0.365558	0.008576	0.071908
H186	H	0.134442	0.508576	0.571908
H187	H	-0.428055	-0.041087	0.023222
H188	H	0.071945	0.458913	0.523222
H189	H	-0.299010	-0.110387	0.122635
H190	H	0.200990	0.389613	0.622635
H191	H	-0.361513	-0.160066	0.073961
H192	H	0.138487	0.339934	0.573961
C193	C	-0.773894	-0.281155	0.408059
C194	C	-0.273894	0.218845	0.908059
C195	C	-0.821094	-0.231502	0.344776
C196	C	-0.321094	0.268498	0.844776
H197	H	-0.737402	-0.319541	0.379373
H198	H	-0.237402	0.180459	0.879373
H199	H	-0.745466	-0.246565	0.446047
H200	H	-0.245466	0.253435	0.946047
H201	H	-0.806807	-0.311046	0.441665
H202	H	-0.306807	0.188954	0.941665
H203	H	-0.788182	-0.201606	0.311174
H204	H	-0.288182	0.298394	0.811174
H205	H	-0.849525	-0.266097	0.306773
H206	H	-0.349525	0.233903	0.806773
C207	C	-0.561479	-0.043414	0.175993
C208	C	-0.061479	0.456586	0.675993
C209	C	-0.532636	-0.114498	0.129702
C210	C	-0.032636	0.385502	0.629702
H211	H	-0.533503	-0.042927	0.232171
H212	H	-0.033503	0.457073	0.732171
H213	H	-0.553994	0.005273	0.143729
H214	H	-0.053994	0.505273	0.643729
H215	H	-0.616499	-0.044388	0.183486
H216	H	-0.116499	0.455612	0.683486
H217	H	-0.477616	-0.113520	0.122203
H218	H	0.022384	0.386480	0.622203
H219	H	-0.540113	-0.163197	0.161973
H220	H	-0.040113	0.336803	0.661973
H221	H	-0.694006	-0.117327	0.095439
H222	H	-0.194006	0.382673	0.595439
H223	H	-1.066001	0.326707	-0.075891
H224	H	-0.566001	0.826707	0.424109
