data_functionalizedCrystal
_audit_creation_method	'MofGen! by Chris Wilmer'
_symmetry_space_group_name_H-M	'P1'
_symmetry_Int_Tables_number	1
_symmetry_cell_setting	triclinic
loop_
_symmetry_equiv_pos_as_xyz
  x,y,z
_cell_length_a	23.532355
_cell_length_b	23.532357
_cell_length_c	22.010155
_cell_angle_alpha	89.998697
_cell_angle_beta	89.997414
_cell_angle_gamma	82.827896
loop_
_atom_site_label
_atom_site_type_symbol
_atom_site_fract_x
_atom_site_fract_y
_atom_site_fract_z
O1	O	0.755271	0.068988	-0.050450
O2	O	1.255271	0.568988	0.449550
O3	O	0.589401	0.079022	-0.050470
O4	O	1.089401	0.579022	0.449530
O5	O	0.677352	-0.008930	-0.050447
O6	O	1.177352	0.491070	0.449553
O7	O	0.667319	0.156940	-0.050473
O8	O	1.167319	0.656940	0.449527
O9	O	0.677336	-0.008916	0.050604
O10	O	1.177336	0.491084	0.550604
O11	O	0.589385	0.079035	0.050580
O12	O	1.089385	0.579035	0.550580
O13	O	0.755255	0.069001	0.050601
O14	O	1.255255	0.569001	0.550601
Cu15	Cu	0.672318	0.074019	0.059817
Cu16	Cu	1.172318	0.574019	0.559817
Cu17	Cu	0.672337	0.074004	-0.059687
Cu18	Cu	1.172337	0.574004	0.440313
O19	O	0.667303	0.156953	0.050577
O20	O	1.167303	0.656953	0.550577
C21	C	0.568177	0.078778	0.000053
C22	C	1.068177	0.578778	0.500053
C23	C	0.504958	0.078024	0.000045
C24	C	1.004958	0.578024	0.500045
C25	C	0.112936	0.073293	0.055154
C26	C	0.612936	0.573293	0.555154
C27	C	0.053537	0.072575	0.055157
C28	C	0.553537	0.572575	0.555157
O29	O	0.022811	0.072191	0.102002
O30	O	0.522811	0.572191	0.602002
N31	N	0.023837	0.072212	0.000074
N32	N	0.523837	0.572212	0.500074
C33	C	0.053541	0.072561	-0.055014
C34	C	0.553541	0.572561	0.444986
O35	O	0.022825	0.072186	-0.101866
O36	O	0.522825	0.572186	0.398134
C37	C	0.112940	0.073275	-0.055016
C38	C	0.612940	0.573275	0.444984
C39	C	0.142636	0.073643	0.000070
C40	C	0.642636	0.573643	0.500070
C41	C	0.142632	0.073661	0.110236
C42	C	0.642632	0.573661	0.610236
C43	C	0.202027	0.074379	0.110233
C44	C	0.702027	0.574379	0.610233
C45	C	0.231727	0.074730	0.055149
C46	C	0.731727	0.574730	0.555149
C47	C	0.202031	0.074362	0.000067
C48	C	0.702031	0.574362	0.500067
C49	C	0.142643	0.073619	-0.110104
C50	C	0.642643	0.573619	0.389896
C51	C	0.202045	0.074332	-0.110101
C52	C	0.702045	0.574332	0.389899
C53	C	0.231741	0.074701	-0.055015
C54	C	0.731741	0.574701	0.444985
C55	C	0.291125	0.075431	-0.055019
C56	C	0.791125	0.575431	0.444981
N57	N	0.320824	0.075794	0.000063
N58	N	0.820824	0.575794	0.500063
C59	C	0.291125	0.075443	0.055147
C60	C	0.791125	0.575443	0.555147
C61	C	-0.071200	0.071062	-0.055006
C62	C	0.428800	0.571062	0.444994
C63	C	-0.130599	0.070353	-0.055005
C64	C	0.369401	0.570353	0.444995
C65	C	-0.130598	0.070366	0.055166
C66	C	0.369402	0.570366	0.555166
C67	C	-0.071199	0.071079	0.055164
C68	C	0.428801	0.571079	0.555164
C69	C	-0.041501	0.071425	0.000076
C70	C	0.458499	0.571425	0.500076
C71	C	0.415859	0.076953	0.055137
C72	C	0.915859	0.576953	0.555137
C73	C	0.475259	0.077674	0.055130
C74	C	0.975259	0.577674	0.555130
C75	C	0.475254	0.077657	-0.055041
C76	C	0.975254	0.577657	0.444959
C77	C	0.415859	0.076939	-0.055034
C78	C	0.915859	0.576939	0.444966
C79	C	0.386163	0.076585	0.000060
C80	C	0.886163	0.576585	0.500060
O81	O	0.321889	0.075813	-0.101841
O82	O	0.821889	0.575813	0.398159
O83	O	0.321850	0.075811	0.101991
O84	O	0.821850	0.575811	0.601991
C85	C	0.677094	-0.030140	0.000080
C86	C	1.177094	0.469860	0.500080
C87	C	0.676339	-0.093358	0.000086
C88	C	1.176339	0.406642	0.500086
C89	C	0.671611	-0.485376	-0.055030
C90	C	1.171611	0.014624	0.444970
C91	C	0.670894	-0.544775	-0.055034
C92	C	1.170894	-0.044775	0.444966
O93	O	0.670511	-0.575497	-0.101879
O94	O	1.170511	-0.075497	0.398121
N95	N	0.670529	-0.574479	0.000048
N96	N	1.170529	-0.074479	0.500048
C97	C	0.670876	-0.544780	0.055137
C98	C	1.170876	-0.044780	0.555137
O99	O	0.670500	-0.575499	0.101988
O100	O	1.170500	-0.075499	0.601988
C101	C	0.671589	-0.485381	0.055140
C102	C	1.171589	0.014619	0.555140
C103	C	0.671960	-0.455681	0.000055
C104	C	1.171960	0.044319	0.500055
C105	C	0.671980	-0.455675	-0.110111
C106	C	1.171980	0.044325	0.389889
C107	C	0.672699	-0.396280	-0.110107
C108	C	1.172699	0.103720	0.389893
C109	C	0.673047	-0.366585	-0.055023
C110	C	1.173047	0.133415	0.444977
C111	C	0.672678	-0.396286	0.000058
C112	C	1.172678	0.103714	0.500058
C113	C	0.671932	-0.455682	0.110228
C114	C	1.171932	0.044318	0.610228
C115	C	0.672645	-0.396279	0.110226
C116	C	1.172645	0.103721	0.610226
C117	C	0.673015	-0.366579	0.055141
C118	C	1.173015	0.133421	0.555141
C119	C	0.673745	-0.307196	0.055147
C120	C	1.173745	0.192804	0.555147
N121	N	0.674109	-0.277492	0.000065
N122	N	1.174109	0.222508	0.500065
C123	C	0.673761	-0.307187	-0.055020
C124	C	1.173761	0.192813	0.444980
C125	C	0.669378	-0.669521	0.055127
C126	C	1.169378	-0.169521	0.555127
C127	C	0.668669	-0.728919	0.055124
C128	C	1.168669	-0.228919	0.555124
C129	C	0.668685	-0.728910	-0.055046
C130	C	1.168685	-0.228910	0.444954
C131	C	0.669398	-0.669511	-0.055044
C132	C	1.169398	-0.169511	0.444956
C133	C	0.669742	-0.639817	0.000045
C134	C	1.169742	-0.139817	0.500045
C135	C	0.675269	-0.182453	-0.055008
C136	C	1.175269	0.317547	0.444992
C137	C	0.675990	-0.123053	-0.054999
C138	C	1.175990	0.376947	0.445001
C139	C	0.675971	-0.123067	0.055172
C140	C	1.175971	0.376933	0.555172
C141	C	0.675253	-0.182462	0.055163
C142	C	1.175253	0.317538	0.555163
C143	C	0.674901	-0.212153	0.000069
C144	C	1.174901	0.287847	0.500069
O145	O	0.674126	-0.276435	0.101968
O146	O	1.174126	0.223565	0.601968
O147	O	0.674129	-0.276459	-0.101863
O148	O	1.174129	0.223541	0.398137
C149	C	0.776479	0.069245	0.000077
C150	C	1.276479	0.569245	0.500077
C151	C	0.839698	0.069999	0.000080
C152	C	1.339698	0.569999	0.500080
C153	C	0.667562	0.178163	0.000049
C154	C	1.167562	0.678163	0.500049
C155	C	0.668317	0.241381	0.000039
C156	C	1.168317	0.741381	0.500039
N157	N	0.672309	0.074030	0.143870
N158	N	1.172309	0.574030	0.643870
N159	N	0.672351	0.073989	-0.143739
N160	N	1.172351	0.573989	0.356261
C161	C	0.711284	0.035064	0.563659
C162	C	1.211284	0.535064	1.063659
C163	C	0.711287	0.035060	0.627267
C164	C	1.211287	0.535060	1.127267
O165	O	0.744402	0.001938	0.660167
O166	O	1.244402	0.501938	1.160167
N167	N	0.672337	0.073992	0.659077
N168	N	1.172337	0.573992	1.159077
C169	C	0.633378	0.112926	0.627276
C170	C	1.133378	0.612926	1.127276
O171	O	0.600248	0.146040	0.660173
O172	O	1.100248	0.646040	1.160173
C173	C	0.633373	0.112927	0.563669
C174	C	1.133373	0.612927	1.063669
C175	C	0.672329	0.073997	0.531863
C176	C	1.172329	0.573997	1.031863
C177	C	0.750237	-0.003863	0.531853
C178	C	1.250237	0.496137	1.031853
C179	C	0.750235	-0.003858	0.468249
C180	C	1.250235	0.496142	0.968249
C181	C	0.711280	0.035074	0.436453
C182	C	1.211280	0.535074	0.936453
C183	C	0.672327	0.074001	0.468259
C184	C	1.172327	0.574001	0.968259
C185	C	0.594412	0.151858	0.531869
C186	C	1.094412	0.651858	1.031869
C187	C	0.594410	0.151855	0.468258
C188	C	1.094410	0.651855	0.968258
C189	C	0.633366	0.112925	0.436452
C190	C	1.133366	0.612925	0.936452
C191	C	0.633370	0.112938	0.372860
C192	C	1.133370	0.612938	0.872860
N193	N	0.672320	0.074007	0.341050
N194	N	1.172320	0.574007	0.841050
C195	C	0.711275	0.035075	0.372846
C196	C	1.211275	0.535075	0.872846
C197	C	0.633391	0.112921	0.760853
C198	C	1.133391	0.612921	1.260853
C199	C	0.633398	0.112923	0.824459
C200	C	1.133398	0.612923	1.324459
C201	C	0.711306	0.035057	0.824446
C202	C	1.211306	0.535057	1.324446
C203	C	0.711301	0.035057	0.760839
C204	C	1.211301	0.535057	1.260839
C205	C	0.672341	0.073989	0.729044
C206	C	1.172341	0.573989	1.229044
C207	C	0.711268	0.035088	0.239275
C208	C	1.211268	0.535088	0.739275
C209	C	0.711264	0.035098	0.175666
C210	C	1.211264	0.535098	0.675666
C211	C	0.633354	0.112962	0.175685
C212	C	1.133354	0.612962	0.675685
C213	C	0.633360	0.112955	0.239288
C214	C	1.133360	0.612955	0.739288
C215	C	0.672319	0.074013	0.271082
C216	C	1.172319	0.574013	0.771082
O217	O	0.600271	0.146043	0.339919
O218	O	1.100271	0.646043	0.839919
O219	O	0.744395	0.001962	0.339941
O220	O	1.244395	0.501962	0.839941
H221	H	-0.047025	0.071380	0.100020
H222	H	0.452975	0.571380	0.600020
H223	H	0.669659	-0.645348	0.099989
H224	H	1.169659	-0.145348	0.599989
H225	H	0.601665	0.144629	0.734969
H226	H	1.101665	0.644629	1.234969
O227	O	0.591385	0.154920	0.858758
O228	O	1.091385	0.654920	1.358758
H229	H	0.597930	0.148385	0.908330
H230	H	1.097930	0.648385	1.408330
H231	H	0.668399	-0.753098	-0.099900
H232	H	1.168399	-0.253098	0.400100
O233	O	0.671531	-0.487703	0.169645
O234	O	1.171531	0.012297	0.669645
H235	H	0.670979	-0.533998	0.160400
H236	H	1.170979	-0.033998	0.660400
H237	H	0.671694	-0.479846	-0.154970
H238	H	1.171694	0.020154	0.345030
O239	O	-0.039167	0.071442	-0.114424
O240	O	0.460833	0.571442	0.385576
H241	H	-0.055872	0.110128	-0.140839
H242	H	0.444128	0.610128	0.359161
O243	O	0.552414	0.193868	0.566166
O244	O	1.052414	0.693868	1.066166
H245	H	0.525334	0.220938	0.533360
H246	H	1.025334	0.720938	1.033360
H247	H	0.781955	-0.035560	0.442356
H248	H	1.281955	0.464440	0.942356
H249	H	0.499445	0.077945	-0.099889
H250	H	0.999445	0.577945	0.400111
O251	O	0.552390	0.193850	0.433963
O252	O	1.052390	0.693850	0.933963
H253	H	0.525309	0.220920	0.466771
H254	H	1.025309	0.720920	0.966771
H255	H	0.118474	0.073318	-0.154960
H256	H	0.618474	0.573318	0.345040
H257	H	0.226223	0.074614	-0.154961
H258	H	0.726223	0.574614	0.345039
H259	H	0.391687	0.076669	0.100000
H260	H	0.891687	0.576669	0.600000
H261	H	0.781959	-0.035569	0.557736
H262	H	1.281959	0.464431	1.057736
O263	O	0.673087	-0.364255	-0.169525
O264	O	1.173087	0.135745	0.330475
H265	H	0.712238	-0.342502	-0.172168
H266	H	1.212238	0.157498	0.327832
H267	H	0.601639	0.144662	0.149786
H268	H	1.101639	0.644662	0.649786
H269	H	0.743025	0.003355	0.850346
H270	H	1.243025	0.503355	1.350346
H271	H	0.391678	0.076648	-0.099889
H272	H	0.891678	0.576648	0.400111
H273	H	0.669699	-0.645333	-0.099899
H274	H	1.169699	-0.145333	0.400101
O275	O	0.591350	0.154948	0.273599
O276	O	1.091350	0.654948	0.773599
H277	H	0.563815	0.131116	0.302580
H278	H	1.063815	0.631116	0.802580
O279	O	-0.162652	0.070111	0.114582
O280	O	0.337348	0.570111	0.614582
H281	H	-0.208949	0.069594	0.105324
H282	H	0.291051	0.569594	0.605324
H283	H	-0.154773	0.070062	-0.099861
H284	H	0.345227	0.570062	0.400139
H285	H	0.499435	0.077976	0.099989
H286	H	0.999435	0.577976	0.599989
H287	H	0.676257	-0.098879	0.100020
H288	H	1.176257	0.401121	0.600020
O289	O	0.234052	0.074789	0.169647
O290	O	0.734052	0.574789	0.669647
H291	H	0.203413	0.074426	0.207945
H292	H	0.703413	0.574426	0.707945
H293	H	0.676293	-0.098874	-0.099858
H294	H	1.176293	0.401126	0.400142
H295	H	0.674980	-0.206620	-0.099871
H296	H	1.174980	0.293380	0.400129
O297	O	0.668274	-0.760952	0.114537
O298	O	1.168274	-0.260952	0.614537
H299	H	0.668634	-0.730318	0.152838
H300	H	1.168634	-0.230318	0.652838
O301	O	0.753312	-0.006936	0.726534
O302	O	1.253312	0.493064	1.226534
H303	H	0.780396	-0.034009	0.759337
H304	H	1.280396	0.465991	1.259337
O305	O	0.753279	-0.006896	0.141359
O306	O	1.253279	0.493104	0.641359
H307	H	0.780361	-0.033973	0.174159
H308	H	1.280361	0.466027	0.674159
O309	O	0.110547	0.073326	0.169621
O310	O	0.610547	0.573326	0.669621
H311	H	0.127204	0.034661	0.196093
H312	H	0.627204	0.534661	0.696093
O313	O	0.673023	-0.364251	0.169644
O314	O	1.173023	0.135749	0.669644
H315	H	0.672652	-0.394887	0.207943
H316	H	1.172652	0.105113	0.707943
O317	O	0.753294	-0.006905	0.273563
O318	O	1.253294	0.493095	0.773563
H319	H	0.780382	-0.033965	0.240751
H320	H	1.280382	0.466035	0.740751
O321	O	0.674856	-0.214502	0.114574
O322	O	1.174856	0.285498	0.614574
H323	H	0.675217	-0.183871	0.152878
H324	H	1.175217	0.316129	0.652878
