data_functionalizedCrystal
_audit_creation_method	'MofGen! by Chris Wilmer'
_symmetry_space_group_name_H-M	'P1'
_symmetry_Int_Tables_number	1
_symmetry_cell_setting	triclinic
loop_
_symmetry_equiv_pos_as_xyz
  x,y,z
_cell_length_a	13.033293
_cell_length_b	18.101397
_cell_length_c	13.032268
_cell_angle_alpha	97.143420
_cell_angle_beta	89.079182
_cell_angle_gamma	97.189579
loop_
_atom_site_label
_atom_site_type_symbol
_atom_site_fract_x
_atom_site_fract_y
_atom_site_fract_z
Zn1	Zn	1.498450	-0.230400	-0.781454
Zn2	Zn	1.998450	0.269600	-0.281454
Zn3	Zn	1.520187	-0.336824	-0.609468
Zn4	Zn	2.020187	0.163176	-0.109468
Zn5	Zn	1.348310	-0.226490	-0.587630
Zn6	Zn	1.848310	0.273510	-0.087630
Zn7	Zn	1.326436	-0.367696	-0.759504
Zn8	Zn	1.826436	0.132304	-0.259504
O9	O	1.423346	-0.290352	-0.684514
O10	O	1.923346	0.209648	-0.184514
O11	O	1.645252	-0.233234	-0.776965
O12	O	2.145252	0.266766	-0.276965
O13	O	1.515638	-0.307631	-0.462665
O14	O	2.015638	0.192369	0.037335
O15	O	1.368284	-0.123374	-0.613388
O16	O	1.868284	0.376626	-0.113388
O17	O	1.661223	-0.311423	-0.650608
O18	O	2.161223	0.188577	-0.150608
O19	O	1.478591	-0.126248	-0.755790
O20	O	1.978591	0.373752	-0.255790
O21	O	1.389361	-0.226569	-0.446621
O22	O	1.889361	0.273431	0.053379
O23	O	1.201489	-0.256504	-0.592105
O24	O	1.701489	0.243496	-0.092105
O25	O	1.331002	-0.364040	-0.906323
O26	O	1.831002	0.135960	-0.406323
O27	O	1.185418	-0.360248	-0.718380
O28	O	1.685418	0.139752	-0.218380
O29	O	1.457380	-0.263169	-0.922449
O30	O	1.957380	0.236831	-0.422449
O31	O	1.494428	-0.444553	-0.629324
O32	O	1.994428	0.055447	-0.129324
O33	O	1.352080	-0.467234	-0.739555
O34	O	1.852080	0.032766	-0.239555
C35	C	1.156137	-0.311302	-0.650491
C36	C	1.656137	0.188698	-0.150491
C37	C	1.041821	-0.320285	-0.635960
C38	C	1.541821	0.179715	-0.135960
C39	C	0.982941	-0.285683	-0.692098
C40	C	1.482941	0.214317	-0.192098
C41	C	0.864789	-0.294966	-0.677081
C42	C	1.364789	0.205034	-0.177081
C43	C	1.423264	-0.482765	-0.684453
C44	C	1.923264	0.017235	-0.184453
C45	C	1.423319	-0.565076	-0.684473
C46	C	1.923319	-0.065076	-0.184473
C47	C	1.423438	-0.864166	-0.684584
C48	C	1.923438	-0.364166	-0.184584
C49	C	1.512805	-0.818535	-0.614989
C50	C	2.012805	-0.318535	-0.114989
C51	C	1.513053	-0.732916	-0.615230
C52	C	2.013053	-0.232916	-0.115230
C53	C	1.423379	-0.715784	-0.684528
C54	C	1.923379	-0.215784	-0.184528
C55	C	1.438988	-0.755473	-0.796660
C56	C	1.938988	-0.255473	-0.296660
C57	C	1.439656	-0.841025	-0.796304
C58	C	1.939656	-0.341025	-0.296304
C59	C	1.318132	-0.838399	-0.642959
C60	C	1.818132	-0.338399	-0.142959
C61	C	1.318977	-0.752462	-0.640608
C62	C	1.818977	-0.252462	-0.140608
C63	C	1.423343	-0.631925	-0.684503
C64	C	1.923343	-0.131925	-0.184503
C65	C	1.423476	-0.948025	-0.684617
C66	C	1.923476	-0.448025	-0.184617
C67	C	1.691598	-0.269321	-0.718671
C68	C	2.191598	0.230679	-0.218671
C69	C	1.805911	-0.260359	-0.733226
C70	C	2.305911	0.239641	-0.233226
C71	C	1.389326	-0.317484	-0.952743
C72	C	1.889326	0.182516	-0.452743
C73	C	1.374829	-0.329047	-1.067046
C74	C	1.874829	0.170953	-0.567046
C75	C	1.423453	-0.097189	-0.684602
C76	C	1.923453	0.402811	-0.184602
C77	C	1.423498	-0.014874	-0.684639
C78	C	1.923498	0.485126	-0.184639
C79	C	1.430896	-0.284293	-1.125985
C80	C	1.930896	0.215707	-0.625985
C81	C	1.415914	-0.296242	-1.244123
C82	C	1.915914	0.203758	-0.744123
C83	C	1.457291	-0.263268	-0.417337
C84	C	1.957291	0.236732	0.082663
C85	C	1.471988	-0.251481	-0.303060
C86	C	1.971988	0.248519	0.196940
H87	H	1.504884	-0.705250	-0.532519
H88	H	2.004884	-0.205250	-0.032519
H89	H	1.531078	-0.204313	-1.266064
H90	H	2.031078	0.295687	-0.766064
H91	H	1.020003	-0.249183	-0.751273
H92	H	1.520003	0.250817	-0.251273
Cl93	Cl	0.807583	-0.351314	-0.585700
Cl94	Cl	1.307583	0.148686	-0.085700
H95	H	0.842967	-0.223856	-0.792405
H96	H	1.342967	0.276144	-0.292405
H97	H	1.504888	-0.832432	-0.532065
H98	H	2.004888	-0.332432	-0.032065
Cl99	Cl	1.300411	-0.711381	-0.513102
Cl100	Cl	1.800411	-0.211381	-0.013102
H101	H	1.004759	-0.356780	-0.576779
H102	H	1.504759	0.143220	-0.076779
H103	H	1.376664	-0.872307	-0.850694
H104	H	1.876664	-0.372307	-0.350694
H105	H	1.590675	-0.835554	-0.643357
H106	H	2.090675	-0.335554	-0.143357
H107	H	1.301271	-0.854284	-0.561889
H108	H	1.801271	-0.354284	-0.061889
H109	H	1.591337	-0.707910	-0.643866
H110	H	2.091337	-0.207910	-0.143866
H111	H	1.249925	-0.741410	-0.686476
H112	H	1.749925	-0.241410	-0.186476
Cl113	Cl	1.283587	-0.401859	-1.124163
Cl114	Cl	1.783587	0.098141	-0.624163
H115	H	1.375290	-0.745683	-0.850503
H116	H	1.875290	-0.245683	-0.350503
Cl117	Cl	1.557866	-0.865827	-0.848255
Cl118	Cl	2.057866	-0.365827	-0.348255
H119	H	1.514611	-0.730218	-0.830595
H120	H	2.014611	-0.230218	-0.330595
H121	H	1.251716	-0.869180	-0.693480
H122	H	1.751716	-0.369180	-0.193480
Cl123	Cl	1.522106	-0.211460	-1.068863
Cl124	Cl	2.022106	0.288540	-0.568863
H125	H	1.356811	-0.343402	-1.281119
H126	H	1.856811	0.156598	-0.781119
