data_functionalizedCrystal
_audit_creation_method	'MofGen! by Chris Wilmer'
_symmetry_space_group_name_H-M	'P1'
_symmetry_Int_Tables_number	1
_symmetry_cell_setting	triclinic
loop_
_symmetry_equiv_pos_as_xyz
  x,y,z
_cell_length_a	21.295419
_cell_length_b	29.839133
_cell_length_c	21.295412
_cell_angle_alpha	89.980908
_cell_angle_beta	89.976510
_cell_angle_gamma	90.044403
loop_
_atom_site_label
_atom_site_type_symbol
_atom_site_fract_x
_atom_site_fract_y
_atom_site_fract_z
Zn1	Zn	0.962353	-0.178687	-0.355962
Zn2	Zn	1.212353	0.071313	-0.105962
Zn3	Zn	1.462353	0.321313	0.144038
Zn4	Zn	1.712353	0.571313	0.394038
Zn5	Zn	0.962259	-0.253814	-0.250708
Zn6	Zn	1.212259	-0.003814	-0.000708
Zn7	Zn	1.462259	0.246186	0.249292
Zn8	Zn	1.712259	0.496186	0.499292
Zn9	Zn	0.857078	-0.178719	-0.250707
Zn10	Zn	1.107078	0.071281	-0.000707
Zn11	Zn	1.357078	0.321281	0.249293
Zn12	Zn	1.607078	0.571281	0.499293
Zn13	Zn	0.857047	-0.253810	-0.355940
Zn14	Zn	1.107047	-0.003810	-0.105940
Zn15	Zn	1.357047	0.246190	0.144060
Zn16	Zn	1.607047	0.496190	0.394060
O17	O	0.909684	-0.216258	-0.303329
O18	O	1.159684	0.033742	-0.053329
O19	O	1.409684	0.283742	0.196671
O20	O	1.659684	0.533742	0.446671
O21	O	1.050430	-0.188641	-0.342009
O22	O	1.300430	0.061359	-0.092009
O23	O	1.550430	0.311359	0.157991
O24	O	1.800430	0.561359	0.407991
O25	O	0.948280	-0.243868	-0.162619
O26	O	1.198280	0.006132	0.087381
O27	O	1.448280	0.256132	0.337381
O28	O	1.698280	0.506132	0.587381
O29	O	0.871095	-0.115847	-0.264677
O30	O	1.121095	0.134153	-0.014677
O31	O	1.371095	0.384153	0.235323
O32	O	1.621095	0.634153	0.485323
O33	O	1.050361	-0.243837	-0.264680
O34	O	1.300361	0.006163	-0.014680
O35	O	1.550361	0.256163	0.235320
O36	O	1.800361	0.506163	0.485320
O37	O	0.948440	-0.115824	-0.342008
O38	O	1.198440	0.134176	-0.092008
O39	O	1.448440	0.384176	0.157992
O40	O	1.698440	0.634176	0.407992
O41	O	0.871004	-0.188695	-0.162618
O42	O	1.121004	0.061305	0.087382
O43	O	1.371004	0.311305	0.337382
O44	O	1.621004	0.561305	0.587382
O45	O	0.768985	-0.188691	-0.264657
O46	O	1.018985	0.061309	-0.014657
O47	O	1.268985	0.311309	0.235343
O48	O	1.518985	0.561309	0.485343
O49	O	0.871043	-0.243830	-0.444032
O50	O	1.121043	0.006170	-0.194032
O51	O	1.371043	0.256170	0.055968
O52	O	1.621043	0.506170	0.305968
O53	O	0.768962	-0.243861	-0.341971
O54	O	1.018962	0.006139	-0.091971
O55	O	1.268962	0.256139	0.158029
O56	O	1.518962	0.506139	0.408029
O57	O	0.948410	-0.188637	-0.444048
O58	O	1.198410	0.061363	-0.194048
O59	O	1.448410	0.311363	0.055952
O60	O	1.698410	0.561363	0.305952
O61	O	0.948250	-0.316681	-0.264659
O62	O	1.198250	-0.066681	-0.014659
O63	O	1.448250	0.183319	0.235341
O64	O	1.698250	0.433319	0.485341
O65	O	0.870952	-0.316678	-0.341973
O66	O	1.120952	-0.066678	-0.091973
O67	O	1.370952	0.183322	0.158027
O68	O	1.620952	0.433322	0.408027
C69	C	0.746133	-0.216279	-0.303312
C70	C	0.996133	0.033721	-0.053312
C71	C	1.246133	0.283721	0.196688
C72	C	1.496133	0.533721	0.446688
C73	C	0.676165	-0.216299	-0.303319
C74	C	0.926165	0.033701	-0.053319
C75	C	1.176165	0.283701	0.196681
C76	C	1.426165	0.533701	0.446681
C77	C	0.643356	-0.187606	-0.343647
C78	C	0.893356	0.062394	-0.093647
C79	C	1.143356	0.312394	0.156353
C80	C	1.393356	0.562394	0.406353
C81	C	0.577614	-0.187594	-0.343649
C82	C	0.827614	0.062406	-0.093649
C83	C	1.077614	0.312406	0.156351
C84	C	1.327614	0.562406	0.406351
C85	C	0.544682	-0.216283	-0.303330
C86	C	0.794682	0.033717	-0.053330
C87	C	1.044682	0.283717	0.196670
C88	C	1.294682	0.533717	0.446670
C89	C	0.577498	-0.244978	-0.262995
C90	C	0.827498	0.005022	-0.012995
C91	C	1.077498	0.255022	0.237005
C92	C	1.327498	0.505022	0.487005
C93	C	0.643240	-0.244987	-0.262989
C94	C	0.893240	0.005013	-0.012989
C95	C	1.143240	0.255013	0.237011
C96	C	1.393240	0.505013	0.487011
N97	N	0.441408	-0.255591	-0.298422
N98	N	0.691408	-0.005591	-0.048422
N99	N	0.941408	0.244409	0.201578
N100	N	1.191408	0.494409	0.451578
N101	N	0.378956	-0.255582	-0.298431
N102	N	0.628956	-0.005582	-0.048431
N103	N	0.878956	0.244418	0.201569
N104	N	1.128956	0.494418	0.451569
C105	C	0.346607	-0.216260	-0.303344
C106	C	0.596607	0.033740	-0.053344
C107	C	0.846607	0.283740	0.196656
C108	C	1.096607	0.533740	0.446656
N109	N	0.379069	-0.176946	-0.308261
N110	N	0.629069	0.073054	-0.058261
N111	N	0.879069	0.323054	0.191739
N112	N	1.129069	0.573054	0.441739
N113	N	0.441527	-0.176956	-0.308255
N114	N	0.691527	0.073044	-0.058255
N115	N	0.941527	0.323044	0.191745
N116	N	1.191527	0.573044	0.441745
C117	C	0.473397	-0.216277	-0.303332
C118	C	0.723397	0.033723	-0.053332
C119	C	0.973397	0.283723	0.196668
C120	C	1.223397	0.533723	0.446668
C121	C	0.242514	-0.187551	-0.343677
C122	C	0.492514	0.062449	-0.093677
C123	C	0.742514	0.312449	0.156323
C124	C	0.992514	0.562449	0.406323
C125	C	0.176770	-0.187538	-0.343675
C126	C	0.426770	0.062462	-0.093675
C127	C	0.676770	0.312462	0.156325
C128	C	0.926770	0.562462	0.406325
C129	C	0.176656	-0.244927	-0.263024
C130	C	0.426656	0.005073	-0.013024
C131	C	0.676656	0.255073	0.236976
C132	C	0.926656	0.505073	0.486976
C133	C	0.242398	-0.244936	-0.263023
C134	C	0.492398	0.005064	-0.013023
C135	C	0.742398	0.255064	0.236977
C136	C	0.992398	0.505064	0.486977
C137	C	0.275323	-0.216248	-0.303352
C138	C	0.525323	0.033752	-0.053352
C139	C	0.775323	0.283752	0.196648
C140	C	1.025323	0.533752	0.446648
C141	C	0.909604	-0.332980	-0.303327
C142	C	1.159604	-0.082980	-0.053327
C143	C	1.409604	0.167020	0.196673
C144	C	1.659604	0.417020	0.446673
C145	C	0.909628	-0.382915	-0.303348
C146	C	1.159628	-0.132915	-0.053348
C147	C	1.409628	0.117085	0.196652
C148	C	1.659628	0.367085	0.446652
C149	C	0.949981	-0.739455	-0.343641
C150	C	1.199981	-0.489455	-0.093641
C151	C	1.449981	-0.239455	0.156359
C152	C	1.699981	0.010545	0.406359
C153	C	0.949921	-0.551782	-0.343641
C154	C	1.199921	-0.301782	-0.093641
C155	C	1.449921	-0.051782	0.156359
C156	C	1.699921	0.198218	0.406359
O157	O	0.984150	-0.527477	-0.377890
O158	O	1.234150	-0.277477	-0.127890
O159	O	1.484150	-0.027477	0.122110
O160	O	1.734150	0.222523	0.372110
N161	N	0.909678	-0.528360	-0.303346
N162	N	1.159678	-0.278360	-0.053346
N163	N	1.409678	-0.028360	0.196654
N164	N	1.659678	0.221640	0.446654
C165	C	0.869449	-0.551859	-0.263046
C166	C	1.119449	-0.301859	-0.013046
C167	C	1.369449	-0.051859	0.236954
C168	C	1.619449	0.198141	0.486954
O169	O	0.835222	-0.527631	-0.228769
O170	O	1.085222	-0.277631	0.021231
O171	O	1.335222	-0.027631	0.271231
O172	O	1.585222	0.222369	0.521231
C173	C	0.869512	-0.739531	-0.263044
C174	C	1.119512	-0.489531	-0.013044
C175	C	1.369512	-0.239531	0.236956
C176	C	1.619512	0.010469	0.486956
C177	C	0.909754	-0.762951	-0.303346
C178	C	1.159754	-0.512951	-0.053346
C179	C	1.409754	-0.262951	0.196654
C180	C	1.659754	-0.012951	0.446654
C181	C	0.990220	-0.762874	-0.383939
C182	C	1.240220	-0.512874	-0.133939
C183	C	1.490220	-0.262874	0.116061
C184	C	1.740220	-0.012874	0.366061
C185	C	0.990232	-0.809790	-0.383941
C186	C	1.240232	-0.559790	-0.133941
C187	C	1.490232	-0.309790	0.116059
C188	C	1.740232	-0.059790	0.366059
C189	C	0.950005	-0.833286	-0.343646
C190	C	1.200005	-0.583286	-0.093646
C191	C	1.450005	-0.333286	0.156354
C192	C	1.700005	-0.083286	0.406354
C193	C	0.909766	-0.809866	-0.303348
C194	C	1.159766	-0.559866	-0.053348
C195	C	1.409766	-0.309866	0.196652
C196	C	1.659766	-0.059866	0.446652
C197	C	0.829287	-0.763029	-0.222742
C198	C	1.079287	-0.513029	0.027258
C199	C	1.329287	-0.263029	0.277258
C200	C	1.579287	-0.013029	0.527258
C201	C	0.829307	-0.809950	-0.222744
C202	C	1.079307	-0.559950	0.027256
C203	C	1.329307	-0.309950	0.277256
C204	C	1.579307	-0.059950	0.527256
C205	C	0.869549	-0.833370	-0.263045
C206	C	1.119549	-0.583370	-0.013045
C207	C	1.369549	-0.333370	0.236955
C208	C	1.619549	-0.083370	0.486955
C209	C	0.869551	-0.880277	-0.263055
C210	C	1.119551	-0.630277	-0.013055
C211	C	1.369551	-0.380277	0.236945
C212	C	1.619551	-0.130277	0.486945
N213	N	0.909795	-0.903699	-0.303349
N214	N	1.159795	-0.653699	-0.053349
N215	N	1.409795	-0.403699	0.196651
N216	N	1.659795	-0.153699	0.446651
C217	C	0.950022	-0.880203	-0.343645
C218	C	1.200022	-0.630203	-0.093645
C219	C	1.450022	-0.380203	0.156355
C220	C	1.700022	-0.130203	0.406355
C221	C	0.869417	-0.453328	-0.263051
C222	C	1.119417	-0.203328	-0.013051
C223	C	1.369417	0.046672	0.236949
C224	C	1.619417	0.296672	0.486949
C225	C	0.869401	-0.406410	-0.263052
C226	C	1.119401	-0.156410	-0.013052
C227	C	1.369401	0.093590	0.236948
C228	C	1.619401	0.343590	0.486948
C229	C	0.949874	-0.406336	-0.343646
C230	C	1.199874	-0.156336	-0.093646
C231	C	1.449874	0.093664	0.156354
C232	C	1.699874	0.343664	0.406354
C233	C	0.949888	-0.453255	-0.343647
C234	C	1.199888	-0.203255	-0.093647
C235	C	1.449888	0.046745	0.156353
C236	C	1.699888	0.296745	0.406353
C237	C	0.909661	-0.476750	-0.303345
C238	C	1.159661	-0.226750	-0.053345
C239	C	1.409661	0.023250	0.196655
C240	C	1.659661	0.273250	0.446655
C241	C	0.950044	-0.978729	-0.343647
C242	C	1.200044	-0.728729	-0.093647
C243	C	1.450044	-0.478729	0.156353
C244	C	1.700044	-0.228729	0.406353
C245	C	0.950050	-1.025649	-0.343647
C246	C	1.200050	-0.775649	-0.093647
C247	C	1.450050	-0.525649	0.156353
C248	C	1.700050	-0.275649	0.406353
C249	C	0.869579	-1.025719	-0.263051
C250	C	1.119579	-0.775719	-0.013051
C251	C	1.369579	-0.525719	0.236949
C252	C	1.619579	-0.275719	0.486949
C253	C	0.869570	-0.978803	-0.263053
C254	C	1.119570	-0.728803	-0.013053
C255	C	1.369570	-0.478803	0.236947
C256	C	1.619570	-0.228803	0.486947
C257	C	0.909807	-0.955310	-0.303353
C258	C	1.159807	-0.705310	-0.053353
C259	C	1.409807	-0.455310	0.196647
C260	C	1.659807	-0.205310	0.446647
O261	O	0.835346	-0.904611	-0.228818
O262	O	1.085346	-0.654611	0.021182
O263	O	1.335346	-0.404611	0.271182
O264	O	1.585346	-0.154611	0.521182
O265	O	0.984253	-0.904439	-0.377907
O266	O	1.234253	-0.654439	-0.127907
O267	O	1.484253	-0.404439	0.122093
O268	O	1.734253	-0.154439	0.372093
C269	C	0.949969	-0.692539	-0.343639
C270	C	1.199969	-0.442539	-0.093639
C271	C	1.449969	-0.192539	0.156361
C272	C	1.699969	0.057461	0.406361
C273	C	0.909730	-0.669120	-0.303341
C274	C	1.159730	-0.419120	-0.053341
C275	C	1.409730	-0.169120	0.196659
C276	C	1.659730	0.080880	0.446659
C277	C	0.869503	-0.692616	-0.263046
C278	C	1.119503	-0.442616	-0.013046
C279	C	1.369503	-0.192616	0.236954
C280	C	1.619503	0.057384	0.486954
C281	C	0.909713	-0.622202	-0.303343
C282	C	1.159713	-0.372202	-0.053343
C283	C	1.409713	-0.122202	0.196657
C284	C	1.659713	0.127798	0.446657
C285	C	0.949940	-0.598706	-0.343638
C286	C	1.199940	-0.348706	-0.093638
C287	C	1.449940	-0.098706	0.156362
C288	C	1.699940	0.151294	0.406362
C289	C	0.990184	-0.622128	-0.383932
C290	C	1.240184	-0.372128	-0.133932
C291	C	1.490184	-0.122128	0.116068
C292	C	1.740184	0.127872	0.366068
C293	C	0.990196	-0.669043	-0.383935
C294	C	1.240196	-0.419043	-0.133935
C295	C	1.490196	-0.169043	0.116065
C296	C	1.740196	0.080957	0.366065
C297	C	0.829259	-0.669194	-0.222752
C298	C	1.079259	-0.419194	0.027248
C299	C	1.329259	-0.169194	0.277248
C300	C	1.579259	0.080806	0.527248
C301	C	0.829249	-0.622278	-0.222753
C302	C	1.079249	-0.372278	0.027247
C303	C	1.329249	-0.122278	0.277247
C304	C	1.579249	0.127722	0.527247
C305	C	0.869477	-0.598782	-0.263049
C306	C	1.119477	-0.348782	-0.013049
C307	C	1.369477	-0.098782	0.236951
C308	C	1.619477	0.151218	0.486951
C309	C	1.073875	-0.216236	-0.303347
C310	C	1.323875	0.033764	-0.053347
C311	C	1.573875	0.283764	0.196653
C312	C	1.823875	0.533764	0.446653
C313	C	1.143843	-0.216227	-0.303355
C314	C	1.393843	0.033773	-0.053355
C315	C	1.643843	0.283773	0.196645
C316	C	1.893843	0.533773	0.446645
C317	C	0.909734	-0.216230	-0.467520
C318	C	1.159734	0.033770	-0.217520
C319	C	1.409734	0.283770	0.032480
C320	C	1.659734	0.533770	0.282480
C321	C	0.909755	-0.216218	-0.537488
C322	C	1.159755	0.033782	-0.287488
C323	C	1.409755	0.283782	-0.037488
C324	C	1.659755	0.533782	0.212512
C325	C	0.909782	-0.099079	-0.303345
C326	C	1.159782	0.150921	-0.053345
C327	C	1.409782	0.400921	0.196655
C328	C	1.659782	0.650921	0.446655
C329	C	0.909823	-0.049145	-0.303352
C330	C	1.159823	0.200855	-0.053352
C331	C	1.409823	0.450855	0.196648
C332	C	1.659823	0.700855	0.446648
C333	C	0.869528	-0.187486	-0.570344
C334	C	1.119528	0.062514	-0.320344
C335	C	1.369528	0.312514	-0.070344
C336	C	1.619528	0.562514	0.179656
C337	C	0.869526	-0.187478	-0.636086
C338	C	1.119526	0.062522	-0.386086
C339	C	1.369526	0.312522	-0.136086
C340	C	1.619526	0.562522	0.113914
C341	C	0.909761	-0.216196	-0.668970
C342	C	1.159761	0.033804	-0.418970
C343	C	1.409761	0.283804	-0.168970
C344	C	1.659761	0.533804	0.081030
C345	C	0.949991	-0.244933	-0.636106
C346	C	1.199991	0.005067	-0.386106
C347	C	1.449991	0.255067	-0.136106
C348	C	1.699991	0.505067	0.113894
C349	C	0.949988	-0.244944	-0.570365
C350	C	1.199988	0.005056	-0.320365
C351	C	1.449988	0.255056	-0.070365
C352	C	1.699988	0.505056	0.179635
N353	N	0.964866	-0.219617	-0.772209
N354	N	1.214866	0.030383	-0.522209
N355	N	1.464866	0.280383	-0.272209
N356	N	1.714866	0.530383	-0.022209
N357	N	0.964867	-0.219604	-0.834661
N358	N	1.214867	0.030396	-0.584661
N359	N	1.464867	0.280396	-0.334661
N360	N	1.714867	0.530396	-0.084661
C361	C	0.909773	-0.216166	-0.867045
C362	C	1.159773	0.033834	-0.617045
C363	C	1.409773	0.283834	-0.367045
C364	C	1.659773	0.533834	-0.117045
N365	N	0.854676	-0.212733	-0.834619
N366	N	1.104676	0.037267	-0.584619
N367	N	1.354676	0.287267	-0.334619
N368	N	1.604676	0.537267	-0.084619
N369	N	0.854675	-0.212743	-0.772161
N370	N	1.104675	0.037257	-0.522161
N371	N	1.354675	0.287257	-0.272161
N372	N	1.604675	0.537257	-0.022161
C373	C	0.909769	-0.216188	-0.740256
C374	C	1.159769	0.033812	-0.490256
C375	C	1.409769	0.283812	-0.240256
C376	C	1.659769	0.533812	0.009744
C377	C	0.869540	-0.187424	-0.971187
C378	C	1.119540	0.062576	-0.721187
C379	C	1.369540	0.312576	-0.471187
C380	C	1.619540	0.562576	-0.221187
C381	C	0.869537	-0.187419	-1.036931
C382	C	1.119537	0.062581	-0.786931
C383	C	1.369537	0.312581	-0.536931
C384	C	1.619537	0.562581	-0.286931
C385	C	0.950008	-0.244872	-1.036949
C386	C	1.200008	0.005128	-0.786949
C387	C	1.450008	0.255128	-0.536949
C388	C	1.700008	0.505128	-0.286949
C389	C	0.950006	-0.244880	-0.971207
C390	C	1.200006	0.005120	-0.721207
C391	C	1.450006	0.255120	-0.471207
C392	C	1.700006	0.505120	-0.221207
C393	C	0.909773	-0.216153	-0.938329
C394	C	1.159773	0.033847	-0.688329
C395	C	1.409773	0.283847	-0.438329
C396	C	1.659773	0.533847	-0.188329
C397	C	0.909672	-0.216253	-0.139778
C398	C	1.159672	0.033747	0.110222
C399	C	1.409672	0.283747	0.360222
C400	C	1.659672	0.533747	0.610222
C401	C	0.909773	-0.216138	-0.069810
C402	C	1.159773	0.033862	0.180190
C403	C	1.409773	0.283862	0.430190
C404	C	1.659773	0.533862	0.680190
H405	H	0.269111	-0.268303	-0.230186
H406	H	0.519111	-0.018303	0.019814
H407	H	0.769111	0.231697	0.269814
H408	H	1.019111	0.481697	0.519814
Br409	Br	0.533078	-0.148648	-0.398381
Br410	Br	0.783078	0.101352	-0.148381
Br411	Br	1.033078	0.351352	0.101619
Br412	Br	1.283078	0.601352	0.351619
Br413	Br	1.004504	-0.485034	-0.398343
Br414	Br	1.254504	-0.235034	-0.148343
Br415	Br	1.504504	0.014966	0.101657
Br416	Br	1.754504	0.264966	0.351657
H417	H	0.836775	-0.164024	-1.063681
H418	H	1.086775	0.085976	-0.813681
H419	H	1.336775	0.335976	-0.563681
H420	H	1.586775	0.585976	-0.313681
Br421	Br	0.814924	-0.148502	-0.525727
Br422	Br	1.064924	0.101498	-0.275727
Br423	Br	1.314924	0.351498	-0.025727
Br424	Br	1.564924	0.601498	0.224273
H425	H	0.982751	-0.268316	-0.662884
H426	H	1.232751	-0.018316	-0.412884
H427	H	1.482751	0.231684	-0.162884
H428	H	1.732751	0.481684	0.087116
H429	H	0.836826	-1.044858	-0.230245
H430	H	1.086826	-0.794858	0.019755
H431	H	1.336826	-0.544858	0.269755
H432	H	1.586826	-0.294858	0.519755
Br433	Br	1.004470	-0.374440	-0.398331
Br434	Br	1.254470	-0.124440	-0.148331
Br435	Br	1.504470	0.125560	0.101669
Br436	Br	1.754470	0.375560	0.351669
H437	H	0.982765	-0.268275	-0.944455
H438	H	1.232765	-0.018275	-0.694455
H439	H	1.482765	0.231725	-0.444455
H440	H	1.732765	0.481725	-0.194455
Br441	Br	0.532807	-0.283911	-0.208272
Br442	Br	0.782807	-0.033911	0.041728
Br443	Br	1.032807	0.216089	0.291728
Br444	Br	1.282807	0.466089	0.541728
H445	H	1.022936	-0.602990	-0.416745
H446	H	1.272936	-0.352990	-0.166745
H447	H	1.522936	-0.102990	0.083255
H448	H	1.772936	0.147010	0.333255
H449	H	1.022965	-0.688107	-0.416753
H450	H	1.272965	-0.438107	-0.166753
H451	H	1.522965	-0.188107	0.083247
H452	H	1.772965	0.061893	0.333247
Br453	Br	1.004664	-1.057430	-0.398350
Br454	Br	1.254664	-0.807430	-0.148350
Br455	Br	1.504664	-0.557430	0.101650
Br456	Br	1.754664	-0.307430	0.351650
Br457	Br	1.004585	-0.283940	-0.525771
Br458	Br	1.254585	-0.033940	-0.275771
Br459	Br	1.504585	0.216060	-0.025771
Br460	Br	1.754585	0.466060	0.224229
H461	H	0.669952	-0.268353	-0.230149
H462	H	0.919952	-0.018353	0.019851
H463	H	1.169952	0.231647	0.269851
H464	H	1.419952	0.481647	0.519851
Br465	Br	0.774663	-0.731258	-0.168049
Br466	Br	1.024663	-0.481258	0.081951
Br467	Br	1.274663	-0.231258	0.331951
Br468	Br	1.524663	0.018742	0.581951
Br469	Br	0.287202	-0.148616	-0.398404
Br470	Br	0.537202	0.101384	-0.148404
Br471	Br	0.787202	0.351384	0.101596
Br472	Br	1.037202	0.601384	0.351596
Br473	Br	1.004652	-0.946852	-0.398339
Br474	Br	1.254652	-0.696852	-0.148339
Br475	Br	1.504652	-0.446852	0.101661
Br476	Br	1.754652	-0.196852	0.351661
H477	H	0.149843	-0.268286	-0.230196
H478	H	0.399843	-0.018286	0.019804
H479	H	0.649843	0.231714	0.269804
H480	H	0.899843	0.481714	0.519804
H481	H	0.836780	-0.164034	-0.944417
H482	H	1.086780	0.085966	-0.694417
H483	H	1.336780	0.335966	-0.444417
H484	H	1.586780	0.585966	-0.194417
Br485	Br	0.132243	-0.148590	-0.398406
Br486	Br	0.382243	0.101410	-0.148406
Br487	Br	0.632243	0.351410	0.101594
Br488	Br	0.882243	0.601410	0.351594
Br489	Br	1.004609	-0.283853	-1.081570
Br490	Br	1.254609	-0.033853	-0.831570
Br491	Br	1.504609	0.216147	-0.581570
Br492	Br	1.754609	0.466147	-0.331570
H493	H	0.670160	-0.164246	-0.376486
H494	H	0.920160	0.085754	-0.126486
H495	H	1.170160	0.335754	0.123514
H496	H	1.420160	0.585754	0.373514
Br497	Br	1.044847	-0.841566	-0.438642
Br498	Br	1.294847	-0.591566	-0.188642
Br499	Br	1.544847	-0.341566	0.061358
Br500	Br	1.794847	-0.091566	0.311358
Br501	Br	1.044822	-0.730996	-0.438633
Br502	Br	1.294822	-0.480996	-0.188633
Br503	Br	1.544822	-0.230996	0.061367
Br504	Br	1.794822	0.019004	0.311367
H505	H	0.836795	-0.959735	-0.230242
H506	H	1.086795	-0.709735	0.019758
H507	H	1.336795	-0.459735	0.269758
H508	H	1.586795	-0.209735	0.519758
H509	H	0.796474	-0.603213	-0.189936
H510	H	1.046474	-0.353213	0.060064
H511	H	1.296474	-0.103213	0.310064
H512	H	1.546474	0.146787	0.560064
Br513	Br	0.814772	-0.374633	-0.208368
Br514	Br	1.064772	-0.124633	0.041632
Br515	Br	1.314772	0.125367	0.291632
Br516	Br	1.564772	0.375367	0.541632
H517	H	0.836658	-0.472454	-0.230231
H518	H	1.086658	-0.222454	0.019769
H519	H	1.336658	0.027546	0.269769
H520	H	1.586658	0.277546	0.519769
H521	H	0.796550	-0.829078	-0.189923
H522	H	1.046550	-0.579078	0.060077
H523	H	1.296550	-0.329078	0.310077
H524	H	1.546550	-0.079078	0.560077
H525	H	0.796501	-0.688319	-0.189936
H526	H	1.046501	-0.438319	0.060064
H527	H	1.296501	-0.188319	0.310064
H528	H	1.546501	0.061681	0.560064
Br529	Br	0.814942	-0.148472	-0.680687
Br530	Br	1.064942	0.101528	-0.430687
Br531	Br	1.314942	0.351528	-0.180687
Br532	Br	1.564942	0.601528	0.069313
