data_functionalizedCrystal
_audit_creation_method	'MofGen! by Chris Wilmer'
_symmetry_space_group_name_H-M	'P1'
_symmetry_Int_Tables_number	1
_symmetry_cell_setting	triclinic
loop_
_symmetry_equiv_pos_as_xyz
  x,y,z
_cell_length_a	11.169417
_cell_length_b	16.120484
_cell_length_c	11.169409
_cell_angle_alpha	92.860826
_cell_angle_beta	89.979436
_cell_angle_gamma	92.926269
loop_
_atom_site_label
_atom_site_type_symbol
_atom_site_fract_x
_atom_site_fract_y
_atom_site_fract_z
Zn1	Zn	1.810625	-0.331819	-0.702705
Zn2	Zn	2.143958	0.001515	-0.369372
Zn3	Zn	2.477291	0.334848	-0.036039
Zn4	Zn	1.800280	-0.471262	-0.512176
Zn5	Zn	2.133614	-0.137928	-0.178843
Zn6	Zn	2.466947	0.195405	0.154490
Zn7	Zn	1.609904	-0.331869	-0.502043
Zn8	Zn	1.943238	0.001464	-0.168710
Zn9	Zn	2.276571	0.334797	0.164623
Zn10	Zn	1.599692	-0.471194	-0.712816
Zn11	Zn	1.933025	-0.137861	-0.379483
Zn12	Zn	2.266359	0.195473	-0.046149
O13	O	1.705125	-0.401536	-0.607435
O14	O	2.038459	-0.068203	-0.274102
O15	O	2.371792	0.265131	0.059231
O16	O	1.977202	-0.350323	-0.677440
O17	O	2.310535	-0.016990	-0.344107
O18	O	2.643868	0.316343	-0.010774
O19	O	1.774971	-0.452820	-0.342886
O20	O	2.108305	-0.119487	-0.009553
O21	O	2.441638	0.213846	0.323781
O22	O	1.645134	-0.215198	-0.520190
O23	O	1.978467	0.118136	-0.186856
O24	O	2.311800	0.451469	0.146477
O25	O	1.969602	-0.452771	-0.537460
O26	O	2.302935	-0.119438	-0.204126
O27	O	2.636268	0.213895	0.129207
O28	O	1.792602	-0.215160	-0.667615
O29	O	2.125935	0.118173	-0.334282
O30	O	2.459269	0.451506	-0.000948
O31	O	1.635103	-0.350410	-0.335441
O32	O	1.968436	-0.017076	-0.002108
O33	O	2.301770	0.316257	0.331225
O34	O	1.440601	-0.350344	-0.529994
O35	O	1.773934	-0.017011	-0.196660
O36	O	2.107267	0.316323	0.136673
O37	O	1.627728	-0.452656	-0.879421
O38	O	1.961061	-0.119323	-0.546088
O39	O	2.294395	0.214011	-0.212754
O40	O	1.433097	-0.452705	-0.684847
O41	O	1.766431	-0.119372	-0.351514
O42	O	2.099764	0.213962	-0.018181
O43	O	1.782699	-0.350258	-0.871993
O44	O	2.116033	-0.016924	-0.538659
O45	O	2.449366	0.316409	-0.205326
O46	O	1.765069	-0.587918	-0.547264
O47	O	2.098402	-0.254584	-0.213930
O48	O	2.431735	0.078749	0.119403
O49	O	1.617697	-0.587868	-0.694673
O50	O	1.951031	-0.254535	-0.361340
O51	O	2.284364	0.078799	-0.028006
C52	C	1.393302	-0.401523	-0.607419
C53	C	1.726635	-0.068190	-0.274086
C54	C	2.059968	0.265143	0.059248
C55	C	1.259901	-0.401538	-0.607442
C56	C	1.593234	-0.068205	-0.274108
C57	C	1.926567	0.265129	0.059225
C58	C	1.689185	-0.618143	-0.623191
C59	C	2.022518	-0.284809	-0.289858
C60	C	2.355852	0.048524	0.043476
C61	C	1.682475	-0.710808	-0.629972
C62	C	2.015809	-0.377475	-0.296638
C63	C	2.349142	-0.044141	0.036695
C64	C	1.670232	-0.880469	-0.642376
C65	C	2.003566	-0.547135	-0.309043
C66	C	2.336899	-0.213802	0.024291
C67	C	1.740233	-0.921763	-0.572514
C68	C	2.073567	-0.588429	-0.239181
C69	C	2.406900	-0.255096	0.094152
C70	C	1.733421	-1.016168	-0.579416
C71	C	2.066755	-0.682834	-0.246083
C72	C	2.400088	-0.349501	0.087251
C73	C	1.677043	-0.786055	-0.635476
C74	C	2.010376	-0.452722	-0.302142
C75	C	2.343709	-0.119388	0.031191
C76	C	2.018167	-0.401549	-0.607452
C77	C	2.351500	-0.068216	-0.274119
C78	C	2.684833	0.265117	0.059214
C79	C	2.151566	-0.401555	-0.607460
C80	C	2.484900	-0.068222	-0.274126
C81	C	2.818233	0.265112	0.059207
C82	C	1.705228	-0.401444	-0.920471
C83	C	2.038562	-0.068110	-0.587138
C84	C	2.371895	0.265223	-0.253804
C85	C	1.705272	-0.401404	-1.053868
C86	C	2.038606	-0.068071	-0.720535
C87	C	2.371939	0.265262	-0.387202
C88	C	1.721161	-0.184083	-0.591644
C89	C	2.054494	0.149250	-0.258311
C90	C	2.387827	0.482583	0.075023
C91	C	1.727994	-0.091418	-0.584915
C92	C	2.061327	0.241915	-0.251582
C93	C	2.394661	0.575249	0.081752
C94	C	1.705096	-0.401568	-0.295613
C95	C	2.038430	-0.068234	0.037721
C96	C	2.371763	0.265099	0.371054
C97	C	1.705302	-0.401372	-0.162199
C98	C	2.038635	-0.068039	0.171134
C99	C	2.371969	0.265294	0.504467
H100	H	1.805278	-0.886215	-0.507520
H101	H	2.138612	-0.552882	-0.174187
H102	H	2.471945	-0.219548	0.159147
H103	H	1.605191	-0.916014	-0.707364
H104	H	1.938524	-0.582680	-0.374030
H105	H	2.271858	-0.249347	-0.040697
