data_functionalizedCrystal
_audit_creation_method	'MofGen! by Chris Wilmer'
_symmetry_space_group_name_H-M	'P1'
_symmetry_Int_Tables_number	1
_symmetry_cell_setting	triclinic
loop_
_symmetry_equiv_pos_as_xyz
  x,y,z
_cell_length_a	14.971482
_cell_length_b	14.971494
_cell_length_c	13.448316
_cell_angle_alpha	89.998062
_cell_angle_beta	89.995478
_cell_angle_gamma	83.615083
loop_
_atom_site_label
_atom_site_type_symbol
_atom_site_fract_x
_atom_site_fract_y
_atom_site_fract_z
O1	O	1.186951	0.116545	-0.082675
O2	O	0.926551	0.130507	-0.082679
O3	O	1.063727	-0.006674	-0.082675
O4	O	1.049776	0.253726	-0.082680
O5	O	1.063713	-0.006675	0.082709
O6	O	0.926537	0.130506	0.082704
O7	O	1.186937	0.116544	0.082709
Cu8	Cu	1.056736	0.123525	0.097807
Cu9	Cu	1.056752	0.123526	-0.097778
O10	O	1.049762	0.253724	0.082704
C11	C	0.893219	0.129883	0.000012
C12	C	0.793922	0.128013	0.000010
C13	C	0.747270	0.127132	0.090162
C14	C	0.653971	0.125361	0.090163
C15	C	0.607326	0.124478	0.000011
C16	C	0.653985	0.125357	-0.090148
C17	C	0.747283	0.127121	-0.090148
C18	C	0.459523	0.121681	-0.090141
C19	C	0.366219	0.119919	-0.090141
C20	C	0.366212	0.119922	0.090170
C21	C	0.459509	0.121686	0.090169
C22	C	0.506162	0.122566	0.000010
C23	C	1.063094	-0.039999	0.000015
C24	C	1.061221	-0.139296	0.000011
C25	C	1.060350	-0.185940	-0.090141
C26	C	1.058584	-0.279239	-0.090142
C27	C	1.057695	-0.325893	0.000009
C28	C	1.058563	-0.279242	0.090168
C29	C	1.060323	-0.185944	0.090168
C30	C	1.054897	-0.473705	0.090161
C31	C	1.053138	-0.567010	0.090162
C32	C	1.053158	-0.567000	-0.090149
C33	C	1.054918	-0.473702	-0.090149
C34	C	1.055787	-0.427057	0.000010
C35	C	1.220269	0.117168	0.000015
C36	C	1.319566	0.119037	0.000010
C37	C	1.050394	0.287050	0.000012
C38	C	1.052268	0.386346	0.000010
N39	N	1.056731	0.123523	0.235372
N40	N	1.056764	0.123521	-0.235342
C41	C	1.111035	0.177863	0.287408
C42	C	1.111046	0.177859	0.391511
C43	C	1.056748	0.123519	0.443576
C44	C	1.002442	0.069173	0.391533
C45	C	1.002436	0.069173	0.287432
C46	C	1.002456	0.069179	0.608513
C47	C	1.002460	0.069180	0.712622
C48	C	1.111066	0.177866	0.712592
C49	C	1.111061	0.177865	0.608491
C50	C	1.056753	0.123520	0.556455
H51	H	0.328223	0.119205	0.163580
H52	H	0.958234	0.024924	0.566149
N53	N	1.061275	-0.135635	0.187405
H54	H	1.062524	-0.069452	0.173727
H55	H	1.005559	-0.144752	0.226775
H56	H	0.328242	0.119200	-0.163551
N57	N	0.943883	0.010560	0.447692
H58	H	0.900147	0.049432	0.490886
H59	H	0.909541	-0.023859	0.398868
N60	N	0.797599	0.128066	-0.187386
H61	H	0.774174	0.183163	-0.226805
H62	H	0.863769	0.129280	-0.173628
H63	H	0.497504	0.122398	-0.163558
H64	H	0.958245	0.024933	0.755010
N65	N	0.603675	0.124412	-0.187383
H66	H	0.647389	0.125237	-0.244494
H67	H	0.572156	0.068276	-0.191311
N68	N	1.055886	-0.423380	-0.187381
H69	H	1.055067	-0.467084	-0.244497
H70	H	1.001211	-0.377477	-0.191308
N71	N	1.057747	-0.329518	-0.187405
H72	H	1.002688	-0.306101	-0.226887
H73	H	1.113536	-0.320395	-0.226642
H74	H	1.155282	0.222119	0.754965
N75	N	0.943870	0.010559	0.231302
H76	H	0.909472	-0.023865	0.280079
H77	H	0.900184	0.049483	0.188111
N78	N	1.061317	-0.135624	-0.187377
H79	H	1.060496	-0.179334	-0.244487
H80	H	1.006642	-0.089721	-0.191307
N81	N	1.169609	0.236457	0.447664
H82	H	1.213342	0.197570	0.490844
H83	H	1.203956	0.270886	0.398845
H84	H	1.052448	-0.604982	-0.163560
N85	N	1.052184	-0.617339	0.187390
H86	H	0.997079	-0.593926	0.226805
H87	H	1.050978	-0.683507	0.173611
N88	N	0.797570	0.128092	0.187402
H89	H	0.788526	0.072380	0.226817
H90	H	0.863733	0.129380	0.173646
H91	H	1.055585	-0.435727	0.163579
N92	N	1.057612	-0.329561	0.187403
H93	H	1.058430	-0.285852	0.244515
H94	H	1.001478	-0.361083	0.191332
H95	H	0.615993	0.124629	0.163574
N96	N	0.509829	0.122635	0.187398
H97	H	0.541344	0.178771	0.191411
H98	H	0.466073	0.121772	0.244460
H99	H	1.155246	0.222119	0.245023
H100	H	1.155271	0.222118	0.566102
