data_functionalizedCrystal
_audit_creation_method	'MofGen! by Chris Wilmer'
_symmetry_space_group_name_H-M	'P1'
_symmetry_Int_Tables_number	1
_symmetry_cell_setting	triclinic
loop_
_symmetry_equiv_pos_as_xyz
  x,y,z
_cell_length_a	11.169417
_cell_length_b	12.759394
_cell_length_c	11.169409
_cell_angle_alpha	90.032649
_cell_angle_beta	90.019513
_cell_angle_gamma	90.015818
loop_
_atom_site_label
_atom_site_type_symbol
_atom_site_fract_x
_atom_site_fract_y
_atom_site_fract_z
Zn1	Zn	1.834927	-0.418146	0.678530
Zn2	Zn	1.834802	-0.593872	0.477846
Zn3	Zn	1.634213	-0.418212	0.477866
Zn4	Zn	1.634206	-0.593788	0.678492
O5	O	1.734537	-0.506004	0.578183
O6	O	2.002860	-0.441465	0.651917
O7	O	1.808144	-0.570633	0.309899
O8	O	1.660894	-0.271182	0.504508
O9	O	2.002768	-0.570570	0.504475
O10	O	1.808357	-0.271134	0.651936
O11	O	1.660772	-0.441576	0.309913
O12	O	1.466262	-0.441494	0.504471
O13	O	1.660881	-0.570426	0.846447
O14	O	1.466257	-0.570489	0.651871
O15	O	1.808350	-0.441383	0.846475
O16	O	1.808137	-0.740882	0.504438
O17	O	1.660760	-0.740820	0.651852
C18	C	1.422712	-0.505990	0.578170
C19	C	1.289312	-0.506010	0.578192
C20	C	1.734466	-0.778972	0.578165
C21	C	1.734546	-0.895749	0.578197
C22	C	1.581245	-1.115408	0.424617
C23	C	1.504495	-1.060654	0.347782
C24	C	1.504427	-0.950933	0.347749
C25	C	1.581114	-0.895962	0.424561
C26	C	1.657864	-0.950716	0.501396
C27	C	1.657927	-1.060440	0.501418
C28	C	1.811296	-0.950503	0.655031
C29	C	1.811372	-1.060224	0.655060
C30	C	1.887983	-0.895532	0.731843
C31	C	1.964741	-0.950286	0.808673
C32	C	1.964807	-1.060015	0.808702
C33	C	1.888122	-1.114978	0.731894
C34	C	2.047579	-0.506019	0.578198
C35	C	2.180979	-0.506026	0.578204
C36	C	1.734629	-0.505888	0.891226
C37	C	1.734668	-0.505838	1.024626
C38	C	1.734640	-0.231971	0.578229
C39	C	1.734684	-0.115194	0.578248
C40	C	1.734514	-0.506045	0.266359
C41	C	1.734707	-0.505799	0.132959
H42	H	1.442056	-1.105423	0.285246
H43	H	1.441926	-0.906352	0.285189
C44	C	1.581032	-0.775272	0.424530
H45	H	1.524342	-0.750536	0.367768
H46	H	1.560230	-0.750412	0.501957
H47	H	1.658480	-0.750409	0.403822
C48	C	1.887912	-0.774842	0.731805
H49	H	1.831229	-0.750103	0.675037
H50	H	1.867106	-0.749975	0.809229
H51	H	1.965364	-0.749989	0.711102
C52	C	2.049086	-0.889820	0.893153
H53	H	2.038053	-0.816632	0.882128
H54	H	2.031501	-0.907760	0.973783
H55	H	2.129750	-0.907750	0.875647
C56	C	2.049237	-1.120236	0.893218
H57	H	2.094900	-1.071780	0.938948
H58	H	2.003333	-1.163039	0.945484
H59	H	2.101587	-1.163027	0.847353
H60	H	1.581303	-1.204749	0.424626
C61	C	1.888182	-1.235668	0.731939
H62	H	1.944874	-1.260409	0.788698
H63	H	1.810732	-1.260516	0.752635
H64	H	1.908995	-1.260539	0.654513
