data_functionalizedCrystal
_audit_creation_method	'MofGen! by Chris Wilmer'
_symmetry_space_group_name_H-M	'P1'
_symmetry_Int_Tables_number	1
_symmetry_cell_setting	triclinic
loop_
_symmetry_equiv_pos_as_xyz
  x,y,z
_cell_length_a	19.188930
_cell_length_b	10.654541
_cell_length_c	9.730217
_cell_angle_alpha	89.998097
_cell_angle_beta	90.008013
_cell_angle_gamma	96.185645
loop_
_atom_site_label
_atom_site_type_symbol
_atom_site_fract_x
_atom_site_fract_y
_atom_site_fract_z
O1	O	0.098052	-1.665767	0.114265
O2	O	0.107397	-1.300090	0.114279
O3	O	0.001138	-1.493481	0.114245
O4	O	0.204311	-1.472376	0.114299
O5	O	0.001138	-1.493469	-0.114335
O6	O	0.107397	-1.300078	-0.114301
O7	O	0.098052	-1.665754	-0.114315
Zn8	Zn	0.102725	-1.482914	-0.150600
Zn9	Zn	0.102724	-1.482931	0.150564
O10	O	0.204311	-1.472363	-0.114281
C11	C	-0.024878	-1.492792	-0.000049
C12	C	-0.102396	-1.490740	-0.000061
C13	C	0.106711	-1.253300	-0.000010
C14	C	0.104659	-1.113900	-0.000006
N15	N	0.102724	-1.482912	-0.356137
C16	C	-0.146578	-1.604215	-0.000072
C17	C	-0.219414	-1.602288	-0.000050
C18	C	-0.248065	-1.486878	-0.000044
C19	C	-0.203873	-1.373388	-0.000026
C20	C	-0.131038	-1.375319	-0.000034
N21	N	-0.356647	-1.398657	-0.077831
N22	N	-0.425837	-1.396831	-0.077826
C23	C	-0.467512	-1.481054	-0.000016
N24	N	-0.437384	-1.567192	0.077771
N25	N	-0.368187	-1.569022	0.077760
C26	C	-0.327041	-1.484772	-0.000034
C27	C	-0.590672	-1.592448	-0.000001
C28	C	-0.663510	-1.590515	0.000029
C29	C	-0.647967	-1.361612	0.000039
C30	C	-0.575131	-1.363548	0.000023
C31	C	-0.546488	-1.478969	-0.000004
C32	C	0.230327	-1.473053	0.000016
C33	C	0.307845	-1.475105	0.000037
C34	C	0.098738	-1.712544	-0.000023
C35	C	0.100790	-1.851944	-0.000018
C36	C	0.231721	-1.083241	0.000045
C37	C	0.294284	-1.002423	0.000076
C38	C	0.292352	-0.871446	0.000077
C39	C	0.227849	-0.821285	0.000043
C40	C	0.165286	-0.902103	0.000012
C41	C	0.167225	-1.033082	0.000015
C42	C	0.038226	-0.932762	-0.000049
C43	C	0.040156	-1.063740	-0.000040
C44	C	-0.026277	-0.882602	-0.000083
C45	C	-0.088842	-0.963421	-0.000104
C46	C	-0.086908	-1.094405	-0.000104
C47	C	-0.022408	-1.144558	-0.000071
C48	C	0.008655	-1.654260	-0.643891
C49	C	-0.038380	-1.739906	-0.571947
C50	C	-0.038382	-1.739890	-0.428067
C51	C	0.008657	-1.654221	-0.356128
C52	C	0.055692	-1.568574	-0.428072
C53	C	0.055687	-1.568597	-0.571955
C54	C	0.149759	-1.397265	-0.428081
C55	C	0.149758	-1.397274	-0.571960
C56	C	0.196798	-1.311596	-0.356142
C57	C	0.243830	-1.225942	-0.428086
C58	C	0.243829	-1.225961	-0.571974
C59	C	0.196792	-1.311627	-0.643904
N60	N	0.102719	-1.482943	0.356101
H61	H	-0.123262	-1.698200	-0.000089
C62	C	0.285604	-1.149915	-0.792533
C63	C	0.295533	-1.131816	-0.651052
H64	H	0.317527	-1.091797	-0.841346
H65	H	0.238942	-1.136535	-0.816121
H66	H	0.293620	-1.233685	-0.816085
H67	H	0.287511	-1.048048	-0.627498
H68	H	0.342205	-1.145186	-0.627454
C69	C	-0.213057	-1.177679	-0.117514
C70	C	-0.235360	-1.246524	-0.000019
H71	H	-0.232493	-1.099353	-0.117497
H72	H	-0.228197	-1.224376	-0.197214
H73	H	-0.163355	-1.162600	-0.117501
H74	H	-0.285063	-1.261612	-0.000037
H75	H	-0.220224	-1.199816	0.079702
C76	C	0.283706	-1.008324	-0.383807
C77	C	0.295532	-1.131783	-0.349015
H78	H	0.315629	-0.950195	-0.334994
H79	H	0.237045	-0.994958	-0.360229
H80	H	0.290436	-0.996085	-0.479795
H81	H	0.288797	-1.144024	-0.253028
H82	H	0.342205	-1.145153	-0.372583
H83	H	-0.699483	-1.682925	0.000028
C84	C	0.182115	-1.193332	-0.150061
C85	C	0.196806	-1.311574	-0.197987
H86	H	0.182127	-1.193316	-0.052422
H87	H	0.137403	-1.176415	-0.182611
H88	H	0.216861	-1.130077	-0.182631
H89	H	0.162056	-1.374828	-0.165425
H90	H	0.241524	-1.328505	-0.165422
H91	H	-0.137855	-1.160201	-0.000134
C92	C	-0.080159	-1.815892	-0.207498
C93	C	-0.090091	-1.834013	-0.348976
H94	H	-0.112083	-1.873999	-0.158674
H95	H	-0.088167	-1.732126	-0.183964
H96	H	-0.033493	-1.829282	-0.183908
H97	H	-0.136756	-1.820614	-0.372568
H98	H	-0.082089	-1.917799	-0.372520
H99	H	-0.671293	-1.267643	0.000050
H100	H	-0.567350	-1.686430	-0.000017
C101	C	-0.456581	-1.264876	0.000021
C102	C	-0.526560	-1.238811	0.000024
H103	H	-0.426596	-1.187863	0.000035
H104	H	-0.447847	-1.312200	-0.079690
H105	H	-0.447838	-1.312226	0.079732
H106	H	-0.535304	-1.191469	-0.079692
H107	H	-0.535296	-1.191467	0.079744
C108	C	-0.054219	-1.340523	-0.117591
C109	C	-0.020282	-1.288530	-0.000069
H110	H	-0.052907	-1.429406	-0.117585
H111	H	-0.031185	-1.305229	-0.197273
H112	H	-0.101585	-1.322211	-0.117601
H113	H	0.027086	-1.306834	-0.000064
H114	H	-0.043314	-1.323836	0.079633
C115	C	0.370171	-1.131936	0.117623
C116	C	0.365184	-1.057561	0.000115
H117	H	0.413944	-1.165965	0.117645
H118	H	0.333193	-1.198805	0.117595
H119	H	0.366771	-1.081467	0.197323
H120	H	0.368579	-1.108032	-0.079585
H121	H	0.402173	-0.990682	0.000131
H122	H	0.343297	-0.805642	0.000093
H123	H	0.233300	-1.189888	0.000075
C124	C	0.259665	-0.625313	0.117549
C125	C	0.225725	-0.677313	0.000034
H126	H	0.258347	-0.536432	0.117544
H127	H	0.307025	-0.643618	0.117558
H128	H	0.236629	-0.660612	0.197244
H129	H	0.248763	-0.642021	-0.079661
H130	H	0.178355	-0.658998	0.000012
C131	C	-0.063649	-0.703339	0.117407
C132	C	-0.028404	-0.738631	-0.000080
H133	H	-0.064967	-0.614458	0.117406
H134	H	-0.039750	-0.727311	0.197113
H135	H	-0.110139	-0.744302	0.117365
H136	H	0.018087	-0.697675	-0.000032
H137	H	-0.052302	-0.714646	-0.079806
H138	H	0.196785	-1.311646	-0.761059
H139	H	-0.095064	-1.282910	-0.000026
H140	H	-0.255395	-1.694696	-0.000053
C141	C	-0.197745	-0.949220	0.117348
C142	C	-0.159738	-0.908286	-0.000142
H143	H	-0.241515	-0.915184	0.117320
H144	H	-0.171961	-0.921449	0.197052
H145	H	-0.205544	-1.038792	0.117338
H146	H	-0.151935	-0.818714	-0.000127
H147	H	-0.185528	-0.936050	-0.079866
H148	H	0.008659	-1.654223	-0.238974
C149	C	-0.158871	-1.814313	-0.616266
C150	C	-0.090089	-1.834059	-0.651028
H151	H	-0.190793	-1.872443	-0.665081
H152	H	-0.166877	-1.730558	-0.639863
H153	H	-0.165593	-1.826568	-0.520279
H154	H	-0.083365	-1.821795	-0.747015
H155	H	-0.082080	-1.917835	-0.627441
H156	H	0.008645	-1.654272	-0.761046
