data_functionalizedCrystal
_audit_creation_method	'MofGen! by Chris Wilmer'
_symmetry_space_group_name_H-M	'P1'
_symmetry_Int_Tables_number	1
_symmetry_cell_setting	triclinic
loop_
_symmetry_equiv_pos_as_xyz
  x,y,z
_cell_length_a	10.654550
_cell_length_b	16.109301
_cell_length_c	9.730223
_cell_angle_alpha	89.994178
_cell_angle_beta	89.999957
_cell_angle_gamma	83.973206
loop_
_atom_site_label
_atom_site_type_symbol
_atom_site_fract_x
_atom_site_fract_y
_atom_site_fract_z
O1	O	1.666255	0.116774	-0.114192
O2	O	1.300625	0.127899	-0.114218
O3	O	1.493484	0.001365	-0.114190
O4	O	1.473396	0.243308	-0.114220
O5	O	1.493472	0.001362	0.114390
O6	O	1.300613	0.127896	0.114362
O7	O	1.666243	0.116770	0.114388
Zn8	Zn	1.483426	0.122333	0.150667
Zn9	Zn	1.483442	0.122337	-0.150497
O10	O	1.473384	0.243304	0.114360
C11	C	1.253832	0.127081	0.000069
C12	C	1.114422	0.124637	0.000060
C13	C	1.492664	-0.029616	0.000100
C14	C	1.490225	-0.121926	0.000102
C15	C	1.033926	0.199138	0.000054
C16	C	0.902936	0.196836	0.000079
C17	C	0.932952	0.045526	0.000107
C18	C	1.063939	0.047828	0.000093
C19	C	1.598991	-0.343552	0.000088
C20	C	1.596689	-0.430286	0.000076
C21	C	1.367868	-0.411772	0.000066
C22	C	1.370172	-0.325039	0.000067
C23	C	1.485737	-0.290932	0.000085
C24	C	1.481131	-0.464398	0.000072
C25	C	1.478634	-0.558439	0.000060
C26	C	1.488234	-0.196885	0.000095
C27	C	1.713036	0.117589	0.000098
C28	C	1.852446	0.120033	0.000098
C29	C	1.474203	0.274286	0.000067
C30	C	1.476643	0.366596	0.000056
N31	N	1.483424	0.122329	0.356203
N32	N	1.483454	0.122334	-0.356033
C33	C	1.568851	0.066324	0.428141
C34	C	1.568863	0.066324	0.572024
C35	C	1.398018	0.178342	0.572018
C36	C	1.398001	0.178337	0.428138
H37	H	1.075024	0.261680	0.000038
C38	C	0.886433	0.346629	0.000028
C39	C	0.814454	0.278731	0.000063
H40	H	0.831806	0.397188	0.000011
H41	H	0.938152	0.344383	0.079727
H42	H	0.938143	0.344369	-0.079695
H43	H	0.762752	0.280987	0.079792
H44	H	0.762713	0.280978	-0.079645
H45	H	0.891833	-0.017009	0.000143
H46	H	1.129483	-0.012843	0.000101
C47	C	1.824937	-0.370567	0.000072
C48	C	1.726018	-0.306060	0.000083
H49	H	1.903359	-0.347421	0.000055
H50	H	1.819285	-0.404012	0.079779
H51	H	1.819262	-0.404007	-0.079643
H52	H	1.731687	-0.272623	0.079803
H53	H	1.731672	-0.272600	-0.079633
H54	H	1.688912	-0.473126	0.000075
C55	C	1.175840	-0.282548	-0.117439
C56	C	1.245671	-0.267194	0.000066
H57	H	1.098980	-0.246840	-0.117437
H58	H	1.223229	-0.272130	-0.197132
H59	H	1.157937	-0.339086	-0.117423
H60	H	1.263582	-0.210658	0.000045
H61	H	1.198272	-0.277606	0.079780
H62	H	1.273779	-0.439553	0.000054
C63	C	1.324179	0.321819	0.383795
C64	C	1.304096	0.239906	0.349052
H65	H	1.266211	0.359824	0.334963
H66	H	1.311959	0.329834	0.479767
H67	H	1.407984	0.331353	0.360193
H68	H	1.220294	0.230370	0.372663
H69	H	1.316306	0.231887	0.253059
C70	C	1.737713	-0.044408	0.442604
C71	C	1.662734	0.004752	0.349069
H72	H	1.795666	-0.082425	0.393788
H73	H	1.782872	-0.009520	0.498702
H74	H	1.685446	-0.074630	0.498743
H75	H	1.715000	0.034979	0.292937
H76	H	1.617572	-0.030140	0.292949
C77	C	1.596200	-0.046660	0.733840
C78	C	1.662769	0.004761	0.651097
H79	H	1.654178	-0.084672	0.782648
H80	H	1.545347	-0.013305	0.797272
H81	H	1.543944	-0.076888	0.677708
H82	H	1.715018	0.034994	0.707230
H83	H	1.713644	-0.028598	0.587658
H84	H	1.328470	0.223944	0.630602
