data_functionalizedCrystal
_audit_creation_method	'MofGen! by Chris Wilmer'
_symmetry_space_group_name_H-M	'P1'
_symmetry_Int_Tables_number	1
_symmetry_cell_setting	triclinic
loop_
_symmetry_equiv_pos_as_xyz
  x,y,z
_cell_length_a	14.908742
_cell_length_b	25.639240
_cell_length_c	25.639243
_cell_angle_alpha	90.016535
_cell_angle_beta	86.699456
_cell_angle_gamma	86.739913
loop_
_atom_site_label
_atom_site_type_symbol
_atom_site_fract_x
_atom_site_fract_y
_atom_site_fract_z
Zn1	Zn	1.378939	-0.254332	0.249364
Zn2	Zn	1.878939	0.245668	0.749364
Zn3	Zn	1.378848	-0.341733	0.161921
Zn4	Zn	1.878848	0.158267	0.661921
Zn5	Zn	1.228123	-0.249278	0.166998
Zn6	Zn	1.728123	0.250722	0.666998
Zn7	Zn	1.228018	-0.336696	0.254381
Zn8	Zn	1.728018	0.163304	0.754381
O9	O	1.303482	-0.295510	0.208166
O10	O	1.803482	0.204490	0.708166
O11	O	1.505166	-0.270149	0.233541
O12	O	2.005166	0.229851	0.733541
O13	O	1.358859	-0.329462	0.089429
O14	O	1.858859	0.170538	0.589429
O15	O	1.248211	-0.176786	0.177950
O16	O	1.748211	0.323214	0.677950
O17	O	1.505099	-0.334362	0.169296
O18	O	2.005099	0.165638	0.669296
O19	O	1.359014	-0.180499	0.238464
O20	O	1.859014	0.319501	0.738464
O21	O	1.248122	-0.261536	0.093159
O22	O	1.748122	0.238464	0.593159
O23	O	1.101869	-0.256651	0.182814
O24	O	1.601869	0.243349	0.682814
O25	O	1.248032	-0.325777	0.326881
O26	O	1.748032	0.174223	0.826881
O27	O	1.101792	-0.320877	0.247013
O28	O	1.601792	0.179123	0.747013
O29	O	1.358913	-0.265265	0.323195
O30	O	1.858913	0.234735	0.823195
O31	O	1.358758	-0.414228	0.174160
O32	O	1.858758	0.085772	0.674160
O33	O	1.247944	-0.410527	0.242090
O34	O	1.747944	0.089473	0.742090
C35	C	1.069098	-0.287669	0.216009
C36	C	1.569098	0.212331	0.716009
C37	C	0.968828	-0.284328	0.219377
C38	C	1.468828	0.215672	0.719377
C39	C	1.303354	-0.431348	0.208129
C40	C	1.803354	0.068652	0.708129
C41	C	1.303382	-0.489463	0.208128
C42	C	1.803382	0.010537	0.708128
C43	C	0.827532	-0.246245	0.257620
C44	C	1.327532	0.253755	0.757620
C45	C	0.921745	-0.249380	0.254459
C46	C	1.421745	0.250620	0.754459
C47	C	0.921691	-0.316144	0.187456
C48	C	1.421691	0.183856	0.687456
C49	C	0.827478	-0.313009	0.190617
C50	C	1.327478	0.186991	0.690617
C51	C	0.780402	-0.278057	0.225700
C52	C	1.280402	0.221943	0.725700
C53	C	0.686188	-0.274920	0.228859
C54	C	1.186188	0.225080	0.728859
C55	C	0.686135	-0.341686	0.161859
C56	C	1.186135	0.158314	0.661859
C57	C	0.780348	-0.344821	0.158697
C58	C	1.280348	0.155179	0.658697
C59	C	1.361206	-0.851725	0.239735
C60	C	1.861206	-0.351725	0.739735
C61	C	1.361232	-0.906331	0.239745
C62	C	1.861232	-0.406331	0.739745
O63	O	1.410245	-0.936177	0.266581
O64	O	1.910245	-0.436177	0.766581
N65	N	1.303607	-0.931753	0.208212
N66	N	1.803607	-0.431753	0.708212
C67	C	1.245944	-0.902567	0.176672
C68	C	1.745944	-0.402567	0.676672
O69	O	1.196931	-0.929205	0.149852
O70	O	1.696931	-0.429205	0.649852
C71	C	1.245914	-0.847963	0.176665
C72	C	1.745914	-0.347963	0.676665
C73	C	1.303550	-0.822544	0.208196
C74	C	1.803550	-0.322544	0.708196
C75	C	1.418836	-0.826306	0.271264
C76	C	1.918836	-0.326306	0.771264
C77	C	1.418811	-0.771704	0.271253
C78	C	1.918811	-0.271704	0.771253
C79	C	1.361155	-0.742523	0.239714
C80	C	1.861155	-0.242523	0.739714
C81	C	1.303524	-0.767942	0.208185
C82	C	1.803524	-0.267942	0.708185
C83	C	1.188248	-0.818778	0.145128
C84	C	1.688248	-0.318778	0.645128
C85	C	1.188222	-0.764170	0.145125
C86	C	1.688222	-0.264170	0.645125
C87	C	1.245857	-0.738751	0.176655
C88	C	1.745857	-0.238751	0.676655
C89	C	1.245842	-0.684159	0.176636
C90	C	1.745842	-0.184159	0.676636
N91	N	1.303468	-0.658736	0.208168
N92	N	1.803468	-0.158736	0.708168
C93	C	1.361124	-0.687918	0.239707
C94	C	1.861124	-0.187918	0.739707
C95	C	1.246012	-1.017240	0.176689
C96	C	1.746012	-0.517240	0.676689
C97	C	1.246046	-1.071844	0.176692
C98	C	1.746046	-0.571844	0.676692
C99	C	1.361333	-1.075603	0.239766
C100	C	1.861333	-0.575603	0.739766
C101	C	1.361303	-1.020999	0.239759
C102	C	1.861303	-0.520999	0.739759
C103	C	1.303637	-0.991818	0.208221
C104	C	1.803637	-0.491818	0.708221
C105	C	1.361066	-0.573251	0.239682
C106	C	1.861066	-0.073251	0.739682
C107	C	1.361038	-0.518645	0.239667
C108	C	1.861038	-0.018645	0.739667
C109	C	1.245748	-0.514890	0.176596
C110	C	1.745748	-0.014890	0.676596
C111	C	1.245779	-0.569492	0.176609
C112	C	1.745779	-0.069492	0.676609
C113	C	1.303441	-0.598671	0.208156
C114	C	1.803441	-0.098671	0.708156
O115	O	1.196853	-0.654279	0.149815
O116	O	1.696853	-0.154279	0.649815
O117	O	1.410121	-0.661273	0.266528
O118	O	1.910121	-0.161273	0.766528
C119	C	1.538780	-0.303381	0.200293
C120	C	2.038780	0.196619	0.700293
C121	C	1.639051	-0.306736	0.196937
C122	C	2.139051	0.193264	0.696937
C123	C	1.303471	-0.295523	0.344539
C124	C	1.803471	0.204477	0.844539
C125	C	1.303467	-0.295528	0.402654
C126	C	1.803467	0.204472	0.902654
C127	C	1.303634	-0.159142	0.208213
C128	C	1.803634	0.340858	0.708213
C129	C	1.303699	-0.101030	0.208234
C130	C	1.803699	0.398970	0.708234
C131	C	1.245736	-0.327023	0.655760
C132	C	1.745736	0.172977	1.155760
C133	C	1.245732	-0.327023	0.601156
C134	C	1.745732	0.172977	1.101156
O135	O	1.196615	-0.353803	0.574547
O136	O	1.696615	0.146197	1.074547
N137	N	1.303464	-0.295521	0.571928
N138	N	1.803464	0.204479	1.071928
C139	C	1.361197	-0.264011	0.597306
C140	C	1.861197	0.235989	1.097306
O141	O	1.410301	-0.237215	0.567431
O142	O	1.910301	0.262785	1.067431
C143	C	1.361195	-0.264008	0.651910
C144	C	1.861195	0.235992	1.151910
C145	C	1.303466	-0.295517	0.681135
C146	C	1.803466	0.204483	1.181135
C147	C	1.188011	-0.358529	0.684986
C148	C	1.688011	0.141471	1.184986
C149	C	1.188017	-0.358529	0.739586
C150	C	1.688017	0.141471	1.239586
C151	C	1.245747	-0.327023	0.764961
C152	C	1.745747	0.172977	1.264961
C153	C	1.303472	-0.295517	0.735735
C154	C	1.803472	0.204483	1.235735
C155	C	1.418923	-0.232497	0.677287
C156	C	1.918923	0.267503	1.177287
C157	C	1.418916	-0.232496	0.731895
C158	C	1.918916	0.267504	1.231895
C159	C	1.361187	-0.264005	0.761120
C160	C	1.861187	0.235995	1.261120
C161	C	1.361207	-0.264012	0.815711
C162	C	1.861207	0.235988	1.315711
N163	N	1.303475	-0.295515	0.844939
N164	N	1.803475	0.204485	1.344939
C165	C	1.245745	-0.327020	0.819564
C166	C	1.745745	0.172980	1.319564
C167	C	1.361194	-0.264019	0.482636
C168	C	1.861194	0.235981	0.982636
C169	C	1.361200	-0.264024	0.428033
C170	C	1.861200	0.235976	0.928033
C171	C	1.245735	-0.327036	0.431887
C172	C	1.745735	0.172964	0.931887
C173	C	1.245733	-0.327033	0.486490
C174	C	1.745733	0.172967	0.986490
C175	C	1.303462	-0.295522	0.511864
C176	C	1.803462	0.204478	1.011864
C177	C	1.245761	-0.327019	0.934229
C178	C	1.745761	0.172981	1.434229
C179	C	1.245774	-0.327018	0.988834
C180	C	1.745774	0.172982	1.488834
C181	C	1.361236	-0.264004	0.984976
C182	C	1.861236	0.235996	1.484976
C183	C	1.361227	-0.264007	0.930375
C184	C	1.861227	0.235993	1.430375
C185	C	1.303482	-0.295516	0.905003
C186	C	1.803482	0.204484	1.405003
O187	O	1.410297	-0.237244	0.842355
O188	O	1.910297	0.262756	1.342355
O189	O	1.196641	-0.353807	0.849446
O190	O	1.696641	0.146193	1.349446
C191	C	1.303489	-0.295511	1.072323
C192	C	1.803489	0.204489	1.572323
C193	C	1.303505	-0.295512	1.014209
C194	C	1.803505	0.204488	1.514209
H195	H	0.647860	-0.246458	0.257423
H196	H	1.147860	0.253542	0.757423
H197	H	0.789202	-0.217781	0.286181
H198	H	1.289202	0.282219	0.786181
H199	H	1.408278	-1.099373	0.265448
H200	H	1.908278	-0.599373	0.765448
H201	H	1.407976	-0.497950	0.265343
H202	H	1.907976	0.002050	0.765343
H203	H	1.198725	-0.352690	0.510282
H204	H	1.698725	0.147310	1.010282
H205	H	0.960115	-0.223475	0.280451
H206	H	1.460115	0.276525	0.780451
H207	H	1.199056	-0.993483	0.151002
H208	H	1.699056	-0.493483	0.651002
H209	H	0.960037	-0.344601	0.158894
H210	H	1.460037	0.155399	0.658894
H211	H	1.198764	-0.352678	1.012627
H212	H	1.698764	0.147322	1.512627
H213	H	0.818690	-0.373279	0.130135
H214	H	1.318690	0.126721	0.630135
H215	H	1.408014	-0.597003	0.265375
H216	H	1.908014	-0.097003	0.765375
H217	H	0.647752	-0.367591	0.135868
H218	H	1.147752	0.132409	0.635868
H219	H	1.465740	-0.751011	0.296930
H220	H	1.965740	-0.251011	0.796930
H221	H	1.141005	-0.384185	0.763377
H222	H	1.641005	0.115815	1.263377
H223	H	1.198726	-0.352689	0.411217
H224	H	1.698726	0.147311	0.911217
H225	H	1.140995	-0.384184	0.664331
H226	H	1.640995	0.115816	1.164331
H227	H	1.408234	-1.000306	0.265435
H228	H	1.908234	-0.500306	0.765435
H229	H	1.465787	-0.850060	0.296950
H230	H	1.965787	-0.350060	0.796950
H231	H	1.199123	-1.092536	0.151011
H232	H	1.699123	-0.592536	0.651011
H233	H	1.141261	-0.740413	0.119443
H234	H	1.641261	-0.240413	0.619443
H235	H	1.141315	-0.839465	0.119452
H236	H	1.641315	-0.339465	0.619452
H237	H	1.198855	-0.590189	0.150930
H238	H	1.698855	-0.090189	0.650930
H239	H	1.198808	-0.491122	0.150916
H240	H	1.698808	0.008878	0.650916
H241	H	1.408219	-0.238372	0.404242
H242	H	1.908219	0.261628	0.904242
H243	H	1.198732	-0.352671	0.913578
H244	H	1.698732	0.147329	1.413578
H245	H	1.408211	-0.238360	0.503291
H246	H	1.908211	0.261640	1.003291
H247	H	1.465932	-0.206839	0.653501
H248	H	1.965932	0.293161	1.153501
H249	H	1.408242	-0.238355	1.005646
H250	H	1.908242	0.261645	1.505646
H251	H	1.465923	-0.206833	0.752551
H252	H	1.965923	0.293167	1.252551
H253	H	1.408241	-0.238354	0.906578
H254	H	1.908241	0.261646	1.406578
