data_functionalizedCrystal
_audit_creation_method	'MofGen! by Chris Wilmer'
_symmetry_space_group_name_H-M	'P1'
_symmetry_Int_Tables_number	1
_symmetry_cell_setting	triclinic
loop_
_symmetry_equiv_pos_as_xyz
  x,y,z
_cell_length_a	27.731993
_cell_length_b	26.809956
_cell_length_c	10.489741
_cell_angle_alpha	90.004681
_cell_angle_beta	96.420217
_cell_angle_gamma	89.997216
loop_
_atom_site_label
_atom_site_type_symbol
_atom_site_fract_x
_atom_site_fract_y
_atom_site_fract_z
O1	O	0.641904	0.041345	-0.151406
O2	O	1.141904	0.541345	0.348594
O3	O	0.501253	0.041376	-0.174553
O4	O	1.001253	0.541376	0.325447
O5	O	0.574779	0.041357	0.022760
O6	O	1.074779	0.541357	0.522760
O7	O	0.568378	0.041364	-0.348720
O8	O	1.068378	0.541364	0.151280
O9	O	0.574765	-0.041603	0.022730
O10	O	1.074765	0.458397	0.522730
O11	O	0.501239	-0.041584	-0.174584
O12	O	1.001239	0.458416	0.325416
O13	O	0.641890	-0.041614	-0.151436
O14	O	1.141890	0.458386	0.348564
Zn15	Zn	0.571562	-0.054770	-0.163015
Zn16	Zn	1.071562	0.445230	0.336985
Zn17	Zn	0.571581	0.054532	-0.162975
Zn18	Zn	1.071581	0.554532	0.337025
O19	O	0.568364	-0.041595	-0.348750
O20	O	1.068364	0.458405	0.151250
C21	C	0.483235	-0.000100	-0.174093
C22	C	0.983235	0.499900	0.325907
C23	C	0.429570	-0.000089	-0.172663
C24	C	0.929570	0.499911	0.327337
C25	C	0.046352	0.045108	-0.162275
C26	C	0.546352	0.545108	0.337725
C27	C	0.248044	0.045122	-0.167729
C28	C	0.748044	0.545122	0.332271
O29	O	0.274128	0.083581	-0.168369
O30	O	0.774128	0.583581	0.331631
N31	N	0.273261	-0.000098	-0.168428
N32	N	0.773261	0.499902	0.331572
C33	C	0.248052	-0.045325	-0.167755
C34	C	0.748052	0.454675	0.332245
O35	O	0.274129	-0.083787	-0.168461
O36	O	0.774129	0.416213	0.331539
C37	C	0.046362	-0.045338	-0.162292
C38	C	0.546362	0.454662	0.337708
C39	C	0.021147	-0.000115	-0.161606
C40	C	0.521147	0.499885	0.338394
C41	C	0.021137	0.090327	-0.161588
C42	C	0.521137	0.590327	0.338412
C43	C	-0.029283	0.090323	-0.160232
C44	C	0.470717	0.590323	0.339768
C45	C	-0.054488	0.045100	-0.159563
C46	C	0.445512	0.545100	0.340437
C47	C	-0.029273	-0.000119	-0.160250
C48	C	0.470727	0.499881	0.339750
C49	C	0.021154	-0.090564	-0.161610
C50	C	0.521154	0.409436	0.338390
C51	C	-0.029271	-0.090564	-0.160241
C52	C	0.470729	0.409436	0.339759
C53	C	-0.054486	-0.045341	-0.159555
C54	C	0.445514	0.454659	0.340445
C55	C	-0.104899	-0.045346	-0.158224
C56	C	0.395101	0.454654	0.341776
N57	N	-0.130116	-0.000126	-0.157525
N58	N	0.369884	0.499874	0.342475
C59	C	-0.104911	0.045097	-0.158195
C60	C	0.395089	0.545097	0.341805
C61	C	0.353943	-0.045315	-0.170625
C62	C	0.853943	0.454685	0.329375
C63	C	0.404365	-0.045312	-0.171993
C64	C	0.904365	0.454688	0.328007
C65	C	0.404353	0.045135	-0.171965
C66	C	0.904353	0.545135	0.328035
C67	C	0.353929	0.045131	-0.170606
C68	C	0.853929	0.545131	0.329394
C69	C	0.328726	-0.000095	-0.169927
C70	C	0.828726	0.499905	0.330073
C71	C	-0.210797	0.045086	-0.155347
C72	C	0.289203	0.545086	0.344653
C73	C	-0.261222	0.045078	-0.153996
C74	C	0.238778	0.545078	0.346004
C75	C	-0.261205	-0.045369	-0.154018
C76	C	0.238795	0.454631	0.345982
C77	C	-0.210785	-0.045361	-0.155376
C78	C	0.289215	0.454639	0.344624
C79	C	-0.185582	-0.000130	-0.156036
C80	C	0.314418	0.499870	0.343964
O81	O	-0.131013	-0.083786	-0.157569
O82	O	0.368987	0.416214	0.342431
O83	O	-0.130995	0.083553	-0.157460
O84	O	0.369005	0.583553	0.342540
C85	C	0.096772	0.045112	-0.163632
C86	C	0.596772	0.545112	0.336368
C87	C	0.121987	-0.000107	-0.164319
C88	C	0.621987	0.499893	0.335681
C89	C	0.096782	-0.045331	-0.163650
C90	C	0.596782	0.454669	0.336350
C91	C	0.172410	-0.000104	-0.165687
C92	C	0.672410	0.499896	0.334313
C93	C	0.197615	0.045119	-0.166356
C94	C	0.697615	0.545119	0.333644
C95	C	0.172398	0.090339	-0.165657
C96	C	0.672398	0.590339	0.334343
C97	C	0.121978	0.090335	-0.164301
C98	C	0.621978	0.590335	0.335699
C99	C	0.121999	-0.090551	-0.164349
C100	C	0.621999	0.409449	0.335651
C101	C	0.172419	-0.090543	-0.165706
C102	C	0.672419	0.409457	0.334294
C103	C	0.197625	-0.045320	-0.166376
C104	C	0.697625	0.454680	0.333624
N105	N	0.571553	-0.129366	-0.163041
N106	N	1.071553	0.370634	0.336959
C107	C	0.604134	-0.474001	-0.075626
C108	C	1.104134	0.025999	0.424374
C109	C	0.604145	-0.682879	-0.075606
C110	C	1.104145	-0.182879	0.424394
O111	O	0.631827	-0.709889	-0.001291
O112	O	1.131827	-0.209889	0.498709
N113	N	0.571583	-0.708994	-0.162947
N114	N	1.071583	-0.208994	0.337053
C115	C	0.539014	-0.682886	-0.250293
C116	C	1.039014	-0.182886	0.249707
O117	O	0.511315	-0.709891	-0.324572
O118	O	1.011315	-0.209891	0.175428
C119	C	0.539000	-0.474009	-0.250305
C120	C	1.039000	0.025991	0.249695
C121	C	0.571568	-0.447897	-0.162968
C122	C	1.071568	0.052103	0.337032
C123	C	0.636698	-0.447888	0.011706
C124	C	1.136698	0.052112	0.511706
C125	C	0.636697	-0.395672	0.011695
C126	C	1.136697	0.104328	0.511695
C127	C	0.604131	-0.369568	-0.075647
C128	C	1.104131	0.130432	0.424353
C129	C	0.571567	-0.395681	-0.162978
C130	C	1.071567	0.104319	0.337022
C131	C	0.506429	-0.447903	-0.337644
C132	C	1.006429	0.052097	0.162356
C133	C	0.506428	-0.395680	-0.337638
C134	C	1.006428	0.104320	0.162362
C135	C	0.538995	-0.369568	-0.250300
C136	C	1.038995	0.130432	0.249700
C137	C	0.538999	-0.317360	-0.250331
C138	C	1.038999	0.182640	0.249669
N139	N	0.571561	-0.291245	-0.162990
N140	N	1.071561	0.208755	0.337010
C141	C	0.604127	-0.317349	-0.075648
C142	C	1.104127	0.182651	0.424352
C143	C	0.539024	-0.792549	-0.250282
C144	C	1.039024	-0.292549	0.249718
C145	C	0.539028	-0.844768	-0.250280
C146	C	1.039028	-0.344768	0.249720
C147	C	0.604158	-0.844757	-0.075592
C148	C	1.104158	-0.344757	0.424408
C149	C	0.604157	-0.792537	-0.075600
C150	C	1.104157	-0.292537	0.424400
C151	C	0.571586	-0.766434	-0.162941
C152	C	1.071586	-0.266434	0.337059
C153	C	0.604122	-0.207691	-0.075677
C154	C	1.104122	0.292309	0.424323
C155	C	0.604119	-0.155470	-0.075699
C156	C	1.104119	0.344530	0.424301
C157	C	0.538987	-0.155486	-0.250382
C158	C	1.038987	0.344514	0.249618
C159	C	0.538991	-0.207702	-0.250366
C160	C	1.038991	0.292298	0.249634
C161	C	0.571561	-0.233804	-0.163003
C162	C	1.071561	0.266196	0.336997
O163	O	0.511329	-0.290317	-0.324597
O164	O	1.011329	0.209683	0.175403
O165	O	0.631815	-0.290335	-0.001361
O166	O	1.131815	0.209665	0.498639
C167	C	0.604135	-0.526217	-0.075616
C168	C	1.104135	-0.026217	0.424384
C169	C	0.571571	-0.552329	-0.162947
C170	C	1.071571	-0.052329	0.337053
C171	C	0.539005	-0.526226	-0.250289
C172	C	1.039005	-0.026226	0.249711
C173	C	0.571575	-0.604548	-0.162946
C174	C	1.071575	-0.104548	0.337054
C175	C	0.604140	-0.630652	-0.075604
C176	C	1.104140	-0.130652	0.424396
C177	C	0.636702	-0.604537	0.011737
C178	C	1.136702	-0.104537	0.511737
C179	C	0.636701	-0.552321	0.011726
C180	C	1.136701	-0.052321	0.511726
C181	C	0.506443	-0.552341	-0.337629
C182	C	1.006443	-0.052341	0.162371
C183	C	0.506447	-0.604557	-0.337613
C184	C	1.006447	-0.104557	0.162387
C185	C	0.539013	-0.630661	-0.250271
C186	C	1.039013	-0.130661	0.249729
C187	C	0.659907	-0.000137	-0.151896
C188	C	1.159907	0.499863	0.348104
C189	C	0.713573	-0.000145	-0.153327
C190	C	1.213573	0.499855	0.346673
C191	C	0.574288	-0.000123	0.070256
C192	C	1.074288	0.499877	0.570256
C193	C	0.572842	-0.000121	0.211821
C194	C	1.072842	0.499879	0.711821
N195	N	0.571593	0.129128	-0.162939
N196	N	1.071593	0.629128	0.337061
C197	C	0.568854	-0.000115	-0.396245
C198	C	1.068854	0.499885	0.103755
C199	C	0.570301	-0.000113	-0.537810
C200	C	1.070301	0.499887	-0.037810
C201	C	0.526060	-0.000108	0.277880
C202	C	1.026060	0.499892	0.777880
C203	C	0.548152	-0.041016	0.370971
C204	C	1.048152	0.458984	0.870971
C205	C	0.548177	0.040776	0.370976
C206	C	1.048177	0.540776	0.870976
C207	C	0.594954	-0.041063	0.303047
C208	C	1.094954	0.458937	0.803047
C209	C	0.594972	0.040765	0.303042
C210	C	1.094972	0.540765	0.803042
C211	C	0.617099	-0.000153	0.396106
C212	C	1.117099	0.499847	0.896106
H213	H	0.041676	-0.127390	-0.162164
H214	H	0.541676	0.372610	0.337836
Cl215	Cl	0.676537	-0.000199	0.475062
Cl216	Cl	1.176537	0.499801	0.975062
Cl217	Cl	0.436049	0.101987	-0.172809
Cl218	Cl	0.936049	0.601987	0.327191
Cl219	Cl	0.625482	-0.094519	0.256791
Cl220	Cl	1.125482	0.405481	0.756791
H221	H	0.333403	0.081956	-0.170048
H222	H	0.833403	0.581956	0.329952
H223	H	0.528352	-0.075592	0.401090
H224	H	1.028352	0.424408	0.901090
H225	H	-0.190255	-0.082186	-0.155959
H226	H	0.309745	0.417814	0.344041
Cl227	Cl	-0.060974	0.147179	-0.159357
Cl228	Cl	0.439026	0.647179	0.340643
Cl229	Cl	0.625517	0.094151	0.256482
Cl230	Cl	1.125517	0.594151	0.756482
Cl231	Cl	0.204111	-0.147401	-0.166577
Cl232	Cl	0.704111	0.352599	0.333423
Cl233	Cl	0.498049	-0.122661	-0.360180
Cl234	Cl	0.998049	0.377339	0.139820
Cl235	Cl	-0.060953	-0.147423	-0.159378
Cl236	Cl	0.439047	0.352577	0.340622
H237	H	0.479910	-0.469156	-0.408762
H238	H	0.979910	0.030844	0.091238
Cl239	Cl	0.465478	-0.362869	-0.447444
Cl240	Cl	0.965478	0.137131	0.052556
Cl241	Cl	0.517612	0.094169	0.417474
Cl242	Cl	1.017612	0.594169	0.917474
H243	H	0.101482	-0.127378	-0.163797
H244	H	0.601482	0.372622	0.336203
H245	H	0.630641	-0.134211	-0.004578
H246	H	1.130641	0.365789	0.495422
H247	H	-0.281750	0.081905	-0.153442
H248	H	0.218250	0.581905	0.346558
H249	H	-0.190283	0.081917	-0.155887
H250	H	0.309717	0.581917	0.344113
Cl251	Cl	0.204094	0.147190	-0.166503
Cl252	Cl	0.704094	0.647190	0.333497
H253	H	-0.281737	-0.082188	-0.153478
H254	H	0.218263	0.417812	0.346522
H255	H	0.424890	-0.082137	-0.172573
H256	H	0.924890	0.417863	0.327427
Cl257	Cl	0.052815	0.147187	-0.162429
Cl258	Cl	0.552815	0.647187	0.337571
Cl259	Cl	0.465503	-0.637378	-0.447425
Cl260	Cl	0.965503	-0.137378	0.052575
Cl261	Cl	0.498091	-0.877589	-0.360097
Cl262	Cl	0.998091	-0.377589	0.139903
Cl263	Cl	0.322264	-0.102177	-0.169790
Cl264	Cl	0.822264	0.397823	0.330210
Cl265	Cl	0.466675	-0.000155	0.198581
Cl266	Cl	0.966675	0.499845	0.698581
H267	H	0.630676	-0.771280	-0.004482
H268	H	1.130676	-0.271280	0.495518
H269	H	0.101452	0.127160	-0.163743
H270	H	0.601452	0.627160	0.336257
Cl271	Cl	0.677644	-0.519501	0.121530
Cl272	Cl	1.177644	-0.019501	0.621530
Cl273	Cl	0.645068	-0.240496	0.034151
Cl274	Cl	1.145068	0.259504	0.534151
H275	H	0.663215	-0.374415	0.082816
H276	H	1.163215	0.125585	0.582816
H277	H	0.663217	-0.469138	0.082836
H278	H	1.163217	0.030862	0.582836
H279	H	0.630676	-0.866020	-0.004476
H280	H	1.130676	-0.366020	0.495524
H281	H	0.479923	-0.531091	-0.408752
H282	H	0.979923	-0.031091	0.091248
H283	H	0.512500	-0.771300	-0.321409
H284	H	1.012500	-0.271300	0.178591
Cl285	Cl	0.677643	-0.637364	0.121534
Cl286	Cl	1.177643	-0.137364	0.621534
Cl287	Cl	0.498053	-0.240528	-0.360179
Cl288	Cl	0.998053	0.259472	0.139821
