data_functionalizedCrystal
_audit_creation_method	'MofGen! by Chris Wilmer'
_symmetry_space_group_name_H-M	'P1'
_symmetry_Int_Tables_number	1
_symmetry_cell_setting	triclinic
loop_
_symmetry_equiv_pos_as_xyz
  x,y,z
_cell_length_a	21.295418
_cell_length_b	19.077068
_cell_length_c	19.076919
_cell_angle_alpha	85.529249
_cell_angle_beta	92.261150
_cell_angle_gamma	87.656381
loop_
_atom_site_label
_atom_site_type_symbol
_atom_site_fract_x
_atom_site_fract_y
_atom_site_fract_z
Zn1	Zn	0.936930	0.296407	-0.410191
Zn2	Zn	0.936852	0.409561	-0.297035
Zn3	Zn	0.836073	0.291721	-0.292284
Zn4	Zn	0.827225	0.414290	-0.414839
O5	O	0.884270	0.352995	-0.353587
O6	O	1.025008	0.311399	-0.395223
O7	O	0.927154	0.389989	-0.197759
O8	O	0.853187	0.193692	-0.303991
O9	O	1.024951	0.394533	-0.312089
O10	O	0.927287	0.197135	-0.390616
O11	O	0.853112	0.303413	-0.194268
O12	O	0.746811	0.307998	-0.308498
O13	O	0.838108	0.402592	-0.512868
O14	O	0.740311	0.398049	-0.398538
O15	O	0.918708	0.315985	-0.509453
O16	O	0.918575	0.508838	-0.316596
O17	O	0.838032	0.512313	-0.403146
C18	C	0.720720	0.353028	-0.353507
C19	C	0.650752	0.353061	-0.353491
C20	C	0.877352	0.536155	-0.360906
C21	C	0.874449	0.614513	-0.364061
C22	C	0.877430	0.360339	-0.537453
C23	C	0.874514	0.363469	-0.615806
C24	C	0.614517	0.400007	-0.400310
C25	C	0.548774	0.399991	-0.400341
C26	C	0.519268	0.353035	-0.353540
C27	C	0.555511	0.306080	-0.306718
C28	C	0.621253	0.306093	-0.306693
N29	N	0.418510	0.345050	-0.291663
N30	N	0.356058	0.345042	-0.291689
C31	C	0.321192	0.352993	-0.353613
N32	N	0.351138	0.360967	-0.415513
N33	N	0.413596	0.360978	-0.415487
C34	C	0.447983	0.353016	-0.353562
C35	C	0.213672	0.399925	-0.400470
C36	C	0.147927	0.399904	-0.400502
C37	C	0.154666	0.305997	-0.306873
C38	C	0.220409	0.306014	-0.306847
C39	C	0.249907	0.352982	-0.353645
C40	C	1.048459	0.352961	-0.353667
C41	C	1.118426	0.352947	-0.353702
C42	C	0.891232	0.169120	-0.346255
C43	C	0.894199	0.090763	-0.343130
C44	C	0.915049	0.649495	-0.320518
C45	C	0.912322	0.723120	-0.323490
C46	C	0.868991	0.761763	-0.370000
C47	C	0.828389	0.726776	-0.413548
C48	C	0.831120	0.653152	-0.410579
C49	C	0.856328	0.982152	-0.383709
C50	C	0.853599	1.055781	-0.386673
C51	C	0.937533	1.052121	-0.296615
C52	C	0.940257	0.978495	-0.293648
C53	C	0.899657	0.943515	-0.337198
N54	N	0.866201	0.837020	-0.373037
N55	N	0.902451	0.868259	-0.334164
C56	C	0.915107	0.319849	-0.650840
C57	C	0.912360	0.322787	-0.724460
C58	C	0.869024	0.369349	-0.763046
C59	C	0.828427	0.412970	-0.728008
C60	C	0.831171	0.410028	-0.654388
C61	C	0.856314	0.382979	-0.983416
C62	C	0.853575	0.385919	-1.057040
C63	C	0.937507	0.295735	-1.053488
C64	C	0.940250	0.292800	-0.979867
C65	C	0.899651	0.336419	-0.944835
N66	N	0.866217	0.372354	-0.838299
N67	N	0.902456	0.333409	-0.869584
C68	C	0.891122	0.345628	-0.170434
C69	C	0.894167	0.342300	-0.092074
H70	H	0.519266	0.438220	-0.438469
H71	H	0.950330	0.618036	-0.282641
C72	C	0.987205	0.936506	-0.243062
C73	C	0.954843	0.892509	-0.196115
C74	C	0.998069	0.853827	-0.149495
H75	H	1.014694	0.908757	-0.268820
H76	H	1.010985	0.967865	-0.217514
H77	H	0.931073	0.861154	-0.221660
H78	H	0.927356	0.920240	-0.170341
H79	H	1.021848	0.885186	-0.123948
H80	H	1.025556	0.826082	-0.175259
H81	H	0.976117	0.823976	-0.117632
C82	C	0.981721	1.090009	-0.249378
C83	C	1.044083	1.072614	-0.264083
C84	C	1.084811	1.107494	-0.220575
H85	H	0.973981	1.139400	-0.257759
H86	H	0.974792	1.076065	-0.201504
H87	H	1.051009	1.086562	-0.311946
H88	H	1.051843	1.023229	-0.255698
H89	H	1.077882	1.093550	-0.172701
H90	H	1.077065	1.156884	-0.228960
H91	H	1.127128	1.095692	-0.230542
H92	H	0.823265	0.418507	-0.954902
C93	C	0.108663	0.450843	-0.451450
C94	C	0.122705	0.438413	-0.520608
C95	C	0.086553	0.485332	-0.567559
H96	H	0.065269	0.444159	-0.444865
H97	H	0.118019	0.497792	-0.442979
H98	H	0.113345	0.391475	-0.529076
H99	H	0.166092	0.445103	-0.527216
H100	H	0.095909	0.532281	-0.559089
H101	H	0.043161	0.478644	-0.560967
H102	H	0.096080	0.476909	-0.614488
C103	C	0.122615	0.255138	-0.255957
C104	C	0.085024	0.293183	-0.212306
C105	C	0.055498	0.246357	-0.165380
H106	H	0.097103	0.225509	-0.281655
H107	H	0.153603	0.227202	-0.228027
H108	H	0.054040	0.321106	-0.240233
H109	H	0.110522	0.322810	-0.186593
H110	H	0.086486	0.218422	-0.137450
H111	H	0.029989	0.216730	-0.191083
H112	H	0.029994	0.272164	-0.135753
C113	C	0.812267	0.944278	-0.431100
C114	C	0.822647	0.964944	-0.501586
C115	C	0.782059	0.930075	-0.545262
H116	H	0.820050	0.894888	-0.422773
H117	H	0.769906	0.956009	-0.421247
H118	H	0.864998	0.953209	-0.511436
H119	H	0.814861	1.014329	-0.509935
H120	H	0.739699	0.941806	-0.535409
H121	H	0.789845	0.880687	-0.536929
H122	H	0.789093	0.944097	-0.593092
H123	H	0.818321	1.087243	-0.424560
C124	C	0.781420	0.768697	-0.464163
C125	C	0.793158	0.753543	-0.533206
C126	C	0.749907	0.792153	-0.579852
H127	H	0.739936	0.756306	-0.453399
H128	H	0.785611	0.817564	-0.459741
H129	H	0.788962	0.704687	-0.537625
H130	H	0.834634	0.765936	-0.543992
H131	H	0.754098	0.841020	-0.575430
H132	H	0.708425	0.779760	-0.569082
H133	H	0.757869	0.781882	-0.626703
C134	C	0.787132	0.457306	-0.616219
C135	C	0.798797	0.444751	-0.543487
C136	C	0.758232	0.488282	-0.508304
H137	H	0.794062	0.505179	-0.630092
H138	H	0.744767	0.447470	-0.627809
H139	H	0.841153	0.454593	-0.531903
H140	H	0.791863	0.396887	-0.529594
H141	H	0.715867	0.478446	-0.519894
H142	H	0.765165	0.536152	-0.522183
H143	H	0.766137	0.479765	-0.458952
H144	H	0.650755	0.267861	-0.268567
H145	H	0.798060	0.624670	-0.446037
H146	H	0.950398	0.281936	-0.619428
H147	H	0.531483	0.267847	-0.268614
H148	H	0.945416	0.287269	-0.752981
C149	C	0.245789	0.450797	-0.451319
C150	C	0.283418	0.412765	-0.494943
C151	C	0.313019	0.459604	-0.541787
H152	H	0.214861	0.478771	-0.479280
H153	H	0.271283	0.480388	-0.425536
H154	H	0.257926	0.383186	-0.520723
H155	H	0.314357	0.384793	-0.467001
H156	H	0.338513	0.489195	-0.516005
H157	H	0.282086	0.487575	-0.569744
H158	H	0.338558	0.433806	-0.571388
H159	H	0.249912	0.267789	-0.268718
C160	C	0.956432	0.760970	-0.276130
C161	C	0.994948	0.711370	-0.234746
C162	C	1.035587	0.746211	-0.191101
H163	H	0.981834	0.790723	-0.304209
H164	H	0.932466	0.788490	-0.246504
H165	H	1.018913	0.683862	-0.264367
H166	H	0.969564	0.681616	-0.206652
H167	H	1.011620	0.773731	-0.161476
H168	H	1.060984	0.775962	-0.219186
H169	H	1.061721	0.712563	-0.163013
H170	H	0.975541	0.254887	-0.948455
C171	C	0.981550	0.248257	-1.091429
C172	C	0.971160	0.177795	-1.070717
C173	C	1.011726	0.134034	-1.105645
H174	H	0.973754	0.256579	-1.140807
H175	H	1.023917	0.258039	-1.079782
H176	H	0.928803	0.168017	-1.082369
H177	H	0.978960	0.169451	-1.021344
H178	H	1.054093	0.143817	-1.093998
H179	H	1.003927	0.142363	-1.155022
H180	H	1.004686	0.086222	-1.091592
C181	C	0.781439	0.463500	-0.770025
C182	C	0.787735	0.456756	-0.841997
C183	C	0.744466	0.503302	-0.880723
H184	H	0.739954	0.452756	-0.757612
H185	H	0.789311	0.510399	-0.759893
H186	H	0.779858	0.409868	-0.852125
H187	H	0.829210	0.467506	-0.854432
H188	H	0.752338	0.550201	-0.870592
H189	H	0.702984	0.492554	-0.868304
H190	H	0.748735	0.498737	-0.929560
H191	H	0.638531	0.438251	-0.438417
C192	C	0.806454	0.436495	-1.098810
C193	C	0.771475	0.474053	-1.052373
C194	C	0.728061	0.520641	-1.090825
H195	H	0.828229	0.468418	-1.128769
H196	H	0.778948	0.410694	-1.126426
H197	H	0.798978	0.499852	-1.024768
H198	H	0.749687	0.442149	-1.022413
H199	H	0.700554	0.494840	-1.118442
H200	H	0.749841	0.552559	-1.120783
H201	H	0.704319	0.546125	-1.059324
