data_functionalizedCrystal
_audit_creation_method	'MofGen! by Chris Wilmer'
_symmetry_space_group_name_H-M	'P1'
_symmetry_Int_Tables_number	1
_symmetry_cell_setting	triclinic
loop_
_symmetry_equiv_pos_as_xyz
  x,y,z
_cell_length_a	17.019282
_cell_length_b	27.732046
_cell_length_c	26.809956
_cell_angle_alpha	89.998012
_cell_angle_beta	86.127595
_cell_angle_gamma	96.983222
loop_
_atom_site_label
_atom_site_type_symbol
_atom_site_fract_x
_atom_site_fract_y
_atom_site_fract_z
O1	O	1.045929	-0.061548	-0.003456
O2	O	1.545929	0.438452	0.496544
O3	O	0.816170	-0.069406	0.006418
O4	O	1.316170	0.430594	0.506418
O5	O	0.938186	0.004892	0.001163
O6	O	1.438186	0.504892	0.501163
O7	O	0.923913	-0.135846	0.001799
O8	O	1.423913	0.364154	0.501799
O9	O	0.938163	0.004881	-0.081795
O10	O	1.438163	0.504881	0.418205
O11	O	0.816147	-0.069418	-0.076540
O12	O	1.316147	0.430582	0.423460
O13	O	1.045906	-0.061559	-0.086415
O14	O	1.545906	0.438441	0.413585
Zn15	Zn	0.931023	-0.065490	-0.094649
Zn16	Zn	1.431023	0.434510	0.405351
Zn17	Zn	0.931053	-0.065475	0.014652
Zn18	Zn	1.431053	0.434525	0.514652
O19	O	0.923890	-0.135858	-0.081160
O20	O	1.423890	0.364142	0.418840
C21	C	0.786773	-0.069115	-0.033798
C22	C	1.286773	0.430885	0.466202
C23	C	0.699214	-0.068224	-0.030036
C24	C	1.199214	0.431776	0.469964
C25	C	0.658071	-0.067811	-0.073490
C26	C	1.158071	0.432189	0.426510
C27	C	0.575802	-0.066966	-0.069956
C28	C	1.075802	0.433034	0.430044
C29	C	0.534676	-0.066538	-0.022968
C30	C	1.034676	0.433462	0.477032
C31	C	0.575825	-0.066950	0.020490
C32	C	1.075825	0.433050	0.520490
C33	C	0.658094	-0.067792	0.016955
C34	C	1.158094	0.432208	0.516955
C35	C	0.286280	-0.063995	-0.010034
C36	C	0.786280	0.436005	0.489966
C37	C	0.204005	-0.063155	-0.006503
C38	C	0.704005	0.436845	0.493497
C39	C	0.203987	-0.063170	-0.096949
C40	C	0.703987	0.436830	0.403051
C41	C	0.286257	-0.064014	-0.100479
C42	C	0.786257	0.435986	0.399521
C43	C	0.327399	-0.064423	-0.057022
C44	C	0.827399	0.435577	0.442978
C45	C	0.450584	-0.065676	-0.019354
C46	C	0.950584	0.434324	0.480646
C47	C	0.411491	-0.065282	-0.060635
C48	C	0.911491	0.434718	0.439365
C49	C	0.937875	0.022894	-0.040305
C50	C	1.437875	0.522894	0.459695
C51	C	0.936974	0.076553	-0.040272
C52	C	1.436974	0.576553	0.459728
C53	C	1.003401	0.415112	-0.043109
C54	C	1.503401	0.915112	0.456891
C55	C	1.000056	0.616784	-0.042964
C56	C	1.500056	1.116784	0.457036
O57	O	1.060796	0.647806	-0.045553
O58	O	1.560796	1.147806	0.454447
N59	N	0.927706	0.636188	-0.039855
N60	N	1.427706	1.136188	0.460145
C61	C	0.856187	0.605169	-0.036780
C62	C	1.356187	1.105169	0.463220
O63	O	0.794572	0.626300	-0.034127
O64	O	1.294572	1.126300	0.465873
C65	C	0.859533	0.403497	-0.036922
C66	C	1.359533	0.903497	0.463078
C67	C	0.931888	0.384097	-0.040036
C68	C	1.431888	0.884097	0.459964
C69	C	1.075750	0.395711	-0.046222
C70	C	1.575750	0.895711	0.453778
C71	C	1.076585	0.345296	-0.046261
C72	C	1.576585	0.845296	0.453739
C73	C	1.005072	0.314281	-0.043188
C74	C	1.505072	0.814281	0.456812
C75	C	0.932723	0.333682	-0.040075
C76	C	1.432723	0.833682	0.459925
C77	C	0.788015	0.372480	-0.033843
C78	C	1.288015	0.872480	0.466157
C79	C	0.788858	0.322059	-0.033877
C80	C	1.288858	0.822059	0.466123
C81	C	0.861212	0.302659	-0.036991
C82	C	1.361212	0.802659	0.463009
C83	C	0.862045	0.252252	-0.037040
C84	C	1.362045	0.752252	0.462960
N85	N	0.934395	0.232849	-0.040149
N86	N	1.434395	0.732849	0.459851
C87	C	1.005909	0.263864	-0.043222
C88	C	1.505909	0.763864	0.456778
C89	C	0.854435	0.711050	-0.036706
C90	C	1.354435	1.211050	0.463294
C91	C	0.853599	0.761468	-0.036671
C92	C	1.353599	1.261468	0.463329
C93	C	0.997468	0.773080	-0.042854
C94	C	1.497468	1.273080	0.457146
C95	C	0.998304	0.722661	-0.042893
C96	C	1.498304	1.222661	0.457107
C97	C	0.926786	0.691647	-0.039815
C98	C	1.426786	1.191647	0.460185
C99	C	1.007658	0.157988	-0.043305
C100	C	1.507658	0.657988	0.456695
C101	C	1.008487	0.107567	-0.043346
C102	C	1.508487	0.607567	0.456654
C103	C	0.864618	0.095960	-0.037160
C104	C	1.364618	0.595960	0.462840
C105	C	0.863789	0.146376	-0.037122
C106	C	1.363789	0.646376	0.462878
C107	C	0.935315	0.177389	-0.040193
C108	C	1.435315	0.677389	0.459807
O109	O	0.801337	0.221202	-0.034447
O110	O	1.301337	0.721202	0.465553
O111	O	1.067515	0.242723	-0.045863
O112	O	1.567515	0.742723	0.454137
C113	C	1.002566	0.465527	-0.043070
C114	C	1.502566	0.965527	0.456930
C115	C	0.930217	0.484928	-0.039957
C116	C	1.430217	0.984928	0.460043
C117	C	0.858703	0.453913	-0.036884
C118	C	1.358703	0.953913	0.463116
C119	C	0.929380	0.535345	-0.039923
C120	C	1.429380	1.035345	0.460077
C121	C	1.000893	0.566360	-0.042996
C122	C	1.500893	1.066360	0.457004
C123	C	1.073243	0.546957	-0.046105
C124	C	1.573243	1.046957	0.453895
C125	C	1.074079	0.496542	-0.046144
C126	C	1.574079	0.996542	0.453856
C127	C	0.786353	0.473316	-0.033775
C128	C	1.286353	0.973316	0.466225
C129	C	0.785524	0.523732	-0.033737
C130	C	1.285524	1.023732	0.466263
C131	C	0.857037	0.554746	-0.036811
C132	C	1.357037	1.054746	0.463189
C133	C	1.075303	-0.061851	-0.046197
C134	C	1.575303	0.438149	0.453803
C135	C	1.162862	-0.062741	-0.049957
C136	C	1.662862	0.437259	0.450043
N137	N	0.931008	-0.065500	-0.169244
N138	N	1.431008	0.434500	0.330756
C139	C	0.924203	0.846140	-0.039697
C140	C	1.424203	1.346140	0.460303
C141	C	0.925112	0.792482	-0.039745
C142	C	1.425112	1.292482	0.460255
C143	C	0.985075	-0.032584	-0.516199
C144	C	1.485075	0.467416	-0.016199
C145	C	0.985094	-0.032577	-0.725077
C146	C	1.485094	0.467423	-0.225077
O147	O	1.031032	-0.004593	-0.754060
O148	O	1.531032	0.495407	-0.254060
N149	N	0.931058	-0.065465	-0.748873
N150	N	1.431058	0.434535	-0.248873
C151	C	0.877009	-0.098355	-0.720446
C152	C	1.377009	0.401645	-0.220446
O153	O	0.831043	-0.126325	-0.745479
O154	O	1.331043	0.373675	-0.245479
C155	C	0.876987	-0.098359	-0.511569
C156	C	1.376987	0.401641	-0.011569
C157	C	0.931033	-0.065473	-0.487776
C158	C	1.431033	0.434527	0.012224
C159	C	1.039115	0.000300	-0.492406
C160	C	1.539115	0.500300	0.007594
C161	C	1.039113	0.000296	-0.440189
C162	C	1.539113	0.500296	0.059811
C163	C	0.985070	-0.032592	-0.411766
C164	C	1.485070	0.467408	0.088234
C165	C	0.931030	-0.065477	-0.435559
C166	C	1.431030	0.434523	0.064441
C167	C	0.822936	-0.131247	-0.483142
C168	C	1.322936	0.368753	0.016858
C169	C	0.822934	-0.131244	-0.430920
C170	C	1.322934	0.368756	0.069080
C171	C	0.876979	-0.098357	-0.407127
C172	C	1.376979	0.401643	0.092873
C173	C	0.876985	-0.098369	-0.354920
C174	C	1.376985	0.401631	0.145080
N175	N	0.931022	-0.065481	-0.331124
N176	N	1.431022	0.434519	0.168876
C177	C	0.985064	-0.032593	-0.359547
C178	C	1.485064	0.467407	0.140453
C179	C	0.877026	-0.098351	-0.830110
C180	C	1.377026	0.401649	-0.330110
C181	C	0.877032	-0.098350	-0.882330
C182	C	1.377032	0.401650	-0.382330
C183	C	0.985116	-0.032571	-0.886957
C184	C	1.485116	0.467429	-0.386957
C185	C	0.985113	-0.032575	-0.834737
C186	C	1.485113	0.467425	-0.334737
C187	C	0.931062	-0.065463	-0.806314
C188	C	1.431062	0.434537	-0.306314
C189	C	0.985055	-0.032604	-0.249889
C190	C	1.485055	0.467396	0.250111
C191	C	0.985050	-0.032612	-0.197667
C192	C	1.485050	0.467388	0.302333
C193	C	0.876964	-0.098389	-0.193044
C194	C	1.376964	0.401611	0.306956
C195	C	0.876972	-0.098382	-0.245261
C196	C	1.376972	0.401618	0.254739
C197	C	0.931020	-0.065486	-0.273682
C198	C	1.431020	0.434514	0.226318
O199	O	0.831066	-0.126334	-0.325906
O200	O	1.331066	0.373666	0.174094
O201	O	1.031012	-0.004620	-0.334505
O202	O	1.531012	0.495380	0.165495
C203	C	0.985077	-0.032580	-0.568415
C204	C	1.485077	0.467420	-0.068415
C205	C	0.931037	-0.065465	-0.592209
C206	C	1.431037	0.434535	-0.092209
C207	C	0.876995	-0.098353	-0.563785
C208	C	1.376995	0.401647	-0.063785
C209	C	0.931044	-0.065464	-0.644428
C210	C	1.431044	0.434536	-0.144428
C211	C	0.985086	-0.032576	-0.672851
C212	C	1.485086	0.467424	-0.172851
C213	C	1.039122	0.000312	-0.649055
C214	C	1.539122	0.500312	-0.149055
C215	C	1.039120	0.000308	-0.596838
C216	C	1.539120	0.500308	-0.096838
C217	C	0.822959	-0.131241	-0.587581
C218	C	1.322959	0.368759	-0.087581
C219	C	0.822966	-0.131235	-0.639798
C220	C	1.322966	0.368765	-0.139798
C221	C	0.877008	-0.098346	-0.668221
C222	C	1.377008	0.401654	-0.168221
N223	N	0.931074	-0.065462	0.089247
N224	N	1.431074	0.434538	0.589247
H225	H	1.067409	0.091775	-0.045883
H226	H	1.567409	0.591775	0.454117
Cl227	Cl	0.809097	-0.139702	-0.912235
Cl228	Cl	1.309097	0.360298	-0.412235
H229	H	0.833010	-0.125133	-0.806972
H230	H	1.333010	0.374867	-0.306972
H231	H	1.132998	0.480751	-0.048679
H232	H	1.632998	0.980751	0.451321
Cl233	Cl	0.754989	-0.172591	-0.513043
Cl234	Cl	1.254989	0.327409	-0.013043
Cl235	Cl	0.696441	0.434333	-0.029910
Cl236	Cl	1.196441	0.934333	0.470090
H237	H	1.083119	0.027077	-0.420820
H238	H	1.583119	0.527077	0.079180
H239	H	1.029120	-0.005795	-0.815368
H240	H	1.529120	0.494205	-0.315368
H241	H	1.029066	-0.005816	-0.273023
H242	H	1.529066	0.494184	0.226977
H243	H	1.065901	0.183233	-0.045803
H244	H	1.565901	0.683233	0.454197
Cl245	Cl	0.694554	0.548113	-0.029824
Cl246	Cl	1.194554	1.048113	0.470176
Cl247	Cl	1.107064	0.041651	-0.528130
Cl248	Cl	1.607064	0.541651	-0.028130
Cl249	Cl	0.152305	-0.062619	0.052573
Cl250	Cl	0.652305	0.437381	0.552573
H251	H	0.778950	-0.158022	-0.564443
H252	H	1.278950	0.341978	-0.064443
H253	H	1.083128	0.027088	-0.577470
H254	H	1.583128	0.527088	-0.077470
H255	H	0.778917	-0.158025	-0.407780
H256	H	1.278917	0.341975	0.092220
Cl257	Cl	1.167551	0.320915	-0.050162
Cl258	Cl	1.667551	0.820915	0.449838
H259	H	0.804871	0.162172	-0.034600
H260	H	1.304871	0.662172	0.465400
Cl261	Cl	1.163145	0.585956	-0.049971
Cl262	Cl	1.663145	1.085956	0.450029
Cl263	Cl	0.398881	-0.065117	0.039715
Cl264	Cl	0.898881	0.434883	0.539715
H265	H	0.691548	-0.068163	-0.111753
H266	H	1.191548	0.431837	0.388247
Cl267	Cl	1.053053	0.008774	-0.922699
Cl268	Cl	1.553053	0.508774	-0.422699
Cl269	Cl	0.524080	-0.066455	-0.124587
Cl270	Cl	1.024080	0.433545	0.375413
H271	H	1.133988	0.420959	-0.048724
H272	H	1.633988	0.920959	0.451276
H273	H	0.542335	-0.066599	0.058749
H274	H	1.042335	0.433401	0.558749
Cl275	Cl	1.089267	0.698278	-0.046807
Cl276	Cl	1.589267	1.198278	0.453193
Cl277	Cl	1.107063	0.041656	-0.684797
Cl278	Cl	1.607063	0.541656	-0.184797
Cl279	Cl	1.087370	0.812079	-0.046716
Cl280	Cl	1.587370	1.312079	0.453284
H281	H	0.794680	0.777258	-0.034145
H282	H	1.294680	1.277258	0.465855
H283	H	0.691591	-0.068129	0.052340
H284	H	1.191591	0.431871	0.552340
H285	H	0.832971	-0.125166	-0.264634
H286	H	1.332971	0.374834	0.235366
H287	H	0.319736	-0.064360	-0.138742
H288	H	0.819736	0.435640	0.361258
H289	H	1.029063	-0.005831	-0.178297
H290	H	1.529063	0.494169	0.321703
Cl291	Cl	0.463193	-0.065818	-0.119705
Cl292	Cl	0.963193	0.434182	0.380295
H293	H	0.170480	-0.062835	-0.132329
H294	H	0.670480	0.437165	0.367671
H295	H	0.832966	-0.125167	-0.169894
H296	H	1.332966	0.374833	0.330106
H297	H	0.729096	0.388266	-0.031304
H298	H	1.229096	0.888266	0.468696
H299	H	0.319769	-0.064327	0.025352
H300	H	0.819769	0.435673	0.525352
H301	H	0.796193	0.685802	-0.034200
H302	H	1.296193	1.185802	0.465800
Cl303	Cl	0.698943	0.283072	-0.030007
Cl304	Cl	1.198943	0.783072	0.469993
Cl305	Cl	0.755020	-0.172584	-0.669703
Cl306	Cl	1.255020	0.327416	-0.169703
H307	H	0.806394	0.070699	-0.034659
H308	H	1.306394	0.570699	0.465341
