data_functionalizedCrystal
_audit_creation_method	'MofGen! by Chris Wilmer'
_symmetry_space_group_name_H-M	'P1'
_symmetry_Int_Tables_number	1
_symmetry_cell_setting	triclinic
loop_
_symmetry_equiv_pos_as_xyz
  x,y,z
_cell_length_a	6.817900
_cell_length_b	10.992668
_cell_length_c	10.992410
_cell_angle_alpha	91.832960
_cell_angle_beta	108.764651
_cell_angle_gamma	108.769342
loop_
_atom_site_label
_atom_site_type_symbol
_atom_site_fract_x
_atom_site_fract_y
_atom_site_fract_z
V1	V	-4.114280	-0.177763	-0.400588
O2	O	-4.072374	0.008542	-0.392968
O3	O	-4.091890	-0.352475	-0.397843
O4	O	-4.091871	-0.175029	-0.575300
O5	O	-4.072393	-0.170132	-0.214282
V6	V	-4.591170	-0.155479	-0.378305
O7	O	-4.390089	-0.226646	-0.449467
O8	O	-4.765558	-0.106597	-0.329425
O9	O	-4.390353	0.019232	-0.381050
O10	O	-4.750472	-0.341785	-0.385925
O11	O	-4.750453	-0.163110	-0.564611
O12	O	-4.390371	-0.158213	-0.203592
C13	C	-3.942377	-0.395066	-0.391522
C14	C	-4.005531	-0.537895	-0.390442
C15	C	-4.252012	-0.600203	-0.397771
C16	C	-4.317510	-0.748689	-0.396139
C17	C	-3.920752	-0.718266	-0.261985
C18	C	-3.856485	-0.569698	-0.263077
C19	C	-3.980036	-0.607725	-0.508433
C20	C	-4.050700	-0.756740	-0.509050
C21	C	-3.942352	-0.168714	-0.617885
C22	C	-4.005486	-0.167635	-0.760713
C23	C	-3.872608	-0.157798	-0.955837
C24	C	-3.807058	-0.159453	-0.807354
C25	C	-4.203525	-0.294317	-0.837814
C26	C	-4.267838	-0.293197	-0.986380
C27	C	-4.145561	-0.047894	-0.948356
C28	C	-4.074851	-0.047294	-0.799343
C29	C	-4.203208	0.061817	-0.387367
C30	C	-4.119294	0.204644	-0.388455
C31	C	-4.203232	-0.164532	-0.161001
C32	C	-4.119335	-0.165605	-0.018171
H33	H	-3.770509	-0.747089	-0.251787
H34	H	-4.216964	-0.045806	-0.766831
N35	N	-3.895111	0.070263	-0.733658
N36	N	-3.716536	0.065535	-0.658654
H37	H	-3.589589	0.148557	-0.612251
H38	H	-4.276404	-0.552199	-0.312984
N39	N	-4.370096	-0.053678	-0.999600
N40	N	-4.510379	-0.144008	-1.087149
H41	H	-4.668960	-0.148103	-1.123349
H42	H	-4.157779	-0.383665	-0.812206
H43	H	-4.353903	-0.304879	-0.809010
H44	H	-3.749893	-0.245204	-0.782536
H45	H	-4.449842	-0.304212	-1.029011
H46	H	-3.658586	-0.068363	-0.754016
H47	H	-4.252292	-0.382325	-1.032648
H48	H	-4.083386	-0.587355	-0.604487
H49	H	-3.908802	-0.789286	-0.510910
N50	N	-4.016430	0.072780	-0.973907
N51	N	-3.903493	0.073490	-1.043894
H52	H	-3.812275	0.158710	-1.061941
N53	N	-3.755730	-0.556511	-0.503088
N54	N	-3.615075	-0.468973	-0.412865
H55	H	-3.456656	-0.432797	-0.409077
H56	H	-3.965929	-0.743867	-0.172458
H57	H	-4.466340	-0.802018	-0.487059
N58	N	-4.388546	-0.779819	-0.288323
N59	N	-4.550371	-0.754564	-0.280074
H60	H	-4.600537	-0.776547	-0.203921
N61	N	-3.725653	-0.042750	-0.979543
N62	N	-3.743358	-0.024198	-1.093583
H63	H	-3.639603	0.057058	-1.110356
N64	N	-3.875298	-0.511651	-0.151016
N65	N	-3.935713	-0.580936	-0.072549
H66	H	-3.949006	-0.539947	0.006598
H67	H	-3.674642	-0.527088	-0.252431
H68	H	-3.847685	-0.242374	-1.003827
H69	H	-4.194355	-0.809075	-0.602609
N70	N	-4.399494	-0.576377	-0.512495
N71	N	-4.324676	-0.513201	-0.590202
H72	H	-4.428823	-0.496295	-0.671189
