data_functionalizedCrystal
_audit_creation_method	'MofGen! by Chris Wilmer'
_symmetry_space_group_name_H-M	'P1'
_symmetry_Int_Tables_number	1
_symmetry_cell_setting	triclinic
loop_
_symmetry_equiv_pos_as_xyz
  x,y,z
_cell_length_a	12.759401
_cell_length_b	12.759400
_cell_length_c	12.759401
_cell_angle_alpha	90.007193
_cell_angle_beta	90.004381
_cell_angle_gamma	90.014845
loop_
_atom_site_label
_atom_site_type_symbol
_atom_site_fract_x
_atom_site_fract_y
_atom_site_fract_z
Zn1	Zn	1.606109	-0.418453	0.593981
Zn2	Zn	2.106109	0.081547	1.093981
Zn3	Zn	1.606047	-0.594097	0.418301
Zn4	Zn	2.106047	-0.094097	0.918301
Zn5	Zn	1.430454	-0.418433	0.418320
Zn6	Zn	1.930454	0.081567	0.918320
Zn7	Zn	1.430400	-0.594090	0.593942
Zn8	Zn	1.930400	-0.094090	1.093942
O9	O	1.518253	-0.506268	0.506136
O10	O	2.018253	-0.006268	1.006136
O11	O	1.753122	-0.441763	0.570685
O12	O	2.253122	0.058237	1.070685
O13	O	1.582751	-0.570789	0.271283
O14	O	2.082751	-0.070789	0.771283
O15	O	1.453804	-0.271414	0.441646
O16	O	1.953804	0.228586	0.941646
O17	O	1.753076	-0.570808	0.441613
O18	O	2.253076	-0.070808	0.941613
O19	O	1.582857	-0.271429	0.570703
O20	O	2.082857	0.228571	1.070703
O21	O	1.453744	-0.441729	0.271297
O22	O	1.953744	0.058271	0.771297
O23	O	1.283426	-0.441723	0.441609
O24	O	1.783426	0.058277	0.941609
O25	O	1.453711	-0.570797	0.740969
O26	O	1.953711	-0.070797	1.240969
O27	O	1.283386	-0.570778	0.570638
O28	O	1.783386	-0.070778	1.070638
O29	O	1.582804	-0.441757	0.740997
O30	O	2.082804	0.058243	1.240997
O31	O	1.582698	-0.741117	0.441576
O32	O	2.082698	-0.241117	0.941576
O33	O	1.453651	-0.741112	0.570619
O34	O	1.953651	-0.241112	1.070619
C35	C	1.245285	-0.506249	0.506122
C36	C	1.745285	-0.006249	1.006122
C37	C	1.128509	-0.506266	0.506141
C38	C	1.628509	-0.006266	1.006141
C39	C	1.073653	-0.573572	0.573215
C40	C	1.573653	-0.073572	1.073215
C41	C	0.963929	-0.573586	0.573226
C42	C	1.463929	-0.073586	1.073226
C43	C	0.963925	-0.438983	0.439080
C44	C	1.463925	0.061017	0.939080
C45	C	1.073648	-0.438965	0.439075
C46	C	1.573648	0.061035	0.939075
C47	C	1.128514	-0.640873	0.640281
C48	C	1.628514	-0.140873	1.140281
C49	C	1.073659	-0.708185	0.707359
C50	C	1.573659	-0.208185	1.207359
C51	C	0.963935	-0.708199	0.707371
C52	C	1.463935	-0.208199	1.207371
C53	C	0.909066	-0.640899	0.640303
C54	C	1.409066	-0.140899	1.140303
C55	C	1.518190	-0.779235	0.506114
C56	C	2.018190	-0.279235	1.006114
C57	C	1.518260	-0.896012	0.506140
C58	C	2.018260	-0.396012	1.006140
C59	C	1.585529	-0.950842	0.439022
C60	C	2.085529	-0.450842	0.939022
C61	C	1.585593	-1.060566	0.439054
C62	C	2.085593	-0.560566	0.939054
C63	C	1.451110	-1.060621	0.573326
C64	C	1.951110	-0.560621	1.073326
C65	C	1.451052	-0.950899	0.573298
C66	C	1.951052	-0.450899	1.073298
C67	C	1.652737	-0.895955	0.371863
C68	C	2.152737	-0.395955	0.871863
C69	C	1.720011	-0.950784	0.304739
C70	C	2.220011	-0.450784	0.804739
C71	C	1.720075	-1.060508	0.304771
C72	C	2.220075	-0.560508	0.804771
C73	C	1.652866	-1.115403	0.371928
C74	C	2.152866	-0.615403	0.871928
C75	C	1.792286	-0.506288	0.506151
C76	C	2.292286	-0.006288	1.006151
C77	C	1.909062	-0.506297	0.506158
C78	C	2.409062	-0.006297	1.006158
C79	C	1.518259	-0.506279	0.780169
C80	C	2.018259	-0.006279	1.280169
C81	C	1.518261	-0.506283	0.896946
C82	C	2.018261	-0.006283	1.396946
C83	C	1.518344	-0.232235	0.506181
C84	C	2.018344	0.267765	1.006181
C85	C	1.518383	-0.115458	0.506200
C86	C	2.018383	0.384542	1.006200
C87	C	1.585467	-0.439098	1.061549
C88	C	2.085467	0.060902	1.561549
C89	C	1.585472	-0.439100	0.951825
C90	C	2.085472	0.060900	1.451825
C91	C	1.451048	-0.573477	0.951797
C92	C	1.951048	-0.073477	1.451797
C93	C	1.451050	-0.573479	1.061519
C94	C	1.951050	-0.073479	1.561519
C95	C	1.652675	-0.371902	1.116423
C96	C	2.152675	0.128098	1.616423
C97	C	1.719889	-0.304710	1.061580
C98	C	2.219889	0.195290	1.561580
C99	C	1.719894	-0.304712	0.951856
C100	C	2.219894	0.195288	1.451856
C101	C	1.652685	-0.371906	0.896975
C102	C	2.152685	0.128094	1.396975
C103	C	1.518244	-0.506283	1.233169
C104	C	2.018244	-0.006283	1.733169
C105	C	1.518257	-0.506284	1.116392
C106	C	2.018257	-0.006284	1.616392
H107	H	1.118312	-0.384151	0.384465
H108	H	1.618312	0.115849	0.884465
Cl109	Cl	1.366621	-1.129632	0.657742
Cl110	Cl	1.866621	-0.629632	1.157742
Cl111	Cl	1.652516	-1.253342	0.371532
Cl112	Cl	2.152516	-0.753342	0.871532
Cl113	Cl	1.804507	-0.881776	0.220328
Cl114	Cl	2.304507	-0.381776	0.720328
Cl115	Cl	1.804385	-0.220252	1.130571
Cl116	Cl	2.304385	0.279748	1.630571
Cl117	Cl	1.366485	-0.881965	0.657679
Cl118	Cl	1.866485	-0.381965	1.157679
Cl119	Cl	1.652672	-0.371894	1.254361
Cl120	Cl	2.152672	0.128106	1.754361
H121	H	1.774630	-0.250008	0.907206
H122	H	2.274630	0.249992	1.407206
Cl123	Cl	1.366558	-0.657938	0.882802
Cl124	Cl	1.866558	-0.157938	1.382802
H125	H	1.652702	-0.371911	0.807630
H126	H	2.152702	0.128089	1.307630
H127	H	1.652689	-0.806612	0.371827
H128	H	2.152689	-0.306612	0.871827
H129	H	1.396322	-0.628188	1.106173
H130	H	1.896322	-0.128188	1.606173
H131	H	1.118340	-0.762971	0.761970
H132	H	1.618340	-0.262971	1.261970
H133	H	1.774860	-1.105148	0.250123
H134	H	2.274860	-0.605148	0.750123
Cl135	Cl	0.894976	-0.792810	0.791705
Cl136	Cl	1.394976	-0.292810	1.291705
H137	H	1.217857	-0.640871	0.640277
H138	H	1.717857	-0.140871	1.140277
Cl139	Cl	0.894947	-0.354388	0.354771
Cl140	Cl	1.394947	0.145612	0.854771
Cl141	Cl	0.771126	-0.640910	0.640329
Cl142	Cl	1.271126	-0.140910	1.140329
