data_functionalizedCrystal
_audit_creation_method	'MofGen! by Chris Wilmer'
_symmetry_space_group_name_H-M	'P1'
_symmetry_Int_Tables_number	1
_symmetry_cell_setting	triclinic
loop_
_symmetry_equiv_pos_as_xyz
  x,y,z
_cell_length_a	14.044220
_cell_length_b	15.944551
_cell_length_c	12.503572
_cell_angle_alpha	93.522593
_cell_angle_beta	86.164750
_cell_angle_gamma	88.343808
loop_
_atom_site_label
_atom_site_type_symbol
_atom_site_fract_x
_atom_site_fract_y
_atom_site_fract_z
O1	O	1.263178	0.198062	-0.089210
O2	O	0.987210	0.190753	-0.089237
O3	O	1.132730	0.072697	-0.089213
O4	O	1.117659	0.316117	-0.089234
O5	O	1.121786	0.081592	0.089427
O6	O	0.976267	0.199647	0.089403
O7	O	1.252235	0.206956	0.089430
Cu8	Cu	1.113251	0.204114	0.105728
Cu9	Cu	1.126194	0.193595	-0.105535
O10	O	1.106715	0.325012	0.089406
C11	C	0.946424	0.192001	0.000079
C12	C	0.841198	0.182459	0.000069
C13	C	0.648534	0.165017	0.000092
C14	C	0.590906	0.232688	0.000091
C15	C	0.483701	0.222983	0.000104
C16	C	0.755749	0.174721	0.000079
C17	C	1.126632	0.045804	0.000107
C18	C	1.124756	-0.047583	0.000107
C19	C	1.030073	-0.269530	0.000083
C20	C	1.068645	-0.322870	0.088168
C21	C	1.121363	-0.218563	0.000099
C22	C	1.079457	-0.331621	-0.087957
C23	C	1.118079	-0.383722	0.000086
C24	C	1.159956	-0.270669	0.088256
C25	C	1.170759	-0.279418	-0.087948
C26	C	1.209396	-0.332734	0.000158
C27	C	1.123252	-0.123419	0.000107
C28	C	1.116197	-0.478865	0.000085
C29	C	1.293021	0.205708	0.000111
C30	C	1.398247	0.215249	0.000114
C31	C	1.112813	0.351905	0.000083
C32	C	1.114689	0.445291	0.000076
N33	N	1.104155	0.211512	0.254318
N34	N	1.135297	0.186191	-0.254126
C35	C	1.090774	0.222403	0.473431
C36	C	1.148675	0.175303	0.526768
C37	C	1.141230	0.181362	0.648690
C38	C	1.098218	0.216344	0.351498
H39	H	1.025471	-0.342162	0.162629
O40	O	0.611197	0.087268	0.000049
C41	C	0.510917	0.094767	0.000084
H42	H	0.489893	0.156928	-0.033732
H43	H	0.478144	0.092937	0.085789
C44	C	0.499869	-0.054886	-0.028439
C45	C	0.474048	0.021458	-0.069981
H46	H	0.477125	-0.100107	-0.071653
H47	H	0.567429	-0.059939	-0.028458
H48	H	0.472557	-0.056399	0.042981
H49	H	0.501370	0.022975	-0.141394
H50	H	0.406491	0.026510	-0.069975
H51	H	1.193969	-0.244078	0.162806
H52	H	1.285235	-0.360211	0.000215
O53	O	1.214272	0.121567	0.472008
C54	C	1.167149	0.062808	0.407136
H55	H	1.094127	0.090093	0.390314
H56	H	1.157772	0.002483	0.450592
C57	C	1.316670	0.009740	0.320959
C58	C	1.226986	0.043256	0.300289
H59	H	1.353581	-0.002324	0.255052
H60	H	1.348418	0.049325	0.364666
H61	H	1.308843	-0.040526	0.357174
H62	H	1.234813	0.093527	0.264087
H63	H	1.195240	0.003679	0.256573
H64	H	0.622081	0.297911	0.000080
O65	O	1.025056	0.275924	0.528350
C66	C	1.032155	0.270126	0.639619
H67	H	1.106548	0.245040	0.654837
H68	H	0.976490	0.225600	0.671544
C69	C	0.923241	0.388637	0.678789
C70	C	1.014614	0.357833	0.697481
H71	H	0.912417	0.442737	0.714483
H72	H	0.918455	0.392541	0.603825
H73	H	0.876864	0.351524	0.705394
H74	H	1.060990	0.394940	0.670864
H75	H	1.019408	0.353937	0.772442
H76	H	0.954293	-0.241893	0.000164
H77	H	1.213901	-0.260107	-0.162413
O78	O	1.038693	-0.363352	-0.176767
C79	C	0.944159	-0.331017	-0.176424
H80	H	0.936456	-0.269391	-0.124859
H81	H	0.892892	-0.378238	-0.142053
C82	C	0.930012	-0.390843	-0.355468
C83	C	0.920554	-0.315150	-0.292142
H84	H	0.915449	-0.381059	-0.426848
H85	H	0.993701	-0.412631	-0.355698
H86	H	0.887289	-0.430187	-0.326813
H87	H	0.963285	-0.275812	-0.320790
H88	H	0.856872	-0.293355	-0.291919
