data_functionalizedCrystal
_audit_creation_method	'MofGen! by Chris Wilmer'
_symmetry_space_group_name_H-M	'P1'
_symmetry_Int_Tables_number	1
_symmetry_cell_setting	triclinic
loop_
_symmetry_equiv_pos_as_xyz
  x,y,z
_cell_length_a	10.686220
_cell_length_b	18.101395
_cell_length_c	10.685880
_cell_angle_alpha	94.338576
_cell_angle_beta	89.641569
_cell_angle_gamma	94.412841
loop_
_atom_site_label
_atom_site_type_symbol
_atom_site_fract_x
_atom_site_fract_y
_atom_site_fract_z
Zn1	Zn	1.972144	-0.231178	-0.562366
Zn2	Zn	1.955871	-0.346339	-0.352610
Zn3	Zn	1.746273	-0.232688	-0.368689
Zn4	Zn	1.762280	-0.365163	-0.578382
O5	O	1.859142	-0.293842	-0.465512
O6	O	2.145532	-0.237945	-0.521110
O7	O	1.914559	-0.324017	-0.179202
O8	O	1.776347	-0.128851	-0.394407
O9	O	2.133577	-0.322553	-0.367004
O10	O	1.942293	-0.127742	-0.536701
O11	O	1.760568	-0.240518	-0.191015
O12	O	1.572850	-0.258770	-0.409936
O13	O	1.803628	-0.354636	-0.751798
O14	O	1.584610	-0.356100	-0.563997
O15	O	1.957814	-0.256198	-0.740032
O16	O	1.930080	-0.452473	-0.382533
O17	O	1.787849	-0.466303	-0.548406
C18	C	1.533212	-0.309642	-0.490450
C19	C	1.393780	-0.316420	-0.501148
C20	C	1.858971	-0.486259	-0.465488
C21	C	1.859016	-0.568572	-0.465511
C22	C	1.859297	-0.867653	-0.465557
C23	C	1.770052	-0.845059	-0.570143
C24	C	1.769569	-0.759451	-0.569875
C25	C	1.859158	-0.719276	-0.465535
C26	C	1.813222	-0.746683	-0.336069
C27	C	1.812643	-0.832383	-0.336699
C28	C	1.994600	-0.830961	-0.489256
C29	C	1.994042	-0.745468	-0.492216
C30	C	1.859081	-0.635419	-0.465514
C31	C	1.859370	-0.951509	-0.465569
C32	C	2.186345	-0.277981	-0.440477
C33	C	2.325779	-0.271222	-0.429809
C34	C	1.884322	-0.307348	-0.792703
C35	C	1.895052	-0.313104	-0.932133
C36	C	1.859350	-0.100673	-0.465561
C37	C	1.859438	-0.018356	-0.465582
C38	C	1.834133	-0.280331	-0.139588
C39	C	1.823646	-0.274355	-0.000140
H40	H	1.799484	-0.741364	-0.666190
H41	H	1.964404	-0.350685	-0.980582
C42	C	1.810188	-0.876879	-0.700716
N43	N	1.840419	-0.900852	-0.799066
H44	H	1.754293	-0.236780	-0.951697
H45	H	1.374229	-0.227341	-0.360546
H46	H	1.345323	-0.360309	-0.570408
C47	C	1.635673	-0.879379	-0.550330
N48	N	1.534458	-0.905227	-0.535399
C49	C	2.089724	-0.707896	-0.395710
N50	N	2.161788	-0.679597	-0.323011
H51	H	1.669484	-0.742871	-0.554978
H52	H	1.874276	-0.846727	-0.256663
C53	C	1.897660	-0.710522	-0.228521
N54	N	1.961259	-0.683282	-0.147516
C55	C	1.678616	-0.864215	-0.307991
N56	N	1.577663	-0.888187	-0.286373
H57	H	2.034503	-0.854854	-0.581519
H58	H	1.715002	-0.728745	-0.314220
H59	H	2.061215	-0.844781	-0.412958
C60	C	2.040621	-0.721604	-0.620838
N61	N	2.075709	-0.703615	-0.717709
