data_functionalizedCrystal
_audit_creation_method	'MofGen! by Chris Wilmer'
_symmetry_space_group_name_H-M	'P1'
_symmetry_Int_Tables_number	1
_symmetry_cell_setting	triclinic
loop_
_symmetry_equiv_pos_as_xyz
  x,y,z
_cell_length_a	18.050591
_cell_length_b	19.120786
_cell_length_c	18.050582
_cell_angle_alpha	92.465003
_cell_angle_beta	90.020922
_cell_angle_gamma	92.460873
loop_
_atom_site_label
_atom_site_type_symbol
_atom_site_fract_x
_atom_site_fract_y
_atom_site_fract_z
Zn1	Zn	1.122689	-0.279748	0.407398
Zn2	Zn	1.117309	-0.397198	0.277904
Zn3	Zn	0.998508	-0.279751	0.283209
Zn4	Zn	0.993167	-0.397160	0.402042
O5	O	1.057918	-0.338464	0.342638
O6	O	1.225899	-0.295342	0.390242
O7	O	1.101533	-0.381635	0.174683
O8	O	1.019469	-0.181461	0.304145
O9	O	1.221946	-0.381632	0.295104
O10	O	1.110704	-0.181458	0.395386
O11	O	1.014251	-0.295347	0.178580
O12	O	0.893876	-0.295311	0.298951
O13	O	1.010365	-0.381569	0.506677
O14	O	0.889951	-0.381571	0.386256
O15	O	1.105524	-0.295306	0.510613
O16	O	1.096354	-0.495482	0.289909
O17	O	1.005147	-0.495455	0.381112
C18	C	0.864967	-0.338438	0.342598
C19	C	0.782421	-0.338444	0.342598
C20	C	0.585086	-0.291481	0.295238
C21	C	0.532780	-0.355544	0.274069
C22	C	0.631290	-0.338465	0.342631
C23	C	0.536513	-0.274424	0.363797
C24	C	0.485304	-0.338480	0.342661
C25	C	0.580070	-0.402562	0.321425
C26	C	0.583809	-0.321399	0.411186
C27	C	0.531524	-0.385506	0.390041
C28	C	0.715389	-0.338455	0.342612
C29	C	0.401207	-0.338497	0.342680
C30	C	1.049607	-0.520954	0.334370
C31	C	1.046119	-0.599024	0.330858
C32	C	1.091947	-0.635640	0.376751
C33	C	1.088667	-0.708995	0.373452
C34	C	1.039563	-0.745733	0.324256
C35	C	0.993730	-0.709112	0.278361
C36	C	0.997007	-0.635758	0.281664
C37	C	1.027291	-0.967217	0.311907
C38	C	1.024019	-1.040576	0.308606
C39	C	1.118955	-1.040454	0.403698
C40	C	1.122231	-0.967099	0.406994
C41	C	1.076395	-0.930484	0.361102
C42	C	1.036210	-0.820713	0.320881
C43	C	1.079744	-0.855505	0.364481
C44	C	1.251623	-0.338491	0.342679
C45	C	1.334168	-0.338502	0.342696
C46	C	1.057949	-0.338433	0.536345
C47	C	1.057962	-0.338420	0.618892
C48	C	1.066282	-0.155262	0.350955
C49	C	1.069846	-0.077191	0.354499
C50	C	1.057933	-0.338444	0.149687
C51	C	1.058073	-0.338260	0.067150
C52	C	1.006255	-0.385265	0.816205
C53	C	1.073236	-0.402439	0.864828
C54	C	1.058001	-0.338366	0.770025
C55	C	0.991057	-0.321173	0.868484
C56	C	1.058032	-0.338316	0.916012
C57	C	1.125016	-0.355573	0.817559
C58	C	1.042793	-0.274278	0.821212
C59	C	1.109822	-0.291427	0.869814
C60	C	1.057981	-0.338397	0.685925
C61	C	1.058059	-0.338285	1.000110
H62	H	0.510391	-0.369990	0.216106
O63	O	0.952414	-0.600154	0.237191
C64	C	0.855881	-0.517382	0.230831
C65	C	0.906330	-0.557672	0.281280
H66	H	0.818620	-0.483014	0.266456
H67	H	0.820168	-0.556206	0.195114
H68	H	0.891550	-0.483063	0.193565
H69	H	0.870718	-0.591992	0.318591
H70	H	0.942047	-0.518811	0.316947
H71	H	0.989971	-0.937411	0.274539
H72	H	0.962532	-0.424978	0.792735
H73	H	0.606217	-0.306933	0.469133
H74	H	1.119722	-0.825591	0.404539
H75	H	0.608531	-0.251791	0.255112
H76	H	0.508210	-0.425291	0.430130
O77	O	0.513663	-0.209754	0.385060
C78	C	0.514996	-0.087147	0.359065
C79	C	0.540936	-0.160343	0.334920
H80	H	0.537022	-0.047180	0.318530
H81	H	0.536899	-0.072149	0.417090
H82	H	0.451810	-0.087934	0.359426
H83	H	0.604117	-0.159611	0.334514
H84	H	0.518977	-0.175312	0.276909
O85	O	1.088501	-0.467063	0.887895
C86	C	1.046347	-0.566321	0.956776
C87	C	1.028983	-0.493132	0.930723
H88	H	0.998231	-0.587426	0.991394
H89	H	1.099085	-0.562533	0.991749
H90	H	1.054563	-0.603209	0.906419
H91	H	1.020730	-0.456204	0.981036
H92	H	0.976263	-0.496975	0.895725
H93	H	1.181657	-0.370156	0.795304
O94	O	1.162195	-0.244165	0.897619
C95	C	1.291918	-0.208862	0.903007
C96	C	1.232683	-0.262440	0.871479
H97	H	1.348919	-0.223609	0.881874
H98	H	1.291286	-0.208862	0.966162
H99	H	1.279386	-0.154414	0.884286
H100	H	1.245174	-0.316913	0.890145
H101	H	1.233328	-0.262379	0.808328
H102	H	0.996232	-0.850634	0.280823
H103	H	1.131936	-0.605733	0.416808
H104	H	0.599207	-0.456743	0.303471
H105	H	1.156270	-1.070273	0.441062
H106	H	1.125990	-0.738805	0.410817
O107	O	1.027272	-0.209687	0.798246
C108	C	0.939135	-0.118543	0.798143
C109	C	0.956622	-0.191704	0.824189
H110	H	0.882022	-0.103975	0.819120
H111	H	0.939762	-0.119052	0.734968
H112	H	0.982707	-0.078416	0.821104
H113	H	0.913068	-0.231872	0.801281
H114	H	0.956021	-0.191137	0.887366
O115	O	1.169952	-0.931522	0.454846
C116	C	1.263813	-0.939145	0.548773
C117	C	1.209783	-0.979522	0.494633
H118	H	1.296041	-0.977936	0.580944
H119	H	1.231267	-0.904824	0.589167
H120	H	1.304167	-0.904776	0.516243
H121	H	1.169417	-1.013930	0.527101
H122	H	1.242377	-1.013799	0.454239
O123	O	0.923445	-0.303927	0.895050
C124	C	0.792482	-0.333950	0.897889
C125	C	0.869006	-0.353544	0.867739
H126	H	0.748450	-0.374063	0.875833
H127	H	0.779017	-0.279739	0.879148
H128	H	0.793340	-0.333566	0.961056
H129	H	0.868206	-0.353968	0.804572
H130	H	0.882441	-0.407742	0.886538
O131	O	0.946096	-0.744905	0.230590
C132	C	0.898946	-0.857962	0.183383
C133	C	0.952936	-0.817516	0.237509
H134	H	0.904447	-0.916674	0.188970
H135	H	0.912670	-0.843609	0.124144
H136	H	0.839706	-0.843537	0.197004
H137	H	1.012195	-0.831919	0.223956
H138	H	0.939148	-0.831872	0.296732
H139	H	0.984029	-1.070485	0.268544
