data_functionalizedCrystal
_audit_creation_method	'MofGen! by Chris Wilmer'
_symmetry_space_group_name_H-M	'P1'
_symmetry_Int_Tables_number	1
_symmetry_cell_setting	triclinic
loop_
_symmetry_equiv_pos_as_xyz
  x,y,z
_cell_length_a	13.635800
_cell_length_b	19.590947
_cell_length_c	19.551823
_cell_angle_alpha	83.785591
_cell_angle_beta	78.336624
_cell_angle_gamma	102.205388
loop_
_atom_site_label
_atom_site_type_symbol
_atom_site_fract_x
_atom_site_fract_y
_atom_site_fract_z
V1	V	2.001658	0.218187	-0.097408
O2	O	2.000270	0.213698	0.003928
O3	O	1.973043	0.217018	-0.192419
O4	O	1.974378	0.313199	-0.096240
O5	O	1.998925	0.116851	-0.092917
V6	V	2.244444	0.206027	-0.085248
O7	O	2.130042	0.244861	-0.124081
O8	O	2.341159	0.179354	-0.058574
O9	O	2.161456	0.207196	0.009764
O10	O	2.304531	0.210517	-0.186583
O11	O	2.305875	0.307363	-0.089738
O12	O	2.160121	0.111016	-0.086416
V13	V	2.501658	0.218187	-0.097408
O14	O	2.500270	0.213698	0.003928
O15	O	2.473043	0.217018	-0.192419
O16	O	2.474378	0.313199	-0.096240
O17	O	2.498925	0.116851	-0.092917
V18	V	2.744444	0.206027	-0.085248
O19	O	2.630042	0.244861	-0.124081
O20	O	2.841159	0.179354	-0.058574
O21	O	2.661456	0.207196	0.009764
O22	O	2.804531	0.210517	-0.186583
O23	O	2.805875	0.307363	-0.089738
O24	O	2.660121	0.111016	-0.086416
C25	C	1.894569	0.213660	-0.215570
C26	C	1.911795	0.213337	-0.293245
C27	C	2.010657	0.216680	-0.333302
C28	C	2.026845	0.216384	-0.406287
C29	C	1.944161	0.212731	-0.439210
C30	C	1.845286	0.209392	-0.399145
C31	C	1.829103	0.209695	-0.326162
C32	C	1.888983	0.168423	-0.545549
C33	C	1.905169	0.168116	-0.618530
C34	C	1.994072	0.211800	-0.664313
C35	C	2.066803	0.255782	-0.637106
C36	C	2.050620	0.256085	-0.564123
C37	C	1.961699	0.212403	-0.518347
C38	C	2.110494	0.214823	-0.783509
C39	C	2.126680	0.214531	-0.856496
C40	C	1.945116	0.207532	-0.849351
C41	C	1.928935	0.207831	-0.776367
C42	C	2.011627	0.211473	-0.743450
C43	C	1.896271	0.336346	-0.092883
C44	C	1.914579	0.414021	-0.092557
C45	C	2.013954	0.454079	-0.095911
C46	C	2.031156	0.527063	-0.095604
C47	C	1.948981	0.559987	-0.091958
C48	C	1.849591	0.519918	-0.088599
C49	C	1.832390	0.446935	-0.088899
C50	C	1.917478	0.679427	-0.129950
C51	C	1.934683	0.752410	-0.129655
C52	C	2.002030	0.785091	-0.091031
C53	C	2.052189	0.744782	-0.052711
C54	C	2.034988	0.671799	-0.053011
C55	C	1.967623	0.639124	-0.091632
C56	C	2.120064	0.904286	-0.094052
C57	C	2.137261	0.977270	-0.093740
C58	C	1.955696	0.970125	-0.086742
C59	C	1.938499	0.897142	-0.087046
C60	C	2.020688	0.864227	-0.090704
C61	C	2.071601	0.210553	0.032911
C62	C	2.043994	0.210880	0.110586
C63	C	2.073385	1.087864	-0.089773
C64	C	2.055084	1.010189	-0.090093
C65	C	2.394569	0.213660	-0.215570
C66	C	2.411795	0.213337	-0.293245
C67	C	2.396271	0.336346	-0.092883
C68	C	2.414579	0.414021	-0.092557
C69	C	2.571601	0.210553	0.032911
C70	C	2.543994	0.210880	0.110586
C71	C	2.569899	0.087864	-0.089774
C72	C	2.541211	0.010189	-0.090097
C73	C	2.510669	0.216689	-0.333297
C74	C	2.526872	0.216397	-0.406283
C75	C	2.444198	0.212748	-0.439215
C76	C	2.345316	0.209398	-0.399159
C77	C	2.329116	0.209695	-0.326175
C78	C	2.513960	0.454071	-0.095899
C79	C	2.531174	0.527053	-0.095584
C80	C	2.449006	0.559985	-0.091930
C81	C	2.349616	0.519929	-0.088585
C82	C	2.332403	0.446947	-0.088896
C83	C	2.617613	0.207530	0.150637
C84	C	2.591682	0.207826	0.223622
C85	C	2.492133	0.211476	0.256555
C86	C	2.418508	0.214824	0.216498
C87	C	2.444438	0.214523	0.143515
C88	C	2.441148	-0.022724	-0.093742
C89	C	2.414175	-0.095709	-0.094037
C90	C	2.487269	-0.135778	-0.090692
C91	C	2.587339	-0.102860	-0.087044
C92	C	2.614308	-0.029877	-0.086744
H93	H	2.077994	0.219650	-0.306507
Cl94	Cl	2.156094	0.577432	-0.099817
H95	H	2.646845	-0.135496	-0.084319
H96	H	2.463037	0.619412	-0.091678
H97	H	2.612108	0.559657	-0.098310
H98	H	2.457403	0.212506	-0.498644
Cl99	Cl	2.740115	0.011492	-0.082173
H100	H	2.282721	0.546753	-0.085611
H101	H	2.107353	0.219106	-0.438908
Cl102	Cl	2.349239	0.027633	-0.097947
Cl103	Cl	2.207458	0.396609	-0.084703
Cl104	Cl	2.241392	0.204806	-0.440570
Cl105	Cl	2.617274	0.412687	-0.100491
H106	H	2.109839	0.291898	-0.541974
Cl107	Cl	2.742768	0.202939	0.109253
H108	H	1.782684	0.546729	-0.085628
H109	H	2.248599	0.206962	-0.293569
Cl110	Cl	2.651185	0.220604	-0.456624
H111	H	2.651645	0.205100	0.256226
Cl112	Cl	2.293363	0.219410	0.257910
H113	H	2.139103	0.291450	-0.674393
H114	H	2.075827	0.638982	-0.021808
H115	H	1.845950	0.132298	-0.640675
Cl116	Cl	2.459553	0.211854	0.348307
H117	H	2.177827	0.217787	-0.756707
Cl118	Cl	2.453349	-0.227528	-0.091073
H119	H	1.888785	0.996930	-0.083767
H120	H	2.384485	0.217257	0.110909
H121	H	2.332688	-0.122501	-0.097008
H122	H	2.207188	0.217258	-0.889111
H123	H	1.877793	0.204563	-0.876157
H124	H	1.816580	0.132853	-0.508278
Cl125	Cl	1.804641	0.203622	-0.726005
Cl126	Cl	2.262201	1.027631	-0.097956
Cl127	Cl	1.707452	0.396573	-0.084685
H128	H	1.777965	0.206420	-0.425956
Cl129	Cl	1.704808	0.205491	-0.275802
H130	H	2.080879	0.427285	-0.098887
H131	H	2.107031	0.771389	-0.021262
H132	H	1.857580	0.864526	-0.084323
Cl133	Cl	1.871634	0.803077	-0.177833
Cl134	Cl	2.223382	0.862904	-0.098644
H135	H	1.862625	0.652824	-0.161398
H136	H	2.577998	0.219656	-0.306493
