data_functionalizedCrystal
_audit_creation_method	'MofGen! by Chris Wilmer'
_symmetry_space_group_name_H-M	'P1'
_symmetry_Int_Tables_number	1
_symmetry_cell_setting	triclinic
loop_
_symmetry_equiv_pos_as_xyz
  x,y,z
_cell_length_a	14.971506
_cell_length_b	14.971486
_cell_length_c	13.448316
_cell_angle_alpha	90.006811
_cell_angle_beta	89.995875
_cell_angle_gamma	96.381742
loop_
_atom_site_label
_atom_site_type_symbol
_atom_site_fract_x
_atom_site_fract_y
_atom_site_fract_z
O1	O	1.186936	-0.116651	-0.082632
O2	O	0.926539	-0.130591	-0.082647
O3	O	1.063717	0.006579	-0.082632
O4	O	1.049758	-0.253820	-0.082647
O5	O	1.063699	0.006587	0.082752
O6	O	0.926521	-0.130582	0.082737
O7	O	1.186919	-0.116642	0.082752
Cu8	Cu	1.056719	-0.123612	0.097845
Cu9	Cu	1.056739	-0.123622	-0.097740
O10	O	1.049741	-0.253812	0.082737
C11	C	0.893205	-0.129960	0.000043
C12	C	0.793909	-0.128082	0.000037
C13	C	1.220252	-0.117273	0.000060
C14	C	1.319548	-0.119151	0.000059
C15	C	1.063084	0.039908	0.000060
C16	C	1.061213	0.139205	0.000059
C17	C	1.050374	-0.287141	0.000043
C18	C	1.052244	-0.386438	0.000038
C19	C	1.757831	-0.045733	0.000042
C20	C	1.664530	-0.043976	0.000040
C21	C	1.607311	-0.124568	0.000041
C22	C	1.643395	-0.206923	0.000033
C23	C	1.736694	-0.208680	0.000028
C24	C	1.448932	-0.203256	0.000047
C25	C	1.355627	-0.201500	0.000054
C26	C	1.376769	-0.038552	0.000060
C27	C	1.470067	-0.040309	0.000054
C28	C	1.506145	-0.122664	0.000048
N29	N	1.056711	-0.123604	0.235410
C30	C	1.141802	0.196424	0.000064
C31	C	1.140038	0.289724	0.000054
C32	C	1.057686	0.325802	0.000046
C33	C	0.977091	0.268575	0.000037
C34	C	0.978855	0.175278	0.000040
C35	C	0.973420	0.463038	0.000033
C36	C	0.971656	0.556342	0.000032
C37	C	1.134603	0.577485	0.000047
C38	C	1.136367	0.484187	0.000050
C39	C	1.055772	0.426966	0.000044
N40	N	1.056754	-0.123622	-0.235304
C41	C	1.117472	-0.062890	0.287457
C42	C	1.117478	-0.062890	0.391560
C43	C	1.056725	-0.123608	0.443614
C44	C	0.995958	-0.184324	0.391560
C45	C	0.995948	-0.184320	0.287459
C46	C	0.995982	-0.184330	0.608540
C47	C	0.995992	-0.184336	0.712648
C48	C	1.117512	-0.062900	0.712641
C49	C	1.117503	-0.062896	0.608540
C50	C	1.056736	-0.123614	0.556493
H51	H	1.804414	0.019895	0.000046
H52	H	1.208862	0.167057	0.000077
H53	H	0.946496	-0.233770	0.566167
H54	H	1.516654	0.025317	0.000062
H55	H	0.946521	-0.233778	0.755026
H56	H	1.166976	-0.013459	0.566158
C57	C	0.929111	-0.251108	0.230204
C58	C	0.862316	-0.317928	0.287458
C59	C	0.795473	-0.384716	0.230204
C60	C	0.795426	-0.384682	0.115697
C61	C	0.862224	-0.317859	0.058436
C62	C	0.929066	-0.251072	0.115690
H63	H	0.862348	-0.317955	0.372229
H64	H	0.746024	-0.434182	0.272593
H65	H	0.745944	-0.434122	0.073315
H66	H	0.862191	-0.317833	-0.026334
H67	H	0.978515	-0.201606	0.073301
H68	H	1.635160	0.023081	0.000043
H69	H	1.200227	0.624078	0.000050
C70	C	0.884767	0.400092	0.000027
C71	C	0.817317	0.404185	-0.085855
C72	C	0.728667	0.341238	-0.085857
C73	C	0.707467	0.274198	0.000023
C74	C	0.774919	0.270103	0.085910
C75	C	0.863569	0.333050	0.085912
H76	H	0.833008	0.453814	-0.149434
H77	H	0.678734	0.344270	-0.149437
H78	H	0.641843	0.227601	0.000021
H79	H	0.759228	0.220474	0.149489
H80	H	0.913502	0.330018	0.149493
C81	C	1.184302	0.003902	0.230203
C82	C	1.251134	0.070689	0.287459
C83	C	1.317964	0.137486	0.230209
C84	C	1.317961	0.137496	0.115701
C85	C	1.251127	0.070706	0.058438
C86	C	1.184297	0.003909	0.115689
H87	H	1.251138	0.070685	0.372230
H88	H	1.367439	0.186928	0.272599
H89	H	1.367433	0.186943	0.073321
H90	H	1.251123	0.070711	-0.026333
H91	H	1.134822	-0.045533	0.073298
H92	H	1.309040	-0.267126	0.000058
C93	C	1.488623	-0.293845	0.000042
C94	C	1.467082	-0.360808	0.085925
C95	C	1.506776	-0.451393	0.085925
C96	C	1.568011	-0.475016	0.000042
C97	C	1.589555	-0.408052	-0.085848
C98	C	1.549861	-0.317467	-0.085848
H99	H	1.421749	-0.343322	0.149506
H100	H	1.490827	-0.500964	0.149506
H101	H	1.597395	-0.542073	0.000041
H102	H	1.634888	-0.425538	-0.149429
H103	H	1.565810	-0.267896	-0.149429
H104	H	1.166990	-0.013461	0.755024
H105	H	1.347390	0.028505	-0.000028
H106	H	1.596799	-0.272543	0.000027
C107	C	1.226956	0.444501	0.000057
C108	C	1.293923	0.466059	0.085937
C109	C	1.384512	0.426374	0.085939
C110	C	1.408135	0.365130	0.000062
C111	C	1.341167	0.343569	-0.085825
C112	C	1.250577	0.383254	-0.085827
H113	H	1.276437	0.511398	0.149515
H114	H	1.434087	0.442335	0.149518
H115	H	1.475195	0.335753	0.000063
H116	H	1.358653	0.298230	-0.149402
H117	H	1.201003	0.367293	-0.149406
H118	H	1.766067	-0.275737	0.000029
H119	H	1.205662	0.336309	0.000061
H120	H	0.946487	-0.233759	0.433948
H121	H	0.904597	0.585714	0.000041
H122	H	0.910038	0.297958	0.000024
H123	H	1.166953	-0.013451	0.433936
H124	H	0.913232	0.128690	0.000036
