data_functionalizedCrystal
_audit_creation_method	'MofGen! by Chris Wilmer'
_symmetry_space_group_name_H-M	'P1'
_symmetry_Int_Tables_number	1
_symmetry_cell_setting	triclinic
loop_
_symmetry_equiv_pos_as_xyz
  x,y,z
_cell_length_a	15.625950
_cell_length_b	27.732048
_cell_length_c	14.185569
_cell_angle_alpha	76.951782
_cell_angle_beta	120.545593
_cell_angle_gamma	83.485104
loop_
_atom_site_label
_atom_site_type_symbol
_atom_site_fract_x
_atom_site_fract_y
_atom_site_fract_z
O1	O	1.290471	0.012524	0.385843
O2	O	1.002018	0.033796	0.280945
O3	O	1.155208	-0.047628	0.336673
O4	O	1.137281	0.093949	0.330115
O5	O	1.200462	-0.071680	0.519970
O6	O	1.047272	0.009745	0.464242
O7	O	1.335725	-0.011527	0.569140
Cu8	Cu	1.195630	-0.003087	0.533427
Cu9	Cu	1.142112	0.025356	0.316657
O10	O	1.182534	0.069898	0.513412
C11	C	0.987753	0.023189	0.359178
C12	C	0.877827	0.027409	0.319203
C13	C	0.639505	-0.024217	0.687172
C14	C	0.536197	-0.020234	0.649558
C15	C	0.486915	0.005983	0.449753
C16	C	0.590219	0.002005	0.487351
C17	C	0.666508	-0.013095	0.606061
C18	C	0.617222	0.013127	0.406240
C19	C	0.720519	0.009147	0.443835
C20	C	0.796813	-0.005954	0.562540
C21	C	0.769804	-0.017075	0.643656
C22	C	0.540933	0.028224	0.287530
C23	C	0.567936	0.039345	0.206419
C24	C	0.671233	0.035369	0.244013
C25	C	0.747527	0.020268	0.362719
C26	C	0.698242	0.046490	0.162898
C27	C	0.801538	0.042510	0.200492
C28	C	0.850824	0.016288	0.400314
C29	C	1.177460	-0.077645	0.428188
C30	C	1.176330	-0.131252	0.427785
C31	C	1.259708	-0.473681	0.458055
C32	C	1.255502	-0.675156	0.456511
O33	O	1.331747	-0.709717	0.484194
N34	N	1.164670	-0.690335	0.423480
C35	C	1.074881	-0.655141	0.390826
O36	O	0.997523	-0.672674	0.362684
C37	C	1.079086	-0.453666	0.392362
C38	C	1.169927	-0.438492	0.425406
C39	C	1.350542	-0.458505	0.491095
C40	C	1.351594	-0.408140	0.491486
C41	C	1.261812	-0.372951	0.458838
C42	C	1.170979	-0.388126	0.425797
C43	C	0.989296	-0.418472	0.359699
C44	C	0.990355	-0.368101	0.360084
C45	C	1.081196	-0.352926	0.393128
C46	C	1.082250	-0.302572	0.393540
N47	N	1.173082	-0.287393	0.426571
C48	C	1.262863	-0.322582	0.459220
C49	C	1.072680	-0.760920	0.390024
C50	C	1.071629	-0.811289	0.389642
C51	C	1.252251	-0.831299	0.455325
C52	C	1.253303	-0.780931	0.455715
C53	C	1.163513	-0.745740	0.423055
C54	C	1.265066	-0.216811	0.460040
C55	C	1.266111	-0.166441	0.460434
C56	C	1.085489	-0.146434	0.394744
C57	C	1.084445	-0.196800	0.394357
C58	C	1.174240	-0.231988	0.427004
O59	O	1.006043	-0.267983	0.365859
O60	O	1.340204	-0.305036	0.487333
C61	C	1.258656	-0.524046	0.457663
C62	C	1.167823	-0.539222	0.424623
C63	C	1.078042	-0.504032	0.391974
C64	C	1.166772	-0.589590	0.424241
C65	C	1.256553	-0.624780	0.456889
C66	C	1.347386	-0.609600	0.489920
C67	C	1.348438	-0.559235	0.490312
C68	C	0.987209	-0.519212	0.358943
C69	C	0.986165	-0.569578	0.358555
C70	C	1.075946	-0.604767	0.391204
C71	C	1.349989	-0.000919	0.490905
C72	C	1.459914	-0.005139	0.530872
C73	C	1.160282	0.099914	0.421895
C74	C	1.161411	0.153522	0.422290
N75	N	1.233279	-0.023093	0.685894
N76	N	1.104472	0.045358	0.164193
C77	C	0.993860	0.104115	0.966448
C78	C	1.022385	0.088963	1.081846
C79	C	1.158062	0.016885	1.131164
C80	C	1.129545	0.032029	1.015767
C81	C	1.047444	0.075645	0.933417
C82	C	1.183129	0.003559	0.982735
C83	C	1.154617	0.018704	0.867349
C84	C	1.072521	0.062318	0.784993
C85	C	1.018932	0.090789	0.818030
C86	C	1.265234	-0.040054	1.065089
C87	C	1.318819	-0.068524	1.032058
C88	C	1.290302	-0.053382	0.916668
C89	C	1.208207	-0.009767	0.834312
C90	C	1.343892	-0.081853	0.883631
C91	C	1.315380	-0.066708	0.768244
C92	C	1.179695	0.005377	0.718926
H93	H	0.636115	0.058780	0.066244
N94	N	0.435413	0.032302	0.249119
N95	N	0.368673	0.074438	0.184215
H96	H	0.294148	0.077320	0.157086
H97	H	0.914096	-0.490564	0.332353
H98	H	0.505810	0.051638	0.109765
H99	H	0.880923	-0.009195	0.593148
H100	H	0.823522	0.051569	0.134443
H101	H	0.926998	0.139628	0.899391
H102	H	0.514217	-0.029281	0.715616
H103	H	0.978744	0.112151	1.108730
H104	H	1.420490	-0.638261	0.516509
H105	H	0.424789	0.018276	0.353099
H106	H	1.325354	-0.859959	0.481910
N107	N	1.356796	-0.252753	0.493420
N108	N	1.395440	-0.293233	0.577804
H109	H	1.460227	-0.318619	0.601388
N110	N	1.370091	-0.095787	0.734473
N111	N	1.344620	-0.082259	0.631445
H112	H	1.383262	-0.102795	0.607592
N113	N	0.928762	0.000887	0.521569
N114	N	0.924084	0.027073	0.580728
H115	H	0.979130	0.016202	0.666360
N116	N	1.442249	-0.494453	0.524441
N117	N	1.442757	-0.514653	0.454305
H118	H	1.507532	-0.540041	0.477866
N119	N	1.358918	-0.150951	0.494201
N120	N	1.439071	-0.182379	0.523348
H121	H	1.504615	-0.171441	0.547196
N122	N	1.095832	0.049933	0.634812
N123	N	1.099678	0.092891	0.647930
H124	H	1.040454	0.124358	0.588526
H125	H	1.425564	-0.395789	0.518390
N126	N	1.346103	-0.765441	0.489477
N127	N	1.426256	-0.796872	0.518632
H128	H	1.491802	-0.785936	0.542478
H129	H	0.952070	0.126302	0.750973
H130	H	0.831922	-0.029364	0.740321
H131	H	1.385669	-0.104035	1.099120
H132	H	0.701622	-0.036506	0.783837
H133	H	0.997662	-0.823641	0.362753
N134	N	1.241932	-0.027659	1.215304
N135	N	1.267388	-0.041173	1.318327
H136	H	1.326624	-0.072632	1.377752
H137	H	0.999558	-0.732271	0.363427
N138	N	1.294336	-0.055531	1.182946
N139	N	1.230674	-0.066723	1.206673
H140	H	1.251222	-0.077658	1.289909
N141	N	0.896493	-0.433956	0.325939
N142	N	0.816344	-0.402521	0.296782
H143	H	0.750795	-0.413454	0.272933
H144	H	1.010482	-0.209160	0.367480
N145	N	0.898621	-0.332160	0.326704
N146	N	0.817526	-0.345720	0.297200
H147	H	0.752738	-0.320338	0.273624
N148	N	0.993795	-0.110479	0.361409
N149	N	0.994758	-0.065511	0.361763
H150	H	0.929997	-0.040115	0.338214
N151	N	1.441240	-0.543748	0.524074
N152	N	1.521388	-0.575179	0.553220
H153	H	1.586936	-0.564245	0.577066
N154	N	0.893360	-0.585068	0.324809
N155	N	0.813210	-0.553638	0.295661
H156	H	0.747665	-0.564575	0.271821
N157	N	1.043371	0.077793	0.667119
N158	N	0.970064	0.116734	0.593605
H159	H	0.949474	0.127664	0.510354
N160	N	1.427765	-0.126395	0.967774
N161	N	1.453222	-0.139906	1.070797
H162	H	1.512462	-0.171363	1.130226
