data_functionalizedCrystal
_audit_creation_method	'MofGen! by Chris Wilmer'
_symmetry_space_group_name_H-M	'P1'
_symmetry_Int_Tables_number	1
_symmetry_cell_setting	triclinic
loop_
_symmetry_equiv_pos_as_xyz
  x,y,z
_cell_length_a	13.339070
_cell_length_b	14.519709
_cell_length_c	12.376457
_cell_angle_alpha	101.296542
_cell_angle_beta	75.589755
_cell_angle_gamma	99.654719
loop_
_atom_site_label
_atom_site_type_symbol
_atom_site_fract_x
_atom_site_fract_y
_atom_site_fract_z
O1	O	1.362507	0.449827	-0.094056
O2	O	1.067869	0.389115	-0.094048
O3	O	1.222998	0.287221	-0.094042
O4	O	1.207378	0.551721	-0.094062
O5	O	1.184229	0.312650	0.093969
O6	O	1.029100	0.414544	0.093963
O7	O	1.323739	0.475256	0.093955
Zn8	Zn	1.170264	0.448937	0.123810
Zn9	Zn	1.221343	0.415434	-0.123903
O10	O	1.168610	0.577150	0.093949
C11	C	1.010777	0.391574	-0.000041
C12	C	0.898419	0.361005	-0.000038
C13	C	0.534063	0.598692	-0.000074
C14	C	0.639629	0.627415	-0.000081
C15	C	0.704332	0.560815	-0.000070
C16	C	0.663458	0.465487	-0.000053
C17	C	0.557883	0.436759	-0.000055
C18	C	0.728152	0.398883	-0.000050
C19	C	0.687278	0.303554	-0.000033
C20	C	0.581713	0.274832	-0.000035
C21	C	0.517011	0.341432	-0.000046
C22	C	0.833726	0.427610	-0.000048
C23	C	0.857547	0.265678	-0.000029
C24	C	0.751980	0.236954	-0.000022
C25	C	1.202885	0.265390	-0.000036
C26	C	1.200703	0.162454	-0.000036
C27	C	1.192677	-0.214489	-0.000065
C28	C	1.194906	-0.109612	-0.000056
C29	C	1.196690	-0.026021	-0.000049
C30	C	1.198919	0.078862	-0.000043
C31	C	1.380832	0.472796	-0.000054
C32	C	1.493191	0.503364	-0.000065
C33	C	1.188723	0.598980	-0.000059
C34	C	1.190906	0.701915	-0.000067
N35	N	1.135411	0.471804	0.292866
N36	N	1.256204	0.392562	-0.292960
C37	C	1.337109	0.339463	0.647859
C38	C	1.361497	0.323457	0.529520
C39	C	1.304977	0.360542	0.470351
C40	C	1.224066	0.413636	0.529532
C41	C	1.199681	0.429650	0.647883
C42	C	1.167550	0.450729	0.470375
C43	C	1.086639	0.503824	0.529556
C44	C	1.062257	0.519834	0.647895
C45	C	1.118777	0.482749	0.707064
C46	C	1.191935	0.434715	0.352024
C47	C	1.054507	0.524903	0.352048
C48	C	1.030119	0.540909	0.470387
H49	H	0.672903	0.705030	-0.000103
H50	H	0.548441	0.197207	-0.000034
N51	N	1.331260	0.343269	0.342715
H52	H	1.351960	0.405871	0.314190
H53	H	1.391064	0.303974	0.314288
N54	N	0.707900	0.134135	-0.000018
H55	H	0.717105	0.113165	0.069682
H56	H	0.631222	0.126116	-0.000064
N57	N	0.927321	0.193834	-0.000024
H58	H	1.000399	0.226498	-0.000021
H59	H	0.899696	0.162883	0.069676
N60	N	1.279185	0.377435	0.288217
H61	H	1.250549	0.320022	0.239137
H62	H	1.334156	0.417595	0.239161
H63	H	0.481376	0.652906	-0.000092
H64	H	1.008485	0.555103	0.303873
N65	N	1.448759	0.266197	0.465691
H66	H	1.480862	0.245132	0.521129
H67	H	1.420060	0.208831	0.416601
H68	H	0.431049	0.318049	-0.000040
H69	H	0.790288	0.584207	-0.000078
N70	N	1.398072	0.299479	0.711674
H71	H	1.370348	0.317684	0.795623
H72	H	1.390533	0.228229	0.691007
N73	N	1.092470	0.500014	0.834705
H74	H	1.140550	0.468459	0.863202
H75	H	1.101416	0.570345	0.863112
N76	N	0.974988	0.577095	0.711730
H77	H	0.942877	0.598154	0.656293
H78	H	0.920076	0.536932	0.760838
N79	N	0.942854	0.598172	0.534230
H80	H	0.971484	0.655581	0.583319
H81	H	0.910775	0.619171	0.478729
H82	H	0.866994	0.505228	-0.000058
