data_functionalizedCrystal
_audit_creation_method	'MofGen! by Chris Wilmer'
_symmetry_space_group_name_H-M	'P1'
_symmetry_Int_Tables_number	1
_symmetry_cell_setting	triclinic
loop_
_symmetry_equiv_pos_as_xyz
  x,y,z
_cell_length_a	18.050591
_cell_length_b	18.050590
_cell_length_c	18.101389
_cell_angle_alpha	89.980851
_cell_angle_beta	89.985365
_cell_angle_gamma	90.017393
loop_
_atom_site_label
_atom_site_type_symbol
_atom_site_fract_x
_atom_site_fract_y
_atom_site_fract_z
Zn1	Zn	1.135372	-0.295760	-0.418643
Zn2	Zn	1.468706	0.037573	-0.085310
Zn3	Zn	1.802039	0.370906	0.248023
Zn4	Zn	1.135295	-0.419935	-0.294800
Zn5	Zn	1.468628	-0.086601	0.038533
Zn6	Zn	1.801962	0.246732	0.371866
Zn7	Zn	1.011183	-0.295760	-0.294826
Zn8	Zn	1.344516	0.037573	0.038508
Zn9	Zn	1.677849	0.370906	0.371841
Zn10	Zn	1.011160	-0.419910	-0.418610
Zn11	Zn	1.344494	-0.086577	-0.085277
Zn12	Zn	1.677827	0.246756	0.248057
O13	O	1.073253	-0.357841	-0.356720
O14	O	1.406586	-0.024508	-0.023387
O15	O	1.739919	0.308825	0.309947
O16	O	1.239287	-0.312242	-0.402219
O17	O	1.572620	0.021091	-0.068886
O18	O	1.905953	0.354424	0.264448
O19	O	1.118808	-0.403473	-0.191171
O20	O	1.452142	-0.070139	0.142163
O21	O	1.785475	0.263194	0.475496
O22	O	1.027698	-0.191836	-0.311275
O23	O	1.361032	0.141498	0.022058
O24	O	1.694365	0.474831	0.355392
O25	O	1.239230	-0.403473	-0.311232
O26	O	1.572563	-0.070139	0.022101
O27	O	1.905897	0.263194	0.355435
O28	O	1.118940	-0.191836	-0.402243
O29	O	1.452273	0.141498	-0.068910
O30	O	1.785607	0.474831	0.264423
O31	O	1.027623	-0.312242	-0.191189
O32	O	1.360957	0.021091	0.142144
O33	O	1.694290	0.354424	0.475477
O34	O	0.907255	-0.312219	-0.311242
O35	O	1.240588	0.021114	0.022091
O36	O	1.573922	0.354448	0.355424
O37	O	1.027660	-0.403432	-0.522247
O38	O	1.360994	-0.070098	-0.188914
O39	O	1.694327	0.263235	0.144419
O40	O	0.907239	-0.403432	-0.402186
O41	O	1.240572	-0.070098	-0.068853
O42	O	1.573906	0.263235	0.264481
O43	O	1.118918	-0.312219	-0.522272
O44	O	1.452252	0.021114	-0.188939
O45	O	1.785585	0.354448	0.144395
O46	O	1.118787	-0.523856	-0.311199
O47	O	1.452120	-0.190523	0.022134
O48	O	1.785453	0.142811	0.355467
O49	O	1.027586	-0.523838	-0.402162
O50	O	1.360919	-0.190505	-0.068828
O51	O	1.694252	0.142828	0.264505
C52	C	0.880301	-0.357823	-0.356714
C53	C	1.213634	-0.024490	-0.023380
C54	C	1.546967	0.308843	0.309953
C55	C	0.797755	-0.357833	-0.356729
C56	C	1.131088	-0.024500	-0.023395
C57	C	1.464421	0.308833	0.309938
C58	C	0.548942	-0.407537	-0.406117
C59	C	0.882275	-0.074204	-0.072783
C60	C	1.215608	0.259129	0.260550
C61	C	0.598310	-0.425603	-0.338521
C62	C	0.931643	-0.092270	-0.005187
C63	C	1.264977	0.241063	0.328146
C64	C	0.500634	-0.357857	-0.356727
C65	C	0.833968	-0.024523	-0.023394
C66	C	1.167301	0.308810	0.309939
C67	C	0.598348	-0.339814	-0.424320
C68	C	0.931681	-0.006481	-0.090987
C69	C	1.265015	0.326852	0.242347
C70	C	0.646619	-0.357847	-0.356732
C71	C	0.979953	-0.024514	-0.023398
C72	C	1.313286	0.308820	0.309935
C73	C	0.548915	-0.375958	-0.289096
C74	C	0.882249	-0.042624	0.044238
C75	C	1.215582	0.290709	0.377571
C76	C	0.548949	-0.290137	-0.374941
C77	C	0.882282	0.043196	-0.041607
C78	C	1.215615	0.376529	0.291726
C79	C	0.598295	-0.308177	-0.307298
C80	C	0.931628	0.025156	0.026035
C81	C	1.264961	0.358489	0.359369
C82	C	0.416536	-0.357864	-0.356726
C83	C	0.749869	-0.024531	-0.023393
C84	C	1.083203	0.308803	0.309941
C85	C	0.730716	-0.357840	-0.356725
C86	C	1.064049	-0.024506	-0.023392
C87	C	1.397383	0.308827	0.309941
C88	C	1.073196	-0.550794	-0.356690
C89	C	1.406529	-0.217460	-0.023357
C90	C	1.739862	0.115873	0.309976
C91	C	1.073239	-0.633339	-0.356702
C92	C	1.406572	-0.300006	-0.023369
C93	C	1.739906	0.033327	0.309964
C94	C	1.122937	-0.832773	-0.307306
C95	C	1.456271	-0.499439	0.026027
C96	C	1.789604	-0.166106	0.359360
C97	C	1.141078	-0.882116	-0.374895
C98	C	1.474411	-0.548783	-0.041561
C99	C	1.807744	-0.215450	0.291772
C100	C	1.073281	-0.784470	-0.356732
C101	C	1.406615	-0.451136	-0.023399
C102	C	1.739948	-0.117803	0.309935
C103	C	1.055217	-0.882207	-0.289174
C104	C	1.388550	-0.548874	0.044159
C105	C	1.721883	-0.215541	0.377493
C106	C	1.073323	-0.930455	-0.356755
C107	C	1.406657	-0.597121	-0.023421
C108	C	1.739990	-0.263788	0.309912
C109	C	1.091456	-0.832726	-0.424356
C110	C	1.424790	-0.499393	-0.091023
C111	C	1.758123	-0.166060	0.242311
C112	C	1.005564	-0.832813	-0.338590
C113	C	1.338897	-0.499480	-0.005256
C114	C	1.672230	-0.166146	0.328077
C115	C	1.023678	-0.882134	-0.406225
C116	C	1.357011	-0.548801	-0.072891
C117	C	1.690345	-0.215468	0.260442
C118	C	1.073259	-0.700371	-0.356718
C119	C	1.406592	-0.367038	-0.023385
C120	C	1.739926	-0.033705	0.309949
C121	C	1.073346	-1.014551	-0.356776
C122	C	1.406679	-0.681218	-0.023443
C123	C	1.740012	-0.347885	0.309890
C124	C	1.266958	-0.357860	-0.356726
C125	C	1.600292	-0.024527	-0.023393
C126	C	1.933625	0.308807	0.309940
C127	C	1.349504	-0.357868	-0.356729
C128	C	1.682837	-0.024535	-0.023396
C129	C	2.016171	0.308799	0.309937
C130	C	1.073296	-0.357823	-0.549882
C131	C	1.406629	-0.024489	-0.216548
C132	C	1.739962	0.308844	0.116785
C133	C	1.073314	-0.357815	-0.632196
C134	C	1.406647	-0.024481	-0.298863
C135	C	1.739981	0.308852	0.034471
C136	C	1.073330	-0.164136	-0.356766
C137	C	1.406664	0.169198	-0.023432
C138	C	1.739997	0.502531	0.309901
C139	C	1.073363	-0.081590	-0.356785
C140	C	1.406697	0.251743	-0.023452
C141	C	1.740030	0.585077	0.309881
C142	C	1.073357	-0.357675	-0.931287
C143	C	1.406690	-0.024342	-0.597954
C144	C	1.740024	0.308991	-0.264620
C145	C	1.015742	-0.414881	-0.899946
C146	C	1.349076	-0.081548	-0.566613
C147	C	1.682409	0.251785	-0.233280
C148	C	1.015898	-0.415147	-0.814328
C149	C	1.349231	-0.081813	-0.480995
C150	C	1.682565	0.251520	-0.147661
C151	C	1.073335	-0.357745	-0.782904
C152	C	1.406668	-0.024411	-0.449571
C153	C	1.740002	0.308922	-0.116238
C154	C	1.151585	-0.378990	-0.813997
C155	C	1.484918	-0.045656	-0.480663
C156	C	1.818251	0.287677	-0.147330
C157	C	1.151264	-0.379365	-0.899642
C158	C	1.484597	-0.046032	-0.566308
C159	C	1.817930	0.287301	-0.232975
C160	C	1.053402	-0.279097	-0.899716
C161	C	1.386736	0.054236	-0.566382
C162	C	1.720069	0.387570	-0.233049
C163	C	1.051662	-0.279551	-0.814065
C164	C	1.384995	0.053782	-0.480732
C165	C	1.718328	0.387116	-0.147398
C166	C	1.073327	-0.357782	-0.699045
C167	C	1.406661	-0.024449	-0.365712
C168	C	1.739994	0.308884	-0.032378
C169	C	1.073370	-0.357639	-1.015147
C170	C	1.406703	-0.024306	-0.681813
C171	C	1.740037	0.309027	-0.348480
C172	C	1.073253	-0.357807	-0.164309
C173	C	1.406586	-0.024473	0.169024
C174	C	1.739919	0.308860	0.502357
C175	C	1.073378	-0.357605	-0.081996
C176	C	1.406712	-0.024272	0.251338
C177	C	1.740045	0.309061	0.584671
H178	H	0.527293	-0.391284	-0.231920
H179	H	0.860627	-0.057950	0.101414
H180	H	1.193960	0.275383	0.434747
H181	H	0.619992	-0.482868	-0.323112
H182	H	0.953325	-0.149535	0.010222
H183	H	1.286659	0.183798	0.343555
F184	F	1.209244	-0.327236	-0.926744
F185	F	1.542578	0.006097	-0.593411
F186	F	1.875911	0.339431	-0.260078
F187	F	0.520584	-0.215309	-0.395106
F188	F	0.853918	0.118024	-0.061772
F189	F	1.187251	0.451358	0.271561
H190	H	1.198363	-0.903775	-0.390254
H191	H	1.531697	-0.570442	-0.056921
H192	H	1.865030	-0.237109	0.276412
F193	F	1.033154	-0.491269	-0.787549
F194	F	1.366488	-0.157936	-0.454215
F195	F	1.699821	0.175397	-0.120882
H196	H	1.195666	-0.338633	-0.793644
H197	H	1.528999	-0.005299	-0.460311
H198	H	1.862332	0.328034	-0.126977
H199	H	0.948295	-0.811138	-0.323210
H200	H	1.281628	-0.477805	0.010123
H201	H	1.614961	-0.144471	0.343457
H202	H	0.620061	-0.324558	-0.481480
H203	H	0.953395	0.008776	-0.148147
H204	H	1.286728	0.342109	0.185186
F205	F	1.032757	-0.490539	-0.928121
F206	F	1.366091	-0.157206	-0.594787
F207	F	1.699424	0.176128	-0.261454
H208	H	0.957873	-0.401852	-0.793305
H209	H	1.291207	-0.068519	-0.459972
H210	H	1.624540	0.264815	-0.126639
F211	F	0.968814	-0.910288	-0.460931
F212	F	1.302147	-0.576955	-0.127598
F213	F	1.635481	-0.243621	0.205736
F214	F	1.177841	-0.804441	-0.252729
F215	F	1.511174	-0.471108	0.080605
F216	F	1.844507	-0.137774	0.413938
H217	H	0.997334	-0.259741	-0.921311
H218	H	1.330667	0.073592	-0.587978
H219	H	1.664000	0.406926	-0.254645
F220	F	1.111545	-0.804441	-0.499065
F221	F	1.444879	-0.471108	-0.165732
F222	F	1.778212	-0.137774	0.167601
F223	F	1.035222	-0.910617	-0.214486
F224	F	1.368556	-0.577284	0.118848
F225	F	1.701889	-0.243950	0.452181
H226	H	0.619828	-0.266160	-0.265485
H227	H	0.953161	0.067173	0.067849
H228	H	1.286494	0.400507	0.401182
H229	H	0.957543	-0.401723	-0.920542
H230	H	1.290876	-0.068389	-0.587209
H231	H	1.624210	0.264944	-0.253876
H232	H	1.095366	-0.236476	-0.919985
H233	H	1.428700	0.096858	-0.586652
H234	H	1.762033	0.430191	-0.253318
F235	F	1.173371	-0.454446	-0.925759
F236	F	1.506704	-0.121112	-0.592426
F237	F	1.840037	0.212221	-0.259092
F238	F	0.976390	-0.258612	-0.787511
F239	F	1.309723	0.074722	-0.454178
F240	F	1.643057	0.408055	-0.120845
F241	F	1.174077	-0.453273	-0.785967
F242	F	1.507410	-0.119939	-0.452634
F243	F	1.840744	0.213394	-0.119300
H244	H	0.527272	-0.449587	-0.447829
H245	H	0.860605	-0.116253	-0.114496
H246	H	1.193939	0.217080	0.218837
H247	H	1.090562	-0.234667	-0.792675
H248	H	1.423896	0.098667	-0.459342
H249	H	1.757229	0.432000	-0.126008
