data_functionalizedCrystal
_audit_creation_method	'MofGen! by Chris Wilmer'
_symmetry_space_group_name_H-M	'P1'
_symmetry_Int_Tables_number	1
_symmetry_cell_setting	triclinic
loop_
_symmetry_equiv_pos_as_xyz
  x,y,z
_cell_length_a	10.654550
_cell_length_b	16.109318
_cell_length_c	15.186229
_cell_angle_alpha	90.000224
_cell_angle_beta	89.996404
_cell_angle_gamma	83.976747
loop_
_atom_site_label
_atom_site_type_symbol
_atom_site_fract_x
_atom_site_fract_y
_atom_site_fract_z
O1	O	0.161523	1.104082	-0.073155
O2	O	0.181588	0.862141	-0.073173
O3	O	-0.011259	0.988674	-0.073158
O4	O	0.354370	0.977549	-0.073170
O5	O	-0.011261	0.988666	0.073299
O6	O	0.181586	0.862133	0.073284
O7	O	0.161520	1.104073	0.073302
Zn8	Zn	0.171552	0.983102	0.096547
Zn9	Zn	0.171556	0.983113	-0.096417
O10	O	0.354367	0.977540	0.073287
C11	C	0.180770	0.831158	0.000054
C12	C	0.178322	0.738848	0.000047
C13	C	0.170416	0.439732	-0.079771
C14	C	0.172708	0.526467	-0.079777
C15	C	0.172688	0.526477	0.079899
C16	C	0.170387	0.439744	0.079904
C17	C	0.169258	0.396374	0.000066
C18	C	0.173851	0.569841	0.000056
C19	C	0.176336	0.663883	0.000051
C20	C	0.166770	0.302326	0.000071
C21	C	-0.058047	0.987853	0.000070
C22	C	-0.197457	0.985409	0.000069
C23	C	-0.277947	1.059910	0.000074
C24	C	-0.408937	1.057608	0.000063
C25	C	-0.378935	0.906299	0.000045
C26	C	-0.247948	0.908601	0.000050
C27	C	-0.605963	1.145355	-0.051246
C28	C	-0.686457	1.219860	-0.051226
C29	C	-0.657196	1.287397	0.000104
C30	C	-0.547443	1.280433	0.051434
C31	C	-0.466955	1.205928	0.051422
C32	C	-0.496215	1.138393	0.000072
C33	C	-0.050920	0.820860	0.051366
C34	C	0.029570	0.746353	0.051360
C35	C	0.000313	0.678809	0.000036
C36	C	-0.109442	0.685764	-0.051281
C37	C	-0.189933	0.760271	-0.051275
C38	C	-0.160667	0.827816	0.000047
C39	C	0.401155	0.978362	0.000057
C40	C	0.540566	0.980806	0.000053
C41	C	0.162338	1.135057	0.000074
C42	C	0.164786	1.227366	0.000075
N43	N	0.171549	0.983100	0.228239
N44	N	0.171549	0.983121	-0.228110
C45	C	0.086185	1.039148	0.453969
C46	C	0.086182	1.039151	0.546158
C47	C	0.256917	0.927067	0.546154
C48	C	0.256913	0.927061	0.453966
C49	C	0.171549	0.983106	0.407876
C50	C	0.171550	0.983115	0.592254
C51	C	0.171547	0.983117	0.692210
C52	C	0.171549	0.983103	0.307913
H53	H	0.173610	0.561799	0.144900
H54	H	0.173650	0.561766	-0.144788
H55	H	0.169442	0.404441	0.144921
O56	O	-0.005921	1.099573	0.404260
H57	H	0.008412	1.090155	0.332411
O58	O	-0.223482	1.142748	0.000076
H59	H	-0.301463	1.194165	0.000066
H60	H	-0.523637	1.335429	0.093238
O61	O	-0.005877	1.099609	0.595869
H62	H	-0.103785	1.088465	0.578174
H63	H	-0.279293	0.765934	-0.093073
H64	H	0.326427	0.881421	0.416435
O65	O	-0.804828	1.227378	-0.106589
H66	H	-0.811644	1.167903	-0.142302
O67	O	-0.348577	1.198408	0.106769
H68	H	-0.341746	1.257890	0.142465
O69	O	0.147915	0.738861	0.106749
H70	H	0.144250	0.687366	0.154935
H71	H	-0.722744	1.348061	0.000119
O72	O	0.349001	0.866629	0.595865
H73	H	0.334676	0.876054	0.667713
O74	O	-0.637522	1.072506	-0.106609
H75	H	-0.727372	1.089864	-0.142281
H76	H	0.169495	0.404423	-0.144780
H77	H	-0.420060	0.843765	0.000032
O78	O	-0.019370	0.893721	0.106720
H79	H	-0.014229	0.874941	0.177056
H80	H	-0.133282	0.630756	-0.093055
H81	H	0.065852	0.618137	0.000047
