data_functionalizedCrystal
_audit_creation_method	'MofGen! by Chris Wilmer'
_symmetry_space_group_name_H-M	'P1'
_symmetry_Int_Tables_number	1
_symmetry_cell_setting	triclinic
loop_
_symmetry_equiv_pos_as_xyz
  x,y,z
_cell_length_a	14.519731
_cell_length_b	14.519731
_cell_length_c	16.776229
_cell_angle_alpha	89.992369
_cell_angle_beta	89.992771
_cell_angle_gamma	83.688853
loop_
_atom_site_label
_atom_site_type_symbol
_atom_site_fract_x
_atom_site_fract_y
_atom_site_fract_z
O1	O	1.223868	0.120986	-0.066292
O2	O	1.723868	0.620986	0.433708
O3	O	0.955395	0.135202	-0.066293
O4	O	1.455395	0.635202	0.433707
O5	O	1.096739	-0.006143	-0.066285
O6	O	1.596739	0.493857	0.433715
O7	O	1.082523	0.262330	-0.066300
O8	O	1.582523	0.762330	0.433700
O9	O	1.096720	-0.006152	0.066291
O10	O	1.596720	0.493848	0.566291
O11	O	0.955376	0.135193	0.066283
O12	O	1.455376	0.635193	0.566283
O13	O	1.223849	0.120977	0.066285
O14	O	1.723849	0.620977	0.566285
Zn15	Zn	1.089610	0.128084	0.087333
Zn16	Zn	1.589610	0.628084	0.587333
Zn17	Zn	1.089634	0.128095	-0.087342
Zn18	Zn	1.589634	0.628095	0.412658
O19	O	1.082505	0.262322	0.066277
O20	O	1.582505	0.762322	0.566277
C21	C	0.921026	0.134531	-0.000005
C22	C	1.421026	0.634531	0.499995
C23	C	0.818645	0.132535	-0.000005
C24	C	1.318645	0.632535	0.499995
C25	C	0.735501	0.130913	-0.000008
C26	C	1.235501	0.630913	0.499992
C27	C	0.631192	0.128887	-0.000009
C28	C	1.131192	0.628887	0.499991
C29	C	0.548053	0.127278	-0.000009
C30	C	1.048053	0.627278	0.499991
C31	C	0.443738	0.125252	-0.000010
C32	C	0.943738	0.625252	0.499990
C33	C	1.096064	-0.040507	0.000003
C34	C	1.596064	0.459493	0.500003
C35	C	1.094068	-0.142887	0.000004
C36	C	1.594068	0.357113	0.500004
C37	C	1.092446	-0.226031	0.000002
C38	C	1.592446	0.273969	0.500002
C39	C	1.090419	-0.330340	-0.000004
C40	C	1.590419	0.169660	0.499996
C41	C	1.088811	-0.413479	-0.000009
C42	C	1.588811	0.086521	0.499991
C43	C	1.086785	-0.517795	-0.000014
C44	C	1.586785	-0.017795	0.499986
C45	C	1.258218	0.121648	-0.000005
C46	C	1.758218	0.621648	0.499995
C47	C	1.360598	0.123644	-0.000010
C48	C	1.860598	0.623644	0.499990
C49	C	1.083180	0.296685	-0.000013
C50	C	1.583180	0.796685	0.499987
C51	C	1.085176	0.399066	-0.000019
C52	C	1.585176	0.899066	0.499981
N53	N	1.089599	0.128075	0.206545
N54	N	1.589599	0.628075	0.706545
N55	N	1.089652	0.128096	-0.206553
N56	N	1.589652	0.628096	0.293447
C57	C	1.152206	0.065514	0.248265
C58	C	1.652206	0.565514	0.748265
C59	C	1.152211	0.065513	0.331717
C60	C	1.652211	0.565513	0.831717
C61	C	1.089613	0.128079	0.373448
C62	C	1.589613	0.628079	0.873448
C63	C	1.027000	0.190643	0.331721
C64	C	1.527000	0.690643	0.831721
C65	C	1.026991	0.190639	0.248270
C66	C	1.526991	0.690639	0.748270
C67	C	1.027033	0.190662	0.668268
C68	C	1.527033	0.690662	1.168268
C69	C	1.027049	0.190663	0.751725
C70	C	1.527049	0.690663	1.251725
C71	C	1.152253	0.065535	0.751715
C72	C	1.652253	0.565535	1.251715
C73	C	1.152244	0.065531	0.668265
C74	C	1.652244	0.565531	1.168265
C75	C	1.089628	0.128092	0.626545
C76	C	1.589628	0.628092	1.126545
C77	C	1.089622	0.128091	0.536057
C78	C	1.589622	0.628091	1.036057
C79	C	1.089623	0.128085	0.463934
C80	C	1.589623	0.628085	0.963934
H81	H	1.203189	0.014570	0.365686
H82	H	1.703189	0.514570	0.865686
H83	H	1.203220	0.014587	0.634291
H84	H	1.703220	0.514587	1.134291
O85	O	1.213031	0.004626	0.792157
O86	O	1.713031	0.504626	1.292157
C87	C	1.266762	-0.155610	0.817737
C88	C	1.766762	0.344390	1.317737
C89	C	1.197897	-0.086736	0.771875
C90	C	1.697897	0.413264	1.271875
H91	H	1.254537	-0.229491	0.801369
H92	H	1.754537	0.270509	1.301369
H93	H	1.340662	-0.143500	0.801301
H94	H	1.840662	0.356500	1.301301
H95	H	1.256026	-0.144818	0.884545
H96	H	1.756026	0.355182	1.384545
H97	H	1.208548	-0.097487	0.705057
H98	H	1.708548	0.402513	1.205057
H99	H	1.124021	-0.098864	0.788377
H100	H	1.624021	0.401136	1.288377
H101	H	0.976071	0.241613	0.785700
H102	H	1.476071	0.741613	1.285700
O103	O	0.966181	0.251524	0.627873
O104	O	1.466181	0.751524	1.127873
C105	C	0.841958	0.375604	0.636696
C106	C	1.341958	0.875604	1.136696
C107	C	0.910841	0.306737	0.682547
C108	C	1.410841	0.806737	1.182547
H109	H	0.797184	0.420248	0.680881
H110	H	1.297184	0.920248	1.180881
H111	H	0.881793	0.421831	0.597632
H112	H	1.381793	0.921831	1.097632
H113	H	0.795857	0.335662	0.597623
H114	H	1.295857	0.835662	1.097623
H115	H	0.956959	0.346604	0.721664
H116	H	1.456959	0.846604	1.221664
H117	H	0.870948	0.260511	0.721562
H118	H	1.370948	0.760511	1.221562
H119	H	0.976010	0.241582	0.214302
H120	H	1.476010	0.741582	0.714302
H121	H	0.976027	0.241583	0.365702
H122	H	1.476027	0.741583	0.865702
H123	H	1.203184	0.014569	0.214294
H124	H	1.703184	0.514569	0.714294
