data_functionalizedCrystal
_audit_creation_method	'MofGen! by Chris Wilmer'
_symmetry_space_group_name_H-M	'P1'
_symmetry_Int_Tables_number	1
_symmetry_cell_setting	triclinic
loop_
_symmetry_equiv_pos_as_xyz
  x,y,z
_cell_length_a	15.297475
_cell_length_b	19.121063
_cell_length_c	19.120915
_cell_angle_alpha	85.261346
_cell_angle_beta	96.853093
_cell_angle_gamma	83.156694
loop_
_atom_site_label
_atom_site_type_symbol
_atom_site_fract_x
_atom_site_fract_y
_atom_site_fract_z
Zn1	Zn	1.320017	-0.483117	0.595224
Zn2	Zn	1.319912	-0.595755	0.482561
Zn3	Zn	1.178078	-0.458120	0.457636
Zn4	Zn	1.164781	-0.578867	0.578386
O5	O	1.245697	-0.528964	0.528451
O6	O	1.444328	-0.515587	0.597757
O7	O	1.306618	-0.574104	0.381570
O8	O	1.202515	-0.363764	0.472503
O9	O	1.444251	-0.598342	0.514984
O10	O	1.306797	-0.382129	0.573589
O11	O	1.202413	-0.472984	0.363258
O12	O	1.051989	-0.456609	0.456175
O13	O	1.179853	-0.569559	0.678304
O14	O	1.042220	-0.545320	0.544890
O15	O	1.293904	-0.499212	0.690675
O16	O	1.293725	-0.691186	0.498656
O17	O	1.179751	-0.678779	0.569058
C18	C	1.014868	-0.496420	0.496001
C19	C	0.916116	-0.482515	0.482136
C20	C	0.617506	-0.628353	0.627551
C21	C	0.710288	-0.641422	0.640576
C22	C	0.761750	-0.601696	0.600967
C23	C	0.720420	-0.548899	0.548331
C24	C	0.627630	-0.535831	0.535300
C25	C	0.771873	-0.509175	0.508717
C26	C	0.730544	-0.456378	0.456080
C27	C	0.637762	-0.443312	0.443052
C28	C	0.586300	-0.483038	0.482661
C29	C	0.864664	-0.522243	0.521747
C30	C	0.874787	-0.429722	0.429497
C31	C	0.782005	-0.416652	0.416471
C32	C	1.235307	-0.710312	0.534753
C33	C	1.230942	-0.787905	0.537484
C34	C	1.288274	-0.830803	0.502155
C35	C	1.284174	-0.903711	0.504728
C36	C	1.222737	-0.933719	0.542626
C37	C	1.165403	-0.890816	0.577959
C38	C	1.169508	-0.817910	0.575390
C39	C	1.207376	-1.153525	0.552219
C40	C	1.203274	-1.226436	0.554784
C41	C	1.322046	-1.239326	0.481554
C42	C	1.326142	-1.166418	0.478985
C43	C	1.268811	-1.123522	0.514321
C44	C	1.218543	-1.008242	0.545255
C45	C	1.273010	-1.049001	0.511695
C46	C	1.477427	-0.561637	0.561029
C47	C	1.576177	-0.575559	0.574912
C48	C	1.235407	-0.535290	0.710526
C49	C	1.231022	-0.537985	0.788115
C50	C	1.256151	-0.346913	0.522144
C51	C	1.260605	-0.269333	0.519456
C52	C	1.256001	-0.522621	0.347091
C53	C	1.260569	-0.519753	0.269519
C54	C	1.203249	-0.555107	1.226624
C55	C	1.207366	-0.552563	1.153720
C56	C	1.268809	-0.514670	1.123713
C57	C	1.326133	-0.479312	1.166614
C58	C	1.322010	-0.481852	1.239516
C59	C	1.284223	-0.505167	0.903918
C60	C	1.288343	-0.502631	0.831010
C61	C	1.169574	-0.575882	0.818122
C62	C	1.165461	-0.578421	0.891026
C63	C	1.222781	-0.543060	0.933920
C64	C	1.273021	-0.512072	1.049194
C65	C	1.218564	-0.545655	1.008437
H66	H	0.575598	-0.660696	0.659791
H67	H	1.323035	-1.024567	0.480842
H68	H	1.368723	-1.274260	0.452787
H69	H	1.376169	-1.141987	0.448125
N70	N	0.861822	-0.615781	0.615017
H71	H	0.886141	-0.630014	0.570690
H72	H	0.880125	-0.655239	0.654394
N73	N	1.346005	-0.949979	0.466620
H74	H	1.383848	-0.986971	0.501862
H75	H	1.385486	-0.919853	0.442218
N76	N	1.107738	-0.614008	0.771861
H77	H	1.117947	-0.666265	0.788210
H78	H	1.119694	-0.606596	0.721137
H79	H	1.168533	-0.576503	1.032871
N80	N	0.754863	-0.698367	0.697341
H81	H	0.708186	-0.721550	0.720456
H82	H	0.793165	-0.676555	0.734114
H83	H	0.916687	-0.397374	0.397243
H84	H	1.338299	-0.806375	0.471291
H85	H	1.168520	-1.032682	0.576110
H86	H	1.153218	-0.585967	1.251050
H87	H	1.153254	-1.250867	0.585659
H88	H	1.323051	-0.481221	1.024754
H89	H	0.748342	-0.373664	0.373614
N90	N	1.099191	-0.619295	0.923386
H91	H	1.131735	-0.657786	0.959822
H92	H	1.063525	-0.641260	0.885102
N93	N	1.145529	-0.590700	1.107471
H94	H	1.181472	-0.627086	1.083412
H95	H	1.107698	-0.555431	1.070500
N96	N	0.486226	-0.468950	0.468601
H97	H	0.459901	-0.502129	0.501680
H98	H	0.465929	-0.476886	0.417982
N99	N	1.354619	-0.461762	0.798644
H100	H	1.390305	-0.439745	0.836878
H101	H	1.322020	-0.423312	0.762192
H102	H	1.330902	-0.476378	0.938834
H103	H	1.376157	-0.448456	1.142176
N104	N	1.145536	-1.107263	0.590323
H105	H	1.105991	-1.137337	0.614715
H106	H	1.107761	-1.070276	0.555039
H107	H	1.368684	-0.453060	1.274440
H108	H	0.898305	-0.565231	0.564605
H109	H	1.115384	-0.915254	0.608820
N110	N	0.593182	-0.386376	0.386273
H111	H	0.639859	-0.363192	0.363157
H112	H	0.554925	-0.349688	0.408214
H113	H	1.122824	-0.782983	0.604159
