data_functionalizedCrystal
_audit_creation_method	'MofGen! by Chris Wilmer'
_symmetry_space_group_name_H-M	'P1'
_symmetry_Int_Tables_number	1
_symmetry_cell_setting	triclinic
loop_
_symmetry_equiv_pos_as_xyz
  x,y,z
_cell_length_a	12.759387
_cell_length_b	21.395362
_cell_length_c	21.395361
_cell_angle_alpha	90.046585
_cell_angle_beta	90.039752
_cell_angle_gamma	90.040592
loop_
_atom_site_label
_atom_site_type_symbol
_atom_site_fract_x
_atom_site_fract_y
_atom_site_fract_z
Zn1	Zn	-0.594559	-0.957839	0.249133
Zn2	Zn	-0.094559	-0.457839	0.749133
Zn3	Zn	-0.418855	-0.957747	0.353926
Zn4	Zn	0.081145	-0.457747	0.853926
Zn5	Zn	-0.418829	-0.853060	0.249195
Zn6	Zn	0.081171	-0.353060	0.749195
Zn7	Zn	-0.594428	-0.853023	0.353905
Zn8	Zn	-0.094428	-0.353023	0.853905
O9	O	-0.506668	-0.905417	0.301540
O10	O	-0.006668	-0.405417	0.801540
O11	O	-0.571317	-1.045505	0.263016
O12	O	-0.071317	-0.545505	0.763016
O13	O	-0.271831	-0.943838	0.340068
O14	O	0.228169	-0.443838	0.840068
O15	O	-0.442184	-0.867013	0.161509
O16	O	0.057816	-0.367013	0.661509
O17	O	-0.442229	-1.045437	0.340007
O18	O	0.057771	-0.545437	0.840007
O19	O	-0.571292	-0.943993	0.161463
O20	O	-0.071292	-0.443993	0.661463
O21	O	-0.271811	-0.866924	0.263123
O22	O	0.228189	-0.366924	0.763123
O23	O	-0.442057	-0.765377	0.263103
O24	O	0.057943	-0.265377	0.763103
O25	O	-0.741466	-0.866950	0.339972
O26	O	-0.241466	-0.366950	0.839972
O27	O	-0.571068	-0.765350	0.340033
O28	O	-0.071068	-0.265350	0.840033
O29	O	-0.741563	-0.943958	0.262996
O30	O	-0.241563	-0.443958	0.762996
O31	O	-0.442102	-0.943802	0.441601
O32	O	0.057898	-0.443802	0.941601
O33	O	-0.571094	-0.866861	0.441586
O34	O	-0.071094	-0.366861	0.941586
C35	C	-0.506609	-0.905335	0.464328
C36	C	-0.006609	-0.405335	0.964328
C37	C	-0.506619	-0.905357	0.533969
C38	C	-0.006619	-0.405357	1.033969
C39	C	-0.506546	-0.742630	0.301573
C40	C	-0.006546	-0.242630	0.801573
C41	C	-0.506519	-0.672988	0.301602
C42	C	-0.006519	-0.172988	0.801602
C43	C	-0.780701	-0.905460	0.301475
C44	C	-0.280701	-0.405460	0.801475
C45	C	-0.897478	-0.905478	0.301448
C46	C	-0.397478	-0.405478	0.801448
C47	C	-0.897477	-0.825393	0.221319
C48	C	-0.397477	-0.325393	0.721319
C49	C	-0.952337	-0.785362	0.181242
C50	C	-0.452337	-0.285362	0.681242
C51	C	-1.062059	-0.785381	0.181220
C52	C	-0.562059	-0.285381	0.681220
C53	C	-1.116923	-0.825434	0.221279
C54	C	-0.616923	-0.325434	0.721279
C55	C	-1.062063	-0.865465	0.261356
C56	C	-0.562063	-0.365465	0.761356
C57	C	-0.952338	-0.865443	0.261373
C58	C	-0.452338	-0.365443	0.761373
C59	C	-1.062064	-0.945545	0.341487
C60	C	-0.562064	-0.445545	0.841487
C61	C	-0.952342	-0.945531	0.341507
C62	C	-0.452342	-0.445531	0.841507
C63	C	-1.116928	-0.985598	0.381546
C64	C	-0.616928	-0.485598	0.881546
C65	C	-1.062068	-1.025633	0.421621
C66	C	-0.562068	-0.525633	0.921621
C67	C	-0.952339	-1.025613	0.421641
C68	C	-0.452339	-0.525613	0.921641
C69	C	-0.897482	-0.985562	0.381584
C70	C	-0.397482	-0.485562	0.881584
C71	C	-0.233700	-0.905411	0.301559
C72	C	0.266300	-0.405411	0.801559
C73	C	-0.116924	-0.905514	0.301410
C74	C	0.383076	-0.405514	0.801410
C75	C	-0.506791	-1.068841	0.301507
C76	C	-0.006791	-0.568841	0.801507
C77	C	-0.506843	-1.138482	0.301493
C78	C	-0.006843	-0.638482	0.801493
C79	C	-0.573594	-0.640277	0.341713
C80	C	-0.073594	-0.140277	0.841713
C81	C	-0.573641	-0.574842	0.341698
C82	C	-0.073641	-0.074842	0.841698
C83	C	-0.506593	-0.542120	0.301578
C84	C	-0.006593	-0.042120	0.801578
C85	C	-0.439513	-0.574839	0.261460
C86	C	0.060487	-0.074839	0.761460
C87	C	-0.439476	-0.640273	0.261472
C88	C	0.060524	-0.140273	0.761472
C89	C	-0.412012	-0.438399	0.296549
C90	C	0.087988	0.061601	0.796549
C91	C	-0.412047	-0.372966	0.296541
C92	C	0.087953	0.127034	0.796541
C93	C	-0.506709	-0.340299	0.301537
C94	C	-0.006709	0.159701	0.801537
C95	C	-0.601339	-0.373074	0.306554
C96	C	-0.101339	0.126926	0.806554
C97	C	-0.601301	-0.438508	0.306566
C98	C	-0.101301	0.061492	0.806566
C99	C	-0.506627	-0.471168	0.301560
C100	C	-0.006627	0.028832	0.801560
C101	C	-0.573842	-0.236636	0.341633
C102	C	-0.073842	0.263364	0.841633
C103	C	-0.573890	-0.171199	0.341614
C104	C	-0.073890	0.328801	0.841614
C105	C	-0.439753	-0.171197	0.261379
C106	C	0.060247	0.328803	0.761379
C107	C	-0.439714	-0.236633	0.261395
C108	C	0.060286	0.263367	0.761395
C109	C	-0.506757	-0.269348	0.301526
C110	C	-0.006757	0.230652	0.801526
C111	C	-0.506749	-0.905517	0.138116
C112	C	-0.006749	-0.405517	0.638116
C113	C	-0.506784	-0.905560	0.068475
C114	C	-0.006784	-0.405560	0.568475
C115	C	-0.439522	-0.945455	0.566669
C116	C	0.060478	-0.445455	1.066669
C117	C	-0.439545	-0.945484	0.632104
C118	C	0.060455	-0.445484	1.132104
C119	C	-0.506655	-0.905404	0.664837
C120	C	-0.006655	-0.405404	1.164837
C121	C	-0.573766	-0.865302	0.632129
C122	C	-0.073766	-0.365302	1.132129
C123	C	-0.573748	-0.865279	0.566695
C124	C	-0.073748	-0.365279	1.066695
C125	C	-0.514856	-0.848989	0.768566
C126	C	-0.014856	-0.348989	1.268566
C127	C	-0.514867	-0.849011	0.833999
C128	C	-0.014867	-0.349011	1.333999
C129	C	-0.506717	-0.905477	0.866658
C130	C	-0.006717	-0.405477	1.366658
C131	C	-0.498534	-0.961921	0.833875
C132	C	0.001466	-0.461921	1.333875
C133	C	-0.498516	-0.961898	0.768441
C134	C	0.001484	-0.461898	1.268441
C135	C	-0.506683	-0.905425	0.735789
C136	C	-0.006683	-0.405425	1.235789
C137	C	-0.439642	-0.945610	0.970310
C138	C	0.060358	-0.445610	1.470310
C139	C	-0.439672	-0.945640	1.035747
C140	C	0.060328	-0.445640	1.535747
C141	C	-0.573887	-0.865453	1.035770
C142	C	-0.073887	-0.365453	1.535770
C143	C	-0.573862	-0.865428	0.970335
C144	C	-0.073862	-0.365428	1.470335
C145	C	-0.506733	-0.905506	0.937609
C146	C	-0.006733	-0.405506	1.437609
H147	H	-0.808136	-0.825379	0.221329
H148	H	-0.308136	-0.325379	0.721329
H149	H	-0.907655	-0.752751	0.148628
H150	H	-0.407655	-0.252751	0.648628
H151	H	-0.628409	-0.832670	0.658784
H152	H	-0.128409	-0.332670	1.158784
Br153	Br	-0.348439	-0.684670	0.207030
Br154	Br	0.151561	-0.184670	0.707030
H155	H	-0.384907	-0.978139	0.658734
H156	H	0.115093	-0.478139	1.158734
Br157	Br	-1.136517	-0.731055	0.126828
Br158	Br	-0.636517	-0.231055	0.626828
Br159	Br	-0.487419	-1.038497	0.723952
Br160	Br	0.012581	-0.538497	1.223952
Br161	Br	-0.748573	-0.985535	0.381605
Br162	Br	-0.248573	-0.485535	0.881605
H163	H	-0.521520	-0.803050	0.860686
H164	H	-0.021520	-0.303050	1.360686
H165	H	-0.384865	-0.978090	0.540025
H166	H	0.115135	-0.478090	1.040025
H167	H	-1.206264	-0.825440	0.221263
H168	H	-0.706264	-0.325440	0.721263
Br169	Br	-1.265837	-0.985616	0.381525
Br170	Br	-0.765837	-0.485616	0.881525
H171	H	-0.678422	-0.346479	0.310622
H172	H	-0.178422	0.153521	0.810622
Br173	Br	-0.664939	-0.126804	0.396049
Br174	Br	-0.164939	0.373196	0.896049
H175	H	-1.106747	-1.058238	0.454237
H176	H	-0.606747	-0.558238	0.954237
H177	H	-0.628437	-0.263274	0.374307
H178	H	-0.128437	0.236726	0.874307
H179	H	-0.907679	-1.058213	0.454275
H180	H	-0.407679	-0.558213	0.954275
H181	H	-0.628188	-0.666910	0.374389
H182	H	-0.128188	-0.166910	0.874389
H183	H	-0.385166	-0.144556	0.228710
H184	H	0.114834	0.355444	0.728710
Br185	Br	-0.664681	-0.530439	0.396136
Br186	Br	-0.164681	-0.030439	0.896136
H187	H	-0.678352	-0.465191	0.310650
H188	H	-0.178352	0.034809	0.810650
H189	H	-0.491898	-1.007901	0.860464
H190	H	0.008102	-0.507901	1.360464
H191	H	-0.385088	-0.263266	0.228736
H192	H	0.114912	0.236734	0.728736
H193	H	-0.334994	-0.346286	0.292460
H194	H	0.165006	0.153714	0.792460
Br195	Br	-0.664926	-0.811004	0.925953
Br196	Br	-0.164926	-0.311004	1.425953
Br197	Br	-0.283530	-0.482725	0.289768
Br198	Br	0.216470	0.017275	0.789768
Br199	Br	-0.348527	-0.530432	0.207006
Br200	Br	0.151473	-0.030432	0.707006
Br201	Br	-0.348538	-0.999998	0.925892
Br202	Br	0.151462	-0.499998	1.425892
H203	H	-0.385036	-0.978297	1.062370
H204	H	0.114964	-0.478297	1.562370
H205	H	-0.628534	-0.832821	1.062421
H206	H	-0.128534	-0.332821	1.562421
Br207	Br	-0.664817	-0.810856	0.522313
Br208	Br	-0.164817	-0.310856	1.022313
H209	H	-0.521497	-0.803004	0.741982
H210	H	-0.021497	-0.303004	1.241982
