data_functionalizedCrystal
_audit_creation_method	'MofGen! by Chris Wilmer'
_symmetry_space_group_name_H-M	'P1'
_symmetry_Int_Tables_number	1
_symmetry_cell_setting	triclinic
loop_
_symmetry_equiv_pos_as_xyz
  x,y,z
_cell_length_a	19.121063
_cell_length_b	12.759401
_cell_length_c	12.759393
_cell_angle_alpha	90.019837
_cell_angle_beta	92.402864
_cell_angle_gamma	87.529561
loop_
_atom_site_label
_atom_site_type_symbol
_atom_site_fract_x
_atom_site_fract_y
_atom_site_fract_z
Zn1	Zn	-0.279543	-1.588322	-0.611808
Zn2	Zn	-0.397012	-1.580681	-0.443603
Zn3	Zn	-0.279582	-1.412622	-0.436146
Zn4	Zn	-0.396960	-1.405081	-0.619237
O5	O	-0.338274	-1.496677	-0.527699
O6	O	-0.295130	-1.734330	-0.589507
O7	O	-0.381472	-1.558346	-0.295595
O8	O	-0.181293	-1.442283	-0.453218
O9	O	-0.381434	-1.728716	-0.465928
O10	O	-0.181264	-1.571369	-0.582276
O11	O	-0.295198	-1.434874	-0.290116
O12	O	-0.295148	-1.264601	-0.460421
O13	O	-0.381346	-1.429430	-0.765270
O14	O	-0.381385	-1.259060	-0.594938
O15	O	-0.295080	-1.564057	-0.759812
O16	O	-0.495289	-1.551034	-0.473131
O17	O	-0.495251	-1.422021	-0.602169
C18	C	-0.338266	-1.223710	-0.527677
C19	C	-0.338279	-1.106932	-0.527694
C20	C	-0.520754	-1.484908	-0.539288
C21	C	-0.598820	-1.479970	-0.544281
C22	C	-0.338203	-1.496755	-0.801727
C23	C	-0.338173	-1.496788	-0.918502
C24	C	-0.635492	-1.544872	-0.479500
C25	C	-0.708843	-1.540234	-0.484202
C26	C	-0.745521	-1.470687	-0.553682
C27	C	-0.708844	-1.405782	-0.618470
C28	C	-0.635494	-1.410427	-0.613772
C29	C	-0.966989	-1.453306	-0.571229
C30	C	-1.040344	-1.448664	-0.575920
C31	C	-1.040338	-1.583118	-0.441653
C32	C	-0.966987	-1.587751	-0.436957
C33	C	-0.930316	-1.522851	-0.501749
C34	C	-0.820497	-1.465942	-0.558487
C35	C	-0.855341	-1.527602	-0.496948
C36	C	-0.155082	-1.508520	-0.516087
C37	C	-0.077016	-1.513566	-0.511138
C38	C	-0.338283	-1.770709	-0.527721
C39	C	-0.338287	-1.887486	-0.527730
C40	C	-0.383251	-1.049209	-0.597635
C41	C	-0.383253	-0.939484	-0.597656
C42	C	-0.293310	-0.945217	-0.457786
C43	C	-0.293305	-1.054940	-0.457770
C44	C	-0.293241	-1.432520	-0.970510
C45	C	-0.293220	-1.432546	-1.080233
C46	C	-0.383063	-1.561116	-1.085930
C47	C	-0.383088	-1.561084	-0.976210
C48	C	-0.338294	-1.496663	-0.254732
C49	C	-0.338127	-1.496846	-0.137946
H50	H	-0.738698	-1.593083	-0.431450
N51	N	-0.247322	-1.366886	-1.133342
N52	N	-0.207229	-1.309483	-1.081801
H53	H	-0.174813	-1.263106	-1.119307
H54	H	-0.419631	-1.613464	-1.132929
H55	H	-0.256669	-1.380166	-0.923528
N56	N	-0.247387	-0.892106	-0.386343
N57	N	-0.251970	-0.904021	-0.289676
H58	H	-0.219537	-0.866513	-0.239215
H59	H	-0.256679	-1.101940	-0.400815
N60	N	-0.428996	-1.626734	-0.923094
N61	N	-0.469092	-1.684139	-0.974627
H62	H	-0.501516	-1.730500	-0.937115
H63	H	-0.937125	-1.644382	-0.380381
N64	N	-0.598040	-1.615911	-0.408513
N65	N	-0.630795	-1.673853	-0.350679
H66	H	-0.604348	-1.724028	-0.300542
H67	H	-1.070203	-1.635958	-0.388904
N68	N	-0.929548	-1.387006	-0.637417
N69	N	-0.962308	-1.324915	-0.699443
H70	H	-0.935863	-1.278086	-0.746192
N71	N	-0.429206	-0.880523	-0.669081
N72	N	-0.473936	-0.816400	-0.634848
H73	H	-0.506394	-0.774759	-0.685293
H74	H	-0.850368	-1.409315	-0.615056
H75	H	-1.070205	-1.392043	-0.632516
N76	N	-0.746318	-1.334757	-0.689446
N77	N	-0.811808	-1.330618	-0.693632
H78	H	-0.838274	-1.280454	-0.743760
N79	N	-0.598032	-1.344145	-0.679959
N80	N	-0.606167	-1.350553	-0.777431
H81	H	-0.579709	-1.303744	-0.824182
H82	H	-0.419870	-1.091538	-0.654574
N83	N	-0.817869	-1.598624	-0.425974
N84	N	-0.776995	-1.564267	-0.356385
H85	H	-0.750524	-1.614422	-0.306255
