data_functionalizedCrystal
_audit_creation_method	'MofGen! by Chris Wilmer'
_symmetry_space_group_name_H-M	'P1'
_symmetry_Int_Tables_number	1
_symmetry_cell_setting	triclinic
loop_
_symmetry_equiv_pos_as_xyz
  x,y,z
_cell_length_a	14.519731
_cell_length_b	14.519709
_cell_length_c	10.268362
_cell_angle_alpha	89.993769
_cell_angle_beta	89.995325
_cell_angle_gamma	83.684499
loop_
_atom_site_label
_atom_site_type_symbol
_atom_site_fract_x
_atom_site_fract_y
_atom_site_fract_z
O1	O	1.223855	0.120985	-0.108306
O2	O	1.557189	0.454319	0.225027
O3	O	1.890522	0.787652	0.558361
O4	O	0.955381	0.135202	-0.108308
O5	O	1.288715	0.468535	0.225025
O6	O	1.622048	0.801868	0.558358
O7	O	1.096737	-0.006144	-0.108295
O8	O	1.430070	0.327189	0.225038
O9	O	1.763403	0.660522	0.558371
O10	O	1.082500	0.262331	-0.108319
O11	O	1.415833	0.595665	0.225014
O12	O	1.749167	0.928998	0.558348
O13	O	1.096724	-0.006150	0.108305
O14	O	1.430058	0.327183	0.441639
O15	O	1.763391	0.660516	0.774972
O16	O	0.955369	0.135196	0.108292
O17	O	1.288702	0.468529	0.441626
O18	O	1.622036	0.801862	0.774959
O19	O	1.223843	0.120980	0.108295
O20	O	1.557176	0.454313	0.441628
O21	O	1.890510	0.787646	0.774961
Cu22	Cu	1.089605	0.128087	0.128071
Cu23	Cu	1.422938	0.461420	0.461404
Cu24	Cu	1.756272	0.794754	0.794738
Cu25	Cu	1.089619	0.128094	-0.128084
Cu26	Cu	1.422953	0.461427	0.205249
Cu27	Cu	1.756286	0.794761	0.538582
O28	O	1.082488	0.262326	0.108282
O29	O	1.415821	0.595659	0.441615
O30	O	1.749154	0.928992	0.774948
C31	C	0.921016	0.134532	-0.000008
C32	C	1.254349	0.467866	0.333325
C33	C	1.587682	0.801199	0.666659
C34	C	0.818635	0.132536	-0.000009
C35	C	1.151969	0.465870	0.333325
C36	C	1.485302	0.799203	0.666658
C37	C	1.096067	-0.040507	0.000005
C38	C	1.429400	0.292826	0.333339
C39	C	1.762734	0.626160	0.666672
C40	C	1.094079	-0.142889	0.000006
C41	C	1.427412	0.190445	0.333339
C42	C	1.760745	0.523778	0.666673
C43	C	0.735491	0.130915	-0.000014
C44	C	1.068825	0.464248	0.333320
C45	C	1.402158	0.797581	0.666653
C46	C	0.631182	0.128888	-0.000014
C47	C	0.964516	0.462221	0.333319
C48	C	1.297849	0.795555	0.666653
C49	C	0.548043	0.127280	-0.000014
C50	C	0.881377	0.460613	0.333320
C51	C	1.214710	0.793946	0.666653
C52	C	0.443728	0.125253	-0.000017
C53	C	0.777061	0.458586	0.333317
C54	C	1.110395	0.791920	0.666650
C55	C	1.086759	-0.517785	-0.000028
C56	C	1.420093	-0.184452	0.333305
C57	C	1.753426	0.148882	0.666639
C58	C	1.088792	-0.413477	-0.000018
C59	C	1.422125	-0.080143	0.333315
C60	C	1.755459	0.253190	0.666649
C61	C	1.090419	-0.330340	-0.000010
C62	C	1.423752	0.002993	0.333324
C63	C	1.757085	0.336327	0.666657
C64	C	1.092452	-0.226025	-0.000002
C65	C	1.425785	0.107308	0.333331
C66	C	1.759118	0.440641	0.666664
C67	C	1.258209	0.121649	-0.000008
C68	C	1.591542	0.454982	0.333325
C69	C	1.924875	0.788315	0.666658
C70	C	1.360589	0.123645	-0.000016
C71	C	1.693922	0.456978	0.333317
C72	C	2.027256	0.790311	0.666650
C73	C	1.083157	0.296688	-0.000022
C74	C	1.416491	0.630022	0.333312
C75	C	1.749824	0.963355	0.666645
C76	C	1.085146	0.399070	-0.000031
C77	C	1.418479	0.732403	0.333302
C78	C	1.751812	1.065736	0.666636
N79	N	1.089601	0.128082	0.308237
N80	N	1.422935	0.461415	0.641570
N81	N	1.756268	0.794748	0.974903
N82	N	1.089630	0.128092	-0.308250
N83	N	1.422964	0.461425	0.025083
N84	N	1.756297	0.794759	0.358416
C85	C	1.089615	0.128092	0.573907
C86	C	1.422948	0.461426	0.907241
C87	C	1.756281	0.794759	1.240574
C88	C	1.089604	0.128089	0.426069
C89	C	1.422938	0.461422	0.759403
C90	C	1.756271	0.794756	1.092736
