data_functionalizedCrystal
_audit_creation_method	'MofGen! by Chris Wilmer'
_symmetry_space_group_name_H-M	'P1'
_symmetry_Int_Tables_number	1
_symmetry_cell_setting	triclinic
loop_
_symmetry_equiv_pos_as_xyz
  x,y,z
_cell_length_a	16.109301
_cell_length_b	16.109301
_cell_length_c	13.448316
_cell_angle_alpha	89.991973
_cell_angle_beta	89.995602
_cell_angle_gamma	83.461532
loop_
_atom_site_label
_atom_site_type_symbol
_atom_site_fract_x
_atom_site_fract_y
_atom_site_fract_z
O1	O	1.103134	0.106870	-0.082640
O2	O	0.861072	0.120169	-0.082655
O3	O	0.988753	-0.007511	-0.082637
O4	O	0.975454	0.234551	-0.082658
O5	O	0.988737	-0.007519	0.082747
O6	O	0.861056	0.120161	0.082729
O7	O	1.103118	0.106862	0.082743
Cu8	Cu	0.982086	0.113511	0.097837
Cu9	Cu	0.982105	0.113520	-0.097748
O10	O	0.975438	0.234543	0.082726
C11	C	0.830089	0.119627	0.000035
C12	C	0.737794	0.118011	0.000030
C13	C	0.428796	0.188494	0.000041
C14	C	0.515516	0.190020	0.000036
C15	C	0.535389	0.038531	0.000035
C16	C	0.448671	0.037007	0.000034
C17	C	0.395376	0.111991	0.000042
C18	C	0.568815	0.115041	0.000038
C19	C	0.662841	0.116694	0.000031
C20	C	0.301344	0.110338	0.000047
C21	C	0.988206	-0.038490	0.000055
C22	C	0.986591	-0.130785	0.000057
C23	C	1.058599	-0.353058	0.000045
C24	C	1.057075	-0.439778	0.000037
C25	C	0.905586	-0.419904	0.000032
C26	C	0.907111	-0.333185	0.000033
C27	C	0.983620	-0.299765	0.000045
C28	C	0.980571	-0.473204	0.000035
C29	C	0.978918	-0.567230	0.000026
C30	C	0.985273	-0.205733	0.000052
C31	C	1.134101	0.107405	0.000051
C32	C	1.226396	0.109020	0.000050
C33	C	0.975984	0.265522	0.000031
C34	C	0.977599	0.357817	0.000023
N35	N	0.982079	0.113504	0.235401
N36	N	0.982119	0.113521	-0.235313
C37	C	1.038633	0.056990	0.287450
C38	C	1.038638	0.056990	0.391553
C39	C	0.982092	0.113507	0.443606
C40	C	0.925532	0.170024	0.391550
C41	C	0.925523	0.170020	0.287449
C42	C	0.925555	0.170029	0.608531
C43	C	0.925564	0.170035	0.712639
C44	C	1.038670	0.056999	0.712634
C45	C	1.038661	0.056995	0.608533
C46	C	0.982102	0.113513	0.556485
H47	H	0.578792	-0.022518	0.000031
H48	H	0.421461	-0.025296	0.000032
H49	H	1.084689	0.010971	0.433930
C50	C	0.824630	-0.274559	0.000035
H51	H	0.778846	-0.306882	0.000043
H52	H	0.822081	-0.240310	-0.057637
H53	H	0.822076	-0.240325	0.057717
H54	H	1.118130	-0.483167	0.000035
C55	C	1.142754	-0.316297	0.000047
H56	H	1.187190	-0.360460	0.000037
H57	H	1.146498	-0.282888	0.057719
H58	H	1.146499	-0.282876	-0.057634
H59	H	0.879495	0.216049	0.566156
H60	H	0.843295	-0.447126	0.000024
C61	C	1.100833	-0.005181	0.230200
H62	H	1.134510	-0.038844	0.276112
H63	H	1.135429	0.024733	0.189574
H64	H	1.070929	-0.039805	0.189608
C65	C	1.100860	-0.005173	0.551276
H66	H	1.134540	-0.038838	0.597182
H67	H	1.135451	0.024745	0.510649
H68	H	1.070952	-0.039795	0.510684
H69	H	0.542722	0.252317	0.000034
C70	C	0.863306	0.232169	0.448801
H71	H	0.829610	0.265814	0.402891
H72	H	0.893178	0.266801	0.489413
H73	H	0.828720	0.202221	0.489409
H74	H	1.084722	0.010981	0.755018
C75	C	0.863313	0.232149	0.769896
H76	H	0.829604	0.265786	0.723990
H77	H	0.893158	0.266793	0.810523
H78	H	0.828743	0.202170	0.810488
C79	C	0.863317	0.232188	0.230196
H80	H	0.829646	0.265854	0.276105
H81	H	0.828716	0.202268	0.189600
H82	H	0.893214	0.266809	0.189573
H83	H	0.385405	0.249551	0.000047
