data_functionalizedCrystal
_audit_creation_method	'MofGen! by Chris Wilmer'
_symmetry_space_group_name_H-M	'P1'
_symmetry_Int_Tables_number	1
_symmetry_cell_setting	triclinic
loop_
_symmetry_equiv_pos_as_xyz
  x,y,z
_cell_length_a	15.995350
_cell_length_b	15.021413
_cell_length_c	15.995280
_cell_angle_alpha	90.006418
_cell_angle_beta	96.522015
_cell_angle_gamma	90.003669
loop_
_atom_site_label
_atom_site_type_symbol
_atom_site_fract_x
_atom_site_fract_y
_atom_site_fract_z
O1	O	1.110963	0.073952	-0.107919
O2	O	0.867184	0.073970	-0.121247
O3	O	0.995768	0.073960	0.007309
O4	O	0.982379	0.073962	-0.236475
O5	O	0.995748	-0.074104	0.007290
O6	O	0.867164	-0.074095	-0.121265
O7	O	1.110942	-0.074112	-0.107937
Zn8	Zn	0.989050	-0.097612	-0.114604
Zn9	Zn	0.989077	0.097469	-0.114580
O10	O	0.982359	-0.074103	-0.236493
C11	C	0.835979	-0.000060	-0.120705
C12	C	0.743029	-0.000053	-0.119053
N13	N	0.989038	-0.230750	-0.114620
C14	C	0.405283	-0.000072	-0.113121
C15	C	0.452741	-0.000403	-0.021566
C16	C	0.549430	-0.000063	-0.023218
C17	C	0.572843	-0.000063	-0.116063
C18	C	0.531756	0.084486	-0.161211
C19	C	0.435121	0.084550	-0.158911
C20	C	0.434759	-0.083827	-0.160824
C21	C	0.531704	-0.084938	-0.160802
C22	C	0.667540	-0.000055	-0.117731
C23	C	0.310586	-0.000074	-0.111456
C24	C	0.929571	-0.470428	-0.174036
C25	C	1.005226	-0.529768	-0.190288
C26	C	0.989059	-0.412356	-0.114599
C27	C	0.913425	-0.529758	-0.098366
C28	C	0.989073	-0.587780	-0.114581
C29	C	1.064752	-0.470390	-0.130889
C30	C	0.972901	-0.470375	-0.038934
C31	C	1.048610	-0.529688	-0.055154
C32	C	0.989050	-0.311299	-0.114612
C33	C	0.989091	-0.688836	-0.114568
C34	C	1.142147	-0.000081	-0.108479
C35	C	1.235097	-0.000082	-0.110131
C36	C	0.995215	-0.000071	0.038495
C37	C	0.993587	-0.000065	0.131449
N38	N	0.989096	0.230607	-0.114557
C39	C	0.987600	-0.000078	0.469189
C40	C	1.080403	-0.000415	0.445877
C41	C	1.082163	-0.000077	0.349201
C42	C	0.990571	-0.000072	0.301632
C43	C	0.944186	0.084480	0.330744
C44	C	0.943073	0.084546	0.427535
C45	C	0.941155	-0.083830	0.427371
C46	C	0.944589	-0.084943	0.330878
C47	C	0.992245	-0.000066	0.206936
C48	C	0.985924	-0.000078	0.563885
C49	C	0.982923	-0.000074	0.732322
C50	C	0.984584	-0.000085	0.639373
H51	H	0.577860	-0.060671	0.012271
Cl52	Cl	0.553562	0.089362	-0.266515
H53	H	0.975216	0.147748	0.454359
H54	H	1.128734	-0.444422	-0.144687
H55	H	1.118491	-0.060686	0.330168
Cl56	Cl	0.838023	0.090483	0.450005
Cl57	Cl	0.592442	0.093835	0.031726
Cl58	Cl	0.841368	-0.092823	0.279979
Cl59	Cl	0.814664	-0.570023	-0.077178
Cl60	Cl	1.026348	-0.570048	-0.289067
Cl61	Cl	1.135626	-0.094034	0.489090
Cl62	Cl	1.135343	0.092669	0.490686
H63	H	0.872844	-0.084397	0.441362
Cl64	Cl	0.406877	0.182128	-0.108054
Cl65	Cl	0.573774	-0.181509	-0.109835
Cl66	Cl	0.996727	-0.181521	0.302194
Cl67	Cl	0.385696	-0.084711	-0.265042
Cl68	Cl	0.424140	-0.094016	0.034927
Cl69	Cl	0.840127	0.089348	0.281540
H70	H	0.433164	0.059896	0.014870
Cl71	Cl	0.851981	-0.430249	-0.251699
Cl72	Cl	1.126371	-0.569616	0.022466
H73	H	0.959198	-0.444266	0.025026
Cl74	Cl	0.555390	-0.092822	-0.265340
H75	H	1.118722	0.060635	0.330803
Cl76	Cl	0.985969	-0.182776	0.471049
H77	H	0.976414	0.147401	0.310691
H78	H	0.560147	0.147409	-0.129838
Cl79	Cl	0.403058	-0.182771	-0.114620
Cl80	Cl	0.385303	0.090476	-0.262686
