data_functionalizedCrystal
_audit_creation_method	'MofGen! by Chris Wilmer'
_symmetry_space_group_name_H-M	'P1'
_symmetry_Int_Tables_number	1
_symmetry_cell_setting	triclinic
loop_
_symmetry_equiv_pos_as_xyz
  x,y,z
_cell_length_a	6.817900
_cell_length_b	16.256208
_cell_length_c	16.255661
_cell_angle_alpha	95.350611
_cell_angle_beta	103.488922
_cell_angle_gamma	103.499088
loop_
_atom_site_label
_atom_site_type_symbol
_atom_site_fract_x
_atom_site_fract_y
_atom_site_fract_z
V1	V	-4.026770	-0.117778	-0.264174
O2	O	-4.014188	0.004956	-0.258835
O3	O	-3.978378	-0.232858	-0.262666
O4	O	-3.978331	-0.116275	-0.379254
O5	O	-4.014235	-0.112433	-0.141440
V6	V	-4.510402	-0.103061	-0.249458
O7	O	-4.287789	-0.150061	-0.296455
O8	O	-4.699579	-0.070778	-0.217177
O9	O	-4.335587	0.012018	-0.250966
O10	O	-4.640380	-0.225796	-0.254797
O11	O	-4.640333	-0.108406	-0.372192
O12	O	-4.335634	-0.104564	-0.134379
C13	C	-3.823382	-0.260902	-0.258575
C14	C	-3.865103	-0.354983	-0.258109
C15	C	-4.180993	-0.643087	-0.261101
C16	C	-4.024588	-0.573415	-0.189040
C17	C	-4.015127	-0.693616	-0.256396
C18	C	-4.097310	-0.595653	-0.329275
C19	C	-3.941426	-0.527235	-0.257239
C20	C	-3.859240	-0.625174	-0.184270
C21	C	-3.932023	-0.647427	-0.324568
C22	C	-3.775481	-0.577774	-0.252486
C23	C	-4.057590	-0.789464	-0.255909
C24	C	-3.898947	-0.431387	-0.257719
C25	C	-3.823321	-0.112188	-0.407294
C26	C	-3.865001	-0.111721	-0.501374
C27	C	-3.775555	-0.106138	-0.724178
C28	C	-3.932006	-0.178197	-0.793840
C29	C	-3.941385	-0.110845	-0.673620
C30	C	-3.859223	-0.037961	-0.771594
C31	C	-4.015152	-0.109994	-0.840001
C32	C	-4.097318	-0.182968	-0.742052
C33	C	-4.024473	-0.042668	-0.719790
C34	C	-4.181062	-0.114748	-0.789432
C35	C	-3.898884	-0.111335	-0.577772
C36	C	-4.057670	-0.109510	-0.935849
C37	C	-4.153925	0.040058	-0.255055
C38	C	-4.091442	0.134138	-0.255526
C39	C	-4.153986	-0.108654	-0.106334
C40	C	-4.091545	-0.109117	-0.012253
H41	H	-4.197564	-0.582244	-0.390559
O42	O	-4.070922	-0.535111	-0.120663
C43	C	-4.144684	-0.597655	-0.072658
H44	H	-4.208800	-0.662787	-0.115379
H45	H	-4.010758	-0.600442	-0.016835
C46	C	-4.240810	-0.494232	0.014549
C47	C	-4.319576	-0.574226	-0.037923
H48	H	-4.348685	-0.479779	0.035979
H49	H	-4.191109	-0.452094	-0.017790
H50	H	-4.129205	-0.496564	0.061062
H51	H	-4.431160	-0.571890	-0.084440
H52	H	-4.369300	-0.616364	-0.005591
H53	H	-3.758996	-0.638474	-0.122924
H54	H	-3.603605	-0.549394	-0.248826
O55	O	-4.386194	-0.119261	-0.823253
C56	C	-4.511387	-0.195751	-0.808493
H57	H	-4.415712	-0.244593	-0.798206
H58	H	-4.567524	-0.182093	-0.749109
C59	C	-4.819059	-0.171785	-0.899116
C60	C	-4.701554	-0.231777	-0.886490
H61	H	-4.936369	-0.194006	-0.947226
H62	H	-4.734717	-0.120251	-0.909059
H63	H	-4.865819	-0.160409	-0.849624
H64	H	-4.654775	-0.243144	-0.935977
H65	H	-4.785893	-0.283314	-0.876558
H66	H	-4.063040	0.014633	-0.687534
O67	O	-3.886281	-0.685877	-0.393020
C68	C	-4.012700	-0.671329	-0.469308
H69	H	-4.159314	-0.656719	-0.456361
H70	H	-3.921826	-0.614647	-0.493373
C71	C	-3.895425	-0.769684	-0.553524
C72	C	-4.075508	-0.751747	-0.537624
H73	H	-3.934161	-0.819288	-0.595667
H74	H	-3.810247	-0.779484	-0.502128
H75	H	-3.819713	-0.722444	-0.573574
H76	H	-4.151201	-0.798982	-0.517564
H77	H	-4.160700	-0.741957	-0.589018
H78	H	-4.197565	-0.244317	-0.728743
O79	O	-3.570759	-0.102020	-0.690098
C80	C	-3.555577	-0.174864	-0.650825
H81	H	-3.707692	-0.202581	-0.633507
H82	H	-3.526120	-0.224991	-0.696969
C83	C	-3.186471	-0.115237	-0.590257
C84	C	-3.373295	-0.149275	-0.568980
H85	H	-3.074026	-0.099455	-0.539774
H86	H	-3.196696	-0.066162	-0.616719
H87	H	-3.161952	-0.157016	-0.628712
H88	H	-3.397824	-0.107494	-0.530535
H89	H	-3.363070	-0.198343	-0.542510
H90	H	-4.352750	-0.671603	-0.264649
O91	O	-3.886290	-0.246620	-0.832362
C92	C	-4.067909	-0.298390	-0.892267
H93	H	-4.212113	-0.286557	-0.874370
H94	H	-4.068521	-0.281795	-0.958921
C95	C	-3.893562	-0.407875	-0.913824
C96	C	-4.070677	-0.393346	-0.891838
H97	H	-3.895268	-0.466448	-0.913563
H98	H	-3.771199	-0.372996	-0.873468
H99	H	-3.894093	-0.394040	-0.969367
H100	H	-4.070131	-0.407171	-0.836292
H101	H	-4.193041	-0.428230	-0.932185
H102	H	-3.758958	0.023306	-0.785046
