data_functionalizedCrystal
_audit_creation_method	'MofGen! by Chris Wilmer'
_symmetry_space_group_name_H-M	'P1'
_symmetry_Int_Tables_number	1
_symmetry_cell_setting	triclinic
loop_
_symmetry_equiv_pos_as_xyz
  x,y,z
_cell_length_a	10.654545
_cell_length_b	10.654550
_cell_length_c	9.130313
_cell_angle_alpha	89.995631
_cell_angle_beta	89.996934
_cell_angle_gamma	84.484005
loop_
_atom_site_label
_atom_site_type_symbol
_atom_site_fract_x
_atom_site_fract_y
_atom_site_fract_z
O1	O	1.667843	0.176372	-0.121784
O2	O	1.302364	0.193184	-0.121790
O3	O	1.493506	0.002038	-0.121778
O4	O	1.476700	0.367517	-0.121797
O5	O	1.493493	0.002033	0.121821
O6	O	1.302350	0.193178	0.121808
O7	O	1.667830	0.176366	0.121814
Cu8	Cu	1.485089	0.184772	0.144054
Cu9	Cu	1.485104	0.184778	-0.144030
O10	O	1.476687	0.367511	0.121802
C11	C	1.255559	0.191948	0.000008
C12	C	1.116115	0.188258	0.000006
C13	C	1.492266	-0.044762	0.000021
C14	C	1.488574	-0.184206	0.000018
C15	C	1.601115	-0.263693	0.000020
C16	C	1.597639	-0.394714	0.000002
C17	C	1.369069	-0.366747	-0.000013
C18	C	1.372547	-0.235729	-0.000005
C19	C	1.050604	0.186518	0.132793
C20	C	0.919584	0.183030	0.132793
C21	C	0.919599	0.183028	-0.132792
C22	C	1.050617	0.186507	-0.132791
C23	C	1.714634	0.177602	0.000013
C24	C	1.854078	0.181292	0.000005
C25	C	1.477927	0.414312	0.000000
C26	C	1.481619	0.553755	-0.000007
N27	N	1.485087	0.184766	0.346677
N28	N	1.485116	0.184774	-0.346653
C29	C	1.569754	0.100163	0.423334
C30	C	1.569766	0.100163	0.576671
C31	C	1.400440	0.269381	0.576679
C32	C	1.400423	0.269374	0.423345
H33	H	1.695592	-0.221748	0.000036
O34	O	1.661037	0.008894	0.340623
H35	H	1.759088	0.025784	0.370021
O36	O	1.719029	-0.480441	0.000018
H37	H	1.722937	-0.540783	-0.099279
O38	O	1.243928	-0.422316	-0.000007
H39	H	1.260414	-0.526776	0.000009
H40	H	1.280896	-0.171006	-0.000011
O41	O	1.661099	0.008915	0.659338
H42	H	1.607724	-0.052634	0.729206
H43	H	0.866254	0.181604	-0.240910
H44	H	1.331510	0.338268	0.639118
O45	O	1.309104	0.360632	0.340647
H46	H	1.250249	0.419480	0.419717
O47	O	1.121291	0.188388	-0.276016
H48	H	1.053735	0.186606	-0.368358
O49	O	1.121254	0.188409	0.276015
H50	H	1.053683	0.186607	0.368349
O51	O	0.848919	0.181166	0.276011
H52	H	0.916478	0.182979	0.368346
