data_functionalizedCrystal
_audit_creation_method	'MofGen! by Chris Wilmer'
_symmetry_space_group_name_H-M	'P1'
_symmetry_Int_Tables_number	1
_symmetry_cell_setting	triclinic
loop_
_symmetry_equiv_pos_as_xyz
  x,y,z
_cell_length_a	15.298068
_cell_length_b	18.101397
_cell_length_c	15.298431
_cell_angle_alpha	80.284130
_cell_angle_beta	91.585376
_cell_angle_gamma	99.679550
loop_
_atom_site_label
_atom_site_type_symbol
_atom_site_fract_x
_atom_site_fract_y
_atom_site_fract_z
Zn1	Zn	1.253509	-0.013591	-0.727426
Zn2	Zn	1.278753	-0.154678	-0.580933
Zn3	Zn	1.132361	-0.055230	-0.555575
Zn4	Zn	1.107004	-0.161800	-0.701967
O5	O	1.192907	-0.096325	-0.641475
O6	O	1.379436	-0.011900	-0.729261
O7	O	1.280510	-0.155932	-0.454996
O8	O	1.148479	0.053939	-0.578414
O9	O	1.397983	-0.115556	-0.621633
O10	O	1.237486	0.084531	-0.704672
O11	O	1.172956	-0.082868	-0.436365
O12	O	1.006418	-0.089774	-0.553726
O13	O	1.105262	-0.127695	-0.827917
O14	O	0.987789	-0.168070	-0.661280
O15	O	1.212899	-0.018806	-0.846623
O16	O	1.255922	-0.259269	-0.596946
O17	O	1.129739	-0.264501	-0.685869
C18	C	0.965320	-0.134214	-0.601989
C19	C	0.867954	-0.150438	-0.585118
C20	C	0.554813	0.019447	-0.762060
C21	C	0.646292	0.034689	-0.777917
C22	C	0.701712	-0.011591	-0.729718
C23	C	0.665644	-0.073116	-0.665661
C24	C	0.574155	-0.088364	-0.649807
C25	C	0.721054	-0.119402	-0.617465
C26	C	0.684986	-0.180927	-0.553408
C27	C	0.593506	-0.196171	-0.537557
C28	C	0.538086	-0.149891	-0.585755
C29	C	0.812543	-0.104155	-0.633319
C30	C	0.831885	-0.211965	-0.521066
C31	C	0.740406	-0.227207	-0.505209
C32	C	1.192839	-0.288753	-0.641420
C33	C	1.192885	-0.371058	-0.641439
C34	C	1.192983	-0.670121	-0.641539
C35	C	1.272217	-0.635525	-0.585377
C36	C	1.272420	-0.549847	-0.585593
C37	C	1.192935	-0.521752	-0.641489
C38	C	1.201987	-0.537735	-0.738151
C39	C	1.202573	-0.623337	-0.737872
C40	C	1.104379	-0.656849	-0.601805
C41	C	1.105193	-0.571365	-0.599824
C42	C	1.192905	-0.437900	-0.641466
C43	C	1.193014	-0.753972	-0.641568
C44	C	1.421381	-0.058289	-0.681116
C45	C	1.518744	-0.042080	-0.698009
C46	C	1.153436	-0.069400	-0.869941
C47	C	1.136616	-0.057926	-0.967299
C48	C	1.192995	0.096861	-0.641554
C49	C	1.193033	0.179185	-0.641588
C50	C	1.072715	-0.014493	-1.003331
C51	C	1.056900	-0.003715	-1.094802
C52	C	1.104990	-0.036365	-1.150251
C53	C	1.168897	-0.079795	-1.114220
C54	C	1.184708	-0.090579	-1.022739
C55	C	1.216983	-0.112451	-1.169659
C56	C	1.280890	-0.155881	-1.133627
C57	C	1.296699	-0.166662	-1.042156
C58	C	1.248609	-0.134012	-0.986707
C59	C	1.201172	-0.101668	-1.261139
C60	C	1.313165	-0.177754	-1.280547
C61	C	1.328980	-0.188531	-1.189076
C62	C	1.232274	-0.123083	-0.413908
C63	C	1.249264	-0.134320	-0.316579
H64	H	0.776199	0.000825	-0.742630
H65	H	1.149139	-0.066306	-1.290467
N66	N	0.851439	-0.037802	-0.702407
H67	H	0.837860	0.010890	-0.686166
H68	H	0.917791	-0.035235	-0.705108
H69	H	1.092110	-0.027587	-1.224730
H70	H	0.675652	0.084781	-0.830076
N71	N	1.265668	-0.145647	-0.888046
H72	H	1.329574	-0.124629	-0.876450
H73	H	1.225459	-0.118376	-0.858450
N74	N	0.554599	-0.262529	-0.468469
H75	H	0.510506	-0.299036	-0.497412
H76	H	0.603638	-0.289473	-0.440360
H77	H	0.509682	0.057118	-0.801302
N78	N	1.267464	-0.676992	-0.490880
H79	H	1.322911	-0.700056	-0.476464
H80	H	1.262353	-0.640067	-0.449357
H81	H	0.711026	-0.277302	-0.453053
N82	N	1.365624	-0.213506	-1.003295
H83	H	1.412789	-0.181120	-0.972398
H84	H	1.336500	-0.258224	-0.959190
H85	H	1.381013	-0.223893	-1.159727
N86	N	1.365031	-0.212974	-1.340347
H87	H	1.399080	-0.171644	-1.385357
H88	H	1.407860	-0.242136	-1.303578
N89	N	0.439416	-0.166317	-0.568652
H90	H	0.407007	-0.176598	-0.624891
H91	H	0.425043	-0.212302	-0.520734
N92	N	1.359784	-0.505041	-0.622100
H93	H	1.398311	-0.540935	-0.638120
H94	H	1.348682	-0.467931	-0.676749
N95	N	0.891647	-0.261890	-0.469077
H96	H	0.955075	-0.242894	-0.488838
H97	H	0.886449	-0.260318	-0.403772
H98	H	1.268607	-0.539543	-0.514422
H99	H	1.337830	-0.643801	-0.612692
N100	N	0.987977	0.043127	-1.133650
H101	H	1.004364	0.096433	-1.120108
H102	H	0.985279	0.044947	-1.200001
N103	N	1.287739	-0.631663	-0.779962
H104	H	1.324548	-0.579802	-0.798522
H105	H	1.322065	-0.663716	-0.735761
H106	H	1.146519	-0.645740	-0.782029
N107	N	1.126967	-0.513196	-0.795993
H108	H	1.086294	-0.491429	-0.760007
H109	H	1.151942	-0.473253	-0.847446
H110	H	1.093058	-0.690080	-0.531703
N111	N	1.286071	-0.491308	-0.780538
H112	H	1.284361	-0.435472	-0.782888
H113	H	1.338842	-0.505421	-0.744374
N114	N	1.095931	-0.559253	-0.505478
H115	H	1.148313	-0.574487	-0.469482
H116	H	1.093884	-0.503857	-0.504922
N117	N	1.024494	-0.547583	-0.648310
H118	H	1.043754	-0.504121	-0.698199
H119	H	0.990132	-0.591977	-0.673382
N120	N	1.020846	0.020717	-0.943532
H121	H	0.986801	-0.020617	-0.898524
H122	H	1.063073	0.056498	-0.911829
N123	N	1.026436	-0.687085	-0.655723
H124	H	1.048363	-0.709278	-0.705639
H125	H	0.985138	-0.727856	-0.616406
