data_functionalizedCrystal
_audit_creation_method	'MofGen! by Chris Wilmer'
_symmetry_space_group_name_H-M	'P1'
_symmetry_Int_Tables_number	1
_symmetry_cell_setting	triclinic
loop_
_symmetry_equiv_pos_as_xyz
  x,y,z
_cell_length_a	12.837943
_cell_length_b	11.792241
_cell_length_c	11.892095
_cell_angle_alpha	93.915739
_cell_angle_beta	85.689438
_cell_angle_gamma	89.511178
loop_
_atom_site_label
_atom_site_type_symbol
_atom_site_fract_x
_atom_site_fract_y
_atom_site_fract_z
O1	O	1.383703	0.288690	-0.093984
O2	O	1.883703	0.788690	0.406016
O3	O	1.081816	0.274106	-0.093991
O4	O	1.581816	0.774106	0.406009
O5	O	1.240085	0.116971	-0.093980
O6	O	1.740085	0.616971	0.406020
O7	O	1.225434	0.445825	-0.093996
O8	O	1.725434	0.945825	0.406004
O9	O	1.226889	0.130050	0.094027
O10	O	1.726889	0.630050	0.594027
O11	O	1.068620	0.287185	0.094016
O12	O	1.568620	0.787185	0.594016
O13	O	1.370507	0.301770	0.094022
O14	O	1.870507	0.801770	0.594022
Zn15	Zn	1.217468	0.296554	0.123869
Zn16	Zn	1.717468	0.796554	0.623869
Zn17	Zn	1.234855	0.279322	-0.123838
Zn18	Zn	1.734855	0.779322	0.376162
O19	O	1.212238	0.458904	0.094011
O20	O	1.712238	0.958904	0.594011
C21	C	1.036570	0.275719	0.000012
C22	C	1.536570	0.775719	0.500012
C23	C	0.921410	0.261025	0.000009
C24	C	1.421410	0.761025	0.500009
C25	C	0.681444	0.437671	0.000017
C26	C	1.181444	0.937671	0.500017
C27	C	0.573241	0.423870	0.000015
C28	C	1.073241	0.923870	0.500015
C29	C	0.596797	0.219624	0.000013
C30	C	1.096797	0.719624	0.500013
C31	C	0.705001	0.233425	0.000015
C32	C	1.205001	0.733425	0.500015
C33	C	0.747320	0.342452	0.000015
C34	C	1.247320	0.842452	0.500015
C35	C	0.855526	0.356251	0.000008
C36	C	1.355526	0.856251	0.500008
C37	C	0.879080	0.152006	0.000014
C38	C	1.379080	0.652006	0.500014
C39	C	0.770877	0.138205	0.000013
C40	C	1.270877	0.638205	0.500013
C41	C	1.232566	0.081126	0.000023
C42	C	1.732566	0.581126	0.500023
C43	C	1.229812	-0.045167	0.000022
C44	C	1.729812	0.454833	0.500022
C45	C	1.224748	-0.276394	0.000003
C46	C	1.724748	0.223606	0.500003
C47	C	1.227561	-0.147723	0.000014
C48	C	1.727561	0.352277	0.500014
C49	C	1.415753	0.300157	0.000017
C50	C	1.915753	0.800157	0.500017
C51	C	1.530913	0.314850	0.000012
C52	C	2.030913	0.814850	0.500012
C53	C	1.219756	0.494749	0.000005
C54	C	1.719756	0.994749	0.500005
C55	C	1.222512	0.621042	-0.000001
C56	C	1.722512	1.121042	0.499999
N57	N	1.205610	0.308315	0.292922
N58	N	1.705610	0.808315	0.792922
N59	N	1.246721	0.267553	-0.292891
N60	N	1.746721	0.767553	0.207109
C61	C	1.329237	0.185651	0.529579
C62	C	1.829237	0.685651	1.029579
C63	C	1.320956	0.193880	0.647920
C64	C	1.820956	0.693880	1.147920
C65	C	1.180761	0.332997	0.647948
C66	C	1.680761	0.832997	1.147948
C67	C	1.189043	0.324768	0.529607
C68	C	1.689043	0.824768	1.029607
C69	C	1.263284	0.251093	0.470427
C70	C	1.763284	0.751093	0.970427
C71	C	1.271570	0.242870	0.352083
C72	C	1.771570	0.742870	0.852083
C73	C	1.131371	0.381980	0.352113
C74	C	1.631371	0.881980	0.852113
C75	C	1.123090	0.390210	0.470454
C76	C	1.623090	0.890210	0.970454
H77	H	0.562315	0.130865	0.000107
H78	H	1.062315	0.630865	0.500107
H79	H	0.932729	0.074471	0.000005
H80	H	1.432729	0.574471	0.500005
F81	F	0.503133	0.525217	0.000021
F82	F	1.003133	1.025217	0.500021
H83	H	1.332023	0.182884	0.303899
H84	H	1.832023	0.682884	0.803899
F85	F	1.044078	0.468613	0.533449
F86	F	1.544078	0.968613	1.033449
F87	F	1.101744	0.411392	0.710945
F88	F	1.601744	0.911392	1.210945
F89	F	0.725826	0.022177	0.000017
F90	F	1.225826	0.522177	0.500017
H91	H	1.374660	0.140589	0.696079
H92	H	1.874660	0.640589	1.196079
H93	H	1.389694	0.125670	0.481393
H94	H	1.889694	0.625670	0.981393
H95	H	0.889980	0.445026	0.000010
H96	H	1.389980	0.945026	0.500010
F97	F	1.061181	0.451638	0.289147
F98	F	1.561181	0.951638	0.789147
H99	H	0.715901	0.526445	0.000015
H100	H	1.215901	1.026445	0.500015
