data_functionalizedCrystal
_audit_creation_method	'MofGen! by Chris Wilmer'
_symmetry_space_group_name_H-M	'P1'
_symmetry_Int_Tables_number	1
_symmetry_cell_setting	triclinic
loop_
_symmetry_equiv_pos_as_xyz
  x,y,z
_cell_length_a	17.019292
_cell_length_b	17.699083
_cell_length_c	16.098691
_cell_angle_alpha	86.940143
_cell_angle_beta	83.071016
_cell_angle_gamma	83.337122
loop_
_atom_site_label
_atom_site_type_symbol
_atom_site_fract_x
_atom_site_fract_y
_atom_site_fract_z
O1	O	-1.046758	-0.096643	0.005846
O2	O	-0.713425	0.236690	0.339179
O3	O	-0.380092	0.570024	0.672512
O4	O	-0.816321	-0.108226	-0.010689
O5	O	-0.482988	0.225107	0.322644
O6	O	-0.149655	0.558441	0.655977
O7	O	-0.938051	0.007730	-0.001947
O8	O	-0.604717	0.341063	0.331386
O9	O	-0.271384	0.674396	0.664719
O10	O	-0.925029	-0.212599	-0.002896
O11	O	-0.591696	0.120734	0.330437
O12	O	-0.258363	0.454068	0.663770
O13	O	-0.944330	0.001676	0.137013
O14	O	-0.610997	0.335009	0.470346
O15	O	-0.277664	0.668343	0.803679
O16	O	-0.822601	-0.114280	0.128271
O17	O	-0.489268	0.219053	0.461604
O18	O	-0.155935	0.552387	0.794937
O19	O	-1.053038	-0.102697	0.144806
O20	O	-0.719705	0.230636	0.478139
O21	O	-0.386372	0.563970	0.811472
Zn22	Zn	-0.938817	-0.109450	0.158601
Zn23	Zn	-0.605483	0.223884	0.491934
Zn24	Zn	-0.272150	0.557217	0.825268
Zn25	Zn	-0.930543	-0.101473	-0.024485
Zn26	Zn	-0.597210	0.231860	0.308849
Zn27	Zn	-0.263876	0.565193	0.642182
O28	O	-0.931309	-0.218653	0.136064
O29	O	-0.597976	0.114681	0.469397
O30	O	-0.264642	0.448014	0.802730
C31	C	-0.789977	-0.110696	0.056675
C32	C	-0.456644	0.222638	0.390008
C33	C	-0.123311	0.555971	0.723342
C34	C	-0.702125	-0.109026	0.050371
C35	C	-0.368791	0.224308	0.383705
C36	C	-0.035458	0.557641	0.717038
C37	C	-0.664279	-0.111539	0.123159
C38	C	-0.330946	0.221794	0.456492
C39	C	0.002388	0.555128	0.789825
C40	C	-0.581734	-0.109958	0.117238
C41	C	-0.248400	0.223375	0.450572
C42	C	0.084933	0.556709	0.783905
C43	C	-0.537035	-0.105869	0.038529
C44	C	-0.203701	0.227465	0.371863
C45	C	0.129632	0.560798	0.705196
C46	C	-0.574886	-0.103353	-0.034263
C47	C	-0.241553	0.229981	0.299070
C48	C	0.091781	0.563314	0.632403
C49	C	-0.657431	-0.104928	-0.028342
C50	C	-0.324097	0.228405	0.304991
C51	C	0.009236	0.561738	0.638325
C52	C	-0.287633	-0.100941	0.016861
C53	C	0.045701	0.232393	0.350194
C54	C	0.379034	0.565726	0.683528
C55	C	-0.205082	-0.099367	0.010945
C56	C	0.128251	0.233966	0.344279
C57	C	0.461584	0.567299	0.677612
C58	C	-0.211936	-0.105972	0.162448
C59	C	0.121397	0.227362	0.495781
C60	C	0.454731	0.560695	0.829114
C61	C	-0.294481	-0.107552	0.168362
C62	C	0.038852	0.225782	0.501695
C63	C	0.372186	0.559115	0.835029
C64	C	-0.332326	-0.105031	0.095569
C65	C	0.001008	0.228302	0.428903
C66	C	0.334341	0.561635	0.762236
C67	C	-0.452660	-0.104255	0.032476
C68	C	-0.119326	0.229079	0.365809
C69	C	0.214007	0.562412	0.699142
C70	C	-0.416700	-0.106640	0.101624
C71	C	-0.083367	0.226693	0.434957
C72	C	0.249967	0.560027	0.768290
C73	C	-0.079383	-0.100223	0.077438
C74	C	0.253951	0.233110	0.410772
C75	C	0.587284	0.566443	0.744105
C76	C	-0.167237	-0.101881	0.083733
C77	C	0.166097	0.231452	0.417066
C78	C	0.499430	0.564786	0.750399
C79	C	-0.940724	0.032902	0.067499
C80	C	-0.607391	0.366235	0.400833
C81	C	-0.274057	0.699568	0.734166
C82	C	-0.939324	0.116925	0.067399
C83	C	-0.605991	0.450258	0.400733
C84	C	-0.272658	0.783592	0.734066
C85	C	-0.928636	-0.243824	0.066615
C86	C	-0.595302	0.089509	0.399949
C87	C	-0.261969	0.422842	0.733282
C88	C	-0.930035	-0.327848	0.066710
C89	C	-0.596702	0.005486	0.400043
C90	C	-0.263368	0.338819	0.733376
N91	N	-0.944469	-0.114893	0.283552
N92	N	-0.611136	0.218441	0.616886
N93	N	-0.277803	0.551774	0.950219
C94	C	-1.010777	0.165276	0.072528
C95	C	-0.677443	0.498610	0.405861
C96	C	-0.344110	0.831943	0.739194
C97	C	-1.009456	0.244225	0.072425
C98	C	-0.676123	0.577558	0.405759
C99	C	-0.342790	0.910892	0.739092
C100	C	-0.936683	0.274820	0.067201
C101	C	-0.603350	0.608154	0.400534
C102	C	-0.270017	0.941487	0.733868
C103	C	-0.865225	0.226463	0.062070
C104	C	-0.531892	0.559796	0.395403
C105	C	-0.198559	0.893130	0.728736
C106	C	-0.866546	0.147516	0.062166
C107	C	-0.533213	0.480849	0.395499
C108	C	-0.199880	0.814183	0.728833
C109	C	-0.859897	0.544846	0.061681
C110	C	-0.526564	0.878180	0.395014
C111	C	-0.193231	1.211513	0.728347
C112	C	-0.858582	0.623799	0.061587
C113	C	-0.525249	0.957133	0.394921
C114	C	-0.191915	1.290466	0.728254
C115	C	-1.002808	0.641555	0.071940
C116	C	-0.669474	0.974888	0.405273
C117	C	-0.336141	1.308222	0.738607
C118	C	-1.004128	0.562608	0.072036
C119	C	-0.670795	0.895942	0.405370
C120	C	-0.337462	1.229275	0.738703
C121	C	-0.932671	0.514258	0.066901
C122	C	-0.599337	0.847591	0.400234
C123	C	-0.266004	1.180925	0.733567
C124	C	-0.934103	0.428653	0.067010
C125	C	-0.600770	0.761986	0.400343
C126	C	-0.267436	1.095320	0.733677
C127	C	-0.935250	0.360423	0.067098
C128	C	-0.601917	0.693757	0.400431
C129	C	-0.268584	1.027090	0.733764
C130	C	-0.898555	-0.070771	0.323870
C131	C	-0.565222	0.262562	0.657203
C132	C	-0.231889	0.595896	0.990537
C133	C	-0.902529	-0.074588	0.411342
C134	C	-0.569196	0.258746	0.744675
C135	C	-0.235863	0.592079	1.078008
C136	C	-0.952422	-0.122522	0.458495
C137	C	-0.619089	0.210811	0.791828
C138	C	-0.285755	0.544144	1.125161
C139	C	-0.998337	-0.166649	0.418171
C140	C	-0.665004	0.166684	0.751505
C141	C	-0.331671	0.500018	1.084838
C142	C	-0.994359	-0.162836	0.330701
C143	C	-0.661025	0.170497	0.664034
C144	C	-0.327692	0.503831	0.997367
C145	C	-0.966828	-0.136342	0.722770
C146	C	-0.633494	0.196991	1.056103
C147	C	-0.300161	0.530325	1.389437
C148	C	-0.970805	-0.140150	0.810246
C149	C	-0.637471	0.193183	1.143580
C150	C	-0.304138	0.526517	1.476913
C151	C	-0.874995	-0.048089	0.803411
C152	C	-0.541662	0.285244	1.136744
C153	C	-0.208328	0.618577	1.470078
C154	C	-0.871024	-0.044277	0.715939
C155	C	-0.537691	0.289056	1.049273
C156	C	-0.204358	0.622390	1.382606
C157	C	-0.916937	-0.088407	0.675623
C158	C	-0.583603	0.244927	1.008956
C159	C	-0.250270	0.578260	1.342290
C160	C	-0.956487	-0.126423	0.547905
C161	C	-0.623154	0.206910	0.881238
C162	C	-0.289820	0.540244	1.214572
C163	C	-0.912867	-0.084510	0.586214
C164	C	-0.579534	0.248824	0.919547
C165	C	-0.246200	0.582157	1.252881
N166	N	-0.924891	-0.096028	0.850564
N167	N	-0.591558	0.237305	1.183897
N168	N	-0.258224	0.570638	1.517231
H169	H	-0.688243	-0.102883	-0.087614
H170	H	-0.354909	0.230450	0.245720
H171	H	-0.021576	0.563784	0.579053
H172	H	-0.805972	0.251380	0.057811
H173	H	-0.472639	0.584713	0.391144
H174	H	-0.139305	0.918047	0.724477
H175	H	-0.453098	-0.109966	0.165708
H176	H	-0.119765	0.223368	0.499041
H177	H	0.213569	0.556701	0.832375
H178	H	-1.038958	-0.205682	0.456570
H179	H	-0.705624	0.127651	0.789903
H180	H	-0.372291	0.460985	1.123237
Cl181	Cl	-0.396465	-0.099080	-0.066469
Cl182	Cl	-0.063131	0.234253	0.266864
Cl183	Cl	0.270202	0.567586	0.600197
H184	H	-0.872241	-0.045485	0.547818
H185	H	-0.538908	0.287849	0.881151
H186	H	-0.205574	0.621182	1.214485
Cl187	Cl	-0.817276	0.007380	0.854099
Cl188	Cl	-0.483943	0.340713	1.187432
Cl189	Cl	-0.150609	0.674046	1.520765
Cl190	Cl	-1.102269	0.126821	0.079104
Cl191	Cl	-0.768935	0.460155	0.412438
Cl192	Cl	-0.435602	0.793488	0.745771
Cl193	Cl	-1.099287	0.305007	0.078875
Cl194	Cl	-0.765953	0.638340	0.412209
Cl195	Cl	-0.432620	0.971673	0.745542
H196	H	-0.700667	-0.114875	0.187252
H197	H	-0.367333	0.218458	0.520585
H198	H	-0.034000	0.551791	0.853919
Cl199	Cl	-0.776716	0.086731	0.055716
Cl200	Cl	-0.443383	0.420064	0.389049
Cl201	Cl	-0.110050	0.753398	0.722382
H202	H	-1.004216	-0.172272	0.689956
H203	H	-0.670883	0.161061	1.023289
H204	H	-0.337550	0.494394	1.356622
Cl205	Cl	-0.767089	0.662260	0.055017
Cl206	Cl	-0.433755	0.995594	0.388350
Cl207	Cl	-0.100422	1.328927	0.721684
H208	H	-0.801712	0.505488	0.057499
H209	H	-0.468378	0.838822	0.390833
H210	H	-0.135045	1.172155	0.724166
H211	H	-1.063388	0.537702	0.076295
H212	H	-0.730054	0.871035	0.409628
H213	H	-0.396721	1.204369	0.742961
Cl214	Cl	-0.534158	-0.113132	0.208747
Cl215	Cl	-0.200825	0.220201	0.542081
Cl216	Cl	0.132508	0.553535	0.875414
Cl217	Cl	-1.052084	-0.218304	0.280016
Cl218	Cl	-0.718750	0.115030	0.613349
Cl219	Cl	-0.385417	0.448363	0.946682
H220	H	-0.830399	-0.005241	0.677553
H221	H	-0.497066	0.328092	1.010886
H222	H	-0.163732	0.661426	1.344220
H223	H	-1.060992	0.680932	0.076117
H224	H	-0.727658	1.014265	0.409451
H225	H	-0.394325	1.347599	0.742784
Cl226	Cl	-0.350668	-0.112698	0.267314
Cl227	Cl	-0.017334	0.220636	0.600648
Cl228	Cl	0.315999	0.553969	0.933981
H229	H	-0.857930	-0.031735	0.285484
H230	H	-0.524597	0.301598	0.618817
H231	H	-0.191263	0.634932	0.952151
Cl232	Cl	-1.033535	-0.200412	0.869524
Cl233	Cl	-0.700202	0.132922	1.202858
Cl234	Cl	-0.366869	0.466255	1.536191
Cl235	Cl	-0.518696	-0.098184	-0.133212
Cl236	Cl	-0.185363	0.235150	0.200121
Cl237	Cl	0.147970	0.568483	0.533454
H238	H	-0.181114	-0.108022	0.221711
H239	H	0.152219	0.225311	0.555045
H240	H	0.485553	0.558645	0.888378
H241	H	-0.865142	-0.038659	0.444164
H242	H	-0.531808	0.294675	0.777497
H243	H	-0.198475	0.628008	1.110831
H244	H	-0.997112	-0.165449	0.586307
H245	H	-0.663779	0.167884	0.919640
H246	H	-0.330446	0.501217	1.252974
H247	H	-0.168690	-0.096040	-0.053152
H248	H	0.164644	0.237294	0.280181
H249	H	0.497977	0.570627	0.613514
H250	H	-0.318436	-0.098886	-0.042412
H251	H	0.014897	0.234447	0.290921
H252	H	0.348231	0.567780	0.624255
