data_functionalizedCrystal
_audit_creation_method	'MofGen! by Chris Wilmer'
_symmetry_space_group_name_H-M	'P1'
_symmetry_Int_Tables_number	1
_symmetry_cell_setting	triclinic
loop_
_symmetry_equiv_pos_as_xyz
  x,y,z
_cell_length_a	11.169417
_cell_length_b	17.077402
_cell_length_c	11.169409
_cell_angle_alpha	90.037934
_cell_angle_beta	90.022388
_cell_angle_gamma	90.021105
loop_
_atom_site_label
_atom_site_type_symbol
_atom_site_fract_x
_atom_site_fract_y
_atom_site_fract_z
Zn1	Zn	-1.834866	0.312482	-0.678554
Zn2	Zn	-1.334866	0.812482	-0.178554
Zn3	Zn	-1.834709	0.443776	-0.477851
Zn4	Zn	-1.334709	0.943776	0.022149
Zn5	Zn	-1.634150	0.312524	-0.477882
Zn6	Zn	-1.134150	0.812524	0.022118
Zn7	Zn	-1.634116	0.443706	-0.678490
Zn8	Zn	-1.134116	0.943706	-0.178490
O9	O	-1.734460	0.378122	-0.578194
O10	O	-1.234460	0.878122	-0.078194
O11	O	-2.002795	0.329910	-0.651944
O12	O	-1.502795	0.829910	-0.151944
O13	O	-1.808053	0.426412	-0.309905
O14	O	-1.308053	0.926412	0.190095
O15	O	-1.660855	0.202671	-0.504541
O16	O	-1.160855	0.702671	-0.004541
O17	O	-2.002680	0.426371	-0.504489
O18	O	-1.502680	0.926371	-0.004489
O19	O	-1.808321	0.202641	-0.651974
O20	O	-1.308321	0.702641	-0.151974
O21	O	-1.660703	0.329981	-0.309928
O22	O	-1.160703	0.829981	0.190072
O23	O	-1.466196	0.329914	-0.504479
O24	O	-0.966196	0.829914	-0.004479
O25	O	-1.660798	0.426252	-0.846448
O26	O	-1.160798	0.926252	-0.346448
O27	O	-1.466171	0.426293	-0.651864
O28	O	-0.966171	0.926293	-0.151864
O29	O	-1.808288	0.329843	-0.846495
O30	O	-1.308288	0.829843	-0.346495
O31	O	-1.808020	0.553613	-0.504426
O32	O	-1.308020	1.053613	-0.004426
O33	O	-1.660645	0.553562	-0.651834
O34	O	-1.160645	1.053562	-0.151834
C35	C	-1.422636	0.378101	-0.578169
C36	C	-0.922636	0.878101	-0.078169
C37	C	-1.289236	0.378110	-0.578186
C38	C	-0.789236	0.878110	-0.078186
C39	C	-1.734345	0.582070	-0.578146
C40	C	-1.234345	1.082070	-0.078146
C41	C	-1.734405	0.669320	-0.578166
C42	C	-1.234405	1.169320	-0.078166
C43	C	-1.734557	0.378035	-0.891237
C44	C	-1.234557	0.878035	-0.391237
C45	C	-1.734598	0.377998	-1.024637
C46	C	-1.234598	0.877998	-0.524637
C47	C	-1.047503	0.378136	-0.578212
C48	C	-0.547503	0.878136	-0.078212
C49	C	-1.180903	0.378123	-0.578200
C50	C	-0.680903	0.878123	-0.078200
C51	C	-1.734609	0.173378	-0.578268
C52	C	-1.234609	0.673378	-0.078268
C53	C	-1.734673	0.086128	-0.578300
C54	C	-1.234673	0.586128	-0.078300
C55	C	-1.811221	0.710310	-0.501493
C56	C	-1.311221	1.210310	-0.001493
C57	C	-1.811280	0.792291	-0.501523
C58	C	-1.311280	1.292291	-0.001523
C59	C	-1.734515	0.833279	-0.578222
C60	C	-1.234515	1.333279	-0.078222
C61	C	-1.657695	0.792282	-0.654903
C62	C	-1.157695	1.292282	-0.154903
C63	C	-1.657643	0.710304	-0.654878
C64	C	-1.157643	1.210304	-0.154878
C65	C	-1.657806	0.963152	-0.654949
C66	C	-1.157806	1.463152	-0.154949
C67	C	-1.657856	1.045137	-0.654973
C68	C	-1.157856	1.545137	-0.154973
C69	C	-1.811443	1.045140	-0.501594
C70	C	-1.311443	1.545140	-0.001594
C71	C	-1.811391	0.963161	-0.501569
C72	C	-1.311391	1.463161	-0.001569
C73	C	-1.734569	0.922170	-0.578249
C74	C	-1.234569	1.422170	-0.078249
C75	C	-1.734434	0.378152	-0.266369
C76	C	-1.234434	0.878152	0.233631
C77	C	-1.734625	0.377968	-0.132970
C78	C	-1.234625	0.877968	0.367030
H79	H	-1.873727	0.676943	-0.439031
H80	H	-1.373727	1.176943	0.060969
Cl81	Cl	-1.907858	0.843819	-0.405134
Cl82	Cl	-1.407858	1.343819	0.094866
H83	H	-1.595254	0.929780	-0.717394
H84	H	-1.095254	1.429780	-0.217394
Cl85	Cl	-1.908008	1.096671	-0.405185
Cl86	Cl	-1.408008	1.596671	0.094815
Cl87	Cl	-1.907897	0.911634	-0.405146
Cl88	Cl	-1.407897	1.411634	0.094854
H89	H	-1.595370	1.078507	-0.717450
H90	H	-1.095370	1.578507	-0.217450
Cl91	Cl	-1.561197	0.843811	-0.751332
Cl92	Cl	-1.061197	1.343811	-0.251332
H93	H	-1.595093	0.676930	-0.717314
H94	H	-1.095093	1.176930	-0.217314
