data_functionalizedCrystal
_audit_creation_method	'MofGen! by Chris Wilmer'
_symmetry_space_group_name_H-M	'P1'
_symmetry_Int_Tables_number	1
_symmetry_cell_setting	triclinic
loop_
_symmetry_equiv_pos_as_xyz
  x,y,z
_cell_length_a	6.817900
_cell_length_b	7.190339
_cell_length_c	11.168136
_cell_angle_alpha	92.004262
_cell_angle_beta	71.491317
_cell_angle_gamma	119.388276
loop_
_atom_site_label
_atom_site_type_symbol
_atom_site_fract_x
_atom_site_fract_y
_atom_site_fract_z
V1	V	4.171295	0.295127	-0.392807
V2	V	4.671295	0.795127	0.107193
O3	O	4.066522	-0.014149	-0.386248
O4	O	4.566522	0.485851	0.113752
O5	O	4.207934	0.585155	-0.389237
O6	O	4.707934	1.085155	0.110763
O7	O	4.146643	0.290601	-0.564526
O8	O	4.646643	0.790601	-0.064526
O9	O	4.128237	0.282443	-0.209745
O10	O	4.628237	0.782443	0.290255
V11	V	4.640826	0.258132	-0.371018
V12	V	5.140826	0.758132	0.128982
O13	O	4.463244	0.376277	-0.440601
O14	O	4.963244	0.876277	0.059399
O15	O	4.799073	0.176981	-0.323224
O16	O	5.299073	0.676981	0.176776
O17	O	4.380980	-0.031896	-0.374588
O18	O	4.880980	0.468104	0.125412
O19	O	4.862995	0.567408	-0.377577
O20	O	5.362995	1.067408	0.122423
O21	O	4.801280	0.270815	-0.554080
O22	O	5.301280	0.770815	-0.054080
O23	O	4.442271	0.262657	-0.199299
O24	O	4.942271	0.762657	0.300701
C25	C	3.994670	0.280122	-0.606409
C26	C	4.494670	0.780122	-0.106409
C27	C	4.056361	0.278341	-0.746785
C28	C	4.556361	0.778341	-0.246785
C29	C	4.260809	0.287664	-0.815449
C30	C	4.760809	0.787664	-0.315449
C31	C	4.324574	0.285823	-0.960535
C32	C	4.824574	0.785823	-0.460535
C33	C	4.072872	0.655860	-0.382818
C34	C	4.572872	1.155860	0.117182
C35	C	4.186369	0.897419	-0.381013
C36	C	4.686369	1.397419	0.118987
C37	C	4.257587	0.273143	-0.157409
C38	C	4.757587	0.773143	0.342591
C39	C	4.175131	0.274913	-0.017032
C40	C	4.675131	0.774913	0.482968
H41	H	4.388630	0.296993	-0.766822
H42	H	4.888630	0.796993	-0.266822
H43	H	3.928525	0.268983	-0.795410
H44	H	4.428525	0.768983	-0.295410
H45	H	4.499722	0.293814	-1.019562
H46	H	4.999722	0.793814	-0.519562
H47	H	3.999992	0.266946	-0.958015
H48	H	4.499992	0.766946	-0.458015
