data_functionalizedCrystal
_audit_creation_method	'MofGen! by Chris Wilmer'
_symmetry_space_group_name_H-M	'P1'
_symmetry_Int_Tables_number	1
_symmetry_cell_setting	triclinic
loop_
_symmetry_equiv_pos_as_xyz
  x,y,z
_cell_length_a	12.759395
_cell_length_b	29.839131
_cell_length_c	12.759387
_cell_angle_alpha	90.037256
_cell_angle_beta	90.020509
_cell_angle_gamma	90.042957
loop_
_atom_site_label
_atom_site_type_symbol
_atom_site_fract_x
_atom_site_fract_y
_atom_site_fract_z
Zn1	Zn	1.606074	-0.178811	0.593958
Zn2	Zn	1.605882	-0.253949	0.418259
Zn3	Zn	1.430372	-0.178836	0.418295
Zn4	Zn	1.430282	-0.253917	0.593898
O5	O	1.518153	-0.216378	0.506102
O6	O	1.753069	-0.188782	0.570661
O7	O	1.582558	-0.244009	0.271242
O8	O	1.453797	-0.115965	0.441637
O9	O	1.752929	-0.243985	0.441575
O10	O	1.582884	-0.115947	0.570696
O11	O	1.453611	-0.188823	0.271269
O12	O	1.283339	-0.188792	0.441579
O13	O	1.453644	-0.243930	0.740927
O14	O	1.283273	-0.243954	0.570593
O15	O	1.582797	-0.188751	0.740971
O16	O	1.582471	-0.316812	0.441517
O17	O	1.453458	-0.316788	0.570558
C18	C	1.245185	-0.216373	0.506084
C19	C	1.128408	-0.216381	0.506101
C20	C	1.517963	-0.333101	0.506050
C21	C	1.517978	-0.383035	0.506063
C22	C	1.128378	-0.273914	0.640227
C23	C	1.073502	-0.302684	0.707293
C24	C	0.963781	-0.302690	0.707306
C25	C	0.908933	-0.273921	0.640248
C26	C	0.963808	-0.245151	0.573182
C27	C	1.073532	-0.245150	0.573174
C28	C	0.963838	-0.187617	0.439063
C29	C	1.073560	-0.187613	0.439043
C30	C	0.908990	-0.158848	0.372005
C31	C	0.963866	-0.130079	0.304933
C32	C	1.073594	-0.130076	0.304922
C33	C	1.128436	-0.158843	0.371978
C34	C	1.585452	-0.692678	0.439009
C35	C	1.585581	-0.880351	0.439049
O36	O	1.642799	-0.904616	0.381997
N37	N	1.518370	-0.903820	0.506181
C38	C	1.451127	-0.880368	0.573313
O39	O	1.393971	-0.904636	0.630421
C40	C	1.451004	-0.692696	0.573277
C41	C	1.518211	-0.669229	0.506133
C42	C	1.652655	-0.669211	0.371871
C43	C	1.652617	-0.622296	0.371857
C44	C	1.585377	-0.598847	0.438981
C45	C	1.518174	-0.622314	0.506119
C46	C	1.383766	-0.669245	0.640413
C47	C	1.383743	-0.622324	0.640400
C48	C	1.450951	-0.598857	0.573256
C49	C	1.450897	-0.551950	0.573230
N50	N	1.518108	-0.528481	0.506098
C51	C	1.585348	-0.551929	0.438974
C52	C	1.451195	-0.978899	0.573326
C53	C	1.451225	-1.025817	0.573334
C54	C	1.585680	-1.025796	0.439071
C55	C	1.585645	-0.978878	0.439059
C56	C	1.518406	-0.955430	0.506194
C57	C	1.585264	-0.453404	0.438949
C58	C	1.585218	-0.406484	0.438939
C59	C	1.450767	-0.406508	0.573205
C60	C	1.450808	-0.453424	0.573212
C61	C	1.518066	-0.476870	0.506081
O62	O	1.393717	-0.527656	0.630260
O63	O	1.642512	-0.527653	0.381890
C64	C	1.585489	-0.739594	0.439022
C65	C	1.518286	-0.763060	0.506160
C66	C	1.451045	-0.739611	0.573284
C67	C	1.518315	-0.809978	0.506168
C68	C	1.585555	-0.833427	0.439044
C69	C	1.652766	-0.809958	0.371912
C70	C	1.652729	-0.763042	0.371898
C71	C	1.383835	-0.763081	0.640416
C72	C	1.383876	-0.809996	0.640423
C73	C	1.451117	-0.833445	0.573299
C74	C	1.792186	-0.216384	0.506121
C75	C	1.908963	-0.216387	0.506129
C76	C	1.518232	-0.216334	0.780136
C77	C	1.518266	-0.216315	0.896913
C78	C	1.518372	-0.099200	0.506177
C79	C	1.518465	-0.049265	0.506210
C80	C	1.518134	-0.216390	0.233135
C81	C	1.518304	-0.216282	0.116359
C82	C	1.652762	-0.158860	0.896978
C83	C	1.720025	-0.130126	0.951872
C84	C	1.720050	-0.130110	1.061594
C85	C	1.652804	-0.158830	1.116424
C86	C	1.585541	-0.187564	1.061531
C87	C	1.585525	-0.187578	0.951806
C88	C	1.451041	-0.245016	1.061465
C89	C	1.451019	-0.245035	0.951743
C90	C	1.383794	-0.273736	1.116295
C91	C	1.316535	-0.302473	1.061401
C92	C	1.316513	-0.302489	0.951673
C93	C	1.383756	-0.273770	0.896849
H94	H	1.217719	-0.273916	0.640215
H95	H	1.261783	-0.325852	1.106053
O96	O	0.790590	-0.273937	0.640278
H97	H	0.761703	-0.240068	0.661676
H98	H	1.328991	-0.603235	0.695072
H99	H	1.118172	-0.326106	0.761892
O100	O	0.790647	-0.158869	0.371971
H101	H	0.761701	-0.183716	0.429848
O102	O	0.904714	-0.099062	0.232589
H103	H	0.819199	-0.103903	0.243858
O104	O	1.652764	-0.158880	0.778636
H105	H	1.673934	-0.192771	0.749698
O106	O	1.132773	-0.099048	0.232571
H107	H	1.111771	-0.063799	0.250742
O108	O	1.792553	-0.099150	0.892736
H109	H	1.874996	-0.106856	0.913813
O110	O	1.378321	-0.478739	0.645626
H111	H	1.331562	-0.454549	0.692302
H112	H	1.217777	-0.158843	0.371972
O113	O	1.657716	-0.381172	0.366525
H114	H	1.704487	-0.405363	0.319863
H115	H	1.396017	-0.387409	0.627853
O116	O	1.792590	-0.099110	1.120791
H117	H	1.745611	-0.076242	1.170775
O118	O	1.383810	-0.273719	1.234638
H119	H	1.463036	-0.282805	1.263578
H120	H	1.261728	-0.325883	0.906985
O121	O	1.657795	-0.478690	0.366538
H122	H	1.704505	-0.454483	0.319848
O123	O	1.725181	-0.694502	0.299470
H124	H	1.707186	-0.685530	0.216998
H125	H	1.707347	-0.603192	0.317186
H126	H	1.640430	-1.044896	0.384416
H127	H	1.640372	-0.959774	0.384385
O128	O	1.378730	-1.051126	0.645745
H129	H	1.331981	-1.026933	0.692423
H130	H	1.329138	-0.829099	0.695099
H131	H	1.329081	-0.743992	0.695078
O132	O	1.378644	-0.953610	0.645715
H133	H	1.331906	-0.977816	0.692376
H134	H	1.329034	-0.688343	0.695084
H135	H	0.919101	-0.326114	0.761922
O136	O	1.383728	-0.273792	0.778506
H137	H	1.362553	-0.239911	0.749594
O138	O	1.652814	-0.158809	1.234767
H139	H	1.732040	-0.167890	1.263715
O140	O	1.725228	-0.737734	0.299489
H141	H	1.771992	-0.761928	0.252831
O142	O	1.725314	-0.835253	0.299532
H143	H	1.714052	-0.871819	0.310842
