data_functionalizedCrystal
_audit_creation_method	'MofGen! by Chris Wilmer'
_symmetry_space_group_name_H-M	'P1'
_symmetry_Int_Tables_number	1
_symmetry_cell_setting	triclinic
loop_
_symmetry_equiv_pos_as_xyz
  x,y,z
_cell_length_a	8.497374
_cell_length_b	21.395364
_cell_length_c	21.395361
_cell_angle_alpha	89.973528
_cell_angle_beta	89.984309
_cell_angle_gamma	90.003529
loop_
_atom_site_label
_atom_site_type_symbol
_atom_site_fract_x
_atom_site_fract_y
_atom_site_fract_z
Zn1	Zn	0.891953	0.957729	0.249618
Zn2	Zn	0.628122	0.957670	0.354367
Zn3	Zn	0.628172	0.852983	0.249600
Zn4	Zn	0.891845	0.852913	0.354354
O5	O	0.760023	0.905324	0.301985
O6	O	0.856979	1.045399	0.263526
O7	O	0.407366	0.943787	0.340467
O8	O	0.663229	0.866931	0.161924
O9	O	0.663144	1.045356	0.340485
O10	O	0.857027	0.943888	0.161938
O11	O	0.407403	0.866874	0.263495
O12	O	0.663124	0.765296	0.263482
O13	O	1.112622	0.866813	0.340463
O14	O	0.856844	0.765245	0.340445
O15	O	1.112701	0.943821	0.263514
O16	O	0.663040	0.943720	0.442043
O17	O	0.856796	0.866756	0.442034
C18	C	0.759979	0.742536	0.301961
C19	C	0.759997	0.672895	0.301965
C20	C	0.759935	0.905241	0.464772
C21	C	0.759950	0.905263	0.534414
C22	C	0.861140	0.171121	0.262007
C23	C	0.861139	0.236556	0.262002
C24	C	0.760058	0.269257	0.302004
C25	C	0.658999	0.236516	0.342025
C26	C	0.659013	0.171082	0.342032
C27	C	0.617880	0.372914	0.306850
C28	C	0.617863	0.438347	0.306837
C29	C	0.760015	0.471077	0.301983
C30	C	0.902188	0.438367	0.297128
C31	C	0.902202	0.372933	0.297136
C32	C	0.760032	0.340209	0.302000
C33	C	0.861075	0.574762	0.261963
C34	C	0.861077	0.640199	0.261963
C35	C	0.658923	0.640158	0.341982
C36	C	0.658935	0.574723	0.341985
C37	C	0.760009	0.542029	0.301972
C38	C	1.171503	0.905319	0.301986
C39	C	1.350147	0.905321	0.301992
C40	C	0.760068	1.068747	0.302009
C41	C	0.760087	1.138388	0.302020
C42	C	0.760145	0.905424	0.138561
C43	C	0.760198	0.905467	0.068920
C44	C	0.659165	0.945374	0.567111
C45	C	0.659200	0.945403	0.632546
C46	C	0.760004	0.905310	0.665282
C47	C	0.860810	0.865197	0.632577
C48	C	0.860782	0.865173	0.567142
C49	C	0.772367	0.848894	0.768993
C50	C	0.772383	0.848916	0.834426
C51	C	0.760097	0.905383	0.867103
C52	C	0.747762	0.961829	0.834338
C53	C	0.747735	0.961806	0.768904
C54	C	0.760046	0.905331	0.736234
C55	C	0.659344	0.945529	0.970752
C56	C	0.659391	0.945559	1.036189
C57	C	0.860992	0.865347	1.036218
C58	C	0.860954	0.865322	0.970783
C59	C	0.760121	0.905413	0.938054
H60	H	0.943449	0.144505	0.229428
H61	H	1.017964	0.346303	0.293184
Br62	Br	0.789114	0.772312	0.878886
H63	H	0.576633	0.666782	0.374557
H64	H	0.942888	0.832554	0.659234
Br65	Br	0.789048	0.772253	0.724654
Br66	Br	0.998251	0.684623	0.207662
H67	H	0.577245	0.978175	0.944104
Br68	Br	0.424945	0.328500	0.313452
H69	H	0.942856	0.832509	0.540520
H70	H	0.576702	0.263145	0.374596
Br71	Br	0.521855	0.126656	0.396338
H72	H	0.577065	0.978019	0.540465
Br73	Br	1.095120	0.482778	0.290527
H74	H	0.737758	1.007810	0.860941
Br75	Br	0.998245	0.530388	0.207662
H76	H	0.576640	0.548071	0.374565
H77	H	0.577129	0.978068	0.659174
Br78	Br	0.424915	0.482733	0.313411
Br79	Br	0.998290	0.280989	0.207695
Br80	Br	0.731006	1.038407	0.724439
Br81	Br	0.522614	1.000007	1.080566
H82	H	0.943076	0.832705	1.062871
H83	H	0.943016	0.832658	0.944159
