data_functionalizedCrystal
_audit_creation_method	'MofGen! by Chris Wilmer'
_symmetry_space_group_name_H-M	'P1'
_symmetry_Int_Tables_number	1
_symmetry_cell_setting	triclinic
loop_
_symmetry_equiv_pos_as_xyz
  x,y,z
_cell_length_a	6.817900
_cell_length_b	12.200863
_cell_length_c	12.200875
_cell_angle_alpha	93.006308
_cell_angle_beta	107.143593
_cell_angle_gamma	107.143441
loop_
_atom_site_label
_atom_site_type_symbol
_atom_site_fract_x
_atom_site_fract_y
_atom_site_fract_z
V1	V	-4.086881	-0.158973	-0.357778
V2	V	-3.753548	0.174360	-0.024444
V3	V	-3.420215	0.507694	0.308889
O4	O	-4.054179	0.007371	-0.350847
O5	O	-3.720845	0.340705	-0.017514
O6	O	-3.387512	0.674038	0.315820
O7	O	-4.056329	-0.314959	-0.355446
O8	O	-3.722996	0.018374	-0.022113
O9	O	-3.389663	0.351708	0.311220
O10	O	-4.056333	-0.156645	-0.513764
O11	O	-3.722999	0.176688	-0.180431
O12	O	-3.389666	0.510021	0.152902
O13	O	-4.054175	-0.152038	-0.191433
O14	O	-3.720842	0.181295	0.141900
O15	O	-3.387509	0.514628	0.475234
V16	V	-4.565883	-0.139062	-0.337868
V17	V	-4.232550	0.194271	-0.004534
V18	V	-3.899217	0.527604	0.328799
O19	O	-4.358057	-0.202649	-0.401452
O20	O	-4.024723	0.130685	-0.068119
O21	O	-3.691390	0.464018	0.265214
O22	O	-4.744905	-0.095387	-0.294193
O23	O	-4.411572	0.237946	0.039140
O24	O	-4.078239	0.571280	0.372474
O25	O	-4.373229	0.016923	-0.340199
O26	O	-4.039895	0.350257	-0.006866
O27	O	-3.706562	0.683590	0.326468
O28	O	-4.715983	-0.305407	-0.344798
O29	O	-4.382650	0.027927	-0.011465
O30	O	-4.049316	0.361260	0.321869
O31	O	-4.715986	-0.145997	-0.504212
O32	O	-4.382653	0.187336	-0.170879
O33	O	-4.049319	0.520669	0.162454
O34	O	-4.373226	-0.141390	-0.181881
O35	O	-4.039892	0.191943	0.151452
O36	O	-3.706559	0.525276	0.484786
C37	C	-3.905095	-0.352981	-0.349832
C38	C	-3.571761	-0.019648	-0.016499
C39	C	-3.238428	0.313685	0.316835
C40	C	-3.961521	-0.480503	-0.348965
C41	C	-3.628187	-0.147169	-0.015632
C42	C	-3.294854	0.186164	0.317701
C43	C	-3.905097	-0.151035	-0.551781
C44	C	-3.571764	0.182298	-0.218448
C45	C	-3.238431	0.515632	0.114886
C46	C	-3.961522	-0.150164	-0.679301
C47	C	-3.628189	0.183169	-0.345968
C48	C	-3.294855	0.516503	-0.012635
C49	C	-4.064793	-0.713978	-0.347388
C50	C	-3.731459	-0.380645	-0.014055
C51	C	-3.398126	-0.047312	0.319279
C52	C	-4.007317	-0.584056	-0.348266
C53	C	-3.673983	-0.250722	-0.014932
C54	C	-3.340650	0.082611	0.318401
C55	C	-4.064787	-0.148571	-0.912775
C56	C	-3.731454	0.184762	-0.579441
C57	C	-3.398121	0.518096	-0.246108
C58	C	-4.007315	-0.149457	-0.782853
C59	C	-3.673981	0.183876	-0.449520
C60	C	-3.340648	0.517210	-0.116187
C61	C	-4.187806	0.054940	-0.345810
C62	C	-3.854473	0.388273	-0.012477
C63	C	-3.521139	0.721606	0.320856
C64	C	-4.110619	0.182460	-0.346684
C65	C	-3.777286	0.515793	-0.013351
C66	C	-3.443952	0.849127	0.319982
C67	C	-4.187803	-0.147004	-0.143858
C68	C	-3.854469	0.186329	0.189475
C69	C	-3.521136	0.519662	0.522808
C70	C	-4.110616	-0.147869	-0.016337
C71	C	-3.777282	0.185464	0.316997
C72	C	-3.443949	0.518797	0.650330
