data_functionalizedCrystal
_audit_creation_method	'MofGen! by Chris Wilmer'
_symmetry_space_group_name_H-M	'P1'
_symmetry_Int_Tables_number	1
_symmetry_cell_setting	triclinic
loop_
_symmetry_equiv_pos_as_xyz
  x,y,z
_cell_length_a	10.908937
_cell_length_b	17.038272
_cell_length_c	10.065875
_cell_angle_alpha	99.426590
_cell_angle_beta	83.441416
_cell_angle_gamma	75.598756
loop_
_atom_site_label
_atom_site_type_symbol
_atom_site_fract_x
_atom_site_fract_y
_atom_site_fract_z
O1	O	1.708126	-0.132801	-0.113530
O2	O	1.340841	-0.072602	-0.113525
O3	O	1.522299	-0.216232	-0.113517
O4	O	1.526668	0.010829	-0.113538
O5	O	1.487707	-0.188753	0.113471
O6	O	1.306249	-0.045123	0.113462
O7	O	1.673534	-0.105322	0.113457
Zn8	Zn	1.484399	-0.070860	0.149499
Zn9	Zn	1.529975	-0.107064	-0.149566
O10	O	1.492076	0.038308	0.113449
C11	C	1.276318	-0.053237	-0.000031
C12	C	1.135597	-0.036483	-0.000029
C13	C	0.934470	-0.080310	-0.000049
C14	C	1.079910	-0.097625	-0.000031
C15	C	1.501032	-0.231105	-0.000023
C16	C	1.489185	-0.316360	-0.000023
C17	C	1.597952	-0.380598	-0.000023
C18	C	1.586815	-0.460704	-0.000036
C19	C	1.466909	-0.476568	-0.000039
C20	C	1.358135	-0.412323	-0.000043
C21	C	1.369274	-0.332221	-0.000040
C22	C	1.427556	-0.717218	-0.000057
C23	C	1.416424	-0.797328	-0.000056
C24	C	1.645107	-0.845703	-0.000052
C25	C	1.656234	-0.765595	-0.000040
C26	C	1.547461	-0.701358	-0.000052
C27	C	1.455522	-0.558448	-0.000048
C28	C	1.558851	-0.619481	-0.000053
C29	C	1.738057	-0.124687	-0.000040
C30	C	1.878780	-0.141442	-0.000051
C31	C	1.513343	0.053181	-0.000048
C32	C	1.525191	0.138434	-0.000056
N33	N	1.453304	-0.046153	0.353603
N34	N	1.561080	-0.131779	-0.353671
C35	C	1.519148	-0.098472	0.421385
C36	C	1.495227	-0.079452	0.578551
H37	H	1.075608	0.028678	-0.000044
C38	C	1.659661	-0.210444	0.568822
C39	C	1.625070	-0.279162	0.603669
C40	C	1.715824	-0.351669	0.532358
H41	H	1.741633	-0.210512	0.592144
H42	H	1.662697	-0.212953	0.473476
H43	H	1.622048	-0.276654	0.698993
H44	H	1.543113	-0.279122	0.580343
H45	H	1.718860	-0.354178	0.437013
H46	H	1.797791	-0.351728	0.555686
H47	H	1.692361	-0.398303	0.555982
C48	C	1.396336	-0.000922	0.656053
C49	C	1.340204	0.043649	0.563061
C50	C	1.249090	0.115987	0.634406
H51	H	1.436957	0.031957	0.711792
H52	H	1.331967	-0.014970	0.711778
H53	H	1.404562	0.057699	0.507359
H54	H	1.299558	0.010795	0.507320
H55	H	1.184721	0.101939	0.690132
H56	H	1.289721	0.148859	0.690142
H57	H	1.210984	0.146234	0.571323
H58	H	0.874477	-0.015154	-0.000069
H59	H	1.695592	-0.367688	-0.000012
H60	H	1.733664	-0.898012	-0.000045
C61	C	1.705046	-0.530328	0.000044
C62	C	1.812431	-0.499284	0.000096
C63	C	1.921368	-0.563395	0.000189
H64	H	1.717703	-0.572201	-0.079091
H65	H	1.693449	-0.552995	0.079230
H66	H	1.824027	-0.476629	-0.079082
H67	H	1.799816	-0.457419	0.079225
H68	H	1.909771	-0.586063	0.079375
H69	H	1.934013	-0.605264	-0.078948
H70	H	1.994240	-0.542339	0.000236
H71	H	0.938776	-0.206600	-0.000047
H72	H	1.379218	0.012718	0.411926
H73	H	1.139902	-0.162787	-0.000027
C74	C	1.786543	-0.748547	-0.000100
C75	C	1.879421	-0.821955	-0.000133
C76	C	1.999477	-0.806283	-0.000195
H77	H	1.783751	-0.708764	0.079039
H78	H	1.807782	-0.727917	-0.079282
H79	H	1.858187	-0.842574	0.079041
H80	H	1.882253	-0.861748	-0.079266
H81	H	2.020716	-0.785652	-0.079377
H82	H	1.996671	-0.766498	0.078946
H83	H	2.062510	-0.856088	-0.000230
H84	H	1.338985	-0.664924	-0.000066
C85	C	1.325451	-0.575820	-0.000250
C86	C	1.330187	-0.634542	-0.117015
C87	C	1.210398	-0.650578	-0.117241
H88	H	1.262149	-0.526166	-0.000313
H89	H	1.304292	-0.596535	0.078863
H90	H	1.351330	-0.613825	-0.196108
H91	H	1.393464	-0.684208	-0.116977
H92	H	1.189239	-0.671292	-0.038128
H93	H	1.147105	-0.600919	-0.117300
H94	H	1.213598	-0.690427	-0.196458
H95	H	1.318774	-0.810236	-0.000037
H96	H	1.656483	-0.606564	-0.000080
H97	H	1.260505	-0.425247	-0.000054
C98	C	1.617768	-0.177058	0.343668
C99	C	1.583389	-0.245895	0.378271
C100	C	1.674203	-0.318298	0.306680
H101	H	1.699754	-0.177103	0.366926
H102	H	1.620686	-0.179439	0.248363
H103	H	1.580485	-0.243515	0.473555
H104	H	1.501417	-0.245877	0.355010
H105	H	1.677121	-0.320679	0.211375
H106	H	1.756185	-0.318335	0.329944
H107	H	1.650884	-0.365013	0.330139
H108	H	1.280704	-0.279917	-0.000041
