data_functionalizedCrystal
_audit_creation_method	'MofGen! by Chris Wilmer'
_symmetry_space_group_name_H-M	'P1'
_symmetry_Int_Tables_number	1
_symmetry_cell_setting	triclinic
loop_
_symmetry_equiv_pos_as_xyz
  x,y,z
_cell_length_a	13.339070
_cell_length_b	27.732048
_cell_length_c	11.804365
_cell_angle_alpha	101.725897
_cell_angle_beta	74.875130
_cell_angle_gamma	99.135974
loop_
_atom_site_label
_atom_site_type_symbol
_atom_site_fract_x
_atom_site_fract_y
_atom_site_fract_z
O1	O	1.359069	0.234806	-0.099120
O2	O	1.065035	0.203067	-0.099106
O3	O	1.221179	0.149799	-0.099091
O4	O	1.202924	0.288074	-0.099136
O5	O	1.180073	0.163802	0.098961
O6	O	1.023928	0.217071	0.098945
O7	O	1.317962	0.248810	0.098932
Cu8	Cu	1.167192	0.234219	0.117022
Cu9	Cu	1.215805	0.217658	-0.117197
O10	O	1.161818	0.302078	0.098916
C11	C	1.006876	0.204708	-0.000078
C12	C	0.894822	0.188727	-0.000072
C13	C	0.528099	0.312985	-0.000131
C14	C	0.633379	0.328001	-0.000141
C15	C	0.698745	0.293183	-0.000123
C16	C	0.658821	0.243348	-0.000097
C17	C	0.553532	0.228329	-0.000096
C18	C	0.724178	0.208528	-0.000089
C19	C	0.684254	0.158692	-0.000062
C20	C	0.578976	0.143677	-0.000061
C21	C	0.513610	0.178494	-0.000079
C22	C	0.829467	0.223546	-0.000089
C23	C	0.854900	0.138891	-0.000054
C24	C	0.749620	0.123875	-0.000045
C25	C	1.200242	0.138741	-0.000062
C26	C	1.199085	0.084928	-0.000052
C27	C	1.284104	-0.242187	-0.000117
C28	C	1.279824	-0.444438	-0.000134
O29	O	1.357567	-0.464995	-0.000189
N30	N	1.187234	-0.476310	-0.000128
C31	C	1.095709	-0.457617	-0.000126
O32	O	1.016860	-0.489368	-0.000134
C33	C	1.099992	-0.255368	-0.000118
C34	C	1.192585	-0.223497	-0.000112
C35	C	1.376690	-0.210317	-0.000112
C36	C	1.377758	-0.159757	-0.000101
C37	C	1.286239	-0.141067	-0.000096
C38	C	1.193653	-0.172937	-0.000101
C39	C	1.008469	-0.236677	-0.000125
C40	C	1.009549	-0.186111	-0.000126
C41	C	1.102143	-0.154240	-0.000120
C42	C	1.103202	-0.103688	-0.000085
N43	N	1.195792	-0.071816	-0.000091
C44	C	1.287311	-0.090505	-0.000096
C45	C	1.093466	-0.563800	-0.000128
C46	C	1.092395	-0.614362	-0.000128
C47	C	1.276511	-0.601180	-0.000137
C48	C	1.277580	-0.550616	-0.000129
C49	C	1.186057	-0.531928	-0.000134
C50	C	1.289545	0.015674	-0.000073
C51	C	1.290604	0.066238	-0.000057
C52	C	1.106490	0.053051	-0.000054
C53	C	1.105429	0.002491	-0.000063
C54	C	1.196966	-0.016196	-0.000077
O55	O	1.025503	-0.083098	-0.000043
O56	O	1.366154	-0.058749	-0.000115
C57	C	1.283036	-0.292747	-0.000128
C58	C	1.190450	-0.324617	-0.000133
C59	C	1.098931	-0.305928	-0.000128
C60	C	1.189379	-0.375179	-0.000133
C61	C	1.280897	-0.393869	-0.000138
C62	C	1.373487	-0.361997	-0.000144
C63	C	1.374555	-0.311437	-0.000133
C64	C	1.006341	-0.337800	-0.000122
C65	C	1.005281	-0.388359	-0.000131
C66	C	1.096799	-0.407049	-0.000137
C67	C	1.376122	0.247169	-0.000099
C68	C	1.488177	0.263149	-0.000113
C69	C	1.182756	0.313135	-0.000116
C70	C	1.183914	0.366948	-0.000133
N71	N	1.133007	0.245868	0.281760
N72	N	1.249998	0.206006	-0.281934
C73	C	1.332087	0.178023	0.655728
C74	C	1.357947	0.169209	0.531069
C75	C	1.301714	0.188373	0.468735
C76	C	1.219618	0.216353	0.531073
C77	C	1.193761	0.225172	0.655745
C78	C	1.163387	0.235521	0.468752
C79	C	1.081291	0.263501	0.531090
C80	C	1.055438	0.272318	0.655749
C81	C	1.111671	0.253154	0.718083
C82	C	1.189244	0.226702	0.344081
C83	C	1.050918	0.273850	0.344097
C84	C	1.025058	0.282665	0.468757
H85	H	0.861961	0.264123	-0.000105
N86	N	0.457599	0.350530	-0.000159
H87	H	0.455112	0.376843	0.073247
H88	H	0.485649	0.366416	-0.073637
N89	N	0.812292	0.309382	-0.000117
H90	H	0.827397	0.301574	0.073313
H91	H	0.857821	0.291184	-0.073571
N92	N	0.706544	0.070126	-0.000026
H93	H	0.745662	0.049040	-0.073437
H94	H	0.715182	0.059468	0.073448
H95	H	0.665879	0.368576	-0.000171
H96	H	0.427881	0.166270	-0.000070
N97	N	0.994738	-0.543651	-0.000119
H98	H	0.975837	-0.517780	0.073300
H99	H	1.006372	-0.528182	-0.073585
N100	N	0.535914	0.089925	-0.000048
H101	H	0.593294	0.070147	-0.000035
H102	H	0.477544	0.087044	0.073373
H103	H	0.908122	0.110540	-0.000045
N104	N	1.390475	0.100613	-0.000043
H105	H	1.448287	0.081098	-0.000052
H106	H	1.410171	0.116695	-0.073458
H107	H	1.377870	0.162426	0.706488
N108	N	1.388271	-0.004477	-0.000087
H109	H	1.447079	0.023390	-0.000080
H110	H	1.376602	-0.019982	0.073331
H111	H	0.935018	-0.170899	-0.000132
N112	N	1.477628	-0.125386	-0.000098
H113	H	1.535435	-0.144906	-0.000106
H114	H	1.497326	-0.109308	-0.073518
N115	N	1.475408	-0.230470	-0.000116
H116	H	1.534214	-0.202602	-0.000112
H117	H	1.463736	-0.245971	0.073308
N118	N	1.377446	-0.516243	-0.000121
H119	H	1.435254	-0.535760	-0.000121
H120	H	1.397147	-0.500166	-0.073543
N121	N	1.474423	-0.277066	-0.000124
H122	H	1.532230	-0.296585	-0.000129
H123	H	1.494125	-0.260986	-0.073542
N124	N	1.375219	-0.621346	-0.000142
H125	H	1.394103	-0.647218	-0.073563
H126	H	1.433980	-0.593458	-0.000104
N127	N	0.992520	-0.648732	-0.000103
H128	H	0.934712	-0.629215	-0.000099
H129	H	1.003294	-0.675186	-0.073520
H130	H	0.933071	-0.262619	-0.000138
H131	H	1.448004	-0.377223	-0.000143
N132	N	1.005561	-0.031886	-0.000054
H133	H	0.947746	-0.012371	-0.000045
H134	H	1.016348	-0.058334	-0.073484
N135	N	1.007777	0.073216	-0.000016
H136	H	1.022512	0.110084	-0.000005
H137	H	0.982616	0.056320	-0.073431
N138	N	0.905401	-0.422730	-0.000119
H139	H	0.847592	-0.403213	-0.000114
H140	H	0.916181	-0.449181	-0.073543
H141	H	0.931814	-0.322588	-0.000121
H142	H	1.322772	0.181194	0.367232
N143	N	1.277772	0.196516	0.276870
H144	H	1.250253	0.166316	0.225173
H145	H	1.332887	0.217326	0.225190
N146	N	1.446487	0.139033	0.463835
H147	H	1.478186	0.128230	0.522236
H148	H	1.418904	0.108858	0.412128
N149	N	1.083777	0.262662	0.852540
H150	H	1.131856	0.246274	0.882563
H151	H	1.091708	0.299537	0.882459
N152	N	0.966891	0.302495	0.722989
H153	H	0.935185	0.313294	0.664589
H154	H	0.911834	0.281683	0.774724
N155	N	0.936515	0.312842	0.536005
H156	H	0.964028	0.343041	0.587711
H157	H	0.904842	0.323611	0.477538
N158	N	0.990262	0.294525	0.276883
H159	H	1.019096	0.284692	0.188450
H160	H	0.914215	0.280872	0.298695
