data_functionalizedCrystal
_audit_creation_method	'MofGen! by Chris Wilmer'
_symmetry_space_group_name_H-M	'P1'
_symmetry_Int_Tables_number	1
_symmetry_cell_setting	triclinic
loop_
_symmetry_equiv_pos_as_xyz
  x,y,z
_cell_length_a	15.297475
_cell_length_b	19.121063
_cell_length_c	15.298259
_cell_angle_alpha	82.282989
_cell_angle_beta	88.370891
_cell_angle_gamma	83.156694
loop_
_atom_site_label
_atom_site_type_symbol
_atom_site_fract_x
_atom_site_fract_y
_atom_site_fract_z
Zn1	Zn	1.231887	-0.345844	-0.741846
Zn2	Zn	1.248464	-0.484465	-0.601430
Zn3	Zn	1.110319	-0.352579	-0.570365
Zn4	Zn	1.079144	-0.445477	-0.720860
O5	O	1.167454	-0.407091	-0.658625
O6	O	1.355823	-0.377731	-0.745003
O7	O	1.250122	-0.486105	-0.475562
O8	O	1.132555	-0.254794	-0.588895
O9	O	1.368002	-0.479575	-0.641840
O10	O	1.221870	-0.249846	-0.714881
O11	O	1.148628	-0.389209	-0.452739
O12	O	0.984446	-0.351404	-0.568545
O13	O	1.079422	-0.413126	-0.845390
O14	O	0.961542	-0.419656	-0.679113
O15	O	1.191641	-0.339926	-0.860809
O16	O	1.219893	-0.576185	-0.621490
O17	O	1.095495	-0.547541	-0.709235
C18	C	0.941429	-0.382031	-0.618181
C19	C	0.844731	-0.371323	-0.600900
C20	C	0.524590	-0.483625	-0.782136
C21	C	0.615443	-0.493691	-0.798370
C22	C	0.672769	-0.463100	-0.749004
C23	C	0.639234	-0.422441	-0.683401
C24	C	0.548372	-0.412379	-0.667161
C25	C	0.696551	-0.391854	-0.634029
C26	C	0.663016	-0.351195	-0.568426
C27	C	0.572163	-0.341134	-0.552190
C28	C	0.514837	-0.371725	-0.601555
C29	C	0.787413	-0.401916	-0.650269
C30	C	0.811195	-0.330670	-0.535295
C31	C	0.720342	-0.320604	-0.519061
C32	C	1.156131	-0.586985	-0.666479
C33	C	1.151362	-0.663949	-0.669883
C34	C	1.213924	-0.714994	-0.625852
C35	C	1.209443	-0.787309	-0.629058
C36	C	1.142395	-0.808577	-0.676292
C37	C	1.079830	-0.757525	-0.720328
C38	C	1.084315	-0.685212	-0.717126
C39	C	1.125613	-1.026170	-0.688248
C40	C	1.121131	-1.098490	-0.691445
C41	C	1.250746	-1.128268	-0.600176
C42	C	1.255223	-1.055953	-0.596973
C43	C	1.192660	-1.004907	-0.641014
C44	C	1.137812	-0.882493	-0.679569
C45	C	1.197248	-0.930992	-0.637742
C46	C	1.394360	-0.432250	-0.699228
C47	C	1.491054	-0.442971	-0.716530
C48	C	1.130205	-0.371426	-0.885550
C49	C	1.114332	-0.356227	-0.982252
C50	C	1.178841	-0.226494	-0.650764
C51	C	1.183694	-0.149535	-0.647414
C52	C	1.280962	-0.515187	-1.302363
C53	C	1.295871	-0.529471	-1.211506
C54	C	1.250488	-0.486161	-1.154188
C55	C	1.190193	-0.428565	-1.187736
C56	C	1.175278	-0.414284	-1.278601
C57	C	1.144803	-0.385258	-1.130426
C58	C	1.084508	-0.327662	-1.163974
C59	C	1.069596	-0.313383	-1.254830
C60	C	1.114979	-0.356692	-1.312148
C61	C	1.159718	-0.399539	-1.039561
C62	C	1.054034	-0.298636	-1.015799
C63	C	1.039125	-0.284352	-1.106656
C64	C	1.204610	-0.442574	-0.432590
C65	C	1.220664	-0.457596	-0.335910
H66	H	0.814708	-0.435020	-0.703684
H67	H	1.262629	-0.497795	-1.080209
H68	H	1.309818	-1.038639	-0.558512
O69	O	0.426572	-0.361834	-0.585860
C70	C	0.296661	-0.277522	-0.582106
C71	C	0.396618	-0.288617	-0.599923
H72	H	0.272416	-0.218328	-0.593451
H73	H	0.261417	-0.306323	-0.628685
H74	H	0.282162	-0.299708	-0.510923
H75	H	0.411199	-0.266427	-0.671082
H76	H	0.431811	-0.259832	-0.553288
O77	O	0.539728	-0.301598	-0.488453
C78	C	0.572912	-0.232029	-0.376093
C79	C	0.609758	-0.276773	-0.448260
H80	H	0.629514	-0.211958	-0.343563
H81	H	0.526118	-0.184838	-0.406892
H82	H	0.535821	-0.266213	-0.324350
H83	H	0.646890	-0.242648	-0.500025
H84	H	0.656505	-0.323968	-0.417397
O85	O	0.648109	-0.533085	-0.862153
C86	C	0.730786	-0.535435	-0.998379
C87	C	0.693862	-0.490744	-0.926188
H88	H	0.767770	-0.501217	-1.050179
H89	H	0.777664	-0.582579	-0.967604
H90	H	0.674196	-0.555587	-1.030831
H91	H	0.750395	-0.470543	-0.893710
H92	H	0.646960	-0.443636	-0.957012
H93	H	1.083220	-0.899818	-0.718024
H94	H	0.746745	-0.471297	-0.762226
O95	O	1.010047	-0.256613	-0.960011
C96	C	0.986147	-0.233924	-0.809496
C97	C	1.036034	-0.281555	-0.872585
H98	H	1.007125	-0.254080	-0.738797
H99	H	1.002024	-0.176974	-0.827597
H100	H	0.912302	-0.235483	-0.815391
H101	H	1.109891	-0.280056	-0.866724
H102	H	1.020084	-0.338482	-0.854466
O103	O	0.469031	-0.513406	-0.830144
C104	C	0.455009	-0.585082	-0.945947
C105	C	0.518032	-0.551409	-0.891620
H106	H	0.494600	-0.615803	-0.995675
H107	H	0.416772	-0.622857	-0.899957
H108	H	0.406985	-0.541464	-0.982469
H109	H	0.566109	-0.594978	-0.855092
H110	H	0.556206	-0.513618	-0.937654
O111	O	1.270392	-0.836778	-0.586356
C112	C	1.424005	-0.881694	-0.571813
C113	C	1.355032	-0.825650	-0.620223
H114	H	1.492449	-0.872726	-0.599188
H115	H	1.421276	-0.876828	-0.498300
H116	H	1.409336	-0.937058	-0.582153
H117	H	1.369654	-0.770261	-0.609953
H118	H	1.357776	-0.830579	-0.693719
O119	O	0.866776	-0.300836	-0.487358
C120	C	0.908899	-0.192680	-0.445231
C121	C	0.845878	-0.226369	-0.499541
H122	H	0.892038	-0.132468	-0.455077
H123	H	0.901774	-0.213746	-0.372366
H124	H	0.979593	-0.206892	-0.468095
H125	H	0.775159	-0.212171	-0.476755
H126	H	0.853080	-0.205302	-0.572397
H127	H	1.268519	-0.697685	-0.587385
O128	O	1.311450	-1.177834	-0.557265
C129	C	1.376759	-1.227908	-0.417882
C130	C	1.307957	-1.171752	-0.466361
H131	H	1.373971	-1.223000	-0.344381
H132	H	1.362047	-1.283264	-0.428210
H133	H	1.445247	-1.218999	-0.445184
H134	H	1.239444	-1.180594	-0.439091
H135	H	1.322747	-1.116415	-0.456036
O136	O	0.687875	-0.281177	-0.455229
C137	C	0.686397	-0.267572	-0.300850
C138	C	0.723249	-0.312276	-0.373054
H139	H	0.714967	-0.292706	-0.234392
H140	H	0.705271	-0.211320	-0.316929
H141	H	0.611611	-0.265618	-0.297772
H142	H	0.798036	-0.314287	-0.376171
H143	H	0.704306	-0.368505	-0.356947
H144	H	1.344954	-0.576371	-1.184197
O145	O	1.055967	-1.119026	-0.737409
C146	C	0.927859	-1.081864	-0.827570
C147	C	1.001617	-1.058506	-0.775569
H148	H	0.883887	-1.032948	-0.858420
H149	H	0.958152	-1.112915	-0.881774
H150	H	0.886898	-1.117033	-0.780952
H151	H	1.042604	-1.023313	-0.822116
H152	H	0.971268	-1.027493	-0.721354
H153	H	1.074671	-0.984614	-0.724105
O154	O	1.014733	-0.778305	-0.766139
C155	C	0.950405	-0.876505	-0.811560
C156	C	1.024164	-0.853073	-0.759633
H157	H	0.958015	-0.936956	-0.806333
H158	H	0.883645	-0.857024	-0.783045
H159	H	0.954986	-0.852872	-0.883805
H160	H	1.019666	-0.876697	-0.687380
H161	H	1.090894	-0.872544	-0.788219
H162	H	1.033371	-0.643650	-0.752982
O163	O	1.325086	-0.557343	-1.357912
C164	C	1.431520	-0.658906	-1.371912
C165	C	1.381591	-0.611227	-1.308901
H166	H	1.477230	-0.702474	-1.332314
H167	H	1.382352	-0.684048	-1.408863
H168	H	1.471987	-0.625456	-1.421225
H169	H	1.341123	-0.644627	-1.259537
H170	H	1.430804	-0.586081	-1.272015
H171	H	1.208817	-0.446431	-1.012257
O172	O	1.262268	-0.910305	-0.591743
C173	C	1.298383	-0.848411	-0.472827
C174	C	1.224666	-0.871817	-0.524837
H175	H	1.268010	-0.817276	-0.418734
H176	H	1.342329	-0.897291	-0.441831
H177	H	1.339391	-0.813296	-0.519462
H178	H	1.183595	-0.906917	-0.478259
H179	H	1.180783	-0.822906	-0.555845
H180	H	1.102846	-0.345064	-1.386133
H181	H	1.020491	-0.266490	-1.282140
H182	H	0.990032	-0.237458	-1.133984
