data_functionalizedCrystal
_audit_creation_method	'MofGen! by Chris Wilmer'
_symmetry_space_group_name_H-M	'P1'
_symmetry_Int_Tables_number	1
_symmetry_cell_setting	triclinic
loop_
_symmetry_equiv_pos_as_xyz
  x,y,z
_cell_length_a	8.597340
_cell_length_b	8.559649
_cell_length_c	8.140239
_cell_angle_alpha	90.001146
_cell_angle_beta	82.299373
_cell_angle_gamma	77.625043
loop_
_atom_site_label
_atom_site_type_symbol
_atom_site_fract_x
_atom_site_fract_y
_atom_site_fract_z
O1	O	2.053717	0.238040	-0.154094
O2	O	1.594587	0.256301	-0.089103
O3	O	1.864602	0.015200	-0.127326
O4	O	1.783702	0.479140	-0.115871
O5	O	1.864594	0.015198	-0.400552
O6	O	1.594580	0.256299	-0.362329
O7	O	2.053709	0.238038	-0.427320
Zn8	Zn	1.824143	0.247168	-0.438205
Zn9	Zn	1.824153	0.247170	-0.078218
O10	O	1.783695	0.479138	-0.389097
C11	C	1.536349	0.254338	-0.217473
C12	C	1.362831	0.248476	-0.192910
C13	C	1.870729	-0.044235	-0.264804
C14	C	1.888978	-0.221330	-0.267378
C15	C	2.111948	0.240000	-0.298947
C16	C	2.285466	0.245863	-0.323499
C17	C	1.777568	0.538573	-0.251616
C18	C	1.759319	0.715668	-0.249031
N19	N	1.824148	0.247166	-0.683888
N20	N	1.824162	0.247160	0.167463
H21	H	1.296312	0.246226	-0.062302
O22	O	1.365027	0.248331	-0.479236
C23	C	1.493691	0.113731	-0.506260
H24	H	1.529428	0.068622	-0.381972
H25	H	1.600681	0.148583	-0.584293
H26	H	1.455007	0.015149	-0.574366
O27	O	1.610261	-0.186995	-0.227632
C28	C	1.591809	-0.089723	-0.083527
H29	H	1.679210	-0.149493	0.003001
H30	H	1.463362	-0.072835	-0.017843
H31	H	1.617933	0.031811	-0.119210
O32	O	2.037961	-0.318838	-0.288399
C33	C	2.023637	-0.479885	-0.286429
H34	H	1.901323	-0.488037	-0.217394
H35	H	2.122689	-0.553952	-0.221128
H36	H	2.035317	-0.527892	-0.419168
