data_functionalizedCrystal
_audit_creation_method	'MofGen! by Chris Wilmer'
_symmetry_space_group_name_H-M	'P1'
_symmetry_Int_Tables_number	1
_symmetry_cell_setting	triclinic
loop_
_symmetry_equiv_pos_as_xyz
  x,y,z
_cell_length_a	15.995292
_cell_length_b	19.188930
_cell_length_c	15.072220
_cell_angle_alpha	89.993728
_cell_angle_beta	89.986330
_cell_angle_gamma	83.306699
loop_
_atom_site_label
_atom_site_type_symbol
_atom_site_fract_x
_atom_site_fract_y
_atom_site_fract_z
O1	O	1.110697	0.089798	-0.073817
O2	O	1.610697	0.589798	0.426183
O3	O	0.866875	0.100954	-0.073814
O4	O	1.366875	0.600954	0.426186
O5	O	0.995822	-0.006263	-0.073798
O6	O	1.495822	0.493737	0.426202
O7	O	0.981750	0.197015	-0.073833
O8	O	1.481750	0.697015	0.426167
O9	O	0.995790	-0.006257	0.073767
O10	O	1.495790	0.493743	0.573767
O11	O	0.866843	0.100960	0.073751
O12	O	1.366843	0.600960	0.573751
O13	O	1.110666	0.089804	0.073748
O14	O	1.610666	0.589804	0.573748
Zn15	Zn	0.988749	0.095383	0.097179
Zn16	Zn	1.488749	0.595383	0.597179
Zn17	Zn	0.988791	0.095375	-0.097245
Zn18	Zn	1.488791	0.595375	0.402755
O19	O	0.981718	0.197021	0.073732
O20	O	1.481718	0.697021	0.573732
C21	C	0.835665	0.100503	-0.000031
C22	C	1.335665	0.600503	0.499969
C23	C	0.742717	0.099142	-0.000030
C24	C	1.242717	0.599142	0.499970
C25	C	0.404997	0.094138	-0.000039
C26	C	0.904997	0.594138	0.499961
C27	C	0.428026	0.171524	-0.000382
C28	C	0.928026	0.671524	0.499618
C29	C	0.524696	0.172995	-0.000045
C30	C	1.024696	0.672995	0.499955
C31	C	0.572543	0.096621	-0.000035
C32	C	1.072543	0.596621	0.499965
C33	C	0.543565	0.057935	0.084236
C34	C	1.043565	0.557935	0.584236
C35	C	0.446778	0.057003	0.084303
C36	C	0.946778	0.557003	0.584303
C37	C	0.446965	0.055416	-0.083506
C38	C	0.946965	0.555416	0.416494
C39	C	0.543447	0.058284	-0.084617
C40	C	1.043447	0.558284	0.415383
C41	C	0.667234	0.098020	-0.000030
C42	C	1.167234	0.598020	0.499970
C43	C	0.310306	0.092736	-0.000038
C44	C	0.810306	0.592736	0.499962
C45	C	0.995351	-0.032272	-0.000013
C46	C	1.495351	0.467728	0.499987
C47	C	0.993983	-0.109780	-0.000006
C48	C	1.493983	0.390220	0.499994
C49	C	1.069645	-0.154524	-0.000002
C50	C	1.569645	0.345476	0.499998
C51	C	1.068360	-0.227351	-0.000016
C52	C	1.568360	0.272649	0.499984
C53	C	0.991408	-0.255430	-0.000016
C54	C	1.491408	0.244570	0.499984
C55	C	0.915736	-0.210676	-0.000025
C56	C	1.415736	0.289324	0.499975
C57	C	0.917023	-0.137851	-0.000019
C58	C	1.417023	0.362149	0.499981
N59	N	0.932577	-0.363573	0.050204
N60	N	1.432577	0.136427	0.550204
N61	N	0.931359	-0.432754	0.050200
N62	N	1.431359	0.067246	0.550200
C63	C	0.987524	-0.474848	-0.000034
C64	C	1.487524	0.025152	0.499966
N65	N	1.044967	-0.445148	-0.050254
N66	N	1.544967	0.054852	0.449746
N67	N	1.046187	-0.375961	-0.050247
N68	N	1.546187	0.124039	0.449753
C69	C	0.990003	-0.334396	-0.000022
C70	C	1.490003	0.165604	0.499978
C71	C	1.061798	-0.598560	-0.000047
C72	C	1.561798	-0.098560	0.499953
C73	C	1.060510	-0.671388	-0.000067
C74	C	1.560510	-0.171388	0.499933
C75	C	0.907884	-0.654711	-0.000066
C76	C	1.407884	-0.154711	0.499934
C77	C	0.909174	-0.581885	-0.000056
C78	C	1.409174	-0.081885	0.499944
C79	C	0.986134	-0.553814	-0.000042
C80	C	1.486134	-0.053814	0.499958
C81	C	1.141875	0.090255	-0.000037
C82	C	1.641875	0.590255	0.499963
C83	C	1.234823	0.091616	-0.000044
C84	C	1.734823	0.591616	0.499956
C85	C	0.982190	0.223030	-0.000055
C86	C	1.482190	0.723030	0.499945
C87	C	0.983558	0.300538	-0.000068
C88	C	1.483558	0.800538	0.499932
N89	N	0.988727	0.095388	0.229867
N90	N	1.488727	0.595388	0.729867
N91	N	0.988820	0.095365	-0.229934
N92	N	1.488820	0.595365	0.270066
C93	C	0.988789	0.095372	0.589069
C94	C	1.488789	0.595372	1.089069
C95	C	0.919562	0.152550	0.551453
C96	C	1.419562	0.652550	1.051453
C97	C	0.919719	0.152758	0.448628
C98	C	1.419719	0.652758	0.948628
C99	C	0.988757	0.095380	0.410865
C100	C	1.488757	0.595380	0.910865
C101	C	1.076067	0.111276	0.448152
C102	C	1.576067	0.611276	0.948152
C103	C	1.075678	0.111683	0.551010
C104	C	1.575678	0.611683	1.051010
C105	C	0.971488	0.022129	0.551182
C106	C	1.471488	0.522129	1.051182
C107	C	0.969481	0.022618	0.448319
C108	C	1.469481	0.522618	0.948319
C109	C	0.988745	0.095383	0.310152
C110	C	1.488745	0.595383	0.810152
C111	C	0.988808	0.095371	0.689782
C112	C	1.488808	0.595371	1.189782
H113	H	0.575639	0.001734	0.087377
H114	H	1.075639	0.501734	0.587377
Cl115	Cl	0.819018	0.138163	0.589666
Cl116	Cl	1.319018	0.638163	1.089666
Cl117	Cl	1.166394	-0.119239	-0.000010
Cl118	Cl	1.666394	0.380761	0.499990
Cl119	Cl	0.384653	0.217577	-0.093688
Cl120	Cl	0.884653	0.717577	0.406312
Cl121	Cl	0.818996	-0.245974	-0.000032
Cl122	Cl	1.318996	0.254026	0.499968
H123	H	0.576622	0.002538	-0.089699
H124	H	1.076622	0.502538	0.410301
H125	H	0.845228	-0.677572	-0.000071
H126	H	1.345228	-0.177572	0.499929
H127	H	1.090965	0.165098	0.574982
H128	H	1.590965	0.665098	1.074982
Cl129	Cl	0.821897	-0.081597	-0.000023
Cl130	Cl	1.321897	0.418403	0.499977
H131	H	1.124463	-0.575704	-0.000040
H132	H	1.624463	-0.075704	0.499960
H133	H	1.128787	0.071679	0.575891
H134	H	1.628787	0.571679	1.075891
Cl135	Cl	0.383035	0.217329	0.092383
Cl136	Cl	0.883035	0.717329	0.592383
Cl137	Cl	0.552924	0.220056	0.093369
Cl138	Cl	1.052924	0.720056	0.593369
Cl139	Cl	1.157487	0.048690	0.410389
Cl140	Cl	1.657487	0.548690	0.910389
H141	H	0.419849	0.083800	0.147289
H142	H	0.919849	0.583800	0.647289
H143	H	1.122126	-0.707819	-0.000069
H144	H	1.622126	-0.207819	0.499931
Cl145	Cl	0.424628	-0.030594	0.090277
Cl146	Cl	0.924628	0.469406	0.590277
Cl147	Cl	0.574357	0.099419	0.181052
Cl148	Cl	1.074357	0.599419	0.681052
Cl149	Cl	0.814050	-0.525632	-0.000056
Cl150	Cl	1.314050	-0.025632	0.499944
Cl151	Cl	1.049434	-0.043564	0.588738
Cl152	Cl	1.549434	0.456436	1.088738
Cl153	Cl	1.100247	0.192806	0.408356
Cl154	Cl	1.600247	0.692806	0.908356
H155	H	0.418563	0.079602	-0.147378
H156	H	0.918563	0.579602	0.352622
Cl157	Cl	0.819492	0.138185	0.409704
Cl158	Cl	1.319492	0.638185	0.909704
Cl159	Cl	0.875332	-0.001463	0.591283
Cl160	Cl	1.375332	0.498537	1.091283
H161	H	0.930429	0.206597	0.577282
H162	H	1.430429	0.706597	1.077282
H163	H	0.543624	0.203288	-0.060456
H164	H	1.043624	0.703288	0.439544
H165	H	0.930740	0.207111	0.424004
H166	H	1.430740	0.707111	0.924004
Cl167	Cl	0.870324	0.003989	0.410696
Cl168	Cl	1.370324	0.503989	0.910696
Cl169	Cl	1.163485	-0.283612	-0.000013
Cl170	Cl	1.663485	0.216388	0.499987
Cl171	Cl	1.042312	-0.046152	0.408652
Cl172	Cl	1.542312	0.453848	0.908652
Cl173	Cl	0.572017	0.101748	-0.180873
Cl174	Cl	1.072017	0.601748	0.319127
H175	H	0.433180	-0.001546	-0.084068
H176	H	0.933180	0.498454	0.415932
