data_functionalizedCrystal
_audit_creation_method	'MofGen! by Chris Wilmer'
_symmetry_space_group_name_H-M	'P1'
_symmetry_Int_Tables_number	1
_symmetry_cell_setting	triclinic
loop_
_symmetry_equiv_pos_as_xyz
  x,y,z
_cell_length_a	18.101395
_cell_length_b	17.639874
_cell_length_c	17.640968
_cell_angle_alpha	92.136959
_cell_angle_beta	101.229078
_cell_angle_gamma	78.746389
loop_
_atom_site_label
_atom_site_type_symbol
_atom_site_fract_x
_atom_site_fract_y
_atom_site_fract_z
Zn1	Zn	-0.021316	-1.247783	0.195120
Zn2	Zn	-0.174108	-1.221990	0.068143
Zn3	Zn	-0.069486	-1.095107	0.093763
Zn4	Zn	-0.164357	-1.120732	0.220722
O5	O	-0.107317	-1.171403	0.144437
O6	O	-0.025506	-1.350634	0.156840
O7	O	-0.184470	-1.183640	-0.034731
O8	O	0.040551	-1.115430	0.107216
O9	O	-0.137762	-1.331684	0.063550
O10	O	0.075941	-1.227600	0.181682
O11	O	-0.107605	-1.090420	-0.015908
O12	O	-0.098149	-0.992234	0.132041
O13	O	-0.121142	-1.159104	0.323598
O14	O	-0.167850	-1.011060	0.225317
O15	O	-0.016051	-1.252448	0.304789
O16	O	-0.276462	-1.208488	0.088375
O17	O	-0.269298	-1.134094	0.200474
C18	C	-0.137169	-0.974092	0.184238
C19	C	-0.149953	-0.889685	0.201282
C20	C	-0.299748	-1.171297	0.144435
C21	C	-0.382054	-1.171326	0.144446
C22	C	-0.010142	-0.563041	0.014916
C23	C	-0.022168	-0.483730	0.030943
C24	C	-0.094916	-0.503355	0.127903
C25	C	-0.082893	-0.582670	0.111887
C26	C	-0.040507	-0.612506	0.055392
C27	C	-0.113258	-0.632135	0.152364
C28	C	-0.101239	-0.711442	0.136346
C29	C	-0.058856	-0.741284	0.079852
C30	C	-0.028488	-0.691813	0.039375
C31	C	-0.155649	-0.602296	0.208855
C32	C	-0.186013	-0.651761	0.249331
C33	C	-0.173990	-0.731070	0.233318
C34	C	-0.131607	-0.760913	0.176824
C35	C	-0.204359	-0.780541	0.273795
C36	C	-0.192340	-0.859849	0.257777
C37	C	-0.119589	-0.840220	0.160806
C38	C	-0.681111	-1.171501	0.144453
C39	C	-0.645255	-1.124860	0.215101
C40	C	-0.559721	-1.124545	0.214973
C41	C	-0.532745	-1.171414	0.144450
C42	C	-0.585407	-1.133559	0.068782
C43	C	-0.671030	-1.133253	0.069210
C44	C	-0.632626	-1.255983	0.148743
C45	C	-0.546646	-1.255866	0.150594
C46	C	-0.448896	-1.171366	0.144443
C47	C	-0.764961	-1.171547	0.144455
C48	C	0.085873	-1.171534	0.144451
C49	C	0.168198	-1.171589	0.144457
C50	C	-0.062135	-1.211512	0.342519
C51	C	-0.042882	-1.228603	0.426930
C52	C	-0.077341	-0.369483	0.104474
C53	C	-0.064548	-0.453889	0.087423
C54	C	-0.152262	-1.131494	-0.052884
C55	C	-0.171285	-1.114550	-0.137324
C56	C	-0.253138	-1.041850	0.753506
C57	C	-0.235034	-1.057926	0.832820
C58	C	-0.125612	-1.155117	0.813225
C59	C	-0.143704	-1.139046	0.733908
C60	C	-0.207468	-1.082412	0.704056
C61	C	-0.098035	-1.179608	0.684458
C62	C	-0.116128	-1.163541	0.605148
C63	C	-0.179891	-1.106912	0.575288
C64	C	-0.225562	-1.066345	0.624746
C65	C	-0.034274	-1.236246	0.714311
C66	C	0.011395	-1.276808	0.664861
C67	C	-0.006695	-1.260737	0.585550
C68	C	-0.070458	-1.204108	0.555691
C69	C	0.038976	-1.301304	0.536093
C70	C	0.020882	-1.285237	0.456783
C71	C	-0.088551	-1.188041	0.476381
H72	H	-0.085060	-0.864517	0.114814
H73	H	-0.272228	-1.024891	0.873081
H74	H	-0.678853	-1.062963	0.213635
H75	H	-0.049074	-0.805862	0.066810
H76	H	-0.194624	-1.093834	0.510708
H77	H	-0.650209	-1.150324	0.271934
H78	H	-0.703916	-1.071015	0.063693
H79	H	-0.510393	-1.284119	0.206202
H80	H	-0.527333	-1.293754	0.101598
H81	H	0.006041	-0.716110	-0.006618
H82	H	-0.523087	-1.150104	0.271587
H83	H	-0.073697	-1.201230	0.837542
H84	H	-0.551404	-1.062251	0.213409
H85	H	-0.019546	-1.249327	0.778891
H86	H	0.024387	-0.587337	-0.031076
H87	H	-0.165433	-0.537718	0.221894
H88	H	-0.576843	-1.071880	0.062828
H89	H	0.002568	-0.443458	-0.002017
H90	H	-0.277470	-1.020210	0.600442
H91	H	0.063310	-1.322921	0.689178
H92	H	-0.129430	-0.479050	0.173899
H93	H	-0.220527	-0.627456	0.295327
H94	H	0.090888	-1.347420	0.560410
H95	H	-0.656035	-1.290931	0.097090
H96	H	-0.238876	-0.756235	0.319788
H97	H	-0.217065	-0.900125	0.290738
H98	H	-0.695899	-1.164873	0.015648
H99	H	-0.638116	-1.287341	0.202128
H100	H	-0.569044	-1.165748	0.015417
H101	H	-0.140459	-1.141906	0.452077
H102	H	-0.305046	-0.995715	0.729203
H103	H	0.058072	-1.318266	0.416519
