data_functionalizedCrystal
_audit_creation_method	'MofGen! by Chris Wilmer'
_symmetry_space_group_name_H-M	'P1'
_symmetry_Int_Tables_number	1
_symmetry_cell_setting	triclinic
loop_
_symmetry_equiv_pos_as_xyz
  x,y,z
_cell_length_a	19.377372
_cell_length_b	15.698487
_cell_length_c	19.377308
_cell_angle_alpha	131.379153
_cell_angle_beta	86.411962
_cell_angle_gamma	72.112718
loop_
_atom_site_label
_atom_site_type_symbol
_atom_site_fract_x
_atom_site_fract_y
_atom_site_fract_z
Zr1	Zr	0.544084	1.273212	0.236113
O2	O	0.430275	1.450920	0.349922
O3	O	0.578973	1.095503	0.201227
O4	O	0.551802	1.338170	0.377104
O5	O	0.478879	1.157013	0.035307
O6	O	0.647665	1.389411	0.398542
O7	O	0.457446	1.208253	0.174045
O8	O	0.696269	0.955324	0.083931
O9	O	0.430275	1.591100	0.349919
O10	O	0.665394	1.206838	0.202344
O11	O	0.609848	1.130358	0.082807
O12	O	0.577858	1.416067	0.289879
O13	O	0.522312	1.339587	0.170341
Zr14	Zr	0.731158	1.273214	0.049034
Zr15	Zr	0.696975	1.354936	0.270305
Zr16	Zr	0.578268	1.191490	0.014842
Zr17	Zr	0.544085	1.496783	0.236108
Zr18	Zr	0.731158	1.049643	0.049039
O19	O	0.696270	1.450923	0.083919
O20	O	0.647665	1.567120	0.398538
O21	O	0.478880	1.334722	0.035303
O22	O	0.844968	1.095506	-0.064776
O23	O	0.796363	1.211704	0.249843
O24	O	0.627578	0.979306	-0.113392
O25	O	0.796363	1.389413	0.249839
O26	O	0.723441	1.208256	-0.091957
O27	O	0.627578	1.157015	-0.113396
O28	O	0.817797	1.338173	0.111101
O29	O	0.551803	1.656059	0.377097
O30	O	0.723440	0.890367	-0.091950
O31	O	0.844967	0.955326	-0.064772
O32	O	0.817796	1.020284	0.111109
O33	O	0.457447	1.526142	0.174038
O34	O	0.578974	1.591102	0.201216
O35	O	0.697385	1.130359	-0.004733
O36	O	0.752931	1.206839	0.114805
O37	O	0.665395	1.416068	0.202340
O38	O	0.609849	1.339588	0.082802
C39	C	0.446379	1.170989	0.099805
C40	C	0.381473	1.136295	0.085289
C41	C	0.637621	0.993560	0.142580
C42	C	0.637620	0.898648	0.142582
C43	C	-0.060454	1.568258	0.266013
C44	C	-0.121431	1.535628	0.252360
C45	C	-0.030040	1.317210	0.160981
C46	C	0.030946	1.349819	0.174621
C47	C	0.015732	1.475346	0.227139
C48	C	0.107133	1.256907	0.135748
C49	C	0.168113	1.289516	0.149392
C50	C	0.152906	1.415037	0.201910
C51	C	0.076712	1.507955	0.240783
C52	C	0.122344	1.131384	0.083237
C53	C	0.198530	1.038471	0.044363
C54	C	0.259513	1.071077	0.058001
C55	C	0.244307	1.196599	0.110519
C56	C	0.335707	0.978160	0.019127
C57	C	0.396687	1.010769	0.032772
C58	C	0.305287	1.229208	0.124163
C59	C	0.637621	0.724858	0.142563
C60	C	0.637620	0.821565	0.142570
C61	C	0.828864	1.375437	0.185342
C62	C	0.893769	1.410130	0.199857
C63	C	0.594863	1.375434	0.419349
C64	C	0.580351	1.410127	0.513285
C65	C	0.637622	1.552866	0.142567
C66	C	0.637622	1.647778	0.142565
C67	C	0.761064	0.978155	0.593767
C68	C	0.747413	1.010781	0.682044
C69	C	0.656032	1.229200	0.773414
C70	C	0.669678	1.196594	0.685143
C71	C	0.722195	1.071069	0.595324
C72	C	0.630809	1.289507	0.686701
C73	C	0.644452	1.256901	0.598437
C74	C	0.696964	1.131381	0.508615
C75	C	0.735837	1.038462	0.507060
C76	C	0.578289	1.415029	0.776520
C77	C	0.539419	1.507943	0.778078
C78	C	0.553066	1.475340	0.689813
C79	C	0.605578	1.349820	0.599991
C80	C	0.514192	1.568258	0.691368
C81	C	0.527834	1.535652	0.603104
C82	C	0.619220	1.317214	0.511727
C83	C	0.680383	1.170986	0.865795
C84	C	0.694906	1.136278	0.771853
C85	C	0.828863	1.095783	0.185348
C86	C	0.893768	1.035565	0.199866
C87	C	0.680379	0.891338	-0.134197
C88	C	0.694891	0.761734	-0.228130
C89	C	0.871621	0.993562	-0.091428
C90	C	0.951039	0.898651	-0.170846
C91	C	0.403621	1.552864	0.376574
C92	C	0.324204	1.647775	0.455992
C93	C	0.446380	1.450643	0.099798
C94	C	0.381474	1.510860	0.085281
C95	C	0.594864	1.655088	0.419343
C96	C	0.580352	1.784692	0.513276
C97	C	0.878554	1.007289	0.252387
C98	C	0.939531	0.950725	0.266047
C99	C	1.015722	0.922430	0.227179
C100	C	1.030935	0.950713	0.174655
C101	C	0.969958	1.007285	0.161002
C102	C	0.747400	0.700867	-0.317946
C103	C	0.761034	0.579097	-0.406215
C104	C	0.722162	0.518193	-0.404665
C105	C	0.669646	0.579070	-0.314840
C106	C	0.656009	0.700841	-0.226574
C107	C	1.017335	0.894005	-0.145742
C108	C	1.091960	0.804845	-0.220354
C109	C	1.100288	0.720326	-0.320069
C110	C	1.033985	0.724977	-0.345172
C111	C	0.959361	0.814142	-0.270561
C112	C	0.257908	1.652431	0.430889
C113	C	0.183282	1.741619	0.505501
C114	C	0.174954	1.826143	0.605215
C115	C	0.241258	1.821486	0.630318
C116	C	0.315882	1.732306	0.555707
C117	C	0.396687	1.539149	0.032769
C118	C	0.335707	1.595747	0.019133
C119	C	0.259515	1.624047	0.058004
C120	C	0.244302	1.595758	0.110524
C121	C	0.305281	1.539169	0.124164
C122	C	0.619237	1.845560	0.511695
C123	C	0.605617	1.967330	0.599950
C124	C	0.553108	2.028234	0.689784
C125	C	0.514222	1.967356	0.691363
C126	C	0.527846	1.845584	0.603110
H127	H	0.292901	1.331413	0.166898
H128	H	0.348081	0.875960	-0.023624
C129	C	0.986709	1.038366	0.103212
N130	N	0.999332	1.061772	0.059681
C131	C	0.352459	1.626842	-0.038650
N132	N	0.365080	1.650257	-0.082175
C133	C	0.677006	1.778585	0.412888
N134	N	0.720524	1.728143	0.338470
H135	H	1.092978	0.927667	0.143013
H136	H	1.161057	0.647728	-0.380812
H137	H	1.040778	0.656150	-0.426369
H138	H	0.637284	2.016882	0.598645
H139	H	0.209869	1.670125	0.046890
C140	C	0.790182	0.908561	0.680322
N141	N	0.822396	0.831571	0.679025
C142	C	0.481655	1.646017	0.876886
N143	N	0.438148	1.750019	0.951309
H144	H	0.542021	2.127388	0.761638
H145	H	0.471468	2.016962	0.764518
C146	C	0.160488	1.626873	0.153260
N147	N	0.097358	1.650297	0.185438
C148	C	0.818812	0.512148	-0.505010
N149	N	0.862333	0.461724	-0.579419
C150	C	0.485054	1.778653	0.604863
N151	N	0.452817	1.728249	0.606191
C152	C	0.267050	1.559473	0.321207
N153	N	0.273929	1.489466	0.238595
C154	C	0.059980	1.646038	0.298548
N155	N	0.047379	1.750038	0.342055
C156	C	0.737179	0.384233	-0.501768
N157	N	0.748498	0.283331	-0.574909
H158	H	0.202562	1.441586	0.213020
C159	C	0.110359	1.746719	0.477866
N160	N	0.055435	1.750557	0.457048
H161	H	0.292884	1.516135	0.166921
H162	H	0.114186	1.898754	0.665959
H163	H	0.779058	0.750441	-0.319226
H164	H	0.638000	0.529463	-0.313593
C165	C	0.676995	1.179131	0.412920
N166	N	0.720508	1.075132	0.338500
H167	H	-0.072840	1.670463	0.308748
H168	H	0.905384	0.817908	-0.291015
C169	C	0.480497	0.908559	-0.009995
N170	N	0.543624	0.831572	-0.042207
C171	C	0.215256	0.900396	-0.013406
N172	N	0.227855	0.796394	-0.056923
C173	C	0.922781	0.919609	0.323815
N174	N	0.910163	0.896170	0.367323
H175	H	1.065366	0.876364	0.238302
H176	H	0.072686	1.104841	0.072136
C177	C	0.793612	0.900380	0.408253
N178	N	0.837125	0.796380	0.333833
C179	C	0.232084	1.914462	0.740012
N180	N	0.225171	1.984487	0.822635
C181	C	0.818839	0.840072	0.494959
N182	N	0.862351	0.736073	0.420539
C183	C	0.480493	1.508038	-0.009994
N184	N	0.543614	1.484617	-0.042201
C185	C	1.164884	0.799739	-0.192719
N186	N	1.219808	0.795892	-0.171902
C187	C	0.456422	1.706329	0.790176
N188	N	0.412910	1.810326	0.864599
H189	H	0.369860	1.728520	0.576159
H190	H	-0.017664	1.215008	0.118224
H191	H	0.708066	1.104834	0.436745
H192	H	-0.183468	1.611299	0.284022
H193	H	0.613271	1.331401	0.846554
H194	H	0.567182	1.441572	0.848388
H195	H	0.496180	1.611310	0.604375
H196	H	0.816518	1.030335	0.284053
H197	H	1.010568	0.962814	-0.064555
H198	H	0.613253	0.750386	-0.153445
