data_functionalizedCrystal
_audit_creation_method	'MofGen! by Chris Wilmer'
_symmetry_space_group_name_H-M	'P1'
_symmetry_Int_Tables_number	1
_symmetry_cell_setting	triclinic
loop_
_symmetry_equiv_pos_as_xyz
  x,y,z
_cell_length_a	10.723024
_cell_length_b	14.519731
_cell_length_c	9.198806
_cell_angle_alpha	89.995832
_cell_angle_beta	89.996352
_cell_angle_gamma	84.078361
loop_
_atom_site_label
_atom_site_type_symbol
_atom_site_fract_x
_atom_site_fract_y
_atom_site_fract_z
O1	O	1.655992	0.129346	-0.120887
O2	O	1.292725	0.141727	-0.120892
O3	O	1.483976	0.001349	-0.120876
O4	O	1.464740	0.269725	-0.120903
O5	O	1.483961	0.001348	0.120909
O6	O	1.292710	0.141727	0.120893
O7	O	1.655976	0.129346	0.120898
Cu8	Cu	1.474342	0.135536	0.142973
Cu9	Cu	1.474360	0.135537	-0.142966
O10	O	1.464725	0.269724	0.120882
C11	C	1.246226	0.140826	0.000000
C12	C	1.107697	0.138130	-0.000002
C13	C	1.483067	-0.033016	0.000017
C14	C	1.480366	-0.135410	0.000018
C15	C	1.031987	0.216679	-0.000010
C16	C	0.888810	0.213894	-0.000012
C17	C	1.478172	-0.218565	0.000014
C18	C	1.475429	-0.322888	0.000003
C19	C	1.473253	-0.406038	-0.000006
C20	C	1.470511	-0.510367	-0.000015
C21	C	1.702475	0.130247	0.000003
C22	C	1.841005	0.132943	-0.000005
C23	C	1.465634	0.304089	-0.000014
C24	C	1.468335	0.406483	-0.000024
N25	N	1.474338	0.135535	0.344087
N26	N	1.474373	0.135530	-0.344080
C27	C	1.554641	0.076335	0.416290
C28	C	1.554661	0.076331	0.583703
H29	H	1.073169	0.285988	-0.000009
H30	H	1.066515	0.068821	-0.000032
C31	C	1.721691	-0.046832	0.431215
C32	C	1.647437	0.007910	0.332443
H33	H	1.778975	-0.089079	0.379450
H34	H	1.766876	-0.008280	0.490562
H35	H	1.669577	-0.080273	0.490603
H36	H	1.699550	0.041356	0.273061
H37	H	1.602249	-0.030647	0.273070
C38	C	1.448167	0.260779	0.484579
C39	C	1.381554	0.203960	0.572117
H40	H	1.390863	0.303020	0.432830
H41	H	1.500269	0.294219	0.543947
H42	H	1.498532	0.223630	0.417576
H43	H	1.331197	0.241109	0.639127
H44	H	1.329431	0.170518	0.512744
C45	C	0.676159	0.284347	-0.000019
C46	C	0.800998	0.304677	-0.000021
H47	H	0.621948	0.340396	-0.000016
H48	H	0.660934	0.249439	-0.084328
H49	H	0.660927	0.249430	0.084305
H50	H	0.816233	0.339588	-0.084351
H51	H	0.816229	0.339600	0.084296
C52	C	1.004552	0.038562	-0.124286
C53	C	0.928811	0.042157	0.000004
H54	H	1.058770	-0.017483	-0.124273
H55	H	0.953170	0.041009	-0.208585
H56	H	1.053096	0.089715	-0.124276
H57	H	0.880259	-0.008993	-0.000011
H58	H	0.980198	0.039701	0.084325
H59	H	1.623416	0.025650	0.645795
H60	H	1.405597	0.186214	0.406209
