data_functionalizedCrystal
_audit_creation_method	'MofGen! by Chris Wilmer'
_symmetry_space_group_name_H-M	'P1'
_symmetry_Int_Tables_number	1
_symmetry_cell_setting	triclinic
loop_
_symmetry_equiv_pos_as_xyz
  x,y,z
_cell_length_a	14.971486
_cell_length_b	15.944551
_cell_length_c	13.448316
_cell_angle_alpha	89.992444
_cell_angle_beta	89.998199
_cell_angle_gamma	83.556434
loop_
_atom_site_label
_atom_site_type_symbol
_atom_site_fract_x
_atom_site_fract_y
_atom_site_fract_z
O1	O	1.186829	0.109463	-0.082580
O2	O	1.520163	0.442797	0.250754
O3	O	1.853496	0.776130	0.584087
O4	O	0.926415	0.122572	-0.082607
O5	O	1.259748	0.455905	0.250726
O6	O	1.593082	0.789239	0.584060
O7	O	1.063733	-0.006250	-0.082584
O8	O	1.397067	0.327083	0.250750
O9	O	1.730400	0.660416	0.584083
O10	O	1.049511	0.238286	-0.082603
O11	O	1.382844	0.571619	0.250730
O12	O	1.716177	0.904952	0.584064
O13	O	1.063716	-0.006258	0.082800
O14	O	1.397050	0.327075	0.416133
O15	O	1.730383	0.660408	0.749467
O16	O	0.926398	0.122564	0.082777
O17	O	1.259731	0.455897	0.416110
O18	O	1.593064	0.789231	0.749443
O19	O	1.186812	0.109456	0.082804
O20	O	1.520145	0.442789	0.416137
O21	O	1.853479	0.776122	0.749471
Cu22	Cu	1.056603	0.116009	0.097891
Cu23	Cu	1.389937	0.449342	0.431225
Cu24	Cu	1.723270	0.782676	0.764558
Cu25	Cu	1.056624	0.116018	-0.097694
Cu26	Cu	1.389957	0.449352	0.235639
Cu27	Cu	1.723290	0.782685	0.568972
O28	O	1.049494	0.238278	0.082781
O29	O	1.382827	0.571611	0.416114
O30	O	1.716160	0.904944	0.749447
C31	C	0.893082	0.121982	0.000081
C32	C	1.226416	0.455315	0.333415
C33	C	1.559749	0.788648	0.666748
C34	C	0.793787	0.120225	0.000071
C35	C	1.127120	0.453558	0.333405
C36	C	1.460454	0.786892	0.666738
C37	C	0.736480	0.195904	0.000067
C38	C	1.069813	0.529238	0.333400
C39	C	1.403147	0.862571	0.666733
C40	C	0.643182	0.194249	0.000082
C41	C	0.976516	0.527582	0.333415
C42	C	1.309849	0.860915	0.666748
C43	C	0.607194	0.116913	0.000094
C44	C	0.940527	0.450246	0.333427
C45	C	1.273860	0.783579	0.666761
C46	C	0.664508	0.041227	0.000102
C47	C	0.997841	0.374561	0.333435
C48	C	1.331175	0.707894	0.666768
C49	C	0.757804	0.042884	0.000094
C50	C	1.091137	0.376217	0.333427
C51	C	1.424470	0.709550	0.666761
C52	C	0.470049	0.037780	0.000116
C53	C	0.803382	0.371113	0.333449
C54	C	1.136716	0.704447	0.666782
C55	C	0.376747	0.036123	0.000122
C56	C	0.710080	0.369456	0.333455
C57	C	1.043414	0.702790	0.666788
C58	C	0.355428	0.189145	0.000104
C59	C	0.688761	0.522478	0.333437
C60	C	1.022094	0.855811	0.666770
C61	C	0.448724	0.190801	0.000096
C62	C	0.782057	0.524135	0.333429
C63	C	1.115390	0.857468	0.666762
C64	C	0.506032	0.115116	0.000101
C65	C	0.839365	0.448449	0.333435
C66	C	1.172698	0.781782	0.666768
C67	C	1.063134	-0.037549	0.000108
C68	C	1.396468	0.295784	0.333442
C69	C	1.729801	0.629118	0.666775
C70	C	1.061364	-0.130797	0.000109
C71	C	1.394698	0.202537	0.333442
C72	C	1.728031	0.535870	0.666775
C73	C	0.972017	-0.345738	0.000086
C74	C	1.305350	-0.012405	0.333419
C75	C	1.638683	0.320928	0.666752
C76	C	1.013498	-0.406720	0.081634
C77	C	1.346832	-0.073387	0.414968
C78	C	1.680165	0.259947	0.748301
C79	C	1.058162	-0.301526	0.000101
C80	C	1.391495	0.031808	0.333434
C81	C	1.724829	0.365141	0.666767
C82	C	1.013536	-0.406696	-0.081421
C83	C	1.346869	-0.073362	0.251912
C84	C	1.680202	0.259971	0.585245
C85	C	1.055062	-0.466441	0.000089
C86	C	1.388396	-0.133108	0.333422
C87	C	1.721729	0.200225	0.666755
C88	C	1.099667	-0.361279	0.081717
C89	C	1.433000	-0.027946	0.415050
C90	C	1.766334	0.305388	0.748383
C91	C	1.099692	-0.361248	-0.081412
C92	C	1.433026	-0.027915	0.251921
C93	C	1.766359	0.305418	0.585255
C94	C	1.141236	-0.422212	0.000156
C95	C	1.474570	-0.088879	0.333490
C96	C	1.807903	0.244454	0.666823
C97	C	1.059945	-0.206522	0.000109
C98	C	1.393278	0.126812	0.333442
C99	C	1.726612	0.460145	0.666775
C100	C	1.053286	-0.561444	0.000088
C101	C	1.386619	-0.228111	0.333421
C102	C	1.719952	0.105223	0.666755
C103	C	1.220145	0.110046	0.000113
C104	C	1.553478	0.443379	0.333447
C105	C	1.886811	0.776712	0.666780
C106	C	1.319440	0.111802	0.000117
C107	C	1.652773	0.445136	0.333450
C108	C	1.986107	0.778469	0.666784
C109	C	1.050093	0.269576	0.000087
C110	C	1.383426	0.602910	0.333420
C111	C	1.716759	0.936243	0.666753
C112	C	1.051863	0.362824	0.000080
C113	C	1.385196	0.696157	0.333413
C114	C	1.718529	1.029491	0.666746
N115	N	1.056595	0.116002	0.235456
N116	N	1.389929	0.449335	0.568789
N117	N	1.723262	0.782669	0.902122
N118	N	1.056639	0.116019	-0.235258
N119	N	1.389972	0.449352	0.098075
N120	N	1.723305	0.782686	0.431408
C121	C	1.117419	0.058983	0.287506
C122	C	1.450752	0.392316	0.620840
C123	C	1.784086	0.725649	0.954173
C124	C	1.117425	0.058982	0.391610
C125	C	1.450758	0.392315	0.724943
C126	C	1.784091	0.725649	1.058276
C127	C	1.056610	0.116005	0.443660
C128	C	1.389944	0.449338	0.776994
C129	C	1.723277	0.782672	1.110327
C130	C	0.995780	0.173027	0.391602
C131	C	1.329114	0.506360	0.724936
C132	C	1.662447	0.839694	1.058269
C133	C	0.995771	0.173023	0.287501
C134	C	1.329104	0.506356	0.620834
C135	C	1.662438	0.839690	0.954168
C136	C	0.995805	0.173033	0.608582
C137	C	1.329138	0.506366	0.941916
C138	C	1.662472	0.839699	1.275249
C139	C	0.995815	0.173038	0.712691
C140	C	1.329148	0.506371	1.046024
C141	C	1.662482	0.839705	1.379357
C142	C	1.117459	0.058992	0.712691
C143	C	1.450792	0.392325	1.046024
C144	C	1.784125	0.725658	1.379358
C145	C	1.117449	0.058988	0.608590
C146	C	1.450783	0.392321	0.941923
C147	C	1.784116	0.725654	1.275256
C148	C	1.056620	0.116011	0.556539
C149	C	1.389954	0.449344	0.889872
C150	C	1.723287	0.782678	1.223206
H151	H	0.347448	-0.026851	0.000133
H152	H	0.680781	0.306482	0.333466
H153	H	1.014115	0.639816	0.666800
H154	H	0.946260	0.219453	0.433988
H155	H	1.279593	0.552787	0.767321
H156	H	1.612926	0.886120	1.100654
H157	H	1.166945	0.012552	0.245134
H158	H	1.500278	0.345885	0.578467
H159	H	1.833611	0.679218	0.911800
H160	H	0.596526	0.255875	0.000077
H161	H	0.929859	0.589208	0.333410
H162	H	1.263193	0.922542	0.666743
Cl163	Cl	1.155910	-0.330106	-0.187849
Cl164	Cl	1.489244	0.003227	0.145484
Cl165	Cl	1.822577	0.336561	0.478818
Cl166	Cl	0.957236	-0.437826	0.188066
Cl167	Cl	1.290569	-0.104492	0.521399
Cl168	Cl	1.623902	0.228841	0.854732
H169	H	0.946269	0.219464	0.566206
H170	H	1.279602	0.552797	0.899539
H171	H	1.612935	0.886131	1.232873
Cl172	Cl	0.919300	0.244705	0.222067
Cl173	Cl	1.252634	0.578038	0.555400
Cl174	Cl	1.585967	0.911371	0.888733
Cl175	Cl	0.829848	-0.052260	0.000104
Cl176	Cl	1.163181	0.281073	0.333437
Cl177	Cl	1.496514	0.614406	0.666771
H178	H	1.136065	-0.341257	0.150735
H179	H	1.469398	-0.007924	0.484069
H180	H	1.802732	0.325409	0.817402
H181	H	0.308763	0.250771	0.000103
H182	H	0.642096	0.584104	0.333437
H183	H	0.975429	0.917438	0.666770
H184	H	1.166951	0.012552	0.433989
H185	H	1.500284	0.345886	0.767322
H186	H	1.833618	0.679219	1.100655
Cl187	Cl	0.781713	0.293133	0.000045
Cl188	Cl	1.115047	0.626466	0.333378
Cl189	Cl	1.448380	0.959800	0.666711
H190	H	0.900512	-0.312499	0.000160
H191	H	1.233846	0.020835	0.333493
H192	H	1.567179	0.354168	0.666826
H193	H	1.166973	0.012560	0.566210
H194	H	1.500306	0.345893	0.899544
H195	H	1.833640	0.679226	1.232877
H196	H	0.478022	0.253775	0.000076
H197	H	0.811356	0.587109	0.333409
H198	H	1.144689	0.920442	0.666743
H199	H	0.946293	0.219471	0.755065
H200	H	1.279626	0.552804	1.088399
H201	H	1.612960	0.886138	1.421732
Cl202	Cl	0.957269	-0.437763	-0.187856
Cl203	Cl	1.290603	-0.104429	0.145478
Cl204	Cl	1.623936	0.228904	0.478811
H205	H	1.166987	0.012562	0.755077
H206	H	1.500321	0.345895	1.088410
H207	H	1.833654	0.679228	1.421743
Cl208	Cl	0.542092	-0.057370	0.000125
Cl209	Cl	0.875426	0.275964	0.333458
Cl210	Cl	1.208759	0.609297	0.666791
Cl211	Cl	0.619265	-0.055996	0.000124
Cl212	Cl	0.952598	0.277337	0.333457
Cl213	Cl	1.285931	0.610671	0.666790
H214	H	1.212804	-0.455303	0.000210
H215	H	1.546137	-0.121969	0.333543
H216	H	1.879470	0.211364	0.666877
