data_functionalizedCrystal
_audit_creation_method	'MofGen! by Chris Wilmer'
_symmetry_space_group_name_H-M	'P1'
_symmetry_Int_Tables_number	1
_symmetry_cell_setting	triclinic
loop_
_symmetry_equiv_pos_as_xyz
  x,y,z
_cell_length_a	14.044191
_cell_length_b	10.489763
_cell_length_c	12.503572
_cell_angle_alpha	86.445212
_cell_angle_beta	86.162165
_cell_angle_gamma	91.129931
loop_
_atom_site_label
_atom_site_type_symbol
_atom_site_fract_x
_atom_site_fract_y
_atom_site_fract_z
O1	O	1.265245	-0.301026	-0.089289
O2	O	0.989200	-0.289910	-0.089302
O3	O	1.133492	-0.110510	-0.089275
O4	O	1.120954	-0.480426	-0.089316
O5	O	1.122640	-0.124026	0.089365
O6	O	0.978349	-0.303427	0.089338
O7	O	1.254394	-0.314542	0.089351
Cu8	Cu	1.115380	-0.310219	0.105655
Cu9	Cu	1.128214	-0.294234	-0.105607
O10	O	1.110102	-0.493943	0.089324
C11	C	0.948426	-0.291806	0.000016
C12	C	0.843101	-0.277303	0.000012
C13	C	0.593340	-0.353648	0.000015
C14	C	0.650260	-0.250809	0.000024
C15	C	0.757567	-0.265554	0.000018
C16	C	0.486024	-0.338906	0.000021
C17	C	1.127114	-0.069640	0.000047
C18	C	1.124266	0.072276	0.000056
C19	C	1.032446	0.149732	0.000049
C20	C	1.070463	0.230789	0.088137
C21	C	1.081183	0.244087	-0.087988
C22	C	1.162317	0.151458	0.088216
C23	C	1.173029	0.164754	-0.087988
C24	C	1.211112	0.245775	0.000121
C25	C	1.295168	-0.312646	0.000030
C26	C	1.400494	-0.327149	0.000027
N27	N	1.106361	-0.321461	0.254246
C28	C	1.116464	0.465186	0.000017
C29	C	1.119264	0.323263	0.000057
N30	N	1.137240	-0.282982	-0.254198
C31	C	1.093094	-0.338011	0.473359
C32	C	1.150505	-0.266436	0.526697
C33	C	1.143122	-0.275645	0.648618
C34	C	1.100475	-0.328804	0.351426
H35	H	0.618406	-0.151687	-0.000040
H36	H	0.625197	-0.452757	0.000001
H37	H	0.956952	0.107734	0.000131
H38	H	1.046844	0.284628	-0.162458
H39	H	1.038403	-0.406199	0.519256
H40	H	1.286665	0.287529	0.000176
C41	C	1.011865	0.270404	0.188733
N42	N	0.967723	0.300240	0.264497
H43	H	1.196607	0.111047	0.162762
C44	C	1.231582	0.125100	-0.188593
N45	N	1.275678	0.095231	-0.264378
H46	H	1.205200	-0.198245	0.480794
