data_functionalizedCrystal
_audit_creation_method	'MofGen! by Chris Wilmer'
_symmetry_space_group_name_H-M	'P1'
_symmetry_Int_Tables_number	1
_symmetry_cell_setting	triclinic
loop_
_symmetry_equiv_pos_as_xyz
  x,y,z
_cell_length_a	18.215407
_cell_length_b	13.897447
_cell_length_c	18.215399
_cell_angle_alpha	89.974944
_cell_angle_beta	89.982632
_cell_angle_gamma	90.016973
loop_
_atom_site_label
_atom_site_type_symbol
_atom_site_fract_x
_atom_site_fract_y
_atom_site_fract_z
Zn1	Zn	1.125099	-0.384091	-0.416082
Zn2	Zn	1.458433	-0.050757	-0.082749
Zn3	Zn	1.791766	0.282576	0.250584
Zn4	Zn	1.125019	-0.545400	-0.293022
Zn5	Zn	1.458353	-0.212067	0.040311
Zn6	Zn	1.791686	0.121266	0.373644
Zn7	Zn	1.002032	-0.384114	-0.293035
Zn8	Zn	1.335365	-0.050780	0.040298
Zn9	Zn	1.668699	0.282553	0.373632
Zn10	Zn	1.002009	-0.545338	-0.416052
Zn11	Zn	1.335343	-0.212005	-0.082719
Zn12	Zn	1.668676	0.121329	0.250614
O13	O	1.063540	-0.464736	-0.354548
O14	O	1.396873	-0.131402	-0.021215
O15	O	1.730207	0.201931	0.312119
O16	O	1.228073	-0.405505	-0.399765
O17	O	1.561406	-0.072172	-0.066432
O18	O	1.894740	0.261162	0.266901
O19	O	1.108681	-0.524041	-0.190040
O20	O	1.442014	-0.190708	0.143294
O21	O	1.775347	0.142626	0.476627
O22	O	1.018400	-0.249129	-0.309375
O23	O	1.351733	0.084204	0.023958
O24	O	1.685067	0.417538	0.357291
O25	O	1.228014	-0.524019	-0.309354
O26	O	1.561347	-0.190685	0.023980
O27	O	1.894681	0.142648	0.357313
O28	O	1.108817	-0.249112	-0.399778
O29	O	1.442150	0.084221	-0.066444
O30	O	1.775484	0.417555	0.266889
O31	O	1.018322	-0.405544	-0.190049
O32	O	1.351656	-0.072211	0.143284
O33	O	1.684989	0.261122	0.476618
O34	O	0.899045	-0.405484	-0.309346
O35	O	1.232378	-0.072151	0.023987
O36	O	1.565711	0.261183	0.357320
O37	O	1.018361	-0.523913	-0.519041
O38	O	1.351695	-0.190579	-0.185707
O39	O	1.685028	0.142754	0.147626
O40	O	0.899028	-0.523935	-0.399727
O41	O	1.232361	-0.190602	-0.066393
O42	O	1.565695	0.142732	0.266940
O43	O	1.108795	-0.405445	-0.519063
O44	O	1.442129	-0.072111	-0.185729
O45	O	1.775462	0.261222	0.147604
O46	O	1.108659	-0.680374	-0.309325
O47	O	1.441992	-0.347040	0.024009
O48	O	1.775325	-0.013707	0.357342
O49	O	1.018284	-0.680328	-0.399714
O50	O	1.351617	-0.346995	-0.066381
O51	O	1.684950	-0.013661	0.266952
C52	C	0.872334	-0.464706	-0.354535
C53	C	1.205667	-0.131373	-0.021202
C54	C	1.539000	0.201961	0.312132
C55	C	0.790535	-0.464717	-0.354547
C56	C	1.123868	-0.131383	-0.021214
C57	C	1.457201	0.201950	0.312120
C58	C	0.602370	-0.403134	-0.401699
C59	C	0.935704	-0.069800	-0.068365
C60	C	1.269037	0.263533	0.264968
C61	C	0.525512	-0.403142	-0.401701
C62	C	0.858845	-0.069809	-0.068368
C63	C	1.192178	0.263525	0.264965
C64	C	0.525461	-0.526365	-0.307410
C65	C	0.858795	-0.193031	0.025923
C66	C	1.192128	0.140302	0.359257
C67	C	0.602319	-0.526351	-0.307404
C68	C	0.935652	-0.193018	0.025929
C69	C	1.268985	0.140316	0.359262
C70	C	0.640771	-0.464737	-0.354553
C71	C	0.974105	-0.131403	-0.021220
C72	C	1.307438	0.201930	0.312114
C73	C	0.487055	-0.464759	-0.354561
C74	C	0.820389	-0.131426	-0.021228
C75	C	1.153722	0.201908	0.312106
C76	C	0.403722	-0.464768	-0.354563
C77	C	0.737055	-0.131435	-0.021230
C78	C	1.070388	0.201898	0.312103
C79	C	0.724110	-0.464726	-0.354550
C80	C	1.057444	-0.131393	-0.021217
C81	C	1.390777	0.201941	0.312117
C82	C	1.063480	-0.715350	-0.354531
C83	C	1.396813	-0.382017	-0.021198
C84	C	1.730147	-0.048683	0.312136
C85	C	1.063522	-0.822564	-0.354548
C86	C	1.396855	-0.489231	-0.021215
C87	C	1.730188	-0.155897	0.312118
C88	C	1.063557	-0.909634	-0.354565
C89	C	1.396891	-0.576300	-0.021232
C90	C	1.730224	-0.242967	0.312102
C91	C	1.063609	-1.018866	-0.354584
C92	C	1.396942	-0.685533	-0.021251
C93	C	1.730276	-0.352199	0.312083
C94	C	1.255493	-0.464766	-0.354561
C95	C	1.588826	-0.131433	-0.021228
C96	C	1.922159	0.201901	0.312105
C97	C	1.337292	-0.464779	-0.354567
C98	C	1.670625	-0.131446	-0.021234
C99	C	2.003958	0.201888	0.312100
C100	C	1.063585	-0.464669	-0.546501
C101	C	1.396918	-0.131336	-0.213168
C102	C	1.730251	0.201997	0.120166
C103	C	1.063604	-0.464641	-0.628300
C104	C	1.396937	-0.131308	-0.294967
C105	C	1.730271	0.202026	0.038367
C106	C	1.063620	-0.213143	-0.354581
C107	C	1.396953	0.120191	-0.021248
C108	C	1.730287	0.453524	0.312086
C109	C	1.063654	-0.105929	-0.354595
C110	C	1.396988	0.227405	-0.021262
C111	C	1.730321	0.560738	0.312071
C112	C	1.110710	-0.402897	-0.816507
C113	C	1.444043	-0.069564	-0.483173
C114	C	1.777376	0.263770	-0.149840
C115	C	1.110718	-0.402869	-0.893365
C116	C	1.444052	-0.069535	-0.560032
C117	C	1.777385	0.263798	-0.226699
C118	C	1.016550	-0.526236	-0.893331
C119	C	1.349883	-0.192902	-0.559998
C120	C	1.683217	0.140431	-0.226665
C121	C	1.016538	-0.526258	-0.816474
C122	C	1.349872	-0.192925	-0.483140
C123	C	1.683205	0.140409	-0.149807
C124	C	1.063622	-0.464590	-0.778063
C125	C	1.396955	-0.131257	-0.444730
C126	C	1.730289	0.202076	-0.111397
C127	C	1.063643	-0.464540	-0.931780
C128	C	1.396976	-0.131206	-0.598446
C129	C	1.730309	0.202127	-0.265113
C130	C	1.063652	-0.464510	-1.015113
C131	C	1.396985	-0.131176	-0.681780
C132	C	1.730319	0.202157	-0.348447
C133	C	1.063612	-0.464619	-0.694724
C134	C	1.396945	-0.131285	-0.361391
C135	C	1.730279	0.202048	-0.028058
C136	C	1.063538	-0.464732	-0.163342
C137	C	1.396871	-0.131399	0.169992
C138	C	1.730204	0.201934	0.503325
C139	C	1.063661	-0.464489	-0.081543
C140	C	1.396994	-0.131156	0.251790
C141	C	1.730328	0.202178	0.585123
H142	H	0.494144	-0.576530	-0.269024
H143	H	0.827477	-0.243196	0.064309
H144	H	1.160811	0.090137	0.397642
C145	C	1.162490	-0.335054	-0.774257
C146	C	1.495823	-0.001720	-0.440924
C147	C	1.829157	0.331613	-0.107591
H148	H	1.190529	-0.298300	-0.808163
H149	H	1.523862	0.035033	-0.474830
H150	H	1.857195	0.368367	-0.141497
H151	H	1.194543	-0.371956	-0.744271
H152	H	1.527876	-0.038623	-0.410938
H153	H	1.861209	0.294711	-0.077605
H154	H	1.134337	-0.293029	-0.744281
H155	H	1.467670	0.040304	-0.410948
H156	H	1.801004	0.373637	-0.077615
H157	H	1.149061	-0.352630	-0.924662
H158	H	1.482394	-0.019297	-0.591329
H159	H	1.815727	0.314036	-0.257996
C160	C	0.964769	-0.594073	-0.935585
C161	C	1.298102	-0.260740	-0.602251
C162	C	1.631435	0.072594	-0.268918
H163	H	0.971524	-0.585232	-0.986865
H164	H	1.304858	-0.251899	-0.653531
H165	H	1.638191	0.081434	-0.320198
H166	H	0.915323	-0.579958	-0.922986
H167	H	1.248657	-0.246625	-0.589653
H168	H	1.581990	0.086708	-0.256319
H169	H	0.975525	-0.658890	-0.922978
H170	H	1.308859	-0.325557	-0.589645
H171	H	1.642192	0.007776	-0.256311
H172	H	0.978189	-0.576495	-0.785173
H173	H	1.311522	-0.243162	-0.451839
H174	H	1.644855	0.090171	-0.118506
C175	C	0.644666	-0.335354	-0.453554
C176	C	0.977999	-0.002020	-0.120220
C177	C	1.311333	0.331313	0.213113
H178	H	0.610785	-0.298661	-0.481627
H179	H	0.944118	0.034673	-0.148294
H180	H	1.277452	0.368006	0.185040
H181	H	0.674656	-0.372295	-0.485571
H182	H	1.007990	-0.038962	-0.152238
H183	H	1.341323	0.294371	0.181096
H184	H	0.674641	-0.293271	-0.425448
H185	H	1.007974	0.040062	-0.092115
H186	H	1.341308	0.373396	0.241219
C187	C	0.483274	-0.335383	-0.453565
C188	C	0.816607	-0.002050	-0.120232
C189	C	1.149941	0.331283	0.213101
H190	H	0.517185	-0.298694	-0.481646
H191	H	0.850518	0.034639	-0.148313
H192	H	1.183851	0.367972	0.185021
H193	H	0.453286	-0.293311	-0.425473
H194	H	0.786620	0.040023	-0.092140
H195	H	1.119953	0.373356	0.241193
H196	H	0.453300	-0.372348	-0.485586
H197	H	0.786633	-0.039015	-0.152253
H198	H	1.119967	0.294319	0.181080
C199	C	0.644563	-0.594121	-0.255544
C200	C	0.977896	-0.260788	0.077789
C201	C	1.311229	0.072546	0.411123
H202	H	0.610655	-0.630828	-0.227473
H203	H	0.943989	-0.297495	0.105861
H204	H	1.277322	0.035838	0.439194
H205	H	0.674538	-0.557165	-0.223525
H206	H	1.007871	-0.223832	0.109808
H207	H	1.341205	0.109501	0.443142
H208	H	0.674549	-0.636191	-0.283646
H209	H	1.007882	-0.302858	0.049687
H210	H	1.341215	0.030475	0.383020
