data_functionalizedCrystal
_audit_creation_method	'MofGen! by Chris Wilmer'
_symmetry_space_group_name_H-M	'P1'
_symmetry_Int_Tables_number	1
_symmetry_cell_setting	triclinic
loop_
_symmetry_equiv_pos_as_xyz
  x,y,z
_cell_length_a	19.077115
_cell_length_b	16.120444
_cell_length_c	19.077569
_cell_angle_alpha	89.308793
_cell_angle_beta	94.700051
_cell_angle_gamma	90.739546
loop_
_atom_site_label
_atom_site_type_symbol
_atom_site_fract_x
_atom_site_fract_y
_atom_site_fract_z
Zn1	Zn	1.078821	-0.361622	0.456709
Zn2	Zn	1.578821	0.138378	0.956709
Zn3	Zn	1.068063	-0.505856	0.344750
Zn4	Zn	1.568063	-0.005856	0.844750
Zn5	Zn	0.956203	-0.361634	0.334106
Zn6	Zn	1.456203	0.138366	0.834106
Zn7	Zn	0.955403	-0.495080	0.457428
Zn8	Zn	1.455403	0.004920	0.957428
O9	O	1.014622	-0.431048	0.398248
O10	O	1.514622	0.068952	0.898248
O11	O	1.175858	-0.385260	0.446011
O12	O	1.675858	0.114740	0.946011
O13	O	1.049056	-0.491239	0.244873
O14	O	1.549056	0.008761	0.744873
O15	O	0.977305	-0.245423	0.345614
O16	O	1.477305	0.254577	0.845614
O17	O	1.167954	-0.491228	0.363755
O18	O	1.667954	0.008772	0.863755
O19	O	1.067392	-0.245414	0.435689
O20	O	1.567392	0.254586	0.935689
O21	O	0.966873	-0.385280	0.237052
O22	O	1.466873	0.114720	0.737052
O23	O	0.857632	-0.374831	0.346312
O24	O	1.357632	0.125169	0.846312
O25	O	0.975942	-0.472861	0.555798
O26	O	1.475942	0.027139	1.055798
O27	O	0.857045	-0.472873	0.436916
O28	O	1.357045	0.027127	0.936916
O29	O	1.066617	-0.374811	0.555270
O30	O	1.566617	0.125189	1.055270
O31	O	1.048281	-0.620636	0.364453
O32	O	1.548281	-0.120636	0.864453
O33	O	0.965511	-0.612719	0.447237
O34	O	1.465511	-0.112719	0.947237
C35	C	0.831808	-0.422684	0.390537
C36	C	1.331808	0.077316	0.890537
C37	C	0.753598	-0.419126	0.387256
C38	C	1.253598	0.080874	0.887256
C39	C	0.313397	-0.393566	0.363727
C40	C	0.813397	0.106434	0.863727
C41	C	0.386883	-0.396914	0.366814
C42	C	0.886883	0.103086	0.866814
C43	C	0.423329	-0.449724	0.415461
C44	C	0.923329	0.050276	0.915461
C45	C	0.386287	-0.499183	0.461028
C46	C	0.886287	0.000817	0.961028
C47	C	0.312803	-0.495830	0.457944
C48	C	0.812803	0.004170	0.957944
C49	C	0.643072	-0.465231	0.429739
C50	C	1.143072	0.034769	0.929739
C51	C	0.716561	-0.468583	0.432818
C52	C	1.216561	0.031417	0.932818
C53	C	0.717152	-0.366312	0.338605
C54	C	1.217152	0.133688	0.838605
C55	C	0.643666	-0.362968	0.335522
C56	C	1.143666	0.137032	0.835522
C57	C	0.606630	-0.412423	0.381092
C58	C	1.106630	0.087577	0.881092
N59	N	0.498443	-0.453150	0.418616
N60	N	0.998443	0.046850	0.918616
N61	N	0.531518	-0.408993	0.377939
N62	N	1.031518	0.091007	0.877939
C63	C	1.005661	-0.646809	0.407094
C64	C	1.505661	-0.146809	0.907094
C65	C	1.001893	-0.739115	0.410905
C66	C	1.501893	-0.239115	0.910905
C67	C	1.034348	-0.953137	0.378639
C68	C	1.534348	-0.453137	0.878639
C69	C	0.995027	-0.908114	0.417870
C70	C	1.495027	-0.408114	0.917870
C71	C	0.998849	-0.814074	0.413994
C72	C	1.498849	-0.314074	0.913994
C73	C	1.030527	-1.047185	0.382515
C74	C	1.530527	-0.547185	0.882515
C75	C	1.198151	-0.439445	0.405990
C76	C	1.698151	0.060555	0.905990
C77	C	1.276360	-0.443023	0.409289
C78	C	1.776360	0.056977	0.909289
C79	C	1.022390	-0.422633	0.581779
C80	C	1.522390	0.077367	1.081779
C81	C	1.025701	-0.419047	0.659989
C82	C	1.525701	0.080953	1.159989
C83	C	1.023638	-0.214444	0.389384
C84	C	1.523638	0.285556	0.889384
C85	C	1.027480	-0.122140	0.385607
C86	C	1.527480	0.377860	0.885607
C87	C	1.006927	-0.439372	0.215431
C88	C	1.506927	0.060628	0.715431
C89	C	1.003763	-0.442731	0.137218
C90	C	1.503763	0.057269	0.637218
C91	C	0.980048	-0.468408	0.697008
C92	C	1.480048	0.031592	1.197008
C93	C	0.983164	-0.465038	0.770495
C94	C	1.483164	0.034962	1.270495
C95	C	1.031930	-0.412303	0.806961
C96	C	1.531930	0.087697	1.306961
C97	C	1.077588	-0.362940	0.769936
C98	C	1.577588	0.137060	1.269936
C99	C	1.074475	-0.366314	0.696451
C100	C	1.574475	0.133686	1.196451
C101	C	1.046307	-0.396742	1.026708
C102	C	1.546307	0.103258	1.526708
C103	C	1.049416	-0.393370	1.100198
C104	C	1.549416	0.106630	1.600198
C105	C	0.954992	-0.495469	1.100752
C106	C	1.454992	0.004531	1.600752
C107	C	0.951880	-0.498835	1.027265
C108	C	1.451880	0.001165	1.527265
C109	C	0.997540	-0.449475	0.990247
C110	C	1.497540	0.050525	1.490247
N111	N	1.035115	-0.408856	0.882076
N112	N	1.535115	0.091144	1.382076
N113	N	0.994358	-0.452927	0.915134
N114	N	1.494358	0.047073	1.415134
H115	H	0.958493	-0.940194	0.454368
H116	H	1.458493	-0.440194	0.954368
O117	O	1.082749	-0.910653	0.330304
O118	O	1.582749	-0.410653	0.830304
H119	H	1.078191	-0.842387	0.334810
H120	H	1.578191	-0.342387	0.834810
H121	H	0.940329	-0.511340	0.667323
H122	H	1.440329	-0.011340	1.167323
O123	O	0.933917	-0.518268	0.810425
O124	O	1.433917	-0.018268	1.310425
H125	H	0.899476	-0.555493	0.772722
H126	H	1.399476	-0.055493	1.272722
H127	H	0.912180	-0.541791	0.997581
H128	H	1.412180	-0.041791	1.497581
O129	O	0.905747	-0.548708	1.140676
O130	O	1.405747	-0.048708	1.640676
H131	H	0.916105	-0.537509	1.197902
H132	H	1.416105	-0.037509	1.697902
O133	O	1.102021	-0.336495	1.139534
O134	O	1.602021	0.163505	1.639534
H135	H	1.133254	-0.302745	1.101449
H136	H	1.633254	0.197255	1.601449
H137	H	0.417036	-0.356645	0.329709
H138	H	0.917036	0.143355	0.829709
H139	H	1.083487	-0.356550	0.996577
H140	H	1.583487	0.143450	1.496577
H141	H	0.613996	-0.319970	0.295904
H142	H	1.113996	0.180030	0.795904
O143	O	1.130171	-0.306037	0.809260
O144	O	1.630171	0.193963	1.309260
H145	H	1.124656	-0.311968	0.866578
H146	H	1.624656	0.188032	1.366578
H147	H	0.747315	-0.326048	0.301505
H148	H	1.247315	0.173952	0.801505
O149	O	1.123713	-0.313074	0.656517
O150	O	1.623713	0.186926	1.156517
H151	H	1.158142	-0.275831	0.694218
H152	H	1.658142	0.224169	1.194218
H153	H	0.283728	-0.350563	0.324112
H154	H	0.783728	0.149437	0.824112
H155	H	0.612926	-0.505505	0.466843
H156	H	1.112926	-0.005505	0.966843
O157	O	0.755876	-0.525538	0.485294
O158	O	1.255876	-0.025538	0.985294
H159	H	0.717778	-0.559358	0.516470
H160	H	1.217778	-0.059358	1.016470
H161	H	0.415968	-0.542178	0.500640
H162	H	0.915968	-0.042178	1.000640
H163	H	0.282648	-0.536100	0.495047
H164	H	0.782648	-0.036100	0.995047
