data_functionalizedCrystal
_audit_creation_method	'MofGen! by Chris Wilmer'
_symmetry_space_group_name_H-M	'P1'
_symmetry_Int_Tables_number	1
_symmetry_cell_setting	triclinic
loop_
_symmetry_equiv_pos_as_xyz
  x,y,z
_cell_length_a	6.817900
_cell_length_b	17.982783
_cell_length_c	17.329378
_cell_angle_alpha	92.080676
_cell_angle_beta	103.025558
_cell_angle_gamma	102.448572
loop_
_atom_site_label
_atom_site_type_symbol
_atom_site_fract_x
_atom_site_fract_y
_atom_site_fract_z
V1	V	-4.005897	-0.089822	-0.245307
O2	O	-3.999095	0.020338	-0.240302
O3	O	-3.952471	-0.193510	-0.243952
O4	O	-3.950717	-0.081410	-0.352147
O5	O	-4.000862	-0.092538	-0.131358
V6	V	-4.491055	-0.077476	-0.231639
O7	O	-4.263570	-0.116903	-0.275290
O8	O	-4.683580	-0.050395	-0.201656
O9	O	-4.321274	0.026212	-0.232994
O10	O	-4.615253	-0.187635	-0.236644
O11	O	-4.613487	-0.074759	-0.345587
O12	O	-4.323028	-0.085888	-0.124799
C13	C	-3.796469	-0.219007	-0.240166
C14	C	-3.834028	-0.303728	-0.239770
C15	C	-3.816576	-0.337225	-0.167597
C16	C	-3.851887	-0.416830	-0.167228
C17	C	-3.904636	-0.462937	-0.239032
C18	C	-3.922095	-0.429435	-0.311211
C19	C	-3.886798	-0.349831	-0.311580
C20	C	-4.064445	-0.750467	-0.309727
C21	C	-4.099735	-0.830076	-0.309352
C22	C	-4.029533	-0.817466	-0.165375
C23	C	-3.994237	-0.737862	-0.165743
C24	C	-4.011709	-0.704368	-0.237922
C25	C	-3.973424	-0.618051	-0.238321
C26	C	-3.942906	-0.549252	-0.238633
C27	C	-3.794230	-0.076011	-0.378177
C28	C	-3.830364	-0.069820	-0.465521
C29	C	-3.883414	-0.135955	-0.517992
C30	C	-3.917374	-0.130136	-0.600061
C31	C	-3.898269	-0.058182	-0.629657
C32	C	-3.845221	0.007958	-0.577180
C33	C	-3.811276	0.002138	-0.495113
C34	C	-3.998969	-0.037156	-0.876875
C35	C	-4.032913	-0.031342	-0.958948
C36	C	-4.105067	-0.169437	-0.981824
C37	C	-4.071106	-0.175250	-0.899754
C38	C	-4.018072	-0.109110	-0.847284
C39	C	-3.932975	-0.052232	-0.713545
C40	C	-3.983382	-0.115061	-0.763399
C41	C	-4.140618	0.051705	-0.236778
C42	C	-4.082297	0.136426	-0.237179
C43	C	-4.142858	-0.091289	-0.098764
C44	C	-4.085962	-0.097477	-0.011419
H45	H	-4.015317	-0.844747	-0.106604
C46	C	-3.931026	0.099927	-0.862518
C47	C	-3.940645	0.035544	-0.819207
H48	H	-3.895001	0.144811	-0.826911
H49	H	-4.061981	0.097057	-0.897569
H50	H	-3.829544	0.101583	-0.892438
H51	H	-4.042139	0.033886	-0.789291
H52	H	-3.809672	0.038416	-0.784142
H53	H	-3.768082	0.055993	-0.452391
C54	C	-4.094877	-0.706026	-0.046848
C55	C	-3.936263	-0.687181	-0.086815
H56	H	-4.059094	-0.674735	0.001877
H57	H	-4.113381	-0.758222	-0.036299
H58	H	-4.219723	-0.697890	-0.079015
H59	H	-3.811420	-0.695324	-0.054650
H60	H	-3.917735	-0.634973	-0.097361
H61	H	-3.998944	-0.173646	-0.739298
C62	C	-4.165646	-0.834551	-0.451719
C63	C	-4.157747	-0.880759	-0.388287
H64	H	-4.201472	-0.865842	-0.500446
H65	H	-4.034209	-0.800922	-0.446363
H66	H	-4.266644	-0.805559	-0.451374
H67	H	-4.056738	-0.909747	-0.388628
H68	H	-4.289202	-0.914402	-0.393645
H69	H	-4.078648	-0.723205	-0.368498
H70	H	-3.901033	-0.322560	-0.370351
H71	H	-3.960578	-0.183991	-0.642781
C72	C	-4.146933	-0.311187	-0.930637
C73	C	-4.092858	-0.254359	-0.867242
H74	H	-4.160586	-0.360030	-0.910568
H75	H	-4.042283	-0.303962	-0.959518
H76	H	-4.274624	-0.308117	-0.964812
H77	H	-3.965158	-0.257426	-0.833070
H78	H	-4.197515	-0.261587	-0.838348
H79	H	-3.965060	-0.466982	-0.369676
H80	H	-3.898960	-0.194548	-0.493902
H81	H	-4.148253	-0.223284	-1.024553
H82	H	-4.017395	0.027254	-0.983042
C83	C	-3.865194	0.078197	-0.692824
C84	C	-3.824213	0.087053	-0.609710
H85	H	-3.852204	0.127029	-0.712902
H86	H	-4.001793	0.048518	-0.713538
H87	H	-3.769349	0.053048	-0.708395
H88	H	-3.920069	0.112197	-0.594138
H89	H	-3.687593	0.116744	-0.588988
H90	H	-3.773608	-0.299689	-0.109125
H91	H	-3.837678	-0.444099	-0.108457
H92	H	-3.917418	0.006354	-0.737651
