data_functionalizedCrystal
_audit_creation_method	'MofGen! by Chris Wilmer'
_symmetry_space_group_name_H-M	'P1'
_symmetry_Int_Tables_number	1
_symmetry_cell_setting	triclinic
loop_
_symmetry_equiv_pos_as_xyz
  x,y,z
_cell_length_a	13.330367
_cell_length_b	19.288864
_cell_length_c	19.288853
_cell_angle_alpha	83.134502
_cell_angle_beta	89.984882
_cell_angle_gamma	89.978603
loop_
_atom_site_label
_atom_site_type_symbol
_atom_site_fract_x
_atom_site_fract_y
_atom_site_fract_z
O1	O	0.083768	-0.921349	-0.086648
O2	O	0.417101	-0.588015	0.246686
O3	O	0.750435	-0.254682	0.580019
O4	O	0.083703	-0.719088	-0.098336
O5	O	0.417036	-0.385754	0.234997
O6	O	0.750369	-0.052421	0.568330
O7	O	0.083704	-0.826066	0.008639
O8	O	0.417037	-0.492732	0.341972
O9	O	0.750371	-0.159399	0.675305
O10	O	0.083767	-0.814371	-0.193623
O11	O	0.417100	-0.481037	0.139711
O12	O	0.750433	-0.147704	0.473044
O13	O	-0.083143	-0.826050	0.008641
O14	O	0.250190	-0.492717	0.341974
O15	O	0.583524	-0.159384	0.675308
O16	O	-0.083145	-0.719072	-0.098334
O17	O	0.250189	-0.385739	0.234999
O18	O	0.583522	-0.052406	0.568333
O19	O	-0.083079	-0.921333	-0.086645
O20	O	0.250254	-0.588000	0.246688
O21	O	0.583588	-0.254667	0.580021
Cu22	Cu	-0.098346	-0.820201	-0.092489
Cu23	Cu	0.234987	-0.486868	0.240844
Cu24	Cu	0.568320	-0.153535	0.574177
Cu25	Cu	0.098970	-0.820220	-0.092492
Cu26	Cu	0.432303	-0.486886	0.240841
Cu27	Cu	0.765636	-0.153553	0.574174
O28	O	-0.083081	-0.814355	-0.193620
O29	O	0.250253	-0.481022	0.139713
O30	O	0.583586	-0.147689	0.473046
C31	C	0.000270	-0.693204	-0.097959
C32	C	0.333603	-0.359870	0.235374
C33	C	0.666937	-0.026537	0.568708
C34	C	0.000243	-0.616100	-0.096830
C35	C	0.333577	-0.282767	0.236503
C36	C	0.666910	0.050567	0.569837
N37	N	-0.237128	-0.820194	-0.092487
N38	N	0.096206	-0.486860	0.240846
N39	N	0.429539	-0.153527	0.574180
C40	C	0.000274	-0.825683	0.034517
C41	C	0.333607	-0.492349	0.367850
C42	C	0.666941	-0.159016	0.701183
C43	C	0.000255	-0.824556	0.111620
C44	C	0.333588	-0.491223	0.444954
C45	C	0.666921	-0.157889	0.778287
C46	C	-0.709751	-0.772848	-0.139842
C47	C	-0.376418	-0.439515	0.193491
C48	C	-0.043085	-0.106181	0.526824
C49	C	-0.709718	-0.867610	-0.045137
C50	C	-0.376385	-0.534277	0.288197
C51	C	-0.043051	-0.200944	0.621530
C52	C	-0.604700	-0.867602	-0.045134
C53	C	-0.271366	-0.534269	0.288199
C54	C	0.061967	-0.200936	0.621532
C55	C	-0.552202	-0.820217	-0.092488
C56	C	-0.218869	-0.486884	0.240846
C57	C	0.114464	-0.153551	0.574179
C58	C	-0.604723	-0.772840	-0.139843
C59	C	-0.271390	-0.439507	0.193490
C60	C	0.061943	-0.106173	0.526824
C61	C	-0.552171	-0.914984	0.002215
C62	C	-0.218838	-0.581650	0.335549
C63	C	0.114496	-0.248317	0.668882
C64	C	-0.447146	-0.914978	0.002219
C65	C	-0.113813	-0.581645	0.335552
C66	C	0.219521	-0.248311	0.668885
C67	C	-0.394647	-0.867589	-0.045132
C68	C	-0.061313	-0.534256	0.288202
C69	C	0.272020	-0.200922	0.621535
C70	C	-0.447174	-0.820209	-0.092488
C71	C	-0.113841	-0.486876	0.240845
C72	C	0.219492	-0.153543	0.574178
C73	C	-0.394677	-0.772824	-0.139842
C74	C	-0.061343	-0.439491	0.193492
C75	C	0.271990	-0.106158	0.526825
C76	C	-0.447202	-0.725441	-0.187196
C77	C	-0.113869	-0.392107	0.146138
C78	C	0.219464	-0.058774	0.479471
C79	C	-0.552224	-0.725451	-0.187193
C80	C	-0.218891	-0.392118	0.146140
C81	C	0.114443	-0.058784	0.479473
C82	C	-0.289625	-0.867579	-0.045134
C83	C	0.043708	-0.534245	0.288199
C84	C	0.377041	-0.200912	0.621533
C85	C	-0.289649	-0.772816	-0.139842
C86	C	0.043685	-0.439483	0.193491
C87	C	0.377018	-0.106150	0.526824
N88	N	0.237751	-0.820233	-0.092489
N89	N	0.571085	-0.486900	0.240844
N90	N	0.904418	-0.153566	0.574178
C91	C	0.000356	-0.947217	-0.087023
C92	C	0.333689	-0.613884	0.246311
C93	C	0.667022	-0.280551	0.579644
C94	C	0.000389	-1.024321	-0.088152
C95	C	0.333722	-0.690988	0.245182
C96	C	0.667055	-0.357654	0.578515
C97	C	0.000279	-0.571402	-0.159598
C98	C	0.333612	-0.238069	0.173735
C99	C	0.666945	0.095265	0.507068
C100	C	0.000289	-0.498955	-0.158538
C101	C	0.333623	-0.165621	0.174796
C102	C	0.666956	0.167712	0.508129
C103	C	0.000285	-0.471209	-0.094705
C104	C	0.333618	-0.137876	0.238628
C105	C	0.666952	0.195457	0.571962
C106	C	0.000244	-0.515917	-0.031929
C107	C	0.333578	-0.182584	0.301405
C108	C	0.666911	0.150749	0.634738
C109	C	0.000223	-0.588363	-0.032991
C110	C	0.333557	-0.255029	0.300342
C111	C	0.666890	0.078304	0.633675
C112	C	0.058757	-0.362954	-0.044527
C113	C	0.392091	-0.029621	0.288807
C114	C	0.725424	0.303712	0.622140
C115	C	0.058784	-0.290510	-0.043467
C116	C	0.392118	0.042824	0.289867
C117	C	0.725451	0.376157	0.623200
C118	C	0.000345	-0.247764	-0.091425
C119	C	0.333678	0.085570	0.241908
C120	C	0.667011	0.418903	0.575241
C121	C	-0.058109	-0.277470	-0.140456
C122	C	0.275225	0.055864	0.192877
C123	C	0.608558	0.389197	0.526211
C124	C	-0.058130	-0.349915	-0.141518
C125	C	0.275204	-0.016582	0.191815
C126	C	0.608537	0.316752	0.525148
C127	C	0.000307	-0.392655	-0.093546
C128	C	0.333640	-0.059322	0.239787
C129	C	0.666974	0.274011	0.573121
C130	C	0.000390	-0.124510	-0.153048
C131	C	0.333724	0.208824	0.180285
C132	C	0.667057	0.542157	0.513619
C133	C	0.000395	-0.052062	-0.151985
C134	C	0.333728	0.281272	0.181349
C135	C	0.667062	0.614605	0.514682
C136	C	0.000360	-0.069026	-0.025374
C137	C	0.333693	0.264308	0.307959
C138	C	0.667026	0.597641	0.641293
C139	C	0.000345	-0.141472	-0.026439
C140	C	0.333678	0.191861	0.306894
C141	C	0.667012	0.525195	0.640228
C142	C	0.000365	-0.169209	-0.090278
C143	C	0.333698	0.164124	0.243055
C144	C	0.667032	0.497457	0.576389
C145	C	0.000147	-0.879704	0.675662
C146	C	0.333480	-0.546371	1.008995
C147	C	0.666813	-0.213037	1.342329
C148	C	0.000158	-0.880769	0.603215
C149	C	0.333491	-0.547436	0.936549
C150	C	0.666825	-0.214102	1.269882
C151	C	0.000149	-0.817999	0.558508
C152	C	0.333482	-0.484666	0.891842
C153	C	0.666816	-0.151333	1.225175
C154	C	0.000103	-0.754160	0.586254
C155	C	0.333437	-0.420827	0.919587
C156	C	0.666770	-0.087493	1.252920
C157	C	0.000082	-0.753097	0.658699
C158	C	0.333416	-0.419764	0.992032
C159	C	0.666749	-0.086431	1.325366
C160	C	0.058618	-0.771191	0.437234
C161	C	0.391951	-0.437857	0.770567
C162	C	0.725285	-0.104524	1.103900
C163	C	0.058645	-0.772256	0.364790
C164	C	0.391979	-0.438923	0.698123
C165	C	0.725312	-0.105589	1.031457
C166	C	0.000210	-0.821275	0.335062
C167	C	0.333543	-0.487942	0.668396
C168	C	0.666876	-0.154608	1.001729
C169	C	-0.058240	-0.869240	0.377789
C170	C	0.275093	-0.535906	0.711122
C171	C	0.608426	-0.202573	1.044455
C172	C	-0.058262	-0.868177	0.450234
C173	C	0.275072	-0.534844	0.783568
C174	C	0.608405	-0.201510	1.116901
C175	C	0.000171	-0.819145	0.479953
C176	C	0.333505	-0.485811	0.813286
C177	C	0.666838	-0.152478	1.146619
C178	C	0.000260	-0.886264	0.228771
C179	C	0.333593	-0.552931	0.562104
C180	C	0.666927	-0.219598	0.895437
C181	C	0.000265	-0.887326	0.156322
C182	C	0.333598	-0.553993	0.489656
C183	C	0.666932	-0.220660	0.822989
C184	C	0.000221	-0.760716	0.139362
C185	C	0.333554	-0.427382	0.472695
C186	C	0.666887	-0.094049	0.806028
C187	C	0.000206	-0.759656	0.211809
C188	C	0.333539	-0.426322	0.545142
C189	C	0.666872	-0.092989	0.878475
C190	C	0.000230	-0.822432	0.256509
C191	C	0.333564	-0.489099	0.589843
C192	C	0.666897	-0.155765	0.923176
C193	C	0.000284	-0.814741	0.780502
C194	C	0.333617	-0.481407	1.113836
C195	C	0.666950	-0.148074	1.447169
C196	C	0.000107	-0.815873	0.703399
C197	C	0.333440	-0.482540	1.036733
C198	C	0.666774	-0.149207	1.370066
H199	H	-0.246912	-0.734227	-0.178401
H200	H	0.086422	-0.400894	0.154933
H201	H	0.419755	-0.067560	0.488266
F202	F	-0.391320	-0.675015	-0.237595
F203	F	-0.057986	-0.341682	0.095739
F204	F	0.275347	-0.008349	0.429072
H205	H	-0.105855	-0.907230	0.485019
H206	H	0.227478	-0.573897	0.818353
H207	H	0.560811	-0.240564	1.151686
F208	F	-0.608129	-0.675027	-0.237588
F209	F	-0.274796	-0.341694	0.095745
F210	F	0.058538	-0.008360	0.429078
H211	H	-0.752520	-0.734267	-0.178395
H212	H	-0.419187	-0.400934	0.154938
H213	H	-0.085854	-0.067600	0.488271
H214	H	0.000279	-0.937381	0.265168
H215	H	0.333613	-0.604047	0.598501
H216	H	0.666946	-0.270714	0.931834
F217	F	0.120812	-0.719011	0.468864
F218	F	0.454145	-0.385678	0.802197
F219	F	0.787479	-0.052345	1.135530
F220	F	0.000090	-0.687356	0.538673
F221	F	0.333423	-0.354023	0.872006
F222	F	0.666757	-0.020690	1.205339
H223	H	-0.752465	-0.906193	-0.006586
H224	H	-0.419131	-0.572860	0.326747
H225	H	-0.085798	-0.239527	0.660080
H226	H	0.000161	-0.930822	0.712053
H227	H	0.333495	-0.597488	1.045386
H228	H	0.666828	-0.264155	1.378720
F229	F	0.000324	-0.451375	-0.225347
F230	F	0.333658	-0.118042	0.107987
F231	F	0.666991	0.215292	0.441320
H232	H	-0.594918	-0.953567	0.040766
H233	H	-0.261584	-0.620233	0.374099
H234	H	0.071749	-0.286900	0.707432
F235	F	-0.120309	-0.231982	-0.191502
F236	F	0.213025	0.101352	0.141832
F237	F	0.546358	0.434685	0.475165
H238	H	0.000392	-0.147094	-0.205029
H239	H	0.333725	0.186239	0.128304
H240	H	0.667059	0.519572	0.461637
F241	F	0.000427	-0.004490	-0.218795
F242	F	0.333760	0.328844	0.114538
F243	F	0.667094	0.662177	0.447872
H244	H	-0.404386	-0.953559	0.040777
H245	H	-0.071053	-0.620226	0.374110
H246	H	0.262280	-0.286893	0.707444
F247	F	-0.233730	-0.918008	0.005256
F248	F	0.099603	-0.584675	0.338590
F249	F	0.432937	-0.251342	0.671923
H250	H	-0.105728	-0.374099	-0.181438
H251	H	0.227606	-0.040765	0.151895
H252	H	0.560939	0.292568	0.485228
F253	F	0.000297	-0.600918	-0.227542
F254	F	0.333630	-0.267584	0.105792
F255	F	0.666964	0.065749	0.439125
H256	H	0.000418	-0.046436	0.026600
H257	H	0.333752	0.286897	0.359933
H258	H	0.667085	0.620231	0.693266
H259	H	0.106385	-0.266329	-0.003546
H260	H	0.439718	0.067004	0.329787
H261	H	0.773051	0.400338	0.663121
F262	F	0.120861	-0.721213	0.319325
F263	F	0.454194	-0.387880	0.652658
F264	F	0.787527	-0.054547	0.985991
H265	H	0.000322	-0.177867	0.024674
H266	H	0.333655	0.155467	0.358007
H267	H	0.666989	0.488800	0.691340
F268	F	0.120960	-0.408442	0.006522
F269	F	0.454293	-0.075108	0.339855
F270	F	0.787627	0.258225	0.673188
H271	H	0.000255	-0.493322	0.020044
H272	H	0.333588	-0.159989	0.353377
H273	H	0.666921	0.173344	0.686711
H274	H	0.000195	-0.624757	0.018124
H275	H	0.333529	-0.291423	0.351457
H276	H	0.666862	0.041910	0.684791
H277	H	0.000190	-0.932749	0.580627
H278	H	0.333523	-0.599416	0.913960
H279	H	0.666857	-0.266082	1.247294
H280	H	-0.105832	-0.909151	0.353586
H281	H	0.227501	-0.575818	0.686920
H282	H	0.560835	-0.242484	1.020253
F283	F	0.000200	-0.693911	0.091786
F284	F	0.333533	-0.360578	0.425119
F285	F	0.666867	-0.027244	0.758453
H286	H	0.000291	-0.939307	0.133741
H287	H	0.333624	-0.605974	0.467074
H288	H	0.666958	-0.272640	0.800408
H289	H	0.000180	-0.707678	0.234392
H290	H	0.333514	-0.374344	0.567725
H291	H	0.666847	-0.041011	0.901059
F292	F	0.000041	-0.685157	0.688219
F293	F	0.333374	-0.351823	1.021553
F294	F	0.666707	-0.018490	1.354886
