data_functionalizedCrystal
_audit_creation_method	'MofGen! by Chris Wilmer'
_symmetry_space_group_name_H-M	'P1'
_symmetry_Int_Tables_number	1
_symmetry_cell_setting	triclinic
loop_
_symmetry_equiv_pos_as_xyz
  x,y,z
_cell_length_a	19.288840
_cell_length_b	19.188925
_cell_length_c	17.766277
_cell_angle_alpha	89.993978
_cell_angle_beta	89.983415
_cell_angle_gamma	83.134282
loop_
_atom_site_label
_atom_site_type_symbol
_atom_site_fract_x
_atom_site_fract_y
_atom_site_fract_z
O1	O	0.921369	0.087016	-0.062719
O2	O	1.254702	0.420349	0.270614
O3	O	1.588036	0.753683	0.603947
O4	O	0.719106	0.098784	-0.062693
O5	O	1.052440	0.432117	0.270640
O6	O	1.385773	0.765451	0.603973
O7	O	0.826077	-0.008757	-0.062703
O8	O	1.159410	0.324577	0.270631
O9	O	1.492743	0.657910	0.603964
O10	O	0.814399	0.194557	-0.062710
O11	O	1.147732	0.527890	0.270624
O12	O	1.481066	0.861224	0.603957
O13	O	0.826058	-0.008762	0.062486
O14	O	1.159391	0.324571	0.395819
O15	O	1.492724	0.657904	0.729152
O16	O	0.719088	0.098779	0.062495
O17	O	1.052421	0.432112	0.395829
O18	O	1.385754	0.765445	0.729162
O19	O	0.921350	0.087011	0.062469
O20	O	1.254684	0.420344	0.395802
O21	O	1.588017	0.753677	0.729136
Cu22	Cu	0.820217	0.092894	0.073913
Cu23	Cu	1.153551	0.426227	0.407246
Cu24	Cu	1.486884	0.759561	0.740580
Cu25	Cu	0.820239	0.092901	-0.074137
Cu26	Cu	1.153573	0.426234	0.259196
Cu27	Cu	1.486906	0.759567	0.592530
O28	O	0.814380	0.194552	0.062479
O29	O	1.147713	0.527885	0.395812
O30	O	1.481047	0.861218	0.729145
C31	C	0.693220	0.098406	-0.000096
C32	C	1.026554	0.431739	0.333238
C33	C	1.359887	0.765072	0.666571
C34	C	0.616116	0.097278	-0.000086
C35	C	0.949449	0.430611	0.333248
C36	C	1.282782	0.763944	0.666581
C37	C	0.579922	0.096739	-0.068328
C38	C	0.913256	0.430072	0.265006
C39	C	1.246589	0.763405	0.598339
C40	C	0.507475	0.095671	-0.068337
C41	C	0.840809	0.429005	0.264996
C42	C	1.174142	0.762338	0.598330
C43	C	0.471226	0.095128	-0.000100
C44	C	0.804560	0.428462	0.333233
C45	C	1.137893	0.761795	0.666567
C46	C	0.507428	0.095671	0.068151
C47	C	0.840761	0.429005	0.401485
C48	C	1.174095	0.762338	0.734818
C49	C	0.579873	0.096746	0.068158
C50	C	0.913206	0.430079	0.401492
C51	C	1.246539	0.763413	0.734825
C52	C	0.361889	0.052528	0.052170
C53	C	0.695222	0.385861	0.385503
C54	C	1.028555	0.719195	0.718837
C55	C	0.289446	0.051449	0.052160
C56	C	0.622779	0.384782	0.385493
C57	C	0.956113	0.718116	0.718827
C58	C	0.247783	0.091817	-0.000120
C59	C	0.581116	0.425151	0.333214
C60	C	0.914449	0.758484	0.666547
C61	C	0.278572	0.133255	-0.052402
C62	C	0.611906	0.466589	0.280932
C63	C	0.945239	0.799922	0.614265
C64	C	0.351017	0.134330	-0.052394
C65	C	0.684350	0.467663	0.280939
C66	C	1.017684	0.800997	0.614272
C67	C	0.392672	0.093964	-0.000100
C68	C	0.726006	0.427297	0.333233
C69	C	1.059339	0.760630	0.666566
C70	C	0.133034	0.090122	-0.068376
C71	C	0.466367	0.423455	0.264957
C72	C	0.799701	0.756788	0.598290
C73	C	0.060585	0.089059	-0.068383
C74	C	0.393918	0.422392	0.264951
C75	C	0.727252	0.755725	0.598284
C76	C	0.060540	0.089052	0.068107
C77	C	0.393873	0.422385	0.401441
C78	C	0.727207	0.755718	0.734774
C79	C	0.132987	0.090122	0.068112
C80	C	0.466320	0.423455	0.401445
C81	C	0.799653	0.756789	0.734778
C82	C	0.169230	0.090654	-0.000132
C83	C	0.502563	0.423987	0.333201
C84	C	0.835896	0.757320	0.666534
C85	C	0.825690	-0.034771	-0.000109
C86	C	1.159023	0.298563	0.333224
C87	C	1.492356	0.631896	0.666558
C88	C	0.824556	-0.112275	-0.000110
C89	C	1.157890	0.221058	0.333223
C90	C	1.491223	0.554392	0.666556
C91	C	0.879734	-0.674054	-0.000137
C92	C	1.213067	-0.340721	0.333197
C93	C	1.546401	-0.007388	0.666530
C94	C	0.880805	-0.601231	-0.000130
C95	C	1.214138	-0.267898	0.333204
C96	C	1.547472	0.065435	0.666537
C97	C	0.818039	-0.556287	-0.000122
C98	C	1.151372	-0.222953	0.333211
C99	C	1.484705	0.110380	0.666545
C100	C	0.754196	-0.584170	-0.000101
C101	C	1.087530	-0.250837	0.333232
C102	C	1.420863	0.082497	0.666565
C103	C	0.753127	-0.656992	-0.000101
C104	C	1.086460	-0.323659	0.333233
C105	C	1.419794	0.009675	0.666566
N106	N	0.772604	-0.435597	-0.042727
N107	N	1.105938	-0.102263	0.290606
N108	N	1.439271	0.231070	0.623940
N109	N	0.773624	-0.366420	-0.042729
N110	N	1.106958	-0.033086	0.290604
N111	N	1.440291	0.300247	0.623937
C112	C	0.821256	-0.336878	-0.000123
C113	C	1.154589	-0.003545	0.333210
C114	C	1.487923	0.329789	0.666544
N115	N	0.867840	-0.379128	0.042477
N116	N	1.201173	-0.045795	0.375810
N117	N	1.534506	0.287538	0.709143
N118	N	0.866822	-0.448312	0.042476
N119	N	1.200155	-0.114979	0.375809
N120	N	1.533488	0.218355	0.709142
C121	C	0.819191	-0.477323	-0.000122
C122	C	1.152524	-0.143989	0.333211
C123	C	1.485857	0.189344	0.666544
C124	C	0.886255	-0.230040	-0.000131
C125	C	1.219589	0.103294	0.333203
C126	C	1.552922	0.436627	0.666536
C127	C	0.887324	-0.157215	-0.000119
C128	C	1.220657	0.176118	0.333214
C129	C	1.553990	0.509452	0.666547
C130	C	0.760713	-0.140155	-0.000099
C131	C	1.094046	0.193179	0.333235
C132	C	1.427380	0.526512	0.666568
C133	C	0.759646	-0.212978	-0.000102
C134	C	1.092980	0.120355	0.333231
C135	C	1.426313	0.453688	0.666564
C136	C	0.822420	-0.257917	-0.000122
C137	C	1.155753	0.075417	0.333211
C138	C	1.489086	0.408750	0.666545
C139	C	0.947236	0.087389	-0.000130
C140	C	1.280570	0.420722	0.333203
C141	C	1.613903	0.754056	0.666537
C142	C	1.024341	0.088517	-0.000145
C143	C	1.357674	0.421850	0.333188
C144	C	1.691008	0.755184	0.666522
C145	C	0.814767	0.220565	-0.000117
C146	C	1.148100	0.553899	0.333217
C147	C	1.481434	0.887232	0.666550
C148	C	0.815900	0.298070	-0.000120
C149	C	1.149234	0.631403	0.333213
C150	C	1.482567	0.964736	0.666546
N151	N	0.820207	0.092889	0.178043
N152	N	1.153540	0.426223	0.511377
N153	N	1.486873	0.759556	0.844710
N154	N	0.820255	0.092900	-0.178267
N155	N	1.153589	0.426233	0.155066
N156	N	1.486922	0.759567	0.488399
C157	C	0.867588	0.045293	0.217426
C158	C	1.200922	0.378627	0.550759
C159	C	1.534255	0.711960	0.884093
C160	C	0.867592	0.045290	0.296228
C161	C	1.200926	0.378623	0.629561
C162	C	1.534259	0.711957	0.962894
C163	C	0.820221	0.092895	0.335644
C164	C	1.153555	0.426228	0.668977
C165	C	1.486888	0.759561	1.002311
C166	C	0.772831	0.140494	0.296252
C167	C	1.106164	0.473827	0.629585
C168	C	1.439498	0.807161	0.962918
C169	C	0.772824	0.140491	0.217451
C170	C	1.106157	0.473825	0.550785
C171	C	1.439490	0.807158	0.884118
C172	C	0.810926	0.156512	0.460480
C173	C	1.144259	0.489846	0.793814
C174	C	1.477593	0.823179	1.127147
C175	C	0.810938	0.156516	0.539279
C176	C	1.144271	0.489849	0.872613
C177	C	1.477605	0.823183	1.205946
C178	C	0.820240	0.092903	0.578690
C179	C	1.153573	0.426236	0.912024
C180	C	1.486907	0.759570	1.245357
C181	C	0.829544	0.029284	0.539293
C182	C	1.162878	0.362617	0.872626
C183	C	1.496211	0.695950	1.205959
C184	C	0.829537	0.029281	0.460492
C185	C	1.162870	0.362614	0.793826
C186	C	1.496204	0.695948	1.127159
C187	C	0.820224	0.092903	0.421090
C188	C	1.153557	0.426236	0.754423
C189	C	1.486890	0.759569	1.087756
C190	C	0.867628	0.045300	0.703519
C191	C	1.200962	0.378633	1.036852
C192	C	1.534295	0.711967	1.370185
C193	C	0.867628	0.045296	0.782322
C194	C	1.200961	0.378629	1.115655
C195	C	1.534294	0.711962	1.448989
C196	C	0.772870	0.140506	0.782344
C197	C	1.106203	0.473839	1.115678
C198	C	1.439536	0.807172	1.449011
C199	C	0.772867	0.140504	0.703543
C200	C	1.106200	0.473837	1.036876
C201	C	1.439534	0.807171	1.370209
C202	C	0.820250	0.092902	0.664135
C203	C	1.153584	0.426235	0.997468
C204	C	1.486917	0.759568	1.330801
H205	H	0.162544	0.090562	-0.123945
H206	H	0.495877	0.423895	0.209389
H207	H	0.829210	0.757229	0.542722
Br208	Br	0.931931	-0.019305	0.650034
Br209	Br	1.265264	0.314029	0.983368
Br210	Br	1.598598	0.647362	1.316701
H211	H	0.906169	0.006531	0.185342
H212	H	1.239502	0.339865	0.518675
H213	H	1.572835	0.673198	0.852009
Br214	Br	0.182110	0.090851	0.160731
Br215	Br	0.515443	0.424185	0.494065
Br216	Br	0.848777	0.757518	0.827398
H217	H	0.707666	-0.235674	-0.000095
H218	H	1.040999	0.097659	0.333239
H219	H	1.374333	0.430992	0.666572
H220	H	0.734260	0.179253	0.328348
H221	H	1.067593	0.512587	0.661682
H222	H	1.400926	0.845920	0.995015
H223	H	0.906177	0.006530	0.328299
H224	H	1.239511	0.339864	0.661632
H225	H	1.572844	0.673197	0.994966
H226	H	0.734239	0.179250	0.185385
H227	H	1.067572	0.512584	0.518719
H228	H	1.400906	0.845917	0.852052
H229	H	0.930849	-0.710639	-0.000148
H230	H	1.264182	-0.377306	0.333185
H231	H	1.597516	-0.043973	0.666518
Br232	Br	0.666489	-0.694826	-0.000078
Br233	Br	0.999822	-0.361493	0.333255
Br234	Br	1.333155	-0.028159	0.666589
H235	H	0.734287	0.179264	0.671475
H236	H	1.067621	0.512597	1.004809
H237	H	1.400954	0.845930	1.338142
Br238	Br	0.458345	0.094941	-0.160958
Br239	Br	0.791678	0.428275	0.172376
Br240	Br	1.125011	0.761608	0.505709
Br241	Br	0.931930	-0.019310	0.835774
Br242	Br	1.265263	0.314024	1.169108
Br243	Br	1.598597	0.647357	1.502441
Br244	Br	0.011462	0.088336	-0.161006
Br245	Br	0.344796	0.421669	0.172328
Br246	Br	0.678129	0.755003	0.505661
Br247	Br	0.798319	0.242855	0.592739
Br248	Br	1.131652	0.576188	0.926073
Br249	Br	1.464985	0.909522	1.259406
H250	H	0.609427	0.097172	-0.123897
H251	H	0.942760	0.430505	0.209436
H252	H	1.276094	0.763838	0.542769
Br253	Br	0.392801	0.190566	-0.123342
Br254	Br	0.726135	0.523899	0.209991
Br255	Br	1.059468	0.857233	0.543324
Br256	Br	0.842157	-0.057055	0.407026
Br257	Br	1.175490	0.276279	0.740359
Br258	Br	1.508824	0.609612	1.073693
Br259	Br	0.675528	-0.079166	-0.000074
Br260	Br	1.008861	0.254167	0.333260
Br261	Br	1.342194	0.587501	0.666593
Br262	Br	0.973963	-0.119383	-0.000143
Br263	Br	1.307296	0.213951	0.333191
Br264	Br	1.640630	0.547284	0.666524
H265	H	0.937369	-0.266631	-0.000146
H266	H	1.270702	0.066703	0.333187
H267	H	1.604036	0.400036	0.666520
Br268	Br	0.669012	-0.523176	-0.000084
Br269	Br	1.002346	-0.189842	0.333250
Br270	Br	1.335679	0.143491	0.666583
H271	H	0.244651	0.166130	-0.094970
H272	H	0.577984	0.499463	0.238363
H273	H	0.911317	0.832797	0.571697
Br274	Br	0.011352	0.088326	0.160717
Br275	Br	0.344685	0.421659	0.494050
Br276	Br	0.678018	0.754992	0.827383
Br277	Br	0.708572	0.205105	0.835831
Br278	Br	1.041906	0.538439	1.169164
Br279	Br	1.375239	0.871772	1.502498
H280	H	0.264383	0.017704	0.094727
H281	H	0.597717	0.351038	0.428061
H282	H	0.931050	0.684371	0.761394
Br283	Br	0.842178	-0.057055	0.592768
Br284	Br	1.175511	0.276279	0.926102
Br285	Br	1.508844	0.609612	1.259435
Br286	Br	0.798371	0.242854	0.407002
Br287	Br	1.131704	0.576188	0.740335
Br288	Br	1.465038	0.909521	1.073669
H289	H	0.477909	0.095231	0.123710
H290	H	0.811243	0.428565	0.457043
H291	H	1.144576	0.761898	0.790377
Br292	Br	0.418424	-0.002259	0.123130
Br293	Br	0.751758	0.331074	0.456463
Br294	Br	1.085091	0.664407	0.789797
H295	H	0.609341	0.097185	0.123731
H296	H	0.942674	0.430519	0.457064
H297	H	1.276008	0.763852	0.790398
H298	H	0.932788	-0.578530	-0.000143
H299	H	1.266121	-0.245197	0.333190
H300	H	1.599455	0.088136	0.666524
