data_functionalizedCrystal
_audit_creation_method	'MofGen! by Chris Wilmer'
_symmetry_space_group_name_H-M	'P1'
_symmetry_Int_Tables_number	1
_symmetry_cell_setting	triclinic
loop_
_symmetry_equiv_pos_as_xyz
  x,y,z
_cell_length_a	19.188933
_cell_length_b	17.666332
_cell_length_c	19.288865
_cell_angle_alpha	90.011714
_cell_angle_beta	83.140908
_cell_angle_gamma	90.007939
loop_
_atom_site_label
_atom_site_type_symbol
_atom_site_fract_x
_atom_site_fract_y
_atom_site_fract_z
O1	O	0.926142	0.062932	0.086724
O2	O	0.722830	0.062940	0.098397
O3	O	0.830361	0.062921	-0.008569
O4	O	0.818611	0.062951	0.193690
O5	O	0.830342	-0.062976	-0.008575
O6	O	0.722811	-0.062957	0.098391
O7	O	0.926123	-0.062965	0.086719
Cu8	Cu	0.824466	-0.074456	0.092554
Cu9	Cu	0.824488	0.074431	0.092561
O10	O	0.818593	-0.062946	0.193685
C11	C	0.696810	-0.000008	0.098015
C12	C	0.619305	-0.000005	0.096880
N13	N	0.824455	-0.179176	0.092549
C14	C	0.066061	0.068612	0.088780
C15	C	0.138885	0.068615	0.089843
C16	C	0.175292	-0.000011	0.090374
C17	C	0.138871	-0.068645	0.089825
C18	C	0.066049	-0.068646	0.088756
N19	N	0.284301	-0.051086	0.131576
N20	N	0.353479	-0.051081	0.132594
C21	C	0.394700	-0.000012	0.093595
N22	N	0.364130	0.051063	0.053550
N23	N	0.294945	0.051059	0.052535
C24	C	0.254255	-0.000017	0.091534
C25	C	0.510077	0.068621	0.095292
C26	C	0.582904	0.068622	0.096350
C27	C	0.582887	-0.068641	0.096339
C28	C	0.510063	-0.068639	0.095274
C29	C	0.473662	-0.000006	0.094754
C30	C	0.872085	-0.218794	0.045208
C31	C	0.872089	-0.298042	0.045204
C32	C	0.824470	-0.337668	0.092554
C33	C	0.776831	-0.298040	0.139899
C34	C	0.776824	-0.218794	0.139897
N35	N	0.815389	-0.462077	0.154042
N36	N	0.815400	-0.537357	0.154042
C37	C	0.824488	-0.576432	0.092564
N38	N	0.833578	-0.537382	0.031084
N39	N	0.833571	-0.462094	0.031084
C40	C	0.824472	-0.423597	0.092562
C41	C	0.872125	-0.701979	0.045215
C42	C	0.872124	-0.781229	0.045211
C43	C	0.776870	-0.781225	0.139912
C44	C	0.776867	-0.701978	0.139910
C45	C	0.824499	-0.662360	0.092563
C46	C	0.952144	-0.000016	0.087100
C47	C	1.029648	-0.000013	0.088235
C48	C	0.829973	-0.000030	-0.034449
C49	C	0.828839	-0.000037	-0.111552
N50	N	0.824504	0.179151	0.092561
C51	C	0.891933	-0.000043	-0.156244
C52	C	0.890867	-0.000031	-0.228691
C53	C	0.826703	-0.000028	-0.256443
C54	C	0.763600	-0.000017	-0.211742
C55	C	0.764668	-0.000022	-0.139297
C56	C	0.776256	-0.044125	-0.364737
C57	C	0.775190	-0.044125	-0.437182
C58	C	0.823406	-0.000011	-0.479889
C59	C	0.872699	0.044094	-0.450145
C60	C	0.873767	0.044090	-0.377700
C61	C	0.825537	-0.000022	-0.334998
C62	C	0.885348	-0.000003	-0.603137
C63	C	0.884279	0.000014	-0.675585
C64	C	0.757011	0.000020	-0.658635
C65	C	0.758082	0.000011	-0.586188
C66	C	0.822252	-0.000004	-0.558444
C67	C	0.818980	0.000007	0.219564
C68	C	0.820115	0.000018	0.296668
H69	H	0.036428	0.124498	0.088353
H70	H	0.913901	0.080002	-0.353485
O71	O	0.722026	-0.091694	-0.469257
H72	H	0.749781	-0.133122	-0.506027
H73	H	0.480439	0.124507	0.094866
H74	H	0.612550	0.124507	0.096788
O75	O	0.622142	-0.142662	0.096915
H76	H	0.678897	-0.131134	0.097754
H77	H	0.711357	-0.000013	-0.234343
O78	O	0.952337	0.000010	-0.723788
H79	H	0.940816	0.000025	-0.778826
H80	H	0.738085	-0.669718	0.178463
O81	O	0.724249	-0.091714	-0.318680
H82	H	0.733269	-0.084305	-0.263307
H83	H	0.910868	-0.186539	0.006653
O84	O	0.961142	-0.000038	-0.126317
H85	H	1.004836	-0.000029	-0.169570
O86	O	0.725482	-0.340779	0.190981
H87	H	0.692360	-0.299912	0.223902
O88	O	0.923476	-0.659229	-0.005860
H89	H	0.977881	-0.674416	0.002840
H90	H	0.480415	-0.124521	0.094833
O91	O	0.687806	0.000022	-0.688562
H92	H	0.644110	0.000027	-0.645310
H93	H	0.168518	-0.124521	0.090257
H94	H	0.942247	-0.000033	-0.265085
O95	O	0.923470	-0.340788	-0.005851
H96	H	0.956593	-0.299925	-0.038771
O97	O	0.696614	-0.000028	-0.091087
H98	H	0.651816	-0.000029	-0.122553
H99	H	0.706704	0.000012	-0.549800
H100	H	0.911960	0.080016	-0.484917
H101	H	0.738037	-0.186536	0.178449
O102	O	0.923506	-0.823966	-0.005845
H103	H	0.956631	-0.783100	-0.038760
O104	O	0.725510	-0.823942	0.190997
H105	H	0.691668	-0.860070	0.161856
O106	O	0.178172	0.142634	0.090439
H107	H	0.140625	0.190358	0.089902
O108	O	0.026680	-0.142616	0.088232
H109	H	0.046944	-0.175608	0.041126
O110	O	0.954556	-0.000004	-0.573203
H111	H	0.998252	0.000008	-0.616454
