data_functionalizedCrystal
_audit_creation_method	'MofGen! by Chris Wilmer'
_symmetry_space_group_name_H-M	'P1'
_symmetry_Int_Tables_number	1
_symmetry_cell_setting	triclinic
loop_
_symmetry_equiv_pos_as_xyz
  x,y,z
_cell_length_a	10.540539
_cell_length_b	9.616153
_cell_length_c	10.540539
_cell_angle_alpha	90.003639
_cell_angle_beta	84.525492
_cell_angle_gamma	90.000753
loop_
_atom_site_label
_atom_site_type_symbol
_atom_site_fract_x
_atom_site_fract_y
_atom_site_fract_z
O1	O	1.685884	0.115573	0.178903
O2	O	1.316471	0.115589	0.195759
O3	O	1.509605	0.115579	0.002624
O4	O	1.492750	0.115583	0.372037
O5	O	1.509595	-0.115712	0.002613
O6	O	1.316461	-0.115702	0.195748
O7	O	1.685874	-0.115718	0.178892
Zn8	Zn	1.501166	-0.152433	0.187318
Zn9	Zn	1.501179	0.152304	0.187332
O10	O	1.492739	-0.115708	0.372027
C11	C	1.269163	-0.000054	0.194489
C12	C	1.128215	-0.000048	0.190707
N13	N	1.501166	-0.360407	0.187308
C14	C	1.508336	-0.000064	-0.044684
C15	C	1.504554	-0.000056	-0.185632
C16	C	0.944788	-0.000589	0.045790
C17	C	1.091406	-0.000054	0.049624
C18	C	1.066548	0.132027	0.258609
C19	C	0.920004	0.132123	0.253794
C20	C	0.919503	-0.130899	0.256652
C21	C	1.066485	-0.132630	0.257951
C22	C	1.733182	-0.000072	0.180161
C23	C	1.874130	-0.000069	0.183943
C24	C	1.604537	-0.419411	0.084006
C25	C	1.604923	-0.580579	0.084293
C26	C	1.530767	-0.581187	0.320209
C27	C	1.531497	-0.419969	0.319590
C28	C	1.367915	-0.419836	0.158926
C29	C	1.368794	-0.581064	0.155939
N30	N	1.501189	0.360278	0.187333
C31	C	1.359637	0.000469	-0.369059
C32	C	1.363471	-0.000052	-0.222441
C33	C	1.572444	-0.132138	-0.247296
C34	C	1.567629	-0.132249	-0.393840
C35	C	1.570510	0.130772	-0.394347
C36	C	1.571810	0.132518	-0.247365
C37	C	1.494008	-0.000062	0.419335
C38	C	1.497790	-0.000060	0.560283
H39	H	1.134016	-0.094731	-0.003803
C40	C	1.431812	-0.632924	0.426671
H41	H	1.451490	-0.596294	0.506179
H42	H	1.433616	-0.731625	0.429759
H43	H	1.349273	-0.602744	0.409760
C44	C	1.284649	-0.126768	-0.409853
H45	H	1.337170	-0.180214	-0.469756
H46	H	1.211238	-0.096399	-0.447728
H47	H	1.259297	-0.182207	-0.337237
H48	H	1.626864	-0.621558	0.345525
H49	H	1.525276	-0.230425	-0.204701
C50	C	1.121784	-0.264633	0.190932
H51	H	1.084064	-0.344481	0.232040
H52	H	1.211379	-0.267070	0.195144
H53	H	1.104004	-0.263791	0.104258
C54	C	1.147814	0.128072	-0.023032
H55	H	1.081106	0.180006	-0.054998
H56	H	1.206270	0.098627	-0.091968
H57	H	1.190848	0.184653	0.033062
C58	C	1.704688	-0.140387	-0.458655
H59	H	1.702676	-0.140506	-0.548572
H60	H	1.744016	-0.223377	-0.433137
H61	H	1.751921	-0.062285	-0.434251
C62	C	1.096754	0.138695	0.398568
H63	H	1.058564	0.219327	0.437814
H64	H	1.186438	0.142664	0.401794
H65	H	1.063873	0.058210	0.442448
H66	H	1.674670	0.140490	-0.223143
C67	C	1.737346	-0.364658	0.108380
H68	H	1.730071	-0.306003	0.181243
H69	H	1.772282	-0.313374	0.036322
H70	H	1.791612	-0.440816	0.122633
C71	C	1.662804	-0.369154	0.353010
H72	H	1.715201	-0.447040	0.366830
H73	H	1.652483	-0.314119	0.428129
H74	H	1.701750	-0.314976	0.284667
H75	H	1.703797	-0.619141	0.102611
H76	H	1.303910	0.095187	-0.397655
C77	C	1.433718	-0.367228	0.426682
H78	H	1.393733	-0.444336	0.470380
H79	H	1.371181	-0.312343	0.390946
H80	H	1.475936	-0.312488	0.484812
H81	H	1.288217	-0.621318	0.226179
C82	C	1.290808	-0.128174	-0.166031
H83	H	1.258839	-0.180114	-0.232738
H84	H	1.221874	-0.098726	-0.107573
H85	H	1.346901	-0.184748	-0.122997
H86	H	1.339650	-0.379189	0.064006
H87	H	1.587214	-0.620157	-0.014424
C88	C	1.099192	-0.143407	0.396910
H89	H	1.060685	-0.224399	0.435144
H90	H	1.068051	-0.063539	0.442919
H91	H	1.189025	-0.148949	0.398393
C92	C	1.338478	-0.632758	0.023887
H93	H	1.406213	-0.689857	-0.011972
H94	H	1.328853	-0.555292	-0.030286
H95	H	1.261672	-0.685052	0.032458
C96	C	1.712404	-0.138795	-0.217094
H97	H	1.730720	-0.060897	-0.166483
H98	H	1.766744	-0.137574	-0.294353
H99	H	1.726087	-0.222016	-0.171786
C100	C	1.124071	0.264814	0.194898
H101	H	1.185651	0.240048	0.126928
H102	H	1.163639	0.318255	0.255883
H103	H	1.058401	0.318047	0.162549
H104	H	1.517447	-0.230979	-0.422045
C105	C	1.504806	0.264524	-0.192055
H106	H	1.436134	0.238965	-0.131588
H107	H	1.473025	0.316387	-0.258894
H108	H	1.563924	0.319649	-0.151531
C109	C	1.708170	0.131981	-0.458141
H110	H	1.751633	0.211267	-0.430347
H111	H	1.706876	0.135373	-0.548077
H112	H	1.750935	0.050043	-0.435337
H113	H	0.916198	-0.095307	-0.009950
H114	H	1.524853	0.230881	-0.425895
H115	H	0.914585	0.093600	-0.009706
H116	H	0.891798	0.230849	0.203617
H117	H	0.887953	-0.231010	0.210989
C118	C	0.855195	0.140259	0.390855
H119	H	0.918463	0.143501	0.449229
H120	H	0.803020	0.060621	0.407903
H121	H	0.804139	0.221712	0.399993
H122	H	0.872276	-0.131790	0.358555
H123	H	1.587121	-0.380627	-0.015038
H124	H	1.290982	-0.381676	0.234240
H125	H	1.310051	0.094630	-0.179833
