data_functionalizedCrystal
_audit_creation_method	'MofGen! by Chris Wilmer'
_symmetry_space_group_name_H-M	'P1'
_symmetry_Int_Tables_number	1
_symmetry_cell_setting	triclinic
loop_
_symmetry_equiv_pos_as_xyz
  x,y,z
_cell_length_a	16.109302
_cell_length_b	23.532357
_cell_length_c	15.186229
_cell_angle_alpha	90.011330
_cell_angle_beta	90.002453
_cell_angle_gamma	83.145036
loop_
_atom_site_label
_atom_site_type_symbol
_atom_site_fract_x
_atom_site_fract_y
_atom_site_fract_z
O1	O	1.102532	0.073208	0.073279
O2	O	0.860396	0.082317	0.073273
O3	O	0.988787	-0.005144	0.073258
O4	O	0.974140	0.160669	0.073294
O5	O	0.988786	-0.005149	-0.073199
O6	O	0.860395	0.082312	-0.073184
O7	O	1.102531	0.073202	-0.073178
Zn8	Zn	0.981463	0.077756	-0.096434
Zn9	Zn	0.981464	0.077763	0.096529
O10	O	0.974140	0.160664	-0.073163
C11	C	0.829423	0.081946	0.000044
C12	C	0.737137	0.080839	0.000041
C13	C	0.524817	0.078278	-0.079785
C14	C	0.438105	0.077232	-0.079782
C15	C	0.438116	0.077240	0.079894
C16	C	0.524827	0.078282	0.079890
C17	C	0.568174	0.078804	0.000048
C18	C	0.394752	0.076716	0.000055
C19	C	0.300736	0.075582	0.000058
C20	C	0.662197	0.079937	0.000044
C21	C	0.988420	-0.026365	0.000027
C22	C	0.987319	-0.089587	0.000019
C23	C	0.980404	-0.481621	0.079900
C24	C	0.979357	-0.541025	0.079905
O25	O	0.978788	-0.571741	0.147800
N26	N	0.978838	-0.570741	0.000072
C27	C	0.979356	-0.541049	-0.079771
O28	O	0.978817	-0.571780	-0.147674
C29	C	0.980398	-0.481647	-0.079775
C30	C	0.980926	-0.451935	0.000063
C31	C	0.980932	-0.451909	0.159731
C32	C	0.981980	-0.392510	0.159726
C33	C	0.982501	-0.362823	0.079889
C34	C	0.981974	-0.392535	0.000058
C35	C	0.980910	-0.451956	-0.159617
C36	C	0.981951	-0.392549	-0.159614
C37	C	0.982479	-0.362837	-0.079776
C38	C	0.983544	-0.303450	-0.079785
N39	N	0.984064	-0.273734	0.000048
C40	C	0.983543	-0.303420	0.079885
C41	C	0.977169	-0.665799	-0.079756
C42	C	0.976134	-0.725201	-0.079753
C43	C	0.976133	-0.725172	0.079923
C44	C	0.977174	-0.665770	0.079919
C45	C	0.977688	-0.636083	0.000076
C46	C	0.985745	-0.178678	0.079868
C47	C	0.986797	-0.119274	0.079855
C48	C	0.986794	-0.119308	-0.079820
C49	C	0.985746	-0.178707	-0.079808
C50	C	0.985219	-0.208391	0.000043
O51	O	0.984111	-0.272696	-0.147645
O52	O	0.984071	-0.272682	0.147777
C53	C	1.133503	0.073574	0.000053
C54	C	1.225789	0.074681	0.000062
C55	C	0.974506	0.181884	0.000070
C56	C	0.975608	0.245107	0.000084
N57	N	0.981465	0.077764	0.228222
N58	N	0.981468	0.077751	-0.228127
C59	C	1.038425	0.039111	0.453938
C60	C	1.038428	0.039109	0.546128
C61	C	0.924505	0.116409	0.546150
C62	C	0.924507	0.116412	0.453962
C63	C	0.981466	0.077760	0.407859
C64	C	0.981467	0.077755	0.592236
C65	C	0.981469	0.077754	0.692193
C66	C	0.981466	0.077762	0.307896
H67	H	0.402812	0.076817	0.144898
C68	C	0.982540	-0.360425	-0.246396
C69	C	0.981870	-0.399166	-0.316305
C70	C	0.982420	-0.369596	-0.396259
H71	H	0.934469	-0.332898	-0.249835
H72	H	1.031454	-0.341620	-0.249778
H73	H	0.932961	-0.417962	-0.312925
H74	H	1.029938	-0.426694	-0.312896
H75	H	1.031334	-0.350791	-0.399641
H76	H	0.934348	-0.342070	-0.399689
H77	H	0.981973	-0.395878	-0.443702
H78	H	0.975716	-0.749389	-0.144765
H79	H	0.560130	0.078709	0.144904
H80	H	0.878129	0.147878	0.583697
C81	C	0.977777	-0.633678	-0.166541
C82	C	0.977120	-0.672424	-0.236446
C83	C	0.977689	-0.642859	-0.316404
H84	H	0.929707	-0.606151	-0.169994
H85	H	1.026693	-0.614874	-0.169914
H86	H	0.928210	-0.691218	-0.233075
H87	H	1.025187	-0.699952	-0.233023
H88	H	1.026604	-0.624055	-0.319776
H89	H	0.929618	-0.615333	-0.319847
H90	H	0.977251	-0.669144	-0.363843
C91	C	1.100310	-0.002759	0.403772
C92	C	1.150832	0.027664	0.350845
C93	C	1.207845	-0.010888	0.304614
H94	H	1.134313	-0.025792	0.444323
H95	H	1.070706	-0.026511	0.367747
H96	H	1.180433	0.051406	0.386866
H97	H	1.116852	0.050695	0.310278
H98	H	1.178241	-0.034639	0.268590
H99	H	1.241842	-0.033919	0.345172
H100	H	1.242125	0.009749	0.268692
C101	C	0.980198	-0.484149	0.246394
C102	C	0.908055	-0.511818	0.251090
C103	C	0.907352	-0.541512	0.330921
H104	H	1.028226	-0.511715	0.249804
H105	H	0.980615	-0.457951	0.293956
H106	H	0.907645	-0.538013	0.203542
H107	H	0.860015	-0.484265	0.247696
H108	H	0.907770	-0.515315	0.378483
H109	H	0.955383	-0.569075	0.334324
H110	H	0.858401	-0.560285	0.334122
H111	H	0.878124	0.147888	0.416442
H112	H	0.985324	-0.202901	-0.144819
H113	H	1.084810	0.007638	0.583643
H114	H	0.987229	-0.095085	0.144872
H115	H	0.985312	-0.202839	0.144890
H116	H	0.987222	-0.095127	-0.144821
C117	C	0.977696	-0.633612	0.166692
C118	C	0.976998	-0.672330	0.236605
C119	C	0.977465	-0.642729	0.316556
H120	H	1.026577	-0.614787	0.170140
H121	H	0.929591	-0.606096	0.170061
H122	H	1.025098	-0.699835	0.233238
H123	H	0.928121	-0.691156	0.233186
H124	H	0.929360	-0.615214	0.319925
H125	H	1.026347	-0.623906	0.319995
H126	H	0.976984	-0.668994	0.364001
C127	C	0.980171	-0.484253	-0.246245
C128	C	0.908028	-0.511927	-0.250882
C129	C	0.907309	-0.541684	-0.330674
H130	H	0.980573	-0.458110	-0.293849
H131	H	1.028216	-0.511819	-0.249613
H132	H	0.859995	-0.484364	-0.247523
H133	H	0.907611	-0.538080	-0.203296
H134	H	0.955355	-0.569250	-0.334042
H135	H	0.907713	-0.515537	-0.378272
H136	H	0.858366	-0.560469	-0.333828
C137	C	0.982498	-0.360354	0.246501
C138	C	0.981792	-0.399074	0.316410
C139	C	0.982253	-0.369476	0.396365
H140	H	1.031379	-0.341530	0.249956
H141	H	0.934393	-0.332838	0.249867
H142	H	1.029891	-0.426580	0.313046
H143	H	0.932914	-0.417899	0.312985
H144	H	0.934148	-0.341960	0.399730
H145	H	1.031135	-0.350653	0.399810
H146	H	0.981766	-0.395742	0.443807
H147	H	0.560107	0.078702	-0.144797
H148	H	0.402807	0.076804	-0.144790
H149	H	0.975706	-0.749354	0.144931
