data_functionalizedCrystal
_audit_creation_method	'MofGen! by Chris Wilmer'
_symmetry_space_group_name_H-M	'P1'
_symmetry_Int_Tables_number	1
_symmetry_cell_setting	triclinic
loop_
_symmetry_equiv_pos_as_xyz
  x,y,z
_cell_length_a	14.395555
_cell_length_b	14.395555
_cell_length_c	14.395555
_cell_angle_alpha	60.002398
_cell_angle_beta	90.002623
_cell_angle_gamma	59.996935
loop_
_atom_site_label
_atom_site_type_symbol
_atom_site_fract_x
_atom_site_fract_y
_atom_site_fract_z
Zr1	Zr	0.894859	1.016787	-0.121866
O2	O	0.746519	1.210591	-0.270199
O3	O	0.940340	0.822983	-0.076392
O4	O	0.940331	1.016778	-0.270187
O5	O	0.746527	1.016803	0.076463
O6	O	1.093205	1.016772	-0.270179
O7	O	0.746528	1.016796	-0.076404
O8	O	1.093222	0.670108	0.076485
O9	O	0.746510	1.363466	-0.270201
O10	O	1.073817	0.902693	-0.056994
O11	O	0.959728	0.902703	0.057083
O12	O	0.959717	1.130871	-0.171085
O13	O	0.845628	1.130882	-0.057008
Zr14	Zr	1.138673	1.016787	0.121953
Zr15	Zr	1.138675	1.016776	-0.121853
Zr16	Zr	0.894857	1.016798	0.121940
Zr17	Zr	0.894845	1.260606	-0.121868
Zr18	Zr	1.138687	0.772968	0.121955
O19	O	1.093192	1.210591	0.076479
O20	O	1.093194	1.210575	-0.270181
O21	O	0.746516	1.210606	0.076461
O22	O	1.287013	0.822983	0.270286
O23	O	1.287016	0.822968	-0.076374
O24	O	0.940338	0.822999	0.270268
O25	O	1.287005	1.016772	-0.076376
O26	O	1.093201	1.016796	0.270274
O27	O	0.940327	1.016803	0.270266
O28	O	1.287004	1.016778	0.076491
O29	O	0.940312	1.363458	-0.270191
O30	O	1.093220	0.670117	0.270278
O31	O	1.287022	0.670108	0.270288
O32	O	1.287023	0.670099	0.076495
O33	O	0.746509	1.363475	-0.076408
O34	O	0.940310	1.363466	-0.076398
O35	O	1.073815	0.902703	0.171172
O36	O	1.187904	0.902693	0.057095
O37	O	1.073804	1.130871	-0.056996
O38	O	0.959715	1.130882	0.057081
C39	C	1.016783	0.711807	0.000047
C40	C	1.016789	0.608299	0.000048
C41	C	1.078985	0.547715	-0.062163
C42	C	1.124066	0.409609	0.045107
C43	C	0.971714	0.561970	-0.107211
C44	C	1.061933	0.471493	0.107381
C45	C	0.909521	0.623928	-0.045014
C46	C	0.954576	0.485832	0.062320
C47	C	0.711789	1.016801	0.000027
C48	C	0.608282	1.016806	0.000022
C49	C	0.485481	1.141219	-0.062176
C50	C	0.454649	1.079021	-0.107250
C51	C	0.454691	1.078998	0.045087
C52	C	0.578814	0.954607	-0.045115
C53	C	0.578852	0.954603	0.107282
C54	C	0.548094	0.892314	0.062235
C55	C	1.321743	1.016773	0.000060
C56	C	1.425250	1.016769	0.000065
C57	C	1.016768	1.016773	-0.304920
C58	C	1.016769	1.016769	-0.408422
C59	C	1.016749	1.321768	0.000040
C60	C	1.016743	1.425275	0.000039
C61	C	1.078987	0.892356	-0.406803
C62	C	0.971707	0.954554	-0.499831
C63	C	1.124022	0.954576	-0.499822
C64	C	0.909426	1.078967	-0.500087
C65	C	1.061819	1.078972	-0.500064
C66	C	0.954475	1.141261	-0.593109
C67	C	1.016764	1.016801	0.305007
C68	C	1.016763	1.016806	0.408509
C69	C	1.321760	0.711793	0.000063
C70	C	1.425273	0.608281	0.000069
C71	C	1.016781	0.711820	0.305010
C72	C	1.016786	0.608318	0.408513
C73	C	1.321758	0.711807	0.305026
C74	C	1.425269	0.608299	0.408535
C75	C	0.711774	1.321768	-0.304939
C76	C	0.608262	1.425275	-0.408448
C77	C	0.711772	1.321781	0.000024
C78	C	0.608259	1.425294	0.000018
C79	C	1.016751	1.321754	-0.304923
C80	C	1.016746	1.425257	-0.408426
C81	C	1.548070	0.547719	0.062246
C82	C	1.578939	0.409606	0.107301
C83	C	1.578837	0.562010	-0.045038
C84	C	1.454777	0.471468	0.045188
C85	C	1.454680	0.623945	-0.107211
C86	C	1.485475	0.485842	-0.062182
C87	C	0.954581	0.547733	0.406896
C88	C	1.061868	0.409625	0.499921
C89	C	0.909545	0.561971	0.499919
C90	C	1.124136	0.471510	0.500175
C91	C	0.971735	0.623930	0.500158
C92	C	1.079086	0.485832	0.593200
C93	C	1.423658	0.547693	0.531325
C94	C	1.516656	0.409589	0.562124
C95	C	1.516716	0.561867	0.562162
C96	C	1.516905	0.471496	0.437971
C97	C	1.516951	0.623848	0.438012
C98	C	1.609967	0.485753	0.468738
H99	H	0.901972	0.458810	0.114999
Cl100	Cl	1.160310	0.589527	-0.143248
Cl101	Cl	1.445872	0.444125	-0.143414
Cl102	Cl	0.372015	1.160196	-0.247267
Cl103	Cl	0.912839	0.765436	0.498649
H104	H	1.517564	0.317981	0.615607
Cl105	Cl	1.120723	0.268158	0.501365
H106	H	0.632176	0.902060	-0.083314
Cl107	Cl	1.264242	0.413790	0.498916
Cl108	Cl	1.515601	0.413834	0.355547
Cl109	Cl	0.769520	0.765440	-0.103900
Cl110	Cl	1.515476	0.765326	0.355439
H111	H	0.573757	0.787025	0.114840
H112	H	1.099956	1.131505	-0.499087
Cl113	Cl	1.732918	0.443994	0.429141
Cl114	Cl	0.661484	0.873495	0.247272
Cl115	Cl	1.372009	0.765478	-0.247185
H116	H	0.401182	1.131608	0.083183
H117	H	1.131514	0.787156	-0.327039
Cl118	Cl	1.264064	0.873356	-0.501215
H119	H	1.214762	0.317976	0.083223
H120	H	0.933613	0.599167	-0.197914
Cl121	Cl	1.587341	0.589527	0.143585
Cl122	Cl	0.769495	0.619445	0.501293
H123	H	1.632483	0.317965	0.197984
H124	H	1.517706	0.598900	0.615791
Cl125	Cl	1.372439	0.413692	0.104184
H126	H	0.933596	0.901975	-0.500764
Cl127	Cl	1.120924	0.413760	0.247488
H128	H	0.460032	1.246422	-0.114855
H129	H	0.818678	1.131514	-0.499270
Cl130	Cl	1.661411	0.619481	-0.103870
H131	H	1.343895	0.574794	0.556760
Cl132	Cl	0.873481	0.589556	0.283751
Cl133	Cl	0.873128	1.303815	-0.716059
H134	H	1.131775	0.458802	0.672832
