data_functionalizedCrystal
_audit_creation_method	'MofGen! by Chris Wilmer'
_symmetry_space_group_name_H-M	'P1'
_symmetry_Int_Tables_number	1
_symmetry_cell_setting	triclinic
loop_
_symmetry_equiv_pos_as_xyz
  x,y,z
_cell_length_a	6.817900
_cell_length_b	14.858565
_cell_length_c	23.752930
_cell_angle_alpha	96.087961
_cell_angle_beta	100.066047
_cell_angle_gamma	104.523916
loop_
_atom_site_label
_atom_site_type_symbol
_atom_site_fract_x
_atom_site_fract_y
_atom_site_fract_z
V1	V	-3.994019	-0.129897	-0.178554
O2	O	-3.976831	0.004980	-0.174991
O3	O	-3.950881	-0.256351	-0.177491
O4	O	-3.929002	-0.128453	-0.256356
O5	O	-3.998862	-0.123803	-0.095580
V6	V	-4.479118	-0.113699	-0.168611
O7	O	-4.251820	-0.165430	-0.200366
O8	O	-4.671515	-0.078166	-0.146799
O9	O	-4.299050	0.012755	-0.169674
O10	O	-4.613703	-0.248576	-0.172174
O11	O	-4.591673	-0.119793	-0.251584
O12	O	-4.320929	-0.115143	-0.090809
C13	C	-3.797699	-0.287160	-0.174715
C14	C	-3.843605	-0.390541	-0.174364
C15	C	-4.011623	-0.769103	-0.173088
C16	C	-3.964867	-0.663776	-0.173442
C17	C	-3.927615	-0.579826	-0.173725
C18	C	-3.880857	-0.474491	-0.174081
C19	C	-3.769790	-0.124012	-0.275314
C20	C	-3.797949	-0.123668	-0.338918
C21	C	-4.154425	-0.126109	-0.736246
C22	C	-4.180906	-0.125773	-0.796008
O23	O	-4.349093	-0.129532	-0.829396
N24	N	-4.012470	-0.120949	-0.822978
C25	C	-3.817534	-0.116451	-0.790182
O26	O	-3.676696	-0.112316	-0.818610
C27	C	-3.791052	-0.116780	-0.730420
C28	C	-3.959507	-0.121614	-0.703454
C29	C	-4.322865	-0.130942	-0.709279
C30	C	-4.296386	-0.131279	-0.649521
C31	C	-4.101467	-0.126784	-0.616730
C32	C	-3.933028	-0.121951	-0.643697
C33	C	-3.596115	-0.112275	-0.697625
C34	C	-3.569647	-0.112604	-0.637859
C35	C	-3.738102	-0.117438	-0.610893
C36	C	-3.711630	-0.117794	-0.551147
N37	N	-3.880067	-0.122618	-0.524177
C38	C	-4.074985	-0.127113	-0.556968
C39	C	-3.873161	-0.115759	-0.915686
C40	C	-3.899643	-0.115436	-0.975447
C41	C	-4.263014	-0.124757	-0.981268
C42	C	-4.236532	-0.125086	-0.921507
C43	C	-4.041597	-0.120583	-0.888715
C44	C	-4.019364	-0.127822	-0.431473
C45	C	-3.992868	-0.128163	-0.371710
C46	C	-3.629498	-0.118837	-0.365893
C47	C	-3.655993	-0.118501	-0.425651
C48	C	-3.850940	-0.122991	-0.458439
O49	O	-3.543504	-0.114033	-0.517722
O50	O	-4.215787	-0.131235	-0.528532
C51	C	-4.115574	0.043559	-0.172448
C52	C	-4.048906	0.146939	-0.172803
C53	C	-4.143484	-0.119587	-0.071848
C54	C	-4.094563	-0.119926	-0.008243
H55	H	-4.130055	-0.132102	-0.349757
Br56	Br	-4.587428	-0.137045	-0.753771
H57	H	-4.421731	-0.128416	-1.007978
H58	H	-3.762474	-0.111514	-0.997399
Br59	Br	-4.283930	-0.133913	-0.475961
Br60	Br	-3.364975	-0.112742	-0.321380
Br61	Br	-3.608590	-0.109658	-0.871190
Br62	Br	-3.305075	-0.106482	-0.593359
Br63	Br	-4.465159	-0.131646	-0.884916
Br64	Br	-3.427384	-0.111957	-0.462251
H65	H	-3.458936	-0.108339	-0.719570
H66	H	-4.433561	-0.135211	-0.627571
