data_functionalizedCrystal
_audit_creation_method	'MofGen! by Chris Wilmer'
_symmetry_space_group_name_H-M	'P1'
_symmetry_Int_Tables_number	1
_symmetry_cell_setting	triclinic
loop_
_symmetry_equiv_pos_as_xyz
  x,y,z
_cell_length_a	31.640172
_cell_length_b	14.560438
_cell_length_c	14.560438
_cell_angle_alpha	60.007151
_cell_angle_beta	59.997712
_cell_angle_gamma	90.003974
loop_
_atom_site_label
_atom_site_type_symbol
_atom_site_fract_x
_atom_site_fract_y
_atom_site_fract_z
Zr1	Zr	0.407201	-0.120259	1.005078
O2	O	0.339715	-0.266896	1.196679
O3	O	0.427886	-0.075326	0.813488
O4	O	0.427891	-0.266899	1.005070
O5	O	0.339710	0.075815	1.005100
O6	O	0.497448	-0.266879	1.005051
O7	O	0.339711	-0.075323	1.005097
O8	O	0.497440	0.075810	0.662346
O9	O	0.339718	-0.266874	1.347804
O10	O	0.488621	-0.056124	0.892273
O11	O	0.436711	0.056654	0.892290
O12	O	0.436716	-0.168899	1.117852
O13	O	0.384806	-0.056121	1.117868
Zr14	Zr	0.518135	0.120821	1.005052
Zr15	Zr	0.518136	-0.120227	1.005047
Zr16	Zr	0.407200	0.120789	1.005082
Zr17	Zr	0.407205	-0.120223	1.246105
Zr18	Zr	0.518131	0.120786	0.764024
O19	O	0.497450	0.075889	1.196641
O20	O	0.497451	-0.266851	1.196635
O21	O	0.339714	0.075843	1.196685
O22	O	0.585621	0.267459	0.813451
O23	O	0.585622	-0.075280	0.813445
O24	O	0.427885	0.267413	0.813494
O25	O	0.585626	-0.075252	1.005030
O26	O	0.497446	0.267462	1.005060
O27	O	0.427889	0.267441	1.005079
O28	O	0.585625	0.075886	1.005032
O29	O	0.427897	-0.266849	1.347780
O30	O	0.497439	0.267411	0.662350
O31	O	0.585618	0.267437	0.662325
O32	O	0.585619	0.075836	0.662322
O33	O	0.339717	-0.075273	1.347807
O34	O	0.427896	-0.075248	1.347783
O35	O	0.488620	0.169461	0.892277
O36	O	0.540530	0.056684	0.892261
O37	O	0.488625	-0.056091	1.117840
O38	O	0.436715	0.056687	1.117856
C39	C	0.323905	0.000241	1.005103
C40	C	0.276810	0.000228	1.005116
C41	C	0.462663	0.000237	0.703576
C42	C	0.462661	0.000222	0.601253
C43	C	0.462667	0.301796	1.005070
C44	C	0.462666	0.404127	1.005072
C45	C	0.011898	0.059171	0.887303
C46	C	-0.165087	0.059194	0.887280
O47	O	-0.164931	0.109299	0.787138
N48	N	-0.214311	0.000325	1.005029
C49	C	-0.219288	-0.058548	1.122792
O50	O	-0.265216	-0.108609	1.222944
C51	C	-0.042303	-0.058563	1.122813
C52	C	0.006920	0.000301	1.005057
C53	C	0.061119	0.118031	0.769556
C54	C	0.105362	0.118020	0.769563
C55	C	0.100384	0.059149	0.887316
C56	C	0.051163	0.000289	1.005063
C57	C	-0.047280	-0.117428	1.240575
C58	C	-0.003029	-0.117424	1.240570
C59	C	0.046194	-0.058561	1.122813
C60	C	0.090429	-0.058592	1.122824
N61	N	0.139653	0.000276	1.005075
C62	C	0.144630	0.059147	0.887321
C63	C	-0.312205	-0.058537	1.122773
C64	C	-0.356451	-0.058536	1.122768
C65	C	-0.302248	0.059208	0.887255
C66	C	-0.258001	0.059198	0.887262
C67	C	-0.262981	0.000331	1.005024
C68	C	0.237543	0.059118	0.887345
C69	C	0.281787	0.059098	0.887362
C70	C	0.227580	-0.058640	1.122873
C71	C	0.183339	-0.058625	1.122857
C72	C	0.188324	0.000263	1.005082
O73	O	0.090312	-0.108661	1.222914
O74	O	0.190563	0.109221	0.787184
C75	C	-0.032346	0.059182	0.887296
C76	C	-0.081567	0.000323	1.005043
C77	C	-0.086544	-0.058548	1.122797
C78	C	-0.125813	0.000325	1.005038
C79	C	-0.120835	0.059196	0.887284
C80	C	-0.071611	0.118064	0.769535
C81	C	-0.027368	0.118053	0.769542
C82	C	-0.135768	-0.117416	1.240546
C83	C	-0.180009	-0.117402	1.240529
C84	C	-0.175031	-0.058531	1.122775
C85	C	0.601432	0.000322	1.005027
C86	C	0.648527	0.000335	1.005014
C87	C	0.462669	-0.301233	1.005060
C88	C	0.462670	-0.403564	1.005058
C89	C	0.435575	0.393338	1.122819
C90	C	0.435575	0.489493	1.122813
C91	C	0.489762	0.607222	0.887301
C92	C	0.489759	0.511068	0.887309
C93	C	0.408483	0.286397	1.240582
C94	C	0.381390	0.275603	1.358339
C95	C	0.381390	0.371758	1.358333
C96	C	0.408483	0.478707	1.240570
C97	C	0.424345	-0.083009	0.636389
C98	C	0.424353	-0.082953	0.540200
C99	C	0.500996	0.083576	0.373741
C100	C	0.500989	0.083514	0.469929
C101	C	0.386016	-0.166302	0.767713
C102	C	0.347697	-0.249539	0.802856
C103	C	0.347705	-0.249483	0.706667
C104	C	0.386033	-0.166189	0.575335
C105	C	0.462674	0.000326	1.306554
C106	C	0.462676	0.000341	1.408876
C107	C	0.601426	0.000277	0.703538
C108	C	0.648519	0.000276	0.601202
C109	C	0.462661	0.301751	0.703581
C110	C	0.462659	0.404068	0.601260
C111	C	0.601425	0.301792	0.703543
C112	C	0.648517	0.404121	0.601209
C113	C	0.323912	-0.301229	1.306586
C114	C	0.276819	-0.403559	1.408920
C115	C	0.323910	0.000285	1.306592
C116	C	0.276817	0.000287	1.408927
C117	C	0.462675	-0.301189	1.306548
C118	C	0.462677	-0.403505	1.408869
C119	C	0.643538	-0.058619	0.553151
C120	C	0.687783	-0.058643	0.457009
C121	C	0.737008	0.000236	0.408914
C122	C	0.741988	0.059133	0.456975
C123	C	0.697743	0.059149	0.553122
C124	C	0.697734	0.393308	0.553144
C125	C	0.741987	0.489448	0.457004
C126	C	0.737022	0.596402	0.408925
C127	C	0.687800	0.607213	0.457000
C128	C	0.643549	0.511073	0.553144
C129	C	0.227603	-0.392745	1.456997
C130	C	0.183350	-0.488886	1.553167
C131	C	0.188315	-0.595839	1.601251
C132	C	0.237536	-0.606650	1.553170
C133	C	0.281788	-0.510511	1.457009
C134	C	0.281798	0.059172	1.456988
C135	C	0.237553	0.059169	1.553157
C136	C	0.188328	0.000287	1.601255
C137	C	0.183349	-0.058605	1.553190
C138	C	0.227593	-0.058609	1.457030
C139	C	0.489755	0.511021	0.553179
C140	C	0.489748	0.607154	0.457042
C141	C	0.435550	0.489367	0.457074
C142	C	0.435554	0.393237	0.553215
C143	C	0.516860	0.521852	0.601223
C144	C	0.543959	0.628810	0.553141
C145	C	0.543952	0.724943	0.457004
C146	C	0.516848	0.714118	0.408951
H147	H	0.321867	0.107035	0.791466
H148	H	0.143259	-0.106571	1.218744
Cl149	Cl	0.408482	0.165512	1.240598
Cl150	Cl	0.132678	-0.716691	1.722140
H151	H	0.782072	0.107069	0.417802
Cl152	Cl	0.401480	0.475765	0.396660
H153	H	0.223550	-0.305667	1.417852
H154	H	0.701806	0.107115	0.592233
H155	H	0.516869	0.443582	0.679500
Cl156	Cl	0.401488	0.258775	0.613668
H157	H	0.359325	0.362965	1.454216
H158	H	0.143276	-0.480061	1.592298
H159	H	0.511820	0.694305	0.791424
H160	H	0.241609	0.107071	0.791441
Cl161	Cl	-0.241887	-0.191412	1.388582
H162	H	0.241572	-0.693743	1.592333
H163	H	0.773030	0.000214	0.330625
Cl164	Cl	0.343658	-0.524125	1.396572
H165	H	0.321875	0.107128	1.417834
Cl166	Cl	0.703989	0.258864	0.613575
H167	H	0.241618	0.107131	1.592275
Cl168	Cl	0.792658	0.717253	0.288053
Cl169	Cl	0.121462	-0.132618	1.613665
H170	H	0.223536	-0.106575	1.218745
Cl171	Cl	0.408475	0.599586	1.240566
H172	H	0.782061	0.480625	0.417871
Cl173	Cl	-0.109152	-0.191421	1.388622
Cl174	Cl	0.523816	0.524628	0.739280
H175	H	0.532189	0.151290	0.441315
H176	H	0.152306	0.000299	1.679555
H177	H	0.566013	0.812028	0.417867
Cl178	Cl	0.681568	0.741677	0.396541
Cl179	Cl	0.167238	0.192033	0.621517
H180	H	0.603476	0.519894	0.592267
H181	H	0.223530	-0.106557	1.417901
H182	H	0.386004	-0.166354	0.846045
Cl183	Cl	0.578025	0.642415	0.613561
Cl184	Cl	0.516836	0.834974	0.288103
Cl185	Cl	0.299520	-0.354253	0.967950
H186	H	0.065180	0.165976	0.673661
H187	H	-0.217924	0.107140	0.791374
Cl188	Cl	0.386047	-0.166131	0.454414
Cl189	Cl	-0.418328	-0.132555	1.270811
Cl190	Cl	-0.318476	-0.132554	1.270832
Cl191	Cl	-0.295998	0.133217	0.739223
H192	H	-0.007090	-0.165347	1.336468
H193	H	-0.067565	0.165992	0.673656
Cl194	Cl	-0.142036	-0.191434	1.388595
Cl195	Cl	0.034508	0.192059	0.621497
Cl196	Cl	0.581661	-0.132653	0.613599
Cl197	Cl	0.347326	0.141160	1.506376
Cl198	Cl	0.549174	0.188285	0.208646
Cl199	Cl	0.681511	-0.132685	0.396604
Cl200	Cl	0.299536	-0.354128	0.750846
