data_functionalizedCrystal
_audit_creation_method	'MofGen! by Chris Wilmer'
_symmetry_space_group_name_H-M	'P1'
_symmetry_Int_Tables_number	1
_symmetry_cell_setting	triclinic
loop_
_symmetry_equiv_pos_as_xyz
  x,y,z
_cell_length_a	19.805407
_cell_length_b	12.594516
_cell_length_c	19.805399
_cell_angle_alpha	89.979203
_cell_angle_beta	89.980427
_cell_angle_gamma	90.016053
loop_
_atom_site_label
_atom_site_type_symbol
_atom_site_fract_x
_atom_site_fract_y
_atom_site_fract_z
Zn1	Zn	1.034784	-0.423767	-0.382752
Zn2	Zn	1.534784	0.076233	0.117248
Zn3	Zn	1.034720	-0.601760	-0.269577
Zn4	Zn	1.534720	-0.101760	0.230423
Zn5	Zn	0.921599	-0.423796	-0.269576
Zn6	Zn	1.421599	0.076204	0.230424
Zn7	Zn	0.921583	-0.601704	-0.382723
Zn8	Zn	1.421583	-0.101704	0.117277
O9	O	0.978172	-0.512757	-0.326157
O10	O	1.478172	-0.012757	0.173843
O11	O	1.129492	-0.447389	-0.367751
O12	O	1.629492	0.052611	0.132249
O13	O	1.019694	-0.578189	-0.174860
O14	O	1.519694	-0.078189	0.325140
O15	O	0.936647	-0.274846	-0.284601
O16	O	1.436647	0.225154	0.215399
O17	O	1.129445	-0.578160	-0.284602
O18	O	1.629445	-0.078160	0.215398
O19	O	1.019804	-0.274825	-0.367750
O20	O	1.519804	0.225175	0.132250
O21	O	0.936584	-0.447439	-0.174860
O22	O	1.436584	0.052561	0.325140
O23	O	0.826880	-0.447385	-0.284573
O24	O	1.326880	0.052615	0.215427
O25	O	0.936620	-0.578064	-0.477444
O26	O	1.436620	-0.078064	0.022556
O27	O	0.826869	-0.578092	-0.367702
O28	O	1.326869	-0.078092	0.132298
O29	O	1.019788	-0.447335	-0.477464
O30	O	1.519788	0.052665	0.022536
O31	O	1.019678	-0.750698	-0.284574
O32	O	1.519678	-0.250698	0.215426
O33	O	0.936557	-0.750657	-0.367703
O34	O	1.436557	-0.250657	0.132297
C35	C	0.802316	-0.512736	-0.326135
C36	C	1.302316	-0.012736	0.173865
C37	C	0.727084	-0.512753	-0.326142
C38	C	1.227084	-0.012753	0.173858
C39	C	0.691751	-0.580915	-0.369357
C40	C	1.191751	-0.080915	0.130643
C41	C	0.621063	-0.580917	-0.369366
C42	C	1.121063	-0.080917	0.130634
C43	C	0.585708	-0.512762	-0.326157
C44	C	1.085708	-0.012762	0.173843
C45	C	0.621045	-0.444592	-0.282940
C46	C	1.121045	0.055408	0.217060
C47	C	0.691733	-0.444586	-0.282934
C48	C	1.191733	0.055414	0.217066
C49	C	0.335972	-0.444615	-0.282962
C50	C	0.835972	0.055385	0.217038
C51	C	0.265280	-0.444629	-0.282970
C52	C	0.765280	0.055371	0.217030
C53	C	0.265302	-0.580947	-0.369394
C54	C	0.765302	-0.080947	0.130606
C55	C	0.335989	-0.580941	-0.369389
C56	C	0.835989	-0.080941	0.130611
C57	C	0.371321	-0.512768	-0.326175
C58	C	0.871321	-0.012768	0.173825
C59	C	0.447969	-0.512765	-0.326166
C60	C	0.947969	-0.012765	0.173834
C61	C	0.509061	-0.512769	-0.326162
C62	C	1.009061	-0.012769	0.173838
C63	C	0.978127	-0.789298	-0.326150
C64	C	1.478127	-0.289298	0.173850
C65	C	0.978170	-0.907603	-0.326170
C66	C	1.478170	-0.407603	0.173830
C67	C	0.932956	-0.976872	-0.371352
C68	C	1.432956	-0.476872	0.128648
C69	C	0.916467	-1.047728	-0.309590
C70	C	1.416467	-0.547728	0.190410
C71	C	0.994721	-1.047546	-0.387943
C72	C	1.494721	-0.547546	0.112057
C73	C	0.961649	-0.976901	-0.264375
C74	C	1.461649	-0.476901	0.235625
C75	C	1.039931	-0.976712	-0.342770
C76	C	1.539931	-0.476712	0.157230
C77	C	1.023465	-1.047536	-0.280965
C78	C	1.523465	-0.547536	0.219035
C79	C	1.154714	-0.512778	-0.326179
C80	C	1.654714	-0.012778	0.173821
C81	C	1.229946	-0.512787	-0.326189
C82	C	1.729946	-0.012787	0.173811
C83	C	0.978209	-0.512690	-0.502700
C84	C	1.478209	-0.012690	-0.002700
C85	C	0.978226	-0.512661	-0.577932
C86	C	1.478226	-0.012661	-0.077932
C87	C	0.978235	-0.235136	-0.326178
C88	C	1.478235	0.264864	0.173822
C89	C	0.978261	-0.116830	-0.326188
C90	C	1.478261	0.383170	0.173812
C91	C	1.021533	-0.444587	-0.613288
C92	C	1.521533	0.055413	-0.113288
C93	C	1.021539	-0.444556	-0.683976
C94	C	1.521539	0.055444	-0.183976
C95	C	0.978242	-0.512605	-0.719307
C96	C	1.478242	-0.012605	-0.219307
C97	C	0.934931	-0.580683	-0.683947
C98	C	1.434931	-0.080683	-0.183947
C99	C	0.934921	-0.580707	-0.613259
C100	C	1.434921	-0.080707	-0.113259
C101	C	0.934969	-0.580583	-0.969020
C102	C	1.434969	-0.080583	-0.469020
C103	C	0.934984	-0.580556	-1.039712
C104	C	1.434984	-0.080556	-0.539712
C105	C	1.021588	-0.444432	-1.039737
C106	C	1.521588	0.055568	-0.539737
C107	C	1.021578	-0.444457	-0.969050
C108	C	1.521578	0.055543	-0.469050
C109	C	0.978264	-0.512530	-0.933695
C110	C	1.478264	-0.012530	-0.433695
C111	C	0.978256	-0.512561	-0.857046
C112	C	1.478256	-0.012561	-0.357046
C113	C	0.978253	-0.512580	-0.795955
C114	C	1.478253	-0.012580	-0.295955
C115	C	0.978173	-0.512747	-0.150301
C116	C	1.478173	-0.012747	0.349699
C117	C	0.978288	-0.512475	-0.075069
C118	C	1.478288	-0.012475	0.424931
H119	H	0.236496	-0.389122	-0.247783
H120	H	0.736496	0.110878	0.252217
H121	H	0.236527	-0.636453	-0.404584
H122	H	0.736527	-0.136453	0.095416
H123	H	0.899723	-0.635972	-1.068477
H124	H	1.399723	-0.135972	-0.568477
C125	C	0.881215	-0.934944	-0.422891
C126	C	1.381215	-0.434944	0.077109
H127	H	0.837385	-0.959264	-0.410989
H128	H	1.337385	-0.459264	0.089011
H129	H	0.892509	-0.960170	-0.466655
H130	H	1.392509	-0.460170	0.033345
H131	H	0.881821	-0.859520	-0.422812
H132	H	1.381821	-0.359520	0.077188
H133	H	0.899710	-0.636028	-0.940243
H134	H	1.399710	-0.136028	-0.440243
H135	H	0.899675	-0.636086	-0.712719
H136	H	1.399675	-0.136086	-0.212719
H137	H	1.056837	-0.389047	-0.940287
H138	H	1.556837	0.110953	-0.440287
C139	C	0.374828	-0.369647	-0.235417
C140	C	0.874828	0.130353	0.264583
H141	H	0.343646	-0.329071	-0.209678
H142	H	0.843646	0.170929	0.290322
H143	H	0.402424	-0.323314	-0.261347
H144	H	0.902424	0.176686	0.238653
H145	H	0.402381	-0.410315	-0.205879
H146	H	0.902381	0.089685	0.294121
H147	H	0.864280	-1.078946	-0.295564
H148	H	1.364280	-0.578946	0.204436
C149	C	0.942699	-0.935162	-0.193795
C150	C	1.442699	-0.435162	0.306205
H151	H	0.942757	-0.859733	-0.194226
H152	H	1.442757	-0.359733	0.305774
H153	H	0.974645	-0.959921	-0.161679
H154	H	1.474645	-0.459921	0.338321
H155	H	0.898991	-0.960070	-0.181944
H156	H	1.398991	-0.460070	0.318056
H157	H	1.056853	-0.389000	-1.068531
H158	H	1.556853	0.111000	-0.568531
H159	H	1.056792	-0.389176	-0.584526
H160	H	1.556792	0.110824	-0.084526
H161	H	0.592254	-0.389094	-0.247761
H162	H	1.092254	0.110906	0.252239
C163	C	0.582199	-0.655960	-0.416862
C164	C	1.082199	-0.155960	0.083138
H165	H	0.613379	-0.696578	-0.442576
H166	H	1.113379	-0.196578	0.057424
H167	H	0.554623	-0.615371	-0.446414
H168	H	1.054623	-0.115371	0.053586
H169	H	0.554628	-0.702266	-0.390880
H170	H	1.054628	-0.202266	0.109120
H171	H	0.364771	-0.636444	-0.404572
H172	H	0.864771	-0.136444	0.095428
H173	H	1.056806	-0.389126	-0.712760
H174	H	1.556806	0.110874	-0.212760
H175	H	0.720500	-0.389075	-0.247748
H176	H	1.220500	0.110925	0.252252
C177	C	1.075169	-1.089201	-0.229303
C178	C	1.575169	-0.589201	0.270697
H179	H	1.063334	-1.064882	-0.185468
H180	H	1.563334	-0.564882	0.314532
H181	H	1.118877	-1.063810	-0.240714
H182	H	1.618877	-0.563810	0.259286
H183	H	1.075180	-1.164625	-0.229846
H184	H	1.575180	-0.664625	0.270154
C185	C	1.110426	-0.934577	-0.361744
C186	C	1.610426	-0.434577	0.138256
H187	H	1.122091	-0.958732	-0.405661
H188	H	1.622091	-0.458732	0.094339
H189	H	1.142672	-0.959849	-0.330094
H190	H	1.642672	-0.459849	0.169906
H191	H	1.110005	-0.859155	-0.361197
H192	H	1.610005	-0.359155	0.138803
C193	C	0.730638	-0.655893	-0.416882
C194	C	1.230638	-0.155893	0.083118
H195	H	0.777798	-0.646138	-0.410686
H196	H	1.277798	-0.146138	0.089314
H197	H	0.719077	-0.640417	-0.462378
H198	H	1.219077	-0.140417	0.037622
H199	H	0.719036	-0.727389	-0.406893
H200	H	1.219036	-0.227389	0.093107
C201	C	1.013585	-1.089465	-0.458503
C202	C	1.513585	-0.589465	0.041497
H203	H	0.981384	-1.065257	-0.490540
H204	H	1.481384	-0.565257	0.009460
H205	H	1.013889	-1.164882	-0.457907
H206	H	1.513889	-0.664882	0.042093
H207	H	1.057118	-1.064094	-0.470598
H208	H	1.557118	-0.564094	0.029402
H209	H	0.899649	-0.636130	-0.584473
H210	H	1.399649	-0.136130	-0.084473
