data_functionalizedCrystal
_audit_creation_method	'MofGen! by Chris Wilmer'
_symmetry_space_group_name_H-M	'P1'
_symmetry_Int_Tables_number	1
_symmetry_cell_setting	triclinic
loop_
_symmetry_equiv_pos_as_xyz
  x,y,z
_cell_length_a	26.210047
_cell_length_b	14.519709
_cell_length_c	14.519709
_cell_angle_alpha	83.680145
_cell_angle_beta	90.003565
_cell_angle_gamma	89.996562
loop_
_atom_site_label
_atom_site_type_symbol
_atom_site_fract_x
_atom_site_fract_y
_atom_site_fract_z
O1	O	0.042364	-1.223875	-0.120878
O2	O	0.042379	-0.955398	-0.135115
O3	O	0.042367	-1.096755	0.006242
O4	O	0.042377	-1.082518	-0.262235
O5	O	-0.042492	-1.096728	0.006220
O6	O	-0.042479	-0.955371	-0.135137
O7	O	-0.042494	-1.223848	-0.120900
Cu8	Cu	-0.050235	-1.089607	-0.128020
Cu9	Cu	0.050120	-1.089639	-0.127994
O10	O	-0.042482	-1.082491	-0.262257
C11	C	-0.000048	-0.921025	-0.134462
C12	C	-0.000042	-0.818643	-0.132474
C13	C	-0.000063	-1.096078	0.040591
C14	C	-0.000063	-1.094089	0.142972
N15	N	-0.120819	-1.089591	-0.128038
C16	C	-0.473338	-1.152225	-0.065416
C17	C	-0.686997	-1.152246	-0.065403
O18	O	-0.714624	-1.205464	-0.012163
N19	N	-0.713713	-1.089644	-0.127974
C20	C	-0.687010	-1.027029	-0.190549
O21	O	-0.714636	-0.973776	-0.243763
C22	C	-0.473353	-1.027005	-0.190556
C23	C	-0.446640	-1.089617	-0.127987
C24	C	-0.446626	-1.214832	-0.002851
C25	C	-0.393214	-1.214830	-0.002858
C26	C	-0.366515	-1.152221	-0.065430
C27	C	-0.393228	-1.089614	-0.127995
C28	C	-0.446651	-0.964385	-0.253126
C29	C	-0.393233	-0.964383	-0.253121
C30	C	-0.366521	-1.026996	-0.190552
C31	C	-0.313118	-1.027003	-0.190574
N32	N	-0.286403	-1.089605	-0.128002
C33	C	-0.313101	-1.152214	-0.065431
C34	C	-0.799184	-1.027047	-0.190542
C35	C	-0.852598	-1.027054	-0.190541
C36	C	-0.852581	-1.152270	-0.065394
C37	C	-0.799166	-1.152267	-0.065399
C38	C	-0.772468	-1.089649	-0.127970
C39	C	-0.200933	-1.152205	-0.065451
C40	C	-0.147517	-1.152199	-0.065466
C41	C	-0.147539	-1.026980	-0.190610
C42	C	-0.200950	-1.026989	-0.190598
C43	C	-0.227646	-1.089604	-0.128011
O44	O	-0.285459	-0.973806	-0.243779
O45	O	-0.285466	-1.205445	-0.012211
C46	C	-0.526750	-1.152228	-0.065408
C47	C	-0.553463	-1.089621	-0.127973
C48	C	-0.526764	-1.027013	-0.190545
C49	C	-0.606877	-1.089628	-0.127972
C50	C	-0.633575	-1.152237	-0.065401
C51	C	-0.606860	-1.214839	-0.002830
C52	C	-0.553448	-1.214836	-0.002837
C53	C	-0.553480	-0.964411	-0.253116
C54	C	-0.606891	-0.964419	-0.253104
C55	C	-0.633590	-1.027028	-0.190533
N56	N	0.120704	-1.089662	-0.127969
C57	C	-0.000066	-1.258221	-0.121553
C58	C	-0.000069	-1.360602	-0.123541
C59	C	-0.000065	-0.443748	-0.125154
C60	C	-0.000059	-0.548056	-0.127187
C61	C	-0.000053	-0.631192	-0.128814
C62	C	-0.000047	-0.735507	-0.130847
C63	C	-0.000051	-1.083168	-0.296606
C64	C	-0.000048	-1.085156	-0.398987
C65	C	-0.000049	-1.086770	0.517868
C66	C	-0.000053	-1.088803	0.413560
C67	C	-0.000056	-1.090430	0.330423
C68	C	-0.000059	-1.092463	0.226109
H69	H	-0.125769	-1.203189	-0.014515
H70	H	-0.777450	-0.976054	-0.241497
H71	H	-0.468393	-0.913401	-0.304075
N72	N	-0.635700	-0.896880	-0.320591
H73	H	-0.610676	-0.857217	-0.360223
H74	H	-0.657856	-0.856059	-0.285179
H75	H	-0.777419	-1.203250	-0.014450
H76	H	-0.371499	-0.913389	-0.304073
N77	N	-0.881382	-1.219801	0.002095
H78	H	-0.919272	-1.210298	-0.007405
H79	H	-0.872046	-1.209036	0.067542
H80	H	-0.531746	-0.913426	-0.304068
H81	H	-0.222700	-0.976013	-0.241556
N82	N	-0.229722	-1.219744	0.002046
H83	H	-0.204688	-1.259403	0.041671
H84	H	-0.251882	-1.260570	-0.033356
H85	H	-0.468359	-1.265815	0.048107
N86	N	-0.364405	-1.282354	0.064632
H87	H	-0.373701	-1.347821	0.053868
H88	H	-0.373714	-1.271543	0.130078
H89	H	-0.125793	-0.976008	-0.241558
H90	H	-0.874344	-0.976079	-0.241500
H91	H	-0.531703	-1.265821	0.048113
N92	N	-0.635661	-1.282372	0.064655
H93	H	-0.673551	-1.272867	0.055158
H94	H	-0.626324	-1.271615	0.130105
