data_functionalizedCrystal
_audit_creation_method	'MofGen! by Chris Wilmer'
_symmetry_space_group_name_H-M	'P1'
_symmetry_Int_Tables_number	1
_symmetry_cell_setting	triclinic
loop_
_symmetry_equiv_pos_as_xyz
  x,y,z
_cell_length_a	6.817900
_cell_length_b	16.255661
_cell_length_c	15.866870
_cell_angle_alpha	112.481265
_cell_angle_beta	102.655915
_cell_angle_gamma	103.488922
loop_
_atom_site_label
_atom_site_type_symbol
_atom_site_fract_x
_atom_site_fract_y
_atom_site_fract_z
V1	V	-4.052302	-0.305528	-0.133532
O2	O	-4.013114	-0.257095	0.005619
O3	O	-4.028858	-0.344425	-0.264004
O4	O	-4.003538	-0.420080	-0.131828
O5	O	-4.038609	-0.180917	-0.127472
V6	V	-4.532744	-0.285644	-0.116847
O7	O	-4.320320	-0.349144	-0.170133
O8	O	-4.714923	-0.242028	-0.080246
O9	O	-4.332981	-0.246747	0.013626
O10	O	-4.689329	-0.334077	-0.255998
O11	O	-4.663834	-0.410255	-0.122906
O12	O	-4.358302	-0.171093	-0.118551
C13	C	-3.879942	-0.350182	-0.295800
C14	C	-3.942057	-0.382749	-0.402465
C15	C	-3.931920	-0.080662	-0.683662
C16	C	-3.990297	-0.111292	-0.783895
C17	C	-4.076067	-0.274974	-0.811728
C18	C	-4.017687	-0.244357	-0.711496
C19	C	-3.945618	-0.147200	-0.647470
C20	C	-4.031385	-0.310896	-0.675303
C21	C	-3.973020	-0.280281	-0.575079
C22	C	-3.900957	-0.183129	-0.511048
C23	C	-3.887253	-0.116586	-0.547246
C24	C	-4.103469	-0.408053	-0.739331
C25	C	-4.117168	-0.474591	-0.703138
C26	C	-4.058788	-0.443977	-0.602912
C27	C	-3.986724	-0.346824	-0.538881
C28	C	-4.072491	-0.510520	-0.566714
C29	C	-4.014126	-0.479906	-0.466491
C30	C	-3.928359	-0.316210	-0.438657
C31	C	-3.847642	-0.446685	-0.127194
C32	C	-3.889220	-0.540600	-0.126665
C33	C	-3.798563	-0.761444	-0.120335
C34	C	-3.970636	-0.856407	-0.202032
C35	C	-3.965414	-0.712539	-0.125671
C36	C	-3.867453	-0.784922	-0.043038
C37	C	-4.038997	-0.878622	-0.124707
C38	C	-4.136983	-0.806294	-0.207441
C39	C	-4.033723	-0.734772	-0.048376
C40	C	-4.205937	-0.829722	-0.130096
C41	C	-3.923020	-0.616863	-0.126227
C42	C	-4.081410	-0.974299	-0.124158
C43	C	-4.145241	-0.240990	0.045416
C44	C	-4.062363	-0.208429	0.152080
C45	C	-4.177540	-0.144484	-0.123187
C46	C	-4.115200	-0.050566	-0.123712
H47	H	-3.869641	-0.237094	-0.386522
Cl48	Cl	-3.973062	-0.027631	-0.829390
Cl49	Cl	-3.930155	-0.937237	-0.302329
H50	H	-4.134760	-0.354080	-0.863871
H51	H	-3.753906	-0.776863	0.026423
Cl52	Cl	-4.312295	-0.819009	-0.314830
Cl53	Cl	-3.827602	-0.144640	-0.385051
Cl54	Cl	-4.472517	-0.875487	-0.136497
H55	H	-4.059868	-0.682396	0.016591
Cl56	Cl	-3.841282	0.041482	-0.603165
Cl57	Cl	-4.176853	-0.446539	-0.865328
Cl58	Cl	-4.207776	-0.596728	-0.783636
Cl59	Cl	-4.163125	-0.632656	-0.647215
Cl60	Cl	-3.796616	0.005558	-0.466748
H61	H	-4.025313	-0.534089	-0.437024
Cl62	Cl	-3.532202	-0.715529	-0.114124
