data_functionalizedCrystal
_audit_creation_method	'MofGen! by Chris Wilmer'
_symmetry_space_group_name_H-M	'P1'
_symmetry_Int_Tables_number	1
_symmetry_cell_setting	triclinic
loop_
_symmetry_equiv_pos_as_xyz
  x,y,z
_cell_length_a	19.188930
_cell_length_b	19.188925
_cell_length_c	17.666332
_cell_angle_alpha	89.989697
_cell_angle_beta	89.988397
_cell_angle_gamma	83.143665
loop_
_atom_site_label
_atom_site_type_symbol
_atom_site_fract_x
_atom_site_fract_y
_atom_site_fract_z
O1	O	0.087151	0.926152	-0.062973
O2	O	0.420484	1.259485	0.270360
O3	O	0.753817	1.592819	0.603694
O4	O	0.098889	0.722840	-0.062972
O5	O	0.432222	1.056173	0.270361
O6	O	0.765556	1.389507	0.603695
O7	O	-0.008636	0.830363	-0.062958
O8	O	0.324697	1.163697	0.270375
O9	O	0.658031	1.497030	0.603709
O10	O	0.194676	0.818629	-0.062987
O11	O	0.528009	1.151962	0.270346
O12	O	0.861342	1.485296	0.603679
O13	O	-0.008642	0.830344	0.062939
O14	O	0.324692	1.163678	0.396272
O15	O	0.658025	1.497011	0.729606
O16	O	0.098883	0.722821	0.062925
O17	O	0.432217	1.056155	0.396258
O18	O	0.765550	1.389488	0.729591
O19	O	0.087145	0.926133	0.062924
O20	O	0.420478	1.259467	0.396257
O21	O	0.753812	1.592800	0.729590
Cu22	Cu	0.093014	0.824476	0.074419
Cu23	Cu	0.426347	1.157809	0.407753
Cu24	Cu	0.759680	1.491142	0.741086
Cu25	Cu	0.093020	0.824498	-0.074468
Cu26	Cu	0.426354	1.157831	0.258865
Cu27	Cu	0.759687	1.491164	0.592199
O28	O	0.194670	0.818610	0.062909
O29	O	0.528003	1.151943	0.396243
O30	O	0.861337	1.485277	0.729576
C31	C	0.098507	0.696820	-0.000023
C32	C	0.431840	1.030153	0.333310
C33	C	0.765173	1.363486	0.666643
C34	C	0.097367	0.619315	-0.000022
C35	C	0.430701	0.952648	0.333311
C36	C	0.764034	1.285982	0.666644
C37	C	0.152831	0.057545	-0.000032
C38	C	0.486165	0.390878	0.333301
C39	C	0.819498	0.724211	0.666634
C40	C	0.153908	0.130368	-0.000037
C41	C	0.487241	0.463701	0.333297
C42	C	0.820575	0.797035	0.666630
C43	C	0.090816	0.175302	-0.000026
C44	C	0.424149	0.508636	0.333307
C45	C	0.757482	0.841969	0.666641
C46	C	0.026642	0.147408	-0.000031
C47	C	0.359976	0.480742	0.333303
C48	C	0.693309	0.814075	0.666636
C49	C	0.025568	0.074586	-0.000034
C50	C	0.358901	0.407920	0.333299
C51	C	0.692234	0.741253	0.666633
N52	N	0.045138	0.295973	0.042837
N53	N	0.378471	0.629306	0.376170
N54	N	0.711804	0.962640	0.709503
N55	N	0.046163	0.365150	0.042842
N56	N	0.379496	0.698484	0.376175
N57	N	0.712830	1.031817	0.709508
C58	C	0.094050	0.394712	-0.000018
C59	C	0.427383	0.728045	0.333316
C60	C	0.760716	1.061378	0.666649
N61	N	0.140883	0.352481	-0.042872
N62	N	0.474217	0.685814	0.290461
N63	N	0.807550	1.019147	0.623795
N64	N	0.139860	0.283297	-0.042874
N65	N	0.473194	0.616630	0.290460
N66	N	0.806527	0.949963	0.623793
C67	C	0.091974	0.254267	-0.000023
C68	C	0.425307	0.587600	0.333310
C69	C	0.758641	0.920933	0.666644
C70	C	0.159386	0.501561	-0.000023
C71	C	0.492720	0.834894	0.333311
C72	C	0.826053	1.168227	0.666644
C73	C	0.160460	0.574385	-0.000032
C74	C	0.493794	0.907719	0.333302
C75	C	0.827127	1.241052	0.666635
C76	C	0.033193	0.591425	-0.000018
C77	C	0.366526	0.924758	0.333315
C78	C	0.699859	1.258091	0.666648
C79	C	0.032121	0.518601	-0.000017
C80	C	0.365454	0.851934	0.333316
C81	C	0.698787	1.185268	0.666650
C82	C	0.095220	0.473673	-0.000016
C83	C	0.428553	0.807006	0.333318
C84	C	0.761886	1.140340	0.666651
C85	C	-0.034650	0.829974	-0.000007
C86	C	0.298683	1.163307	0.333326
C87	C	0.632017	1.496640	0.666659
C88	C	-0.112154	0.828833	-0.000001
C89	C	0.221179	1.162166	0.333333
C90	C	0.554512	1.495500	0.666666
C91	C	-0.157079	0.891924	0.000003
C92	C	0.176254	1.225257	0.333336
C93	C	0.509587	1.558591	0.666669
C94	C	-0.229903	0.890852	-0.000010
C95	C	0.103430	1.224186	0.333324
C96	C	0.436763	1.557519	0.666657
C97	C	-0.257799	0.826686	-0.000010
C98	C	0.075535	1.160020	0.333323
C99	C	0.408868	1.493353	0.666657
C100	C	-0.212864	0.763587	-0.000017
C101	C	0.120470	1.096920	0.333316
C102	C	0.453803	1.430254	0.666649
C103	C	-0.140041	0.764660	-0.000013
C104	C	0.193292	1.097994	0.333320
C105	C	0.526625	1.431327	0.666654
N106	N	-0.365805	0.777632	0.042835
N107	N	-0.032471	1.110966	0.376169
N108	N	0.300862	1.444299	0.709502
N109	N	-0.434983	0.776617	0.042833
N110	N	-0.101650	1.109950	0.376166
N111	N	0.231684	1.443284	0.709499
C112	C	-0.477207	0.823448	-0.000025
C113	C	-0.143874	1.156781	0.333308
C114	C	0.189459	1.490115	0.666642
N115	N	-0.447641	0.871344	-0.042871
N116	N	-0.114307	1.204677	0.290463
N117	N	0.219026	1.538010	0.623796
N118	N	-0.378456	0.872361	-0.042865
N119	N	-0.045123	1.205695	0.290469
N120	N	0.288211	1.539028	0.623802
C121	C	-0.336761	0.825515	-0.000015
C122	C	-0.003428	1.158848	0.333318
C123	C	0.329906	1.492182	0.666651
C124	C	-0.601097	0.885381	-0.000036
C125	C	-0.267763	1.218715	0.333297
C126	C	0.065570	1.552048	0.666631
C127	C	-0.673922	0.884307	-0.000053
C128	C	-0.340588	1.217640	0.333281
C129	C	-0.007255	1.550974	0.666614
C130	C	-0.656880	0.757040	-0.000053
C131	C	-0.323547	1.090373	0.333280
C132	C	0.009786	1.423706	0.666614
C133	C	-0.584057	0.758116	-0.000044
C134	C	-0.250724	1.091449	0.333289
C135	C	0.082610	1.424783	0.666623
C136	C	-0.556170	0.822289	-0.000032
C137	C	-0.222837	1.155622	0.333302
C138	C	0.110497	1.488955	0.666635
C139	C	0.220684	0.819000	-0.000043
C140	C	0.554017	1.152333	0.333290
C141	C	0.887350	1.485666	0.666624
C142	C	0.298188	0.820140	-0.000054
C143	C	0.631522	1.153474	0.333279
C144	C	0.964855	1.486807	0.666612
N145	N	0.093008	0.824465	0.179139
N146	N	0.426342	1.157798	0.512472
N147	N	0.759675	1.491132	0.845806
C148	C	0.087527	0.952154	-0.000027
C149	C	0.420861	1.285487	0.333307
C150	C	0.754194	1.618820	0.666640
C151	C	0.088666	1.029658	-0.000033
C152	C	0.422000	1.362992	0.333301
C153	C	0.755333	1.696325	0.666634
N154	N	0.093020	0.824514	-0.179187
N155	N	0.426353	1.157847	0.154146
N156	N	0.759687	1.491181	0.487479
C157	C	0.045420	0.872092	0.218755
C158	C	0.378753	1.205425	0.552088
C159	C	0.712086	1.538758	0.885422
C160	C	0.045416	0.872096	0.298003
C161	C	0.378750	1.205429	0.631336
C162	C	0.712083	1.538762	0.964669
C163	C	0.093014	0.824480	0.337631
C164	C	0.426347	1.157813	0.670964
C165	C	0.759680	1.491146	1.004298
C166	C	0.140606	0.776844	0.298005
C167	C	0.473939	1.110178	0.631339
C168	C	0.807273	1.443511	0.964672
C169	C	0.140604	0.776837	0.218759
C170	C	0.473937	1.110170	0.552093
C171	C	0.807270	1.443504	0.885426
N172	N	0.154821	0.815404	0.462041
N173	N	0.488155	1.148737	0.795374
N174	N	0.821488	1.482070	1.128707
N175	N	0.154821	0.815415	0.537321
N176	N	0.488155	1.148748	0.870655
N177	N	0.821488	1.482081	1.203988
C178	C	0.093023	0.824498	0.576395
C179	C	0.426357	1.157831	0.909728
C180	C	0.759690	1.491165	1.243062
N181	N	0.031223	0.833584	0.537345
N182	N	0.364556	1.166917	0.870678
N183	N	0.697890	1.500250	1.204011
N184	N	0.031223	0.833576	0.462057
N185	N	0.364557	1.166909	0.795391
N186	N	0.697890	1.500243	1.128724
C187	C	0.093022	0.824482	0.423560
C188	C	0.426355	1.157816	0.756894
C189	C	0.759688	1.491149	1.090227
C190	C	0.045427	0.872132	0.701940
C191	C	0.378760	1.205465	1.035274
C192	C	0.712094	1.538798	1.368607
C193	C	0.045423	0.872131	0.781190
C194	C	0.378756	1.205464	1.114523
C195	C	0.712089	1.538798	1.447856
C196	C	0.140619	0.776883	0.781191
C197	C	0.473952	1.110216	1.114524
C198	C	0.807285	1.443550	1.447858
C199	C	0.140617	0.776880	0.701943
C200	C	0.473950	1.110214	1.035277
C201	C	0.807284	1.443547	1.368610
C202	C	0.093022	0.824509	0.662323
C203	C	0.426355	1.157842	0.995656
C204	C	0.759689	1.491175	1.328990
H205	H	-0.018178	0.628010	-0.000016
H206	H	0.315155	0.961343	0.333318
H207	H	0.648489	1.294676	0.666651
O208	O	-0.242948	0.694379	-0.000008
O209	O	0.090385	1.027712	0.333326
O210	O	0.423718	1.361045	0.666659
H211	H	-0.275716	0.690854	-0.051317
H212	H	0.057618	1.024187	0.282016
H213	H	0.390951	1.357521	0.615350
O214	O	0.223120	0.160453	-0.000030
O215	O	0.556453	0.493786	0.333303
O216	O	0.889786	0.827120	0.666637
H217	H	0.213265	0.218639	-0.000031
H218	H	0.546598	0.551972	0.333302
H219	H	0.879931	0.885306	0.666636
H220	H	-0.103462	0.713282	-0.000015
H221	H	0.229871	1.046616	0.333318
H222	H	0.563204	1.379949	0.666651
H223	H	0.006663	0.910871	0.186498
H224	H	0.339997	1.244205	0.519832
H225	H	0.673330	1.577538	0.853165
O226	O	-0.571009	0.954591	-0.000038
O227	O	-0.237676	1.287925	0.333295
O228	O	0.095657	1.621258	0.666629
H229	H	-0.614487	0.998284	-0.000052
H230	H	-0.281154	1.331618	0.333281
H231	H	0.052180	1.664951	0.666614
H232	H	-0.679592	0.704794	-0.000057
H233	H	-0.346258	1.038128	0.333276
H234	H	-0.012925	1.371461	0.666610
O235	O	-0.535599	0.690065	-0.000028
O236	O	-0.202266	1.023398	0.333305
O237	O	0.131068	1.356731	0.666639
H238	H	-0.545481	0.659347	-0.051337
H239	H	-0.212148	0.992680	0.281996
H240	H	0.121185	1.326014	0.615330
O241	O	-0.722383	0.952358	-0.000043
O242	O	-0.389050	1.285692	0.333290
O243	O	-0.055716	1.619025	0.666624
H244	H	-0.690753	0.997158	-0.000024
H245	H	-0.357420	1.330492	0.333309
H246	H	-0.024087	1.663825	0.666642
H247	H	-0.266488	0.942230	-0.000010
H248	H	0.066845	1.275564	0.333323
H249	H	0.400178	1.608897	0.666657
H250	H	0.006662	0.910880	0.330264
H251	H	0.339995	1.244213	0.663597
H252	H	0.673329	1.577547	0.996931
H253	H	0.179360	0.738074	0.330275
H254	H	0.512693	1.071407	0.663608
H255	H	0.846026	1.404740	0.996942
O256	O	0.191977	0.725547	0.823926
O257	O	0.525310	1.058880	1.157260
O258	O	0.858644	1.392213	1.490593
H259	H	0.225076	0.692433	0.783061
H260	H	0.558410	1.025767	1.116394
H261	H	0.891743	1.359100	1.449727
O262	O	0.191953	0.725520	0.659206
O263	O	0.525286	1.058853	0.992540
O264	O	0.858620	1.392186	1.325873
H265	H	0.225055	0.692413	0.700073
H266	H	0.558389	1.025747	1.033407
H267	H	0.891722	1.359080	1.366740
O268	O	0.220888	0.009091	-0.000037
O269	O	0.554221	0.342424	0.333297
O270	O	0.887554	0.675757	0.666630
H271	H	0.209363	-0.046233	-0.000033
H272	H	0.542697	0.287100	0.333300
H273	H	0.876030	0.620433	0.666633
H274	H	0.179357	0.738053	0.186503
H275	H	0.512690	1.071386	0.519837
H276	H	0.846023	1.404719	0.853170
O277	O	-0.041406	0.195873	-0.000013
O278	O	0.291928	0.529207	0.333321
O279	O	0.625261	0.862540	0.666654
H280	H	-0.072119	0.186001	-0.051327
H281	H	0.261214	0.519334	0.282006
H282	H	0.594548	0.852667	0.615339
H283	H	0.006670	0.910911	0.669680
H284	H	0.340003	1.244245	1.003014
H285	H	0.673337	1.577578	1.336347
O286	O	-0.005900	0.923509	0.823925
O287	O	0.327433	1.256842	1.157258
O288	O	0.660766	1.590176	1.490591
H289	H	-0.038987	0.956631	0.783057
H290	H	0.294347	1.289964	1.116390
H291	H	0.627680	1.623298	1.449724
H292	H	-0.026685	0.051883	-0.000035
H293	H	0.306649	0.385216	0.333299
H294	H	0.639982	0.718549	0.666632
H295	H	0.210765	0.464978	-0.000023
H296	H	0.544098	0.798312	0.333310
H297	H	0.877432	1.131645	0.666644
H298	H	0.212713	0.597088	-0.000038
H299	H	0.546046	0.930421	0.333296
H300	H	0.879380	1.263755	0.666629
H301	H	-0.020129	0.495896	-0.000013
H302	H	0.313204	0.829230	0.333321
H303	H	0.646537	1.162563	0.666654
H304	H	-0.134379	0.944179	0.000010
H305	H	0.198954	1.277512	0.333343
H306	H	0.532288	1.610845	0.666676
