data_functionalizedCrystal
_audit_creation_method	'MofGen! by Chris Wilmer'
_symmetry_space_group_name_H-M	'P1'
_symmetry_Int_Tables_number	1
_symmetry_cell_setting	triclinic
loop_
_symmetry_equiv_pos_as_xyz
  x,y,z
_cell_length_a	12.477989
_cell_length_b	20.875641
_cell_length_c	20.875641
_cell_angle_alpha	60.089808
_cell_angle_beta	89.727317
_cell_angle_gamma	66.703135
loop_
_atom_site_label
_atom_site_type_symbol
_atom_site_fract_x
_atom_site_fract_y
_atom_site_fract_z
Zr1	Zr	1.026129	0.771510	-0.147182
O2	O	0.877113	0.886544	-0.244432
O3	O	1.066235	0.643270	-0.113869
O4	O	1.081210	0.768420	-0.247946
O5	O	0.856668	0.768437	-0.008576
O6	O	1.248548	0.781003	-0.254699
O7	O	0.862138	0.761395	-0.110356
O8	O	1.221760	0.557134	-0.014860
O9	O	0.883455	0.992306	-0.248414
O10	O	1.214958	0.710299	-0.108931
O11	O	1.085994	0.706163	-0.027933
O12	O	1.103625	0.853510	-0.185791
O13	O	0.974660	0.849375	-0.104794
Zr14	Zr	1.284289	0.802810	0.004375
Zr15	Zr	1.293013	0.791579	-0.157953
Zr16	Zr	1.017405	0.782741	0.015145
Zr17	Zr	1.036244	0.940188	-0.153533
Zr18	Zr	1.274174	0.634132	0.010725
O19	O	1.244183	0.931049	-0.028938
O20	O	1.256588	0.915080	-0.259747
O21	O	0.864708	0.902514	-0.013624
O22	O	1.433305	0.687775	0.101625
O23	O	1.445710	0.671806	-0.129183
O24	O	1.053830	0.659240	0.116939
O25	O	1.453750	0.805883	-0.134231
O26	O	1.229208	0.805900	0.105138
O27	O	1.061871	0.793317	0.111891
O28	O	1.448280	0.812925	-0.032452
O29	O	1.095593	1.008259	-0.256975
O30	O	1.214825	0.566061	0.114168
O31	O	1.426963	0.582013	0.105607
O32	O	1.433897	0.573086	-0.023422
O33	O	0.876521	1.001234	-0.119386
O34	O	1.088658	1.017186	-0.127947
O35	O	1.206793	0.720809	0.042984
O36	O	1.335758	0.724945	-0.038013
O37	O	1.224424	0.868157	-0.114874
O38	O	1.095460	0.864021	-0.033877
C39	C	1.142556	0.576169	-0.063460
C40	C	1.138262	0.504561	-0.060764
C41	C	1.203560	0.473077	-0.101777
C42	C	1.199527	0.405790	-0.099236
C43	C	1.130190	0.369990	-0.055687
C44	C	1.064891	0.401476	-0.014669
C45	C	1.068931	0.468759	-0.017205
C46	C	1.110896	0.168528	-0.043562
C47	C	1.106859	0.101242	-0.041031
C48	C	1.241497	0.105559	-0.125597
C49	C	1.245525	0.172846	-0.128134
C50	C	1.180231	0.204324	-0.087113
N51	N	1.126064	0.301213	-0.053091
N52	N	1.184365	0.273096	-0.089705
C53	C	0.821378	0.762056	-0.057931
C54	C	0.708079	0.753537	-0.053359
C55	C	1.489040	0.812263	-0.084876
C56	C	1.602339	0.820783	-0.089449
C57	C	1.166122	0.773111	-0.274450
C58	C	1.169826	0.768343	-0.343362
C59	C	1.167862	0.998151	-0.079348
C60	C	1.172156	1.069759	-0.082044
C61	C	1.113453	0.840856	-0.415858
C62	C	1.116948	0.836372	-0.480606
C63	C	1.176810	0.759374	-0.472857
C64	C	1.233190	0.686855	-0.400354
C65	C	1.229701	0.691341	-0.335607
C66	C	1.193484	0.737943	-0.662196
C67	C	1.196965	0.733463	-0.726949
C68	C	1.080725	0.882981	-0.807198
C69	C	1.077235	0.887459	-0.742446
C70	C	1.133620	0.814941	-0.669949
N71	N	1.180382	0.754788	-0.539039
N72	N	1.130056	0.819528	-0.603769
C73	C	1.144296	0.801209	0.131643
C74	C	1.140593	0.805976	0.200555
C75	C	1.476388	0.601272	-0.076932
C76	C	1.585393	0.538184	-0.078809
C77	C	1.131644	0.590218	0.139587
C78	C	1.123646	0.523377	0.211195
C79	C	1.465475	0.615321	0.126114
C80	C	1.570776	0.557001	0.193150
C81	C	0.844943	0.958999	-0.268922
C82	C	0.739642	1.017319	-0.335958
C83	C	0.834030	0.973047	-0.065875
C84	C	0.725025	1.036136	-0.063999
C85	C	1.178774	0.984102	-0.282394
C86	C	1.186772	1.050942	-0.354002
C87	C	1.573527	0.500911	-0.116715
C88	C	1.675940	0.441640	-0.118493
C89	C	1.790217	0.419639	-0.082360
C90	C	1.802081	0.456918	-0.044453
C91	C	1.699669	0.516192	-0.042680
C92	C	1.182946	0.499634	0.281848
C93	C	1.175426	0.436840	0.349137
C94	C	1.108613	0.397786	0.345772
C95	C	1.049306	0.421535	0.275112
C96	C	1.056819	0.484332	0.207824
C97	C	1.687556	0.531772	0.182351
C98	C	1.786509	0.476983	0.245331
C99	C	1.768679	0.447420	0.319110
C100	C	1.651887	0.472654	0.329908
C101	C	1.552937	0.527446	0.266929
C102	C	0.622862	1.042556	-0.325158
C103	C	0.523911	1.097365	-0.388140
C104	C	0.541741	1.126933	-0.461919
C105	C	0.658533	1.101694	-0.472717
C106	C	0.757482	1.046890	-0.409737
C107	C	0.736892	1.073415	-0.026100
C108	C	0.634481	1.132703	-0.024340
C109	C	0.520204	1.154707	-0.060475
C110	C	0.508340	1.117425	-0.098379
C111	C	0.610750	1.058142	-0.100143
C112	C	1.253595	1.089978	-0.350613
C113	C	1.261134	1.152775	-0.417891
C114	C	1.201841	1.176539	-0.488557
C115	C	1.135016	1.137497	-0.491945
C116	C	1.127485	1.074698	-0.424668
H117	H	1.294659	0.079923	-0.158994
H118	H	0.711927	0.689442	-0.018964
H119	H	1.073066	1.042921	-0.427439
H120	H	0.994908	0.389728	0.272383
Cl121	Cl	1.272228	0.636658	-0.717203
H122	H	0.673036	1.125775	-0.532795
H123	H	1.034820	0.942021	-0.866230
H124	H	0.829933	1.055505	0.003331
Cl125	Cl	0.417333	1.195828	-0.541087
Cl126	Cl	0.391470	1.229234	-0.058249
Cl127	Cl	0.649423	1.179557	0.023318
H128	H	1.849261	0.402805	0.370386
Cl129	Cl	0.904287	1.015165	-0.423326
H130	H	0.598489	0.884873	-0.123849
H131	H	1.301880	1.070639	-0.293079
Cl132	Cl	1.266950	0.548716	0.286098
Cl133	Cl	0.595810	1.011277	-0.147786
Cl134	Cl	1.249997	0.406995	0.437957
Cl135	Cl	1.332688	0.217851	-0.182889
H136	H	0.415282	1.135349	-0.127800
Cl137	Cl	0.600416	1.005396	-0.232414
H138	H	1.207982	1.227676	-0.543333
Cl139	Cl	1.345139	1.201848	-0.413614
H140	H	1.480486	0.518823	-0.146148
Cl141	Cl	1.038192	0.937660	-0.425610
H142	H	1.260015	0.502224	-0.137243
Cl143	Cl	1.629492	0.435479	0.422665
Cl144	Cl	1.406130	0.559149	0.280519
Cl145	Cl	1.264315	0.646773	-0.571063
Cl146	Cl	1.060470	1.167390	-0.580790
Cl147	Cl	1.001919	0.984257	-0.752193
Cl148	Cl	1.046073	0.927536	-0.571743
H149	H	1.252698	0.380156	-0.132632
Cl150	Cl	1.308448	0.590057	-0.390611
Cl151	Cl	1.300588	0.600178	-0.244468
H152	H	1.873597	0.371372	-0.083809
Cl153	Cl	1.019682	0.056240	0.013719
Cl154	Cl	0.377101	1.129078	-0.374547
Cl155	Cl	1.660997	0.394783	-0.166147
H156	H	1.057734	0.194146	-0.010157
H157	H	1.895139	0.438996	-0.015035
H158	H	1.008442	0.372320	0.020794
H159	H	1.709347	0.546533	-0.011808
Cl160	Cl	0.986842	0.508337	0.034358
Cl161	Cl	0.982269	0.514167	0.119006
Cl162	Cl	1.099183	0.318840	0.430371
H163	H	1.881598	0.456443	0.236526
Cl164	Cl	1.710003	0.568933	0.089607
