data_functionalizedCrystal
_audit_creation_method	'MofGen! by Chris Wilmer'
_symmetry_space_group_name_H-M	'P1'
_symmetry_Int_Tables_number	1
_symmetry_cell_setting	triclinic
loop_
_symmetry_equiv_pos_as_xyz
  x,y,z
_cell_length_a	16.109301
_cell_length_b	10.868271
_cell_length_c	16.109301
_cell_angle_alpha	90.002838
_cell_angle_beta	83.461481
_cell_angle_gamma	90.001623
loop_
_atom_site_label
_atom_site_type_symbol
_atom_site_fract_x
_atom_site_fract_y
_atom_site_fract_z
O1	O	1.103132	0.102248	0.106863
O2	O	0.861070	0.102268	0.120162
O3	O	0.988751	0.102245	-0.007518
O4	O	0.975451	0.102271	0.234544
O5	O	0.988739	-0.102399	-0.007514
O6	O	0.861059	-0.102376	0.120167
O7	O	1.103121	-0.102396	0.106867
Zn8	Zn	0.982088	-0.134878	0.113518
Zn9	Zn	0.982103	0.134750	0.113512
O10	O	0.975440	-0.102373	0.234548
C11	C	0.830090	-0.000051	0.119626
C12	C	0.737794	-0.000044	0.118011
C13	C	0.515522	-0.000051	0.190018
C14	C	0.428801	-0.000059	0.188494
C15	C	0.448676	-0.000070	0.037006
C16	C	0.535394	-0.000071	0.038530
C17	C	0.568815	-0.000055	0.115039
C18	C	0.395376	-0.000062	0.111990
C19	C	0.301350	-0.000071	0.110337
C20	C	0.662847	-0.000048	0.116693
N21	N	0.982083	-0.318892	0.113521
C22	C	0.982090	-0.430230	0.113521
C23	C	0.982101	-0.569907	0.113513
C24	C	1.134101	-0.000074	0.107404
C25	C	1.226397	-0.000073	0.109019
C26	C	0.988206	-0.000078	-0.038491
C27	C	0.986591	-0.000079	-0.130786
N28	N	0.982114	0.318764	0.113502
C29	C	1.058599	-0.000066	-0.353059
C30	C	1.057075	-0.000055	-0.439779
C31	C	0.905586	-0.000048	-0.419905
C32	C	0.907111	-0.000049	-0.333186
C33	C	0.983620	-0.000064	-0.299766
C34	C	0.980571	-0.000053	-0.473205
C35	C	0.978918	-0.000042	-0.567231
C36	C	0.985273	-0.000073	-0.205734
C37	C	0.975984	-0.000048	0.265521
C38	C	0.977600	-0.000038	0.357816
H39	H	0.578788	-0.000078	-0.022530
N40	N	1.136755	-0.000085	-0.318933
N41	N	1.203694	-0.000087	-0.366530
H42	H	1.258895	-0.000100	-0.342433
N43	N	1.133665	-0.000091	-0.494215
N44	N	1.149709	-0.086358	-0.544823
H45	H	1.203805	-0.086385	-0.583268
N46	N	0.827445	-0.000030	-0.454059
N47	N	0.826093	-0.000029	-0.531487
H48	H	0.770904	-0.000018	-0.555608
N49	N	0.830509	-0.000035	-0.278754
N50	N	0.762205	-0.000028	-0.308602
H51	H	0.708107	-0.000012	-0.270160
H52	H	0.542730	-0.000047	0.252317
H53	H	0.385413	-0.000058	0.249550
H54	H	0.421454	-0.000090	-0.025285
