data_functionalizedCrystal
_audit_creation_method	'MofGen! by Chris Wilmer'
_symmetry_space_group_name_H-M	'P1'
_symmetry_Int_Tables_number	1
_symmetry_cell_setting	triclinic
loop_
_symmetry_equiv_pos_as_xyz
  x,y,z
_cell_length_a	10.723023
_cell_length_b	14.971486
_cell_length_c	13.448316
_cell_angle_alpha	90.006811
_cell_angle_beta	89.993723
_cell_angle_gamma	95.959162
loop_
_atom_site_label
_atom_site_type_symbol
_atom_site_fract_x
_atom_site_fract_y
_atom_site_fract_z
O1	O	1.655882	-0.125453	-0.082682
O2	O	1.292604	-0.137461	-0.082687
O3	O	1.483980	-0.001309	-0.082677
O4	O	1.464506	-0.261605	-0.082692
O5	O	1.483956	-0.001301	0.082707
O6	O	1.292580	-0.137453	0.082697
O7	O	1.655858	-0.125444	0.082702
Cu8	Cu	1.474217	-0.131448	0.097800
Cu9	Cu	1.474245	-0.131458	-0.097785
O10	O	1.464482	-0.261596	0.082692
C11	C	1.246101	-0.136583	0.000005
C12	C	1.107574	-0.133969	0.000003
C13	C	1.045802	-0.132799	0.085676
C14	C	0.902627	-0.130097	0.085677
C15	C	1.483097	0.032025	0.000014
C16	C	1.480487	0.131336	0.000013
C17	C	1.702360	-0.126322	0.000008
C18	C	1.840887	-0.128936	0.000003
C19	C	1.465365	-0.294930	-0.000002
C20	C	1.467975	-0.394241	-0.000007
N21	N	1.474206	-0.131440	0.235365
C22	C	1.592915	0.187957	0.000016
C23	C	1.590455	0.281270	0.000005
C24	C	1.475566	0.317959	0.000001
C25	C	1.363130	0.261330	-0.000004
C26	C	1.365591	0.168019	-0.000002
C27	C	1.358008	0.455820	-0.000008
C28	C	1.355547	0.549137	-0.000009
C29	C	1.582873	0.569071	-0.000001
C30	C	1.585334	0.475760	0.000002
C31	C	1.472897	0.419137	-0.000001
N32	N	1.474266	-0.131458	-0.235350
C33	C	1.558973	-0.071177	0.287409
C34	C	1.558981	-0.071176	0.391512
C35	C	1.474226	-0.131444	0.443569
C36	C	1.389450	-0.191710	0.391517
C37	C	1.389437	-0.191705	0.287416
C38	C	1.389484	-0.191716	0.608497
C39	C	1.389498	-0.191721	0.712606
C40	C	1.559028	-0.071187	0.712594
C41	C	1.559016	-0.071182	0.608492
C42	C	1.474240	-0.131450	0.556448
H43	H	1.054464	-0.132968	-0.073344
C44	C	1.650877	-0.005783	0.551783
C45	C	1.727363	-0.053764	0.491851
C46	C	1.811873	0.006504	0.439545
H47	H	1.605761	0.031644	0.511201
H48	H	1.701456	0.030213	0.597544
H49	H	1.676790	-0.089744	0.446096
H50	H	1.772507	-0.091188	0.532408
H51	H	1.862452	0.042499	0.485306
H52	H	1.766746	0.043928	0.398970
H53	H	1.863786	-0.026042	0.398883
C54	C	0.911835	-0.130421	-0.097735
C55	C	0.972669	-0.208641	-0.102919
C56	C	1.038062	-0.210035	-0.192933
H57	H	0.854663	-0.129391	-0.151569
H58	H	0.972123	-0.079340	-0.101436
H59	H	0.912388	-0.259709	-0.099227
H60	H	1.029861	-0.209688	-0.049105
H61	H	1.098349	-0.158953	-0.196634
H62	H	0.980881	-0.209002	-0.246760
H63	H	1.079354	-0.263101	-0.196458
H64	H	1.274040	0.121918	-0.000003
C65	C	1.297391	-0.257251	0.552169
C66	C	1.223194	-0.310052	0.620037
C67	C	1.138364	-0.370442	0.568184
H68	H	1.245278	-0.224840	0.511569
H69	H	1.342299	-0.294826	0.511568
H70	H	1.178290	-0.272482	0.660621
H71	H	1.275272	-0.342483	0.660640
H72	H	1.183272	-0.408017	0.527583
H73	H	1.086261	-0.338023	0.527585
H74	H	1.088020	-0.406280	0.614224
H75	H	1.686471	0.158093	0.000026
H76	H	1.098914	-0.133793	0.159024
C77	C	1.650851	-0.005576	0.230974
C78	C	1.630438	0.082439	0.256331
C79	C	1.715040	0.142908	0.204368
H80	H	1.734197	-0.015708	0.247985
H81	H	1.638724	-0.014120	0.161506
H82	H	1.642576	0.090980	0.325783
H83	H	1.547108	0.092600	0.239317
H84	H	1.702912	0.134363	0.134900
H85	H	1.798380	0.132767	0.221383
H86	H	1.701193	0.202632	0.221558
C87	C	1.712487	0.342785	-0.000198
C88	C	1.717751	0.396905	-0.085304
C89	C	1.830162	0.453573	-0.085536
H90	H	1.716368	0.379695	0.057403
H91	H	1.781293	0.307597	-0.000245
H92	H	1.648963	0.432089	-0.085248
H93	H	1.713891	0.360019	-0.142918
H94	H	1.898968	0.418385	-0.085582
H95	H	1.834033	0.490477	-0.027931
H96	H	1.833754	0.490294	-0.143283
C97	C	0.832022	-0.128805	0.183589
C98	C	0.916734	-0.130421	0.262628
C99	C	0.851734	-0.129243	0.352841
H100	H	0.790669	-0.075792	0.187428
H101	H	0.771828	-0.179937	0.187337
H102	H	0.976906	-0.079293	0.258881
H103	H	0.958091	-0.183430	0.258821
H104	H	0.791540	-0.180376	0.356589
H105	H	0.810384	-0.076229	0.356670
H106	H	0.909200	-0.130347	0.406480
C107	C	1.704988	0.630502	0.000201
C108	C	1.774127	0.613851	0.085306
C109	C	1.886611	0.670436	0.085537
H110	H	1.752255	0.619349	-0.057400
H111	H	1.687120	0.691341	0.000247
H112	H	1.791998	0.553025	0.085251
H113	H	1.726898	0.625009	0.142921
H114	H	1.868743	0.731276	0.085584
H115	H	1.933867	0.659279	0.027932
H116	H	1.933530	0.659152	0.143284
C117	C	1.651013	-0.005607	0.768963
C118	C	1.630687	0.082425	0.743636
C119	C	1.715414	0.142853	0.795537
H120	H	1.638976	-0.014110	0.838433
H121	H	1.734322	-0.015822	0.751862
H122	H	1.547398	0.092635	0.760744
H123	H	1.642733	0.090956	0.674175
H124	H	1.798722	0.132639	0.778436
H125	H	1.703370	0.134342	0.865004
H126	H	1.701641	0.202589	0.778353
C127	C	1.230685	0.588801	-0.000083
C128	C	1.132743	0.519244	-0.000126
C129	C	1.017702	0.555748	-0.000212
H130	H	1.224799	0.624783	0.057570
H131	H	1.224963	0.624755	-0.057783
H132	H	1.138462	0.483305	0.057569
H133	H	1.138587	0.483256	-0.057775
H134	H	1.011981	0.591702	-0.057912
H135	H	1.011830	0.591730	0.057442
H136	H	0.951235	0.508560	-0.000250
C137	C	1.297350	-0.257237	0.231086
C138	C	1.223150	-0.310035	0.298954
C139	C	1.138312	-0.370420	0.247101
H140	H	1.245240	-0.224821	0.190488
H141	H	1.342251	-0.294814	0.190482
H142	H	1.178252	-0.272463	0.339541
H143	H	1.275226	-0.342471	0.339554
H144	H	1.183213	-0.407997	0.206497
H145	H	1.086211	-0.337996	0.206505
H146	H	1.087965	-0.406256	0.293141
H147	H	1.320481	-0.240797	0.754985
H148	H	1.628004	-0.022105	0.433886
C149	C	1.235974	0.394297	-0.000214
C150	C	1.230741	0.340149	-0.085310
C151	C	1.118341	0.283471	-0.085535
H152	H	1.232085	0.357406	0.057393
H153	H	1.167160	0.429477	-0.000268
H154	H	1.299537	0.304972	-0.085248
H155	H	1.234609	0.377016	-0.142931
H156	H	1.049526	0.318651	-0.085589
H157	H	1.114462	0.246586	-0.027924
H158	H	1.114770	0.246731	-0.143276
H159	H	1.320434	-0.240777	0.433908
H160	H	1.678887	0.445891	0.000013
H161	H	1.269585	0.291209	-0.000015
