data_functionalizedCrystal
_audit_creation_method	'MofGen! by Chris Wilmer'
_symmetry_space_group_name_H-M	'P1'
_symmetry_Int_Tables_number	1
_symmetry_cell_setting	triclinic
loop_
_symmetry_equiv_pos_as_xyz
  x,y,z
_cell_length_a	19.288864
_cell_length_b	14.853567
_cell_length_c	17.766277
_cell_angle_alpha	89.997439
_cell_angle_beta	89.976791
_cell_angle_gamma	83.385589
loop_
_atom_site_label
_atom_site_type_symbol
_atom_site_fract_x
_atom_site_fract_y
_atom_site_fract_z
O1	O	0.921733	0.112464	-0.062829
O2	O	0.719523	0.127636	-0.062777
O3	O	0.826029	-0.011211	-0.062807
O4	O	0.815227	0.251310	-0.062800
O5	O	0.826011	-0.011218	0.062382
O6	O	0.719504	0.127629	0.062411
O7	O	0.921714	0.112457	0.062359
Cu8	Cu	0.820607	0.120042	0.073816
Cu9	Cu	0.820630	0.120051	-0.074234
O10	O	0.815208	0.251303	0.062389
C11	C	0.693636	0.127144	-0.000176
C12	C	0.616527	0.125679	-0.000157
C13	C	0.825530	-0.044800	-0.000215
C14	C	0.824064	-0.144875	-0.000221
C15	C	0.572106	0.207147	-0.000166
C16	C	0.499654	0.205770	-0.000175
C17	C	0.471627	0.122920	-0.000188
C18	C	0.516058	0.041441	-0.000175
C19	C	0.588508	0.042820	-0.000159
C20	C	0.363152	0.057794	-0.044075
C21	C	0.290703	0.056418	-0.044095
C22	C	0.248167	0.118664	-0.000234
C23	C	0.278088	0.182300	0.043638
C24	C	0.350538	0.183679	0.043654
C25	C	0.393068	0.121416	-0.000205
C26	C	0.125185	0.198645	-0.000252
C27	C	0.052732	0.197265	-0.000255
C28	C	0.069138	0.032933	-0.000263
C29	C	0.141589	0.034316	-0.000252
C30	C	0.169608	0.117174	-0.000250
C31	C	0.754596	-0.557014	-0.000189
C32	C	0.881128	-0.579015	-0.000221
C33	C	0.882507	-0.484989	-0.000226
C34	C	0.819930	-0.426971	-0.000211
C35	C	0.755974	-0.462979	-0.000191
C36	C	0.946462	-0.448973	-0.000239
C37	C	0.947844	-0.354942	-0.000242
C38	C	0.885266	-0.296923	-0.000233
C39	C	0.821307	-0.332936	-0.000214
C40	C	0.758730	-0.274918	-0.000199
C41	C	0.694770	-0.310930	-0.000185
C42	C	0.693396	-0.404960	-0.000181
C43	C	0.886641	-0.202893	-0.000236
C44	C	0.760107	-0.180883	-0.000201
C45	C	0.947601	0.112949	-0.000243
C46	C	1.024710	0.114414	-0.000268
C47	C	0.815707	0.284893	-0.000205
C48	C	0.817174	0.384968	-0.000204
N49	N	0.820597	0.120036	0.177946
N50	N	0.820646	0.120050	-0.178364
C51	C	0.867773	0.058585	0.217320
C52	C	0.867777	0.058581	0.296122
C53	C	0.820612	0.120043	0.335547
C54	C	0.773427	0.181499	0.296164
C55	C	0.773419	0.181495	0.217363
C56	C	0.811590	0.202186	0.460389
C57	C	0.811602	0.202191	0.539187
C58	C	0.820630	0.120054	0.578593
C59	C	0.829661	0.037908	0.539190
C60	C	0.829653	0.037905	0.460390
C61	C	0.820614	0.120053	0.420992
C62	C	0.867813	0.058593	0.703413
C63	C	0.867813	0.058588	0.782216
C64	C	0.773465	0.181514	0.782256
C65	C	0.773463	0.181511	0.703455
C66	C	0.820640	0.120052	0.664038
H67	H	0.594914	0.274617	-0.000166
H68	H	0.837012	-0.028976	0.571273
H69	H	0.932075	-0.626258	-0.000228
H70	H	0.999924	-0.325630	-0.000255
Br71	Br	0.391144	0.270036	0.103193
H72	H	0.997409	-0.496218	-0.000244
Br73	Br	0.973435	-0.154022	-0.000237
H74	H	0.735022	0.231541	0.328267
H75	H	0.243457	0.232986	0.079354
Br76	Br	0.667798	-0.605883	-0.000181
Br77	Br	0.201879	-0.076255	-0.000241
H78	H	0.709148	-0.133651	-0.000192
Br79	Br	0.163215	0.311092	-0.000243
Br80	Br	-0.007557	0.307840	-0.000262
Br81	Br	0.609848	-0.232181	-0.000155
Br82	Br	0.250102	-0.029933	-0.103645
H83	H	0.906227	0.008542	0.814275
H84	H	0.463479	0.272114	-0.000180
H85	H	0.906186	0.008539	0.185229
H86	H	0.046319	-0.034525	-0.000321
H87	H	0.735002	0.231537	0.185305
H88	H	0.397779	0.007104	-0.079796
Br89	Br	0.606601	-0.453839	-0.000168
H90	H	0.906195	0.008538	0.328186
H91	H	0.837004	-0.028981	0.428312
H92	H	0.493234	-0.026016	-0.000196
H93	H	0.906226	0.008547	0.671318
H94	H	0.735059	0.231554	0.814356
H95	H	0.804254	0.269079	0.571263
Br96	Br	0.709437	0.264916	0.650013
Br97	Br	0.648799	-0.067753	-0.000144
Br98	Br	0.799407	0.313671	0.406917
