data_functionalizedCrystal
_audit_creation_method	'MofGen! by Chris Wilmer'
_symmetry_space_group_name_H-M	'P1'
_symmetry_Int_Tables_number	1
_symmetry_cell_setting	triclinic
loop_
_symmetry_equiv_pos_as_xyz
  x,y,z
_cell_length_a	18.760492
_cell_length_b	14.560438
_cell_length_c	14.560438
_cell_angle_alpha	60.005846
_cell_angle_beta	89.998460
_cell_angle_gamma	59.998188
loop_
_atom_site_label
_atom_site_type_symbol
_atom_site_fract_x
_atom_site_fract_y
_atom_site_fract_z
Zr1	Zr	0.686727	1.005160	-0.120367
O2	O	0.572917	1.196750	-0.266988
O3	O	0.721612	0.813574	-0.075439
O4	O	0.721621	1.005159	-0.267014
O5	O	0.572906	1.005165	0.075726
O6	O	0.838926	1.005153	-0.267012
O7	O	0.572908	1.005165	-0.075414
O8	O	0.838910	0.662442	0.075680
O9	O	0.572922	1.347876	-0.266966
O10	O	0.824039	0.892370	-0.056253
O11	O	0.736493	0.892374	0.056539
O12	O	0.736504	1.117941	-0.169015
O13	O	0.648959	1.117945	-0.056223
Zr14	Zr	0.873811	1.005151	0.120686
Zr15	Zr	0.873815	1.005151	-0.120364
Zr16	Zr	0.686724	1.005160	0.120683
Zr17	Zr	0.686735	1.246188	-0.120332
Zr18	Zr	0.873804	0.764123	0.120651
O19	O	0.838927	1.196738	0.075758
O20	O	0.838932	1.196738	-0.266984
O21	O	0.572912	1.196750	0.075754
O22	O	0.987622	0.813561	0.267307
O23	O	0.987627	0.813561	-0.075435
O24	O	0.721607	0.813573	0.267303
O25	O	0.987633	1.005146	-0.075407
O26	O	0.838918	1.005152	0.267333
O27	O	0.721613	1.005158	0.267331
O28	O	0.987631	1.005146	0.075733
O29	O	0.721632	1.347869	-0.266964
O30	O	0.838907	0.662442	0.267283
O31	O	0.987617	0.662435	0.267285
O32	O	0.987620	0.662436	0.075682
O33	O	0.572919	1.347875	-0.075363
O34	O	0.721629	1.347869	-0.075361
O35	O	0.824035	0.892370	0.169334
O36	O	0.911580	0.892366	0.056542
O37	O	0.824046	1.117937	-0.056220
O38	O	0.736500	1.117941	0.056572
C39	C	0.780260	0.703667	0.000115
C40	C	0.780257	0.601344	0.000100
C41	C	0.715639	0.636474	-0.083122
C42	C	0.715653	0.540285	-0.083065
C43	C	0.844906	0.373837	0.083445
C44	C	0.844895	0.470026	0.083383
C45	C	0.641014	0.732570	-0.179253
C46	C	0.641028	0.636381	-0.179196
C47	C	0.546251	1.005166	0.000156
C48	C	0.466828	1.005170	0.000155
C49	C	0.429512	1.005174	0.083421
C50	C	0.429518	1.005159	-0.083108
C51	C	0.354898	1.005155	-0.083108
C52	C	0.317582	1.005159	0.000158
C53	C	0.354886	1.005166	0.083425
C54	C	0.317594	1.005135	-0.166367
C55	C	0.242969	1.005130	-0.166371
C56	C	0.205649	1.005143	-0.083108
C57	C	0.242957	1.005152	0.000161
C58	C	0.205641	1.005156	0.083428
C59	C	0.242944	1.005174	0.166693
C60	C	0.317565	1.005180	0.166687
C61	C	0.131027	1.005137	-0.083102
C62	C	0.131015	1.005148	0.083431
C63	C	1.014288	1.005145	0.000163
C64	C	1.093711	1.005141	0.000164
C65	C	0.780274	1.005156	-0.301358
C66	C	0.780276	1.005156	-0.403690
C67	C	0.780279	1.306644	0.000204
C68	C	0.780282	1.408967	0.000219
C69	C	0.844896	1.005159	-0.451773
C70	C	0.844892	1.005153	-0.547922
C71	C	0.715640	1.005148	-0.547899
C72	C	0.715648	1.005145	-0.451747
C73	C	0.919517	1.005167	-0.451790
C74	C	0.919513	1.005162	-0.547939
C75	C	0.780265	1.005155	0.301677
C76	C	0.780263	1.005155	0.404009
C77	C	1.014278	0.703656	0.000119
C78	C	1.093699	0.601330	0.000105
C79	C	0.780255	0.703666	0.301633
C80	C	0.780251	0.601343	0.403950
C81	C	1.014274	0.703655	0.301636
C82	C	1.093693	0.601329	0.403955
C83	C	0.546265	1.306656	-0.301317
C84	C	0.466846	1.408982	-0.403636
C85	C	0.546261	1.306655	0.000200
C86	C	0.466840	1.408981	0.000214
C87	C	0.780284	1.306645	-0.301313
C88	C	0.780288	1.408968	-0.403631
C89	C	1.085300	0.553279	-0.058789
C90	C	1.159917	0.457145	-0.058825
C91	C	1.242932	0.409059	0.000042
C92	C	1.251329	0.457120	0.058938
C93	C	1.176713	0.553258	0.058966
C94	C	1.176694	0.553273	0.393128
C95	C	1.251324	0.457140	0.489258
C96	C	1.242950	0.409058	0.596213
C97	C	1.159940	0.457123	0.607038
C98	C	1.085312	0.553261	0.510909
C99	C	0.383845	1.457049	-0.392809
C100	C	0.309215	1.553212	-0.488939
C101	C	0.317589	1.601300	-0.595894
C102	C	0.400599	1.553229	-0.606719
C103	C	0.475227	1.457074	-0.510590
C104	C	0.475239	1.457043	0.059098
C105	C	0.400622	1.553202	0.059107
C106	C	0.317607	1.601292	0.000238
C107	C	0.309210	1.553227	-0.058654
C108	C	0.383826	1.457076	-0.058669
C109	C	0.825946	0.553265	0.510897
C110	C	0.825934	0.457127	0.607031
C111	C	0.734532	0.457150	0.489257
C112	C	0.734539	0.553293	0.393126
C113	C	0.878719	0.553246	0.578893
C114	C	0.878708	0.457108	0.675027
H115	H	0.897532	0.266909	0.151252
Cl116	Cl	0.980947	0.613715	-0.132808
Cl117	Cl	0.542638	0.653071	-0.166367
Cl118	Cl	0.579592	1.396613	0.133109
H119	H	0.906479	1.098433	-0.468592
Cl120	Cl	0.677068	0.396739	0.475660
Cl121	Cl	1.355698	0.396648	0.132942
H122	H	1.318907	0.418015	0.480424
H123	H	0.377010	1.417902	-0.305729
H124	H	1.153062	0.418026	-0.106785
H125	H	0.407477	1.592321	0.107068
H126	H	1.303724	0.330776	0.674478
H127	H	0.241632	1.592336	-0.480103
H128	H	0.100635	1.005158	0.151234
Cl129	Cl	1.017914	0.865608	-0.341741
H130	H	0.256815	1.679595	-0.674159
Cl131	Cl	1.149428	0.396660	0.741505
Cl132	Cl	0.579569	1.396649	-0.524220
Cl133	Cl	0.223812	1.722167	0.000270
H134	H	1.183564	0.592368	0.106932
H135	H	1.303682	0.330776	0.000010
H136	H	0.897520	0.441411	0.151142
H137	H	0.347982	1.005123	-0.234156
Cl138	Cl	0.204841	1.613691	-0.132651
H139	H	0.581662	0.792247	-0.162458
H140	H	0.647439	0.795545	-0.261384
H141	H	1.017731	0.592375	0.519740
H142	H	0.654067	0.636347	-0.255653
Cl143	Cl	0.196030	1.005166	0.271373
Cl144	Cl	0.411111	1.613690	-0.741186
H145	H	0.849372	0.643252	0.578923
H146	H	0.946280	0.517112	0.570160
Cl147	Cl	0.373252	1.396659	-0.132694
Cl148	Cl	1.187244	0.613708	0.258681
H149	H	0.697319	0.592448	0.306047
H150	H	0.843895	0.493238	0.725955
H151	H	0.347943	1.005192	0.234480
H152	H	0.948577	0.367089	0.727213
H153	H	0.459884	1.005194	0.151212
H154	H	0.459907	1.005146	-0.150896
H155	H	0.212601	1.005117	-0.234170
H156	H	0.100662	1.005114	-0.150891
H157	H	0.663022	1.005137	-0.587037
H158	H	0.978865	0.911895	-0.531140
Cl159	Cl	0.634420	1.005115	-0.391286
Cl160	Cl	0.909584	1.144722	-0.658006
