data_functionalizedCrystal
_audit_creation_method	'MofGen! by Chris Wilmer'
_symmetry_space_group_name_H-M	'P1'
_symmetry_Int_Tables_number	1
_symmetry_cell_setting	triclinic
loop_
_symmetry_equiv_pos_as_xyz
  x,y,z
_cell_length_a	19.188930
_cell_length_b	11.792241
_cell_length_c	10.268362
_cell_angle_alpha	90.005428
_cell_angle_beta	90.018465
_cell_angle_gamma	83.669098
loop_
_atom_site_label
_atom_site_type_symbol
_atom_site_fract_x
_atom_site_fract_y
_atom_site_fract_z
O1	O	-0.926947	-0.141694	-0.108720
O2	O	-0.676947	0.108306	0.141280
O3	O	-0.426947	0.358306	0.391280
O4	O	-0.176947	0.608306	0.641280
O5	O	-0.723744	-0.160769	-0.108631
O6	O	-0.473744	0.089231	0.141369
O7	O	-0.223744	0.339231	0.391369
O8	O	0.026256	0.589231	0.641369
O9	O	-0.830277	0.014013	-0.108668
O10	O	-0.580277	0.264013	0.141332
O11	O	-0.330277	0.514013	0.391332
O12	O	-0.080277	0.764013	0.641332
O13	O	-0.820415	-0.316476	-0.108682
O14	O	-0.570415	-0.066476	0.141318
O15	O	-0.320415	0.183524	0.391318
O16	O	-0.070415	0.433524	0.641318
O17	O	-0.830268	0.014020	0.107932
O18	O	-0.580268	0.264020	0.357932
O19	O	-0.330268	0.514020	0.607932
O20	O	-0.080268	0.764020	0.857932
O21	O	-0.723735	-0.160762	0.107970
O22	O	-0.473735	0.089238	0.357970
O23	O	-0.223735	0.339238	0.607970
O24	O	0.026265	0.589238	0.857970
O25	O	-0.926938	-0.141687	0.107881
O26	O	-0.676938	0.108313	0.357881
O27	O	-0.426938	0.358313	0.607881
O28	O	-0.176938	0.608313	0.857881
Cu29	Cu	-0.825336	-0.151224	0.127703
Cu30	Cu	-0.575336	0.098776	0.377703
Cu31	Cu	-0.325336	0.348776	0.627703
Cu32	Cu	-0.075336	0.598776	0.877703
Cu33	Cu	-0.825347	-0.151232	-0.128453
Cu34	Cu	-0.575347	0.098768	0.121547
Cu35	Cu	-0.325347	0.348768	0.371547
Cu36	Cu	-0.075347	0.598768	0.621547
O37	O	-0.820405	-0.316469	0.107919
O38	O	-0.570405	-0.066469	0.357919
O39	O	-0.320405	0.183531	0.607919
O40	O	-0.070405	0.433531	0.857919
C41	C	-0.829653	0.056298	-0.000368
C42	C	-0.579653	0.306298	0.249632
C43	C	-0.329653	0.556298	0.499632
C44	C	-0.079653	0.806298	0.749632
C45	C	-0.827799	0.182284	-0.000368
C46	C	-0.577799	0.432284	0.249632
C47	C	-0.327799	0.682284	0.499632
C48	C	-0.077799	0.932284	0.749632
C49	C	-0.697725	-0.160148	-0.000319
C50	C	-0.447725	0.089852	0.249681
C51	C	-0.197725	0.339852	0.499681
C52	C	0.052275	0.589852	0.749681
C53	C	-0.620210	-0.158293	-0.000285
C54	C	-0.370210	0.091707	0.249715
C55	C	-0.120210	0.341707	0.499715
C56	C	0.129790	0.591707	0.749715
C57	C	-0.952957	-0.142309	-0.000434
C58	C	-0.702957	0.107691	0.249566
C59	C	-0.452957	0.357691	0.499566
C60	C	-0.202957	0.607691	0.749566
C61	C	-1.030472	-0.144163	-0.000477
C62	C	-0.780472	0.105837	0.249523
C63	C	-0.530472	0.355837	0.499523
C64	C	-0.280472	0.605837	0.749523
C65	C	-0.575867	-0.260849	-0.000309
C66	C	-0.325867	-0.010849	0.249691
C67	C	-0.075867	0.239151	0.499691
C68	C	0.174133	0.489151	0.749691
C69	C	-0.503033	-0.259107	-0.000324
C70	C	-0.253033	-0.009107	0.249676
C71	C	-0.003033	0.240893	0.499676
C72	C	0.246967	0.490893	0.749676
C73	C	-0.474546	-0.154803	-0.000339
C74	C	-0.224546	0.095197	0.249661
C75	C	0.025454	0.345197	0.499661
C76	C	0.275454	0.595197	0.749661
C77	C	-0.518899	-0.052234	-0.000307
C78	C	-0.268899	0.197766	0.249693
C79	C	-0.018899	0.447766	0.499693
C80	C	0.231101	0.697766	0.749693
C81	C	-0.591731	-0.053979	-0.000280
C82	C	-0.341731	0.196021	0.249720
C83	C	-0.091731	0.446021	0.499720
C84	C	0.158269	0.696021	0.749720
N85	N	-0.366117	-0.075079	-0.074107
N86	N	-0.116117	0.174921	0.175893
N87	N	0.133883	0.424921	0.425893
N88	N	0.383883	0.674921	0.675893
N89	N	-0.296929	-0.073428	-0.074136
N90	N	-0.046929	0.176572	0.175864
N91	N	0.203071	0.426572	0.425864
N92	N	0.453071	0.676572	0.675864
C93	C	-0.255107	-0.149540	-0.000419
C94	C	-0.005107	0.100460	0.249581
C95	C	0.244893	0.350460	0.499581
C96	C	0.494893	0.600460	0.749581
N97	N	-0.285086	-0.227382	0.073312
N98	N	-0.035086	0.022618	0.323312
N99	N	0.214914	0.272618	0.573312
N100	N	0.464914	0.522618	0.823312
N101	N	-0.354280	-0.229036	0.073335
N102	N	-0.104280	0.020964	0.323335
N103	N	0.145720	0.270964	0.573335
N104	N	0.395720	0.520964	0.823335
C105	C	-0.395573	-0.152900	-0.000368
C106	C	-0.145573	0.097100	0.249632
C107	C	0.104427	0.347100	0.499632
C108	C	0.354427	0.597100	0.749632
C109	C	-0.131789	-0.250214	-0.000457
C110	C	0.118211	-0.000214	0.249543
C111	C	0.368211	0.249786	0.499543
C112	C	0.618211	0.499786	0.749543
C113	C	-0.058955	-0.248468	-0.000463
C114	C	0.191045	0.001532	0.249537
C115	C	0.441045	0.251532	0.499537
C116	C	0.691045	0.501532	0.749537
C117	C	-0.074822	-0.041591	-0.000460
C118	C	0.175178	0.208409	0.249540
C119	C	0.425178	0.458409	0.499540
C120	C	0.675178	0.708409	0.749540
C121	C	-0.147655	-0.043341	-0.000440
C122	C	0.102345	0.206659	0.249560
C123	C	0.352345	0.456659	0.499560
C124	C	0.602345	0.706659	0.749560
C125	C	-0.176134	-0.147655	-0.000445
C126	C	0.073866	0.102345	0.249555
C127	C	0.323866	0.352345	0.499555
C128	C	0.573866	0.602345	0.749555
C129	C	-0.821029	-0.358754	-0.000385
C130	C	-0.571029	-0.108754	0.249615
C131	C	-0.321029	0.141246	0.499615
C132	C	-0.071029	0.391246	0.749615
C133	C	-0.822884	-0.484740	-0.000393
C134	C	-0.572884	-0.234740	0.249607
C135	C	-0.322884	0.015260	0.499607
C136	C	-0.072884	0.265260	0.749607
N137	N	-0.825333	-0.151217	0.307869
N138	N	-0.575333	0.098783	0.557869
N139	N	-0.325333	0.348783	0.807869
N140	N	-0.075333	0.598783	1.057869
C141	C	-0.824389	0.412945	-0.000389
C142	C	-0.574389	0.662945	0.249611
C143	C	-0.324389	0.912945	0.499611
C144	C	-0.074389	1.162945	0.749611
C145	C	-0.826283	0.284588	-0.000378
C146	C	-0.576283	0.534588	0.249622
C147	C	-0.326283	0.784588	0.499622
C148	C	-0.076283	1.034588	0.749622
N149	N	-0.825355	-0.151230	-0.308618
N150	N	-0.575355	0.098770	-0.058618
N151	N	-0.325355	0.348770	0.191382
N152	N	-0.075355	0.598770	0.441382
C153	C	-0.825343	-0.151230	0.573539
C154	C	-0.575343	0.098770	0.823539
C155	C	-0.325343	0.348770	1.073539
C156	C	-0.075343	0.598770	1.323539
C157	C	-0.825335	-0.151226	0.425701
C158	C	-0.575335	0.098774	0.675701
C159	C	-0.325335	0.348774	0.925701
C160	C	-0.075335	0.598774	1.175701
H161	H	-0.599050	-0.345790	-0.000316
H162	H	-0.349050	-0.095790	0.249684
H163	H	-0.099050	0.154210	0.499684
H164	H	0.150950	0.404210	0.749684
H165	H	-0.154978	-0.335153	-0.000442
H166	H	0.095022	-0.085153	0.249558
H167	H	0.345022	0.164847	0.499558
H168	H	0.595022	0.414847	0.749558
F169	F	-0.488580	0.058774	-0.000318
F170	F	-0.238580	0.308774	0.249682
F171	F	0.011420	0.558774	0.499682
F172	F	0.261420	0.808774	0.749682
H173	H	-0.183760	0.040172	-0.000427
H174	H	0.066240	0.290172	0.249573
H175	H	0.316240	0.540172	0.499573
H176	H	0.566240	0.790172	0.749573
F177	F	-0.011761	-0.357628	-0.000483
F178	F	0.238239	-0.107628	0.249517
F179	F	0.488239	0.142372	0.499517
F180	F	0.738239	0.392372	0.749517
F181	F	-0.455831	-0.368266	-0.000346
F182	F	-0.205831	-0.118266	0.249654
F183	F	0.044169	0.131734	0.499654
F184	F	0.294169	0.381734	0.749654
H185	H	-0.627836	0.029537	-0.000260
H186	H	-0.377836	0.279537	0.249740
H187	H	-0.127836	0.529537	0.499740
H188	H	0.122164	0.779537	0.749740
F189	F	-0.044508	0.069418	-0.000464
F190	F	0.205492	0.319418	0.249536
F191	F	0.455492	0.569418	0.499536
F192	F	0.705492	0.819418	0.749536
