data_functionalizedCrystal
_audit_creation_method	'MofGen! by Chris Wilmer'
_symmetry_space_group_name_H-M	'P1'
_symmetry_Int_Tables_number	1
_symmetry_cell_setting	triclinic
loop_
_symmetry_equiv_pos_as_xyz
  x,y,z
_cell_length_a	14.044220
_cell_length_b	10.654541
_cell_length_c	9.130307
_cell_angle_alpha	90.003083
_cell_angle_beta	89.996652
_cell_angle_gamma	88.836403
loop_
_atom_site_label
_atom_site_type_symbol
_atom_site_fract_x
_atom_site_fract_y
_atom_site_fract_z
O1	O	-1.259693	-0.302984	-0.121643
O2	O	-0.983652	-0.292051	-0.121680
O3	O	-1.128020	-0.115416	-0.121651
O4	O	-1.115324	-0.479619	-0.121671
O5	O	-1.128015	-0.115413	0.121948
O6	O	-0.983647	-0.292048	0.121919
O7	O	-1.259688	-0.302982	0.121956
Cu8	Cu	-1.121667	-0.297515	0.144180
Cu9	Cu	-1.121672	-0.297518	-0.143904
O10	O	-1.115319	-0.479617	0.121928
C11	C	-1.127086	-0.068523	0.000147
C12	C	-1.124298	0.071201	0.000144
C13	C	-0.948303	-0.287264	0.000115
C14	C	-0.842984	-0.272988	0.000101
C15	C	-1.295036	-0.307769	0.000158
C16	C	-1.400356	-0.322044	0.000163
C17	C	-0.650151	-0.246889	0.000132
C18	C	-0.593183	-0.348138	0.000132
C19	C	-0.485884	-0.333616	0.000149
C20	C	-0.757460	-0.261409	0.000115
C21	C	-1.116253	-0.526510	0.000126
C22	C	-1.119041	-0.666233	0.000120
N23	N	-1.121670	-0.297513	0.346803
C24	C	-1.296930	0.081824	0.000186
C25	C	-1.381932	0.152776	0.000210
C26	C	-1.379307	0.284058	0.000205
C27	C	-1.291671	0.344390	0.000172
C28	C	-1.206668	0.273437	0.000148
C29	C	-1.209303	0.142153	0.000158
C30	C	-1.034039	0.262814	0.000096
C31	C	-1.036662	0.131533	0.000111
C32	C	-0.946402	0.323146	0.000063
C33	C	-0.861398	0.252194	0.000050
C34	C	-0.864026	0.120904	0.000056
C35	C	-0.951659	0.060580	0.000088
N36	N	-1.121677	-0.297511	-0.346526
C37	C	-1.249561	-0.141158	0.346818
C38	C	-1.313512	-0.062984	0.423493
C39	C	-1.313522	-0.062984	0.576826
C40	C	-1.249571	-0.141164	0.653489
C41	C	-1.185619	-0.219337	0.576814
C42	C	-1.185619	-0.219331	0.423478
C43	C	-1.057725	-0.375684	0.576799
C44	C	-1.057719	-0.375692	0.423466
C45	C	-0.993774	-0.453863	0.653462
C46	C	-0.929826	-0.532045	0.576788
C47	C	-0.929819	-0.532042	0.423445
C48	C	-0.993767	-0.453865	0.346792
H49	H	-0.618341	-0.149310	0.000145
O50	O	-1.375539	0.013110	0.349052
C51	C	-1.359364	0.139277	0.386507
H52	H	-1.283429	0.148507	0.428680
H53	H	-1.369861	0.201083	0.285642
H54	H	-1.411722	0.170264	0.475482
H55	H	-1.299076	-0.025072	0.000210
O56	O	-0.867660	-0.608100	0.349195
C57	C	-0.811207	-0.677069	0.449746
H58	H	-0.850109	-0.682877	0.559047
H59	H	-0.797378	-0.775803	0.405443
H60	H	-0.740483	-0.628300	0.466055
H61	H	-0.993781	-0.453854	0.778314
H62	H	-1.453284	0.103639	0.000250
O63	O	-0.631008	-0.464632	-0.000096
C64	C	-0.600479	-0.530258	-0.126288
H65	H	-0.531577	-0.488451	-0.168321
H66	H	-0.587554	-0.633404	-0.097941
H67	H	-0.657617	-0.521987	-0.214643
H68	H	-0.877757	-0.595687	0.639216
O69	O	-1.461787	0.353176	0.000163
C70	C	-1.440670	0.481984	0.000193
H71	H	-1.366132	0.495339	-0.045948
H72	H	-1.494799	0.535272	-0.070515
H73	H	-1.444003	0.519497	0.117060
O74	O	-1.375683	0.012778	0.651472
C75	C	-1.434655	-0.061139	0.740131
H76	H	-1.397515	-0.155218	0.763090
H77	H	-1.449324	-0.010380	0.847962
H78	H	-1.504811	-0.077588	0.681036
H79	H	-0.790051	0.301327	0.000013
O80	O	-1.288997	0.471908	0.000345
C81	C	-1.240785	0.512880	0.126507
H82	H	-1.191897	0.434131	0.168573
H83	H	-1.196592	0.598092	0.098105
H84	H	-1.294877	0.539548	0.214857
O85	O	-0.943802	0.450669	-0.000206
C86	C	-0.895569	0.491607	-0.126367
H87	H	-0.898615	0.416039	-0.214544
H88	H	-0.931005	0.581721	-0.168706
H89	H	-0.818086	0.510164	-0.097870
H90	H	-0.993771	-0.453861	0.221939
H91	H	-0.794807	0.063142	0.000031
O92	O	-0.954336	-0.066938	0.000290
C93	C	-1.002528	-0.107877	0.126488
H94	H	-1.051406	-0.029115	0.168567
H95	H	-1.046729	-0.193093	0.098130
H96	H	-0.948422	-0.134528	0.214812
O97	O	-1.249732	-0.141177	0.197871
C98	C	-1.339924	-0.176928	0.146649
H99	H	-1.395644	-0.157483	0.235015
H100	H	-1.358965	-0.120827	0.044068
H101	H	-1.338096	-0.281381	0.119444
H102	H	-1.249575	-0.141148	0.778341
