data_functionalizedCrystal
_audit_creation_method	'MofGen! by Chris Wilmer'
_symmetry_space_group_name_H-M	'P1'
_symmetry_Int_Tables_number	1
_symmetry_cell_setting	triclinic
loop_
_symmetry_equiv_pos_as_xyz
  x,y,z
_cell_length_a	8.497374
_cell_length_b	8.497374
_cell_length_c	11.169417
_cell_angle_alpha	89.997965
_cell_angle_beta	89.999315
_cell_angle_gamma	90.005237
loop_
_atom_site_label
_atom_site_type_symbol
_atom_site_fract_x
_atom_site_fract_y
_atom_site_fract_z
Zn1	Zn	0.628404	0.892119	-1.834807
Zn2	Zn	1.128404	1.392119	-1.334807
Zn3	Zn	0.892150	0.628385	-1.834798
Zn4	Zn	1.392150	1.128385	-1.334798
Zn5	Zn	0.628370	0.628345	-1.634162
Zn6	Zn	1.128370	1.128345	-1.134162
Zn7	Zn	0.892128	0.892115	-1.634133
Zn8	Zn	1.392128	1.392115	-1.134133
O9	O	0.760263	0.760241	-1.734475
O10	O	1.260263	1.260241	-1.234475
O11	O	0.663415	0.857153	-2.002756
O12	O	1.163415	1.357153	-1.502756
O13	O	0.857154	0.407617	-1.808191
O14	O	1.357154	0.907617	-1.308191
O15	O	0.407612	0.663321	-1.660794
O16	O	0.907612	1.163321	-1.160794
O17	O	0.857187	0.663388	-2.002749
O18	O	1.357187	1.163388	-1.502749
O19	O	0.407637	0.857114	-1.808207
O20	O	0.907637	1.357114	-1.308207
O21	O	0.663355	0.407588	-1.660785
O22	O	1.163355	0.907588	-1.160785
O23	O	0.663334	0.663316	-1.466208
O24	O	1.163334	1.163316	-0.966208
O25	O	0.857150	1.112878	-1.660745
O26	O	1.357150	1.612878	-1.160745
O27	O	0.857116	0.857107	-1.466187
O28	O	1.357116	1.357107	-0.966187
O29	O	0.663393	1.112881	-1.808179
O30	O	1.163393	1.612881	-1.308179
O31	O	1.112909	0.663384	-1.808163
O32	O	1.612909	1.163384	-1.308163
O33	O	1.112893	0.857145	-1.660735
O34	O	1.612893	1.357145	-1.160735
C35	C	0.760220	0.760208	-1.422650
C36	C	1.260220	1.260208	-0.922650
C37	C	0.760240	0.760231	-1.289250
C38	C	1.260240	1.260231	-0.789250
C39	C	1.170143	0.760264	-1.734460
C40	C	1.670143	1.260264	-1.234460
C41	C	1.348787	0.760238	-1.734492
C42	C	1.848787	1.260238	-1.234492
C43	C	0.760265	1.171721	-1.734466
C44	C	1.260265	1.671721	-1.234466
C45	C	0.760282	1.350366	-1.734469
C46	C	1.260282	1.850366	-1.234469
C47	C	0.760292	0.760265	-1.047517
C48	C	1.260292	1.260265	-0.547517
C49	C	0.760265	0.760248	-1.180917
C50	C	1.260265	1.260248	-0.680917
