data_functionalizedCrystal
_audit_creation_method	'MofGen! by Chris Wilmer'
_symmetry_space_group_name_H-M	'P1'
_symmetry_Int_Tables_number	1
_symmetry_cell_setting	triclinic
loop_
_symmetry_equiv_pos_as_xyz
  x,y,z
_cell_length_a	11.169417
_cell_length_b	13.897441
_cell_length_c	11.169416
_cell_angle_alpha	89.974103
_cell_angle_beta	90.011589
_cell_angle_gamma	89.981769
loop_
_atom_site_label
_atom_site_type_symbol
_atom_site_fract_x
_atom_site_fract_y
_atom_site_fract_z
Zn1	Zn	1.834947	-0.545348	-0.477729
Zn2	Zn	2.334947	-0.045348	0.022271
Zn3	Zn	1.834841	-0.384063	-0.678452
Zn4	Zn	2.334841	0.115937	-0.178452
Zn5	Zn	1.634237	-0.384074	-0.477786
Zn6	Zn	2.134237	0.115926	0.022214
Zn7	Zn	1.634240	-0.545323	-0.678373
Zn8	Zn	2.134240	-0.045323	-0.178373
O9	O	1.734567	-0.464702	-0.578085
O10	O	2.234567	0.035298	-0.078085
O11	O	2.002883	-0.523960	-0.504364
O12	O	2.502883	-0.023960	-0.004364
O13	O	1.808185	-0.249083	-0.651890
O14	O	2.308185	0.250917	-0.151890
O15	O	1.660905	-0.405482	-0.309829
O16	O	2.160905	0.094518	0.190171
O17	O	2.002805	-0.405464	-0.651835
O18	O	2.502805	0.094536	-0.151835
O19	O	1.808366	-0.523970	-0.309787
O20	O	2.308366	-0.023970	0.190213
O21	O	1.660802	-0.249091	-0.504462
O22	O	2.160802	0.250909	-0.004462
O23	O	1.466288	-0.405457	-0.504385
O24	O	1.966288	0.094543	-0.004385
O25	O	1.660910	-0.680308	-0.651700
O26	O	2.160910	-0.180308	-0.151700
O27	O	1.466290	-0.523926	-0.651756
O28	O	1.966290	-0.023926	-0.151756
O29	O	1.808369	-0.680327	-0.504288
O30	O	2.308369	-0.180327	-0.004288
O31	O	1.808188	-0.405439	-0.846391
O32	O	2.308188	0.094561	-0.346391
O33	O	1.660807	-0.523916	-0.846333
O34	O	2.160807	-0.023916	-0.346333
C35	C	1.422742	-0.464691	-0.578069
C36	C	1.922742	0.035309	-0.078069
C37	C	1.289342	-0.464709	-0.578091
C38	C	1.789342	0.035291	-0.078091
C39	C	1.734652	-0.716295	-0.577979
C40	C	2.234652	-0.216295	-0.077979
C41	C	1.734688	-0.823509	-0.577934
C42	C	2.234688	-0.323509	-0.077934
C43	C	1.734720	-1.019804	-0.577853
C44	C	2.234720	-0.519804	-0.077853
C45	C	1.734699	-0.910572	-0.577901
C46	C	2.234699	-0.410572	-0.077901
C47	C	2.047609	-0.464714	-0.578102
C48	C	2.547609	0.035286	-0.078102
C49	C	2.181009	-0.464718	-0.578109
C50	C	2.681009	0.035282	-0.078109
C51	C	1.734519	-0.464695	-0.889910
C52	C	2.234519	0.035305	-0.389910
C53	C	1.734608	-0.464724	-1.023310
C54	C	2.234608	0.035276	-0.523310
C55	C	1.734551	-0.214088	-0.578104
C56	C	2.234551	0.285912	-0.078104
C57	C	1.734747	-0.106874	-0.577811
C58	C	2.234747	0.393126	-0.077811
C59	C	1.734647	-0.464730	-0.265043
C60	C	2.234647	0.035270	0.234957
C61	C	1.734681	-0.464742	-0.131643
C62	C	2.234681	0.035258	0.368357
