data_functionalizedCrystal
_audit_creation_method	'MofGen! by Chris Wilmer'
_symmetry_space_group_name_H-M	'P1'
_symmetry_Int_Tables_number	1
_symmetry_cell_setting	triclinic
loop_
_symmetry_equiv_pos_as_xyz
  x,y,z
_cell_length_a	18.101398
_cell_length_b	19.120786
_cell_length_c	18.101389
_cell_angle_alpha	92.460644
_cell_angle_beta	90.024327
_cell_angle_gamma	92.460164
loop_
_atom_site_label
_atom_site_type_symbol
_atom_site_fract_x
_atom_site_fract_y
_atom_site_fract_z
Zn1	Zn	1.119565	-0.279790	0.406239
Zn2	Zn	1.114191	-0.397230	0.277109
Zn3	Zn	0.995724	-0.279782	0.282401
Zn4	Zn	0.990406	-0.397200	0.400899
O5	O	1.054972	-0.338501	0.341662
O6	O	1.222484	-0.295384	0.389130
O7	O	1.098453	-0.381660	0.174178
O8	O	1.016627	-0.181494	0.303278
O9	O	1.218536	-0.381667	0.294259
O10	O	1.107612	-0.181499	0.394261
O11	O	1.011416	-0.295372	0.178066
O12	O	0.891387	-0.295342	0.298100
O13	O	1.007563	-0.381616	0.505241
O14	O	0.887479	-0.381609	0.385160
O15	O	1.102455	-0.295355	0.509164
O16	O	1.093295	-0.495516	0.289081
O17	O	1.002351	-0.495494	0.380029
C18	C	0.862562	-0.338472	0.341625
C19	C	0.780248	-0.338477	0.341626
C20	C	1.046683	-0.520990	0.333418
C21	C	1.043205	-0.599060	0.329915
C22	C	0.481155	-0.338521	0.341686
C23	C	0.514926	-0.283973	0.287201
C24	C	0.600538	-0.284119	0.286952
C25	C	0.629539	-0.338498	0.341656
C26	C	0.595100	-0.412484	0.317000
C27	C	0.509469	-0.412181	0.316618
C28	C	0.513613	-0.319726	0.420932
C29	C	0.599338	-0.318078	0.420578
C30	C	0.713398	-0.338490	0.341640
C31	C	0.397295	-0.338534	0.341700
C32	C	1.088907	-0.635679	0.375679
C33	C	1.085636	-0.709034	0.372389
C34	C	1.036666	-0.745768	0.323332
C35	C	0.990959	-0.709143	0.277567
C36	C	0.994227	-0.635790	0.280860
C37	C	1.024428	-0.967251	0.311018
C38	C	1.021165	-1.040609	0.307726
C39	C	1.115841	-1.040495	0.402550
C40	C	1.119108	-0.967141	0.405836
C41	C	1.073398	-0.930522	0.360074
C42	C	1.033323	-0.820748	0.319966
C43	C	1.076738	-0.855543	0.363443
C44	C	1.248132	-0.338530	0.341700
C45	C	1.330446	-0.338542	0.341716
C46	C	1.055015	-0.338483	0.534825
C47	C	1.055034	-0.338475	0.617140
C48	C	1.063313	-0.155299	0.349956
C49	C	1.066867	-0.077229	0.353490
C50	C	1.054973	-0.338468	0.149253
C51	C	1.055107	-0.338277	0.066948
C52	C	1.055083	-0.338344	0.916237
C53	C	0.995189	-0.392444	0.882451
C54	C	0.995333	-0.392695	0.796821
C55	C	1.055058	-0.338409	0.767851
C56	C	1.132181	-0.358507	0.798052
C57	C	1.131845	-0.358862	0.883681
C58	C	1.038537	-0.264025	0.888008
C59	C	1.036781	-0.264454	0.802337
C60	C	1.055049	-0.338445	0.683990
C61	C	1.055097	-0.338310	1.000098
H62	H	0.624040	-0.229255	0.302789
C63	C	0.571416	-0.200235	0.458309
C64	C	0.630092	-0.244575	0.445589
H65	H	0.590407	-0.154855	0.473740
H66	H	0.540304	-0.218426	0.495787
H67	H	0.543751	-0.197344	0.414019
H68	H	0.657754	-0.247470	0.489880
H69	H	0.661217	-0.226379	0.408108
C70	C	1.192202	-0.553115	0.389781
C71	C	1.142738	-0.595307	0.429605
H72	H	1.225437	-0.528197	0.423077
H73	H	1.165454	-0.520807	0.363005
H74	H	1.219271	-0.581731	0.356261
H75	H	1.115664	-0.566690	0.463122
H76	H	1.169488	-0.627619	0.456393
C77	C	1.134329	-0.179048	0.858505
C78	C	1.097478	-0.209609	0.917830
H79	H	1.170721	-0.145463	0.876920
H80	H	1.099784	-0.156646	0.828997
H81	H	1.157485	-0.214313	0.829369
H82	H	1.074317	-0.174345	0.946963
H83	H	1.132029	-0.232012	0.947350
H84	H	0.987211	-0.937442	0.273755
H85	H	0.494420	-0.266716	0.442707
H86	H	0.491574	-0.359457	0.461569
H87	H	1.158983	-0.937233	0.445783
H88	H	0.615787	-0.428701	0.259575
H89	H	1.146915	-0.412258	0.774189
C90	C	1.179573	-0.701554	0.466420
C91	C	1.135889	-0.749286	0.422677
H92	H	1.210604	-0.726405	0.497460
H93	H	1.148570	-0.672962	0.496011
H94	H	1.209178	-0.672929	0.435452
H95	H	1.106280	-0.777907	0.453646
H96	H	1.166895	-0.777890	0.393084
H97	H	0.938039	-0.380118	0.776355
C98	C	0.916686	-0.228207	0.859210
C99	C	0.964171	-0.239308	0.918257
H100	H	0.870777	-0.212951	0.877888
H101	H	0.908708	-0.270691	0.830629
H102	H	0.938366	-0.193441	0.829074
H103	H	0.942493	-0.274078	0.948389
H104	H	0.972148	-0.196819	0.946850
H105	H	0.993454	-0.850665	0.280022
C106	C	1.152867	-1.152890	0.439612
C107	C	1.166076	-1.080748	0.452857
H108	H	1.183877	-1.177738	0.470676
H109	H	1.163204	-1.164922	0.389332
H110	H	1.102563	-1.164936	0.449858
H111	H	1.216379	-1.068701	0.442606
H112	H	1.155744	-1.068711	0.503149
H113	H	0.981285	-1.070516	0.267777
H114	H	0.492826	-0.296256	0.228893
H115	H	0.619090	-0.354914	0.463618
C116	C	0.566353	-0.310858	0.160380
C117	C	0.627404	-0.300895	0.207775
H118	H	0.582940	-0.321220	0.111499
H119	H	0.539203	-0.269414	0.161130
H120	H	0.535517	-0.348705	0.176364
H121	H	0.658237	-0.263045	0.191794
H122	H	0.654565	-0.342344	0.207022
C123	C	0.943919	-0.821638	0.230406
C124	C	0.937133	-0.749519	0.223639
H125	H	0.910692	-0.846562	0.197107
H126	H	0.932513	-0.833645	0.279607
H127	H	0.993153	-0.833618	0.219081
H128	H	0.887900	-0.737539	0.234970
H129	H	0.948534	-0.737508	0.174427
H130	H	0.496825	-0.228942	0.302899
H131	H	0.488742	-0.428121	0.258586
C132	C	1.163232	-0.256411	0.729838
C133	C	1.193852	-0.306992	0.772902
H134	H	1.201306	-0.224611	0.714308
H135	H	1.128009	-0.231589	0.758283
H136	H	1.139624	-0.278730	0.687709
H137	H	1.217455	-0.284673	0.815034
H138	H	1.229088	-0.331816	0.744456
H139	H	1.116606	-0.825632	0.403389
H140	H	0.980042	-0.249298	0.782688
C141	C	0.537802	-0.503007	0.398362
C142	C	0.478943	-0.468901	0.367608
H143	H	0.518957	-0.538025	0.429837
H144	H	0.568383	-0.469948	0.426193
H145	H	0.565977	-0.524190	0.359912
H146	H	0.450772	-0.447714	0.406058
H147	H	0.448350	-0.501965	0.339776
H148	H	0.957011	-0.605975	0.243596
C149	C	1.194209	-0.307807	0.991340
C150	C	1.193895	-0.307990	0.913978
H151	H	1.232516	-0.276401	1.010040
H152	H	1.202425	-0.353674	1.006830
H153	H	1.147901	-0.293209	1.009617
H154	H	1.240202	-0.322593	0.895701
H155	H	1.185685	-0.262114	0.898481
C156	C	0.916205	-0.378670	0.988132
C157	C	0.917597	-0.375640	0.910991
H158	H	0.868300	-0.368299	1.005754
H159	H	0.951544	-0.345428	1.009157
H160	H	0.927816	-0.424346	1.001800
H161	H	0.905992	-0.329962	0.897323
H162	H	0.882247	-0.408883	0.889959
H163	H	0.613592	-0.454215	0.355296
H164	H	1.005728	-0.447195	0.901511
H165	H	1.005987	-0.447783	0.773858
H166	H	1.146262	-0.413190	0.901218
H167	H	1.077487	-0.222006	0.782865
