data_functionalizedCrystal
_audit_creation_method	'MofGen! by Chris Wilmer'
_symmetry_space_group_name_H-M	'P1'
_symmetry_Int_Tables_number	1
_symmetry_cell_setting	triclinic
loop_
_symmetry_equiv_pos_as_xyz
  x,y,z
_cell_length_a	17.077404
_cell_length_b	13.897447
_cell_length_c	17.077404
_cell_angle_alpha	90.008305
_cell_angle_beta	90.002313
_cell_angle_gamma	90.017500
loop_
_atom_site_label
_atom_site_type_symbol
_atom_site_fract_x
_atom_site_fract_y
_atom_site_fract_z
Zn1	Zn	1.199949	-0.384237	0.443832
Zn2	Zn	1.533282	-0.050903	0.777165
Zn3	Zn	1.866615	0.282430	1.110498
Zn4	Zn	1.199900	-0.545499	0.312571
Zn5	Zn	1.533233	-0.212166	0.645904
Zn6	Zn	1.866567	0.121168	0.979238
Zn7	Zn	1.068717	-0.384214	0.312582
Zn8	Zn	1.402050	-0.050881	0.645916
Zn9	Zn	1.735384	0.282453	0.979249
Zn10	Zn	1.068656	-0.545486	0.443797
Zn11	Zn	1.401989	-0.212152	0.777131
Zn12	Zn	1.735323	0.121181	1.110464
O13	O	1.134305	-0.464859	0.378196
O14	O	1.467639	-0.131525	0.711529
O15	O	1.800972	0.201808	1.044862
O16	O	1.309789	-0.405643	0.426429
O17	O	1.643122	-0.072310	0.759763
O18	O	1.976456	0.261023	1.093096
O19	O	1.182504	-0.524100	0.202726
O20	O	1.515837	-0.190767	0.536059
O21	O	1.849170	0.142566	0.869392
O22	O	1.086171	-0.249235	0.330012
O23	O	1.419504	0.084098	0.663345
O24	O	1.752838	0.417431	0.996678
O25	O	1.309753	-0.524122	0.329993
O26	O	1.643087	-0.190789	0.663326
O27	O	1.976420	0.142544	0.996659
O28	O	1.182586	-0.249252	0.426440
O29	O	1.515920	0.084081	0.759773
O30	O	1.849253	0.417415	1.093107
O31	O	1.086124	-0.405605	0.202734
O32	O	1.419457	-0.072272	0.536067
O33	O	1.752791	0.261062	0.869401
O34	O	0.958862	-0.405592	0.329978
O35	O	1.292195	-0.072259	0.663312
O36	O	1.625529	0.261075	0.996645
O37	O	1.086067	-0.524099	0.553649
O38	O	1.419400	-0.190766	0.886982
O39	O	1.752734	0.142567	1.220315
O40	O	0.958817	-0.524077	0.426382
O41	O	1.292151	-0.190744	0.759715
O42	O	1.625484	0.142589	1.093048
O43	O	1.182527	-0.405630	0.553674
O44	O	1.515860	-0.072297	0.887007
O45	O	1.849194	0.261036	1.220341
O46	O	1.182444	-0.680479	0.329960
O47	O	1.515778	-0.347146	0.663293
O48	O	1.849111	-0.013812	0.996626
O49	O	1.086020	-0.680469	0.426371
O50	O	1.419353	-0.347136	0.759704
O51	O	1.752687	-0.013802	1.093037
C52	C	0.930358	-0.464831	0.378178
C53	C	1.263691	-0.131498	0.711511
C54	C	1.597024	0.201835	1.044845
C55	C	0.843108	-0.464843	0.378189
C56	C	1.176441	-0.131510	0.711522
C57	C	1.509774	0.201824	1.044856
C58	C	0.802137	-0.403261	0.428480
C59	C	1.135470	-0.069927	0.761813
C60	C	1.468804	0.263406	1.095147
C61	C	0.720156	-0.403267	0.428484
C62	C	1.053490	-0.069934	0.761817
C63	C	1.386823	0.263400	1.095150
C64	C	0.679148	-0.464861	0.378200
C65	C	1.012482	-0.131528	0.711533
C66	C	1.345815	0.201806	1.044866
C67	C	0.720125	-0.526446	0.327903
C68	C	1.053458	-0.193113	0.661236
C69	C	1.386792	0.140221	0.994570
C70	C	0.802104	-0.526434	0.327896
C71	C	1.135437	-0.193101	0.661229
C72	C	1.468771	0.140233	0.994563
C73	C	0.549255	-0.526468	0.327922
C74	C	0.882588	-0.193134	0.661256
C75	C	1.215922	0.140199	0.994589
C76	C	0.467270	-0.526481	0.327930
C77	C	0.800604	-0.193148	0.661264
C78	C	1.133937	0.140186	0.994597
C79	C	0.467307	-0.403301	0.428510
C80	C	0.800641	-0.069967	0.761844
C81	C	1.133974	0.263366	1.095177
C82	C	0.549286	-0.403289	0.428503
C83	C	0.882620	-0.069956	0.761837
C84	C	1.215953	0.263378	1.095170
C85	C	0.590257	-0.464875	0.378207
C86	C	0.923591	-0.131542	0.711541
C87	C	1.256924	0.201791	1.044874
C88	C	1.134242	-0.715473	0.378177
C89	C	1.467575	-0.382140	0.711511
C90	C	1.800908	-0.048806	1.044844
C91	C	1.134286	-0.822687	0.378196
C92	C	1.467619	-0.489354	0.711529
C93	C	1.800953	-0.156020	1.044862
C94	C	1.134324	-0.909757	0.378214
C95	C	1.467657	-0.576423	0.711547
C96	C	1.800991	-0.243090	1.044880
C97	C	1.134379	-1.018989	0.378234
C98	C	1.467712	-0.685656	0.711567
C99	C	1.801046	-0.352323	1.044901
C100	C	1.339050	-0.464887	0.378214
C101	C	1.672383	-0.131554	0.711547
C102	C	2.005716	0.201780	1.044880
C103	C	1.426299	-0.464899	0.378221
C104	C	1.759633	-0.131566	0.711555
C105	C	2.092966	0.201768	1.044888
C106	C	1.134296	-0.464866	0.582940
C107	C	1.467629	-0.131533	0.916273
C108	C	1.800962	0.201801	1.249606
C109	C	1.134291	-0.464869	0.670190
C110	C	1.467625	-0.131536	1.003523
C111	C	1.800958	0.201798	1.336856
C112	C	1.134391	-0.213266	0.378231
C113	C	1.467724	0.120068	0.711564
C114	C	1.801058	0.453401	1.044898
C115	C	1.134427	-0.106052	0.378246
C116	C	1.467761	0.227281	0.711579
C117	C	1.801094	0.560615	1.044913
C118	C	1.184525	-0.403184	1.046018
C119	C	1.517859	-0.069851	1.379352
C120	C	1.851192	0.263482	1.712685
C121	C	1.184527	-0.403189	0.964038
C122	C	1.517860	-0.069856	1.297371
C123	C	1.851193	0.263477	1.630705
C124	C	1.134302	-0.464867	0.923038
C125	C	1.467636	-0.131534	1.256372
C126	C	1.800969	0.201799	1.589705
C127	C	1.084079	-0.526552	0.964024
C128	C	1.417412	-0.193218	1.297357
C129	C	1.750745	0.140115	1.630690
C130	C	1.084082	-0.526551	1.046003
C131	C	1.417415	-0.193218	1.379336
C132	C	1.750749	0.140116	1.712669
C133	C	1.084074	-0.526547	0.793154
C134	C	1.417408	-0.193213	1.126487
C135	C	1.750741	0.140120	1.459820
C136	C	1.084070	-0.526546	0.711169
C137	C	1.417403	-0.193213	1.044502
C138	C	1.750737	0.140120	1.377836
C139	C	1.184519	-0.403185	0.711189
C140	C	1.517853	-0.069852	1.044522
C141	C	1.851186	0.263482	1.377856
C142	C	1.184522	-0.403184	0.793168
C143	C	1.517856	-0.069851	1.126501
C144	C	1.851189	0.263482	1.459835
C145	C	1.134298	-0.464868	0.834147
C146	C	1.467631	-0.131534	1.167481
C147	C	1.800964	0.201799	1.500814
C148	C	1.134307	-0.464871	1.174248
C149	C	1.467640	-0.131538	1.507581
C150	C	1.800974	0.201795	1.840914
C151	C	1.134304	-0.464862	1.086998
C152	C	1.467637	-0.131529	1.420331
C153	C	1.800971	0.201805	1.753665
H154	H	0.686802	-0.353122	0.469437
H155	H	1.020135	-0.019789	0.802771
H156	H	1.353468	0.313544	1.136104
N157	N	0.591105	-0.589393	0.276559
N158	N	0.924438	-0.256060	0.609892
N159	N	1.257772	0.077274	0.943226
N160	N	0.636840	-0.650908	0.304091
N161	N	0.970174	-0.317574	0.637425
N162	N	1.303507	0.015759	0.970758
H163	H	0.666397	-0.695352	0.267820
H164	H	0.999730	-0.362019	0.601153
H165	H	1.333064	-0.028686	0.934487
N166	N	1.235813	-0.340180	0.835061
N167	N	1.569146	-0.006847	1.168394
N168	N	1.902479	0.326487	1.501727
N169	N	1.208214	-0.278713	0.880814
N170	N	1.541548	0.054620	1.214148
N171	N	1.874881	0.387954	1.547481
H172	H	1.244439	-0.234216	0.910402
H173	H	1.577772	0.099117	1.243736
H174	H	1.911105	0.432451	1.577069
N175	N	0.843959	-0.589325	0.276514
N176	N	1.177292	-0.255991	0.609847
N177	N	1.510625	0.077342	0.943181
N178	N	0.834794	-0.582779	0.204092
N179	N	1.168128	-0.249446	0.537425
N180	N	1.501461	0.083888	0.870758
H181	H	0.864354	-0.627193	0.167798
H182	H	1.197688	-0.293859	0.501131
H183	H	1.531021	0.039474	0.834465
H184	H	1.225419	-0.352953	1.079394
H185	H	1.558752	-0.019619	1.412728
H186	H	1.892085	0.313714	1.746061
H187	H	1.225424	-0.352968	0.930676
H188	H	1.558757	-0.019634	1.264009
H189	H	1.892091	0.313699	1.597343
H190	H	1.043187	-0.576776	1.079367
H191	H	1.376521	-0.243443	1.412701
H192	H	1.709854	0.089891	1.746034
H193	H	1.043178	-0.576779	0.826517
H194	H	1.376512	-0.243445	1.159850
H195	H	1.709845	0.089888	1.493183
H196	H	1.225412	-0.352958	0.677819
H197	H	1.558746	-0.019625	1.011153
H198	H	1.892079	0.313708	1.344486
N199	N	1.032760	-0.589550	0.669300
N200	N	1.366094	-0.256217	1.002633
N201	N	1.699427	0.077116	1.335966
N202	N	0.987924	-0.644622	0.705895
N203	N	1.321258	-0.311289	1.039229
N204	N	1.654591	0.022045	1.372562
H205	H	0.951684	-0.689119	0.676326
H206	H	1.285018	-0.355786	1.009659
H207	H	1.618351	-0.022453	1.342992
H208	H	1.043189	-0.576775	0.930636
H209	H	1.376522	-0.243442	1.263969
H210	H	1.709855	0.089891	1.597302
H211	H	0.433884	-0.576637	0.286985
H212	H	0.767217	-0.243304	0.620318
H213	H	1.100550	0.090030	0.953652
H214	H	0.582673	-0.353139	0.469454
H215	H	0.916006	-0.019806	0.802787
H216	H	1.249340	0.313527	1.136120
H217	H	0.835520	-0.353106	0.469430
H218	H	1.168853	-0.019773	0.802763
H219	H	1.502186	0.313560	1.136096
H220	H	0.433945	-0.353153	0.469462
H221	H	0.767278	-0.019820	0.802795
H222	H	1.100612	0.313514	1.136128
N223	N	0.678239	-0.589349	0.276527
N224	N	1.011572	-0.256015	0.609860
N225	N	1.344905	0.077318	0.943193
N226	N	0.632493	-0.555318	0.226558
N227	N	0.965826	-0.221985	0.559891
N228	N	1.299160	0.111348	0.893225
H229	H	0.602911	-0.599746	0.190272
H230	H	0.936245	-0.266412	0.523606
H231	H	1.269578	0.066921	0.856939
