data_functionalizedCrystal
_audit_creation_method	'MofGen! by Chris Wilmer'
_symmetry_space_group_name_H-M	'P1'
_symmetry_Int_Tables_number	1
_symmetry_cell_setting	triclinic
loop_
_symmetry_equiv_pos_as_xyz
  x,y,z
_cell_length_a	15.624803
_cell_length_b	15.538191
_cell_length_c	13.448316
_cell_angle_alpha	89.995865
_cell_angle_beta	71.907267
_cell_angle_gamma	66.736403
loop_
_atom_site_label
_atom_site_type_symbol
_atom_site_fract_x
_atom_site_fract_y
_atom_site_fract_z
O1	O	1.156124	0.122868	-0.499680
O2	O	0.888824	0.137528	-0.403269
O3	O	1.074507	-0.006866	-0.470246
O4	O	0.970442	0.267263	-0.432703
O5	O	1.074492	-0.006875	-0.304857
O6	O	0.888810	0.137520	-0.237880
O7	O	1.156110	0.122859	-0.334291
Cu8	Cu	1.022459	0.130189	-0.270984
Cu9	Cu	1.022476	0.130199	-0.466576
O10	O	0.970428	0.267254	-0.267314
C11	C	0.855442	0.136862	-0.308537
C12	C	0.756000	0.134880	-0.272671
C13	C	0.429098	0.128332	-0.605583
C14	C	0.335665	0.126451	-0.571882
C15	C	0.335627	0.126441	-0.391574
C16	C	0.429063	0.128318	-0.425260
C17	C	0.475791	0.129264	-0.532266
C18	C	0.475756	0.129250	-0.351943
C19	C	0.569183	0.131131	-0.385627
C20	C	0.615915	0.132081	-0.492627
C21	C	0.569217	0.131146	-0.565950
C22	C	0.429024	0.128310	-0.244937
C23	C	0.475717	0.129242	-0.171619
C24	C	0.569148	0.131117	-0.205304
C25	C	0.615881	0.132066	-0.312304
C26	C	0.615846	0.132052	-0.131981
C27	C	0.709273	0.133933	-0.165665
C28	C	0.709307	0.133948	-0.345988
C29	C	1.085387	-0.041953	-0.391482
C30	C	1.117819	-0.146486	-0.403190
C31	C	0.795621	-0.434679	-0.286957
C32	C	0.826118	-0.532906	-0.297955
C33	C	0.997656	-0.555135	-0.359826
C34	C	0.967174	-0.456907	-0.348839
C35	C	0.866155	-0.396686	-0.312403
C36	C	1.037708	-0.418915	-0.374284
C37	C	1.007227	-0.320696	-0.363292
C38	C	0.906213	-0.260469	-0.326855
C39	C	0.835674	-0.298467	-0.301411
C40	C	1.138726	-0.479138	-0.410713
C41	C	1.209260	-0.441145	-0.436158
C42	C	1.178780	-0.342924	-0.425174
C43	C	1.077765	-0.282697	-0.388736
C44	C	1.249318	-0.304926	-0.450618
C45	C	1.218837	-0.206707	-0.439626
C46	C	1.047285	-0.184478	-0.377744
C47	C	1.189492	0.123525	-0.429025
C48	C	1.288934	0.125508	-0.464898
C49	C	0.959547	0.302340	-0.346080
C50	C	0.927116	0.406873	-0.334379
N51	N	1.022453	0.130181	-0.133418
N52	N	1.022490	0.130200	-0.604146
C53	C	1.104684	0.066269	-0.111039
C54	C	1.104690	0.066268	-0.006938
C55	C	1.022467	0.130184	0.074782
C56	C	0.940229	0.194099	0.052398
C57	C	0.940221	0.194094	-0.051701
C58	C	0.940252	0.194105	0.269370
C59	C	0.940260	0.194111	0.373475
C60	C	1.104720	0.066279	0.314132
C61	C	1.104713	0.066275	0.210034
C62	C	1.022475	0.130191	0.187657
H63	H	0.352948	0.126783	-0.217514
H64	H	1.171681	0.014236	0.332357
H65	H	0.965025	-0.135442	-0.348082
H66	H	0.437657	0.128474	-0.084494
F67	F	1.192225	-0.001746	0.123060
H68	H	0.873305	0.246157	0.440009
F69	F	0.478839	0.129329	-0.719474
H70	H	1.276273	-0.175773	-0.460345
F71	F	0.566098	0.131057	-0.018100
F72	F	1.192201	-0.001756	-0.198005
F73	F	0.852698	0.262116	-0.075514
F74	F	0.285884	0.125437	-0.277693
H75	H	0.768673	-0.563834	-0.277217
H76	H	0.747289	0.134697	-0.105962
F77	F	0.285972	0.125462	-0.649925
F78	F	0.852717	0.262120	0.139372
H79	H	0.881397	-0.180493	-0.317900
F80	F	0.715347	0.134088	-0.528476
F81	F	0.688105	-0.370581	-0.248187
F82	F	0.759048	0.134944	-0.459878
F83	F	0.618958	0.132142	-0.679840
H84	H	1.171647	0.014226	0.011281
F85	F	1.316768	-0.505246	-0.474927
F86	F	1.105165	-0.619236	-0.398595
F87	F	0.728158	-0.234370	-0.262641
F88	F	1.171164	-0.583672	-0.422404
H89	H	1.331567	-0.353972	-0.480274
H90	H	0.873283	0.246150	0.251158
