data_functionalizedCrystal
_audit_creation_method	'MofGen! by Chris Wilmer'
_symmetry_space_group_name_H-M	'P1'
_symmetry_Int_Tables_number	1
_symmetry_cell_setting	triclinic
loop_
_symmetry_equiv_pos_as_xyz
  x,y,z
_cell_length_a	12.759401
_cell_length_b	18.050590
_cell_length_c	12.759393
_cell_angle_alpha	89.965321
_cell_angle_beta	89.979062
_cell_angle_gamma	90.020077
loop_
_atom_site_label
_atom_site_type_symbol
_atom_site_fract_x
_atom_site_fract_y
_atom_site_fract_z
Zn1	Zn	1.606238	-0.295593	-0.593990
Zn2	Zn	2.106238	0.204407	-0.093990
Zn3	Zn	1.606118	-0.419801	-0.418297
Zn4	Zn	2.106118	0.080199	0.081703
Zn5	Zn	1.430537	-0.295633	-0.418325
Zn6	Zn	1.930537	0.204367	0.081675
Zn7	Zn	1.430517	-0.419749	-0.593934
Zn8	Zn	1.930517	0.080251	-0.093934
O9	O	1.518352	-0.357694	-0.506136
O10	O	2.018352	0.142306	-0.006136
O11	O	1.753243	-0.312075	-0.570695
O12	O	2.253243	0.187925	-0.070695
O13	O	1.582784	-0.403368	-0.271279
O14	O	2.082784	0.096632	0.228721
O15	O	1.453903	-0.191703	-0.441662
O16	O	1.953903	0.308297	0.058338
O17	O	1.753155	-0.403330	-0.441614
O18	O	2.253155	0.096670	0.058386
O19	O	1.582990	-0.191674	-0.570722
O20	O	2.082990	0.308326	-0.070722
O21	O	1.453786	-0.312142	-0.271300
O22	O	1.953786	0.187858	0.228700
O23	O	1.283513	-0.312092	-0.441608
O24	O	1.783513	0.187908	0.058392
O25	O	1.453869	-0.403241	-0.740963
O26	O	1.953869	0.096759	-0.240963
O27	O	1.283499	-0.403280	-0.570628
O28	O	1.783499	0.096720	-0.070628
O29	O	1.582971	-0.312025	-0.741003
O30	O	2.082971	0.187975	-0.241003
O31	O	1.582765	-0.523719	-0.441561
O32	O	2.082765	-0.023719	0.058439
O33	O	1.453752	-0.523681	-0.570601
O34	O	1.953752	-0.023681	-0.070601
C35	C	1.245385	-0.357685	-0.506115
C36	C	1.745385	0.142315	-0.006115
C37	C	1.128608	-0.357699	-0.506131
C38	C	1.628608	0.142301	-0.006131
C39	C	1.518272	-0.550646	-0.506094
C40	C	2.018272	-0.050646	-0.006094
C41	C	1.518333	-0.633192	-0.506112
C42	C	2.018333	-0.133192	-0.006112
C43	C	1.073766	-0.405253	-0.573206
C44	C	1.573766	0.094747	-0.073206
C45	C	0.964042	-0.405256	-0.573227
C46	C	1.464042	0.094744	-0.073227
C47	C	0.964012	-0.310149	-0.439089
C48	C	1.464012	0.189851	0.060911
C49	C	1.073734	-0.310143	-0.439075
C50	C	1.573734	0.189857	0.060925
C51	C	1.588636	-0.832636	-0.436038
C52	C	2.088636	-0.332636	0.063962
C53	C	1.614306	-0.881961	-0.531925
C54	C	2.114306	-0.381961	-0.031925
C55	C	1.518393	-0.784322	-0.506154
C56	C	2.018393	-0.284322	-0.006154
C57	C	1.492831	-0.882079	-0.410310
C58	C	1.992831	-0.382079	0.089690
C59	C	1.518452	-0.930307	-0.506186
C60	C	2.018452	-0.430307	-0.006186
C61	C	1.544111	-0.832560	-0.602091
C62	C	2.044111	-0.332560	-0.102091
C63	C	1.422592	-0.832674	-0.480411
C64	C	1.922592	-0.332674	0.019589
C65	C	1.448224	-0.881976	-0.576364
C66	C	1.948224	-0.381976	-0.076364
C67	C	1.518361	-0.700224	-0.506134
C68	C	2.018361	-0.200224	-0.006134
C69	C	1.518484	-1.014404	-0.506216
C70	C	2.018484	-0.514404	-0.006216
C71	C	1.792386	-0.357704	-0.506158
C72	C	2.292386	0.142296	-0.006158
C73	C	1.909162	-0.357708	-0.506167
C74	C	2.409162	0.142292	-0.006167
C75	C	1.518431	-0.357623	-0.780170
C76	C	2.018431	0.142377	-0.280170
C77	C	1.518465	-0.357592	-0.896947
C78	C	2.018465	0.142408	-0.396947
C79	C	1.518462	-0.163989	-0.506201
C80	C	2.018462	0.336011	-0.006201
C81	C	1.518509	-0.081443	-0.506229
C82	C	2.018509	0.418557	-0.006229
C83	C	1.585693	-0.310088	-0.951831
C84	C	2.085693	0.189912	-0.451831
C85	C	1.585711	-0.310056	-1.061556
C86	C	2.085711	0.189944	-0.561556
C87	C	1.451269	-0.405039	-1.061500
C88	C	1.951269	0.094961	-0.561500
C89	C	1.451247	-0.405067	-0.951778
C90	C	1.951247	0.094933	-0.451778
C91	C	1.518335	-0.357712	-0.233169
C92	C	2.018335	0.142288	0.266831
C93	C	1.518505	-0.357533	-0.116393
C94	C	2.018505	0.142467	0.383607
H95	H	0.919395	-0.443978	-0.627847
H96	H	1.419395	0.056022	-0.127847
H97	H	1.471186	-0.903830	-0.329242
H98	H	1.971186	-0.403830	0.170758
N99	N	1.721651	-0.910648	-0.560788
N100	N	2.221651	-0.410648	-0.060788
H101	H	1.720700	-0.966597	-0.561254
H102	H	2.220700	-0.466597	-0.061254
H103	H	1.741471	-0.891809	-0.632663
H104	H	2.241471	-0.391809	-0.132663
H105	H	1.565676	-0.810901	-0.683228
H106	H	2.065676	-0.310901	-0.183228
N107	N	1.132949	-0.456543	-0.645532
N108	N	1.632949	0.043457	-0.145532
H109	H	1.113898	-0.445073	-0.720630
H110	H	1.613898	0.054927	-0.220630
H111	H	1.210761	-0.449304	-0.635256
H112	H	1.710761	0.050696	-0.135256
H113	H	1.388847	-0.903504	-0.635741
H114	H	1.888847	-0.403504	-0.135741
H115	H	1.341572	-0.811006	-0.458589
H116	H	1.841572	-0.311006	0.041411
H117	H	1.118388	-0.271414	-0.384454
H118	H	1.618388	0.228586	0.115546
H119	H	1.640453	-0.271372	-1.106238
H120	H	2.140453	0.228628	-0.606238
H121	H	1.396494	-0.443750	-0.907090
H122	H	1.896494	0.056250	-0.407090
N123	N	1.378757	-0.456230	-1.120640
N124	N	1.878757	0.043770	-0.620640
H125	H	1.388967	-0.449003	-1.198478
H126	H	1.888967	0.050997	-0.698478
H127	H	1.395055	-0.509280	-1.101453
H128	H	1.895055	-0.009280	-0.601453
H129	H	0.919320	-0.271431	-0.384493
H130	H	1.419320	0.228569	0.115507
H131	H	1.640423	-0.271430	-0.907191
H132	H	2.140423	0.228570	-0.407191
H133	H	1.648059	-0.810971	-0.376804
H134	H	2.148059	-0.310971	0.123196
