data_functionalizedCrystal
_audit_creation_method	'MofGen! by Chris Wilmer'
_symmetry_space_group_name_H-M	'P1'
_symmetry_Int_Tables_number	1
_symmetry_cell_setting	triclinic
loop_
_symmetry_equiv_pos_as_xyz
  x,y,z
_cell_length_a	15.944551
_cell_length_b	13.448316
_cell_length_c	14.971486
_cell_angle_alpha	89.993189
_cell_angle_beta	83.556433
_cell_angle_gamma	89.997731
loop_
_atom_site_label
_atom_site_type_symbol
_atom_site_fract_x
_atom_site_fract_y
_atom_site_fract_z
O1	O	1.114636	-0.082589	0.115362
O2	O	1.614636	0.417411	0.615362
O3	O	0.870100	-0.082613	0.129585
O4	O	1.370100	0.417387	0.629585
O5	O	0.998923	-0.082593	-0.007734
O6	O	1.498923	0.417407	0.492266
O7	O	0.985814	-0.082609	0.252680
O8	O	1.485814	0.417391	0.752680
O9	O	0.998906	0.082791	-0.007742
O10	O	1.498906	0.582791	0.492258
O11	O	0.870084	0.082770	0.129576
O12	O	1.370084	0.582770	0.629576
O13	O	1.114620	0.082795	0.115354
O14	O	1.614620	0.582795	0.615354
Cu15	Cu	0.992351	0.097884	0.122464
Cu16	Cu	1.492351	0.597884	0.622464
Cu17	Cu	0.992370	-0.097702	0.122474
Cu18	Cu	1.492370	0.402298	0.622474
O19	O	0.985798	0.082775	0.252672
O20	O	1.485798	0.582775	0.752672
C21	C	0.838798	0.000075	0.128990
C22	C	1.338798	0.500075	0.628990
C23	C	0.745550	0.000066	0.127220
C24	C	1.245550	0.500066	0.627220
C25	C	0.530608	0.000091	0.037872
C26	C	1.030608	0.500091	0.537872
C27	C	0.469636	-0.081455	0.079366
C28	C	0.969636	0.418545	0.579366
C29	C	0.574821	0.000078	0.124017
C30	C	1.074821	0.500078	0.624017
C31	C	0.469642	0.081601	0.079379
C32	C	0.969642	0.581601	0.579379
C33	C	0.409905	0.000094	0.120918
C34	C	0.909905	0.500094	0.620918
C35	C	0.515077	-0.081535	0.165535
C36	C	1.015077	0.418465	0.665535
C37	C	0.515089	0.081594	0.165535
C38	C	1.015089	0.581594	0.665535
C39	C	0.454134	0.000029	0.207092
C40	C	0.954134	0.500029	0.707092
C41	C	0.669825	0.000068	0.125801
C42	C	1.169825	0.500068	0.625801
C43	C	0.314903	0.000097	0.119141
C44	C	0.814903	0.500097	0.619141
C45	C	0.998328	0.000098	-0.041062
C46	C	1.498328	0.500098	0.458938
C47	C	0.996572	0.000097	-0.140357
C48	C	1.496572	0.500097	0.359643
C49	C	1.145923	0.000104	0.115948
C50	C	1.645923	0.500104	0.615948
C51	C	1.239171	0.000107	0.117718
C52	C	1.739171	0.500107	0.617718
N53	N	0.992343	0.235448	0.122456
N54	N	1.492343	0.735448	0.622456
N55	N	0.992384	-0.235266	0.122475
N56	N	1.492384	0.264734	0.622475
C57	C	1.049404	0.287497	0.061677
C58	C	1.549404	0.787497	0.561677
C59	C	1.049409	0.391600	0.061676
C60	C	1.549409	0.891600	0.561676
C61	C	0.992357	0.443653	0.122460
C62	C	1.492357	0.943653	0.622460
C63	C	0.935291	0.391596	0.183243
C64	C	1.435291	0.891596	0.683243
C65	C	0.935282	0.287495	0.183238
C66	C	1.435282	0.787495	0.683238
C67	C	0.935314	0.608576	0.183249
C68	C	1.435314	1.108576	0.683249
C69	C	0.935324	0.712685	0.183254
C70	C	1.435324	1.212685	0.683254
C71	C	1.049441	0.712682	0.061686
C72	C	1.549441	1.212682	0.561686
C73	C	1.049432	0.608581	0.061682
C74	C	1.549432	1.108581	0.561682
C75	C	0.992367	0.556531	0.122466
C76	C	1.492367	1.056531	0.622466
C77	C	1.072251	0.000106	-0.197664
C78	C	1.572251	0.500106	0.302336
C79	C	1.070595	0.000095	-0.290962
C80	C	1.570595	0.500095	0.209038
C81	C	0.993259	0.000084	-0.326951
C82	C	1.493259	0.500084	0.173049
C83	C	0.917574	0.000073	-0.269637
C84	C	1.417574	0.500073	0.230363
C85	C	0.919230	0.000076	-0.176341
C86	C	1.419230	0.500076	0.323659
C87	C	0.914127	0.000069	-0.464095
C88	C	1.414127	0.500069	0.035905
C89	C	0.912470	0.000067	-0.557398
C90	C	1.412470	0.500067	-0.057398
C91	C	1.065491	0.000088	-0.578717
C92	C	1.565491	0.500088	-0.078717
C93	C	1.067148	0.000091	-0.485421
C94	C	1.567148	0.500091	0.014579
C95	C	0.991462	0.000082	-0.428113
C96	C	1.491462	0.500082	0.071887
C97	C	0.986392	0.000081	0.286000
C98	C	1.486392	0.500081	0.786000
C99	C	0.988149	0.000076	0.385295
C100	C	1.488149	0.500076	0.885295
H101	H	1.095865	0.245123	0.012183
H102	H	1.595865	0.745123	0.512183
C103	C	1.112160	0.448850	-0.005208
C104	C	1.612160	0.948850	0.494792
N105	N	1.159418	0.491970	-0.055596
N106	N	1.659418	0.991970	0.444404
C107	C	1.112210	0.769938	-0.005180
C108	C	1.612210	1.269938	0.494820
N109	N	1.159488	0.813068	-0.055540
N110	N	1.659488	1.313068	0.444460
H111	H	0.535106	-0.150550	0.201947
H112	H	1.035106	0.349450	0.701947
H113	H	1.132222	0.000104	-0.337618
H114	H	1.632222	0.500104	0.162382
C115	C	0.872559	0.769940	0.250114
C116	C	1.372559	1.269940	0.750114
N117	N	0.825283	0.813064	0.300473
N118	N	1.325283	1.313064	0.800473
H119	H	1.095892	0.566200	0.012192
H120	H	1.595892	1.066200	0.512192
H121	H	0.535248	0.150534	0.201937
H122	H	1.035248	0.650534	0.701937
H123	H	0.449514	0.150539	0.042923
H124	H	0.949514	0.650539	0.542923
C125	C	1.157328	0.000118	-0.158086
C126	C	1.657328	0.500118	0.341914
N127	N	1.221411	0.000123	-0.128279
N128	N	1.721411	0.500123	0.371721
C129	C	0.872530	0.551324	0.250105
C130	C	1.372530	1.051324	0.750105
N131	N	0.825242	0.508202	0.300460
N132	N	1.325242	1.008202	0.800460
C133	C	0.575516	-0.000012	-0.058725
C134	C	1.075516	0.499988	0.441275
N135	N	0.609342	-0.000095	-0.131481
N136	N	1.109342	0.499905	0.368519
C137	C	1.152222	0.000109	-0.445835
C138	C	1.652222	0.500109	0.054165
N139	N	1.216300	0.000119	-0.416020
N140	N	1.716300	0.500119	0.083980
C141	C	0.827396	0.000042	-0.596983
C142	C	1.327396	0.500042	-0.096983
N143	N	0.763317	0.000020	-0.626799
N144	N	1.263317	0.500020	-0.126799
H145	H	0.888834	0.433983	0.232731
H146	H	1.388834	0.933983	0.732731
H147	H	0.888817	0.245117	0.232730
H148	H	1.388817	0.745117	0.732730
C149	C	0.830868	0.000063	-0.401058
C150	C	1.330868	0.500063	0.098942
N151	N	0.768158	0.000066	-0.353579
N152	N	1.268158	0.500066	0.146421
H153	H	1.127118	0.000093	-0.625382
H154	H	1.627118	0.500093	-0.125382
C155	C	0.409423	-0.000040	0.303773
C156	C	0.909423	0.499960	0.803773
N157	N	0.375743	-0.000097	0.376591
N158	N	0.875743	0.499903	0.876591
H159	H	0.857604	0.000069	-0.129681
H160	H	1.357604	0.500069	0.370319
C161	C	0.442423	-0.174581	0.030147
C162	C	0.942423	0.325419	0.530147
N163	N	0.421928	-0.244719	-0.006931
N164	N	0.921928	0.255281	0.493069
H165	H	0.854605	0.000057	-0.298946
H166	H	1.354605	0.500057	0.201054
