data_functionalizedCrystal
_audit_creation_method	'MofGen! by Chris Wilmer'
_symmetry_space_group_name_H-M	'P1'
_symmetry_Int_Tables_number	1
_symmetry_cell_setting	triclinic
loop_
_symmetry_equiv_pos_as_xyz
  x,y,z
_cell_length_a	16.120507
_cell_length_b	12.759401
_cell_length_c	12.759393
_cell_angle_alpha	90.018496
_cell_angle_beta	87.139282
_cell_angle_gamma	92.933899
loop_
_atom_site_label
_atom_site_type_symbol
_atom_site_fract_x
_atom_site_fract_y
_atom_site_fract_z
Zn1	Zn	0.331854	-1.584911	-0.615130
Zn2	Zn	0.831854	-1.084911	-0.115130
Zn3	Zn	0.471293	-1.575836	-0.448336
Zn4	Zn	0.971293	-1.075836	0.051664
Zn5	Zn	0.331898	-1.409210	-0.439472
Zn6	Zn	0.831898	-0.909210	0.060528
Zn7	Zn	0.471229	-1.400237	-0.623974
Zn8	Zn	0.971229	-0.900237	-0.123974
O9	O	0.401568	-1.492549	-0.531728
O10	O	0.901568	-0.992549	-0.031728
O11	O	0.350360	-1.730727	-0.593013
O12	O	0.850360	-1.230727	-0.093013
O13	O	0.452847	-1.553691	-0.300142
O14	O	0.952847	-1.053691	0.199858
O15	O	0.215227	-1.440070	-0.455363
O16	O	0.715227	-0.940070	0.044637
O17	O	0.452804	-1.724061	-0.470470
O18	O	0.952804	-1.224061	0.029530
O19	O	0.215194	-1.569156	-0.584418
O20	O	0.715194	-1.069156	-0.084418
O21	O	0.350434	-1.431271	-0.293630
O22	O	0.850434	-0.931271	0.206370
O23	O	0.350372	-1.260999	-0.463938
O24	O	0.850372	-0.760999	0.036062
O25	O	0.452695	-1.424777	-0.769819
O26	O	0.952695	-0.924777	-0.269819
O27	O	0.452737	-1.254407	-0.599491
O28	O	0.952737	-0.754407	-0.099491
O29	O	0.350298	-1.560456	-0.763321
O30	O	0.850298	-1.060456	-0.263321
O31	O	0.587950	-1.544990	-0.479046
O32	O	1.087950	-1.044990	0.020954
O33	O	0.587903	-1.415978	-0.608086
O34	O	1.087903	-0.915978	-0.108086
C35	C	0.618176	-1.478554	-0.545510
C36	C	1.118176	-0.978554	-0.045510
C37	C	0.710842	-1.472663	-0.551441
C38	C	1.210842	-0.972663	-0.051441
C39	C	0.401553	-1.219582	-0.531713
C40	C	0.901553	-0.719582	-0.031713
C41	C	0.401567	-1.102805	-0.531732
C42	C	0.901567	-0.602805	-0.031732
C43	C	0.921787	-1.523203	-0.501122
C44	C	1.421787	-1.023203	-0.001122
C45	C	0.880498	-1.461928	-0.562281
C46	C	1.380498	-0.961928	-0.062281
C47	C	0.786093	-1.467903	-0.556248
C48	C	1.286093	-0.967903	-0.056248
C49	C	1.016201	-1.517229	-0.507154
C50	C	1.516201	-1.017229	-0.007154
C51	C	1.184115	-1.506586	-0.517899
C52	C	1.684115	-1.006586	-0.017899
C53	C	1.091449	-1.512464	-0.511965
C54	C	1.591449	-1.012464	-0.011965
C55	C	0.401484	-1.492627	-0.805756
C56	C	0.901484	-0.992627	-0.305756
C57	C	0.401448	-1.492661	-0.922531
C58	C	0.901448	-0.992661	-0.422531
C59	C	0.401584	-1.766581	-0.531744
C60	C	0.901584	-1.266581	-0.031744
C61	C	0.401591	-1.883357	-0.531751
C62	C	0.901591	-1.383357	-0.031751
C63	C	0.454954	-1.044532	-0.602209
C64	C	0.954954	-0.544532	-0.102209
C65	C	0.454964	-0.934807	-0.602221
C66	C	0.954964	-0.434807	-0.102221
C67	C	0.348198	-0.941638	-0.461271
C68	C	0.848198	-0.441638	0.038729
C69	C	0.348184	-1.051361	-0.461265
C70	C	0.848184	-0.551361	0.038735
C71	C	0.508336	-1.095976	-0.672677
C72	C	1.008336	-0.595976	-0.172677
C73	C	0.561728	-1.037703	-0.743158
C74	C	1.061728	-0.537703	-0.243158
C75	C	0.561739	-0.927978	-0.743170
C76	C	1.061739	-0.427978	-0.243170
C77	C	0.508357	-0.876526	-0.672701
C78	C	1.008357	-0.376526	-0.172701
C79	C	0.348125	-1.563319	-0.974011
C80	C	0.848125	-1.063319	-0.474011
C81	C	0.348095	-1.563346	-1.083733
C82	C	0.848095	-1.063346	-0.583733
C83	C	0.454719	-1.422054	-1.090486
C84	C	0.954719	-0.922054	-0.590486
C85	C	0.454744	-1.422023	-0.980765
C86	C	0.954744	-0.922023	-0.480765
C87	C	0.294829	-1.633957	-0.915776
C88	C	0.794829	-1.133957	-0.415776
C89	C	0.241502	-1.704621	-0.967256
C90	C	0.741502	-1.204621	-0.467256
C91	C	0.241472	-1.704648	-1.076979
C92	C	0.741472	-1.204648	-0.576979
C93	C	0.294769	-1.634011	-1.135221
C94	C	0.794769	-1.134011	-0.635221
C95	C	0.401592	-1.492534	-0.258762
C96	C	0.901592	-0.992534	0.241238
C97	C	0.401393	-1.492719	-0.141973
C98	C	0.901393	-0.992719	0.358027
H99	H	0.916051	-1.404980	-0.619173
H100	H	1.416051	-0.904980	-0.119173
H101	H	0.886239	-1.580146	-0.444233
H102	H	1.386239	-1.080146	0.055767
H103	H	0.508335	-1.185319	-0.672673
H104	H	1.008335	-0.685319	-0.172673
F105	F	0.291391	-0.886875	-0.386277
F106	F	0.791391	-0.386875	0.113723
F107	F	0.508365	-0.759747	-0.672725
F108	F	1.008365	-0.259747	-0.172725
H109	H	0.304706	-1.098808	-0.403884
H110	H	0.804706	-0.598808	0.096116
H111	H	0.294730	-1.634027	-1.224563
H112	H	0.794730	-1.134027	-0.724563
F113	F	0.511439	-1.346885	-1.152474
F114	F	1.011439	-0.846885	-0.652474
F115	F	0.618533	-1.092463	-0.818157
F116	F	1.118533	-0.592463	-0.318157
F117	F	0.618555	-0.865963	-0.818189
F118	F	1.118555	-0.365963	-0.318189
H119	H	0.498152	-1.364472	-0.938848
H120	H	0.998152	-0.864472	-0.438848
H121	H	0.294850	-1.633945	-0.826435
H122	H	0.794850	-1.133945	-0.326435
H123	H	0.198104	-1.762125	-0.919828
H124	H	0.698104	-1.262125	-0.419828
H125	H	0.198044	-1.762179	-1.118890
H126	H	0.698044	-1.262179	-0.618890
