data_functionalizedCrystal
_audit_creation_method	'MofGen! by Chris Wilmer'
_symmetry_space_group_name_H-M	'P1'
_symmetry_Int_Tables_number	1
_symmetry_cell_setting	triclinic
loop_
_symmetry_equiv_pos_as_xyz
  x,y,z
_cell_length_a	16.120484
_cell_length_b	12.759395
_cell_length_c	12.759387
_cell_angle_alpha	89.980569
_cell_angle_beta	92.863576
_cell_angle_gamma	92.925231
loop_
_atom_site_label
_atom_site_type_symbol
_atom_site_fract_x
_atom_site_fract_y
_atom_site_fract_z
Zn1	Zn	-0.331865	1.584985	-0.615139
Zn2	Zn	-0.471302	1.575933	-0.448352
Zn3	Zn	-0.331907	1.409280	-0.439482
Zn4	Zn	-0.471238	1.400337	-0.623990
O5	O	-0.401578	1.492634	-0.531741
O6	O	-0.350371	1.730804	-0.593022
O7	O	-0.452854	1.553781	-0.300157
O8	O	-0.215236	1.440119	-0.455367
O9	O	-0.452814	1.724154	-0.470485
O10	O	-0.215206	1.569208	-0.584421
O11	O	-0.350442	1.431342	-0.293640
O12	O	-0.350380	1.261073	-0.463949
O13	O	-0.452706	1.424876	-0.769835
O14	O	-0.452746	1.254503	-0.599507
O15	O	-0.350310	1.560536	-0.763332
O16	O	-0.587958	1.545108	-0.479067
O17	O	-0.587912	1.416099	-0.608108
C18	C	-0.401561	1.219667	-0.531727
C19	C	-0.401574	1.102890	-0.531747
C20	C	-0.295073	1.109784	-0.659574
C21	C	-0.241832	1.058370	-0.723496
C22	C	-0.241847	0.948648	-0.723510
C23	C	-0.295106	0.890337	-0.659593
C24	C	-0.348347	0.941751	-0.595670
C25	C	-0.348328	1.051476	-0.595665
C26	C	-0.454843	0.934856	-0.467839
C27	C	-0.454834	1.044578	-0.467829
C28	C	-0.508103	0.876545	-0.403922
C29	C	-0.561349	0.927959	-0.340003
C30	C	-0.561333	1.037688	-0.339993
C31	C	-0.508075	1.095992	-0.403907
C32	C	-0.618185	1.478679	-0.545533
C33	C	-0.710851	1.472806	-0.551469
C34	C	-0.880511	1.462088	-0.562328
C35	C	-0.921804	1.523367	-0.501171
C36	C	-1.016209	1.517404	-0.507213
C37	C	-0.786098	1.468050	-0.556287
C38	C	-0.184125	1.506671	-0.517917
C39	C	-0.091459	1.512653	-0.512027
C40	C	-0.401496	1.492718	-0.805769
C41	C	-0.401461	1.492754	-0.922544
C42	C	-0.401595	1.766666	-0.531756
C43	C	-0.401602	1.883442	-0.531762
C44	C	-0.294843	1.634026	-0.915793
C45	C	-0.241521	1.704677	-0.967277
C46	C	-0.241491	1.704705	-1.076997
C47	C	-0.294786	1.634071	-1.135235
C48	C	-0.348108	1.563420	-1.083750
C49	C	-0.348134	1.563402	-0.974028
C50	C	-0.454721	1.422145	-1.090501
C51	C	-0.454757	1.422121	-0.980782
C52	C	-0.508016	1.351512	-1.148739
C53	C	-0.561343	1.280864	-1.097255
C54	C	-0.561372	1.280840	-0.987529
C55	C	-0.508079	1.351470	-0.929298
C56	C	-0.401599	1.492614	-0.258775
C57	C	-0.401399	1.492796	-0.141986
H58	H	-0.295052	1.199127	-0.659564
H59	H	-0.507984	1.351535	-1.238079
Cl60	Cl	-0.294738	1.634099	-1.273169
H61	H	-0.916058	1.405150	-0.619217
H62	H	-0.295107	0.800995	-0.659601
H63	H	-0.886255	1.580308	-0.444276
Cl64	Cl	-0.628331	1.192072	-1.170472
Cl65	Cl	-0.628265	1.102313	-0.259624
Cl66	Cl	-0.294889	1.634011	-0.777859
H67	H	-0.198128	1.762184	-0.919847
H68	H	-0.508052	1.185335	-0.403899
Cl69	Cl	-0.174444	1.793508	-1.141722
H70	H	-0.508100	1.351461	-0.839958
Cl71	Cl	-0.174880	1.131680	-0.803845
Cl72	Cl	-0.174910	0.884010	-0.803863
H73	H	-0.508109	0.787203	-0.403935
Cl74	Cl	-0.628291	0.854650	-0.259652
H75	H	-0.604785	1.223296	-0.945617
