data_functionalizedCrystal
_audit_creation_method	'MofGen! by Chris Wilmer'
_symmetry_space_group_name_H-M	'P1'
_symmetry_Int_Tables_number	1
_symmetry_cell_setting	triclinic
loop_
_symmetry_equiv_pos_as_xyz
  x,y,z
_cell_length_a	16.120530
_cell_length_b	16.625546
_cell_length_c	16.625527
_cell_angle_alpha	90.087861
_cell_angle_beta	87.040224
_cell_angle_gamma	92.882099
loop_
_atom_site_label
_atom_site_type_symbol
_atom_site_fract_x
_atom_site_fract_y
_atom_site_fract_z
Zn1	Zn	1.274930	0.383088	-0.518345
Zn2	Zn	1.274734	0.518057	-0.383498
Zn3	Zn	1.135410	0.376407	-0.376692
Zn4	Zn	1.135475	0.511041	-0.511467
O5	O	1.205137	0.447148	-0.447501
O6	O	1.391574	0.406724	-0.506185
O7	O	1.256143	0.499407	-0.269757
O8	O	1.153972	0.264463	-0.395513
O9	O	1.391430	0.505885	-0.407113
O10	O	1.256477	0.269372	-0.499585
O11	O	1.153782	0.395337	-0.264757
O12	O	1.018748	0.388534	-0.388843
O13	O	1.154083	0.493928	-0.625218
O14	O	1.018796	0.487449	-0.487862
O15	O	1.256540	0.399921	-0.630271
O16	O	1.256206	0.629956	-0.400443
O17	O	1.153893	0.624801	-0.494461
C18	C	1.205058	0.656635	-0.447463
C19	C	1.205101	0.746258	-0.447478
C20	C	0.988521	0.436506	-0.436868
C21	C	0.895852	0.431973	-0.432339
C22	C	1.205341	0.446887	-0.657820
C23	C	1.205427	0.446776	-0.747446
C24	C	0.726184	0.423677	-0.424076
C25	C	0.684931	0.470678	-0.470984
C26	C	0.590522	0.466063	-0.466387
C27	C	0.820601	0.428292	-0.428672
C28	C	1.422599	0.457832	-0.458175
C29	C	1.515268	0.462385	-0.462724
C30	C	1.205239	0.236844	-0.447557
C31	C	1.205282	0.147225	-0.447581
C32	C	1.205246	1.074441	-0.447569
C33	C	1.205203	0.983130	-0.447545
C34	C	1.205173	0.910353	-0.447523
C35	C	1.205131	0.819036	-0.447500
C36	C	1.204982	0.447352	-0.238002
C37	C	1.205057	0.447244	-0.148385
C38	C	1.205367	0.446864	0.179775
C39	C	1.205283	0.446973	0.088471
C40	C	1.205212	0.447055	0.015698
C41	C	1.205129	0.447162	-0.075612
H42	H	0.690601	0.379976	-0.380466
O43	O	0.732057	0.528577	-0.528755
H44	H	0.799889	0.523168	-0.523342
