data_functionalizedCrystal
_audit_creation_method	'MofGen! by Chris Wilmer'
_symmetry_space_group_name_H-M	'P1'
_symmetry_Int_Tables_number	1
_symmetry_cell_setting	triclinic
loop_
_symmetry_equiv_pos_as_xyz
  x,y,z
_cell_length_a	18.215405
_cell_length_b	18.101398
_cell_length_c	18.215399
_cell_angle_alpha	90.027596
_cell_angle_beta	89.972459
_cell_angle_gamma	89.985297
loop_
_atom_site_label
_atom_site_type_symbol
_atom_site_fract_x
_atom_site_fract_y
_atom_site_fract_z
Zn1	Zn	-0.293149	-1.132169	-0.416270
Zn2	Zn	-0.043149	-0.882169	-0.166270
Zn3	Zn	0.206851	-0.632169	0.083730
Zn4	Zn	0.456851	-0.382169	0.333730
Zn5	Zn	-0.416221	-1.132082	-0.293205
Zn6	Zn	-0.166221	-0.882082	-0.043205
Zn7	Zn	0.083779	-0.632082	0.206795
Zn8	Zn	0.333779	-0.382082	0.456795
Zn9	Zn	-0.293155	-1.008327	-0.293201
Zn10	Zn	-0.043155	-0.758327	-0.043201
Zn11	Zn	0.206845	-0.508327	0.206799
Zn12	Zn	0.456845	-0.258327	0.456799
Zn13	Zn	-0.416161	-1.008297	-0.416213
Zn14	Zn	-0.166161	-0.758297	-0.166213
Zn15	Zn	0.083839	-0.508297	0.083787
Zn16	Zn	0.333839	-0.258297	0.333787
O17	O	-0.354672	-1.070219	-0.354722
O18	O	-0.104672	-0.820219	-0.104722
O19	O	0.145328	-0.570219	0.145278
O20	O	0.395328	-0.320219	0.395278
O21	O	-0.309497	-1.235790	-0.399971
O22	O	-0.059497	-0.985790	-0.149971
O23	O	0.190503	-0.735790	0.100029
O24	O	0.440503	-0.485790	0.350029
O25	O	-0.399923	-1.115641	-0.190220
O26	O	-0.149923	-0.865641	0.059780
O27	O	0.100077	-0.615641	0.309780
O28	O	0.350077	-0.365641	0.559780
O29	O	-0.190170	-1.024804	-0.309549
O30	O	0.059830	-0.774804	-0.059549
O31	O	0.309830	-0.524804	0.190451
O32	O	0.559830	-0.274804	0.440451
O33	O	-0.399917	-1.235726	-0.309555
O34	O	-0.149917	-0.985726	-0.059555
O35	O	0.100083	-0.735726	0.190445
O36	O	0.350083	-0.485726	0.440445
O37	O	-0.190166	-1.115790	-0.399967
O38	O	0.059834	-0.865790	-0.149967
O39	O	0.309834	-0.615790	0.100033
O40	O	0.559834	-0.365790	0.350033
O41	O	-0.309507	-1.024719	-0.190217
O42	O	-0.059507	-0.774719	0.059783
O43	O	0.190493	-0.524719	0.309783
O44	O	0.440493	-0.274719	0.559783
O45	O	-0.309450	-0.904690	-0.309493
O46	O	-0.059450	-0.654690	-0.059493
O47	O	0.190550	-0.404690	0.190507
O48	O	0.440550	-0.154690	0.440507
O49	O	-0.399816	-1.024753	-0.519205
O50	O	-0.149816	-0.774753	-0.269205
O51	O	0.100184	-0.524753	-0.019205
O52	O	0.350184	-0.274753	0.230795
O53	O	-0.399822	-0.904668	-0.399870
O54	O	-0.149822	-0.654668	-0.149870
O55	O	0.100178	-0.404668	0.100130
O56	O	0.350178	-0.154668	0.350130
O57	O	-0.309440	-1.115761	-0.519247
O58	O	-0.059440	-0.865761	-0.269247
O59	O	0.190560	-0.615761	-0.019247
O60	O	0.440560	-0.365761	0.230753
O61	O	-0.519197	-1.115612	-0.309500
O62	O	-0.269197	-0.865612	-0.059500
O63	O	-0.019197	-0.615612	0.190500
O64	O	0.230803	-0.365612	0.440500
O65	O	-0.519154	-1.024668	-0.399874
O66	O	-0.269154	-0.774668	-0.149874
O67	O	-0.019154	-0.524668	0.100126
O68	O	0.230846	-0.274668	0.350126
C69	C	-0.354631	-0.877808	-0.354675
C70	C	-0.104631	-0.627808	-0.104675
C71	C	0.145369	-0.377808	0.145325
C72	C	0.395369	-0.127808	0.395325
C73	C	-0.354631	-0.795494	-0.354673
C74	C	-0.104631	-0.545494	-0.104673
C75	C	0.145369	-0.295494	0.145327
C76	C	0.395369	-0.045494	0.395327
C77	C	-0.354660	-0.496403	-0.354721
C78	C	-0.104660	-0.246403	-0.104721
C79	C	0.145340	0.003597	0.145279
C80	C	0.395340	0.253597	0.395279
C81	C	-0.297518	-0.527717	-0.298138
C82	C	-0.047518	-0.277717	-0.048138
C83	C	0.202482	-0.027717	0.201862
C84	C	0.452482	0.222283	0.451862
C85	C	-0.297676	-0.613335	-0.297900
C86	C	-0.047676	-0.363335	-0.047900
C87	C	0.202324	-0.113335	0.202100
C88	C	0.452324	0.136665	0.452100
C89	C	-0.354645	-0.644785	-0.354697
C90	C	-0.104645	-0.394785	-0.104697
C91	C	0.145355	-0.144785	0.145303
C92	C	0.395355	0.105215	0.395303
C93	C	-0.432166	-0.613679	-0.333505
C94	C	-0.182166	-0.363679	-0.083505
C95	C	0.067834	-0.113679	0.166495
C96	C	0.317834	0.136321	0.416495
C97	C	-0.431844	-0.528033	-0.333108
C98	C	-0.181844	-0.278033	-0.083108
C99	C	0.068156	-0.028033	0.166892
C100	C	0.318156	0.221967	0.416892
C101	C	-0.334956	-0.528016	-0.432631
C102	C	-0.084956	-0.278016	-0.182631
C103	C	0.165044	-0.028016	0.067369
C104	C	0.415044	0.221984	0.317369
C105	C	-0.333235	-0.613666	-0.432210
C106	C	-0.083235	-0.363666	-0.182210
C107	C	0.166765	-0.113666	0.067790
C108	C	0.416765	0.136334	0.317790
C109	C	-0.354641	-0.728645	-0.354685
C110	C	-0.104641	-0.478645	-0.104685
C111	C	0.145359	-0.228645	0.145315
C112	C	0.395359	0.021355	0.395315
C113	C	-0.354669	-0.412543	-0.354732
C114	C	-0.104669	-0.162543	-0.104732
C115	C	0.145331	0.087457	0.145268
C116	C	0.395331	0.337457	0.395268
C117	C	-0.545878	-1.070148	-0.354697
C118	C	-0.295878	-0.820148	-0.104697
C119	C	-0.045878	-0.570148	0.145303
C120	C	0.204122	-0.320148	0.395303
C121	C	-0.627677	-1.070185	-0.354711
C122	C	-0.377677	-0.820185	-0.104711
C123	C	-0.127677	-0.570185	0.145289
C124	C	0.122323	-0.320185	0.395289
C125	C	-0.815808	-1.117584	-0.401855
C126	C	-0.565808	-0.867584	-0.151855
C127	C	-0.315808	-0.617584	0.098145
C128	C	-0.065808	-0.367584	0.348145
C129	C	-0.892666	-1.117611	-0.401869
C130	C	-0.642666	-0.867611	-0.151869
C131	C	-0.392666	-0.617611	0.098131
C132	C	-0.142666	-0.367611	0.348131
C133	C	-0.892784	-1.022944	-0.307635
C134	C	-0.642784	-0.772944	-0.057635
C135	C	-0.392784	-0.522944	0.192365
C136	C	-0.142784	-0.272944	0.442365
C137	C	-0.815927	-1.022914	-0.307625
C138	C	-0.565927	-0.772914	-0.057625
C139	C	-0.315927	-0.522914	0.192375
C140	C	-0.065927	-0.272914	0.442375
C141	C	-0.777440	-1.070239	-0.354735
C142	C	-0.527440	-0.820239	-0.104735
C143	C	-0.277440	-0.570239	0.145265
C144	C	-0.027440	-0.320239	0.395265
C145	C	-0.931156	-1.070295	-0.354758
C146	C	-0.681156	-0.820295	-0.104758
C147	C	-0.431156	-0.570295	0.145242
C148	C	-0.181156	-0.320295	0.395242
C149	C	-1.014490	-1.070324	-0.354773
C150	C	-0.764490	-0.820324	-0.104773
C151	C	-0.514490	-0.570324	0.145227
C152	C	-0.264490	-0.320324	0.395227
C153	C	-0.694101	-1.070209	-0.354721
C154	C	-0.444101	-0.820209	-0.104721
C155	C	-0.194101	-0.570209	0.145279
C156	C	0.055899	-0.320209	0.395279
C157	C	-0.162719	-1.070310	-0.354764
C158	C	0.087281	-0.820310	-0.104764
C159	C	0.337281	-0.570310	0.145236
C160	C	0.587281	-0.320310	0.395236
C161	C	-0.080920	-1.070349	-0.354782
C162	C	0.169080	-0.820349	-0.104782
C163	C	0.419080	-0.570349	0.145218
C164	C	0.669080	-0.320349	0.395218
C165	C	-0.354621	-1.070264	-0.546675
C166	C	-0.104621	-0.820264	-0.296675
C167	C	0.145379	-0.570264	-0.046675
C168	C	0.395379	-0.320264	0.203325
C169	C	-0.354599	-1.070283	-0.628474
C170	C	-0.104599	-0.820283	-0.378474
C171	C	0.145401	-0.570283	-0.128474
C172	C	0.395401	-0.320283	0.121526
C173	C	-0.354699	-0.263380	-0.354759
C174	C	-0.104699	-0.013380	-0.104759
C175	C	0.145301	0.236620	0.145241
C176	C	0.395301	0.486620	0.395241
C177	C	-0.354674	-0.345695	-0.354746
C178	C	-0.104674	-0.095695	-0.104746
C179	C	0.145326	0.154305	0.145254
C180	C	0.395326	0.404305	0.395254
C181	C	-0.307496	-1.117688	-0.816691
C182	C	-0.057496	-0.867688	-0.566691
C183	C	0.192504	-0.617688	-0.316691
C184	C	0.442504	-0.367688	-0.066691
C185	C	-0.307475	-1.117697	-0.893550
C186	C	-0.057475	-0.867697	-0.643550
C187	C	0.192525	-0.617697	-0.393550
C188	C	0.442525	-0.367697	-0.143550
C189	C	-0.401589	-1.022930	-0.893495
C190	C	-0.151589	-0.772930	-0.643495
C191	C	0.098411	-0.522930	-0.393495
C192	C	0.348411	-0.272930	-0.143495
C193	C	-0.401606	-1.022918	-0.816638
C194	C	-0.151606	-0.772918	-0.566638
C195	C	0.098394	-0.522918	-0.316638
C196	C	0.348394	-0.272918	-0.066638
C197	C	-0.354561	-1.070301	-0.778238
C198	C	-0.104561	-0.820301	-0.528238
C199	C	0.145439	-0.570301	-0.278238
C200	C	0.395439	-0.320301	-0.028238
C201	C	-0.354522	-1.070322	-0.931954
C202	C	-0.104522	-0.820322	-0.681954
C203	C	0.145478	-0.570322	-0.431954
C204	C	0.395478	-0.320322	-0.181954
C205	C	-0.354499	-1.070331	-1.015288
C206	C	-0.104499	-0.820331	-0.765288
C207	C	0.145501	-0.570331	-0.515288
C208	C	0.395501	-0.320331	-0.265288
C209	C	-0.354582	-1.070291	-0.694899
C210	C	-0.104582	-0.820291	-0.444899
C211	C	0.145418	-0.570291	-0.194899
C212	C	0.395418	-0.320291	0.055101
C213	C	-0.354669	-1.070216	-0.163516
C214	C	-0.104669	-0.820216	0.086484
C215	C	0.145331	-0.570216	0.336484
C216	C	0.395331	-0.320216	0.586484
C217	C	-0.354483	-1.070341	-0.081718
C218	C	-0.104483	-0.820341	0.168282
C219	C	0.145517	-0.570341	0.418282
C220	C	0.395517	-0.320341	0.668282
H221	H	-0.276188	-0.634002	-0.448189
H222	H	-0.026188	-0.384002	-0.198189
H223	H	0.223812	-0.134002	0.051811
H224	H	0.473812	0.115998	0.301811
Cl225	Cl	-0.249194	-0.494702	-0.462374
Cl226	Cl	0.000806	-0.244702	-0.212374
Cl227	Cl	0.250806	0.005298	0.037626
Cl228	Cl	0.500806	0.255298	0.287626
H229	H	-0.439893	-0.984354	-0.924770
H230	H	-0.189893	-0.734354	-0.674770
H231	H	0.060107	-0.484354	-0.424770
H232	H	0.310107	-0.234354	-0.174770
H233	H	-0.376577	-0.507766	-0.474791
H234	H	-0.126577	-0.257766	-0.224791
H235	H	0.123423	-0.007766	0.025209
H236	H	0.373423	0.242234	0.275209
H237	H	-0.371824	-0.635078	-0.476630
H238	H	-0.121824	-0.385078	-0.226630
H239	H	0.128176	-0.135078	0.023370
H240	H	0.378176	0.114922	0.273370
Cl241	Cl	-0.767427	-1.177074	-0.461081
Cl242	Cl	-0.517427	-0.927074	-0.211081
Cl243	Cl	-0.267427	-0.677074	0.038919
Cl244	Cl	-0.017427	-0.427074	0.288919
H245	H	-0.784686	-0.984356	-0.269254
H246	H	-0.534686	-0.734356	-0.019254
H247	H	-0.284686	-0.484356	0.230746
H248	H	-0.034686	-0.234356	0.480746
H249	H	-0.240190	-0.634368	-0.311183
H250	H	0.009810	-0.384368	-0.061183
H251	H	0.259810	-0.134368	0.188817
H252	H	0.509810	0.115632	0.438817
H253	H	-0.269149	-1.156283	-0.924856
H254	H	-0.019149	-0.906283	-0.674856
H255	H	0.230851	-0.656283	-0.424856
H256	H	0.480851	-0.406283	-0.174856
H257	H	-0.439931	-0.984325	-0.785328
H258	H	-0.189931	-0.734325	-0.535328
H259	H	0.060069	-0.484325	-0.285328
H260	H	0.310069	-0.234325	-0.035328
H261	H	-0.923901	-1.156163	-0.440241
H262	H	-0.673901	-0.906163	-0.190241
H263	H	-0.423901	-0.656163	0.059759
H264	H	-0.173901	-0.406163	0.309759
H265	H	-0.310396	-0.506169	-0.240743
H266	H	-0.060396	-0.256169	0.009257
H267	H	0.189604	-0.006169	0.259257
H268	H	0.439604	0.243831	0.509257
Cl269	Cl	-0.499666	-0.645119	-0.395150
Cl270	Cl	-0.249666	-0.395119	-0.145150
Cl271	Cl	0.000334	-0.145119	0.104850
Cl272	Cl	0.250334	0.104881	0.354850
Cl273	Cl	-0.458419	-0.646739	-0.246521
Cl274	Cl	-0.208419	-0.396739	0.003479
Cl275	Cl	0.041581	-0.146739	0.253479
Cl276	Cl	0.291581	0.103261	0.503479
H277	H	-0.924129	-0.984416	-0.269279
H278	H	-0.674129	-0.734416	-0.019279
H279	H	-0.424129	-0.484416	0.230721
H280	H	-0.174129	-0.234416	0.480721
H281	H	-0.239854	-0.507139	-0.311273
H282	H	0.010146	-0.257139	-0.061273
H283	H	0.260146	-0.007139	0.188727
H284	H	0.510146	0.242861	0.438727
Cl285	Cl	-0.317787	-0.644921	-0.208770
Cl286	Cl	-0.067787	-0.394921	0.041230
Cl287	Cl	0.182213	-0.144921	0.291230
Cl288	Cl	0.432213	0.105079	0.541230
Cl289	Cl	-0.248351	-1.177252	-0.768420
Cl290	Cl	0.001649	-0.927252	-0.518420
Cl291	Cl	0.251649	-0.677252	-0.268420
Cl292	Cl	0.501649	-0.427252	-0.018420
H293	H	-0.475861	-0.507318	-0.372524
H294	H	-0.225861	-0.257318	-0.122524
H295	H	0.024139	-0.007318	0.127476
H296	H	0.274139	0.242682	0.377476
Cl297	Cl	-0.457640	-0.497136	-0.245172
Cl298	Cl	-0.207640	-0.247136	0.004828
Cl299	Cl	0.042360	0.002864	0.254828
Cl300	Cl	0.292360	0.252864	0.504828
