data_functionalizedCrystal
_audit_creation_method	'MofGen! by Chris Wilmer'
_symmetry_space_group_name_H-M	'P1'
_symmetry_Int_Tables_number	1
_symmetry_cell_setting	triclinic
loop_
_symmetry_equiv_pos_as_xyz
  x,y,z
_cell_length_a	17.699083
_cell_length_b	23.532407
_cell_length_c	16.776229
_cell_angle_alpha	89.988688
_cell_angle_beta	89.998886
_cell_angle_gamma	83.065847
loop_
_atom_site_label
_atom_site_type_symbol
_atom_site_fract_x
_atom_site_fract_y
_atom_site_fract_z
O1	O	1.003713	0.072020	-0.066185
O2	O	0.783287	0.081390	-0.066212
O3	O	0.900147	-0.006208	-0.066183
O4	O	0.886853	0.159617	-0.066214
O5	O	0.900132	-0.006213	0.066394
O6	O	0.783272	0.081384	0.066365
O7	O	1.003698	0.072015	0.066392
Zn8	Zn	0.893482	0.076699	0.087428
Zn9	Zn	0.893503	0.076706	-0.087248
O10	O	0.886838	0.159612	0.066363
C11	C	0.755084	0.081051	0.000073
C12	C	0.671071	0.080044	0.000063
C13	C	0.899801	-0.027427	0.000107
C14	C	0.898783	-0.090647	0.000113
C15	C	0.622189	0.131462	0.000054
C16	C	0.543251	0.130512	0.000065
C17	C	0.513196	0.078144	0.000079
C18	C	0.562084	0.026722	0.000090
C19	C	0.641021	0.027672	0.000086
C20	C	0.243740	0.022888	0.000111
C21	C	0.164797	0.021942	0.000113
C22	C	0.145970	0.125728	0.000090
C23	C	0.224907	0.126678	0.000085
C24	C	0.273788	0.075257	0.000101
C25	C	0.359382	0.076287	0.000091
C26	C	0.427603	0.077113	0.000083
C27	C	0.961554	-0.489570	0.000077
C28	C	0.960609	-0.548973	0.000071
O29	O	1.018799	-0.585550	0.000049
N30	N	0.891136	-0.571799	0.000063
C31	C	0.822604	-0.535218	0.000053
O32	O	0.763424	-0.560088	0.000045
C33	C	0.823550	-0.475816	0.000054
C34	C	0.893028	-0.452994	0.000070
C35	C	1.031026	-0.466747	0.000093
C36	C	1.031972	-0.407348	0.000100
C37	C	0.963445	-0.370772	0.000093
C38	C	0.893973	-0.393595	0.000078
C39	C	0.755019	-0.439237	0.000038
C40	C	0.755971	-0.379832	0.000038
C41	C	0.825448	-0.357009	0.000054
C42	C	0.826391	-0.297620	0.000078
N43	N	0.895864	-0.274795	0.000086
C44	C	0.964391	-0.311371	0.000093
C45	C	0.820622	-0.659966	0.000051
C46	C	0.819674	-0.719367	0.000056
C47	C	0.957680	-0.733118	0.000073
C48	C	0.958626	-0.673716	0.000073
C49	C	0.890095	-0.637141	0.000059
C50	C	0.966371	-0.186628	0.000110
C51	C	0.967310	-0.127223	0.000121
C52	C	0.829305	-0.113478	0.000100
C53	C	0.828365	-0.172877	0.000094
C54	C	0.896904	-0.209452	0.000096
O55	O	0.768232	-0.261008	0.000097
O56	O	1.023560	-0.286493	0.000091
C57	C	1.031901	0.072353	0.000105
C58	C	1.115914	0.073360	0.000110
C59	C	0.887184	0.180832	0.000071
C60	C	0.888202	0.244052	0.000060
N61	N	0.893474	0.076693	0.206639
N62	N	0.893517	0.076706	-0.206459
C63	C	0.945235	0.037921	0.248369
C64	C	0.945239	0.037921	0.331821
C65	C	0.893485	0.076696	0.373542
C66	C	0.841719	0.115470	0.331806
C67	C	0.841712	0.115467	0.248355
C68	C	0.841746	0.115481	0.668353
C69	C	0.841759	0.115482	0.751810
C70	C	0.945274	0.037935	0.751819
C71	C	0.945267	0.037932	0.668368
C72	C	0.893498	0.076704	0.626640
C73	C	0.893493	0.076703	0.536151
C74	C	0.893493	0.076699	0.464029
H75	H	0.646653	0.174106	0.000042
O76	O	0.689348	-0.344360	-0.000081
C77	C	0.647161	-0.354672	-0.068763
H78	H	0.666102	-0.399753	-0.091655
H79	H	0.584002	-0.350419	-0.053333
H80	H	0.657264	-0.322184	-0.116838
H81	H	1.013478	-0.762909	0.000076
H82	H	0.680820	-0.014197	0.000093
O83	O	1.034871	-0.105150	0.000098
C84	C	1.095149	-0.150175	0.000120
H85	H	1.074244	-0.190497	-0.024987
H86	H	1.143686	-0.137817	-0.038364
H87	H	1.116258	-0.158620	0.063725
H88	H	0.799595	0.147051	0.634384
O89	O	0.995539	0.000200	0.207968
C90	C	1.041237	-0.034013	0.262700
H91	H	1.010216	-0.034624	0.322190
H92	H	1.053126	-0.079507	0.238604
H93	H	1.097319	-0.015573	0.271562
O94	O	0.762810	-0.077861	0.000057
C95	C	0.778552	-0.020540	0.000082
H96	H	0.837989	-0.018340	-0.025002
H97	H	0.734856	0.006438	-0.038418
H98	H	0.775539	-0.003366	0.063686
H99	H	0.987387	0.006349	0.365797
H100	H	0.106161	0.167598	0.000081
O101	O	0.995569	0.000210	0.627965
C102	C	1.041269	-0.034003	0.682693
H103	H	1.010251	-0.034615	0.742185
H104	H	1.053155	-0.079497	0.658595
H105	H	1.097352	-0.015565	0.691553
O106	O	0.495801	0.180476	-0.000089
C107	C	0.509374	0.212283	-0.068753
H108	H	0.536577	0.182178	-0.116738
H109	H	0.453192	0.235200	-0.091802
H110	H	0.549328	0.245189	-0.053244
O111	O	0.995485	0.000287	0.792479
C112	C	0.984409	0.008609	0.875081
H113	H	0.924077	0.029949	0.886481
H114	H	0.993163	-0.034529	0.906807
H115	H	1.027030	0.037134	0.898749
H116	H	0.249373	0.169322	0.000070
H117	H	0.799612	0.147058	0.785777
O118	O	0.135727	-0.028982	0.000167
C119	C	0.195796	-0.074165	0.000162
H120	H	0.249307	-0.058277	0.025256
H121	H	0.179570	-0.110731	0.038665
H122	H	0.207086	-0.090023	-0.063437
O123	O	0.291290	-0.027025	0.000010
C124	C	0.337498	-0.029586	-0.068665
H125	H	0.341156	0.015613	-0.091562
H126	H	0.396989	-0.050889	-0.053223
H127	H	0.311715	-0.055554	-0.116740
O128	O	0.532853	-0.024134	-0.000037
C129	C	0.487740	-0.027780	-0.068687
H130	H	0.506186	0.001956	-0.116685
H131	H	0.495172	-0.073688	-0.091725
H132	H	0.425386	-0.014559	-0.053165
O133	O	1.032899	-0.222209	0.000222
C134	C	1.036486	-0.256982	0.068893
H135	H	0.976433	-0.259923	0.091771
H136	H	1.065038	-0.301659	0.053453
H137	H	1.070887	-0.237485	0.116982
O138	O	1.099529	-0.385278	0.000074
C139	C	1.159801	-0.430308	0.000098
H140	H	1.138890	-0.470628	-0.025004
H141	H	1.208341	-0.417956	-0.038388
H142	H	1.180911	-0.438752	0.063703
O143	O	0.791517	0.153115	0.372454
C144	C	0.802611	0.144796	0.455059
H145	H	0.862944	0.123454	0.466457
H146	H	0.793866	0.187935	0.486759
H147	H	0.759993	0.116273	0.478758
O148	O	1.097580	-0.502295	-0.000040
C149	C	1.101178	-0.537070	-0.068690
H150	H	1.062310	-0.515269	-0.116690
H151	H	1.162200	-0.543813	-0.091724
H152	H	1.081935	-0.580249	-0.053168
H153	H	1.015201	-0.655139	0.000086
O154	O	0.791404	0.153187	0.207940
C155	C	0.745713	0.187403	0.262656
H156	H	0.776743	0.188021	0.322138
H157	H	0.733818	0.232895	0.238529
H158	H	0.689633	0.168963	0.271546
H159	H	0.763099	-0.737943	0.000057
H160	H	0.764811	-0.630189	0.000046
O161	O	0.687573	-0.461463	-0.000092
C162	C	0.682897	-0.495384	-0.068772
H163	H	0.742669	-0.510261	-0.091645
H164	H	0.653009	-0.534241	-0.053346
H165	H	0.649234	-0.469082	-0.116860
O166	O	0.760810	-0.194956	0.000045
C167	C	0.700530	-0.149932	0.000064
H168	H	0.721440	-0.109598	-0.025018
H169	H	0.652004	-0.162273	-0.038443
H170	H	0.679401	-0.141517	0.063665
