data_functionalizedCrystal
_audit_creation_method	'MofGen! by Chris Wilmer'
_symmetry_space_group_name_H-M	'P1'
_symmetry_Int_Tables_number	1
_symmetry_cell_setting	triclinic
loop_
_symmetry_equiv_pos_as_xyz
  x,y,z
_cell_length_a	14.044220
_cell_length_b	14.519731
_cell_length_c	12.996460
_cell_angle_alpha	90.001112
_cell_angle_beta	90.007391
_cell_angle_gamma	88.438865
loop_
_atom_site_label
_atom_site_type_symbol
_atom_site_fract_x
_atom_site_fract_y
_atom_site_fract_z
O1	O	0.124370	1.233882	0.085572
O2	O	0.138984	0.966587	0.085574
O3	O	-0.006314	1.096222	0.085563
O4	O	0.269669	1.104246	0.085583
O5	O	-0.006324	1.096219	-0.085571
O6	O	0.138975	0.966583	-0.085560
O7	O	0.124361	1.233879	-0.085562
Cu8	Cu	0.131667	1.100231	-0.101187
Cu9	Cu	0.131678	1.100235	0.101199
O10	O	0.269659	1.104243	-0.085551
C11	C	0.138295	0.932170	0.000007
C12	C	0.136243	0.829625	0.000008
C13	C	0.134575	0.746346	0.000012
C14	C	0.132492	0.641869	0.000012
C15	C	0.130839	0.558597	0.000012
C16	C	0.128756	0.454113	0.000014
C17	C	-0.041640	1.092708	-0.000004
C18	C	-0.146884	1.082231	-0.000006
C19	C	-0.339580	1.063077	0.000009
C20	C	-0.397081	1.137385	0.000012
C21	C	-0.504303	1.126727	0.000020
C22	C	-0.232347	1.073733	0.000001
C23	C	0.304985	1.107757	0.000019
C24	C	0.410229	1.118234	0.000027
C25	C	0.125050	1.268295	0.000007
C26	C	0.127102	1.370841	0.000014
N27	N	0.131679	1.100237	0.243546
N28	N	0.131658	1.100235	-0.243534
C29	C	0.131670	1.100232	0.663360
C30	C	0.131675	1.100231	0.546555
C31	C	0.131674	1.100234	0.453457
C32	C	0.131680	1.100234	0.336644
H33	H	-0.365783	1.209006	0.000080
H34	H	-0.370876	0.991461	0.000012
