data_functionalizedCrystal
_audit_creation_method	'MofGen! by Chris Wilmer'
_symmetry_space_group_name_H-M	'P1'
_symmetry_Int_Tables_number	1
_symmetry_cell_setting	triclinic
loop_
_symmetry_equiv_pos_as_xyz
  x,y,z
_cell_length_a	8.559649
_cell_length_b	8.965430
_cell_length_c	10.489746
_cell_angle_alpha	90.001047
_cell_angle_beta	77.159983
_cell_angle_gamma	89.996523
loop_
_atom_site_label
_atom_site_type_symbol
_atom_site_fract_x
_atom_site_fract_y
_atom_site_fract_z
O1	O	2.119613	0.124014	-0.043226
O2	O	1.655168	0.124023	0.022571
O3	O	1.897955	0.124007	-0.197037
O4	O	1.876827	0.124030	0.176382
O5	O	1.897966	-0.124072	-0.197032
O6	O	1.655180	-0.124056	0.022576
O7	O	2.119625	-0.124065	-0.043221
Cu8	Cu	1.887403	-0.146712	-0.010322
Cu9	Cu	1.887390	0.146670	-0.010328
O10	O	1.876838	-0.124049	0.176387
C11	C	1.595701	-0.000016	0.027560
C12	C	1.418492	-0.000012	0.042402
N13	N	1.887424	-0.353061	-0.010320
C14	C	1.999742	-0.450334	-0.111879
C15	C	1.855231	-0.549738	-0.122497
C16	C	2.031878	-0.549785	0.000222
C17	C	1.742841	-0.450276	-0.020988
C18	C	1.919583	-0.450314	0.101772
C19	C	1.774969	-0.549673	0.091212
C20	C	2.179091	-0.000023	-0.048210
C21	C	2.356300	-0.000017	-0.063052
C22	C	1.896363	-0.000032	-0.244398
C23	C	1.891583	-0.000031	-0.385524
N24	N	1.887381	0.353019	-0.010341
C25	C	1.734276	-0.000010	-0.521818
C26	C	1.812918	0.122302	-0.452709
C27	C	1.812966	-0.122284	-0.452750
C28	C	1.961789	0.122414	-0.567877
C29	C	1.961816	-0.122282	-0.567920
C30	C	2.040567	0.000059	-0.498872
C31	C	1.878430	-0.000007	0.223748
C32	C	1.883209	0.000002	0.364874
H33	H	1.438625	-0.000015	-0.164691
N34	N	2.045020	-0.259261	-0.634315
H35	H	2.138569	-0.228099	-0.706248
H36	H	2.085013	-0.321947	-0.568170
N37	N	1.309450	0.000012	0.177049
H38	H	1.194067	0.000016	0.168928
H39	H	1.330748	-0.091952	0.226148
H40	H	2.094632	-0.406715	-0.197795
H41	H	1.750071	-0.225690	-0.402680
N42	N	1.819159	-0.607614	-0.248060
H43	H	1.710864	-0.569860	-0.256819
H44	H	1.904168	-0.571479	-0.324643
H45	H	1.620631	-0.406750	-0.030023
N46	N	1.649006	-0.607097	0.204987
H47	H	1.539981	-0.570701	0.196838
H48	H	1.650441	-0.719739	0.204736
N49	N	2.045015	0.259541	-0.633963
H50	H	1.989223	0.351818	-0.590969
H51	H	2.160328	0.259807	-0.625664
N52	N	1.955702	-0.392407	0.227299
H53	H	2.064921	-0.428538	0.235183
H54	H	1.954314	-0.279769	0.226636
H55	H	1.604773	0.000115	-0.532901
N56	N	2.193709	-0.607697	0.012055
H57	H	2.278475	-0.571562	-0.064704
H58	H	2.218748	-0.569967	0.096020
H59	H	1.750041	0.225712	-0.402616
N60	N	2.212234	0.000124	-0.484527
H61	H	2.268278	0.092551	-0.526963
H62	H	2.214399	-0.000817	-0.388658
