data_functionalizedCrystal
_audit_creation_method	'MofGen! by Chris Wilmer'
_symmetry_space_group_name_H-M	'P1'
_symmetry_Int_Tables_number	1
_symmetry_cell_setting	triclinic
loop_
_symmetry_equiv_pos_as_xyz
  x,y,z
_cell_length_a	11.169417
_cell_length_b	16.959454
_cell_length_c	11.169409
_cell_angle_alpha	89.967114
_cell_angle_beta	89.979436
_cell_angle_gamma	90.020954
loop_
_atom_site_label
_atom_site_type_symbol
_atom_site_fract_x
_atom_site_fract_y
_atom_site_fract_z
Zn1	Zn	1.834890	-0.314599	-0.678538
Zn2	Zn	1.834743	-0.446806	-0.477852
Zn3	Zn	1.634173	-0.314648	-0.477872
Zn4	Zn	1.634149	-0.446742	-0.678497
O5	O	1.734489	-0.380699	-0.578190
O6	O	2.002820	-0.332144	-0.651925
O7	O	1.808085	-0.429322	-0.309905
O8	O	1.660870	-0.204030	-0.504516
O9	O	2.002712	-0.429275	-0.504482
O10	O	1.808336	-0.203995	-0.651944
O11	O	1.660728	-0.332226	-0.309920
O12	O	1.466220	-0.332163	-0.504477
O13	O	1.660829	-0.429166	-0.846452
O14	O	1.466203	-0.429213	-0.651875
O15	O	1.808313	-0.332081	-0.846482
O16	O	1.808062	-0.557408	-0.504443
O17	O	1.660687	-0.557361	-0.651856
C18	C	1.422664	-0.380687	-0.578174
C19	C	1.289264	-0.380701	-0.578196
C20	C	1.734388	-0.586065	-0.578169
C21	C	1.734455	-0.673922	-0.578201
C22	C	1.657862	-1.045403	-0.654940
C23	C	1.811450	-1.045392	-0.501562
C24	C	1.811408	-0.962846	-0.501551
C25	C	1.734591	-0.921575	-0.578234
C26	C	1.657815	-0.962849	-0.654928
C27	C	1.888173	-0.921565	-0.424850
C28	C	1.888134	-0.839014	-0.424835
C29	C	1.811321	-0.797741	-0.501525
C30	C	1.734544	-0.839021	-0.578223
C31	C	1.657726	-0.797750	-0.654906
C32	C	1.580954	-0.839028	-0.731611
C33	C	1.581003	-0.921576	-0.731618
C34	C	1.811272	-0.715193	-0.501518
C35	C	1.657679	-0.715196	-0.654895
C36	C	2.047531	-0.380711	-0.578206
C37	C	2.180931	-0.380717	-0.578213
C38	C	1.734585	-0.380611	-0.891232
C39	C	1.734626	-0.380574	-1.024633
C40	C	1.734622	-0.174531	-0.578237
C41	C	1.734679	-0.086674	-0.578257
C42	C	1.734462	-0.380729	-0.266365
C43	C	1.734653	-0.380544	-0.132966
H44	H	1.595129	-0.681598	-0.717344
Cl45	Cl	1.908016	-1.097276	-0.405167
Cl46	Cl	1.984656	-0.787129	-0.328419
H47	H	1.518403	-0.805415	-0.794042
Cl48	Cl	1.484496	-0.973473	-0.828035
H49	H	1.950705	-0.955174	-0.362410
Cl50	Cl	1.561358	-1.097292	-0.751369
Cl51	Cl	1.907765	-0.663304	-0.405084
