data_functionalizedCrystal
_audit_creation_method	'MofGen! by Chris Wilmer'
_symmetry_space_group_name_H-M	'P1'
_symmetry_Int_Tables_number	1
_symmetry_cell_setting	triclinic
loop_
_symmetry_equiv_pos_as_xyz
  x,y,z
_cell_length_a	17.699083
_cell_length_b	17.699077
_cell_length_c	16.776229
_cell_angle_alpha	90.005198
_cell_angle_beta	90.004308
_cell_angle_gamma	83.281795
loop_
_atom_site_label
_atom_site_type_symbol
_atom_site_fract_x
_atom_site_fract_y
_atom_site_fract_z
O1	O	0.095688	1.004080	0.066279
O2	O	0.108145	0.783701	0.066283
O3	O	-0.008273	0.900117	0.066274
O4	O	0.212106	0.887664	0.066288
O5	O	-0.008273	0.900104	-0.066302
O6	O	0.108145	0.783688	-0.066293
O7	O	0.095688	1.004067	-0.066297
Zn8	Zn	0.101916	0.893875	-0.087345
Zn9	Zn	0.101917	0.893893	0.087331
O10	O	0.212106	0.887651	-0.066288
C11	C	0.107700	0.755498	-0.000004
C12	C	0.106363	0.671479	-0.000003
C13	C	-0.036470	0.899664	-0.000014
C14	C	-0.120488	0.898326	-0.000015
C15	C	0.105733	0.632005	-0.072271
C16	C	0.104464	0.553062	-0.072272
C17	C	0.103832	0.513595	-0.000004
C18	C	0.104460	0.553075	0.072270
C19	C	0.105722	0.632017	0.072270
C20	C	0.099366	0.234712	0.072271
C21	C	0.098106	0.155764	0.072265
C22	C	0.098108	0.155757	-0.072271
C23	C	0.099371	0.234699	-0.072271
C24	C	0.099995	0.274173	0.000002
C25	C	0.101369	0.359772	0.000002
C26	C	0.102464	0.427997	-0.000003
C27	C	-0.169110	0.966659	-0.000017
C28	C	-0.248054	0.965397	-0.000010
C29	C	-0.278373	0.895800	-0.000006
C30	C	-0.229744	0.827461	-0.000001
C31	C	-0.150803	0.828724	-0.000003
C32	C	-0.548107	0.822366	0.000005
C33	C	-0.627055	0.821108	0.000004
C34	C	-0.645358	0.959039	-0.000002
C35	C	-0.566417	0.960302	-0.000003
C36	C	-0.517795	0.891963	0.000006
C37	C	-0.432196	0.893333	-0.000000
C38	C	-0.363971	0.894430	-0.000006
C39	C	0.240303	0.888104	0.000002
C40	C	0.324321	0.889443	0.000008
C41	C	0.096133	1.032271	-0.000008
C42	C	0.097470	1.116289	-0.000004
N43	N	0.101916	0.893869	-0.206556
C44	C	0.147763	0.939684	-0.248267
C45	C	0.147760	0.939693	-0.331719
C46	C	0.101913	0.893881	-0.373459
C47	C	0.056060	0.848064	-0.331742
C48	C	0.056060	0.848061	-0.248291
C49	C	0.056061	0.848080	-0.668289
C50	C	0.056067	0.848085	-0.751745
C51	C	0.147762	0.939712	-0.751717
C52	C	0.147761	0.939708	-0.668267
C53	C	0.101906	0.893894	-0.626557
C54	C	0.101908	0.893887	-0.536068
C55	C	0.101914	0.893884	-0.463946
N56	N	0.101911	0.893905	0.206542
H57	H	0.106254	0.664132	-0.131121
H58	H	0.018726	0.810753	-0.214331
H59	H	-0.651737	0.764431	0.000006
Cl60	Cl	0.103636	0.503463	0.163122
Cl61	Cl	0.097309	0.106149	0.163124
H62	H	0.099872	0.266843	0.131120
H63	H	-0.541735	1.016974	-0.000010
H64	H	0.018730	0.810779	-0.785727
H65	H	0.185098	0.977018	-0.785688
H66	H	0.106237	0.664156	0.131118
H67	H	-0.684956	1.014683	-0.000005
H68	H	-0.287639	1.021041	-0.000014
Cl69	Cl	0.103686	0.503438	-0.163128
H70	H	0.018723	0.810776	-0.634339
Cl71	Cl	-0.131003	1.054157	-0.000030
H72	H	-0.508528	0.766721	0.000012
Cl73	Cl	0.100171	0.284310	-0.163126
Cl74	Cl	0.097320	0.106128	-0.163131
Cl75	Cl	-0.267860	0.739968	0.000013
Cl76	Cl	-0.001578	0.790474	-0.384214
Cl77	Cl	-0.089676	0.742816	0.000003
Cl78	Cl	0.205404	0.997278	-0.195803
Cl79	Cl	0.205402	0.997290	-0.384153
H80	H	0.185098	0.977009	-0.634287
