data_functionalizedCrystal
_audit_creation_method	'MofGen! by Chris Wilmer'
_symmetry_space_group_name_H-M	'P1'
_symmetry_Int_Tables_number	1
_symmetry_cell_setting	triclinic
loop_
_symmetry_equiv_pos_as_xyz
  x,y,z
_cell_length_a	19.077399
_cell_length_b	13.031981
_cell_length_c	19.077271
_cell_angle_alpha	80.222332
_cell_angle_beta	94.665898
_cell_angle_gamma	99.757739
loop_
_atom_site_label
_atom_site_type_symbol
_atom_site_fract_x
_atom_site_fract_y
_atom_site_fract_z
Zn1	Zn	1.034191	-0.334870	-0.327841
Zn2	Zn	1.534191	0.165130	0.172159
Zn3	Zn	1.023794	-0.518215	-0.194868
Zn4	Zn	1.523794	-0.018215	0.305132
Zn5	Zn	0.919923	-0.348537	-0.213568
Zn6	Zn	1.419923	0.151463	0.286432
Zn7	Zn	0.901229	-0.518154	-0.317444
Zn8	Zn	1.401229	-0.018154	0.182556
O9	O	0.969784	-0.429944	-0.263430
O10	O	1.469784	0.070056	0.236570
O11	O	1.131927	-0.353497	-0.306727
O12	O	1.631927	0.146503	0.193273
O13	O	1.013488	-0.501452	-0.098227
O14	O	1.513488	-0.001452	0.401773
O15	O	0.947255	-0.199008	-0.240903
O16	O	1.447255	0.300992	0.259097
O17	O	1.124289	-0.488200	-0.209033
O18	O	1.624289	0.011800	0.290967
O19	O	1.031207	-0.188967	-0.324859
O20	O	1.531207	0.311033	0.175141
O21	O	0.937174	-0.376790	-0.111965
O22	O	1.437174	0.123210	0.388035
O23	O	0.818327	-0.376731	-0.230822
O24	O	1.318327	0.123269	0.269178
O25	O	0.915394	-0.488096	-0.417945
O26	O	1.415394	0.011904	0.082055
O27	O	0.804593	-0.501348	-0.307140
O28	O	1.304593	-0.001348	0.192860
O29	O	1.013080	-0.353438	-0.425584
O30	O	1.513080	0.146562	0.074416
O31	O	0.995361	-0.665923	-0.198952
O32	O	1.495361	-0.165923	0.301048
O33	O	0.905313	-0.665878	-0.289008
O34	O	1.405313	-0.165878	0.210992
C35	C	0.785761	-0.440517	-0.269883
C36	C	1.285761	0.059483	0.230117
C37	C	0.707032	-0.445064	-0.272657
C38	C	1.207032	0.054936	0.227343
C39	C	0.677181	-0.382213	-0.234309
C40	C	1.177181	0.117787	0.265691
C41	C	0.603206	-0.386495	-0.236916
C42	C	1.103206	0.113505	0.263084
C43	C	0.559084	-0.453623	-0.277875
C44	C	1.059084	0.046377	0.222125
C45	C	0.588939	-0.516482	-0.316224
C46	C	1.088939	-0.016482	0.183776
C47	C	0.662913	-0.512204	-0.313613
C48	C	1.162913	-0.012204	0.186387
C49	C	0.337081	-0.473389	-0.289932
C50	C	0.837081	0.026611	0.210068
C51	C	0.263104	-0.477659	-0.292541
C52	C	0.763104	0.022341	0.207459
C53	C	0.277375	-0.347674	-0.213232
C54	C	0.777375	0.152326	0.286768
C55	C	0.351349	-0.343398	-0.210628
C56	C	0.851349	0.156602	0.289372
C57	C	0.381198	-0.406260	-0.248974
C58	C	0.881198	0.093740	0.251026
N59	N	0.483469	-0.457999	-0.280542
N60	N	0.983469	0.042001	0.219458
N61	N	0.456811	-0.401889	-0.246303
N62	N	0.956811	0.098111	0.253697
C63	C	0.947199	-0.704200	-0.240837
C64	C	1.447199	-0.204200	0.259163
C65	C	0.937601	-0.821523	-0.231193
C66	C	1.437601	-0.321523	0.268807
C67	C	0.974831	-0.868777	-0.268476
C68	C	1.474831	-0.368777	0.231524
C69	C	0.964912	-0.990036	-0.258510
C70	C	1.464912	-0.490036	0.241490
C71	C	1.154526	-0.419331	-0.256953
C72	C	1.654526	0.080669	0.243047
C73	C	1.233252	-0.414808	-0.254193
C74	C	1.733252	0.085192	0.245807
C75	C	0.963312	-0.419236	-0.448184
C76	C	1.463312	0.080764	0.051816
C77	C	0.960553	-0.414672	-0.526915
C78	C	1.460553	0.085328	-0.026915
C79	C	0.992476	-0.154615	-0.286127
C80	C	1.492476	0.345385	0.213873
C81	C	1.002146	-0.037286	-0.295798
C82	C	1.502146	0.462714	0.204202
C83	C	0.940764	-0.382028	-0.970856
C84	C	1.440764	0.117972	-0.470856
C85	C	0.943359	-0.386311	-0.896880
C86	C	1.443359	0.113689	-0.396880
C87	C	0.984385	-0.453363	-0.852738
C88	C	1.484385	0.046637	-0.352738
C89	C	1.022824	-0.516128	-0.882576
C90	C	1.522824	-0.016128	-0.382576
C91	C	1.020233	-0.511839	-0.956551
C92	C	1.520233	-0.011839	-0.456551
C93	C	0.996401	-0.473148	-0.630728
C94	C	1.496401	0.026852	-0.130728
C95	C	0.998988	-0.477435	-0.556749
C96	C	1.498988	0.022565	-0.056749
C97	C	0.919524	-0.347616	-0.571058
C98	C	1.419524	0.152384	-0.071058
C99	C	0.916932	-0.343337	-0.645034
C100	C	1.416932	0.156663	-0.145034
C101	C	0.955374	-0.406098	-0.674865
C102	C	1.455374	0.093902	-0.174865
N103	N	0.987037	-0.457746	-0.777122
N104	N	1.487037	0.042254	-0.277122
N105	N	0.952725	-0.401709	-0.750480
N106	N	1.452725	0.098291	-0.250480
C107	C	0.976279	-0.440532	-0.079400
C108	C	1.476279	0.059468	0.420600
C109	C	0.979198	-0.444790	-0.000689
C110	C	1.479198	0.055210	0.499311
H111	H	0.713101	-0.327541	-0.200962
H112	H	1.213101	0.172459	0.299038
F113	F	1.061143	-0.578635	-0.988301
F114	F	1.561143	-0.078635	-0.488301
H115	H	0.253064	-0.296496	-0.182012
H116	H	0.753064	0.203504	0.317988
H117	H	0.888228	-0.296518	-0.546761
H118	H	1.388228	0.203482	-0.046761
F119	F	0.902453	-0.319508	-0.865133
F120	F	1.402453	0.180492	-0.365133
F121	F	0.886337	-0.885977	-0.179830
F122	F	1.386337	-0.385977	0.320170
H123	H	0.227180	-0.532322	-0.325900
H124	H	0.727180	-0.032322	0.174100
F125	F	1.042652	-0.548809	-0.509770
F126	F	1.542652	-0.048809	-0.009770
F127	F	0.398303	-0.271943	-0.167040
F128	F	0.898303	0.228057	0.332960
H129	H	0.907354	-0.327429	-1.006792
H130	H	1.407354	0.172571	-0.506792
F131	F	0.913645	-1.054486	-0.207144
F132	F	1.413645	-0.554486	0.292856
H133	H	1.027701	-0.524255	-0.655008
H134	H	1.527701	-0.024255	-0.155008
H135	H	0.883521	-0.288740	-0.680970
H136	H	1.383521	0.211260	-0.180970
F137	F	1.066493	-0.587483	-0.835595
F138	F	1.566493	-0.087483	-0.335595
H139	H	0.578905	-0.335321	-0.205684
H140	H	1.078905	0.164679	0.294316
F141	F	1.053409	-0.972838	-0.347169
F142	F	1.553409	-0.472838	0.152831
F143	F	0.541979	-0.587939	-0.359806
F144	F	1.041979	-0.087939	0.140194
F145	F	0.368839	-0.540291	-0.330745
F146	F	0.868839	-0.040291	0.169255
H147	H	0.687216	-0.563385	-0.344840
H148	H	1.187216	-0.063385	0.155160
F149	F	1.026084	-0.804323	-0.319850
F150	F	1.526084	-0.304323	0.180150
