data_functionalizedCrystal
_audit_creation_method	'MofGen! by Chris Wilmer'
_symmetry_space_group_name_H-M	'P1'
_symmetry_Int_Tables_number	1
_symmetry_cell_setting	triclinic
loop_
_symmetry_equiv_pos_as_xyz
  x,y,z
_cell_length_a	16.959455
_cell_length_b	19.805405
_cell_length_c	16.959434
_cell_angle_alpha	90.093187
_cell_angle_beta	89.940565
_cell_angle_gamma	89.976642
loop_
_atom_site_label
_atom_site_type_symbol
_atom_site_fract_x
_atom_site_fract_y
_atom_site_fract_z
Zn1	Zn	1.208701	0.269107	-0.446891
Zn2	Zn	1.208505	0.382422	-0.314705
Zn3	Zn	1.076425	0.269246	-0.314729
Zn4	Zn	1.076479	0.382254	-0.446844
O5	O	1.142528	0.325757	-0.380792
O6	O	1.319286	0.284151	-0.429367
O7	O	1.190879	0.367537	-0.204097
O8	O	1.094031	0.174511	-0.332290
O9	O	1.319142	0.367403	-0.332250
O10	O	1.191214	0.174409	-0.429390
O11	O	1.093841	0.284388	-0.204114
O12	O	0.965822	0.284224	-0.332244
O13	O	1.094124	0.367116	-0.557461
O14	O	0.965861	0.367251	-0.429308
O15	O	1.191266	0.283988	-0.557496
O16	O	1.190932	0.477116	-0.332204
O17	O	1.093933	0.476993	-0.429285
C18	C	0.937161	0.325735	-0.380774
C19	C	0.849305	0.325742	-0.380785
C20	C	1.142439	0.501613	-0.380754
C21	C	1.142473	0.576845	-0.380764
C22	C	1.142723	0.325518	-0.586961
C23	C	1.142806	0.325416	-0.674818
C24	C	0.477784	0.282490	-0.330356
C25	C	0.477874	0.369080	-0.431273
C26	C	0.560420	0.369070	-0.431269
C27	C	0.601652	0.325771	-0.380806
C28	C	0.560338	0.282480	-0.330348
C29	C	0.601740	0.412365	-0.481720
C30	C	0.684291	0.412357	-0.481716
C31	C	0.725525	0.369053	-0.431257
C32	C	0.684205	0.325761	-0.380798
C33	C	0.725437	0.282461	-0.330335
C34	C	0.684119	0.239165	-0.279880
C35	C	0.601571	0.239176	-0.279889
C36	C	0.808073	0.369042	-0.431248
C37	C	0.807991	0.282451	-0.330327
C38	C	1.348696	0.325780	-0.380811
C39	C	1.436552	0.325790	-0.380819
C40	C	1.142639	0.149214	-0.380848
C41	C	1.142686	0.073982	-0.380872
C42	C	1.193029	0.612231	-0.330266
C43	C	1.193063	0.682920	-0.330284
C44	C	1.142536	0.718221	-0.380796
C45	C	1.091977	0.682830	-0.431299
C46	C	1.091948	0.612143	-0.431285
C47	C	1.092094	0.967903	-0.431357
C48	C	1.092125	1.038595	-0.431366
C49	C	1.193208	1.038680	-0.330357
C50	C	1.193179	0.967993	-0.330342
C51	C	1.142624	0.932608	-0.380848
C52	C	1.142589	0.855960	-0.380830
C53	C	1.142566	0.794868	-0.380811
C54	C	1.142379	0.325947	-0.175425
C55	C	1.142449	0.325858	-0.087569
C56	C	1.193660	0.368437	0.283955
C57	C	1.091881	0.282484	0.283856
C58	C	1.091810	0.282570	0.201310
C59	C	1.142663	0.325592	0.160083
C60	C	1.193588	0.368527	0.201402
C61	C	1.040880	0.239641	0.159985
C62	C	1.040806	0.239727	0.077434
C63	C	1.091664	0.282746	0.036206
C64	C	1.142592	0.325682	0.077530
C65	C	1.193445	0.368703	0.036303
C66	C	1.244377	0.411637	0.077626
C67	C	1.244446	0.411546	0.160174
C68	C	1.091595	0.282837	-0.046342
C69	C	1.193373	0.368793	-0.046250
H70	H	0.717701	0.203913	-0.238790
H71	H	0.999334	0.204768	0.043796
H72	H	1.050474	0.247461	0.317427
O73	O	1.242332	0.717168	-0.281270
C74	C	1.321072	0.699754	-0.298685
H75	H	1.322600	0.648399	-0.329103
H76	H	1.356536	0.697329	-0.241693
H77	H	1.347752	0.739452	-0.339340
O78	O	0.561812	0.454477	-0.530772
C79	C	0.615978	0.492671	-0.575322
H80	H	0.674780	0.495021	-0.542929
H81	H	0.592107	0.545997	-0.583663
H82	H	0.624847	0.467881	-0.635397
H83	H	0.999473	0.204620	0.193558
O84	O	1.242072	0.578017	-0.281088
C85	C	1.224780	0.595411	-0.202295
H86	H	1.194416	0.646757	-0.200640
H87	H	1.281823	0.597847	-0.166904
H88	H	1.184122	0.555695	-0.175627
O89	O	0.437908	0.411100	-0.480403
C90	C	0.458155	0.396297	-0.559212
H91	H	0.518104	0.370277	-0.560899
H92	H	0.460994	0.445147	-0.594561
H93	H	0.411739	0.361500	-0.585902
O94	O	1.242885	0.410551	-0.086207
C95	C	1.321564	0.395241	-0.066253
H96	H	1.323049	0.369143	-0.006410
H97	H	1.357396	0.443867	-0.063328
H98	H	1.347871	0.360332	-0.112883
H99	H	0.567923	0.203928	-0.238810
O100	O	1.242300	0.933627	-0.281386
C101	C	1.293353	0.892649	-0.326429
H102	H	1.265477	0.881988	-0.386303
H103	H	1.303920	0.842983	-0.294235
H104	H	1.351942	0.919839	-0.335172
O105	O	0.724509	0.454314	-0.530772
C106	C	0.772307	0.415776	-0.581917
H107	H	0.784659	0.364477	-0.554144
H108	H	0.830359	0.443338	-0.592455
H109	H	0.740555	0.408349	-0.640508
H110	H	1.050126	0.247882	-0.079983
O111	O	0.848297	0.411000	-0.480292
C112	C	0.896099	0.372469	-0.531439
H113	H	0.908448	0.321166	-0.503674
H114	H	0.954152	0.400032	-0.541966
H115	H	0.864353	0.365051	-0.590034
O116	O	0.437531	0.240497	-0.281371
C117	C	0.355829	0.249771	-0.292213
H118	H	0.344562	0.302011	-0.317988
H119	H	0.324390	0.245169	-0.233019
H120	H	0.332469	0.209633	-0.334395
H121	H	1.050981	1.067335	-0.472504
O122	O	1.243058	0.410120	0.324213
C123	C	1.232238	0.400805	0.405913
H124	H	1.171076	0.378998	0.417236
H125	H	1.238028	0.451435	0.437446
H126	H	1.278861	0.364449	0.429124
H127	H	0.841556	0.247187	-0.289239
O128	O	1.242313	1.073158	-0.281387
C129	C	1.231504	1.143119	-0.292221
H130	H	1.205615	1.152695	-0.353195
H131	H	1.290728	1.169944	-0.286938
H132	H	1.189430	1.163289	-0.245294
H133	H	1.050840	0.711578	-0.472430
O134	O	1.042901	0.933641	-0.480430
C135	C	0.998320	0.979959	-0.525021
H136	H	0.995612	1.030399	-0.492651
H137	H	0.936032	0.959569	-0.533381
H138	H	1.027267	0.987364	-0.585086
H139	H	1.285779	0.446667	0.044048
O140	O	1.042766	0.577871	-0.480366
C141	C	0.998190	0.624185	-0.524968
H142	H	0.995462	0.674623	-0.492597
H143	H	0.935908	0.603786	-0.533349
H144	H	1.027154	0.631595	-0.585023
O145	O	1.293982	0.453278	0.200192
C146	C	1.338836	0.491284	0.146106
H147	H	1.341319	0.463606	0.087166
H148	H	1.401185	0.498110	0.169870
H149	H	1.310277	0.542870	0.137548
