data_functionalizedCrystal
_audit_creation_method	'MofGen! by Chris Wilmer'
_symmetry_space_group_name_H-M	'P1'
_symmetry_Int_Tables_number	1
_symmetry_cell_setting	triclinic
loop_
_symmetry_equiv_pos_as_xyz
  x,y,z
_cell_length_a	14.519731
_cell_length_b	19.188924
_cell_length_c	13.596369
_cell_angle_alpha	90.008056
_cell_angle_beta	90.005416
_cell_angle_gamma	83.415409
loop_
_atom_site_label
_atom_site_type_symbol
_atom_site_fract_x
_atom_site_fract_y
_atom_site_fract_z
O1	O	1.223284	0.091596	0.081798
O2	O	1.556618	0.424929	0.415131
O3	O	1.889951	0.758262	0.748465
O4	O	0.954743	0.102358	0.081800
O5	O	1.288076	0.435691	0.415134
O6	O	1.621410	0.769025	0.748467
O7	O	1.096766	-0.004651	0.081788
O8	O	1.430100	0.328682	0.415121
O9	O	1.763433	0.662016	0.748454
O10	O	1.081261	0.198605	0.081811
O11	O	1.414594	0.531938	0.415144
O12	O	1.747927	0.865271	0.748477
O13	O	1.096752	-0.004657	-0.081795
O14	O	1.430086	0.328677	0.251538
O15	O	1.763419	0.662010	0.584871
O16	O	0.954729	0.102352	-0.081783
O17	O	1.288062	0.435686	0.251551
O18	O	1.621395	0.769019	0.584884
O19	O	1.223270	0.091590	-0.081785
O20	O	1.556604	0.424923	0.251549
O21	O	1.889937	0.758256	0.584882
Zn22	Zn	1.088997	0.096970	-0.107756
Zn23	Zn	1.422331	0.430304	0.225577
Zn24	Zn	1.755664	0.763637	0.558911
Zn25	Zn	1.089016	0.096978	0.107771
Zn26	Zn	1.422349	0.430311	0.441105
Zn27	Zn	1.755683	0.763644	0.774438
O28	O	1.081247	0.198599	-0.081772
O29	O	1.414580	0.531932	0.251561
O30	O	1.747913	0.865266	0.584895
C31	C	0.920380	0.101851	0.000009
C32	C	1.253713	0.435184	0.333342
C33	C	1.587046	0.768518	0.666676
C34	C	0.818009	0.100340	0.000009
C35	C	1.151342	0.433673	0.333343
C36	C	1.484675	0.767006	0.666676
C37	C	0.734872	0.099112	0.000013
C38	C	1.068206	0.432445	0.333346
C39	C	1.401539	0.765779	0.666680
C40	C	0.630573	0.097578	0.000013
C41	C	0.963906	0.430911	0.333347
C42	C	1.297240	0.764244	0.666680
C43	C	0.547442	0.096360	0.000013
C44	C	0.880775	0.429693	0.333346
C45	C	1.214108	0.763027	0.666680
C46	C	0.443136	0.094826	0.000015
C47	C	0.776469	0.428159	0.333348
C48	C	1.109803	0.761492	0.666682
C49	C	1.096258	-0.030667	-0.000005
C50	C	1.429592	0.302666	0.333329
C51	C	1.762925	0.636000	0.666662
C52	C	1.094754	-0.108177	-0.000007
C53	C	1.428088	0.225156	0.333326
C54	C	1.761421	0.558490	0.666659
C55	C	1.094060	-0.144575	0.089162
C56	C	1.427393	0.188758	0.422495
C57	C	1.760727	0.522091	0.755828
C58	C	1.092633	-0.217403	0.089169
C59	C	1.425967	0.115930	0.422503
C60	C	1.759300	0.449263	0.755836
C61	C	1.091920	-0.253832	0.000002
C62	C	1.425253	0.079501	0.333336
C63	C	1.758587	0.412835	0.666669
C64	C	1.092609	-0.217424	-0.089179
C65	C	1.425943	0.115909	0.244155
C66	C	1.759276	0.449242	0.577488
C67	C	1.094026	-0.144597	-0.089184
C68	C	1.427360	0.188736	0.244150
C69	C	1.760693	0.522070	0.577483
N70	N	1.142169	-0.373316	-0.066363
N71	N	1.475503	-0.039982	0.266971
N72	N	1.808836	0.293351	0.600304
N73	N	1.140825	-0.442499	-0.066352
N74	N	1.474158	-0.109165	0.266981
N75	N	1.807492	0.224168	0.600315
C76	C	1.087648	-0.473256	0.000012
C77	C	1.420982	-0.139923	0.333345
C78	C	1.754315	0.193410	0.666679
N79	N	1.035878	-0.432219	0.066380
N80	N	1.369212	-0.098885	0.399713
N81	N	1.702545	0.234448	0.733046
N82	N	1.037227	-0.363030	0.066372
N83	N	1.370560	-0.029696	0.399705
N84	N	1.703893	0.303637	0.733038
C85	C	1.090383	-0.332801	-0.000002
C86	C	1.423716	0.000532	0.333331
C87	C	1.757049	0.333866	0.666665
C88	C	1.085406	-0.588623	0.089195
C89	C	1.418739	-0.255290	0.422529
C90	C	1.752073	0.078044	0.755862
C91	C	1.083974	-0.661452	0.089199
C92	C	1.417307	-0.328118	0.422533
C93	C	1.750641	0.005215	0.755866
C94	C	1.083959	-0.661472	-0.089151
C95	C	1.417292	-0.328139	0.244182
C96	C	1.750626	0.005195	0.577515
C97	C	1.085382	-0.588644	-0.089152
C98	C	1.418715	-0.255311	0.244181
C99	C	1.752048	0.078023	0.577514
C100	C	1.086110	-0.552224	0.000024
C101	C	1.419443	-0.218891	0.333357
C102	C	1.752776	0.114443	0.666690
C103	C	1.257634	0.092097	0.000009
C104	C	1.590967	0.425430	0.333342
C105	C	1.924300	0.758764	0.666675
C106	C	1.360004	0.093608	0.000015
C107	C	1.693338	0.426941	0.333348
C108	C	2.026671	0.760275	0.666681
C109	C	1.081755	0.224615	0.000022
C110	C	1.415088	0.557948	0.333356
C111	C	1.748421	0.891281	0.666689
C112	C	1.083259	0.302125	0.000032
C113	C	1.416592	0.635458	0.333365
C114	C	1.749926	0.968792	0.666698
N115	N	1.088991	0.096965	-0.254848
N116	N	1.422325	0.430298	0.078485
N117	N	1.755658	0.763631	0.411819
C118	C	1.089015	0.096978	-0.656139
C119	C	1.422348	0.430312	-0.322805
C120	C	1.755681	0.763645	0.010528
C121	C	1.089005	0.096977	-0.544487
C122	C	1.422339	0.430310	-0.211154
C123	C	1.755672	0.763644	0.122179
C124	C	1.089003	0.096972	-0.455497
C125	C	1.422337	0.430305	-0.122164
C126	C	1.755670	0.763639	0.211170
C127	C	1.088993	0.096970	-0.343838
C128	C	1.422327	0.430303	-0.010505
C129	C	1.755660	0.763636	0.322828
N130	N	1.089029	0.096978	0.254863
N131	N	1.422362	0.430311	0.588197
N132	N	1.755696	0.763644	0.921530
H133	H	1.094650	-0.114927	0.161776
H134	H	1.427983	0.218407	0.495109
H135	H	1.761317	0.551740	0.828443
H136	H	1.085993	-0.558968	0.161808
H137	H	1.419327	-0.225635	0.495141
H138	H	1.752660	0.107699	0.828475
H139	H	1.094588	-0.114961	-0.161798
H140	H	1.427921	0.218372	0.171535
H141	H	1.761255	0.551705	0.504868
H142	H	1.092062	-0.247044	0.161784
H143	H	1.425396	0.086289	0.495117
H144	H	1.758729	0.419623	0.828451
Br145	Br	1.083021	-0.710850	0.210226
Br146	Br	1.416354	-0.377517	0.543559
Br147	Br	1.749688	-0.044184	0.876893
Br148	Br	1.082981	-0.710902	-0.210166
Br149	Br	1.416315	-0.377569	0.123167
Br150	Br	1.749648	-0.044235	0.456501
Br151	Br	1.086320	-0.539242	-0.210175
Br152	Br	1.419653	-0.205909	0.123158
Br153	Br	1.752987	0.127425	0.456492
H154	H	1.092026	-0.247089	-0.161779
H155	H	1.425359	0.086245	0.171554
H156	H	1.758692	0.419578	0.504888
