data_functionalizedCrystal
_audit_creation_method	'MofGen! by Chris Wilmer'
_symmetry_space_group_name_H-M	'P1'
_symmetry_Int_Tables_number	1
_symmetry_cell_setting	triclinic
loop_
_symmetry_equiv_pos_as_xyz
  x,y,z
_cell_length_a	18.050591
_cell_length_b	18.050589
_cell_length_c	18.050582
_cell_angle_alpha	90.018205
_cell_angle_beta	90.020922
_cell_angle_gamma	90.024227
loop_
_atom_site_label
_atom_site_type_symbol
_atom_site_fract_x
_atom_site_fract_y
_atom_site_fract_z
Zn1	Zn	1.135293	-0.295786	0.420054
Zn2	Zn	1.135203	-0.419969	0.295873
Zn3	Zn	1.011112	-0.295789	0.295865
Zn4	Zn	1.011060	-0.419930	0.420009
O5	O	1.073167	-0.357868	0.357950
O6	O	1.239205	-0.312274	0.403603
O7	O	1.118727	-0.403514	0.191948
O8	O	1.027644	-0.191864	0.312354
O9	O	1.239140	-0.403511	0.312369
O10	O	1.118879	-0.191862	0.403595
O11	O	1.027557	-0.312279	0.191942
O12	O	0.907180	-0.312241	0.312311
O13	O	1.027555	-0.403444	0.523940
O14	O	0.907142	-0.403447	0.403519
O15	O	1.118828	-0.312236	0.523973
O16	O	1.118676	-0.523888	0.312325
O17	O	1.027468	-0.523860	0.403527
C18	C	0.880215	-0.357841	0.357909
C19	C	0.797669	-0.357847	0.357909
C20	C	0.598217	-0.308191	0.308425
C21	C	0.548798	-0.375927	0.290154
C22	C	0.646539	-0.357869	0.357943
C23	C	0.548877	-0.290157	0.376212
C24	C	0.500553	-0.357885	0.357974
C25	C	0.598206	-0.425641	0.339637
C26	C	0.598289	-0.339825	0.425726
C27	C	0.548892	-0.407607	0.407481
C28	C	0.730637	-0.357859	0.357923
C29	C	0.416457	-0.357903	0.357994
C30	C	1.073077	-0.550820	0.357938
C31	C	1.073107	-0.633366	0.357958
C32	C	1.023557	-0.832828	0.407536
C33	C	1.005459	-0.882261	0.339767
C34	C	1.073180	-0.784497	0.357967
C35	C	1.091314	-0.882146	0.425744
C36	C	1.073249	-0.930482	0.357983
C37	C	1.055046	-0.832842	0.290162
C38	C	1.140933	-0.832722	0.376186
C39	C	1.122861	-0.882133	0.308370
C40	C	1.073138	-0.700398	0.357959
C41	C	1.073291	-1.014578	0.357983
C42	C	1.266872	-0.357897	0.357992
C43	C	1.349418	-0.357909	0.358010
C44	C	1.073196	-0.357835	0.551656
C45	C	1.073208	-0.357821	0.634202
C46	C	1.073277	-0.164163	0.357979
C47	C	1.073324	-0.081617	0.357991
C48	C	1.073181	-0.357848	0.164998
C49	C	1.073312	-0.357652	0.082453
C50	C	1.023612	-0.407353	0.833635
C51	C	1.091367	-0.425511	0.883034
C52	C	1.073245	-0.357765	0.785332
C53	C	1.005527	-0.339586	0.883014
C54	C	1.073274	-0.357711	0.931317
C55	C	1.141036	-0.375958	0.833645
C56	C	1.055150	-0.290002	0.833620
C57	C	1.122952	-0.308134	0.882998
C58	C	1.073227	-0.357797	0.701234
C59	C	1.073300	-0.357679	1.015414
H60	H	0.527169	-0.232894	0.391625
C61	C	1.176650	-0.497854	0.955034
C62	C	1.112051	-0.502835	0.912349
H63	H	1.189416	-0.545592	0.973127
H64	H	1.168439	-0.465335	0.995585
H65	H	1.215911	-0.479266	0.925334
H66	H	1.072789	-0.521418	0.942051
H67	H	1.120258	-0.535366	0.871792
C68	C	0.441845	-0.396889	0.213850
C69	C	0.519410	-0.396486	0.212788
H70	H	0.423696	-0.409564	0.166087
H71	H	0.424268	-0.349131	0.227210
H72	H	0.424970	-0.432258	0.248966
H73	H	0.536285	-0.361114	0.177676
H74	H	0.536994	-0.444252	0.199419
H75	H	1.039807	-0.232736	0.811899
H76	H	0.948246	-0.324232	0.904701
H77	H	0.620045	-0.324530	0.483019
C78	C	0.602474	-0.270628	0.180905
C79	C	0.627462	-0.251539	0.251837
H80	H	0.620533	-0.235657	0.145971
H81	H	0.549858	-0.270556	0.180220
H82	H	0.620096	-0.318613	0.168417
H83	H	0.609836	-0.203556	0.264329
H84	H	0.680089	-0.251603	0.252525
C85	C	0.442262	-0.463514	0.464020
C86	C	0.519830	-0.464387	0.464033
H87	H	0.424322	-0.498565	0.498935
H88	H	0.424572	-0.475934	0.416033
H89	H	0.425289	-0.415451	0.477097
H90	H	0.536803	-0.512449	0.450951
H91	H	0.537528	-0.451971	0.512031
H92	H	0.948195	-0.904037	0.324371
C93	C	0.704899	-0.502257	0.318841
C94	C	0.627329	-0.502976	0.318699
H95	H	0.722878	-0.549999	0.305910
H96	H	0.722251	-0.489358	0.366826
H97	H	0.722175	-0.466935	0.283873
H98	H	0.610053	-0.538294	0.353672
H99	H	0.609970	-0.515884	0.270707
H100	H	1.164855	-0.903645	0.266409
C101	C	0.895947	-0.828604	0.444788
C102	C	0.966828	-0.803592	0.464043
H103	H	0.860925	-0.810550	0.479669
H104	H	0.895273	-0.881220	0.444872
H105	H	0.883569	-0.810993	0.396768
H106	H	0.979208	-0.821208	0.512061
H107	H	0.967504	-0.750966	0.463967
H108	H	1.164986	-0.266177	0.904535
H109	H	1.039669	-0.811275	0.232834
H110	H	1.198184	-0.810948	0.391613
C111	C	1.059910	-0.886487	0.554913
C112	C	1.111989	-0.911380	0.503112
H113	H	1.072674	-0.904530	0.602677
H114	H	1.012151	-0.904181	0.541637
H115	H	1.059594	-0.833865	0.555562
H116	H	1.112301	-0.964002	0.502458
H117	H	1.159760	-0.893690	0.516391
H118	H	0.981678	-0.449342	0.811961
C119	C	1.213274	-0.461045	0.761326
C120	C	1.218385	-0.396783	0.804502
H121	H	1.261026	-0.473904	0.743338
H122	H	1.180962	-0.452382	0.720703
H123	H	1.194378	-0.500433	0.790663
H124	H	1.237276	-0.357394	0.775164
H125	H	1.250709	-0.405442	0.845131
