data_functionalizedCrystal
_audit_creation_method	'MofGen! by Chris Wilmer'
_symmetry_space_group_name_H-M	'P1'
_symmetry_Int_Tables_number	1
_symmetry_cell_setting	triclinic
loop_
_symmetry_equiv_pos_as_xyz
  x,y,z
_cell_length_a	12.759401
_cell_length_b	12.759400
_cell_length_c	12.759393
_cell_angle_alpha	90.031564
_cell_angle_beta	90.019322
_cell_angle_gamma	90.012598
loop_
_atom_site_label
_atom_site_type_symbol
_atom_site_fract_x
_atom_site_fract_y
_atom_site_fract_z
Zn1	Zn	-1.606255	0.418263	-0.594004
Zn2	Zn	-1.606150	0.593982	-0.418325
Zn3	Zn	-1.430557	0.418311	-0.418341
Zn4	Zn	-1.430546	0.593894	-0.593964
O5	O	-1.518377	0.506112	-0.506158
O6	O	-1.753262	0.441589	-0.570710
O7	O	-1.582818	0.570735	-0.271306
O8	O	-1.453913	0.271284	-0.441668
O9	O	-1.753185	0.570689	-0.441639
O10	O	-1.582998	0.271248	-0.570727
O11	O	-1.453811	0.441671	-0.271318
O12	O	-1.283535	0.441586	-0.441628
O13	O	-1.453894	0.570539	-0.740990
O14	O	-1.283527	0.570586	-0.570657
O15	O	-1.582987	0.441504	-0.741020
O16	O	-1.582807	0.740991	-0.441599
O17	O	-1.453791	0.740927	-0.570641
C18	C	-1.245410	0.506082	-0.506140
C19	C	-1.128633	0.506095	-0.506157
C20	C	-1.073794	0.573370	-0.573231
C21	C	-0.964070	0.573379	-0.573241
C22	C	-0.964034	0.438834	-0.439095
C23	C	-1.073756	0.438821	-0.439091
C24	C	-1.128672	0.640645	-0.640297
C25	C	-1.073833	0.707927	-0.707375
C26	C	-0.964109	0.707936	-0.707385
C27	C	-0.909224	0.640663	-0.640317
C28	C	-1.518315	0.779080	-0.506137
C29	C	-1.518384	0.895856	-0.506162
C30	C	-1.518451	0.506006	-0.780192
C31	C	-1.518482	0.505961	-0.896969
C32	C	-0.792410	0.506133	-0.506174
C33	C	-0.909187	0.506117	-0.506171
C34	C	-1.518468	0.232079	-0.506203
C35	C	-1.518507	0.115302	-0.506223
C36	C	-1.585637	0.950717	-0.439045
C37	C	-1.585702	1.060441	-0.439077
C38	C	-1.451252	1.060434	-0.573348
C39	C	-1.451193	0.950712	-0.573320
C40	C	-1.652828	0.895861	-0.371888
C41	C	-1.720086	0.950722	-0.304764
C42	C	-1.720150	1.060446	-0.304796
C43	C	-1.652957	1.115309	-0.371952
C44	C	-1.585710	0.438766	-0.951848
C45	C	-1.585735	0.438728	-1.061572
C46	C	-1.451301	0.573089	-1.061528
C47	C	-1.451272	0.573121	-0.951806
C48	C	-1.652920	0.371606	-0.897011
C49	C	-1.720155	0.304406	-0.951891
C50	C	-1.720180	0.304368	-1.061615
C51	C	-1.652970	0.371530	-1.116459
C52	C	-1.518364	0.506142	-0.233191
C53	C	-1.518537	0.505891	-0.116415
H54	H	-1.652780	0.806519	-0.371851
H55	H	-0.919462	0.762712	-0.762011
H56	H	-1.396582	0.627769	-1.106191
C57	C	-0.904395	0.365985	-0.366139
C58	C	-0.841399	0.425410	-0.298682
C59	C	-0.786459	0.358342	-0.231445
H60	H	-0.861521	0.320238	-0.406280
H61	H	-0.952740	0.325935	-0.326129
H62	H	-0.793060	0.465442	-0.338688
H63	H	-0.884246	0.471155	-0.258518
H64	H	-0.834804	0.318292	-0.191435
H65	H	-0.743591	0.312598	-0.271595
H66	H	-0.743717	0.398652	-0.185662
H67	H	-1.118407	0.384031	-0.384482
H68	H	-1.118528	0.762691	-0.761986
C69	C	-1.378069	0.891330	-0.646237
C70	C	-1.319217	0.962852	-0.705035
C71	C	-1.251841	0.908188	-0.772216
H72	H	-1.418107	0.848462	-0.692125
H73	H	-1.332232	0.848611	-0.606028
H74	H	-1.365048	1.005553	-0.745240
H75	H	-1.279157	1.005722	-0.659174
H76	H	-1.206004	0.865468	-0.732007
H77	H	-1.291888	0.865321	-0.818096
H78	H	-1.211895	0.956706	-0.812111
C79	C	-0.790093	0.640825	-0.640482
C80	C	-0.753811	0.714140	-0.713580
C81	C	-0.644077	0.714316	-0.713764
H82	H	-0.765195	0.573102	-0.658817
H83	H	-0.765166	0.658957	-0.572683
H84	H	-0.778728	0.696002	-0.781364
H85	H	-0.778680	0.781874	-0.695262
H86	H	-0.619149	0.732448	-0.645965
H87	H	-0.619189	0.646589	-0.732097
H88	H	-0.619445	0.764066	-0.763352
C89	C	-1.793212	1.119822	-0.231811
C90	C	-1.852020	1.048293	-0.172978
C91	C	-1.919323	1.102948	-0.105718
H92	H	-1.839088	1.162559	-0.271932
H93	H	-1.753091	1.162671	-0.185957
H94	H	-1.892138	1.005461	-0.218827
H95	H	-1.806172	1.005553	-0.132837
H96	H	-1.879203	1.145798	-0.059864
H97	H	-1.965192	1.145684	-0.145847
H98	H	-1.959226	1.054424	-0.065785
H99	H	-1.653024	1.204654	-0.371982
C100	C	-1.793074	0.231598	-0.892161
C101	C	-1.778684	0.246029	-0.784324
C102	C	-1.845848	0.178982	-0.729272
H103	H	-1.777791	0.160958	-0.910032
H104	H	-1.863687	0.246985	-0.910085
H105	H	-1.708087	0.230634	-0.766407
H106	H	-1.793975	0.316655	-0.766422
H107	H	-1.916461	0.194369	-0.747196
H108	H	-1.830559	0.108346	-0.747151
H109	H	-1.836100	0.188771	-0.656099
H110	H	-1.218015	0.640647	-0.640295
H111	H	-1.652984	0.371481	-1.205804
C112	C	-1.792923	0.890973	-0.231897
C113	C	-1.778455	0.783140	-0.246212
C114	C	-1.845526	0.728069	-0.179095
H115	H	-1.863559	0.908758	-0.247272
H116	H	-1.777583	0.908967	-0.161276
H117	H	-1.793802	0.765153	-0.316817
H118	H	-1.707833	0.765323	-0.230830
H119	H	-1.830186	0.746063	-0.108474
H120	H	-1.916158	0.745863	-0.194475
H121	H	-1.835712	0.654899	-0.188791
H122	H	-1.396513	0.627821	-0.907122
C123	C	-1.378337	1.120186	-0.646134
C124	C	-1.392762	1.228018	-0.631771
C125	C	-1.325597	1.283093	-0.698792
H126	H	-1.393596	1.102266	-0.716777
H127	H	-1.307722	1.102330	-0.630680
H128	H	-1.463360	1.245867	-0.647232
H129	H	-1.377494	1.245970	-0.561142
H130	H	-1.254983	1.265237	-0.683339
H131	H	-1.340863	1.265164	-0.769431
H132	H	-1.335369	1.356262	-0.689050
H133	H	-1.652910	0.371632	-0.807668
H134	H	-1.774917	0.249643	-1.106295
