data_functionalizedCrystal
_audit_creation_method	'MofGen! by Chris Wilmer'
_symmetry_space_group_name_H-M	'P1'
_symmetry_Int_Tables_number	1
_symmetry_cell_setting	triclinic
loop_
_symmetry_equiv_pos_as_xyz
  x,y,z
_cell_length_a	11.026623
_cell_length_b	10.065875
_cell_length_c	10.967829
_cell_angle_alpha	110.797457
_cell_angle_beta	83.619121
_cell_angle_gamma	100.714592
loop_
_atom_site_label
_atom_site_type_symbol
_atom_site_fract_x
_atom_site_fract_y
_atom_site_fract_z
O1	O	-1.576529	0.243866	0.554318
O2	O	-1.076529	0.743866	1.054318
O3	O	-1.224977	0.229418	0.492878
O4	O	-0.724977	0.729418	0.992878
O5	O	-1.415704	0.193051	0.338276
O6	O	-0.915704	0.693051	0.838276
O7	O	-1.385802	0.280233	0.708920
O8	O	-0.885802	0.780233	1.208920
O9	O	-1.452140	-0.040889	0.308728
O10	O	-0.952140	0.459111	0.808728
O11	O	-1.261413	-0.004522	0.463330
O12	O	-0.761413	0.495478	0.963330
O13	O	-1.612965	0.009927	0.524769
O14	O	-1.112965	0.509927	1.024769
Zn15	Zn	-1.442974	-0.034440	0.489358
Zn16	Zn	-0.942974	0.465560	0.989358
Zn17	Zn	-1.394968	0.273785	0.528289
Zn18	Zn	-0.894968	0.773785	1.028289
O19	O	-1.422238	0.046294	0.679372
O20	O	-0.922238	0.546294	1.179372
C21	C	-1.198308	0.109782	0.466770
C22	C	-0.698308	0.609782	0.966770
C23	C	-1.064559	0.101836	0.432982
C24	C	-0.564559	0.601836	0.932982
C25	C	-0.988089	0.123781	0.526274
C26	C	-0.488089	0.623781	1.026274
C27	C	-0.849852	0.115569	0.491355
C28	C	-0.349852	0.615569	0.991355
N29	N	-1.475745	-0.244796	0.462790
N30	N	-0.975745	0.255204	0.962790
C31	C	-1.434499	0.064749	0.275314
C32	C	-0.934499	0.564749	0.775314
C33	C	-1.436204	0.030983	0.131727
C34	C	-0.936204	0.530983	0.631727
C35	C	-0.639634	0.129564	0.550876
C36	C	-0.139634	0.629564	1.050876
C37	C	-0.773383	0.137517	0.584661
C38	C	-0.273383	0.637517	1.084661
N39	N	-1.362207	0.484138	0.554850
N40	N	-0.862207	0.984138	1.054850
C41	C	-1.431582	0.538688	0.498609
C42	C	-0.931582	1.038688	0.998609
C43	C	-1.406359	0.700660	0.519039
C44	C	-0.906359	1.200660	1.019039
C45	C	-1.418090	0.137119	0.083024
C46	C	-0.918090	0.637119	0.583024
C47	C	-1.419852	0.102223	-0.065380
C48	C	-0.919852	0.602223	0.434620
C49	C	-1.403443	0.174598	0.742334
C50	C	-0.903443	0.674598	1.242334
C51	C	-1.401736	0.208373	0.885922
C52	C	-0.901736	0.708373	1.385922
H53	H	-1.027681	0.077004	0.327264
H54	H	-0.527681	0.577004	0.827264
C55	C	-0.823171	0.171122	0.727493
C56	C	-0.323171	0.671122	1.227493
H57	H	-0.909548	0.172246	0.732231
H58	H	-0.409548	0.672246	1.232231
H59	H	-0.808052	0.099355	0.758886
H60	H	-0.308052	0.599355	1.258886
H61	H	-0.782639	0.262521	0.779479
H62	H	-0.282639	0.762521	1.279479
H63	H	-1.024962	0.148641	0.631995
H64	H	-0.524962	0.648641	1.131995
C65	C	-1.442566	-0.055440	-0.157460
C66	C	-0.942566	0.444560	0.342540
H67	H	-1.440778	-0.058211	-0.245124
H68	H	-0.940778	0.441789	0.254876
H69	H	-1.379938	-0.104233	-0.148614
H70	H	-0.879938	0.395767	0.351386
H71	H	-1.521013	-0.101135	-0.135459
H72	H	-1.021013	0.398865	0.364541
C73	C	-0.800065	0.081971	0.348522
C74	C	-0.300065	0.581971	0.848522
H75	H	-0.865969	0.069259	0.294518
H76	H	-0.365969	0.569259	0.794518
H77	H	-0.739054	0.159536	0.341764
H78	H	-0.239054	0.659536	0.841764
H79	H	-0.764474	-0.003633	0.321159
H80	H	-0.264474	0.496367	0.821159
C81	C	-1.379029	0.366037	-0.022000
C82	C	-0.879029	0.866037	0.478000
H83	H	-1.380835	0.368812	0.065667
H84	H	-0.880835	0.868812	0.565667
H85	H	-1.300596	0.411745	-0.043999
H86	H	-0.800596	0.911745	0.456001
H87	H	-1.441674	0.414816	-0.030849
H88	H	-0.941674	0.914816	0.469151
H89	H	-1.453010	-0.085717	0.063554
H90	H	-0.953010	0.414283	0.563554
H91	H	-1.553823	0.682000	0.399517
H92	H	-1.053823	1.182000	0.899517
C93	C	-1.300892	0.799547	0.604526
C94	C	-0.800892	1.299547	1.104526
H95	H	-1.297771	0.895437	0.607038
H96	H	-0.797771	1.395437	1.107038
H97	H	-1.315272	0.796449	0.690563
H98	H	-0.815272	1.296449	1.190563
H99	H	-1.224559	0.767771	0.568698
H100	H	-0.724559	1.267771	1.068698
C101	C	-1.537046	0.439798	0.413128
C102	C	-1.037046	0.939798	0.913128
H103	H	-1.540158	0.343905	0.410604
H104	H	-1.040158	0.843905	0.910604
H105	H	-1.613374	0.471575	0.448944
H106	H	-1.113374	0.971575	0.948944
H107	H	-1.522656	0.442890	0.327083
H108	H	-1.022656	0.942890	0.827083
H109	H	-1.284142	0.557350	0.618130
H110	H	-0.784142	1.057350	1.118130
H111	H	-1.401271	0.253819	0.151196
H112	H	-0.901271	0.753819	0.651196
