data_functionalizedCrystal
_audit_creation_method	'MofGen! by Chris Wilmer'
_symmetry_space_group_name_H-M	'P1'
_symmetry_Int_Tables_number	1
_symmetry_cell_setting	triclinic
loop_
_symmetry_equiv_pos_as_xyz
  x,y,z
_cell_length_a	14.560438
_cell_length_b	14.560438
_cell_length_c	20.016444
_cell_angle_alpha	59.998138
_cell_angle_beta	90.003071
_cell_angle_gamma	60.007195
loop_
_atom_site_label
_atom_site_type_symbol
_atom_site_fract_x
_atom_site_fract_y
_atom_site_fract_z
Zr1	Zr	0.884869	1.005237	-0.087653
O2	O	0.738239	1.196831	-0.194330
O3	O	0.929803	0.813646	-0.054952
O4	O	0.929816	1.005244	-0.194330
O5	O	0.738234	1.005225	0.054993
O6	O	1.080955	1.005247	-0.194328
O7	O	0.738226	1.005232	-0.054952
O8	O	1.080931	0.662512	0.054993
O9	O	0.738257	1.347960	-0.194328
O10	O	1.061779	0.892451	-0.041003
O11	O	0.948993	0.892443	0.041047
O12	O	0.949008	1.118026	-0.123052
O13	O	0.836221	1.118019	-0.041003
Zr14	Zr	1.125930	1.005229	0.087700
Zr15	Zr	1.125917	1.005241	-0.087650
Zr16	Zr	0.884882	1.005225	0.087697
Zr17	Zr	0.884899	1.246270	-0.087650
Zr18	Zr	1.125901	0.764196	0.087697
O19	O	1.080996	1.196820	0.054999
O20	O	1.080978	1.196836	-0.194326
O21	O	0.738257	1.196814	0.054995
O22	O	1.272561	0.813635	0.194377
O23	O	1.272542	0.813652	-0.054948
O24	O	0.929821	0.813629	0.194372
O25	O	1.272566	1.005241	-0.054946
O26	O	1.080983	1.005221	0.194376
O27	O	0.929845	1.005219	0.194375
O28	O	1.272574	1.005234	0.054999
O29	O	0.929858	1.347963	-0.194326
O30	O	1.080941	0.662503	0.194373
O31	O	1.272542	0.662506	0.194375
O32	O	1.272532	0.662515	0.054995
O33	O	0.738268	1.347950	-0.054948
O34	O	0.929869	1.347954	-0.054946
O35	O	1.061791	0.892440	0.123099
O36	O	1.174578	0.892447	0.041049
O37	O	1.061807	1.118022	-0.041000
O38	O	0.949020	1.118015	0.041049
C39	C	1.005363	0.703737	0.000020
C40	C	1.005350	0.601412	0.000019
C41	C	0.703885	1.005228	0.000020
C42	C	0.601554	1.005226	0.000019
C43	C	1.088637	0.470093	0.060590
C44	C	1.088685	0.373913	0.060597
C45	C	0.922154	0.540386	-0.060546
C46	C	0.922103	0.636563	-0.060549
C47	C	1.171885	0.434941	0.121158
C48	C	1.255179	0.303616	0.181733
C49	C	1.255227	0.207436	0.181740
C50	C	1.171980	0.242581	0.121171
C51	C	0.612341	0.887480	0.042847
C52	C	0.516186	0.887486	0.042855
C53	C	0.398461	1.122995	-0.042802
C54	C	0.494615	1.122987	-0.042804
C55	C	0.719281	0.769719	0.085670
C56	C	0.730072	0.651964	0.128502
C57	C	0.633917	0.651970	0.128509
C58	C	0.526971	0.769732	0.085685
C59	C	1.306914	1.005238	0.000027
C60	C	1.409245	1.005240	0.000028
C61	C	1.005384	1.005247	-0.219312
C62	C	1.005378	1.005252	-0.293753
C63	C	1.005437	1.306729	0.000027
C64	C	1.005449	1.409054	0.000028
C65	C	0.946533	1.122985	-0.507838
C66	C	0.946542	1.122980	-0.577780
C67	C	1.064274	0.887471	-0.492107
C68	C	1.064271	0.887478	-0.422167
C69	C	1.005394	1.005239	-0.430036
C70	C	1.005406	1.005227	-0.569917
C71	C	1.005416	1.005220	-0.645750
C72	C	1.005385	1.005246	-0.354199
C73	C	1.005416	1.005218	0.219359
C74	C	1.005421	1.005214	0.293800
C75	C	1.306877	0.703742	0.000023
C76	C	1.409196	0.601419	0.000023
C77	C	1.005379	0.703722	0.219356
C78	C	1.005372	0.601392	0.293795
C79	C	1.306893	0.703728	0.219359
C80	C	1.409217	0.601399	0.293800
C81	C	0.703906	1.306738	-0.219313
C82	C	0.601582	1.409066	-0.293753
C83	C	0.703922	1.306724	0.000023
C84	C	0.601604	1.409047	0.000023
C85	C	1.005421	1.306743	-0.219309
C86	C	1.005428	1.409073	-0.293748
C87	C	1.064248	0.553336	0.371590
C88	C	1.064237	0.457199	0.441541
C89	C	1.005356	0.409115	0.433694
C90	C	0.946472	0.457181	0.355891
C91	C	0.946477	0.553323	0.285942
C92	C	1.516153	0.553349	0.285929
C93	C	1.612307	0.457214	0.355867
C94	C	1.601522	0.409125	0.433675
C95	C	1.494574	0.457185	0.441545
C96	C	1.398423	0.553325	0.371607
C97	C	0.494646	1.457129	-0.285882
C98	C	0.398493	1.553293	-0.355820
C99	C	0.409278	1.601387	-0.433629
C100	C	0.516225	1.553321	-0.441498
C101	C	0.612376	1.457165	-0.371561
C102	C	1.064321	1.457127	-0.285876
C103	C	1.064349	1.553264	-0.355813
C104	C	1.005478	1.601352	-0.433622
C105	C	0.946583	1.553289	-0.441493
C106	C	0.946562	1.457147	-0.371557
C107	C	1.398389	0.553345	-0.042804
C108	C	1.494532	0.457209	-0.042807
C109	C	1.612286	0.457225	0.042853
C110	C	1.516144	0.553366	0.042850
C111	C	1.291440	0.601398	-0.085631
C112	C	1.280629	0.553324	-0.128461
C113	C	1.376772	0.457188	-0.128464
C114	C	1.483727	0.409126	-0.085636
H115	H	1.171857	0.513247	0.121158
Br116	Br	1.368139	0.255921	0.263938
H117	H	1.112197	0.592475	0.377995
H118	H	1.323043	0.100509	0.231068
H119	H	0.311380	1.218870	-0.077669
H120	H	1.699379	0.418093	0.349445
Br121	Br	0.866567	0.391910	0.345256
Br122	Br	1.172038	0.112047	0.121188
H123	H	1.679824	0.330842	0.490616
Br124	Br	0.530843	1.618603	-0.547102
H125	H	0.854380	0.568990	-0.109860
Br126	Br	1.144158	0.391985	0.547120
H127	H	1.562008	0.330851	-0.085646
H128	H	0.642709	0.556088	0.163391
H129	H	1.524956	0.592489	0.222580
Br130	Br	0.849779	0.769704	0.085655
Br131	Br	0.757500	1.391943	-0.382257
H132	H	1.524947	0.592508	0.077724
Br133	Br	1.479957	0.391908	0.547148
Br134	Br	0.396475	0.769737	0.085705
H135	H	0.485828	1.218866	-0.077663
Br136	Br	1.144227	1.391886	-0.180286
H137	H	0.854268	0.743491	-0.109860
H138	H	0.898591	1.218874	-0.514250
H139	H	0.817152	0.556087	0.163373
H140	H	0.898613	1.218861	-0.641127
H141	H	1.311355	0.592435	0.378027
Br142	Br	1.144168	0.727661	-0.481434
H143	H	1.112208	0.791589	-0.358813
Br144	Br	1.135483	0.618562	-0.186593
Br145	Br	0.866617	1.391953	-0.382256
Br146	Br	1.005360	0.278636	0.528634
Br147	Br	0.253365	1.618503	-0.345121
Br148	Br	0.866570	0.618526	0.180365
Br149	Br	1.144279	1.618477	-0.345111
H150	H	0.485843	1.417976	-0.222533
Br151	Br	0.278774	1.731887	-0.528537
H152	H	1.699374	0.418084	0.077722
H153	H	1.005504	1.679638	-0.490562
H154	H	0.898652	1.592457	-0.504854
Br155	Br	1.160958	0.731856	-0.085621
H156	H	1.367964	0.418057	-0.163345
