data_functionalizedCrystal
_audit_creation_method	'MofGen! by Chris Wilmer'
_symmetry_space_group_name_H-M	'P1'
_symmetry_Int_Tables_number	1
_symmetry_cell_setting	triclinic
loop_
_symmetry_equiv_pos_as_xyz
  x,y,z
_cell_length_a	12.827893
_cell_length_b	16.625545
_cell_length_c	12.827885
_cell_angle_alpha	90.033151
_cell_angle_beta	89.980728
_cell_angle_gamma	89.975802
loop_
_atom_site_label
_atom_site_type_symbol
_atom_site_fract_x
_atom_site_fract_y
_atom_site_fract_z
Zn1	Zn	1.597609	0.320958	-0.590820
Zn2	Zn	1.930942	0.654291	-0.257487
Zn3	Zn	2.264275	0.987624	0.075846
Zn4	Zn	1.597476	0.455812	-0.416071
Zn5	Zn	1.930809	0.789146	-0.082738
Zn6	Zn	2.264143	1.122479	0.250596
Zn7	Zn	1.422850	0.320998	-0.416095
Zn8	Zn	1.756183	0.654331	-0.082761
Zn9	Zn	2.089516	0.987664	0.250572
Zn10	Zn	1.422809	0.455752	-0.590771
Zn11	Zn	1.756142	0.789086	-0.257438
Zn12	Zn	2.089476	1.122419	0.075895
O13	O	1.510186	0.388380	-0.503439
O14	O	1.843519	0.721713	-0.170106
O15	O	2.176853	1.055047	0.163227
O16	O	1.743827	0.338855	-0.567650
O17	O	2.077161	0.672188	-0.234317
O18	O	2.410494	1.005521	0.099017
O19	O	1.574273	0.437971	-0.269838
O20	O	1.907606	0.771304	0.063495
O21	O	2.240939	1.104637	0.396829
O22	O	1.446104	0.208160	-0.439303
O23	O	1.779438	0.541493	-0.105969
O24	O	2.112771	0.874827	0.227364
O25	O	1.743730	0.437932	-0.439262
O26	O	2.077063	0.771265	-0.105929
O27	O	2.410396	1.104599	0.227404
O28	O	1.574499	0.208131	-0.567673
O29	O	1.907832	0.541464	-0.234340
O30	O	2.241166	0.874797	0.098994
O31	O	1.445976	0.338923	-0.269855
O32	O	1.779309	0.672256	0.063478
O33	O	2.112642	1.005590	0.396811
O34	O	1.276608	0.338865	-0.439255
O35	O	1.609942	0.672198	-0.105922
O36	O	1.943275	1.005532	0.227411
O37	O	1.446035	0.437830	-0.737014
O38	O	1.779369	0.771163	-0.403681
O39	O	2.112702	1.104496	-0.070347
O40	O	1.276578	0.437869	-0.567590
O41	O	1.609912	0.771202	-0.234256
O42	O	1.943245	1.104535	0.099077
O43	O	1.574460	0.338797	-0.737050
O44	O	1.907793	0.672130	-0.403717
O45	O	2.241127	1.005463	-0.070383
O46	O	1.574233	0.568637	-0.439215
O47	O	1.907567	0.901970	-0.105882
O48	O	2.240900	1.235303	0.227452
O49	O	1.445906	0.568593	-0.567567
O50	O	1.779240	0.901926	-0.234233
O51	O	2.112573	1.235259	0.099100
C52	C	1.238676	0.388365	-0.503420
C53	C	1.572009	0.721698	-0.170087
C54	C	1.905343	1.055032	0.163246
C55	C	1.122523	0.388378	-0.503437
C56	C	1.455856	0.721712	-0.170104
C57	C	1.789189	1.055045	0.163230
C58	C	0.950707	0.437457	-0.566859
C59	C	1.284040	0.770791	-0.233525
C60	C	1.617373	1.104124	0.099808
C61	C	1.070757	0.437445	-0.566843
C62	C	1.404090	0.770778	-0.233510
C63	C	1.737424	1.104111	0.099824
C64	C	1.510080	0.597871	-0.503406
C65	C	1.843413	0.931204	-0.170072
C66	C	2.176746	1.264538	0.163261
C67	C	1.510130	0.687492	-0.503426
C68	C	1.843463	1.020825	-0.170093
C69	C	2.176796	1.354159	0.163240
C70	C	1.510300	1.015668	-0.503551
C71	C	1.843634	1.349001	-0.170218
C72	C	2.176967	1.682334	0.163115
C73	C	1.510249	0.924359	-0.503519
C74	C	1.843583	1.257692	-0.170186
C75	C	2.176916	1.591026	0.163147
C76	C	1.510214	0.851583	-0.503488
C77	C	1.843547	1.184916	-0.170155
C78	C	2.176881	1.518249	0.163178
C79	C	1.510165	0.760268	-0.503458
C80	C	1.843498	1.093602	-0.170124
C81	C	2.176832	1.426935	0.163209
C82	C	1.782756	0.388395	-0.503459
C83	C	2.116089	0.721729	-0.170126
C84	C	2.449423	1.055062	0.163208
C85	C	1.898909	0.388402	-0.503467
C86	C	2.232242	0.721735	-0.170134
C87	C	2.565576	1.055069	0.163199
C88	C	1.510258	0.388302	-0.776010
C89	C	1.843591	0.721635	-0.442676
C90	C	2.176925	1.054969	-0.109343
C91	C	1.510289	0.388269	-0.892163
C92	C	1.843622	0.721602	-0.558830
C93	C	2.176955	1.054935	-0.225496
C94	C	1.510312	1.178071	-0.503508
C95	C	1.843645	1.511404	-0.170175
C96	C	2.176979	1.844738	0.163159
C97	C	1.510343	1.088450	-0.503569
C98	C	1.843677	1.421783	-0.170235
C99	C	2.177010	1.755117	0.163098
C100	C	1.573874	0.339221	-1.064010
C101	C	1.907208	0.672554	-0.730676
C102	C	2.240541	1.005888	-0.397343
C103	C	1.573844	0.339254	-0.943959
C104	C	1.907177	0.672588	-0.610626
C105	C	2.240511	1.005921	-0.277293
C106	C	1.510174	0.388400	-0.231929
C107	C	1.843508	0.721733	0.101404
C108	C	2.176841	1.055066	0.434737
C109	C	1.510346	0.388206	-0.115777
C110	C	1.843679	0.721539	0.217557
C111	C	2.177013	1.054872	0.550890
H112	H	0.906176	0.479467	-0.621138
H113	H	1.239509	0.812801	-0.287804
H114	H	1.572842	1.146134	0.045529
C115	C	1.647323	0.282595	-0.883820
C116	C	1.980656	0.615929	-0.550487
C117	C	2.313990	0.949262	-0.217153
N118	N	1.702670	0.239919	-0.838520
N119	N	2.036004	0.573252	-0.505187
N120	N	2.369337	0.906586	-0.171854
H121	H	1.115302	0.479439	-0.621119
H122	H	1.448635	0.812772	-0.287786
H123	H	1.781968	1.146106	0.045547
C124	C	0.959063	0.331648	-0.430133
C125	C	1.292397	0.664981	-0.096800
C126	C	1.625730	0.998314	0.236533
N127	N	1.004370	0.288897	-0.374898
N128	N	1.337704	0.622230	-0.041565
N129	N	1.671037	0.955563	0.291768
C130	C	1.436802	0.444926	-0.952295
C131	C	1.770136	0.778259	-0.618962
C132	C	2.103469	1.111593	-0.285629
N133	N	1.381452	0.487600	-0.997595
N134	N	1.714785	0.820934	-0.664262
N135	N	2.048119	1.154267	-0.330928
C136	C	1.647378	0.282524	-1.124199
C137	C	1.980711	0.615858	-0.790866
C138	C	2.314044	0.949191	-0.457533
N139	N	1.702739	0.239816	-1.169533
N140	N	2.036072	0.573150	-0.836200
N141	N	2.369406	0.906483	-0.502866
H142	H	1.077985	0.346375	-0.449167
H143	H	1.411318	0.679708	-0.115833
H144	H	1.744652	1.013042	0.217500
H145	H	1.455939	0.430171	-1.071220
H146	H	1.789272	0.763504	-0.737886
H147	H	2.122605	1.096838	-0.404553
