data_functionalizedCrystal
_audit_creation_method	'MofGen! by Chris Wilmer'
_symmetry_space_group_name_H-M	'P1'
_symmetry_Int_Tables_number	1
_symmetry_cell_setting	triclinic
loop_
_symmetry_equiv_pos_as_xyz
  x,y,z
_cell_length_a	14.519731
_cell_length_b	9.065218
_cell_length_c	8.140239
_cell_angle_alpha	90.002802
_cell_angle_beta	89.995496
_cell_angle_gamma	95.647631
loop_
_atom_site_label
_atom_site_type_symbol
_atom_site_fract_x
_atom_site_fract_y
_atom_site_fract_z
O1	O	0.135224	-1.957880	-0.136622
O2	O	0.146316	-1.528389	-0.136625
O3	O	0.006616	-1.754506	-0.136608
O4	O	0.274924	-1.731764	-0.136638
O5	O	0.006614	-1.754493	0.136619
O6	O	0.146314	-1.528376	0.136602
O7	O	0.135222	-1.957868	0.136605
Zn8	Zn	0.140768	-1.743120	0.179984
Zn9	Zn	0.140770	-1.743137	-0.180004
O10	O	0.274922	-1.731751	0.136589
C11	C	0.145249	-1.473416	-0.000011
C12	C	0.142062	-1.309632	-0.000012
C13	C	-0.027752	-1.753434	0.000005
C14	C	-0.130156	-1.750241	0.000006
C15	C	-0.213319	-1.747646	0.000003
C16	C	-0.317651	-1.744404	-0.000010
C17	C	-0.400809	-1.741831	-0.000021
C18	C	-0.505148	-1.738589	-0.000030
C19	C	0.136289	-2.012841	-0.000012
C20	C	0.139476	-2.176624	-0.000022
C21	C	0.309290	-1.732823	-0.000029
C22	C	0.411694	-1.736016	-0.000041
N23	N	0.140766	-1.743120	0.425667
N24	N	0.140765	-1.743149	-0.425687
