data_functionalizedCrystal
_audit_creation_method	'MofGen! by Chris Wilmer'
_symmetry_space_group_name_H-M	'P1'
_symmetry_Int_Tables_number	1
_symmetry_cell_setting	triclinic
loop_
_symmetry_equiv_pos_as_xyz
  x,y,z
_cell_length_a	16.992694
_cell_length_b	19.188930
_cell_length_c	16.053802
_cell_angle_alpha	92.551696
_cell_angle_beta	87.249047
_cell_angle_gamma	86.906503
loop_
_atom_site_label
_atom_site_type_symbol
_atom_site_fract_x
_atom_site_fract_y
_atom_site_fract_z
O1	O	1.043197	0.145267	-0.069340
O2	O	1.543197	0.645267	0.430660
O3	O	0.814918	0.143642	-0.069364
O4	O	1.314918	0.643642	0.430636
O5	O	0.935644	0.043185	-0.069335
O6	O	1.435644	0.543185	0.430665
O7	O	0.922471	0.245724	-0.069369
O8	O	1.422471	0.745724	0.430631
O9	O	0.928999	0.048690	0.069522
O10	O	1.428999	0.548690	0.569522
O11	O	0.808273	0.149147	0.069493
O12	O	1.308273	0.649147	0.569493
O13	O	1.036552	0.150772	0.069517
O14	O	1.536552	0.650772	0.569517
Zn15	Zn	0.921357	0.150834	0.091552
Zn16	Zn	1.421357	0.650834	0.591552
Zn17	Zn	0.930113	0.143581	-0.091399
Zn18	Zn	1.430113	0.643581	0.408601
O19	O	0.915826	0.251229	0.069488
O20	O	1.415826	0.751229	0.569488
C21	C	0.782390	0.144306	0.000061
C22	C	1.282390	0.644306	0.500061
C23	C	0.695368	0.138072	0.000053
C24	C	1.195368	0.638072	0.500053
C25	C	0.644922	0.198212	0.000043
C26	C	1.144922	0.698212	0.500043
C27	C	0.563155	0.192351	0.000056
C28	C	1.063155	0.692351	0.500056
C29	C	0.531836	0.126351	0.000072
C30	C	1.031836	0.626351	0.500072
C31	C	0.582288	0.066208	0.000084
C32	C	1.082288	0.566208	0.500084
C33	C	0.664054	0.072069	0.000077
C34	C	1.164054	0.572069	0.500077
C35	C	0.288320	0.102059	0.000098
C36	C	0.788320	0.602059	0.500098
C37	C	0.206548	0.096203	0.000102
C38	C	0.706548	0.596203	0.500102
C39	C	0.187420	0.222347	0.000076
C40	C	0.687420	0.722347	0.500076
C41	C	0.269188	0.228202	0.000064
C42	C	0.769188	0.728202	0.500064
C43	C	0.319633	0.168059	0.000081
C44	C	0.819633	0.668059	0.500081
N45	N	0.448257	0.120359	0.000082
N46	N	0.948257	0.620359	0.500082
N47	N	0.403210	0.174051	0.000076
N48	N	0.903210	0.674051	0.500076
C49	C	0.931895	0.019902	0.000096
C50	C	1.431895	0.519902	0.500096
C51	C	0.930614	-0.057677	0.000103
C52	C	1.430614	0.442323	0.500103
C53	C	1.001452	-0.098456	0.000114
C54	C	1.501452	0.401544	0.500114
C55	C	1.000250	-0.171350	0.000101
C56	C	1.500250	0.328650	0.500101
C57	C	0.928204	-0.203463	0.000093
C58	C	1.428204	0.296537	0.500093
C59	C	0.857356	-0.162676	0.000076
C60	C	1.357356	0.337324	0.500076
C61	C	0.858561	-0.089783	0.000081
C62	C	1.358561	0.410217	0.500081
N63	N	0.870872	-0.312817	0.047342
N64	N	1.370872	0.187183	0.547342
N65	N	0.869732	-0.382063	0.047339
N66	N	1.369732	0.117937	0.547339
C67	C	0.924569	-0.423085	0.000075
C68	C	1.424569	0.076915	0.500075
N69	N	0.980600	-0.392247	-0.047175
N70	N	1.480600	0.107753	0.452825
N71	N	0.981742	-0.322995	-0.047168
N72	N	1.481742	0.177005	0.452832
C73	C	0.926889	-0.282503	0.000086
C74	C	1.426889	0.217497	0.500086
C75	C	0.994108	-0.542905	0.000071
C76	C	1.494108	-0.042905	0.500071
C77	C	0.992903	-0.615801	0.000052
C78	C	1.492903	-0.115801	0.500052
C79	C	0.850007	-0.607124	0.000036
C80	C	1.350007	-0.107124	0.500036
C81	C	0.851215	-0.534230	0.000046
C82	C	1.351215	-0.034230	0.500046
C83	C	0.923267	-0.502125	0.000068
C84	C	1.423267	-0.002125	0.500068
C85	C	1.069080	0.150109	0.000090
C86	C	1.569080	0.650109	0.500090
C87	C	1.156102	0.156342	0.000093
C88	C	1.656102	0.656342	0.500093
C89	C	0.919575	0.274513	0.000055
C90	C	1.419575	0.774513	0.500055
C91	C	0.920856	0.352091	0.000043
C92	C	1.420856	0.852091	0.500043
N93	N	0.915388	0.155784	0.216410
N94	N	1.415388	0.655784	0.716410
N95	N	0.936088	0.138625	-0.216258
N96	N	1.436088	0.638625	0.283742
C97	C	0.966776	0.113057	0.260117
C98	C	1.466776	0.613057	0.760117
C99	C	0.962607	0.116526	0.347523
C100	C	1.462607	0.616526	0.847523
C101	C	0.907054	0.162727	0.391220
C102	C	1.407054	0.662727	0.891220
C103	C	0.855661	0.205456	0.347508
C104	C	1.355661	0.705456	0.847508
C105	C	0.859826	0.201983	0.260104
C106	C	1.359826	0.701983	0.760104
C107	C	0.888860	0.177881	0.652626
C108	C	1.388860	0.677881	1.152626
C109	C	0.884700	0.181353	0.740036
C110	C	1.384700	0.681353	1.240036
C111	C	0.991646	0.092421	0.740045
C112	C	1.491646	0.592421	1.240045
C113	C	0.995810	0.088955	0.652639
C114	C	1.495810	0.588955	1.152639
C115	C	0.944414	0.131681	0.608934
C116	C	1.444414	0.631681	1.108934
N117	N	0.902794	0.166276	0.480563
N118	N	1.402794	0.666276	0.980563
N119	N	0.948671	0.128128	0.519593
N120	N	1.448671	0.628128	1.019593
H121	H	0.556782	0.012469	0.000109
H122	H	1.056782	0.512469	0.500109
N123	N	1.026699	0.063229	0.212989
N124	N	1.526699	0.563229	0.712989
H125	H	1.058619	0.036688	0.253943
H126	H	1.558619	0.536688	0.753943
H127	H	0.998524	0.029237	0.176737
H128	H	1.498524	0.529237	0.676737
N129	N	0.718467	0.007205	0.000094
N130	N	1.218467	0.507205	0.500094
H131	H	0.686221	-0.035495	0.000104
H132	H	1.186221	0.464505	0.500104
H133	H	0.755267	0.004845	-0.051382
H134	H	1.255267	0.504845	0.448618
N135	N	1.079163	-0.063827	0.000136
N136	N	1.579163	0.436173	0.500136
H137	H	1.123856	-0.100726	0.000141
H138	H	1.623856	0.399274	0.500141
H139	H	1.085242	-0.035806	-0.051338
H140	H	1.585242	0.464194	0.448662
N141	N	0.772299	-0.641750	0.000018
N142	N	1.272299	-0.141750	0.500018
H143	H	0.782283	-0.694116	0.000014
H144	H	1.282283	-0.194116	0.500014
H145	H	0.738845	-0.625084	0.051490
H146	H	1.238845	-0.125084	0.551490
H147	H	0.294682	0.281946	0.000042
H148	H	0.794682	0.781946	0.500042
H149	H	1.050591	-0.649002	0.000057
H150	H	1.550591	-0.149002	0.500057
N151	N	1.076656	-0.215345	0.000112
N152	N	1.576656	0.284655	0.500112
H153	H	1.122483	-0.183945	0.000124
H154	H	1.622483	0.316055	0.500124
H155	H	1.076797	-0.243743	0.051587
H156	H	1.576797	0.256257	0.551587
N157	N	1.047070	0.046335	0.787185
N158	N	1.547070	0.546335	1.287185
H159	H	1.082894	0.016541	0.746240
H160	H	1.582894	0.516541	1.246240
H161	H	1.079905	0.076453	0.823436
H162	H	1.579905	0.576453	1.323436
H163	H	0.798696	-0.188827	0.000068
H164	H	1.298696	0.311173	0.500068
H165	H	0.800874	-0.056581	0.000072
H166	H	1.300874	0.443419	0.500072
N167	N	0.774810	-0.490242	0.000039
N168	N	1.274810	0.009758	0.500039
H169	H	0.728985	-0.521644	0.000032
H170	H	1.228985	-0.021644	0.500032
H171	H	0.769734	-0.457777	0.051517
H172	H	1.269734	0.042223	0.551517
N173	N	1.018059	0.070467	0.394664
N174	N	1.518059	0.570467	0.894664
H175	H	1.053896	0.040685	0.353719
H176	H	1.553896	0.540685	0.853719
H177	H	1.050879	0.100613	0.430899
H178	H	1.550879	0.600613	0.930899
H179	H	0.146339	0.271312	0.000064
H180	H	0.646339	0.771312	0.500064
H181	H	0.329383	0.053086	0.000112
H182	H	0.829383	0.553086	0.500112
H183	H	0.181053	0.042455	0.000114
H184	H	0.681053	0.542455	0.500114
N185	N	0.833441	0.223968	0.605486
N186	N	1.333441	0.723968	1.105486
H187	H	0.800551	0.193898	0.569236
H188	H	1.300551	0.693898	1.069236
H189	H	0.797670	0.253761	0.646480
H190	H	1.297670	0.753761	1.146480
H191	H	1.052778	-0.516763	0.000085
H192	H	1.552778	-0.016763	0.500085
N193	N	1.055728	0.039125	0.605509
N194	N	1.555728	0.539125	1.105509
H195	H	1.087650	0.012582	0.646460
H196	H	1.587650	0.512582	1.146460
H197	H	1.027553	0.005133	0.569257
H198	H	1.527553	0.505133	1.069257
N199	N	0.824787	0.231193	0.787170
N200	N	1.324787	0.731193	1.287170
H201	H	0.792861	0.257735	0.746222
H202	H	1.292861	0.757735	1.246222
H203	H	0.788499	0.203962	0.823456
H204	H	1.288499	0.703962	1.323456
N205	N	0.795748	0.255292	0.394637
N206	N	1.295748	0.755292	0.894637
H207	H	0.763825	0.281832	0.353684
H208	H	1.263825	0.781832	0.853684
H209	H	0.759457	0.228059	0.430918
H210	H	1.259457	0.728059	0.930918
N211	N	0.804396	0.248066	0.212965
N212	N	1.304396	0.748066	0.712965
H213	H	0.812524	0.298724	0.228156
H214	H	1.312524	0.798724	0.728156
H215	H	0.815488	0.238796	0.150979
H216	H	1.315488	0.738796	0.650979
N217	N	0.678699	0.269398	0.000016
N218	N	1.178699	0.769398	0.500016
H219	H	0.634331	0.306606	0.000013
H220	H	1.134331	0.806606	0.500013
H221	H	0.709753	0.276621	0.051488
H222	H	1.209753	0.776621	0.551488
H223	H	0.522084	0.241323	0.000047
H224	H	1.022084	0.741323	0.500047
