data_functionalizedCrystal
_audit_creation_method	'MofGen! by Chris Wilmer'
_symmetry_space_group_name_H-M	'P1'
_symmetry_Int_Tables_number	1
_symmetry_cell_setting	triclinic
loop_
_symmetry_equiv_pos_as_xyz
  x,y,z
_cell_length_a	16.120530
_cell_length_b	18.050589
_cell_length_c	16.120297
_cell_angle_alpha	87.124343
_cell_angle_beta	89.871860
_cell_angle_gamma	87.123928
loop_
_atom_site_label
_atom_site_type_symbol
_atom_site_fract_x
_atom_site_fract_y
_atom_site_fract_z
Zn1	Zn	1.247404	-0.376248	0.534587
Zn2	Zn	1.747404	0.123752	1.034587
Zn3	Zn	1.254344	-0.494473	0.395537
Zn4	Zn	1.754344	0.005527	0.895537
Zn5	Zn	1.115396	-0.363698	0.388504
Zn6	Zn	1.615396	0.136302	0.888504
Zn7	Zn	1.108300	-0.493789	0.527506
Zn8	Zn	1.608300	0.006211	1.027506
O9	O	1.181361	-0.432052	0.461533
O10	O	1.681361	0.067948	0.961533
O11	O	1.364691	-0.397469	0.522048
O12	O	1.864691	0.102531	1.022048
O13	O	1.241786	-0.472159	0.278238
O14	O	1.741786	0.027841	0.778238
O15	O	1.132972	-0.261442	0.407903
O16	O	1.632972	0.238558	0.907903
O17	O	1.369789	-0.484328	0.419888
O18	O	1.869789	0.015672	0.919888
O19	O	1.229959	-0.270662	0.515230
O20	O	1.729959	0.229338	1.015230
O21	O	1.139701	-0.376080	0.273071
O22	O	1.639701	0.123920	0.773071
O23	O	0.998089	-0.375417	0.401037
O24	O	1.498089	0.124583	0.901037
O25	O	1.120879	-0.483162	0.644811
O26	O	1.620879	0.016838	1.144811
O27	O	0.992876	-0.470994	0.503160
O28	O	1.492876	0.029006	1.003160
O29	O	1.223078	-0.396806	0.650014
O30	O	1.723078	0.103194	1.150014
O31	O	1.234906	-0.598303	0.413022
O32	O	1.734906	-0.098303	0.913022
O33	O	1.127608	-0.597800	0.509979
O34	O	1.627608	-0.097800	1.009979
C35	C	0.965310	-0.421770	0.450568
C36	C	1.465310	0.078230	0.950568
C37	C	0.872881	-0.417390	0.445896
C38	C	1.372881	0.082610	0.945896
C39	C	1.181261	-0.624999	0.461515
C40	C	1.681261	-0.124999	0.961515
C41	C	1.181293	-0.707547	0.461538
C42	C	1.681293	-0.207547	0.961538
C43	C	0.703653	-0.409376	0.437374
C44	C	1.203653	0.090624	0.937374
C45	C	0.659907	-0.454785	0.485754
C46	C	1.159907	0.045215	0.985754
C47	C	0.565742	-0.450326	0.481012
C48	C	1.065742	0.049674	0.981012
C49	C	0.797826	-0.413834	0.442115
C50	C	1.297826	0.086166	0.942115
C51	C	1.123001	-0.906753	0.514247
C52	C	1.623001	-0.406753	1.014247
C53	C	1.106578	-0.951975	0.437341
C54	C	1.606578	-0.451975	0.937341
C55	C	1.181375	-0.858682	0.461553
C56	C	1.681375	-0.358682	0.961553
C57	C	1.197838	-0.960544	0.538470
C58	C	1.697838	-0.460544	1.038470
C59	C	1.181451	-1.004671	0.461574
C60	C	1.681451	-0.504671	0.961574
C61	C	1.164914	-0.902813	0.384605
C62	C	1.664914	-0.402813	0.884605
C63	C	1.256207	-0.911381	0.485787
C64	C	1.756207	-0.411381	0.985787
C65	C	1.239815	-0.956580	0.408830
C66	C	1.739815	-0.456580	0.908830
C67	C	1.181328	-0.774581	0.461542
C68	C	1.681328	-0.274581	0.961542
C69	C	1.181498	-1.088770	0.461577
C70	C	1.681498	-0.588770	0.961577
C71	C	1.398256	-0.442375	0.472543
C72	C	1.898256	0.057625	0.972543
C73	C	1.490683	-0.446774	0.477234
C74	C	1.990683	0.053226	0.977234
C75	C	1.170413	-0.441308	0.678428
C76	C	1.670413	0.058692	1.178428
C77	C	1.165748	-0.445252	0.770856
C78	C	1.665748	0.054748	1.270856
C79	C	1.181483	-0.238354	0.461572
C80	C	1.681483	0.261646	0.961572
C81	C	1.181535	-0.155811	0.461588
C82	C	1.681535	0.344189	0.961588
C83	C	1.192314	-0.422781	0.245485
C84	C	1.692314	0.077219	0.745485
C85	C	1.197141	-0.418635	0.153066
C86	C	1.697141	0.081365	0.653066
C87	C	1.157199	-0.452435	0.940081
C88	C	1.657199	0.047565	1.440081
C89	C	1.205687	-0.411454	0.983846
C90	C	1.705687	0.088546	1.483846
C91	C	1.200930	-0.415451	1.078009
C92	C	1.700930	0.084549	1.578009
C93	C	1.161955	-0.448439	0.845910
C94	C	1.661955	0.051561	1.345910
H95	H	0.670386	-0.367156	0.392397
H96	H	1.170386	0.132844	0.892397
H97	H	0.693175	-0.497008	0.530735
H98	H	1.193175	0.002992	1.030735
H99	H	1.073570	-0.884877	0.558738
H100	H	1.573570	-0.384877	1.058738
H101	H	1.043330	-0.969970	0.416862
H102	H	1.543330	-0.469970	0.916862
O103	O	1.148221	-0.872713	0.307045
O104	O	1.648221	-0.372713	0.807045
C105	C	1.148367	-0.794655	0.307973
C106	C	1.648367	-0.294655	0.807973
H107	H	1.135710	-0.776589	0.373756
H108	H	1.635710	-0.276589	0.873756
H109	H	1.211512	-0.775351	0.286464
H110	H	1.711512	-0.275351	0.786464
C111	C	1.095872	-0.782061	0.168384
C112	C	1.595872	-0.282061	0.668384
C113	C	1.080319	-0.759870	0.249179
C114	C	1.580319	-0.259870	0.749179
H115	H	1.053899	-0.760602	0.132115
H116	H	1.553899	-0.260602	0.632115
H117	H	1.095776	-0.834649	0.167757
H118	H	1.595776	-0.334649	0.667757
H119	H	1.148494	-0.765973	0.150472
H120	H	1.648494	-0.265973	0.650472
H121	H	1.027703	-0.775967	0.267094
H122	H	1.527703	-0.275967	0.767094
H123	H	1.080405	-0.707283	0.249808
H124	H	1.580405	-0.207283	0.749808
H125	H	1.319438	-0.893389	0.506301
H126	H	1.819438	-0.393389	1.006301
H127	H	1.289216	-0.978312	0.364224
H128	H	1.789216	-0.478312	0.864224
O129	O	1.214320	-0.990540	0.616117
O130	O	1.714320	-0.490540	1.116117
C131	C	1.152568	-0.965140	0.671445
C132	C	1.652568	-0.465140	1.171445
H133	H	1.122130	-0.910614	0.645165
H134	H	1.622130	-0.410614	1.145165
H135	H	1.103607	-1.008329	0.679830
H136	H	1.603607	-0.508329	1.179830
C137	C	1.229754	-1.019678	0.788330
C138	C	1.729754	-0.519678	1.288330
C139	C	1.192374	-0.952705	0.756057
C140	C	1.692374	-0.452705	1.256057
H141	H	1.254307	-1.012011	0.840525
H142	H	1.754307	-0.512011	1.340525
H143	H	1.271357	-1.036794	0.751055
H144	H	1.771357	-0.536794	1.251055
H145	H	1.188947	-1.055663	0.795311
H146	H	1.688947	-0.555663	1.295311
H147	H	1.233184	-0.916725	0.749067
H148	H	1.733184	-0.416725	1.249067
H149	H	1.150780	-0.935583	0.793333
H150	H	1.650780	-0.435583	1.293333
H151	H	1.250770	-0.373367	0.950596
H152	H	1.750770	0.126633	1.450596
O153	O	1.103539	-0.497961	0.979784
O154	O	1.603539	0.002039	1.479784
C155	C	1.148373	-0.550251	1.032449
C156	C	1.648373	-0.050251	1.532449
H157	H	1.215160	-0.556858	1.009537
H158	H	1.715160	-0.056858	1.509537
H159	H	1.147998	-0.530160	1.098383
H160	H	1.647998	-0.030160	1.598383
C161	C	1.025606	-0.617469	1.060003
C162	C	1.525606	-0.117469	1.560003
C163	C	1.107633	-0.625589	1.031858
C164	C	1.607633	-0.125589	1.531858
H165	H	1.000474	-0.663941	1.059642
H166	H	1.500474	-0.163941	1.559642
H167	H	0.995399	-0.582239	1.024524
H168	H	1.495399	-0.082239	1.524524
H169	H	1.025305	-0.600724	1.114946
H170	H	1.525305	-0.100724	1.614946
H171	H	1.107933	-0.642325	0.976913
H172	H	1.607933	-0.142325	1.476913
H173	H	1.137839	-0.660824	1.067328
H174	H	1.637839	-0.160824	1.567328
