data_functionalizedCrystal
_audit_creation_method	'MofGen! by Chris Wilmer'
_symmetry_space_group_name_H-M	'P1'
_symmetry_Int_Tables_number	1
_symmetry_cell_setting	triclinic
loop_
_symmetry_equiv_pos_as_xyz
  x,y,z
_cell_length_a	16.120530
_cell_length_b	16.120531
_cell_length_c	16.120297
_cell_angle_alpha	95.610581
_cell_angle_beta	89.871860
_cell_angle_gamma	89.826117
loop_
_atom_site_label
_atom_site_type_symbol
_atom_site_fract_x
_atom_site_fract_y
_atom_site_fract_z
Zn1	Zn	1.224939	0.422260	0.554785
Zn2	Zn	1.558272	0.755594	0.888118
Zn3	Zn	1.891606	1.088927	1.221452
Zn4	Zn	1.224819	0.554943	0.422081
Zn5	Zn	1.558153	0.888277	0.755414
Zn6	Zn	1.891486	1.221610	1.088748
Zn7	Zn	1.093680	0.408176	0.408028
Zn8	Zn	1.427013	0.741510	0.741362
Zn9	Zn	1.760346	1.074843	1.074695
Zn10	Zn	1.078817	0.554176	0.554013
Zn11	Zn	1.412150	0.887509	0.887347
Zn12	Zn	1.745483	1.220842	1.220680
O13	O	1.155564	0.484889	0.484727
O14	O	1.488897	0.818222	0.818060
O15	O	1.822230	1.151556	1.151394
O16	O	1.340958	0.446077	0.543385
O17	O	1.674291	0.779410	0.876719
O18	O	2.007625	1.112743	1.210052
O19	O	1.213594	0.529901	0.303585
O20	O	1.546927	0.863235	0.636918
O21	O	1.880260	1.196568	0.970251
O22	O	1.117362	0.293415	0.421938
O23	O	1.450695	0.626748	0.755271
O24	O	1.784029	0.960082	1.088605
O25	O	1.340870	0.543558	0.445888
O26	O	1.674204	0.876892	0.779222
O27	O	2.007537	1.210225	1.112555
O28	O	1.213797	0.303763	0.529759
O29	O	1.547131	0.637096	0.863093
O30	O	1.880464	0.970429	1.196426
O31	O	1.117246	0.422072	0.293260
O32	O	1.450579	0.755406	0.626594
O33	O	1.783913	1.088739	0.959927
O34	O	0.975673	0.421328	0.421190
O35	O	1.309006	0.754661	0.754523
O36	O	1.642340	1.087995	1.087857
O37	O	1.092030	0.542250	0.670748
O38	O	1.425363	0.875583	1.004081
O39	O	1.758696	1.208917	1.337415
O40	O	0.964753	0.528593	0.528444
O41	O	1.298086	0.861926	0.861778
O42	O	1.631420	1.195260	1.195111
O43	O	1.199385	0.445332	0.671315
O44	O	1.532719	0.778666	1.004648
O45	O	1.866052	1.111999	1.337982
O46	O	1.199181	0.671471	0.445140
O47	O	1.532515	1.004804	0.778474
O48	O	1.865848	1.338138	1.111807
O49	O	1.091914	0.670907	0.542070
O50	O	1.425247	1.004240	0.875404
O51	O	1.758580	1.337574	1.208737
C52	C	0.940126	0.473350	0.473209
C53	C	1.273460	0.806683	0.806542
C54	C	1.606793	1.140016	1.139876
C55	C	0.847959	0.468434	0.468302
C56	C	1.181293	0.801767	0.801636
C57	C	1.514626	1.135101	1.134969
C58	C	0.679209	0.459440	0.459350
C59	C	1.012542	0.792774	0.792684
C60	C	1.345876	1.126107	1.126017
C61	C	0.632752	0.510402	0.510167
C62	C	0.966085	0.843735	0.843501
C63	C	1.299419	1.177069	1.176834
C64	C	0.538854	0.505398	0.505186
C65	C	0.872187	0.838731	0.838520
C66	C	1.205520	1.172065	1.171853
C67	C	0.773116	0.464443	0.464330
C68	C	1.106449	0.797777	0.797663
C69	C	1.439783	1.131110	1.130997
C70	C	1.143943	0.701432	0.495066
C71	C	1.477277	1.034765	0.828399
C72	C	1.810610	1.368099	1.161733
C73	C	1.139046	0.794075	0.499521
C74	C	1.472380	1.127409	0.832854
C75	C	1.805713	1.460742	1.166187
C76	C	1.130110	0.963697	0.507672
C77	C	1.463443	1.297030	0.841005
C78	C	1.796776	1.630364	1.174338
C79	C	1.181051	1.005240	0.461737
C80	C	1.514384	1.338573	0.795070
C81	C	1.847718	1.671907	1.128403
C82	C	1.176079	1.099623	0.466272
C83	C	1.509412	1.432957	0.799605
C84	C	1.842745	1.766290	1.132939
C85	C	1.135081	0.869305	0.503138
C86	C	1.468414	1.202638	0.836471
C87	C	1.801748	1.535972	1.169804
C88	C	1.371842	0.496474	0.496290
C89	C	1.705175	0.829807	0.829624
C90	C	2.038509	1.163141	1.162957
C91	C	1.464007	0.501411	0.501218
C92	C	1.797340	0.834744	0.834551
C93	C	2.130674	1.168078	1.167885
C94	C	1.144063	0.495277	0.702119
C95	C	1.477396	0.828610	1.035452
C96	C	1.810730	1.161943	1.368785
C97	C	1.139162	0.499703	0.794758
C98	C	1.472495	0.833037	1.128091
C99	C	1.805829	1.166370	1.461425
C100	C	1.167222	1.267500	0.474350
C101	C	1.500556	1.600834	0.807684
C102	C	1.833889	1.934167	1.141017
C103	C	1.172117	1.174856	0.469885
C104	C	1.505451	1.508190	0.803218
C105	C	1.838784	1.841523	1.136552
C106	C	1.167071	0.474484	0.268181
C107	C	1.500404	0.807818	0.601514
C108	C	1.833737	1.141151	0.934847
C109	C	1.172145	0.469831	0.175539
C110	C	1.505478	0.803165	0.508873
C111	C	1.838811	1.136498	0.842206
C112	C	1.130185	0.507765	0.964369
C113	C	1.463518	0.841098	1.297702
C114	C	1.796851	1.174432	1.631035
C115	C	1.181119	0.461772	1.005934
C116	C	1.514453	0.795105	1.339267
C117	C	1.847786	1.128439	1.672601
C118	C	1.176124	0.466258	1.100311
C119	C	1.509458	0.799591	1.433644
C120	C	1.842791	1.132924	1.766978
C121	C	1.135179	0.503280	0.869983
C122	C	1.468512	0.836614	1.203316
C123	C	1.801845	1.169947	1.536649
H124	H	0.648464	0.412057	0.412107
H125	H	0.981797	0.745390	0.745440
H126	H	1.315130	1.078723	1.078774
H127	H	1.228397	0.969922	0.419004
H128	H	1.561730	1.303255	0.752337
H129	H	1.895064	1.636589	1.085671
H130	H	1.082831	0.550507	0.999661
H131	H	1.416165	0.883840	1.332994
H132	H	1.749498	1.217173	1.666327
C133	C	1.066143	1.011407	0.565389
C134	C	1.399476	1.344740	0.898722
C135	C	1.732809	1.678073	1.232055
N136	N	1.017959	1.047351	0.608856
N137	N	1.351293	1.380684	0.942189
N138	N	1.684626	1.714018	1.275523
C139	C	0.674288	0.574427	0.573990
C140	C	1.007622	0.907761	0.907324
C141	C	1.340955	1.241094	1.240657
N142	N	0.705577	0.622652	0.622057
N143	N	1.038910	0.955985	0.955390
N144	N	1.372244	1.289319	1.288724
H145	H	1.228476	0.419027	0.970640
H146	H	1.561810	0.752360	1.303973
H147	H	1.895143	1.085694	1.637306
