data_functionalizedCrystal
_audit_creation_method	'MofGen! by Chris Wilmer'
_symmetry_space_group_name_H-M	'P1'
_symmetry_Int_Tables_number	1
_symmetry_cell_setting	triclinic
loop_
_symmetry_equiv_pos_as_xyz
  x,y,z
_cell_length_a	13.897449
_cell_length_b	12.759400
_cell_length_c	12.759393
_cell_angle_alpha	90.031564
_cell_angle_beta	90.020530
_cell_angle_gamma	90.015964
loop_
_atom_site_label
_atom_site_type_symbol
_atom_site_fract_x
_atom_site_fract_y
_atom_site_fract_z
Zn1	Zn	1.474721	-0.418168	0.594038
Zn2	Zn	1.474624	-0.593887	0.418359
Zn3	Zn	1.313411	-0.418227	0.418372
Zn4	Zn	1.313400	-0.593810	0.593994
O5	O	1.394039	-0.506023	0.506191
O6	O	1.609690	-0.441486	0.570747
O7	O	1.453202	-0.570642	0.271339
O8	O	1.334854	-0.271198	0.441698
O9	O	1.609618	-0.570586	0.441676
O10	O	1.453368	-0.271155	0.570760
O11	O	1.334760	-0.441585	0.271349
O12	O	1.178428	-0.441510	0.441655
O13	O	1.334836	-0.570454	0.741021
O14	O	1.178420	-0.570510	0.570684
O15	O	1.453358	-0.441411	0.741054
O16	O	1.453192	-0.740898	0.441633
O17	O	1.334742	-0.740841	0.570671
C18	C	1.143425	-0.506009	0.506167
C19	C	1.036211	-0.506028	0.506181
C20	C	1.393982	-0.778991	0.506169
C21	C	1.394045	-0.895767	0.506194
C22	C	1.455791	-0.950624	0.439078
C23	C	1.455850	-1.060348	0.439111
C24	C	1.332410	-1.060349	0.573378
C25	C	1.332356	-0.950627	0.573350
C26	C	1.527055	-0.950624	0.361557
C27	C	1.527114	-1.060348	0.361589
C28	C	0.839915	-0.506032	0.506209
C29	C	0.949148	-0.506027	0.506191
C30	C	1.645632	-0.506038	0.506215
C31	C	1.752846	-0.506044	0.506226
C32	C	1.394106	-0.505917	0.780224
C33	C	1.394135	-0.505872	0.897001
C34	C	1.394123	-0.231990	0.506236
C35	C	1.394158	-0.115213	0.506255
C36	C	1.394027	-0.506053	0.233223
C37	C	1.394185	-0.505802	0.116447
C38	C	1.455858	-0.438673	0.951882
C39	C	1.455881	-0.438635	1.061606
C40	C	1.332456	-0.573004	1.061559
C41	C	1.332429	-0.573036	0.951836
C42	C	1.527119	-0.361099	0.951910
C43	C	1.527142	-0.361061	1.061634
H44	H	1.282186	-1.105029	0.628055
H45	H	1.598064	-0.390266	0.917876
C46	C	1.285412	-0.750891	1.095287
C47	C	1.264633	-0.646835	1.121834
H48	H	1.243536	-0.796471	1.132493
H49	H	1.350212	-0.766260	1.113281
H50	H	1.276564	-0.760514	1.022084
H51	H	1.273488	-0.637210	1.195037
H52	H	1.199818	-0.631462	1.103847
C53	C	1.664116	-1.167989	0.322217
C54	C	1.622917	-1.106189	0.401031
H55	H	1.723253	-1.196296	0.346574
H56	H	1.675589	-1.126123	0.261972
H57	H	1.621449	-1.223472	0.304668
H58	H	1.665580	-1.050701	0.418575
H59	H	1.611448	-1.148057	0.461295
C60	C	1.416557	-0.257827	0.850743
C61	C	1.500132	-0.251269	0.911725
H62	H	1.399901	-0.190025	0.825931
H63	H	1.365439	-0.284836	0.892094
H64	H	1.427661	-0.303055	0.792837
H65	H	1.489026	-0.206047	0.969636
H66	H	1.551262	-0.224245	0.870373
H67	H	1.500413	-0.283752	1.095681
C68	C	1.689125	-0.408383	1.016493
C69	C	1.627986	-0.390490	1.101848
H70	H	1.751376	-0.426558	1.041322
H71	H	1.693204	-0.346658	0.975154
H72	H	1.664263	-0.464083	0.975125
H73	H	1.652844	-0.334784	1.143212
H74	H	1.623910	-0.452223	1.143204
H75	H	1.282087	-0.905963	0.628011
H76	H	1.601737	-0.920765	0.383411
C77	C	1.416647	-1.161726	0.258223
C78	C	1.500172	-1.100679	0.251736
H79	H	1.400020	-1.186630	0.190408
H80	H	1.365491	-1.120390	0.285188
H81	H	1.427791	-1.219572	0.303462
H82	H	1.489026	-1.042829	0.206502
H83	H	1.551340	-1.142017	0.224757
C84	C	1.396676	-0.938791	0.238618
C85	C	1.490966	-0.904791	0.257167
H86	H	1.374399	-0.910499	0.174169
H87	H	1.356192	-0.915785	0.293997
H88	H	1.395496	-1.013149	0.235091
H89	H	1.492144	-0.830433	0.260702
H90	H	1.531460	-0.927791	0.201774
C91	C	1.318924	-0.714391	0.828408
C92	C	1.264570	-0.646894	0.891513
H93	H	1.277025	-0.759984	0.791165
H94	H	1.360935	-0.754573	0.871203
H95	H	1.355662	-0.674389	0.780045
H96	H	1.227838	-0.686896	0.939882
H97	H	1.222542	-0.606708	0.848714
