data_functionalizedCrystal
_audit_creation_method	'MofGen! by Chris Wilmer'
_symmetry_space_group_name_H-M	'P1'
_symmetry_Int_Tables_number	1
_symmetry_cell_setting	triclinic
loop_
_symmetry_equiv_pos_as_xyz
  x,y,z
_cell_length_a	16.704494
_cell_length_b	12.970454
_cell_length_c	12.970454
_cell_angle_alpha	60.000265
_cell_angle_beta	90.000580
_cell_angle_gamma	56.632239
loop_
_atom_site_label
_atom_site_type_symbol
_atom_site_fract_x
_atom_site_fract_y
_atom_site_fract_z
Zr1	Zr	0.815201	1.020721	-0.081387
O2	O	0.680084	1.253677	-0.254944
O3	O	0.856622	0.800155	-0.028183
O4	O	0.856621	1.015245	-0.243272
O5	O	0.680084	1.038586	0.129813
O6	O	0.995878	0.996832	-0.234064
O7	O	0.680084	1.038587	-0.039855
O8	O	0.995878	0.612075	0.150691
O9	O	0.680084	1.423343	-0.254942
O10	O	0.978213	0.872546	0.001381
O11	O	0.874288	0.886287	0.121130
O12	O	0.874288	1.139528	-0.132110
O13	O	0.770362	1.153269	-0.012361
Zr14	Zr	1.037300	0.991352	0.203899
Zr15	Zr	1.037299	0.991354	-0.066701
Zr16	Zr	0.815202	1.020720	0.189213
Zr17	Zr	0.815202	1.291318	-0.081384
Zr18	Zr	1.037300	0.720755	0.203897
O19	O	0.995880	1.211918	0.150696
O20	O	0.995879	1.211921	-0.234062
O21	O	0.680085	1.253675	0.129815
O22	O	1.172418	0.758396	0.377456
O23	O	1.172417	0.758398	-0.007302
O24	O	0.856623	0.800153	0.356575
O25	O	1.172417	0.973487	-0.007300
O26	O	0.995880	0.996828	0.365785
O27	O	0.856624	1.015242	0.356577
O28	O	1.172418	0.973486	0.162367
O29	O	0.856622	1.400000	-0.243269
O30	O	0.995879	0.612074	0.365782
O31	O	1.172417	0.588730	0.377455
O32	O	1.172417	0.588732	0.162364
O33	O	0.680085	1.423342	-0.039851
O34	O	0.856623	1.399999	-0.028178
O35	O	0.978214	0.872545	0.254623
O36	O	1.082139	0.858804	0.134874
O37	O	0.978214	1.125786	0.001383
O38	O	0.874289	1.139527	0.121132
C39	C	0.926250	0.667560	0.061253
C40	C	0.926249	0.552685	0.061252
C41	C	0.648440	1.042771	0.042887
C42	C	0.554153	1.055238	0.036652
C43	C	0.485485	0.799911	0.164332
C44	C	0.396897	0.811618	0.158477
C45	C	0.288389	1.090357	0.019097
C46	C	0.376977	1.078650	0.024951
C47	C	0.475524	0.933422	0.097570
C48	C	0.564113	0.921717	0.103416
C49	C	0.455603	1.200454	-0.035956
C50	C	0.367015	1.212161	-0.041811
C51	C	1.204062	0.969303	0.079626
C52	C	1.298348	0.956836	0.085861
C53	C	0.926250	1.006038	-0.277223
C54	C	0.926249	1.006039	-0.392100
C55	C	0.926252	1.344513	0.061259
C56	C	0.926252	1.459389	0.061260
C57	C	0.926252	1.006035	0.399736
C58	C	0.926252	1.006034	0.514612
C59	C	1.204061	0.630827	0.079623
C60	C	1.298347	0.503484	0.085857
C61	C	0.926251	0.667559	0.399733
C62	C	0.926251	0.552682	0.514609
C63	C	1.204062	0.630825	0.418102
C64	C	1.298349	0.503481	0.539213
C65	C	0.648440	1.381249	-0.295590
C66	C	0.554153	1.508592	-0.416700
C67	C	0.648441	1.381247	0.042890
C68	C	0.554155	1.508590	0.036656
C69	C	0.926251	1.344515	-0.277220
C70	C	0.926250	1.459391	-0.392096
C71	C	1.288376	0.450855	0.019091
C72	C	1.376960	0.331219	0.024922
C73	C	1.475513	0.264206	0.097527
C74	C	1.485481	0.316845	0.164295
C75	C	1.396899	0.436487	0.158456
C76	C	1.396884	0.436505	0.533580
C77	C	1.485485	0.316867	0.647367
C78	C	1.475548	0.264198	0.766784
C79	C	1.377002	0.331186	0.772413
C80	C	1.288404	0.450830	0.658628
C81	C	0.455618	1.575581	-0.411068
C82	C	0.367017	1.695253	-0.524854
C83	C	0.376954	1.747927	-0.644271
C84	C	0.475499	1.680933	-0.649900
C85	C	0.564098	1.561270	-0.536116
C86	C	0.564125	1.561229	0.103411
C87	C	0.475542	1.680895	0.097550
C88	C	0.376989	1.747912	0.024941
C89	C	0.367020	1.695268	-0.041822
C90	C	0.455603	1.575611	-0.035968
H91	H	0.565725	0.681661	0.223468
H92	H	1.368823	0.288376	-0.029449
C93	C	0.444622	1.517703	-0.109385
H94	H	0.373239	1.574749	-0.153450
H95	H	0.476921	1.531106	-0.169802
H96	H	0.476915	1.411526	-0.050186
H97	H	0.304868	1.845343	0.020185
C98	C	0.672481	1.487576	-0.542327
H99	H	0.665700	1.536082	-0.629747
H100	H	0.709318	1.500376	-0.500537
H101	H	0.709284	1.380804	-0.500552
H102	H	1.404994	0.479369	0.436356
C103	C	0.672510	0.761976	0.183301
H104	H	0.665751	0.684139	0.222236
H105	H	0.709334	0.751595	0.128697
H106	H	0.709313	0.751632	0.248282
H107	H	0.644364	1.506672	0.162545
H108	H	1.565735	0.262266	0.223408
H109	H	0.304803	1.845365	-0.736912
H110	H	0.286769	1.330401	-0.100930
C111	C	0.258609	1.768986	-0.121675
H112	H	0.207289	1.847773	-0.115580
H113	H	0.250818	1.812132	-0.209151
H114	H	0.250833	1.692525	-0.089532
C115	C	1.179980	0.524557	-0.060788
H116	H	1.186744	0.476077	-0.099721
H117	H	1.143159	0.511734	-0.006181
H118	H	1.143171	0.631335	-0.125769
C119	C	0.407857	0.664756	0.231910
H120	H	0.479236	0.576593	0.275987
H121	H	0.375552	0.663531	0.292318
H122	H	0.375558	0.663526	0.172717
H123	H	1.405032	0.479321	0.212833
H124	H	1.547634	0.166786	0.102272
C125	C	1.593873	0.243154	0.641158
H126	H	1.645223	0.164355	0.726021
H127	H	1.601613	0.200023	0.596829
H128	H	1.601655	0.319607	0.596807
C129	C	0.179986	1.250088	-0.060775
H130	H	0.128656	1.237931	-0.054701
H131	H	0.172206	1.305447	-0.028661
H132	H	0.172211	1.305424	-0.148253
C133	C	1.180021	0.524475	0.664840
H134	H	1.186802	0.475952	0.752260
H135	H	1.143186	0.631250	0.623053
H136	H	1.143215	0.511622	0.623061
C137	C	0.444672	1.517662	-0.279721
H138	H	0.511545	1.436791	-0.212749
H139	H	0.407870	1.600017	-0.272687
H140	H	0.407856	1.480426	-0.272691
C141	C	0.258631	1.768914	-0.518638
H142	H	0.265410	1.720379	-0.431219
H143	H	0.221809	1.875682	-0.560409
H144	H	0.221813	1.756090	-0.560435
H145	H	0.447498	1.309169	-0.090323
H146	H	1.547699	0.166775	0.859425
H147	H	1.368927	0.288286	0.869658
H148	H	0.483578	1.723835	-0.747144
H149	H	0.483679	1.723737	0.151922
