data_functionalizedCrystal
_audit_creation_method	'MofGen! by Chris Wilmer'
_symmetry_space_group_name_H-M	'P1'
_symmetry_Int_Tables_number	1
_symmetry_cell_setting	triclinic
loop_
_symmetry_equiv_pos_as_xyz
  x,y,z
_cell_length_a	12.837943
_cell_length_b	17.699083
_cell_length_c	16.776229
_cell_angle_alpha	90.007545
_cell_angle_beta	90.005774
_cell_angle_gamma	89.055977
loop_
_atom_site_label
_atom_site_type_symbol
_atom_site_fract_x
_atom_site_fract_y
_atom_site_fract_z
O1	O	-1.374962	-0.196724	-0.066277
O2	O	-1.073181	-0.187006	-0.066282
O3	O	-1.232598	-0.082302	-0.066273
O4	O	-1.215545	-0.301428	-0.066287
O5	O	-1.232576	-0.082293	0.066304
O6	O	-1.073160	-0.186997	0.066295
O7	O	-1.374941	-0.196715	0.066299
Zn8	Zn	-1.224047	-0.191855	0.087346
Zn9	Zn	-1.224075	-0.191866	-0.087329
O10	O	-1.215524	-0.301419	0.066290
C11	C	-1.034558	-0.183719	0.000006
C12	C	-0.919506	-0.173928	0.000004
C13	C	-1.231976	-0.054056	0.000016
C14	C	-1.230143	0.030097	0.000016
C15	C	-1.413564	-0.200002	0.000010
C16	C	-1.528616	-0.209793	0.000006
C17	C	-0.678251	-0.291632	0.000008
C18	C	-0.570148	-0.282436	0.000007
C19	C	-0.595196	-0.146341	0.000008
C20	C	-0.703298	-0.155537	0.000008
C21	C	-0.744822	-0.228185	0.000007
C22	C	-0.852926	-0.237380	0.000002
C23	C	-0.877972	-0.101285	0.000009
C24	C	-0.769869	-0.092090	0.000008
C25	C	-1.216146	-0.329665	-0.000001
C26	C	-1.217979	-0.413818	-0.000006
N27	N	-1.224036	-0.191847	0.206557
C28	C	-1.323717	0.071843	0.000019
C29	C	-1.321989	0.150914	0.000012
C30	C	-1.226685	0.188236	0.000008
C31	C	-1.133103	0.146484	0.000003
C32	C	-1.134833	0.067415	0.000004
C33	C	-1.126126	0.465359	-0.000004
C34	C	-1.124404	0.544434	-0.000003
C35	C	-1.313282	0.548858	0.000004
C36	C	-1.315011	0.469789	0.000005
C37	C	-1.221430	0.428044	-0.000004
C38	C	-1.223306	0.342307	0.000002
C39	C	-1.224808	0.273972	0.000007
N40	N	-1.224094	-0.191869	-0.206540
C41	C	-1.294647	-0.145507	0.248279
C42	C	-1.294652	-0.145507	0.331731
C43	C	-1.224051	-0.191851	0.373460
C44	C	-1.153433	-0.238193	0.331733
C45	C	-1.153423	-0.238189	0.248282
C46	C	-1.153470	-0.238211	0.668280
C47	C	-1.153487	-0.238213	0.751737
C48	C	-1.294700	-0.145529	0.751729
C49	C	-1.294690	-0.145524	0.668278
C50	C	-1.224068	-0.191863	0.626558
C51	C	-1.224061	-0.191862	0.536070
C52	C	-1.224062	-0.191857	0.463947
H53	H	-0.712059	-0.350785	0.000006
C54	C	-0.898607	-0.317286	0.000002
H55	H	-0.972524	-0.313679	-0.000006
H56	H	-0.875739	-0.343733	0.046234
H57	H	-0.875749	-0.343742	-0.046237
C58	C	-0.496923	-0.352228	0.000001
H59	H	-0.537140	-0.396809	-0.000006
H60	H	-0.454221	-0.351467	0.046231
H61	H	-0.454244	-0.351473	-0.046240
H62	H	-1.058635	0.033426	0.000002
C63	C	-0.549506	-0.066437	0.000017
H64	H	-0.475590	-0.070051	0.000016
H65	H	-0.572365	-0.039981	0.046250
H66	H	-0.572365	-0.039987	-0.046221
C67	C	-0.724187	-0.012184	0.000005
H68	H	-0.650270	-0.015793	-0.000001
H69	H	-0.747044	0.014279	0.046234
H70	H	-0.747054	0.014257	-0.046237
C71	C	-0.951202	-0.031490	0.000007
H72	H	-1.021532	-0.047370	0.000010
H73	H	-0.938633	-0.002031	-0.046225
H74	H	-0.938628	-0.002019	0.046245
H75	H	-1.095969	-0.275943	0.634319
C76	C	-1.424920	0.196832	0.000022
H77	H	-1.481927	0.163280	0.000037
H78	H	-1.428190	0.227763	-0.046209
H79	H	-1.428156	0.227773	0.046261
C80	C	-1.428553	0.030796	0.000023
H81	H	-1.484034	0.066986	0.000016
H82	H	-1.433150	0.000049	0.046255
H83	H	-1.433160	0.000038	-0.046215
H84	H	-1.392617	0.439406	0.000012
C85	C	-1.075775	-0.289173	0.377633
H86	H	-1.085900	-0.282545	0.433309
H87	H	-1.006626	-0.275938	0.363972
H88	H	-1.086906	-0.340495	0.363943
H89	H	-1.389480	0.582857	0.000007
H90	H	-1.352183	-0.107789	0.634304
C91	C	-1.075820	-0.289190	0.797642
H92	H	-1.085951	-0.282560	0.853317
H93	H	-1.006672	-0.275949	0.783983
H94	H	-1.086942	-0.340514	0.783954
C95	C	-1.372373	-0.094547	0.797623
H96	H	-1.362263	-0.101178	0.853299
H97	H	-1.441517	-0.107784	0.783934
H98	H	-1.361241	-0.043224	0.783954
C99	C	-1.019565	0.585487	-0.000018
H100	H	-0.964078	0.549301	-0.000032
H101	H	-1.014949	0.616247	0.046213
H102	H	-1.014986	0.616233	-0.046257
H103	H	-1.095923	-0.275923	0.214314
H104	H	-1.055505	0.176878	-0.000005
C105	C	-1.023192	0.419449	0.000000
H106	H	-0.966188	0.453004	0.000009
H107	H	-1.019937	0.388504	-0.046230
H108	H	-1.019937	0.388522	0.046240
C109	C	-1.372308	-0.094526	0.202383
H110	H	-1.414354	-0.066922	0.239186
H111	H	-1.415376	-0.124873	0.169816
H112	H	-1.335096	-0.060316	0.169844
H113	H	-1.352149	-0.107772	0.365700
