data_functionalizedCrystal
_audit_creation_method	'MofGen! by Chris Wilmer'
_symmetry_space_group_name_H-M	'P1'
_symmetry_Int_Tables_number	1
_symmetry_cell_setting	triclinic
loop_
_symmetry_equiv_pos_as_xyz
  x,y,z
_cell_length_a	20.299480
_cell_length_b	20.298645
_cell_length_c	20.294903
_cell_angle_alpha	60.007695
_cell_angle_beta	60.015306
_cell_angle_gamma	59.991039
loop_
_atom_site_label
_atom_site_type_symbol
_atom_site_fract_x
_atom_site_fract_y
_atom_site_fract_z
O1	O	0.091305	-0.962534	0.804873
O2	O	0.034397	-0.749399	0.648508
O3	O	0.169355	-0.884263	0.648401
O4	O	-0.043654	-0.827670	0.804979
O5	O	0.214132	-0.839502	0.693072
O6	O	0.079173	-0.704639	0.693178
O7	O	0.136081	-0.917774	0.849544
Zn8	Zn	0.114736	-0.804099	0.778453
Zn9	Zn	0.055742	-0.863073	0.719598
O10	O	0.001122	-0.782910	0.849650
N11	N	0.155000	-0.763857	0.818624
N12	N	0.015485	-0.903322	0.679427
C13	C	0.179343	-0.615641	0.842971
C14	C	0.179443	-0.739552	0.966834
C15	C	0.303264	-0.739536	0.842917
C16	C	0.179356	-0.739528	0.842952
C17	C	0.210353	-0.708565	0.873918
C18	C	-0.132622	-0.927446	0.654695
C19	C	-0.008595	-0.927622	0.530981
C20	C	-0.008820	-1.051459	0.654914
C21	C	-0.008800	-0.927618	0.654995
C22	C	-0.039709	-0.958538	0.623897
N23	N	0.376268	-0.763873	0.818558
O24	O	0.652281	-0.777347	0.619856
O25	O	0.652556	-0.934198	0.832777
O26	O	0.652445	-0.933836	0.697731
O27	O	0.652392	-0.777709	0.754902
O28	O	0.518259	-0.889182	0.742556
O29	O	0.518369	-0.889544	0.877602
O30	O	0.518095	-0.732693	0.664680
Zn31	Zn	0.496927	-0.804029	0.778258
Zn32	Zn	0.673724	-0.862862	0.719200
O33	O	0.518205	-0.733055	0.799726
N34	N	0.794383	-0.903019	0.678891
N35	N	0.154981	-0.542636	0.818657
O36	O	-0.043628	-0.266455	0.805024
O37	O	0.169291	-0.266451	0.648191
O38	O	0.034217	-0.266468	0.648577
O39	O	0.091446	-0.266438	0.804638
O40	O	0.078998	-0.400670	0.693303
O41	O	0.214071	-0.400653	0.692918
O42	O	0.001152	-0.400657	0.849750
Zn43	Zn	0.114722	-0.421963	0.778435
Zn44	Zn	0.055722	-0.245145	0.719506
O45	O	0.136226	-0.400640	0.849364
N46	N	0.015453	-0.124472	0.679286
N47	N	0.155155	-0.763898	1.039838
O48	O	0.141555	-0.962488	1.315987
O49	O	-0.015254	-0.749480	1.316022
O50	O	-0.014890	-0.884527	1.315962
O51	O	0.141192	-0.827441	1.316047
O52	O	0.029815	-0.839777	1.181768
O53	O	0.029452	-0.704730	1.181828
O54	O	0.186261	-0.917739	1.181793
Zn55	Zn	0.114954	-0.804130	1.160504
Zn56	Zn	0.056053	-0.863089	1.337311
O57	O	0.185897	-0.782692	1.181853
N58	N	0.015850	-0.903330	1.457977
C59	C	0.051451	-0.700162	0.649301
C60	C	0.218580	-0.867175	0.649169
C61	C	0.119026	-0.967011	0.848750
C62	C	-0.048103	-0.799998	0.848882
C63	C	0.585495	-0.933471	0.882014
C64	C	0.585361	-0.933023	0.714775
C65	C	0.585151	-0.733419	0.615444
C66	C	0.585291	-0.733869	0.782682
C67	C	0.218449	-0.333386	0.648902
C68	C	0.051232	-0.333573	0.649435
C69	C	-0.048061	-0.333556	0.848984
C70	C	0.119212	-0.333537	0.848507
C71	C	-0.014496	-0.700269	1.248929
C72	C	-0.014037	-0.867500	1.248828
C73	C	0.185503	-0.966949	1.248886
C74	C	0.185054	-0.799709	1.248957
H75	H	0.279759	-0.879241	0.599998
H76	H	0.234736	-1.028122	1.248866
H77	H	-0.063726	-0.639093	1.248939
O78	O	0.585696	-0.992318	0.954897
C79	C	0.655386	-1.126860	1.026885
C80	C	0.655247	-1.060293	0.944293
H81	H	0.711621	-1.181828	1.018342
H82	H	0.599299	-1.144562	1.055895
H83	H	0.655364	-1.103443	1.067572
H84	H	0.655298	-1.083654	0.903544
H85	H	0.711329	-1.042601	0.915348
O86	O	0.036506	-0.333641	0.591050
C87	C	-0.059386	-0.333662	0.554173
C88	C	-0.042816	-0.333587	0.620365
H89	H	-0.123522	-0.333601	0.577844
H90	H	-0.014760	-0.389852	0.536563
H91	H	-0.052154	-0.277524	0.499081
H92	H	-0.050058	-0.389687	0.675500
H93	H	-0.087439	-0.277361	0.637907
O94	O	0.133643	-1.040107	0.907240
C95	C	0.229403	-1.172935	0.944374
C96	C	0.212951	-1.090197	0.878058
H97	H	0.293528	-1.213450	0.920811
H98	H	0.184745	-1.202063	0.962015
H99	H	0.222128	-1.164521	0.999421
H100	H	0.220237	-1.098541	0.822969
H101	H	0.257607	-1.061097	0.860486
O102	O	0.133744	-0.333391	0.906978
C103	C	0.094962	-0.263891	0.995027
C104	C	0.078425	-0.263943	0.928801
H105	H	0.050235	-0.207757	1.012703
H106	H	0.159050	-0.263836	0.971380
H107	H	0.087809	-0.320081	1.050072
H108	H	0.085533	-0.207763	0.873734
H109	H	0.014343	-0.264040	0.952513
H110	H	-0.109209	-0.333558	0.898221
O111	O	0.585415	-0.675378	0.797186
C112	C	0.654837	-0.587272	0.758332
C113	C	0.654804	-0.653521	0.741830
H114	H	0.710923	-0.569569	0.713576
H115	H	0.654960	-0.610914	0.822412
H116	H	0.598612	-0.532242	0.751191
H117	H	0.711019	-0.708573	0.748926
H118	H	0.654639	-0.629814	0.677756
O119	O	0.037099	-0.627158	0.590630
C120	C	0.089994	-0.544220	0.454614
C121	C	0.106362	-0.626925	0.520992
H122	H	0.145976	-0.544010	0.398291
H123	H	0.074704	-0.494971	0.476840
H124	H	0.037154	-0.532468	0.439556
H125	H	0.159211	-0.638755	0.536081
H126	H	0.121605	-0.676129	0.498731
O127	O	-0.121121	-0.785467	0.907468
C128	C	-0.254003	-0.689867	0.944756
C129	C	-0.171344	-0.706210	0.878342
H130	H	-0.294638	-0.625794	0.921226
H131	H	-0.245593	-0.697090	0.999783
H132	H	-0.282993	-0.734648	0.962411
H133	H	-0.142309	-0.661443	0.860618
H134	H	-0.179807	-0.699015	0.823358
O135	O	0.291277	-0.332901	0.590087
C136	C	0.423989	-0.332276	0.552352
C137	C	0.341543	-0.332807	0.619024
H138	H	0.464658	-0.332217	0.575729
H139	H	0.415212	-0.275978	0.497499
H140	H	0.453154	-0.388303	0.534484
H141	H	0.312334	-0.276818	0.636960
H142	H	0.350373	-0.389142	0.673833
O143	O	-0.072413	-0.882158	1.248694
C144	C	-0.109293	-0.977983	1.248585
C145	C	-0.043105	-0.961485	1.248718
H146	H	-0.085628	-1.042123	1.248622
H147	H	-0.126891	-0.933338	1.192390
H148	H	-0.164387	-0.970714	1.304710
H149	H	0.012032	-0.968764	1.192632
H150	H	-0.025575	-1.006127	1.304951
O151	O	0.585348	-0.991437	0.700063
C152	C	0.585339	-1.028360	0.604185
C153	C	0.585335	-0.962129	0.620745
H154	H	0.585346	-1.004695	0.540053
H155	H	0.529212	-1.046029	0.648828
H156	H	0.641525	-1.083417	0.611405
H157	H	0.529187	-0.907029	0.613515
H158	H	0.641500	-0.944529	0.576106
O159	O	0.585082	-0.674765	0.542442
C160	C	0.584884	-0.637222	0.409561
C161	C	0.584984	-0.703724	0.492192
H162	H	0.584787	-0.660604	0.368918
H163	H	0.641020	-0.619588	0.380501
H164	H	0.528706	-0.582212	0.418117
H165	H	0.641123	-0.758777	0.483707
H166	H	0.528810	-0.721290	0.521225
O167	O	0.243480	-0.785000	1.248939
C168	C	0.280366	-0.689169	1.249031
C169	C	0.214134	-0.705712	1.249032
H170	H	0.256658	-0.625072	1.249123
H171	H	0.335428	-0.696335	1.192856
H172	H	0.298030	-0.733884	1.305177
H173	H	0.196401	-0.661013	1.192925
H174	H	0.159116	-0.698574	1.305244
