data_functionalizedCrystal
_audit_creation_method	'MofGen! by Chris Wilmer'
_symmetry_space_group_name_H-M	'P1'
_symmetry_Int_Tables_number	1
_symmetry_cell_setting	triclinic
loop_
_symmetry_equiv_pos_as_xyz
  x,y,z
_cell_length_a	18.215407
_cell_length_b	12.645330
_cell_length_c	18.215399
_cell_angle_alpha	90.022131
_cell_angle_beta	89.982632
_cell_angle_gamma	89.976370
loop_
_atom_site_label
_atom_site_type_symbol
_atom_site_fract_x
_atom_site_fract_y
_atom_site_fract_z
Zn1	Zn	1.125065	0.422123	-0.416097
Zn2	Zn	1.124971	0.599405	-0.293043
Zn3	Zn	1.001998	0.422148	-0.293050
Zn4	Zn	1.001961	0.599337	-0.416074
O5	O	1.063499	0.510753	-0.354566
O6	O	1.228037	0.445657	-0.399781
O7	O	1.108634	0.575931	-0.190060
O8	O	1.018378	0.273797	-0.309385
O9	O	1.227968	0.575906	-0.309374
O10	O	1.108795	0.273779	-0.399787
O11	O	1.018286	0.445701	-0.190065
O12	O	0.899009	0.445634	-0.309362
O13	O	1.018315	0.575790	-0.519061
O14	O	0.898982	0.575814	-0.399747
O15	O	1.108759	0.445591	-0.519078
O16	O	1.108598	0.747743	-0.309351
O17	O	1.018224	0.747693	-0.399741
C18	C	0.872292	0.510720	-0.354553
C19	C	0.790494	0.510732	-0.354565
C20	C	0.602335	0.443051	-0.401714
C21	C	0.525476	0.443060	-0.401717
C22	C	0.525415	0.578485	-0.307431
C23	C	0.602272	0.578469	-0.307425
C24	C	0.640730	0.510754	-0.354571
C25	C	0.487014	0.510779	-0.354579
C26	C	0.403680	0.510789	-0.354581
C27	C	0.724069	0.510742	-0.354568
C28	C	1.063417	0.786183	-0.354559
C29	C	1.063449	0.904013	-0.354580
C30	C	1.006811	1.071589	-0.411622
C31	C	1.006534	0.949030	-0.411437
C32	C	1.042451	0.948602	-0.277023
C33	C	1.042093	1.071200	-0.277371
C34	C	1.141391	1.071108	-0.374471
C35	C	1.140926	0.948501	-0.376166
C36	C	1.255452	0.510786	-0.354579
C37	C	1.337250	0.510801	-0.354585
C38	C	1.063575	1.234248	-0.354592
C39	C	1.063542	1.116418	-0.354610
C40	C	1.063544	0.510680	-0.546519
C41	C	1.063563	0.510649	-0.628318
C42	C	1.110674	0.442791	-0.816522
C43	C	1.110683	0.442760	-0.893381
C44	C	1.016503	0.578342	-0.893352
C45	C	1.016492	0.578367	-0.816494
C46	C	1.063581	0.510593	-0.778082
C47	C	1.063602	0.510537	-0.931798
C48	C	1.063611	0.510504	-1.015131
C49	C	1.063571	0.510624	-0.694743
C50	C	1.063496	0.510749	-0.163360
C51	C	1.063620	0.510482	-0.081561
H52	H	0.494218	0.387928	-0.440105
H53	H	0.978138	0.633579	-0.785195
H54	H	1.149029	0.387547	-0.924676
F55	F	1.160789	0.370657	-0.775643
H56	H	0.494093	0.633617	-0.269047
H57	H	1.160539	1.101956	-0.430065
H58	H	0.986143	0.917986	-0.259893
H59	H	0.978167	0.633524	-0.924637
F60	F	0.643138	0.650523	-0.257240
F61	F	1.023704	0.909618	-0.486605
H62	H	0.985185	1.099887	-0.260545
F63	F	1.023813	1.110039	-0.487038
H64	H	0.949458	1.102486	-0.398632
F65	F	1.094754	0.910493	-0.219981
F66	F	0.931105	0.910807	-0.394241
H67	H	1.081621	1.100858	-0.233444
F68	F	1.161625	0.910406	-0.450771
F69	F	0.643262	0.370980	-0.451889
F70	F	1.199094	0.908434	-0.325847
H71	H	1.183657	1.100097	-0.332947
