data_functionalizedCrystal
_audit_creation_method	'MofGen! by Chris Wilmer'
_symmetry_space_group_name_H-M	'P1'
_symmetry_Int_Tables_number	1
_symmetry_cell_setting	triclinic
loop_
_symmetry_equiv_pos_as_xyz
  x,y,z
_cell_length_a	21.295418
_cell_length_b	21.295417
_cell_length_c	21.295411
_cell_angle_alpha	89.978356
_cell_angle_beta	89.956262
_cell_angle_gamma	90.046319
loop_
_atom_site_label
_atom_site_type_symbol
_atom_site_fract_x
_atom_site_fract_y
_atom_site_fract_z
Zn1	Zn	0.962356	-0.250415	-0.356234
Zn2	Zn	1.462356	0.249585	0.143766
Zn3	Zn	0.962258	-0.355667	-0.250959
Zn4	Zn	1.462258	0.144333	0.249041
Zn5	Zn	0.857079	-0.250445	-0.250943
Zn6	Zn	1.357079	0.249555	0.249057
Zn7	Zn	0.857048	-0.355680	-0.356155
Zn8	Zn	1.357048	0.144320	0.143845
O9	O	0.909685	-0.303052	-0.303573
O10	O	1.409685	0.196948	0.196427
O11	O	1.050432	-0.264360	-0.342308
O12	O	1.550432	0.235640	0.157692
O13	O	0.948278	-0.341716	-0.162867
O14	O	1.448278	0.158284	0.337133
O15	O	0.871098	-0.162351	-0.264937
O16	O	1.371098	0.337649	0.235063
O17	O	1.050361	-0.341688	-0.264963
O18	O	1.550361	0.158312	0.235037
O19	O	0.948444	-0.162330	-0.342293
O20	O	1.448444	0.337670	0.157707
O21	O	0.871003	-0.264410	-0.162856
O22	O	1.371003	0.235590	0.337144
O23	O	0.768985	-0.264422	-0.264861
O24	O	1.268985	0.235578	0.235139
O25	O	0.871046	-0.341709	-0.444255
O26	O	1.371046	0.158291	0.055745
O27	O	0.768963	-0.341738	-0.342160
O28	O	1.268963	0.158262	0.157840
O29	O	0.948415	-0.264372	-0.444313
O30	O	1.448415	0.235628	0.055687
O31	O	0.948248	-0.443758	-0.264887
O32	O	1.448248	0.056242	0.235113
O33	O	0.870951	-0.443767	-0.342175
O34	O	1.370951	0.056233	0.157825
C35	C	0.746134	-0.303085	-0.303500
C36	C	1.246134	0.196915	0.196500
C37	C	0.676166	-0.303114	-0.303484
C38	C	1.176166	0.196886	0.196516
C39	C	0.909603	-0.466603	-0.303538
C40	C	1.409603	0.033397	0.196462
C41	C	0.909625	-0.536571	-0.303544
C42	C	1.409625	-0.036571	0.196456
C43	C	0.643304	-0.343426	-0.343674
C44	C	1.143304	0.156574	0.156326
C45	C	0.577561	-0.343410	-0.343702
C46	C	1.077561	0.156590	0.156298
C47	C	0.544683	-0.303090	-0.303530
C48	C	1.044683	0.196910	0.196470
C49	C	0.577553	-0.262770	-0.263337
C50	C	1.077553	0.237230	0.236663
C51	C	0.643294	-0.262783	-0.263315
C52	C	1.143294	0.237217	0.236685
N53	N	0.441407	-0.298163	-0.248472
N54	N	0.941407	0.201837	0.251528
N55	N	0.378956	-0.298155	-0.248495
N56	N	0.878956	0.201845	0.251505
C57	C	0.346608	-0.303050	-0.303596
C58	C	0.846608	0.196950	0.196404
N59	N	0.379072	-0.307965	-0.358675
N60	N	0.879072	0.192035	0.141325
N61	N	0.441529	-0.307976	-0.358650
N62	N	0.941529	0.192024	0.141350
C63	C	0.473398	-0.303072	-0.303550
C64	C	0.973398	0.196928	0.196450
C65	C	0.242461	-0.343346	-0.343820
C66	C	0.742461	0.156654	0.156180
C67	C	0.176717	-0.343326	-0.343849
C68	C	0.676717	0.156674	0.156151
C69	C	0.176710	-0.262690	-0.263479
C70	C	0.676710	0.237310	0.236521
C71	C	0.242453	-0.262707	-0.263455
C72	C	0.742453	0.237293	0.236545
C73	C	0.275324	-0.303038	-0.303625
C74	C	0.775324	0.196962	0.196375
C75	C	0.949910	-0.569412	-0.263342
C76	C	1.449910	-0.069412	0.236658
C77	C	0.949939	-0.635155	-0.263356
C78	C	1.449939	-0.135155	0.236644
C79	C	0.909673	-0.668054	-0.303566
C80	C	1.409673	-0.168054	0.196434
C81	C	0.869386	-0.635205	-0.343776
C82	C	1.369386	-0.135205	0.156224
C83	C	0.869362	-0.569464	-0.343765
C84	C	1.369362	-0.069464	0.156235
N85	N	0.854606	-0.771336	-0.308340
N86	N	1.354606	-0.271336	0.191660
N87	N	0.854630	-0.833787	-0.308347
N88	N	1.354630	-0.333787	0.191653
C89	C	0.909743	-0.866129	-0.303602
C90	C	1.409743	-0.366129	0.196398
N91	N	0.964832	-0.833659	-0.298838
N92	N	1.464832	-0.333659	0.201162
N93	N	0.964807	-0.771202	-0.298828
N94	N	1.464807	-0.271202	0.201172
C95	C	0.909695	-0.739339	-0.303582
C96	C	1.409695	-0.239339	0.196418
C97	C	0.950063	-0.970255	-0.263413
C98	C	1.450063	-0.470255	0.236587
C99	C	0.950094	-1.035999	-0.263431
C100	C	1.450094	-0.535999	0.236569
C101	C	0.869535	-1.036048	-0.343848
C102	C	1.369535	-0.536048	0.156152
C103	C	0.869510	-0.970305	-0.343833
C104	C	1.369510	-0.470305	0.156167
C105	C	0.909773	-0.937413	-0.303612
C106	C	1.409773	-0.437413	0.196388
C107	C	1.073876	-0.303019	-0.303646
C108	C	1.573876	0.196981	0.196354
C109	C	1.143844	-0.303005	-0.303677
C110	C	1.643844	0.196995	0.196323
C111	C	0.909738	-0.303038	-0.467763
C112	C	1.409738	0.196962	0.032237
C113	C	0.909760	-0.303033	-0.537731
C114	C	1.409760	0.196967	-0.037731
C115	C	0.909785	-0.138861	-0.303622
C116	C	1.409785	0.361139	0.196378
C117	C	0.909828	-0.068893	-0.303642
C118	C	1.409828	0.431107	0.196358
C119	C	0.950044	-0.262761	-0.570629
C120	C	1.450044	0.237239	-0.070629
C121	C	0.950043	-0.262734	-0.636371
C122	C	1.450043	0.237266	-0.136371
C123	C	0.909765	-0.302989	-0.669214
C124	C	1.409765	0.197011	-0.169214
C125	C	0.869473	-0.343263	-0.636308
C126	C	1.369473	0.156737	-0.136308
C127	C	0.869470	-0.343285	-0.570567
C128	C	1.369470	0.156715	-0.070567
N129	N	0.904908	-0.358058	-0.772428
N130	N	1.404908	0.141942	-0.272428
N131	N	0.904914	-0.358036	-0.834879
N132	N	1.404914	0.141964	-0.334879
C133	C	0.909769	-0.302926	-0.867289
C134	C	1.409769	0.197074	-0.367289
N135	N	0.914629	-0.247837	-0.834888
N136	N	1.414629	0.252163	-0.334888
N137	N	0.914627	-0.247860	-0.772430
N138	N	1.414627	0.252140	-0.272430
C139	C	0.909763	-0.302970	-0.740499
C140	C	1.409763	0.197030	-0.240499
C141	C	0.950054	-0.262621	-0.971472
C142	C	1.450054	0.237379	-0.471472
C143	C	0.950049	-0.262593	-1.037216
C144	C	1.450049	0.237407	-0.537216
C145	C	0.869482	-0.343128	-1.037151
C146	C	1.369482	0.156872	-0.537151
C147	C	0.869484	-0.343151	-0.971409
C148	C	1.369484	0.156849	-0.471409
C149	C	0.909773	-0.302898	-0.938573
C150	C	1.409773	0.197102	-0.438573
C151	C	0.909670	-0.303019	-0.140021
C152	C	1.409670	0.196981	0.359979
C153	C	0.909769	-0.302848	-0.070054
C154	C	1.409769	0.197152	0.429946
H155	H	0.550800	-0.376236	-0.376431
H156	H	1.050800	0.123764	0.123569
H157	H	0.982846	-0.229937	-0.663162
H158	H	1.482846	0.270063	-0.163162
H159	H	0.982852	-0.229795	-1.064000
H160	H	1.482852	0.270205	-0.564000
H161	H	0.836602	-0.661996	-0.376516
H162	H	1.336602	-0.161996	0.123484
H163	H	0.550779	-0.229940	-0.230630
H164	H	1.050779	0.270060	0.269370
C165	C	0.994249	-0.671288	-0.219127
C166	C	1.494249	-0.171288	0.280873
H167	H	1.018221	-0.642282	-0.195169
H168	H	1.518221	-0.142282	0.304831
H169	H	1.021675	-0.696892	-0.243240
H170	H	1.521675	-0.196892	0.256760
H171	H	0.970180	-0.696973	-0.191675
H172	H	1.470180	-0.196973	0.308325
C173	C	0.825170	-0.387546	-0.672432
C174	C	1.325170	0.112454	-0.172432
H175	H	0.830946	-0.381771	-0.716298
H176	H	1.330946	0.118229	-0.216298
H177	H	0.782880	-0.378347	-0.661631
H178	H	1.282880	0.121653	-0.161631
H179	H	0.834362	-0.429844	-0.661660
H180	H	1.334362	0.070156	-0.161660
H181	H	0.982850	-0.943473	-0.230664
H182	H	1.482850	-0.443473	0.269336
H183	H	0.836557	-0.542724	-0.376503
H184	H	1.336557	-0.042724	0.123497
H185	H	0.982902	-1.062737	-0.230695
H186	H	1.482902	-0.562737	0.269305
C187	C	0.679447	-0.218441	-0.219104
C188	C	1.179447	0.281559	0.280896
H189	H	0.723308	-0.224222	-0.224846
H190	H	1.223308	0.275778	0.275154
H191	H	0.668616	-0.227586	-0.176795
H192	H	1.168616	0.272414	0.323205
H193	H	0.668727	-0.176155	-0.228405
H194	H	1.168727	0.323845	0.271595
H195	H	0.836752	-1.062833	-0.376591
H196	H	1.336752	-0.562833	0.123409
H197	H	0.269226	-0.376183	-0.376531
H198	H	0.769226	0.123817	0.123469
C199	C	0.825180	-0.387412	-1.073270
C200	C	1.325180	0.112588	-0.573270
H201	H	0.830954	-0.381636	-1.117136
H202	H	1.330954	0.118364	-0.617136
H203	H	0.782889	-0.378217	-1.062467
H204	H	1.282889	0.121783	-0.562467
H205	H	0.834376	-0.429710	-1.062499
H206	H	1.334376	0.070290	-0.562499
H207	H	0.836683	-0.375948	-0.944623
H208	H	1.336683	0.124052	-0.444623
H209	H	0.982850	-0.229984	-0.543898
H210	H	1.482850	0.270016	-0.043898
C211	C	0.140569	-0.387680	-0.388051
C212	C	0.640569	0.112320	0.111949
H213	H	0.169564	-0.411707	-0.411962
H214	H	0.669564	0.088293	0.088038
H215	H	0.114974	-0.363647	-0.415538
H216	H	0.614974	0.136353	0.084462
H217	H	0.114873	-0.415064	-0.363914
H218	H	0.614873	0.084936	0.136086
C219	C	0.825193	-0.934175	-0.388050
C220	C	1.325193	-0.434175	0.111950
H221	H	0.830949	-0.890311	-0.382289
H222	H	1.330949	-0.390311	0.117711
H223	H	0.782906	-0.945003	-0.378788
H224	H	1.282906	-0.445003	0.121212
H225	H	0.834394	-0.944916	-0.430361
H226	H	1.334394	-0.444916	0.069639
C227	C	0.278606	-0.218369	-0.219243
C228	C	0.778606	0.281631	0.280757
H229	H	0.322467	-0.224147	-0.224986
H230	H	0.822467	0.275853	0.275014
H231	H	0.267776	-0.227515	-0.176934
H232	H	0.767776	0.272485	0.323066
H233	H	0.267884	-0.176083	-0.228543
H234	H	0.767884	0.323917	0.271457
H235	H	0.836663	-0.376078	-0.543782
H236	H	1.336663	0.123922	-0.043782
H237	H	0.982857	-0.229842	-0.944736
H238	H	1.482857	0.270158	-0.444736
H239	H	0.670063	-0.376266	-0.376384
H240	H	1.170063	0.123734	0.123616
C241	C	0.994183	-0.533231	-0.219089
C242	C	1.494183	-0.033231	0.280911
H243	H	0.988392	-0.489374	-0.224830
H244	H	1.488392	0.010626	0.275170
H245	H	1.036483	-0.543943	-0.228337
H246	H	1.536483	-0.043943	0.271663
H247	H	0.984972	-0.544048	-0.176788
H248	H	1.484972	-0.044048	0.323212
C249	C	0.140552	-0.218330	-0.219298
C250	C	0.640552	0.281670	0.280702
H251	H	0.096692	-0.224096	-0.225067
H252	H	0.596692	0.275904	0.274933
H253	H	0.151384	-0.176054	-0.228591
H254	H	0.651384	0.323946	0.271409
H255	H	0.151266	-0.227481	-0.176977
H256	H	0.651266	0.272519	0.323023
