data_functionalizedCrystal
_audit_creation_method	'MofGen! by Chris Wilmer'
_symmetry_space_group_name_H-M	'P1'
_symmetry_Int_Tables_number	1
_symmetry_cell_setting	triclinic
loop_
_symmetry_equiv_pos_as_xyz
  x,y,z
_cell_length_a	15.625691
_cell_length_b	16.109301
_cell_length_c	14.586319
_cell_angle_alpha	89.998857
_cell_angle_beta	71.926046
_cell_angle_gamma	96.130916
loop_
_atom_site_label
_atom_site_type_symbol
_atom_site_fract_x
_atom_site_fract_y
_atom_site_fract_z
O1	O	-0.115873	1.103295	-0.037672
O2	O	-0.130293	0.861254	-0.032891
O3	O	0.008148	0.988738	-0.078898
O4	O	-0.254313	0.975811	0.008336
O5	O	0.008150	0.988729	0.073582
O6	O	-0.130291	0.861245	0.119589
O7	O	-0.115871	1.103286	0.114808
Cu8	Cu	-0.123081	0.982265	0.131121
Cu9	Cu	-0.123083	0.982275	-0.049204
O10	O	-0.254311	0.975802	0.160816
C11	C	-0.129708	0.830274	0.043153
C12	C	-0.127956	0.737976	0.042566
C13	C	-0.204379	0.429086	0.067983
C14	C	-0.206033	0.515809	0.068527
C15	C	-0.041778	0.535449	0.013922
C16	C	-0.040125	0.448728	0.013371
C17	C	-0.121428	0.395548	0.040407
C18	C	-0.124735	0.568992	0.041502
C19	C	-0.126528	0.663020	0.042092
C20	C	-0.119636	0.301514	0.039815
C21	C	-0.287897	0.976393	0.095738
C22	C	-0.387971	0.978150	0.129000
C23	C	-0.717164	0.983931	-0.177114
C24	C	-0.811199	0.985572	-0.145824
C25	C	-0.811163	0.985562	0.020392
C26	C	-0.717126	0.983916	-0.010884
C27	C	-0.670134	0.983102	-0.109638
C28	C	-0.670096	0.983087	0.056592
C29	C	-0.576067	0.981447	0.025318
C30	C	-0.529068	0.980634	-0.073432
C31	C	-0.576105	0.981461	-0.140912
C32	C	-0.717089	0.983908	0.155346
C33	C	-0.670059	0.983079	0.222822
C34	C	-0.576029	0.981432	0.191548
C35	C	-0.529030	0.980620	0.092798
C36	C	-0.528992	0.980606	0.259028
C37	C	-0.434963	0.978965	0.227754
C38	C	-0.435001	0.978979	0.061524
C39	C	0.041734	0.988147	-0.013823
C40	C	0.141807	0.986390	-0.047091
C41	C	-0.116456	1.134266	0.038762
C42	C	-0.118207	1.226564	0.039343
N43	N	-0.123078	0.982263	0.257952
N44	N	-0.123078	0.982283	-0.176037
C45	C	-0.061798	1.038732	0.472594
C46	C	-0.061795	1.038735	0.568574
C47	C	-0.184362	0.925808	0.609316
C48	C	-0.184359	0.925803	0.513335
C49	C	-0.123078	0.982269	0.444977
C50	C	-0.123079	0.982277	0.636938
C51	C	-0.123077	0.982280	0.741005
C52	C	-0.123078	0.982266	0.340903
H53	H	0.027427	0.421422	-0.009089
C54	C	-0.383297	0.978076	-0.047106
C55	C	-0.385982	1.050439	-0.114788
C56	C	-0.334275	1.049536	-0.223412
C57	C	-0.279884	0.976269	-0.264355
C58	C	-0.277197	0.903900	-0.196672
C59	C	-0.328903	0.904804	-0.088048
H60	H	-0.426247	1.104681	-0.084481
H61	H	-0.336265	1.103109	-0.273515
H62	H	-0.241608	0.975600	-0.344765
H63	H	-0.236931	0.849659	-0.226979
H64	H	-0.326914	0.851231	-0.037945
H65	H	-0.537843	0.980783	-0.221327
H66	H	-0.452503	0.979301	-0.098894
C67	C	0.005617	1.100837	0.397397
C68	C	0.074570	1.068268	0.308502
C69	C	0.141989	1.130373	0.233308
C70	C	0.140454	1.225047	0.247009
C71	C	0.071498	1.257621	0.335908
C72	C	0.004079	1.195516	0.411103
H73	H	0.075709	0.998181	0.298356
H74	H	0.193035	1.106260	0.167498
H75	H	0.190362	1.271021	0.191346
H76	H	0.070360	1.327709	0.346054
H77	H	-0.046967	1.219630	0.476912
H78	H	-0.011894	1.084711	0.591055
H79	H	-0.567266	0.981277	0.339434
H80	H	-0.234257	0.879836	0.664982
C81	C	-0.665460	0.983028	-0.285745
C82	C	-0.668145	1.055391	-0.353426
C83	C	-0.616438	1.054488	-0.462051
C84	C	-0.562047	0.981221	-0.502993
C85	C	-0.559360	0.908852	-0.435310
C86	C	-0.611067	0.909755	-0.326686
H87	H	-0.708410	1.109632	-0.323119
H88	H	-0.618428	1.108060	-0.512153
H89	H	-0.523771	0.980552	-0.583403
H90	H	-0.519095	0.854611	-0.465617
H91	H	-0.609077	0.856183	-0.276583
C92	C	-0.721757	0.983972	0.331448
C93	C	-0.796643	0.912959	0.379201
C94	C	-0.848340	0.913848	0.487829
C95	C	-0.825151	0.985751	0.548703
C96	C	-0.750261	1.056769	0.500950
C97	C	-0.698564	1.055879	0.392322
H98	H	-0.813812	0.859728	0.334138
H99	H	-0.903779	0.861275	0.523178
H100	H	-0.863421	0.986409	0.629116
H101	H	-0.733092	1.110000	0.546013
H102	H	-0.643126	1.108452	0.356973
C103	C	-0.862931	0.986480	-0.220058
C104	C	-0.937826	0.915474	-0.218022
C105	C	-0.989556	0.916385	-0.292255
C106	C	-0.966389	0.988303	-0.368524
C107	C	-0.891490	1.059314	-0.370564
C108	C	-0.839761	1.058403	-0.296331
H109	H	-0.954979	0.862231	-0.161560
H110	H	-1.045001	0.863817	-0.290744
H111	H	-1.004683	0.988977	-0.423476
H112	H	-0.874338	1.112557	-0.427026
H113	H	-0.784315	1.110971	-0.297841
C114	C	-0.251772	0.863690	0.482950
C115	C	-0.319214	0.801610	0.558147
C116	C	-0.386620	0.739498	0.527758
C117	C	-0.386586	0.739468	0.422173
C118	C	-0.319142	0.801551	0.346970
C119	C	-0.251735	0.863662	0.377358
H120	H	-0.319242	0.801630	0.636313
H121	H	-0.436547	0.693540	0.583430
H122	H	-0.436484	0.693489	0.399678
H123	H	-0.319114	0.801530	0.268803
H124	H	-0.201809	0.909620	0.321687
C125	C	-0.293810	0.370588	0.097710
C126	C	-0.385054	0.407483	0.128036
C127	C	-0.474488	0.348988	0.157760
C128	C	-0.472677	0.253597	0.157159
C129	C	-0.381429	0.216697	0.126832
C130	C	-0.291996	0.275192	0.097107
H131	H	-0.386397	0.478102	0.128482
H132	H	-0.542035	0.376304	0.180211
H133	H	-0.538881	0.210295	0.179163
H134	H	-0.380086	0.146078	0.126385
H135	H	-0.224448	0.247876	0.074657
C136	C	-0.383215	0.978030	0.301966
C137	C	-0.406371	0.906095	0.378213
C138	C	-0.354618	0.905155	0.452422
C139	C	-0.279709	0.976149	0.450383
C140	C	-0.256549	1.048088	0.374133
C141	C	-0.308302	1.049029	0.299924
H142	H	-0.461826	0.853536	0.379725
H143	H	-0.371762	0.851899	0.508868
H144	H	-0.241398	0.975452	0.505317
H145	H	-0.201094	1.100647	0.372621
H146	H	-0.291157	1.102284	0.243479
C147	C	0.047653	0.593946	-0.015806
C148	C	0.115629	0.590129	-0.117582
C149	C	0.205063	0.648624	-0.147306
C150	C	0.226520	0.710937	-0.075255
C151	C	0.158543	0.714757	0.026527
C152	C	0.069109	0.656262	0.056252
H153	H	0.099746	0.543999	-0.170924
H154	H	0.255384	0.645796	-0.222653
H155	H	0.292725	0.754238	-0.097259
H156	H	0.174425	0.760887	0.079870
H157	H	0.018787	0.659090	0.131598
C158	C	-0.297282	0.552698	0.098866
C159	C	-0.364795	0.532673	0.200495
C160	C	-0.456049	0.569560	0.230834
C161	C	-0.479788	0.626474	0.159546
C162	C	-0.412273	0.646502	0.057911
C163	C	-0.321020	0.609614	0.027571
H164	H	-0.347224	0.490540	0.253273
H165	H	-0.506028	0.554734	0.306071
H166	H	-0.547340	0.653780	0.182005
H167	H	-0.429845	0.688635	0.005133
H168	H	-0.271040	0.624441	-0.047666
H169	H	-0.849436	0.986228	0.100798
H170	H	-0.793653	0.985247	0.180806
