data_functionalizedCrystal
_audit_creation_method	'MofGen! by Chris Wilmer'
_symmetry_space_group_name_H-M	'P1'
_symmetry_Int_Tables_number	1
_symmetry_cell_setting	triclinic
loop_
_symmetry_equiv_pos_as_xyz
  x,y,z
_cell_length_a	14.519731
_cell_length_b	14.519709
_cell_length_c	13.596369
_cell_angle_alpha	89.994278
_cell_angle_beta	89.993626
_cell_angle_gamma	96.315501
loop_
_atom_site_label
_atom_site_type_symbol
_atom_site_fract_x
_atom_site_fract_y
_atom_site_fract_z
O1	O	1.223841	-0.120986	0.081796
O2	O	1.473841	0.129014	0.331796
O3	O	1.723841	0.379014	0.581796
O4	O	1.973841	0.629014	0.831796
O5	O	0.955366	-0.135202	0.081797
O6	O	1.205366	0.114798	0.331797
O7	O	1.455366	0.364798	0.581797
O8	O	1.705366	0.614798	0.831797
O9	O	1.096722	0.006143	0.081788
O10	O	1.346722	0.256143	0.331788
O11	O	1.596722	0.506143	0.581788
O12	O	1.846722	0.756143	0.831788
O13	O	1.082485	-0.262332	0.081805
O14	O	1.332485	-0.012332	0.331805
O15	O	1.582485	0.237668	0.581805
O16	O	1.832485	0.487668	0.831805
O17	O	1.096739	0.006151	-0.081795
O18	O	1.346739	0.256151	0.168205
O19	O	1.596739	0.506151	0.418205
O20	O	1.846739	0.756151	0.668205
O21	O	0.955384	-0.135195	-0.081785
O22	O	1.205384	0.114805	0.168215
O23	O	1.455384	0.364805	0.418215
O24	O	1.705384	0.614805	0.668215
O25	O	1.223858	-0.120979	-0.081787
O26	O	1.473858	0.129021	0.168213
O27	O	1.723858	0.379021	0.418213
O28	O	1.973858	0.629021	0.668213
Zn29	Zn	1.089624	-0.128085	-0.107759
Zn30	Zn	1.339624	0.121915	0.142241
Zn31	Zn	1.589624	0.371915	0.392241
Zn32	Zn	1.839624	0.621915	0.642241
Zn33	Zn	1.089601	-0.128096	0.107769
Zn34	Zn	1.339601	0.121904	0.357769
Zn35	Zn	1.589601	0.371904	0.607769
Zn36	Zn	1.839601	0.621904	0.857769
O37	O	1.082503	-0.262325	-0.081777
O38	O	1.332503	-0.012325	0.168223
O39	O	1.582503	0.237675	0.418223
O40	O	1.832503	0.487675	0.668223
C41	C	0.921016	-0.134532	0.000006
C42	C	1.171016	0.115468	0.250006
C43	C	1.421016	0.365468	0.500006
C44	C	1.671016	0.615468	0.750006
C45	C	0.818635	-0.132536	0.000007
C46	C	1.068635	0.117464	0.250007
C47	C	1.318635	0.367464	0.500007
C48	C	1.568635	0.617464	0.750007
C49	C	0.735491	-0.130915	0.000010
C50	C	0.985491	0.119085	0.250010
C51	C	1.235491	0.369085	0.500010
C52	C	1.485491	0.619085	0.750010
C53	C	0.631182	-0.128888	0.000011
C54	C	0.881182	0.121112	0.250011
C55	C	1.131182	0.371112	0.500011
C56	C	1.381182	0.621112	0.750011
C57	C	0.548043	-0.127280	0.000010
C58	C	0.798043	0.122720	0.250010
C59	C	1.048043	0.372720	0.500010
C60	C	1.298043	0.622720	0.750010
C61	C	0.443728	-0.125253	0.000012
C62	C	0.693728	0.124747	0.250012
C63	C	0.943728	0.374747	0.500012
C64	C	1.193728	0.624747	0.750012
C65	C	1.096067	0.040507	-0.000004
C66	C	1.346067	0.290507	0.249996
C67	C	1.596067	0.540507	0.499996
C68	C	1.846067	0.790507	0.749996
C69	C	1.094079	0.142889	-0.000005
C70	C	1.344079	0.392889	0.249995
C71	C	1.594079	0.642889	0.499995
C72	C	1.844079	0.892889	0.749995
C73	C	1.258209	-0.121649	0.000006
C74	C	1.508209	0.128351	0.250006
C75	C	1.758209	0.378351	0.500006
C76	C	2.008209	0.628351	0.750006
C77	C	1.360589	-0.123645	0.000012
C78	C	1.610589	0.126355	0.250012
C79	C	1.860589	0.376355	0.500012
C80	C	2.110589	0.626355	0.750012
N81	N	1.089586	-0.128096	0.254861
N82	N	1.339586	0.121904	0.504861
N83	N	1.589586	0.371904	0.754861
N84	N	1.839586	0.621904	1.004861
C85	C	1.083157	-0.296688	0.000016
C86	C	1.333157	-0.046688	0.250016
C87	C	1.583157	0.203312	0.500016
C88	C	1.833157	0.453312	0.750016
C89	C	1.085146	-0.399070	0.000023
C90	C	1.335146	-0.149070	0.250023
C91	C	1.585146	0.100930	0.500023
C92	C	1.835146	0.350930	0.750023
C93	C	1.086759	0.517785	0.000021
C94	C	1.336759	0.767785	0.250021
C95	C	1.586759	1.017785	0.500021
C96	C	1.836759	1.267785	0.750021
C97	C	1.088792	0.413477	0.000014
C98	C	1.338792	0.663477	0.250014
C99	C	1.588792	0.913477	0.500014
C100	C	1.838792	1.163477	0.750014
C101	C	1.090419	0.330340	0.000007
C102	C	1.340419	0.580340	0.250007
C103	C	1.590419	0.830340	0.500007
C104	C	1.840419	1.080340	0.750007
C105	C	1.092452	0.226025	0.000002
C106	C	1.342452	0.476025	0.250002
C107	C	1.592452	0.726025	0.500002
C108	C	1.842452	0.976025	0.750002
N109	N	1.089646	-0.128078	-0.254851
N110	N	1.339646	0.121922	-0.004851
N111	N	1.589646	0.371922	0.245149
N112	N	1.839646	0.621922	0.495149
C113	C	1.089589	-0.128097	0.343859
C114	C	1.339589	0.121903	0.593859
C115	C	1.589589	0.371903	0.843859
C116	C	1.839589	0.621903	1.093859
C117	C	1.089602	-0.128095	0.455510
C118	C	1.339602	0.121905	0.705510
C119	C	1.589602	0.371905	0.955510
C120	C	1.839602	0.621905	1.205510
C121	C	1.089618	-0.128088	0.544500
C122	C	1.339618	0.121912	0.794500
C123	C	1.589618	0.371912	1.044500
C124	C	1.839618	0.621912	1.294500
C125	C	1.089630	-0.128085	0.656159
C126	C	1.339630	0.121915	0.906159
C127	C	1.589630	0.371915	1.156159
C128	C	1.839630	0.621915	1.406159
