data_functionalizedCrystal
_audit_creation_method	'MofGen! by Chris Wilmer'
_symmetry_space_group_name_H-M	'P1'
_symmetry_Int_Tables_number	1
_symmetry_cell_setting	triclinic
loop_
_symmetry_equiv_pos_as_xyz
  x,y,z
_cell_length_a	14.853567
_cell_length_b	14.971486
_cell_length_c	14.048226
_cell_angle_alpha	90.006640
_cell_angle_beta	90.003486
_cell_angle_gamma	83.624530
loop_
_atom_site_label
_atom_site_type_symbol
_atom_site_fract_x
_atom_site_fract_y
_atom_site_fract_z
O1	O	-1.196346	-0.116781	-0.079095
O2	O	-0.696346	0.383219	0.420905
O3	O	-0.933884	-0.130693	-0.079112
O4	O	-0.433884	0.369307	0.420888
O5	O	-1.072149	0.006462	-0.079096
O6	O	-0.572149	0.506462	0.420904
O7	O	-1.058080	-0.253936	-0.079111
O8	O	-0.558080	0.246064	0.420889
O9	O	-1.072133	0.006470	0.079225
O10	O	-0.572133	0.506470	0.579225
O11	O	-0.933867	-0.130685	0.079210
O12	O	-0.433867	0.369315	0.579210
O13	O	-1.196329	-0.116773	0.079226
O14	O	-0.696329	0.383227	0.579226
Zn15	Zn	-1.065095	-0.123728	0.104355
Zn16	Zn	-0.565095	0.376272	0.604355
Zn17	Zn	-1.065117	-0.123738	-0.104241
Zn18	Zn	-0.565117	0.376262	0.395759
O19	O	-1.058063	-0.253928	0.079210
O20	O	-0.558063	0.246072	0.579210
C21	C	-0.900287	-0.130058	0.000047
C22	C	-0.400287	0.369942	0.500047
C23	C	-0.800203	-0.128169	0.000041
C24	C	-0.300203	0.371831	0.500041
C25	C	-1.071512	0.039791	0.000064
C26	C	-0.571512	0.539791	0.500064
C27	C	-1.069626	0.139088	0.000063
C28	C	-0.569626	0.639088	0.500063
C29	C	-1.229926	-0.117408	0.000065
C30	C	-0.729926	0.382592	0.500065
C31	C	-1.330009	-0.119297	0.000065
C32	C	-0.830009	0.380703	0.500065
C33	C	-0.387686	-0.038712	0.000067
C34	C	0.112314	0.461288	0.500067
C35	C	-0.366375	-0.201655	0.000057
C36	C	0.133625	0.298345	0.500057
C37	C	-0.460408	-0.203431	0.000054
C38	C	0.039592	0.296569	0.500054
C39	C	-0.518085	-0.122846	0.000056
C40	C	-0.018085	0.377154	0.500056
C41	C	-0.481728	-0.040486	0.000061
C42	C	0.018272	0.459514	0.500061
C43	C	-0.496772	-0.285790	0.000039
C44	C	0.003228	0.214210	0.500039
C45	C	-0.590811	-0.287569	0.000035
C46	C	-0.090811	0.212431	0.500035
C47	C	-0.648490	-0.206984	0.000044
C48	C	-0.148490	0.293016	0.500044
C49	C	-0.612127	-0.124620	0.000050
C50	C	-0.112127	0.375380	0.500050
C51	C	-0.669804	-0.044035	0.000052
C52	C	-0.169804	0.455965	0.500052
C53	C	-0.633444	0.038330	0.000065
C54	C	-0.133444	0.538330	0.500065
C55	C	-0.539407	0.040100	0.000070
C56	C	-0.039407	0.540100	0.500070
C57	C	-0.742527	-0.208754	0.000039
C58	C	-0.242527	0.291246	0.500039
C59	C	-0.763847	-0.045809	0.000046
C60	C	-0.263847	0.454191	0.500046
C61	C	-1.058701	-0.287257	0.000048
C62	C	-0.558701	0.212743	0.500048
C63	C	-1.060586	-0.386554	0.000043
C64	C	-0.560586	0.113446	0.500043
N65	N	-1.065087	-0.123720	0.246715
N66	N	-0.565087	0.376280	0.746715
C67	C	-1.150854	0.196299	0.000069
C68	C	-0.650854	0.696299	0.500069
C69	C	-1.149076	0.289598	0.000059
C70	C	-0.649076	0.789598	0.500059
C71	C	-1.066071	0.325686	0.000050
C72	C	-0.566071	0.825686	0.500050
C73	C	-0.984838	0.268468	0.000042
C74	C	-0.484838	0.768468	0.500042
C75	C	-0.986616	0.175170	0.000045
C76	C	-0.486616	0.675170	0.500045
C77	C	-0.981137	0.462931	0.000038
C78	C	-0.481137	0.962931	0.500038
C79	C	-0.979359	0.556235	0.000037
C80	C	-0.479359	1.056235	0.500037
C81	C	-1.143598	0.577360	0.000052
C82	C	-0.643598	1.077360	0.500052
C83	C	-1.145376	0.484062	0.000055
C84	C	-0.645376	0.984062	0.500055
C85	C	-1.064142	0.426850	0.000049
C86	C	-0.564142	0.926850	0.500049
N87	N	-1.065133	-0.123739	-0.246601
N88	N	-0.565133	0.376261	0.253399
C89	C	-1.126330	-0.063013	0.296540
C90	C	-0.626330	0.436987	0.796540
C91	C	-1.126336	-0.063012	0.396198
C92	C	-0.626336	0.436988	0.896198
C93	C	-1.065103	-0.123724	0.446029
C94	C	-0.565103	0.376276	0.946029
C95	C	-1.003853	-0.184434	0.396197
C96	C	-0.503853	0.315566	0.896197
C97	C	-1.003843	-0.184429	0.296541
C98	C	-0.503843	0.315571	0.796541
C99	C	-1.003879	-0.184440	0.603911
C100	C	-0.503879	0.315560	1.103911
C101	C	-1.003889	-0.184446	0.703574
C102	C	-0.503889	0.315554	1.203574
C103	C	-1.126372	-0.063023	0.703568
C104	C	-0.626372	0.436977	1.203568
C105	C	-1.126362	-0.063019	0.603912
C106	C	-0.626362	0.436981	1.103912
C107	C	-1.065113	-0.123730	0.554087
C108	C	-0.565113	0.376270	1.054087
H109	H	-0.810802	0.019814	0.000051
H110	H	-0.310802	0.519814	0.500051
O111	O	-0.889828	0.595151	0.000023
O112	O	-0.389828	1.095151	0.500023
H113	H	-0.885074	0.637149	0.064557
H114	H	-0.385074	1.137149	0.564557
H115	H	-0.620407	-0.354635	0.000024
H116	H	-0.120407	0.145365	0.500024
H117	H	-1.218446	0.166924	0.000082
H118	H	-0.718446	0.666924	0.500082
H119	H	-1.176205	-0.013580	0.436765
H120	H	-0.676205	0.486420	0.936765
O121	O	-1.192407	0.002462	0.550165
O122	O	-0.692407	0.502462	1.050165
H123	H	-1.154404	0.045998	0.504773
H124	H	-0.654404	0.545998	1.004773
H125	H	-0.319409	-0.267263	0.000047
H126	H	0.180591	0.232737	0.500047
O127	O	-0.893521	0.401223	0.000033
O128	O	-0.393521	0.901223	0.500033
H129	H	-0.890404	0.358217	0.064561
H130	H	-0.390404	0.858217	0.564561
O131	O	-0.695654	0.125246	0.000074
O132	O	-0.195654	0.625246	0.500074
H133	H	-0.767150	0.110169	0.000072
H134	H	-0.267150	0.610169	0.500072
O135	O	-0.434570	-0.372703	0.000049
O136	O	0.065430	0.127297	0.500049
H137	H	-0.363072	-0.357630	0.000072
H138	H	0.136928	0.142370	0.500072
O139	O	-0.500193	0.128931	0.000079
O140	O	-0.000193	0.628931	0.500079
H141	H	-0.425114	0.116624	0.000072
H142	H	0.074886	0.616624	0.500072
O143	O	-1.192430	0.002467	0.757299
O144	O	-0.692430	0.502467	1.257299
H145	H	-1.182144	-0.007724	0.834967
H146	H	-0.682144	0.492276	1.334967
H147	H	-1.215220	0.336176	0.000066
H148	H	-0.715220	0.836176	0.500066
O149	O	-0.895310	0.307390	0.000043
O150	O	-0.395310	0.807390	0.500043
H151	H	-0.890578	0.349394	-0.064479
H152	H	-0.390578	0.849394	0.435521
H153	H	-0.953991	-0.233863	0.436775
H154	H	-0.453991	0.266137	0.936775
O155	O	-0.348479	0.050123	0.000082
O156	O	0.151521	0.550123	0.500082
H157	H	-0.273399	0.037824	0.000084
H158	H	0.226601	0.537824	0.500084
H159	H	-1.176197	-0.013579	0.255974
H160	H	-0.676197	0.486421	0.755974
O161	O	-0.937803	-0.249918	0.550184
O162	O	-0.437803	0.250082	1.050184
H163	H	-0.893939	-0.212177	0.504810
H164	H	-0.393939	0.287823	1.004810
O165	O	-0.899007	0.113457	0.000049
O166	O	-0.399007	0.613457	0.500049
H167	H	-0.840989	0.154223	0.000053
H168	H	-0.340989	0.654223	0.500053
O169	O	-1.234900	0.445132	0.000053
O170	O	-0.734900	0.945132	0.500053
H171	H	-1.291089	0.500587	0.000044
H172	H	-0.791089	1.000587	0.500044
H173	H	-0.772127	-0.275814	0.000030
H174	H	-0.272127	0.224186	0.500030
O175	O	-0.937772	-0.249894	0.242802
O176	O	-0.437772	0.250106	0.742802
H177	H	-0.948040	-0.239681	0.165134
H178	H	-0.448040	0.260319	0.665134
O179	O	-0.937829	-0.249907	0.757327
O180	O	-0.437829	0.250093	1.257327
H181	H	-0.895222	-0.292108	0.705940
H182	H	-0.395222	0.207892	1.205940
O183	O	-1.231219	0.639058	0.000050
O184	O	-0.731219	1.139058	0.500050
H185	H	-1.216042	0.709997	0.000033
H186	H	-0.716042	1.209997	0.500033
