data_functionalizedCrystal
_audit_creation_method	'MofGen! by Chris Wilmer'
_symmetry_space_group_name_H-M	'P1'
_symmetry_Int_Tables_number	1
_symmetry_cell_setting	triclinic
loop_
_symmetry_equiv_pos_as_xyz
  x,y,z
_cell_length_a	13.032951
_cell_length_b	13.032318
_cell_length_c	13.033454
_cell_angle_alpha	74.790997
_cell_angle_beta	89.089765
_cell_angle_gamma	89.113649
loop_
_atom_site_label
_atom_site_type_symbol
_atom_site_fract_x
_atom_site_fract_y
_atom_site_fract_z
Zn1	Zn	-1.442863	0.509569	0.709097
Zn2	Zn	-1.442710	0.709802	0.508886
Zn3	Zn	-1.292094	0.515157	0.514536
Zn4	Zn	-1.253779	0.665819	0.665213
O5	O	-1.357862	0.600087	0.599433
O6	O	-1.585009	0.552199	0.698540
O7	O	-1.438701	0.704728	0.362787
O8	O	-1.328193	0.367565	0.561074
O9	O	-1.584896	0.699310	0.551445
O10	O	-1.438963	0.363460	0.704018
O11	O	-1.328045	0.561723	0.366938
O12	O	-1.144846	0.519074	0.518522
O13	O	-1.262890	0.624346	0.817883
O14	O	-1.116695	0.629765	0.629224
O15	O	-1.401810	0.509550	0.850124
O16	O	-1.401549	0.850819	0.508893
O17	O	-1.262741	0.818504	0.623746
C18	C	-1.093908	0.570253	0.569725
C19	C	-0.980982	0.557512	0.557037
C20	C	-0.916735	0.606715	0.606044
C21	C	-0.800020	0.593548	0.592931
C22	C	-0.622847	0.630027	0.629252
C23	C	-0.735774	0.642758	0.641945
C24	C	-1.327996	0.872738	0.560970
C25	C	-1.315308	0.989385	0.544562
C26	C	-1.364411	1.039262	0.608030
C27	C	-1.351299	1.159823	0.591072
C28	C	-1.387807	1.326363	0.638075
C29	C	-1.400409	1.209697	0.654549
C30	C	-1.328093	0.561419	0.873144
C31	C	-1.315408	0.544941	0.989783
C32	C	-1.387581	0.638535	0.326804
C33	C	-1.400495	0.654740	0.210229
C34	C	-1.364503	0.608351	1.039731
C35	C	-1.351393	0.591321	1.160284
H36	H	-0.767171	0.694627	0.693620
H37	H	-1.416245	0.675242	0.993245
O38	O	-1.462014	1.154038	0.734411
C39	C	-1.403593	1.074572	0.804492
H40	H	-1.332416	1.054884	0.761022
H41	H	-1.379360	1.104481	0.875096
C42	C	-1.556081	0.998143	0.897783
C43	C	-1.468665	0.973955	0.844389
H44	H	-1.596220	0.936079	0.922398
H45	H	-1.595440	1.051683	0.850571
H46	H	-1.535873	1.023069	0.956613
H47	H	-1.488873	0.949043	0.785554
H48	H	-1.429310	0.920409	0.891593
O49	O	-1.289480	1.215434	0.511388
C50	C	-1.210458	1.262996	0.554832
H51	H	-1.235820	1.272047	0.636145
H52	H	-1.138463	1.210753	0.563706
C53	C	-1.155981	1.362180	0.380591
C54	C	-1.187134	1.373304	0.480457
H55	H	-1.141589	1.430221	0.334712
H56	H	-1.209217	1.330134	0.351321
H57	H	-1.095989	1.318640	0.388000
H58	H	-1.247131	1.416832	0.473048
H59	H	-1.133907	1.405361	0.509724
H60	H	-1.263556	1.035937	0.477674
O61	O	-1.462147	0.734676	1.154877
C62	C	-1.425579	0.833014	1.164296
H63	H	-1.377688	0.819609	1.239195
H64	H	-1.376134	0.871106	1.091764
C65	C	-1.575941	0.923549	1.079396
C66	C	-1.517127	0.907085	1.171393
H67	H	-1.632411	0.969243	1.083768
H68	H	-1.600576	0.857298	1.073046
H69	H	-1.534726	0.955288	1.018961
H70	H	-1.558339	0.875335	1.231823
H71	H	-1.492500	0.973333	1.177753
O72	O	-1.253547	0.465185	1.045091
C73	C	-1.152657	0.480439	1.003769
H74	H	-1.154726	0.531709	0.918234
H75	H	-1.105868	0.521875	1.053965
C76	C	-1.100322	0.308899	1.111425
C77	C	-1.102863	0.371863	1.006366
H78	H	-1.069603	0.241925	1.113031
H79	H	-1.168292	0.298623	1.139268
H80	H	-1.061332	0.343441	1.153243
H81	H	-1.141863	0.337327	0.964553
H82	H	-1.034898	0.382130	0.978516
O83	O	-0.954312	0.668460	0.667765
C84	C	-1.014843	0.606100	0.750917
H85	H	-1.043347	0.533491	0.727024
H86	H	-0.966806	0.579132	0.825759
C87	C	-1.072338	0.761672	0.802270
C88	C	-1.107355	0.672497	0.772920
H89	H	-1.129402	0.802629	0.815847
H90	H	-1.031555	0.803686	0.746252
H91	H	-1.032307	0.739186	0.864635
H92	H	-1.147374	0.694985	0.710549
H93	H	-1.148148	0.630489	0.828929
H94	H	-0.768622	0.541667	0.541269
H95	H	-0.949579	0.505635	0.505378
H96	H	-1.416154	0.992710	0.674926
H97	H	-1.299657	0.524418	1.206768
