data_functionalizedCrystal
_audit_creation_method	'MofGen! by Chris Wilmer'
_symmetry_space_group_name_H-M	'P1'
_symmetry_Int_Tables_number	1
_symmetry_cell_setting	triclinic
loop_
_symmetry_equiv_pos_as_xyz
  x,y,z
_cell_length_a	17.699083
_cell_length_b	15.625429
_cell_length_c	16.776229
_cell_angle_alpha	71.916203
_cell_angle_beta	89.998886
_cell_angle_gamma	83.783281
loop_
_atom_site_label
_atom_site_type_symbol
_atom_site_fract_x
_atom_site_fract_y
_atom_site_fract_z
O1	O	1.004375	0.114008	-0.099126
O2	O	1.504375	0.614008	0.400874
O3	O	0.784035	0.128841	-0.103439
O4	O	1.284035	0.628841	0.396561
O5	O	0.900090	-0.009827	-0.063343
O6	O	1.400090	0.490173	0.436657
O7	O	0.888320	0.252675	-0.139222
O8	O	1.388320	0.752675	0.360778
O9	O	0.900075	-0.009835	0.069235
O10	O	1.400075	0.490165	0.569235
O11	O	0.784020	0.128832	0.029140
O12	O	1.284020	0.628832	0.529140
O13	O	1.004359	0.113999	0.033453
O14	O	1.504359	0.613999	0.533453
Zn15	Zn	0.894187	0.121414	0.052346
Zn16	Zn	1.394187	0.621414	0.552346
Zn17	Zn	0.894207	0.121426	-0.122332
Zn18	Zn	1.394207	0.621426	0.377668
O19	O	0.888304	0.252667	-0.006643
O20	O	1.388304	0.752667	0.493357
C21	C	0.755829	0.128305	-0.036999
C22	C	1.255829	0.628305	0.463001
C23	C	0.671807	0.126710	-0.036548
C24	C	1.171807	0.626710	0.463452
C25	C	0.899549	-0.043418	0.012653
C26	C	1.399549	0.456582	0.512653
C27	C	0.897950	-0.143495	0.041575
C28	C	1.397950	0.356505	0.541575
C29	C	0.623397	0.208105	-0.060076
C30	C	1.123397	0.708105	0.439924
C31	C	0.544450	0.206602	-0.059631
C32	C	1.044450	0.706602	0.440369
C33	C	0.513914	0.123702	-0.035664
C34	C	1.013914	0.623702	0.464336
C35	C	0.562329	0.042301	-0.012132
C36	C	1.062329	0.542301	0.487868
C37	C	0.641275	0.043806	-0.012572
C38	C	1.141275	0.543806	0.487428
C39	C	0.243951	0.036232	-0.010358
C40	C	0.743951	0.536232	0.489642
C41	C	0.164999	0.034734	-0.009923
C42	C	0.664999	0.534734	0.490077
C43	C	0.147125	0.199028	-0.057417
C44	C	0.647125	0.699028	0.442583
C45	C	0.226071	0.200533	-0.057857
C46	C	0.726071	0.700533	0.442143
C47	C	0.274480	0.119132	-0.034321
C48	C	0.774480	0.619132	0.465679
C49	C	0.360083	0.120763	-0.034802
C50	C	0.860083	0.620763	0.465198
C51	C	0.428312	0.122070	-0.035188
C52	C	0.928312	0.622070	0.464812
C53	C	0.892713	-0.472616	-0.224618
C54	C	1.392713	0.027384	0.275382
C55	C	0.891207	-0.566654	-0.197416
C56	C	1.391207	-0.066654	0.302584
C57	C	0.891191	-0.566649	-0.052888
C58	C	1.391191	-0.066649	0.447112
C59	C	0.892700	-0.472610	-0.080077
C60	C	1.392700	0.027390	0.419923
C61	C	0.893460	-0.425601	-0.165943
C62	C	1.393460	0.074399	0.334057
C63	C	0.893447	-0.425595	-0.021402
C64	C	1.393447	0.074405	0.478598
C65	C	0.894953	-0.331564	-0.048590
C66	C	1.394953	0.168436	0.451410
C67	C	0.895710	-0.284548	-0.134452
C68	C	1.395710	0.215452	0.365548
C69	C	0.894965	-0.331570	-0.193131
C70	C	1.394965	0.168430	0.306869
C71	C	0.892682	-0.472605	0.064463
C72	C	1.392682	0.027395	0.564463
C73	C	0.893429	-0.425590	0.123138
C74	C	1.393429	0.074410	0.623138
C75	C	0.894940	-0.331558	0.095950
C76	C	1.394940	0.168442	0.595950
C77	C	0.895698	-0.284542	0.010088
C78	C	1.395698	0.215458	0.510088
C79	C	0.895685	-0.284536	0.154629
C80	C	1.395685	0.215464	0.654629
C81	C	0.897190	-0.190505	0.127441
C82	C	1.397190	0.309495	0.627441
C83	C	0.897203	-0.190511	-0.017100
C84	C	1.397203	0.309489	0.482900
C85	C	1.032565	0.114535	-0.032989
C86	C	1.532565	0.614535	0.467011
C87	C	1.116588	0.116130	-0.033445
C88	C	1.616588	0.616130	0.466555
C89	C	0.888846	0.286258	-0.082640
C90	C	1.388846	0.786258	0.417360
C91	C	0.890444	0.386335	-0.111568
C92	C	1.390444	0.886335	0.388432
N93	N	0.894179	0.121406	0.171560
N94	N	1.394179	0.621406	0.671560
N95	N	0.894222	0.121427	-0.241544
N96	N	1.394222	0.621427	0.258456
C97	C	0.945584	0.060029	0.231024
C98	C	1.445584	0.560029	0.731024
C99	C	0.945588	0.060029	0.314476
C100	C	1.445588	0.560029	0.814476
C101	C	0.894190	0.121410	0.338462
C102	C	1.394190	0.621410	0.838462
C103	C	0.842780	0.182789	0.278991
C104	C	1.342780	0.682789	0.778991
C105	C	0.842772	0.182785	0.195541
C106	C	1.342772	0.682785	0.695541
C107	C	0.842807	0.182807	0.615533
C108	C	1.342807	0.682807	1.115533
C109	C	0.842820	0.182808	0.698989
C110	C	1.342820	0.682808	1.198989
C111	C	0.945622	0.060051	0.734468
C112	C	1.445622	0.560051	1.234468
C113	C	0.945615	0.060046	0.651018
C114	C	1.445615	0.560046	1.151018
C115	C	0.894202	0.121422	0.591556
C116	C	1.394202	0.621422	1.091556
C117	C	0.894198	0.121421	0.501068
C118	C	1.394198	0.621421	1.001068
C119	C	0.894198	0.121416	0.428947
C120	C	1.394198	0.621416	0.928947
H121	H	0.648253	0.275612	-0.079593
H122	H	1.148253	0.775612	0.420407
H123	H	0.987440	0.010050	0.211501
H124	H	1.487440	0.510050	0.711501
Br125	Br	0.773062	0.266118	0.731539
Br126	Br	1.273062	0.766118	1.231539
H127	H	0.107701	0.265308	-0.076577
H128	H	0.607701	0.765308	0.423423
Br129	Br	0.890185	-0.630457	-0.277056
Br130	Br	1.390185	-0.130457	0.222944
Br131	Br	0.267509	0.313043	-0.090392
Br132	Br	0.767509	0.813043	0.409608
Br133	Br	0.309638	-0.074241	0.021585
Br134	Br	0.809638	0.425759	0.521585
H135	H	0.537461	-0.025197	0.007394
H136	H	1.037461	0.474803	0.507394
H137	H	0.897782	-0.152222	0.175219
H138	H	1.397782	0.347778	0.675219
H139	H	0.895591	-0.293293	-0.263051
H140	H	1.395591	0.206707	0.236949
Br141	Br	1.015350	-0.023273	0.395182
Br142	Br	1.515350	0.476727	0.895182
Br143	Br	0.706975	-0.066663	0.019367
Br144	Br	1.206975	0.433337	0.519367
Br145	Br	0.773037	0.266102	0.534839
Br146	Br	1.273037	0.766102	1.034839
Br147	Br	0.478754	0.317071	-0.091565
Br148	Br	0.978754	0.817071	0.408435
H149	H	0.987470	0.010067	0.631493
H150	H	1.487470	0.510067	1.131493
Br151	Br	1.015398	-0.023249	0.815172
Br152	Br	1.515398	0.476751	1.315172
Br153	Br	0.890150	-0.630454	0.063640
Br154	Br	1.390150	-0.130454	0.563640
H155	H	0.800927	0.232764	0.298525
H156	H	1.300927	0.732764	0.798525
Br157	Br	0.898250	-0.126706	-0.133633
Br158	Br	1.398250	0.373294	0.366367
H159	H	0.892807	-0.463878	0.193050
H160	H	1.392807	0.036122	0.693050
H161	H	0.140140	-0.032777	0.009596
H162	H	0.640140	0.467223	0.509596
H163	H	0.800912	0.232763	0.147125
H164	H	1.300912	0.732763	0.647125
H165	H	0.896928	-0.207980	-0.156588
H166	H	1.396928	0.292020	0.343412
H167	H	0.893339	-0.434339	-0.294538
H168	H	1.393339	0.065661	0.205462
H169	H	0.891448	-0.549171	0.086596
H170	H	1.391448	-0.049171	0.586596
Br171	Br	0.894634	-0.348342	0.271156
Br172	Br	1.394634	0.151658	0.771156
