data_functionalizedCrystal
_audit_creation_method	'MofGen! by Chris Wilmer'
_symmetry_space_group_name_H-M	'P1'
_symmetry_Int_Tables_number	1
_symmetry_cell_setting	triclinic
loop_
_symmetry_equiv_pos_as_xyz
  x,y,z
_cell_length_a	17.699083
_cell_length_b	15.944551
_cell_length_c	14.421503
_cell_angle_alpha	89.998474
_cell_angle_beta	89.998986
_cell_angle_gamma	96.609123
loop_
_atom_site_label
_atom_site_type_symbol
_atom_site_fract_x
_atom_site_fract_y
_atom_site_fract_z
O1	O	-1.004261	0.106211	0.076974
O2	O	-0.783907	0.120030	0.077007
O3	O	-0.900101	-0.009167	0.076981
O4	O	-0.888067	0.235408	0.077000
O5	O	-0.900083	-0.009152	-0.077242
O6	O	-0.783888	0.120045	-0.077216
O7	O	-1.004243	0.106225	-0.077249
Cu8	Cu	-0.894064	0.113136	-0.091315
Cu9	Cu	-0.894086	0.113119	0.091073
O10	O	-0.888048	0.235423	-0.077223
C11	C	-0.755700	0.119542	-0.000101
C12	C	-0.671679	0.118057	-0.000088
C13	C	-0.899593	-0.040453	-0.000130
C14	C	-0.898095	-0.133696	-0.000131
C15	C	-0.623187	0.193893	-0.000083
C16	C	-0.544242	0.192492	-0.000094
C17	C	-0.513789	0.115254	-0.000105
C18	C	-0.562287	0.039412	-0.000113
C19	C	-0.641231	0.040814	-0.000108
C20	C	-0.243914	0.033758	-0.000134
C21	C	-0.164964	0.032362	-0.000136
C22	C	-0.146925	0.185436	-0.000119
C23	C	-0.225869	0.186837	-0.000114
C24	C	-0.274360	0.110996	-0.000128
C25	C	-0.359962	0.112516	-0.000117
C26	C	-0.428189	0.113733	-0.000108
C27	C	-0.822492	-0.348393	-0.000107
C28	C	-0.857590	-0.409477	-0.076153
C29	C	-0.895385	-0.304416	-0.000123
C30	C	-0.857625	-0.409475	0.075899
C31	C	-0.892762	-0.469323	-0.000112
C32	C	-0.930503	-0.364271	-0.076233
C33	C	-0.930529	-0.364263	0.075888
C34	C	-0.965680	-0.425329	-0.000177
C35	C	-0.896894	-0.209417	-0.000130
C36	C	-0.891259	-0.564321	-0.000111
C37	C	-0.032450	0.106713	-0.000137
C38	C	-0.116471	0.108199	-0.000136
C39	C	-0.888557	0.266708	-0.000110
C40	C	-0.890055	0.359951	-0.000103
N41	N	-0.894054	0.113148	-0.219596
C42	C	-0.840769	0.173355	-0.531037
C43	C	-0.825454	0.097718	-0.469212
C44	C	-0.894085	0.113115	-0.591485
C45	C	-0.909349	0.188766	-0.469216
C46	C	-0.894068	0.113135	-0.408763
C47	C	-0.878737	0.037440	-0.531020
C48	C	-0.962661	0.128537	-0.531030
C49	C	-0.947375	0.052846	-0.469232
C50	C	-0.894093	0.113104	-0.696746
C51	C	-0.894060	0.113137	-0.303504
N52	N	-0.894102	0.113101	0.219354
H53	H	-0.647975	0.256789	-0.000073
C54	C	-1.007378	-0.015192	-0.433136
C55	C	-0.972486	-0.072279	-0.378489
C56	C	-1.027733	-0.134962	-0.345209
H57	H	-1.032509	-0.044296	-0.483930
H58	H	-1.043389	0.010117	-0.396818
H59	H	-0.936489	-0.097587	-0.414805
H60	H	-0.947359	-0.043200	-0.327681
H61	H	-1.063744	-0.109652	-0.308892
H62	H	-1.052861	-0.164058	-0.396009
H63	H	-1.004068	-0.173698	-0.308121
C64	C	-0.094312	0.267808	0.000077
C65	C	-0.108058	0.314301	0.079443
C66	C	-0.059602	0.390179	0.079665
H67	H	-0.103502	0.299594	-0.053635
H68	H	-0.042923	0.255950	0.000120
H69	H	-0.159436	0.326161	0.079391
H70	H	-0.098864	0.282541	0.133167
H71	H	-0.008212	0.378321	0.079707
H72	H	-0.068795	0.421958	0.025950
H73	H	-0.068917	0.421731	0.133517
H74	H	-0.140173	-0.030538	-0.000145
C75	C	-0.971623	-0.337343	0.161521
C76	C	-0.973083	-0.249744	0.159902
C77	C	-1.010934	-0.224913	0.238773
H78	H	-0.945714	-0.352555	0.215571
H79	H	-1.022228	-0.364701	0.162062
H80	H	-0.922487	-0.222395	0.159370
H81	H	-0.998997	-0.234511	0.105870
H82	H	-1.061539	-0.252272	0.239314
H83	H	-0.985021	-0.240130	0.292816
H84	H	-1.011936	-0.165477	0.237680
H85	H	-0.826793	-0.429493	0.140195
C86	C	-1.040007	0.145782	-0.567323
C87	C	-1.071434	0.077090	-0.620654
C88	C	-1.142688	0.092949	-0.654092
H89	H	-1.034352	0.195243	-0.604568
H90	H	-1.072686	0.153660	-0.516577
H91	H	-1.038762	0.069221	-0.671392
H92	H	-1.077108	0.027620	-0.583429
H93	H	-1.175367	0.100828	-0.603346
H94	H	-1.137026	0.142413	-0.691333
H95	H	-1.164023	0.046342	-0.690274
C96	C	-0.926462	0.274139	-0.433127
C97	C	-0.870479	0.336946	-0.464456
C98	C	-0.886212	0.415603	-0.431235
H99	H	-0.926768	0.273476	-0.367266
H100	H	-0.974804	0.285560	-0.455219
H101	H	-0.822149	0.325528	-0.442360
H102	H	-0.870163	0.337636	-0.530314
H103	H	-0.934554	0.427025	-0.453327
H104	H	-0.886519	0.414931	-0.365375
H105	H	-0.848235	0.458228	-0.452494
C106	C	-0.491554	0.274801	-0.000268
C107	C	-0.445718	0.278495	-0.079626
C108	C	-0.397179	0.354313	-0.079822
H109	H	-0.460311	0.277503	0.053449
H110	H	-0.520967	0.321028	-0.000304
H111	H	-0.416307	0.232281	-0.079582
H112	H	-0.476940	0.275808	-0.133356
H113	H	-0.426592	0.400540	-0.079858
H114	H	-0.365941	0.357008	-0.026102
H115	H	-0.366078	0.356833	-0.133669
C116	C	-0.971652	-0.337598	-0.161944
C117	C	-1.034728	-0.297949	-0.134919
C118	C	-1.072642	-0.273355	-0.213850
H119	H	-0.988157	-0.385947	-0.198273
H120	H	-0.938078	-0.299446	-0.197483
H121	H	-1.068296	-0.336099	-0.099395
H122	H	-1.018244	-0.249592	-0.098601
H123	H	-1.039069	-0.235203	-0.249389
H124	H	-1.089142	-0.321707	-0.250173
H125	H	-1.115439	-0.246443	-0.195525
C126	C	-0.296428	-0.048673	-0.000097
C127	C	-0.252859	-0.116611	-0.000080
C128	C	-0.301212	-0.192562	-0.000034
H129	H	-0.327615	-0.051424	-0.053864
H130	H	-0.327590	-0.051363	0.053705
H131	H	-0.221710	-0.113921	-0.053877
H132	H	-0.221674	-0.113887	0.053683
H133	H	-0.332375	-0.195252	0.053768
H134	H	-0.332396	-0.195304	-0.053802
H135	H	-0.271658	-0.238667	-0.000014
H136	H	-0.537486	-0.023476	-0.000135
C137	C	-0.780690	0.241176	-0.567411
C138	C	-0.781938	0.240797	-0.664484
C139	C	-0.726609	0.303265	-0.698024
H140	H	-0.731948	0.230160	-0.546341
H141	H	-0.791064	0.294832	-0.545393
H142	H	-0.771558	0.187154	-0.686493
H143	H	-0.830666	0.251824	-0.685579
H144	H	-0.736983	0.356920	-0.676006
H145	H	-0.677872	0.292243	-0.676948
H146	H	-0.727453	0.303021	-0.763891
C147	C	-0.693756	-0.041614	-0.000062
C148	C	-0.650192	-0.109557	-0.000046
C149	C	-0.698551	-0.185504	0.000006
H150	H	-0.724945	-0.044364	-0.053827
H151	H	-0.724916	-0.044300	0.053742
H152	H	-0.619046	-0.106873	-0.053845
H153	H	-0.619005	-0.106834	0.053715
H154	H	-0.729711	-0.188190	0.053811
H155	H	-0.729738	-0.188246	-0.053759
H156	H	-0.669001	-0.231612	0.000026
H157	H	-0.250659	0.249732	-0.000101
C158	C	-0.816389	-0.436307	-0.161752
C159	C	-0.753756	-0.476634	-0.134548
C160	C	-0.715784	-0.501367	-0.213372
H161	H	-0.799423	-0.387960	-0.197863
H162	H	-0.850085	-0.474091	-0.197560
H163	H	-0.720066	-0.438853	-0.098756
H164	H	-0.770700	-0.524990	-0.098448
H165	H	-0.749480	-0.539151	-0.249179
H166	H	-0.698824	-0.453016	-0.249477
H167	H	-0.673288	-0.528738	-0.194925
H168	H	-0.761987	-0.314958	-0.000174
C169	C	-0.748059	0.080493	-0.433048
C170	C	-0.692467	0.143742	-0.464338
C171	C	-0.621162	0.127914	-0.431037
H172	H	-0.736739	0.027208	-0.455098
H173	H	-0.748718	0.080151	-0.367176
H174	H	-0.691805	0.144075	-0.530197
H175	H	-0.703762	0.197034	-0.442291
H176	H	-0.621821	0.127573	-0.365164
H177	H	-0.609849	0.074628	-0.453088
H178	H	-0.583435	0.170830	-0.452254
C179	C	-0.861391	-0.047803	-0.567240
C180	C	-0.861553	-0.046800	-0.664319
C181	C	-0.845565	-0.125303	-0.697719
H182	H	-0.899006	-0.090671	-0.545683
H183	H	-0.812810	-0.058860	-0.545612
H184	H	-0.910127	-0.035753	-0.685939
H185	H	-0.823938	-0.003949	-0.685901
H186	H	-0.796983	-0.136360	-0.676090
H187	H	-0.883181	-0.168165	-0.676156
H188	H	-0.845665	-0.124631	-0.763590
H189	H	-1.026238	-0.458615	-0.000229
