data_functionalizedCrystal
_audit_creation_method	'MofGen! by Chris Wilmer'
_symmetry_space_group_name_H-M	'P1'
_symmetry_Int_Tables_number	1
_symmetry_cell_setting	triclinic
loop_
_symmetry_equiv_pos_as_xyz
  x,y,z
_cell_length_a	17.077404
_cell_length_b	19.076808
_cell_length_c	17.077404
_cell_angle_alpha	92.314943
_cell_angle_beta	90.005736
_cell_angle_gamma	92.323651
loop_
_atom_site_label
_atom_site_type_symbol
_atom_site_fract_x
_atom_site_fract_y
_atom_site_fract_z
Zn1	Zn	1.187377	-0.280314	0.431267
Zn2	Zn	1.687377	0.219686	0.931267
Zn3	Zn	1.182038	-0.397992	0.294721
Zn4	Zn	1.682038	0.102008	0.794721
Zn5	Zn	1.056141	-0.280308	0.300015
Zn6	Zn	1.556141	0.219692	0.800015
Zn7	Zn	1.050800	-0.397981	0.425945
Zn8	Zn	1.550800	0.102019	0.925945
O9	O	1.119089	-0.339149	0.362987
O10	O	1.619089	0.160851	0.862987
O11	O	1.296515	-0.295931	0.413165
O12	O	1.796515	0.204069	0.913165
O13	O	1.165339	-0.382383	0.185576
O14	O	1.665339	0.117617	0.685576
O15	O	1.078019	-0.181813	0.321868
O16	O	1.578019	0.318187	0.821868
O17	O	1.292593	-0.382389	0.312846
O18	O	1.792593	0.117611	0.812846
O19	O	1.174438	-0.181818	0.418298
O20	O	1.674438	0.318182	0.918298
O21	O	1.072842	-0.295921	0.189466
O22	O	1.572842	0.204079	0.689466
O23	O	0.945586	-0.295910	0.316708
O24	O	1.445586	0.204090	0.816708
O25	O	1.068916	-0.382370	0.536498
O26	O	1.568916	0.117630	1.036498
O27	O	0.941662	-0.382364	0.409229
O28	O	1.441662	0.117636	0.909229
O29	O	1.169259	-0.295921	0.540408
O30	O	1.669259	0.204079	1.040408
O31	O	1.160160	-0.496486	0.307686
O32	O	1.660160	0.003514	0.807686
O33	O	1.063740	-0.496478	0.404096
O34	O	1.563740	0.003522	0.904096
C35	C	0.915142	-0.339136	0.362966
C36	C	1.415142	0.160864	0.862966
C37	C	0.827891	-0.339148	0.362975
C38	C	1.327891	0.160852	0.862975
C39	C	0.784876	-0.384232	0.411067
C40	C	1.284876	0.115768	0.911067
C41	C	0.702895	-0.384234	0.411079
C42	C	1.202895	0.115766	0.911079
C43	C	0.663932	-0.339154	0.362995
C44	C	1.163932	0.160846	0.862995
C45	C	0.706953	-0.294064	0.314901
C46	C	1.206953	0.205936	0.814901
C47	C	0.788933	-0.294060	0.314893
C48	C	1.288933	0.205940	0.814893
C49	C	0.536083	-0.294078	0.314919
C50	C	1.036083	0.205922	0.814919
C51	C	0.454098	-0.294083	0.314926
C52	C	0.954098	0.205917	0.814926
C53	C	0.450045	-0.384252	0.411105
C54	C	0.950045	0.115748	0.911105
C55	C	0.532024	-0.384248	0.411097
C56	C	1.032024	0.115752	0.911097
C57	C	0.575040	-0.339159	0.363002
C58	C	1.075040	0.160841	0.863002
C59	C	1.110812	-0.522021	0.354756
C60	C	1.610812	-0.022021	0.854756
C61	C	1.107343	-0.600255	0.351261
C62	C	1.607343	-0.100255	0.851261
C63	C	1.155876	-0.636951	0.399866
C64	C	1.655876	-0.136951	0.899866
C65	C	1.152613	-0.710459	0.396583
C66	C	1.652613	-0.210459	0.896583
C67	C	1.100821	-0.747271	0.344692
C68	C	1.600821	-0.247271	0.844692
C69	C	1.052283	-0.710569	0.296085
C70	C	1.552283	-0.210569	0.796085
C71	C	1.055542	-0.637062	0.299372
C72	C	1.555542	-0.137062	0.799372
C73	C	1.085691	-0.967120	0.329476
C74	C	1.585691	-0.467120	0.829476
C75	C	1.082437	-1.040633	0.326191
C76	C	1.582437	-0.540633	0.826191
C77	C	1.182766	-1.040518	0.426691
C78	C	1.682766	-0.540518	0.926691
C79	C	1.186024	-0.967009	0.429970
C80	C	1.686024	-0.467009	0.929970
C81	C	1.137483	-0.930314	0.381366
C82	C	1.637483	-0.430314	0.881366
N83	N	1.097487	-0.822408	0.341333
N84	N	1.597487	-0.322408	0.841333
N85	N	1.140814	-0.855178	0.384729
N86	N	1.640814	-0.355178	0.884729
C87	C	1.323833	-0.339162	0.363009
C88	C	1.823833	0.160838	0.863009
C89	C	1.411082	-0.339168	0.363018
C90	C	1.911082	0.160832	0.863018
C91	C	1.119087	-0.339145	0.567731
C92	C	1.619087	0.160855	1.067731
C93	C	1.119087	-0.339143	0.654981
C94	C	1.619087	0.160857	1.154981
C95	C	1.127420	-0.155562	0.371267
C96	C	1.627420	0.344438	0.871267
C97	C	1.130969	-0.077329	0.374796
C98	C	1.630969	0.422671	0.874796
C99	C	1.167246	-0.384180	1.028772
C100	C	1.667246	0.115820	1.528772
C101	C	1.167242	-0.384179	0.946792
C102	C	1.667242	0.115821	1.446792
C103	C	1.119087	-0.339159	0.907829
C104	C	1.619087	0.160841	1.407829
C105	C	1.070925	-0.294142	0.950852
C106	C	1.570925	0.205858	1.450852
C107	C	1.070925	-0.294147	1.032830
C108	C	1.570925	0.205853	1.532830
C109	C	1.070930	-0.294134	0.779982
C110	C	1.570930	0.205866	1.279982
C111	C	1.070931	-0.294128	0.697998
C112	C	1.570931	0.205872	1.197998
C113	C	1.167247	-0.384166	0.693943
C114	C	1.667247	0.115834	1.193943
C115	C	1.167247	-0.384171	0.775922
C116	C	1.667247	0.115829	1.275922
C117	C	1.119087	-0.339153	0.818939
C118	C	1.619087	0.160847	1.318939
C119	C	1.119085	-0.339167	1.159038
C120	C	1.619085	0.160833	1.659038
C121	C	1.119090	-0.339165	1.071789
C122	C	1.619090	0.160835	1.571789
H123	H	0.563746	-0.420960	0.450247
H124	H	1.063746	0.079040	0.950247
H125	H	1.206464	-0.420827	0.807643
H126	H	1.706464	0.079173	1.307643
H127	H	0.675223	-0.257356	0.275754
H128	H	1.175223	0.242644	0.775754
F129	F	0.826336	-0.432217	0.462241
F130	F	1.326336	0.067783	0.962241
H131	H	1.228197	-0.937039	0.472224
H132	H	1.728197	-0.437039	0.972224
H133	H	1.016021	-0.607185	0.259794
H134	H	1.516021	-0.107185	0.759794
H135	H	1.031713	-0.257476	0.815004
H136	H	1.531713	0.242524	1.315004
H137	H	1.198054	-0.606984	0.442118
H138	H	1.698054	-0.106984	0.942118
F139	F	1.218498	-0.432089	0.901014
F140	F	1.718498	0.067911	1.401014
H141	H	0.667875	-0.420947	0.450240
H142	H	1.167875	0.079053	0.950240
F143	F	1.019682	-0.246222	0.909383
F144	F	1.519682	0.253778	1.409383
H145	H	1.222285	-1.070403	0.466262
H146	H	1.722285	-0.570403	0.966262
H147	H	1.031721	-0.257467	0.666277
H148	H	1.531721	0.242533	1.166277
F149	F	1.218501	-0.432080	0.648161
F150	F	1.718501	0.067920	1.148161
F151	F	1.218506	-0.432093	1.070232
F152	F	1.718506	0.067907	1.570232
F153	F	0.412632	-0.246107	0.263746
F154	F	0.912632	0.253893	0.763746
F155	F	1.019675	-0.246233	1.078612
F156	F	1.519675	0.253767	1.578612
H157	H	0.415018	-0.420963	0.450268
H158	H	0.915018	0.079037	0.950268
F159	F	0.834713	-0.246073	0.263709
F160	F	1.334713	0.253927	0.763709
F161	F	0.581862	-0.246088	0.263732
F162	F	1.081862	0.253912	0.763732
H163	H	1.192140	-0.740334	0.436156
H164	H	1.692140	-0.240334	0.936156
F165	F	1.027312	-1.079809	0.270956
F166	F	1.527312	-0.579809	0.770956
H167	H	1.046168	-0.937249	0.289900
H168	H	1.546168	-0.437249	0.789900
H169	H	1.010110	-0.740547	0.253837
H170	H	1.510110	-0.240547	0.753837
