data_functionalizedCrystal
_audit_creation_method	'MofGen! by Chris Wilmer'
_symmetry_space_group_name_H-M	'P1'
_symmetry_Int_Tables_number	1
_symmetry_cell_setting	triclinic
loop_
_symmetry_equiv_pos_as_xyz
  x,y,z
_cell_length_a	23.532355
_cell_length_b	23.532407
_cell_length_c	9.730217
_cell_angle_alpha	90.004425
_cell_angle_beta	89.997119
_cell_angle_gamma	82.838088
loop_
_atom_site_label
_atom_site_type_symbol
_atom_site_fract_x
_atom_site_fract_y
_atom_site_fract_z
O1	O	0.755278	0.068990	0.114117
O2	O	0.589410	0.079024	0.114163
O3	O	0.677346	-0.008925	0.114113
O4	O	0.667342	0.156940	0.114166
O5	O	0.677340	-0.008920	-0.114467
O6	O	0.589404	0.079030	-0.114418
O7	O	0.755272	0.068995	-0.114463
Zn8	Zn	0.672337	0.074013	-0.150732
Zn9	Zn	0.672345	0.074006	0.150432
O10	O	0.667336	0.156945	-0.114414
C11	C	0.568191	0.078776	-0.000122
C12	C	0.504972	0.078022	-0.000106
C13	C	0.112955	0.073287	-0.124764
C14	C	0.053556	0.072569	-0.124769
O15	O	0.022834	0.072181	-0.230735
N16	N	0.023850	0.072211	-0.000171
C17	C	0.053548	0.072564	0.124441
O18	O	0.022828	0.072192	0.230421
C19	C	0.112947	0.073277	0.124445
C20	C	0.142649	0.073641	-0.000161
C21	C	0.142657	0.073651	-0.249360
C22	C	0.202052	0.074369	-0.249354
C23	C	0.231745	0.074724	-0.124752
C24	C	0.202044	0.074360	-0.000155
C25	C	0.142645	0.073626	0.249056
C26	C	0.202048	0.074339	0.249049
C27	C	0.231749	0.074703	0.124443
C28	C	0.291133	0.075433	0.124453
N29	N	0.320838	0.075792	-0.000145
C30	C	0.291144	0.075437	-0.124747
C31	C	-0.071193	0.071065	0.124423
C32	C	-0.130591	0.070355	0.124421
C33	C	-0.130580	0.070360	-0.124791
C34	C	-0.071181	0.071073	-0.124786
C35	C	-0.041488	0.071423	-0.000175
C36	C	0.415878	0.076946	-0.124725
C37	C	0.475278	0.077667	-0.124708
C38	C	0.475262	0.077660	0.124502
C39	C	0.415867	0.076942	0.124486
C40	C	0.386177	0.076583	-0.000139
O41	O	0.321892	0.075819	0.230365
O42	O	0.321873	0.075801	-0.230710
C43	C	0.677088	-0.030139	-0.000180
C44	C	0.676322	-0.093356	-0.000191
C45	C	0.723557	-0.492468	-0.000128
C46	C	0.722845	-0.551868	-0.000118
O47	O	0.766632	-0.588620	-0.000079
N48	N	0.670568	-0.574484	-0.000104
C49	C	0.618998	-0.537697	-0.000088
O50	O	0.574467	-0.562388	-0.000074
C51	C	0.619710	-0.478298	-0.000088
C52	C	0.671991	-0.455685	-0.000116
C53	C	0.775834	-0.469854	-0.000154
C54	C	0.776545	-0.410458	-0.000167
C55	C	0.724979	-0.373676	-0.000155
C56	C	0.672703	-0.396289	-0.000129
C57	C	0.568141	-0.441512	-0.000062
C58	C	0.568858	-0.382110	-0.000062
C59	C	0.621139	-0.359497	-0.000089
C60	C	0.621848	-0.300110	-0.000129
N61	N	0.674126	-0.277494	-0.000143
C62	C	0.725691	-0.314277	-0.000156
C63	C	0.617507	-0.662439	-0.000083
C64	C	0.616794	-0.721837	-0.000093
C65	C	0.720642	-0.736004	-0.000120
C66	C	0.721354	-0.676605	-0.000121
C67	C	0.669784	-0.639823	-0.000097
C68	C	0.727181	-0.189540	-0.000184
C69	C	0.727888	-0.130138	-0.000203
C70	C	0.624041	-0.115977	-0.000168
C71	C	0.623334	-0.175373	-0.000157
C72	C	0.674909	-0.212154	-0.000160
O73	O	0.578084	-0.263323	-0.000163
O74	O	0.770216	-0.289577	-0.000151
C75	C	0.776492	0.069244	-0.000176
C76	C	0.839710	0.069998	-0.000183
C77	C	0.667594	0.178158	-0.000117
C78	C	0.668360	0.241375	-0.000098
N79	N	0.672336	0.074018	-0.356269
C80	C	0.603669	0.005270	-0.644025
C81	C	0.569322	-0.029087	-0.572082
C82	C	0.569311	-0.029076	-0.428202
C83	C	0.603652	0.005294	-0.356262
C84	C	0.638000	0.039650	-0.428206
C85	C	0.638006	0.039637	-0.572089
C86	C	0.706683	0.108374	-0.428212
C87	C	0.706692	0.108367	-0.572092
C88	C	0.741025	0.142744	-0.356272
C89	C	0.775370	0.177104	-0.428215
C90	C	0.775379	0.177092	-0.572104
C91	C	0.741040	0.142723	-0.644035
N92	N	0.672351	0.073997	0.355968
H93	H	0.226230	0.074662	-0.350822
H94	H	-0.047021	0.071355	0.225903
H95	H	0.603671	0.005262	-0.761180
H96	H	0.118472	0.073329	0.350524
O97	O	0.572563	-0.197369	-0.000385
C98	C	0.511496	-0.256242	-0.118713
C99	C	0.569009	-0.231367	-0.118659
H100	H	0.508609	-0.283745	-0.214312
H101	H	0.474742	-0.219768	-0.118801
H102	H	0.508576	-0.283663	-0.022996
H103	H	0.571985	-0.203954	-0.214360
H104	H	0.605735	-0.267869	-0.118499
H105	H	0.769178	-0.219481	-0.000182
H106	H	0.817827	-0.499797	-0.000159
O107	O	-0.159493	0.069931	0.245376
C108	C	-0.219786	0.019756	0.390044
C109	C	-0.187095	0.020175	0.252995
H110	H	-0.242101	-0.020474	0.396261
H111	H	-0.253072	0.059254	0.396312
H112	H	-0.188347	0.020162	0.479070
H113	H	-0.218490	0.019749	0.163891
H114	H	-0.153801	-0.019320	0.246847
H115	H	0.582057	-0.086018	-0.000163
H116	H	0.763925	-0.658198	-0.000142
O117	O	0.230944	0.074758	0.370013
C118	C	0.291231	0.124928	0.514715
C119	C	0.258545	0.124515	0.377666
H120	H	0.313545	0.165158	0.520960
H121	H	0.324518	0.085429	0.520955
H122	H	0.259789	0.124517	0.603742
H123	H	0.289943	0.124946	0.288562
H124	H	0.225250	0.164010	0.371546
H125	H	0.541363	-0.057071	-0.630671
H126	H	0.541344	-0.057053	-0.369626
O127	O	0.504142	0.078120	-0.245721
C128	C	0.564496	0.128259	-0.390309
C129	C	0.531826	0.127827	-0.253234
H130	H	0.586897	0.168437	-0.396415
H131	H	0.533088	0.127916	-0.479418
H132	H	0.597725	0.088714	-0.396530
H133	H	0.498597	0.167365	-0.246879
H134	H	0.563269	0.128140	-0.164190
O135	O	0.387101	0.076574	0.245648
C136	C	0.393360	0.076690	0.492831
C137	C	0.426003	0.077098	0.355713
H138	H	0.424796	0.077126	0.581854
H139	H	0.371013	0.036483	0.499153
H140	H	0.360093	0.116206	0.498988
H141	H	0.459298	0.037609	0.349464
H142	H	0.448311	0.117331	0.349449
O143	O	0.741099	0.142808	-0.216508
C144	C	0.778739	0.180572	-0.010039
C145	C	0.778722	0.180538	-0.168321
H146	H	0.809145	0.211083	0.028969
H147	H	0.793444	0.135476	0.029131
H148	H	0.733601	0.195211	0.028963
H149	H	0.823845	0.165925	-0.207439
H150	H	0.763985	0.225641	-0.207397
O151	O	0.567356	-0.626792	-0.000141
C152	C	0.464280	-0.619022	-0.000039
C153	C	0.521031	-0.659453	-0.000010
H154	H	0.426812	-0.645412	0.000095
H155	H	0.461973	-0.590873	-0.095724
H156	H	0.462045	-0.590843	0.095597
H157	H	0.523304	-0.687668	-0.095581
H158	H	0.523315	-0.687563	0.095738
H159	H	0.525569	-0.459912	-0.000031
H160	H	0.741042	0.142712	-0.761189
O161	O	0.808811	0.210421	-0.358397
C162	C	0.904525	0.232192	-0.314423
C163	C	0.866722	0.194411	-0.393558
H164	H	0.951352	0.219270	-0.342842
H165	H	0.898670	0.226290	-0.199215
H166	H	0.891529	0.279021	-0.342699
H167	H	0.879694	0.147568	-0.365397
H168	H	0.872581	0.200362	-0.508747
O169	O	0.566059	-0.743894	-0.000138
C170	C	0.518926	-0.829114	-0.000014
C171	C	0.576426	-0.804214	-0.000007
H172	H	0.527289	-0.877886	0.000120
H173	H	0.493451	-0.813987	-0.095691
H174	H	0.493468	-0.813898	0.095630
H175	H	0.601931	-0.819419	-0.095587
H176	H	0.601858	-0.819338	0.095732
H177	H	0.118486	0.073361	-0.350832
H178	H	0.762629	-0.765963	-0.000125
O179	O	0.603559	0.005252	-0.216499
C180	C	0.565893	-0.032474	-0.010021
C181	C	0.565932	-0.032472	-0.168302
H182	H	0.535484	-0.062980	0.028994
H183	H	0.551179	0.012628	0.029112
H184	H	0.611026	-0.047102	0.029011
H185	H	0.520815	-0.017870	-0.207451
H186	H	0.580679	-0.077582	-0.207342
H187	H	0.803351	0.205067	-0.630671
H188	H	0.391711	0.076660	-0.226207
H189	H	0.819117	-0.392053	-0.000184
H190	H	0.499449	0.077951	0.225950
H191	H	-0.047002	0.071371	-0.226252
O192	O	0.518710	-0.346461	-0.000100
C193	C	0.415633	-0.338684	0.000035
C194	C	0.472382	-0.379119	0.000049
H195	H	0.378162	-0.365071	0.000184
H196	H	0.413322	-0.310536	-0.095650
H197	H	0.413405	-0.310505	0.095671
H198	H	0.474647	-0.407334	-0.095522
H199	H	0.474669	-0.407228	0.095797
H200	H	-0.154767	0.070070	-0.226249
O201	O	0.778726	-0.108268	-0.000163
C202	C	0.881653	-0.128599	-0.000269
C203	C	0.824122	-0.153441	-0.000286
H204	H	0.918370	-0.165109	-0.000398
H205	H	0.884625	-0.101160	0.095408
H206	H	0.884551	-0.101131	-0.095913
H207	H	0.821185	-0.180935	0.095293
H208	H	0.821174	-0.180848	-0.096026
