data_functionalizedCrystal
_audit_creation_method	'MofGen! by Chris Wilmer'
_symmetry_space_group_name_H-M	'P1'
_symmetry_Int_Tables_number	1
_symmetry_cell_setting	triclinic
loop_
_symmetry_equiv_pos_as_xyz
  x,y,z
_cell_length_a	12.837943
_cell_length_b	14.185328
_cell_length_c	12.837942
_cell_angle_alpha	103.375564
_cell_angle_beta	94.828940
_cell_angle_gamma	103.375839
loop_
_atom_site_label
_atom_site_type_symbol
_atom_site_fract_x
_atom_site_fract_y
_atom_site_fract_z
O1	O	1.425609	0.083403	0.295412
O2	O	1.122477	0.083409	0.281970
O3	O	1.267320	0.083400	0.137123
O4	O	1.280766	0.083412	0.440260
O5	O	1.220748	-0.083444	0.090563
O6	O	1.075906	-0.083435	0.235410
O7	O	1.379038	-0.083441	0.248852
Cu8	Cu	1.223219	-0.098672	0.237880
Cu9	Cu	1.278295	0.098640	0.292943
O10	O	1.234195	-0.083432	0.393699
C11	C	1.060123	-0.000012	0.254149
C12	C	0.943708	-0.000010	0.240605
C13	C	0.718832	-0.000018	0.403432
C14	C	0.609450	-0.000017	0.390711
C15	C	0.615558	-0.000013	0.202441
C16	C	0.724940	-0.000015	0.215162
C17	C	0.776573	-0.000015	0.315661
C18	C	0.885959	-0.000010	0.328384
C19	C	0.892064	-0.000014	0.140112
C20	C	0.782681	-0.000012	0.127391
N21	N	1.184489	-0.237450	0.199151
C22	C	1.430740	-0.605053	0.445468
C23	C	1.401425	-0.710080	0.416118
C24	C	1.261918	-0.710068	0.276529
C25	C	1.291218	-0.605039	0.305870
C26	C	1.375630	-0.552539	0.390340
C27	C	1.236108	-0.552525	0.250742
C28	C	1.265409	-0.447505	0.280078
C29	C	1.349820	-0.394998	0.364542
C30	C	1.404931	-0.447519	0.419676
C31	C	1.151701	-0.605026	0.166267
C32	C	1.096591	-0.552513	0.111139
C33	C	1.125887	-0.447491	0.140480
C34	C	1.210298	-0.394984	0.224944
C35	C	1.070776	-0.394970	0.085346
C36	C	1.100077	-0.289949	0.114682
C37	C	1.239599	-0.289964	0.254280
C38	C	1.441393	-0.000017	0.276674
C39	C	1.557809	-0.000013	0.290219
C40	C	1.239493	-0.000021	0.074774
C41	C	1.225949	-0.000019	-0.041641
N42	N	1.317033	0.237418	0.331663
C43	C	1.388783	-0.000002	-0.266510
C44	C	1.376062	0.000000	-0.375892
C45	C	1.187789	-0.000006	-0.369786
C46	C	1.200510	-0.000008	-0.260405
C47	C	1.301010	-0.000007	-0.208771
C48	C	1.313728	-0.000017	-0.099389
C49	C	1.125458	-0.000016	-0.093283
C50	C	1.112737	-0.000014	-0.202665
C51	C	1.262023	-0.000008	0.456049
C52	C	1.275568	-0.000004	0.572466
H53	H	0.573476	-0.000096	0.120596
Br54	Br	1.545310	-0.533794	0.560099
H55	H	1.447538	0.000008	-0.422898
Br56	Br	1.025310	-0.218674	0.039841
Br57	Br	1.476235	-0.781347	0.490937
H58	H	0.562440	-0.000021	0.462183
Br59	Br	0.956035	-0.000004	0.464775
Br60	Br	0.788916	-0.000000	0.539824
Br61	Br	0.712597	-0.000017	-0.008996
Br62	Br	0.970439	0.000011	0.020992
H63	H	1.308326	-0.247216	0.323074
H64	H	1.395559	-0.000020	-0.057351
Br65	Br	1.389596	-0.252469	0.404353
Br66	Br	1.519502	-0.376260	0.534307
H67	H	1.470611	-0.000011	-0.224472
H68	H	1.193192	-0.752827	0.207750
H69	H	1.105970	0.000004	-0.411843
H70	H	1.127852	-0.690540	0.142379
H71	H	1.027865	-0.595272	0.042360
H72	H	1.002054	-0.437730	0.016563
Br73	Br	0.976355	-0.000003	-0.272746
H74	H	1.053984	-0.000029	-0.046263
