data_functionalizedCrystal
_audit_creation_method	'MofGen! by Chris Wilmer'
_symmetry_space_group_name_H-M	'P1'
_symmetry_Int_Tables_number	1
_symmetry_cell_setting	triclinic
loop_
_symmetry_equiv_pos_as_xyz
  x,y,z
_cell_length_a	10.723024
_cell_length_b	10.540539
_cell_length_c	9.798715
_cell_angle_alpha	89.998989
_cell_angle_beta	89.996609
_cell_angle_gamma	84.496680
loop_
_atom_site_label
_atom_site_type_symbol
_atom_site_fract_x
_atom_site_fract_y
_atom_site_fract_z
O1	O	1.657276	0.178046	-0.113475
O2	O	2.157276	0.678046	0.386525
O3	O	1.294132	0.195088	-0.113479
O4	O	1.794132	0.695088	0.386521
O5	O	1.483989	0.001856	-0.113475
O6	O	1.983989	0.501856	0.386525
O7	O	1.467419	0.371278	-0.113479
O8	O	1.967419	0.871278	0.386521
O9	O	1.483974	0.001856	0.113507
O10	O	1.983974	0.501856	0.613507
O11	O	1.294118	0.195088	0.113503
O12	O	1.794118	0.695088	0.613503
O13	O	1.657262	0.178045	0.113507
O14	O	2.157262	0.678045	0.613507
Zn15	Zn	1.475687	0.186567	0.149543
Zn16	Zn	1.975687	0.686567	0.649543
Zn17	Zn	1.475706	0.186567	-0.149515
Zn18	Zn	1.975706	0.686567	0.350485
O19	O	1.467405	0.371277	0.113503
O20	O	1.967405	0.871277	0.613503
C21	C	1.247624	0.193848	0.000011
C22	C	1.747624	0.693848	0.500011
C23	C	1.109068	0.190137	0.000010
C24	C	1.609068	0.690137	0.500010
C25	C	1.034139	0.298260	0.000008
C26	C	1.534139	0.798260	0.500008
C27	C	0.890934	0.294427	0.000006
C28	C	1.390934	0.794427	0.500006
C29	C	1.482739	-0.045446	0.000013
C30	C	1.982739	0.454554	0.500013
C31	C	1.479021	-0.186392	0.000006
C32	C	1.979021	0.313608	0.500006
C33	C	1.336563	-0.369746	-0.000505
C34	C	1.836563	0.130254	0.499495
C35	C	1.340332	-0.223130	0.000006
C36	C	1.840332	0.276870	0.500006
C37	C	1.545757	-0.248085	0.129625
C38	C	2.045757	0.251915	0.629625
C39	C	1.541023	-0.394627	0.129734
C40	C	2.041023	0.105373	0.629734
C41	C	1.543860	-0.395146	-0.128387
C42	C	2.043860	0.104854	0.371613
C43	C	1.545138	-0.248165	-0.130101
C44	C	2.045138	0.251835	0.369899
C45	C	1.703769	0.179286	0.000013
C46	C	2.203769	0.679286	0.500013
C47	C	1.842325	0.182997	0.000006
C48	C	2.342325	0.682997	0.500006
C49	C	1.468654	0.418580	0.000012
C50	C	1.968654	0.918580	0.500012
C51	C	1.472372	0.559526	0.000010
C52	C	1.972372	1.059526	0.500010
N53	N	1.475684	0.186565	0.353643
N54	N	1.975684	0.686565	0.853643
N55	N	1.475720	0.186559	-0.353615
N56	N	1.975720	0.686559	0.146385
C57	C	1.555399	0.105075	0.421421
C58	C	2.055399	0.605075	0.921421
C59	C	1.555419	0.105071	0.578584
C60	C	2.055419	0.605071	1.078584
H61	H	0.906704	0.090430	-0.000001
H62	H	1.406704	0.590430	0.499999
Cl63	Cl	1.660466	-0.002927	0.331385
Cl64	Cl	2.160466	0.497073	0.831385
H65	H	1.644035	-0.442423	-0.129258
H66	H	2.144035	0.057577	0.370742
Cl67	Cl	1.701253	-0.210845	-0.142194
Cl68	Cl	2.201253	0.289155	0.357806
Cl69	Cl	1.098771	0.445565	0.000010
Cl70	Cl	1.598771	0.945565	0.500010
Cl71	Cl	1.252074	-0.416884	0.141777
Cl72	Cl	1.752074	0.083116	0.641777
H73	H	1.491691	-0.422801	0.226625
H74	H	1.991691	0.077199	0.726625
Cl75	Cl	1.660800	-0.002643	0.668568
Cl76	Cl	2.160800	0.497357	1.168568
H77	H	0.826548	0.386988	-0.000001
H78	H	1.326548	0.886988	0.499999
Cl79	Cl	1.044437	0.042832	0.000021
Cl80	Cl	1.544437	0.542832	0.500021
H81	H	1.407473	0.256334	0.588107
H82	H	1.907473	0.756334	1.088107
Cl83	Cl	1.370326	0.294274	0.443680
Cl84	Cl	1.870326	0.794274	0.943680
Cl85	Cl	1.259257	-0.157306	-0.143448
Cl86	Cl	1.759257	0.342694	0.356552
H87	H	1.640766	-0.442646	0.135615
H88	H	2.140766	0.057354	0.635615
H89	H	1.499387	-0.205461	0.226081
H90	H	1.999387	0.294539	0.726081
H91	H	1.281784	-0.398318	-0.093457
H92	H	1.781784	0.101682	0.406543
H93	H	1.287441	-0.181347	0.093075
H94	H	1.787441	0.318653	0.593075
Cl95	Cl	1.470380	-0.184295	-0.278170
Cl96	Cl	1.970380	0.315705	0.221830
H97	H	1.498979	-0.426675	-0.226630
H98	H	1.998979	0.073325	0.273370
Cl99	Cl	1.703005	-0.213656	0.137075
Cl100	Cl	2.203005	0.286344	0.637075
