data_functionalizedCrystal
_audit_creation_method	'MofGen! by Chris Wilmer'
_symmetry_space_group_name_H-M	'P1'
_symmetry_Int_Tables_number	1
_symmetry_cell_setting	triclinic
loop_
_symmetry_equiv_pos_as_xyz
  x,y,z
_cell_length_a	21.606444
_cell_length_b	21.606444
_cell_length_c	21.606444
_cell_angle_alpha	89.999794
_cell_angle_beta	120.000184
_cell_angle_gamma	60.003871
loop_
_atom_site_label
_atom_site_type_symbol
_atom_site_fract_x
_atom_site_fract_y
_atom_site_fract_z
Zr1	Zr	0.677470	-0.081220	-0.596214
O2	O	0.806580	-0.180035	-0.497390
O3	O	0.548354	-0.050931	-0.626510
O4	O	0.677467	-0.180044	-0.626509
O5	O	0.677471	0.050928	-0.497391
O6	O	0.677471	-0.180048	-0.728358
O7	O	0.677467	-0.050922	-0.497391
O8	O	0.446512	0.050912	-0.728361
O9	O	0.908430	-0.180031	-0.497389
O10	O	0.601467	-0.038012	-0.715439
O11	O	0.601467	0.038000	-0.639429
O12	O	0.753480	-0.114014	-0.639428
O13	O	0.753480	-0.038002	-0.563419
Zr14	Zr	0.677484	0.081212	-0.758652
Zr15	Zr	0.677477	-0.081226	-0.758653
Zr16	Zr	0.677477	0.081219	-0.596214
Zr17	Zr	0.839910	-0.081215	-0.596212
Zr18	Zr	0.515043	0.081207	-0.758654
O19	O	0.806599	0.050923	-0.728357
O20	O	0.806589	-0.180043	-0.728357
O21	O	0.806589	0.050932	-0.497390
O22	O	0.548374	0.180027	-0.857476
O23	O	0.548364	-0.050940	-0.857477
O24	O	0.548364	0.180036	-0.626510
O25	O	0.677482	-0.050935	-0.857475
O26	O	0.677487	0.180036	-0.728358
O27	O	0.677482	0.180040	-0.626508
O28	O	0.677487	0.050914	-0.857475
O29	O	0.908436	-0.180036	-0.626506
O30	O	0.446517	0.180029	-0.728360
O31	O	0.446523	0.180024	-0.857477
O32	O	0.446517	0.050907	-0.857477
O33	O	0.908436	-0.050914	-0.497389
O34	O	0.908441	-0.050919	-0.626506
O35	O	0.601473	0.114006	-0.715439
O36	O	0.601473	0.037994	-0.791448
O37	O	0.753487	-0.038007	-0.715437
O38	O	0.753487	0.038005	-0.639428
C39	C	0.474289	-0.000010	-0.677435
C40	C	0.405329	-0.000013	-0.677436
C41	C	0.677468	0.000004	-0.474247
C42	C	0.677465	0.000007	-0.405288
C43	C	0.677485	0.203182	-0.677433
C44	C	0.677488	0.272142	-0.677433
C45	C	0.372931	-0.039691	-0.717111
C46	C	0.308131	-0.039686	-0.717113
C47	C	0.275734	-0.000006	-0.677437
C48	C	0.308134	0.039677	-0.637761
C49	C	0.372929	0.039676	-0.637763
C50	C	0.046825	0.039684	-0.637752
C51	C	-0.017972	0.039680	-0.637751
C52	C	-0.017973	-0.039679	-0.717102
C53	C	0.046822	-0.039680	-0.717104
C54	C	0.079213	0.000007	-0.677432
C55	C	0.149475	0.000002	-0.677431
C56	C	0.205477	-0.000005	-0.677433
C57	C	0.880665	0.000003	-0.677431
C58	C	0.949625	0.000005	-0.677430
C59	C	0.677468	-0.203190	-0.677434
C60	C	0.677465	-0.272149	-0.677434
C61	C	0.756837	0.264869	-0.637757
C62	C	0.756835	0.329666	-0.637754
C63	C	0.677483	0.401735	-0.677431
C64	C	0.598127	0.409007	-0.717108
C65	C	0.598131	0.344210	-0.717106
C66	C	0.598112	0.670325	-0.717114
C67	C	0.598115	0.735123	-0.717114
C68	C	0.756816	0.655781	-0.637762
C69	C	0.756820	0.590984	-0.637760
C70	C	0.677465	0.598261	-0.677433
C71	C	0.677469	0.528000	-0.677435
C72	C	0.677478	0.471996	-0.677434
C73	C	0.598116	0.039676	-0.412566
C74	C	0.598118	0.039677	-0.347768
C75	C	0.677471	0.000003	-0.275694
C76	C	0.756826	-0.039667	-0.268418
C77	C	0.756822	-0.039663	-0.333215
C78	C	0.756841	-0.039684	-0.007100
C79	C	0.756838	-0.039687	0.057698
C80	C	0.598137	0.039656	-0.021653
C81	C	0.598134	0.039660	-0.086450
C82	C	0.677488	-0.000007	-0.079169
C83	C	0.677485	-0.000006	-0.149430
C84	C	0.677475	-0.000002	-0.205434
C85	C	0.677485	-0.000011	0.119381
C86	C	0.677488	-0.000012	0.050421
C87	C	0.474297	-0.000018	-0.880621
C88	C	0.405340	-0.000023	-0.949581
C89	C	0.474297	0.203176	-0.677435
C90	C	0.405340	0.272133	-0.677436
C91	C	0.474306	0.203168	-0.880621
C92	C	0.405352	0.272122	-0.949581
C93	C	0.880647	-0.203175	-0.474246
C94	C	0.949601	-0.272130	-0.405285
C95	C	0.880656	0.000011	-0.474245
C96	C	0.949613	0.000015	-0.405285
C97	C	0.880656	-0.203183	-0.677431
C98	C	0.949613	-0.272140	-0.677431
C99	C	0.372954	-0.039707	-0.942290
C100	C	0.308170	-0.039726	-1.007079
C101	C	0.275770	-0.000058	-1.079159
C102	C	0.308163	0.039627	-1.086449
C103	C	0.372949	0.039642	-1.021661
C104	C	0.372961	0.344197	-0.717112
C105	C	0.308177	0.408996	-0.717110
C106	C	0.275770	0.401729	-0.677435
C107	C	0.308156	0.329657	-0.637754
C108	C	0.372943	0.264860	-0.637752
C109	C	0.372970	0.264827	-1.021648
C110	C	0.308189	0.329611	-1.086450
C111	C	0.275787	0.401690	-1.079182
C112	C	0.308175	0.408984	-1.007108
C113	C	0.372959	0.344201	-0.942308
C114	C	0.981991	-0.264834	-0.333218
C115	C	1.046792	-0.329618	-0.268417
C116	C	1.079198	-0.401697	-0.275684
C117	C	1.046805	-0.408991	-0.347759
C118	C	0.982010	-0.344208	-0.412559
C119	C	0.982006	0.039692	-0.412577
C120	C	1.046808	0.039694	-0.347788
C121	C	1.079211	0.000023	-0.275707
C122	C	1.046815	-0.039659	-0.268417
C123	C	0.982019	-0.039665	-0.333206
C124	C	0.982000	-0.264849	-0.717113
C125	C	1.046784	-0.329635	-0.717127
C126	C	1.079184	-0.401712	-0.677454
C127	C	1.046791	-0.409002	-0.637771
C128	C	0.982004	-0.344217	-0.637761
H129	H	0.399308	-0.072007	-0.749416
H130	H	0.821460	-0.071995	0.116386
H131	H	1.131958	-0.454442	-0.222914
N132	N	0.842405	0.647939	-0.594964
H133	H	0.877099	0.619315	-0.539459
H134	H	0.877025	0.619343	-0.615840
H135	H	0.281773	0.071924	-1.145145
H136	H	0.073187	0.072002	-0.605452
N137	N	1.081749	-0.486746	-0.594978
H138	H	1.051406	-0.481543	-0.569834
H139	H	1.070472	-0.515355	-0.631414
N140	N	0.512524	0.812859	-0.759911
H141	H	0.462253	0.807637	-0.785043
H142	H	0.509072	0.841471	-0.723478
H143	H	1.073174	0.072011	-0.353738
N144	N	0.407905	0.352055	-0.759905
H145	H	0.472945	0.326940	-0.723513
H146	H	0.396566	0.326956	-0.799838
H147	H	1.073199	-0.467686	-0.353667
N148	N	0.947044	-0.187097	-0.325369
H149	H	0.977405	-0.192317	-0.269877
H150	H	0.958316	-0.158483	-0.350528
N151	N	-0.052921	0.082489	-0.594962
H152	H	-0.117960	0.122408	-0.631357
H153	H	-0.041586	0.046055	-0.555031
H154	H	0.073200	-0.071994	-0.749410
N155	N	0.273193	0.321822	-0.594971
H156	H	0.284463	0.346941	-0.555046
H157	H	0.208163	0.346932	-0.631425
H158	H	0.955642	-0.350164	-0.605444
H159	H	0.533497	0.676260	-0.749421
N160	N	0.205887	-0.000076	-1.149030
H161	H	0.152118	0.053654	-1.180219
H162	H	0.228506	-0.022694	-1.180162
N163	N	0.947073	0.082473	-0.490316
H164	H	0.882035	0.122403	-0.518973
H165	H	0.977500	0.107553	-0.485031
N166	N	0.273244	0.486726	-0.759916
H167	H	0.322683	0.492793	-0.739111
H168	H	0.246349	0.492736	-0.815410
H169	H	0.533517	0.467691	-0.749410
N170	N	0.273189	0.082482	-0.594973
H171	H	0.227227	0.076462	-0.600989
H172	H	0.322672	0.061655	-0.539486
H173	H	1.131972	0.000034	-0.222959
H174	H	0.955646	-0.071972	-0.327258
N175	N	1.081753	-0.082430	-0.190672
H176	H	1.127707	-0.076393	-0.150742
H177	H	1.032261	-0.061583	-0.184678
H178	H	0.281752	-0.071995	-0.749420
N179	N	-0.052916	-0.082477	-0.759905
H180	H	-0.003483	-0.137979	-0.739088
H181	H	-0.098894	-0.076397	-0.753878
N182	N	1.149054	-0.471585	-0.677476
H183	H	1.164648	-0.456022	-0.708638
H184	H	1.202779	-0.502747	-0.623723
N185	N	0.947063	-0.187114	-0.759905
H186	H	0.977415	-0.192336	-0.785045
H187	H	0.882021	-0.158506	-0.799791
H188	H	0.223016	0.454497	-0.677443
N189	N	1.081712	-0.321763	-0.759932
H190	H	1.051357	-0.266270	-0.785055
H191	H	1.146754	-0.346915	-0.723507
N192	N	0.407909	0.187134	-0.594911
H193	H	0.377558	0.192370	-0.569766
H194	H	0.396659	0.158479	-0.631303
H195	H	0.399308	0.071984	-0.605454
H196	H	0.955639	-0.350158	-0.471238
H197	H	0.399343	0.206142	-1.027580
N198	N	1.081719	-0.321741	-0.190686
H199	H	1.051347	-0.266248	-0.195921
H200	H	1.070448	-0.346898	-0.162068
H201	H	0.533517	0.350136	-0.749412
H202	H	0.821437	0.532305	-0.605454
N203	N	0.842432	0.187143	-0.594969
H204	H	0.877125	0.181075	-0.539464
H205	H	0.830332	0.147239	-0.601047
N206	N	0.407874	0.082449	-1.029531
H207	H	0.377512	0.107576	-1.085026
H208	H	0.396590	0.122344	-1.004384
H209	H	0.223036	0.454434	-1.131953
N210	N	0.273263	0.321733	-1.164181
H211	H	0.303617	0.266240	-1.158946
H212	H	0.208221	0.346887	-1.192798
H213	H	0.281783	0.467679	-1.001201
N214	N	0.407870	0.352071	-0.864577
H215	H	0.472911	0.326964	-0.835910
H216	H	0.377445	0.407577	-0.869874
N217	N	0.842418	0.321823	-0.594969
H218	H	0.877118	0.293197	-0.539464
H219	H	0.877031	0.293227	-0.615852
N220	N	0.512528	0.082460	-0.490301
H221	H	0.462262	0.107591	-0.485076
H222	H	0.509068	0.122350	-0.518915
N223	N	0.512546	0.082458	-0.164185
H224	H	0.524584	0.076441	-0.204129
H225	H	0.477889	0.061626	-0.170190
H226	H	0.281804	-0.072042	-1.001128
H227	H	0.533505	0.071981	-0.353700
N228	N	0.512544	0.082439	-0.029509
H229	H	0.524582	0.076420	0.022473
H230	H	0.477885	0.137925	-0.058163
H231	H	0.821456	-0.071997	-0.001161
H232	H	0.821436	-0.071966	-0.209729
H233	H	0.821437	-0.071957	-0.327284
H234	H	0.399334	-0.072019	-0.883604
