data_functionalizedCrystal
_audit_creation_method	'MofGen! by Chris Wilmer'
_symmetry_space_group_name_H-M	'P1'
_symmetry_Int_Tables_number	1
_symmetry_cell_setting	triclinic
loop_
_symmetry_equiv_pos_as_xyz
  x,y,z
_cell_length_a	14.519731
_cell_length_b	14.519709
_cell_length_c	12.376457
_cell_angle_alpha	101.296542
_cell_angle_beta	78.684744
_cell_angle_gamma	83.684499
loop_
_atom_site_label
_atom_site_type_symbol
_atom_site_fract_x
_atom_site_fract_y
_atom_site_fract_z
O1	O	1.241513	0.103338	-0.094009
O2	O	1.741513	0.603338	0.405991
O3	O	0.973039	0.117553	-0.094012
O4	O	1.473039	0.617553	0.405988
O5	O	1.114392	-0.023790	-0.094000
O6	O	1.614392	0.476210	0.406000
O7	O	1.100160	0.244682	-0.094021
O8	O	1.600160	0.744682	0.405979
O9	O	1.079067	0.011497	0.094009
O10	O	1.579067	0.511497	0.594009
O11	O	0.937713	0.152841	0.093998
O12	O	1.437713	0.652841	0.593998
O13	O	1.206187	0.138626	0.094000
O14	O	1.706187	0.638626	0.594000
Zn15	Zn	1.066342	0.151336	0.123849
Zn16	Zn	1.566342	0.651336	0.623849
Zn17	Zn	1.112885	0.104843	-0.123861
Zn18	Zn	1.612885	0.604843	0.376139
O19	O	1.064834	0.279969	0.093989
O20	O	1.564834	0.779969	0.593989
C21	C	0.921017	0.134531	-0.000007
C22	C	1.421017	0.634531	0.499993
C23	C	0.818637	0.132535	-0.000007
C24	C	1.318637	0.632535	0.499993
C25	C	0.735493	0.130912	-0.000012
C26	C	1.235493	0.630912	0.499988
C27	C	0.631185	0.128886	-0.000012
C28	C	1.131185	0.628886	0.499988
C29	C	0.548046	0.127277	-0.000012
C30	C	1.048046	0.627277	0.499988
C31	C	0.443731	0.125250	-0.000014
C32	C	0.943731	0.625250	0.499986
C33	C	1.096066	-0.040506	0.000005
C34	C	1.596066	0.459494	0.500005
C35	C	1.094078	-0.142888	0.000005
C36	C	1.594078	0.357112	0.500005
C37	C	1.086764	-0.517789	-0.000024
C38	C	1.586764	-0.017789	0.499976
C39	C	1.088795	-0.413480	-0.000016
C40	C	1.588795	0.086520	0.499984
C41	C	1.090420	-0.330342	-0.000008
C42	C	1.590420	0.169658	0.499992
C43	C	1.092452	-0.226026	-0.000002
C44	C	1.592452	0.273974	0.499998
C45	C	1.258210	0.121647	-0.000007
C46	C	1.758210	0.621647	0.499993
C47	C	1.360592	0.123642	-0.000014
C48	C	1.860592	0.623642	0.499986
C49	C	1.083161	0.296685	-0.000019
C50	C	1.583161	0.796685	0.499981
C51	C	1.085151	0.399065	-0.000027
C52	C	1.585151	0.899065	0.499973
N53	N	1.034584	0.183066	0.292905
N54	N	1.534584	0.683066	0.792905
N55	N	1.144650	0.073106	-0.292917
N56	N	1.644650	0.573106	0.207083
C57	C	1.218370	-0.000567	0.647905
C58	C	1.718370	0.499433	1.147905
C59	C	1.240592	-0.022775	0.529567
C60	C	1.740592	0.477225	1.029567
C61	C	1.189092	0.028683	0.470395
C62	C	1.689092	0.528683	0.970395
C63	C	1.115366	0.102353	0.529574
C64	C	1.615366	0.602353	1.029574
C65	C	1.093146	0.124568	0.647924
C66	C	1.593146	0.624568	1.147924
C67	C	1.063868	0.153818	0.470414
C68	C	1.563868	0.653818	0.970414
C69	C	0.990142	0.227489	0.529593
C70	C	1.490142	0.727489	1.029593
C71	C	0.967926	0.249699	0.647931
C72	C	1.467926	0.749699	1.147931
C73	C	1.019426	0.198241	0.707102
C74	C	1.519426	0.698241	1.207102
C75	C	1.086088	0.131603	0.352065
C76	C	1.586088	0.631603	0.852065
C77	C	0.960864	0.256739	0.352084
C78	C	1.460864	0.756739	0.852084
C79	C	0.938642	0.278947	0.470422
C80	C	1.438642	0.778947	0.970422
H81	H	1.146116	0.071621	0.303892
H82	H	1.646116	0.571621	0.803892
H83	H	1.207188	0.010598	0.374039
H84	H	1.707188	0.510598	0.874039
Br85	Br	0.890972	0.326586	0.271789
Br86	Br	1.390972	0.826586	0.771789
H87	H	1.300620	-0.082756	0.481388
H88	H	1.800620	0.417244	0.981388
Br89	Br	0.989259	0.228377	0.867711
Br90	Br	1.489259	0.728377	1.367711
Br91	Br	1.288267	-0.070386	0.728208
Br92	Br	1.788267	0.429614	1.228208
H93	H	0.907901	0.309693	0.696114
H94	H	1.407901	0.809693	1.196114
Br95	Br	0.838586	0.378924	0.550746
Br96	Br	1.338586	0.878924	1.050746
