data_functionalizedCrystal
_audit_creation_method	'MofGen! by Chris Wilmer'
_symmetry_space_group_name_H-M	'P1'
_symmetry_Int_Tables_number	1
_symmetry_cell_setting	triclinic
loop_
_symmetry_equiv_pos_as_xyz
  x,y,z
_cell_length_a	16.109301
_cell_length_b	23.532407
_cell_length_c	15.186229
_cell_angle_alpha	89.991614
_cell_angle_beta	89.999006
_cell_angle_gamma	83.155131
loop_
_atom_site_label
_atom_site_type_symbol
_atom_site_fract_x
_atom_site_fract_y
_atom_site_fract_z
O1	O	1.102555	0.073203	-0.073189
O2	O	1.602555	0.573203	0.426811
O3	O	0.860421	0.082312	-0.073203
O4	O	1.360421	0.582312	0.426797
O5	O	0.988790	-0.005147	-0.073180
O6	O	1.488790	0.494853	0.426820
O7	O	0.974187	0.160662	-0.073213
O8	O	1.474187	0.660662	0.426787
O9	O	0.988781	-0.005148	0.073278
O10	O	1.488781	0.494852	0.573278
O11	O	0.860413	0.082311	0.073254
O12	O	1.360413	0.582311	0.573254
O13	O	1.102546	0.073201	0.073268
O14	O	1.602546	0.573201	0.573268
Zn15	Zn	0.981478	0.077756	0.096514
Zn16	Zn	1.481478	0.577756	0.596514
Zn17	Zn	0.981489	0.077758	-0.096449
Zn18	Zn	1.481489	0.577758	0.403551
O19	O	0.974178	0.160661	0.073245
O20	O	1.474178	0.660661	0.573245
C21	C	0.829445	0.081943	0.000024
C22	C	1.329445	0.581943	0.500024
C23	C	0.737158	0.080836	0.000020
C24	C	1.237158	0.580836	0.500020
C25	C	0.427781	0.129116	0.000025
C26	C	0.927781	0.629116	0.500025
C27	C	0.514493	0.130161	0.000020
C28	C	1.014493	0.630161	0.500020
C29	C	0.535182	0.026393	0.000029
C30	C	1.035182	0.526393	0.500029
C31	C	0.448471	0.025349	0.000028
C32	C	0.948471	0.525349	0.500028
C33	C	0.394773	0.076712	0.000031
C34	C	0.894773	0.576712	0.500031
C35	C	0.568195	0.078801	0.000026
C36	C	1.068195	0.578801	0.500026
C37	C	0.662212	0.079934	0.000021
C38	C	1.162212	0.579934	0.500021
C39	C	0.300749	0.075580	0.000035
C40	C	0.800749	0.575580	0.500035
C41	C	0.988414	-0.026365	0.000051
C42	C	1.488414	0.473635	0.500051
C43	C	0.987296	-0.089586	0.000058
C44	C	1.487296	0.410414	0.500058
C45	C	1.056249	-0.488435	0.000014
C46	C	1.556249	0.011565	0.500014
C47	C	1.055210	-0.547839	0.000007
C48	C	1.555210	-0.047839	0.500007
O49	O	1.119130	-0.584348	-0.000022
O50	O	1.619130	-0.084348	0.499978
N51	N	0.978895	-0.570747	0.000003
N52	N	1.478895	-0.070747	0.500003
C53	C	0.903614	-0.534247	-0.000003
C54	C	1.403614	-0.034247	0.499997
O55	O	0.838607	-0.559187	-0.000007
O56	O	1.338607	-0.059187	0.499993
C57	C	0.904653	-0.474844	-0.000002
C58	C	1.404653	0.025156	0.499998
C59	C	0.980973	-0.451940	0.000010
C60	C	1.480973	0.048060	0.500010
C61	C	1.132562	-0.465530	0.000025
C62	C	1.632562	0.034470	0.500025
C63	C	1.133601	-0.406130	0.000034
C64	C	1.633601	0.093870	0.500034
C65	C	1.058325	-0.369635	0.000030
C66	C	1.558325	0.130365	0.500030
C67	C	0.982011	-0.392540	0.000019
C68	C	1.482011	0.107460	0.500019
C69	C	0.829373	-0.438346	-0.000014
C70	C	1.329373	0.061654	0.499986
C71	C	0.830419	-0.378939	-0.000015
C72	C	1.330419	0.121061	0.499985
C73	C	0.906739	-0.356035	-0.000002
C74	C	1.406739	0.143965	0.499998
C75	C	0.907774	-0.296645	0.000024
C76	C	1.407774	0.203355	0.500024
N77	N	0.984089	-0.273737	0.000028
N78	N	1.484089	0.226263	0.500028
C79	C	1.059365	-0.310232	0.000031
C80	C	1.559365	0.189768	0.500031
C81	C	0.901437	-0.658998	-0.000005
C82	C	1.401437	-0.158998	0.499995
C83	C	0.900396	-0.718399	0.000001
C84	C	1.400396	-0.218399	0.500001
C85	C	1.051993	-0.731987	0.000009
C86	C	1.551993	-0.231987	0.500009
C87	C	1.053032	-0.672585	0.000009
C88	C	1.553032	-0.172585	0.500009
C89	C	0.977752	-0.636090	-0.000001
C90	C	1.477752	-0.136090	0.499999
C91	C	1.061539	-0.185487	0.000049
C92	C	1.561539	0.314513	0.500049
C93	C	1.062571	-0.126082	0.000061
C94	C	1.562571	0.373918	0.500061
C95	C	0.910975	-0.112499	0.000049
C96	C	1.410975	0.387501	0.500049
C97	C	0.909943	-0.171899	0.000041
C98	C	1.409943	0.328101	0.500041
C99	C	0.985232	-0.208393	0.000039
C100	C	1.485232	0.291607	0.500039
O101	O	0.843888	-0.260101	0.000049
O102	O	1.343888	0.239899	0.500049
O103	O	1.124361	-0.285284	0.000024
O104	O	1.624361	0.214716	0.500024
C105	C	1.133523	0.073571	0.000039
C106	C	1.633523	0.573571	0.500039
C107	C	1.225809	0.074677	0.000038
C108	C	1.725809	0.574677	0.500038
C109	C	0.974554	0.181879	0.000012
C110	C	1.474554	0.681879	0.500012
C111	C	0.975672	0.245100	-0.000001
C112	C	1.475672	0.745100	0.499999
N113	N	0.981477	0.077755	0.228207
N114	N	1.481477	0.577755	0.728207
N115	N	0.981498	0.077755	-0.228142
N116	N	1.481498	0.577755	0.271858
C117	C	1.038337	0.039041	0.453940
C118	C	1.538337	0.539041	0.953940
C119	C	1.038340	0.039039	0.546130
C120	C	1.538340	0.539039	1.046130
C121	C	0.924631	0.116471	0.546118
C122	C	1.424631	0.616471	1.046118
C123	C	0.924625	0.116469	0.453930
C124	C	1.424625	0.616469	0.953930
C125	C	0.981483	0.077754	0.407844
C126	C	1.481483	0.577754	0.907844
C127	C	0.981491	0.077755	0.592221
C128	C	1.481491	0.577755	1.092221
C129	C	0.981494	0.077754	0.692177
C130	C	1.481494	0.577754	1.192177
C131	C	0.981480	0.077755	0.307881
C132	C	1.481480	0.577755	0.807881
H133	H	1.122847	-0.215194	0.000043
H134	H	1.622847	0.284806	0.500043
H135	H	1.084633	0.007516	0.416419
H136	H	1.584633	0.507516	0.916419
N137	N	0.412871	-0.031178	0.000039
N138	N	0.912871	0.468822	0.500039
H139	H	0.377354	-0.033925	0.054330
H140	H	0.877354	0.466075	0.554330
H141	H	0.377399	-0.033888	-0.054289
H142	H	0.877399	0.466112	0.445711
H143	H	0.840130	-0.629286	-0.000006
H144	H	1.340130	-0.129286	0.499994
H145	H	1.124722	-0.107437	0.000074
H146	H	1.624722	0.392563	0.500074
H147	H	1.195748	-0.387488	0.000040
H148	H	1.695748	0.112512	0.500040
N149	N	1.213759	-0.504888	0.000030
N150	N	1.713759	-0.004888	0.500030
H151	H	1.262253	-0.481355	0.000038
H152	H	1.762253	0.018645	0.500038
H153	H	1.216628	-0.529833	0.054326
H154	H	1.716628	-0.029833	0.554326
H155	H	0.578914	-0.015425	0.000029
H156	H	1.078914	0.484575	0.500029
N157	N	0.863309	0.158225	0.595826
N158	N	1.363309	0.658225	1.095826
H159	H	0.871940	0.152354	0.661222
H160	H	1.371940	0.652354	1.161222
H161	H	0.872575	0.198628	0.579699
H162	H	1.372575	0.698628	1.079699
H163	H	1.115179	-0.653940	0.000018
H164	H	1.615179	-0.153940	0.500018
H165	H	1.113286	-0.761713	0.000008
H166	H	1.613286	-0.261713	0.500008
N167	N	0.827630	-0.196608	0.000040
N168	N	1.327630	0.303392	0.500040
H169	H	0.780101	-0.164472	0.000042
H170	H	1.280101	0.335528	0.500042
H171	H	0.823900	-0.220947	-0.054261
H172	H	1.323900	0.279053	0.445739
H173	H	0.769115	-0.349227	-0.000024
H174	H	1.269115	0.150773	0.499976
N175	N	0.818081	-0.743100	0.000011
N176	N	1.318081	-0.243100	0.500011
H177	H	0.770556	-0.710962	0.000014
H178	H	1.270556	-0.210962	0.500014
H179	H	0.814341	-0.767444	-0.054283
H180	H	1.314341	-0.267444	0.445717
N181	N	0.863294	0.158222	0.404204
N182	N	1.363294	0.658222	0.904204
H183	H	0.827279	0.182749	0.447387
H184	H	1.327279	0.682749	0.947387
H185	H	0.894907	0.183404	0.365940
H186	H	1.394907	0.683404	0.865940
H187	H	0.541363	0.172834	0.000015
H188	H	1.041363	0.672834	0.500015
N189	N	0.369861	0.184512	0.000047
N190	N	0.869861	0.684512	0.500047
H191	H	0.403933	0.217868	0.000048
H192	H	0.903933	0.717868	0.500048
H193	H	0.333424	0.186351	-0.054240
H194	H	0.833424	0.686351	0.445760
N195	N	0.747056	-0.463040	-0.000017
N196	N	1.247056	0.036960	0.499983
H197	H	0.699535	-0.430899	-0.000020
H198	H	1.199535	0.069101	0.499980
H199	H	0.743318	-0.487384	-0.054310
H200	H	1.243318	0.012616	0.445690
N201	N	0.829788	-0.073131	0.000069
N202	N	1.329788	0.426869	0.500069
H203	H	0.842033	-0.032025	0.000079
H204	H	1.342033	0.467975	0.500079
H205	H	0.796500	-0.080532	-0.054224
H206	H	1.296500	0.419468	0.445776
H207	H	1.084635	0.007514	0.583659
H208	H	1.584635	0.507514	1.083659
