data_functionalizedCrystal
_audit_creation_method	'MofGen! by Chris Wilmer'
_symmetry_space_group_name_H-M	'P1'
_symmetry_Int_Tables_number	1
_symmetry_cell_setting	triclinic
loop_
_symmetry_equiv_pos_as_xyz
  x,y,z
_cell_length_a	10.686220
_cell_length_b	25.639239
_cell_length_c	10.686551
_cell_angle_alpha	85.590528
_cell_angle_beta	90.308082
_cell_angle_gamma	94.420676
loop_
_atom_site_label
_atom_site_type_symbol
_atom_site_fract_x
_atom_site_fract_y
_atom_site_fract_z
Zn1	Zn	1.972159	-0.127472	-0.562366
Zn2	Zn	1.955834	-0.222109	-0.352592
Zn3	Zn	1.746264	-0.140848	-0.368681
Zn4	Zn	1.762265	-0.221050	-0.578370
O5	O	1.859130	-0.177870	-0.465502
O6	O	2.145540	-0.134872	-0.521108
O7	O	1.914505	-0.217371	-0.179180
O8	O	1.776365	-0.065903	-0.394409
O9	O	2.133546	-0.204401	-0.366988
O10	O	1.942329	-0.056076	-0.536709
O11	O	1.760535	-0.157668	-0.191000
O12	O	1.572839	-0.156641	-0.409928
O13	O	1.803636	-0.202595	-0.751793
O14	O	1.584595	-0.215565	-0.563985
O15	O	1.957844	-0.133844	-0.740035
O16	O	1.930021	-0.295139	-0.382506
O17	O	1.787807	-0.294361	-0.548384
C18	C	1.533200	-0.187440	-0.490440
C19	C	1.393768	-0.191545	-0.501138
C20	C	1.858915	-0.313720	-0.465461
C21	C	1.858941	-0.371833	-0.465476
C22	C	1.933401	-0.732571	-0.379250
C23	C	1.933451	-0.787174	-0.379263
O24	O	1.996536	-0.815738	-0.305904
N25	N	1.859357	-0.814099	-0.465568
C26	C	1.785218	-0.786419	-0.551874
O27	O	1.722201	-0.814336	-0.625286
C28	C	1.785176	-0.731818	-0.551866
C29	C	1.859265	-0.704895	-0.465547
C30	C	2.007485	-0.705649	-0.292939
C31	C	2.007433	-0.651050	-0.292925
C32	C	1.933297	-0.623374	-0.379222
C33	C	1.859213	-0.650297	-0.465533
C34	C	1.711045	-0.704138	-0.638177
C35	C	1.711010	-0.649533	-0.638162
C36	C	1.785099	-0.622611	-0.551843
C37	C	1.785025	-0.568023	-0.551816
N38	N	1.859119	-0.541097	-0.465510
C39	C	1.933255	-0.568773	-0.379213
C40	C	1.785314	-0.901087	-0.551887
C41	C	1.785349	-0.955688	-0.551890
C42	C	1.933583	-0.956438	-0.379280
C43	C	1.933541	-0.901836	-0.379272
C44	C	1.859408	-0.874161	-0.465581
C45	C	1.933139	-0.454112	-0.379189
C46	C	1.933077	-0.399509	-0.379179
C47	C	1.784847	-0.398763	-0.551793
C48	C	1.784904	-0.453362	-0.551799
C49	C	1.859060	-0.481035	-0.465493
O50	O	1.721976	-0.539424	-0.625140
O51	O	1.996274	-0.540849	-0.305825
C52	C	2.186333	-0.168263	-0.440468
C53	C	2.325768	-0.164169	-0.429800
C54	C	1.884346	-0.166610	-0.792704
C55	C	1.895092	-0.161811	-0.932138
C56	C	1.859383	-0.041486	-0.465568
C57	C	1.859490	0.016632	-0.465597
C58	C	1.834084	-0.189046	-0.139567
C59	C	1.823582	-0.193690	-0.000116
H60	H	1.993527	-0.476637	-0.308913
O61	O	1.978050	-0.124855	-0.989758
C62	C	2.042352	-0.096170	-0.898564
H63	H	2.039537	-0.120638	-0.804784
H64	H	2.144093	-0.086399	-0.928956
H65	H	1.995426	-0.058280	-0.888210
H66	H	1.374220	-0.137590	-0.360538
O67	O	1.336166	-0.223299	-0.583799
C68	C	1.427385	-0.247915	-0.648004
H69	H	1.516847	-0.248742	-0.589530
H70	H	1.390401	-0.289769	-0.664097
H71	H	1.448666	-0.225139	-0.742301
H72	H	1.993408	-0.377591	-0.308884
O73	O	2.079533	-0.624980	-0.209037
C74	C	2.144950	-0.661126	-0.132866
H75	H	2.153222	-0.698142	-0.183940
H76	H	2.242770	-0.642869	-0.112009
H77	H	2.091758	-0.671594	-0.041059
H78	H	2.067862	-0.728176	-0.222665
H79	H	1.993871	-0.879919	-0.308984
H80	H	1.993954	-0.978981	-0.309016
O81	O	1.713516	-0.981804	-0.635902
C82	C	1.750437	-0.963309	-0.758856
H83	H	1.851132	-0.945091	-0.757596
H84	H	1.744382	-0.997395	-0.821672
H85	H	1.685653	-0.932486	-0.796723
O86	O	1.713207	-0.874156	-0.635553
C87	C	1.626680	-0.847468	-0.570260
H88	H	1.663674	-0.841245	-0.471840
H89	H	1.613719	-0.807812	-0.622636
H90	H	1.532682	-0.871766	-0.563506
O91	O	1.639048	-0.730198	-0.722154
C92	C	1.573598	-0.694053	-0.798293
H93	H	1.625292	-0.653450	-0.798715
H94	H	1.567774	-0.706805	-0.898161
H95	H	1.474806	-0.692674	-0.759572
H96	H	1.650643	-0.627002	-0.708450
O97	O	1.712901	-0.479434	-0.635765
C98	C	1.647428	-0.443297	-0.711904
H99	H	1.699102	-0.402690	-0.712334
H100	H	1.641607	-0.456052	-0.811770
H101	H	1.548636	-0.441927	-0.673179
H102	H	1.724483	-0.376221	-0.622052
O103	O	1.740899	-0.230656	-0.942143
C104	C	1.806494	-0.264915	-0.860891
H105	H	1.900111	-0.244344	-0.834130
H106	H	1.748367	-0.276557	-0.772599
H107	H	1.824044	-0.301545	-0.910240
