data_functionalizedCrystal
_audit_creation_method	'MofGen! by Chris Wilmer'
_symmetry_space_group_name_H-M	'P1'
_symmetry_Int_Tables_number	1
_symmetry_cell_setting	triclinic
loop_
_symmetry_equiv_pos_as_xyz
  x,y,z
_cell_length_a	16.992694
_cell_length_b	16.992695
_cell_length_c	16.053802
_cell_angle_alpha	92.741074
_cell_angle_beta	87.249047
_cell_angle_gamma	90.668223
loop_
_atom_site_label
_atom_site_type_symbol
_atom_site_fract_x
_atom_site_fract_y
_atom_site_fract_z
O1	O	1.053959	0.163815	-0.069325
O2	O	1.553959	0.663815	0.430675
O3	O	0.825560	0.161983	-0.069350
O4	O	1.325560	0.661983	0.430650
O5	O	0.938844	0.048699	-0.069331
O6	O	1.438844	0.548699	0.430669
O7	O	0.940676	0.277099	-0.069344
O8	O	1.440676	0.777099	0.430656
O9	O	0.932607	0.054907	0.069527
O10	O	1.432607	0.554907	0.569527
O11	O	0.819323	0.168191	0.069508
O12	O	1.319323	0.668191	0.569508
O13	O	1.047722	0.170023	0.069533
O14	O	1.547722	0.670023	0.569533
Zn15	Zn	0.932532	0.170093	0.091567
Zn16	Zn	1.432532	0.670093	0.591567
Zn17	Zn	0.940750	0.161913	-0.091384
Zn18	Zn	1.440750	0.661913	0.408616
O19	O	0.934438	0.283307	0.069514
O20	O	1.434438	0.783307	0.569514
C21	C	0.793082	0.162731	0.000076
C22	C	1.293082	0.662731	0.500076
C23	C	0.705597	0.155702	0.000067
C24	C	1.205597	0.655702	0.500067
C25	C	0.659607	0.223520	0.000064
C26	C	1.159607	0.723520	0.500064
C27	C	0.577405	0.216911	0.000076
C28	C	1.077405	0.716911	0.500076
C29	C	0.541197	0.142484	0.000085
C30	C	1.041197	0.642484	0.500085
C31	C	0.587193	0.074661	0.000091
C32	C	1.087193	0.574661	0.500091
C33	C	0.669393	0.081270	0.000085
C34	C	1.169393	0.581270	0.500085
C35	C	0.295881	0.115090	0.000109
C36	C	0.795881	0.615090	0.500109
C37	C	0.213676	0.108486	0.000112
C38	C	0.713676	0.608486	0.500112
C39	C	0.203893	0.250737	0.000099
C40	C	0.703893	0.750737	0.500099
C41	C	0.286095	0.257339	0.000088
C42	C	0.786095	0.757339	0.500088
C43	C	0.332084	0.189517	0.000098
C44	C	0.832084	0.689517	0.500098
N45	N	0.457174	0.135727	0.000094
N46	N	0.957174	0.635727	0.500094
N47	N	0.416105	0.196275	0.000094
N48	N	0.916105	0.696275	0.500094
C49	C	0.933370	0.022443	0.000098
C50	C	1.433370	0.522443	0.500098
C51	C	0.926341	-0.065042	0.000097
C52	C	1.426341	0.434958	0.500097
C53	C	0.994158	-0.111032	0.000105
C54	C	1.494158	0.388968	0.500105
C55	C	0.987550	-0.193233	0.000096
C56	C	1.487550	0.306767	0.500096
C57	C	0.913123	-0.229442	0.000086
C58	C	1.413123	0.270558	0.500086
C59	C	0.845300	-0.183446	0.000075
C60	C	1.345300	0.316554	0.500075
C61	C	0.851910	-0.101246	0.000078
C62	C	1.351910	0.398754	0.500078
C63	C	0.885729	-0.474757	0.000071
C64	C	1.385729	0.025243	0.500071
C65	C	0.879124	-0.556962	0.000071
C66	C	1.379124	-0.056962	0.500071
C67	C	1.021375	-0.566745	0.000091
C68	C	1.521375	-0.066745	0.500091
C69	C	1.027978	-0.484543	0.000099
C70	C	1.527978	0.015457	0.500099
C71	C	0.960155	-0.438554	0.000083
C72	C	1.460155	0.061446	0.500083
N73	N	0.906366	-0.313465	0.000079
N74	N	1.406366	0.186535	0.500079
N75	N	0.966913	-0.354533	0.000084
N76	N	1.466913	0.145467	0.500084
C77	C	1.080201	0.169275	0.000105
C78	C	1.580201	0.669275	0.500105
C79	C	1.167685	0.176304	0.000109
C80	C	1.667685	0.676304	0.500109
C81	C	0.939913	0.309563	0.000084
C82	C	1.439913	0.809563	0.500084
C83	C	0.946942	0.397047	0.000079
C84	C	1.446942	0.897047	0.500079
N85	N	0.926930	0.175675	0.216427
N86	N	1.426930	0.675675	0.716427
N87	N	0.946358	0.156325	-0.216243
N88	N	1.446358	0.656325	0.283757
C89	C	0.975152	0.127492	0.260129
C90	C	1.475152	0.627492	0.760129
C91	C	0.971241	0.131404	0.347535
C92	C	1.471241	0.631404	0.847535
C93	C	0.919110	0.183504	0.391237
C94	C	1.419110	0.683504	0.891237
C95	C	0.870883	0.231689	0.347529
C96	C	1.370883	0.731689	0.847529
C97	C	0.874791	0.227772	0.260125
C98	C	1.374791	0.727772	0.760125
C99	C	0.902039	0.200593	0.652644
C100	C	1.402039	0.700593	1.152644
C101	C	0.898136	0.204508	0.740055
C102	C	1.398136	0.704508	1.240055
C103	C	0.998493	0.104222	0.740054
C104	C	1.498493	0.604222	1.240054
C105	C	1.002400	0.100313	0.652648
C106	C	1.502400	0.600313	1.152648
C107	C	0.954169	0.148494	0.608948
C108	C	1.454169	0.648494	1.108948
N109	N	0.915113	0.187507	0.480580
N110	N	1.415113	0.687507	0.980580
N111	N	0.958163	0.144487	0.519606
N112	N	1.458163	0.644487	1.019606
H113	H	0.706838	0.026046	0.000087
H114	H	1.206838	0.526046	0.500087
C115	C	0.167057	0.373142	0.071471
C116	C	0.667057	0.873142	0.571471
C117	C	0.153343	0.325286	0.000095
C118	C	0.653343	0.825286	0.500095
H119	H	0.135853	0.419170	0.071466
H120	H	0.635853	0.919170	0.571466
H121	H	0.153424	0.345001	0.119887
H122	H	0.653424	0.845001	0.619887
H123	H	0.221197	0.387720	0.071457
H124	H	0.721197	0.887720	0.571457
H125	H	0.099204	0.310703	0.000112
H126	H	0.599204	0.810703	0.500112
H127	H	0.166972	0.353433	-0.048334
H128	H	0.666972	0.853433	0.451666
H129	H	0.828433	0.274107	0.383117
H130	H	1.328433	0.774107	0.883117
C131	C	1.085579	0.112724	0.161779
C132	C	1.585579	0.612724	0.661779
C133	C	1.032419	0.070199	0.212073
C134	C	1.532419	0.570199	0.712073
H135	H	1.120924	0.077344	0.132111
H136	H	1.620924	0.577344	0.632111
H137	H	1.057419	0.140872	0.123261
H138	H	1.557419	0.640872	0.623261
H139	H	1.114457	0.148788	0.195860
H140	H	1.614457	0.648788	0.695860
H141	H	1.003537	0.034139	0.177991
H142	H	1.503537	0.534139	0.677991
H143	H	1.060582	0.042038	0.250595
H144	H	1.560582	0.542038	0.750595
H145	H	0.689081	0.284126	0.000056
H146	H	1.189081	0.784126	0.500056
C147	C	0.780028	-0.006320	-0.071316
C148	C	1.280028	0.493680	0.428684
C149	C	0.777362	-0.050690	0.000068
C150	C	1.277362	0.449310	0.500068
H151	H	0.734002	0.024886	-0.071325
H152	H	1.234002	0.524886	0.428675
H153	H	0.825294	0.027004	-0.071302
H154	H	1.325294	0.527004	0.428698
H155	H	0.782583	-0.040762	-0.119732
H156	H	1.282583	0.459238	0.380268
H157	H	0.774813	-0.016248	0.048485
H158	H	1.274813	0.483752	0.548485
H159	H	0.732084	-0.084017	0.000063
H160	H	1.232084	0.415983	0.500063
H161	H	0.184198	0.047875	0.000119
H162	H	0.684198	0.547875	0.500119
H163	H	0.835522	0.267007	0.224543
H164	H	1.335522	0.767007	0.724543
C165	C	0.447056	0.269943	0.000074
C166	C	0.947056	0.769943	0.500074
C167	C	0.526852	0.291458	0.000062
C168	C	1.026852	0.791458	0.500062
H169	H	0.415848	0.315969	0.000069
H170	H	0.915848	0.815969	0.500069
H171	H	0.437767	0.237470	-0.048338
H172	H	0.937767	0.737470	0.451662
H173	H	0.433434	0.241810	0.048508
H174	H	0.933434	0.741810	0.548508
H175	H	0.540475	0.319586	-0.048375
H176	H	1.040475	0.819586	0.451625
H177	H	0.536145	0.323944	0.048479
H178	H	1.036145	0.823944	0.548479
C179	C	0.369699	0.350491	0.071415
C180	C	0.869699	0.850491	0.571415
C181	C	0.325912	0.339143	0.000053
C182	C	0.825912	0.839143	0.500053
H183	H	0.394288	0.400989	0.071378
H184	H	0.894288	0.900989	0.571378
H185	H	0.335675	0.347154	0.119841
H186	H	0.835675	0.847154	0.619841
H187	H	0.408840	0.311030	0.071415
H188	H	0.908840	0.811030	0.571415
H189	H	0.286767	0.378600	0.000056
H190	H	0.786767	0.878600	0.500056
H191	H	0.359938	0.342487	-0.048385
H192	H	0.859938	0.842487	0.451615
C193	C	1.134102	-0.128967	0.000110
C194	C	1.634102	0.371033	0.500110
C195	C	1.075972	-0.071236	0.000111
C196	C	1.575972	0.428764	0.500111
H197	H	1.184611	-0.104399	0.000105
H198	H	1.684611	0.395601	0.500105
H199	H	1.126394	-0.158659	0.048530
H200	H	1.626394	0.341341	0.548530
H201	H	1.130730	-0.162988	-0.048316
H202	H	1.630730	0.337012	0.451684
H203	H	1.079341	-0.037218	0.048541
H204	H	1.579341	0.462782	0.548541
H205	H	1.083683	-0.041530	-0.048314
H206	H	1.583683	0.458470	0.451686
H207	H	0.333316	0.059864	0.000118
H208	H	0.833316	0.559864	0.500118
H209	H	0.557705	0.014061	0.000110
H210	H	1.057705	0.514061	0.500110
C211	C	1.065858	-0.294522	-0.071286
C212	C	1.565858	0.205478	0.428714
C213	C	1.062101	-0.243782	0.000102
C214	C	1.562101	0.256218	0.500102
H215	H	1.111889	-0.325723	-0.071285
H216	H	1.611889	0.174277	0.428715
H217	H	1.020596	-0.327851	-0.071288
H218	H	1.520596	0.172149	0.428712
H219	H	1.067652	-0.264400	-0.119699
H220	H	1.567652	0.235600	0.380301
H221	H	1.060301	-0.273904	0.048516
H222	H	1.560301	0.226096	0.548516
H223	H	1.107375	-0.210449	0.000113
H224	H	1.607375	0.289551	0.500113
C225	C	1.114723	-0.394592	0.071491
C226	C	1.614723	0.105408	0.571491
C227	C	1.109789	-0.444741	0.000106
C228	C	1.609789	0.055259	0.500106
H229	H	1.165232	-0.370024	0.071498
H230	H	1.665232	0.129976	0.571498
H231	H	1.075280	-0.355445	0.071481
H232	H	1.575280	0.144555	0.571481
H233	H	1.107015	-0.424304	0.119906
H234	H	1.607015	0.075696	0.619906
H235	H	1.117491	-0.415029	-0.048310
H236	H	1.617491	0.084971	0.451690
H237	H	1.149243	-0.483894	0.000108
H238	H	1.649243	0.016106	0.500108
C239	C	1.099673	-0.668041	-0.071289
C240	C	1.599673	-0.168041	0.428711
C241	C	1.095923	-0.617297	0.000096
C242	C	1.595923	-0.117297	0.500096
H243	H	1.145702	-0.699245	-0.071290
H244	H	1.645702	-0.199245	0.428710
H245	H	1.054408	-0.701366	-0.071287
H246	H	1.554408	-0.201366	0.428713
H247	H	1.101466	-0.637921	-0.119705
H248	H	1.601466	-0.137921	0.380295
H249	H	1.094124	-0.647416	0.048511
H250	H	1.594124	-0.147416	0.548511
H251	H	1.141200	-0.583967	0.000101
H252	H	1.641200	-0.083967	0.500101
C253	C	0.739173	-0.539042	0.000026
C254	C	1.239173	-0.039042	0.500026
C255	C	0.797308	-0.596765	0.000046
C256	C	1.297308	-0.096765	0.500046
H257	H	0.688668	-0.563617	0.000004
H258	H	1.188668	-0.063617	0.500004
H259	H	0.742523	-0.505025	0.048448
H260	H	1.242523	-0.005025	0.548448
H261	H	0.746897	-0.509345	-0.048399
H262	H	1.246897	-0.009345	0.451601
H263	H	0.789588	-0.626459	0.048473
H264	H	1.289588	-0.126459	0.548473
H265	H	0.793956	-0.630796	-0.048381
H266	H	1.293956	-0.130796	0.451619
H267	H	1.044848	0.057889	0.617067
H268	H	1.544848	0.557889	1.117067
C269	C	0.813831	-0.379848	-0.071326
C270	C	1.313831	0.120152	0.428674
C271	C	0.811176	-0.424217	0.000059
C272	C	1.311176	0.075783	0.500059
H273	H	0.767799	-0.348649	-0.071334
H274	H	1.267799	0.151351	0.428666
H275	H	0.859092	-0.346516	-0.071315
H276	H	1.359092	0.153484	0.428685
H277	H	0.816390	-0.414290	-0.119741
H278	H	1.316390	0.085710	0.380259
H279	H	0.808623	-0.389774	0.048475
H280	H	1.308623	0.110226	0.548475
H281	H	0.765903	-0.457552	0.000055
H282	H	1.265903	0.042448	0.500055
C283	C	0.725231	-0.203607	-0.071331
C284	C	1.225231	0.296393	0.428669
C285	C	0.763489	-0.223247	0.000059
C286	C	1.263489	0.276753	0.500059
H287	H	0.674725	-0.228182	-0.071340
H288	H	1.174725	0.271818	0.428660
H289	H	0.719460	-0.148076	-0.071325
H290	H	1.219460	0.351924	0.428675
H291	H	0.755557	-0.221254	-0.119743
H292	H	1.255557	0.278746	0.380257
H293	H	0.733166	-0.205594	0.048471
H294	H	1.233166	0.294406	0.548471
H295	H	0.769256	-0.278789	0.000060
H296	H	1.269256	0.221211	0.500060
H297	H	1.010506	0.092170	0.383116
H298	H	1.510506	0.592170	0.883116
H299	H	1.037759	0.064994	0.775643
H300	H	1.537759	0.564994	1.275643
H301	H	0.855683	0.246937	0.775633
H302	H	1.355683	0.746937	1.275633
H303	H	0.862769	0.239826	0.617070
H304	H	1.362769	0.739826	1.117070
