data_functionalizedCrystal
_audit_creation_method	'MofGen! by Chris Wilmer'
_symmetry_space_group_name_H-M	'P1'
_symmetry_Int_Tables_number	1
_symmetry_cell_setting	triclinic
loop_
_symmetry_equiv_pos_as_xyz
  x,y,z
_cell_length_a	12.759401
_cell_length_b	12.645330
_cell_length_c	12.759393
_cell_angle_alpha	90.029149
_cell_angle_beta	89.981433
_cell_angle_gamma	89.974770
loop_
_atom_site_label
_atom_site_type_symbol
_atom_site_fract_x
_atom_site_fract_y
_atom_site_fract_z
Zn1	Zn	1.606172	0.422004	-0.594001
Zn2	Zn	1.606031	0.599308	-0.418328
Zn3	Zn	1.430473	0.422056	-0.418340
Zn4	Zn	1.430427	0.599223	-0.593970
O5	O	1.518276	0.510648	-0.506160
O6	O	1.753174	0.445537	-0.570706
O7	O	1.582703	0.575852	-0.271309
O8	O	1.453859	0.273702	-0.441660
O9	O	1.753070	0.575802	-0.441640
O10	O	1.582943	0.273664	-0.570717
O11	O	1.453722	0.445626	-0.271317
O12	O	1.283446	0.445544	-0.441630
O13	O	1.453779	0.575657	-0.740995
O14	O	1.283412	0.575707	-0.570664
O15	O	1.582898	0.445455	-0.741018
O16	O	1.582658	0.747644	-0.441610
O17	O	1.453643	0.747581	-0.570653
C18	C	1.245308	0.510623	-0.506145
C19	C	1.128532	0.510638	-0.506164
C20	C	1.073717	0.442937	-0.573473
C21	C	0.963992	0.442957	-0.573479
C22	C	0.963908	0.578388	-0.438865
C23	C	1.073630	0.578362	-0.438854
C24	C	1.128618	0.375213	-0.640782
C25	C	1.073803	0.307508	-0.708097
C26	C	0.964079	0.307528	-0.708104
C27	C	0.909170	0.375254	-0.640795
C28	C	1.518159	0.786077	-0.506149
C29	C	1.518205	0.903907	-0.506180
C30	C	1.437351	1.071476	-0.587614
C31	C	1.436956	0.948917	-0.587350
C32	C	1.488225	0.948511	-0.395459
C33	C	1.487713	1.071109	-0.395955
C34	C	1.629477	1.070996	-0.534575
C35	C	1.628813	0.948389	-0.536994
C36	C	1.792309	0.510673	-0.506175
C37	C	1.909086	0.510684	-0.506182
C38	C	1.518349	0.510541	-0.780193
C39	C	1.518381	0.510495	-0.896970
C40	C	1.518385	1.234142	-0.506197
C41	C	1.518337	1.116312	-0.506223
C42	C	1.585622	0.442692	-0.951846
C43	C	1.585647	0.442654	-1.061570
C44	C	1.451186	0.578230	-1.061533
C45	C	1.451157	0.578262	-0.951811
C46	C	1.652846	0.374925	-0.897005
C47	C	1.720094	0.307118	-0.951881
C48	C	1.720119	0.307080	-1.061605
C49	C	1.652896	0.374849	-1.116453
C50	C	1.518263	0.510678	-0.233192
C51	C	1.518435	0.510425	-0.116416
H52	H	0.919193	0.633529	-0.384068
O53	O	1.792644	0.233950	-1.120798
H54	H	1.839386	0.186842	-1.064227
O55	O	1.133019	0.234452	-0.780680
H56	H	1.111981	0.252726	-0.863109
O57	O	1.378633	0.651388	-0.892611
H58	H	1.331903	0.698516	-0.949177
H59	H	1.217961	0.375188	-0.640784
O60	O	0.790823	0.375265	-0.640802
H61	H	0.761870	0.353742	-0.561598
O62	O	1.132765	0.651384	-0.366264
H63	H	1.076157	0.698493	-0.319474
O64	O	1.709402	1.109402	-0.456054
H65	H	1.787648	1.077068	-0.476595
H66	H	1.652909	0.374800	-1.205798
O67	O	1.378688	0.651325	-1.120683
H68	H	1.390011	0.639917	-1.206199
O69	O	1.461720	0.908951	-0.696114
H70	H	1.474092	0.977190	-0.749374
O71	O	1.665685	1.111831	-0.639710
H72	H	1.744202	1.078742	-0.657897
O73	O	0.904950	0.234504	-0.780698
H74	H	0.961564	0.187415	-0.827501
O75	O	1.461879	1.110953	-0.696554
H76	H	1.541730	1.084811	-0.719434
O77	O	1.328889	1.112390	-0.563045
H78	H	1.328843	1.200067	-0.567102
O79	O	1.327838	0.910177	-0.562442
H80	H	1.275148	0.979009	-0.550530
O81	O	1.380099	1.109130	-0.364150
H82	H	1.328912	1.039950	-0.348566
O83	O	1.658784	0.909753	-0.644919
H84	H	1.595178	0.859077	-0.676490
H85	H	1.544141	1.100773	-0.333245
O86	O	1.652812	0.374965	-0.778660
H87	H	1.710846	0.316447	-0.749743
H88	H	1.545350	0.919359	-0.333159
O89	O	1.381739	0.907980	-0.363058
H90	H	1.349998	0.856082	-0.425628
H91	H	1.692339	0.917745	-0.482029
O92	O	1.792600	0.234029	-0.892733
H93	H	1.781297	0.245453	-0.807216
