data_functionalizedCrystal
_audit_creation_method	'MofGen! by Chris Wilmer'
_symmetry_space_group_name_H-M	'P1'
_symmetry_Int_Tables_number	1
_symmetry_cell_setting	triclinic
loop_
_symmetry_equiv_pos_as_xyz
  x,y,z
_cell_length_a	12.759395
_cell_length_b	18.050589
_cell_length_c	12.759387
_cell_angle_alpha	89.968857
_cell_angle_beta	89.981185
_cell_angle_gamma	90.029758
loop_
_atom_site_label
_atom_site_type_symbol
_atom_site_fract_x
_atom_site_fract_y
_atom_site_fract_z
Zn1	Zn	1.606152	-0.295581	-0.594011
Zn2	Zn	1.606007	-0.419793	-0.418334
Zn3	Zn	1.430456	-0.295624	-0.418348
Zn4	Zn	1.430402	-0.419737	-0.593973
O5	O	1.518254	-0.357684	-0.506166
O6	O	1.753154	-0.312063	-0.570717
O7	O	1.582681	-0.403363	-0.271315
O8	O	1.453846	-0.191694	-0.441672
O9	O	1.753047	-0.403321	-0.441648
O10	O	1.582930	-0.191662	-0.570731
O11	O	1.453705	-0.312137	-0.271325
O12	O	1.283428	-0.312083	-0.441635
O13	O	1.453754	-0.403227	-0.740999
O14	O	1.283388	-0.403268	-0.570666
O15	O	1.582877	-0.312010	-0.741027
O16	O	1.582629	-0.523710	-0.441611
O17	O	1.453612	-0.523669	-0.570652
C18	C	1.245287	-0.357675	-0.506148
C19	C	1.128510	-0.357689	-0.506166
C20	C	1.128507	-0.452794	-0.640308
C21	C	1.073645	-0.500352	-0.707383
C22	C	0.963923	-0.500361	-0.707395
C23	C	0.909061	-0.452805	-0.640329
C24	C	0.963924	-0.405247	-0.573255
C25	C	1.073648	-0.405245	-0.573247
C26	C	0.963927	-0.310139	-0.439119
C27	C	1.073648	-0.310133	-0.439099
C28	C	0.909065	-0.262583	-0.372052
C29	C	0.963927	-0.215028	-0.304971
C30	C	1.073655	-0.215021	-0.304960
C31	C	1.128510	-0.262575	-0.372025
C32	C	1.518127	-0.550636	-0.506149
C33	C	1.518169	-0.633182	-0.506177
C34	C	1.448079	-0.832637	-0.576325
C35	C	1.422466	-0.882087	-0.480456
C36	C	1.518272	-0.784312	-0.506190
C37	C	1.543937	-0.881944	-0.602070
C38	C	1.518370	-0.930297	-0.506212
C39	C	1.492609	-0.832675	-0.410271
C40	C	1.614125	-0.832527	-0.531950
C41	C	1.588548	-0.881955	-0.436015
C42	C	1.518213	-0.700214	-0.506179
C43	C	1.518429	-1.014394	-0.506212
C44	C	1.792288	-0.357694	-0.506185
C45	C	1.909064	-0.357698	-0.506193
C46	C	1.518325	-0.357607	-0.780200
C47	C	1.518356	-0.357575	-0.896977
C48	C	1.518410	-0.163978	-0.506207
C49	C	1.518477	-0.081433	-0.506224
C50	C	1.384061	-0.262575	-0.897006
C51	C	1.316933	-0.215060	-0.951882
C52	C	1.316965	-0.215033	-1.061604
C53	C	1.384129	-0.262528	-1.116452
C54	C	1.451257	-0.310042	-1.061577
C55	C	1.451221	-0.310062	-0.951852
C56	C	1.585545	-0.405045	-1.061547
C57	C	1.585520	-0.405069	-0.951825
C58	C	1.652709	-0.452540	-1.116396
C59	C	1.719844	-0.500052	-1.061520
C60	C	1.719811	-0.500076	-0.951792
C61	C	1.652648	-0.452584	-0.896950
C62	C	1.518244	-0.357707	-0.233199
C63	C	1.518417	-0.357530	-0.116423
H64	H	1.217852	-0.262576	-0.372019
H65	H	1.217848	-0.452797	-0.640297
C66	C	1.243054	-0.162818	-0.891548
C67	C	1.243012	-0.162841	-0.770858
C68	C	1.169130	-0.110602	-0.710529
C69	C	1.095288	-0.058340	-0.770890
C70	C	1.095327	-0.058315	-0.891587
C71	C	1.169209	-0.110554	-0.951916
H72	H	1.297677	-0.201530	-0.726169
H73	H	1.169102	-0.110621	-0.621181
H74	H	1.040596	-0.019669	-0.726231
H75	H	1.040662	-0.019626	-0.936276
H76	H	1.169237	-0.110536	-1.041264
H77	H	1.647950	-0.903473	-0.376645
C78	C	1.243125	-0.162769	-1.121975
C79	C	1.123677	-0.168819	-1.106892
C80	C	1.049838	-0.116556	-1.167264
C81	C	1.095446	-0.058242	-1.242718
C82	C	1.214899	-0.052189	-1.257804
C83	C	1.288739	-0.104452	-1.197432
H84	H	1.089910	-0.211989	-1.051033
H85	H	0.961410	-0.121037	-1.156096
H86	H	1.040785	-0.019554	-1.287409
H87	H	1.248667	-0.009020	-1.313663
H88	H	1.377167	-0.099971	-1.208600
C89	C	1.367777	-0.803373	-0.656334
C90	C	1.250908	-0.822974	-0.644350
C91	C	1.170604	-0.793707	-0.724352
C92	C	1.207169	-0.744840	-0.816339
C93	C	1.324043	-0.725236	-0.828328
C94	C	1.404347	-0.754503	-0.748325
H95	H	1.223836	-0.859150	-0.576252
H96	H	1.084086	-0.808219	-0.715477
H97	H	1.147723	-0.723175	-0.875562
H98	H	1.351115	-0.689059	-0.896426
H99	H	1.490865	-0.739991	-0.757201
C100	C	1.573219	-0.911184	-0.711594
C101	C	1.496191	-0.961108	-0.771946
C102	C	1.525463	-0.990345	-0.881471
C103	C	1.631764	-0.969657	-0.930644
C104	C	1.708799	-0.919730	-0.870291
C105	C	1.679527	-0.890493	-0.760766
H106	H	1.417494	-0.976425	-0.735546
H107	H	1.468436	-1.027304	-0.926148
H108	H	1.653433	-0.991300	-1.011721
H109	H	1.787495	-0.904414	-0.906691
H110	H	1.736554	-0.853534	-0.716089
C111	C	1.313018	-0.911498	-0.451026
C112	C	1.223311	-0.856851	-0.427915
C113	C	1.113861	-0.886257	-0.398494
C114	C	1.094119	-0.970312	-0.392183
C115	C	1.183829	-1.024965	-0.415295
C116	C	1.293279	-0.995558	-0.444716
H117	H	1.237923	-0.794624	-0.432586
H118	H	1.047452	-0.845799	-0.381385
H119	H	1.013097	-0.992081	-0.370404
H120	H	1.169217	-1.087192	-0.410624
H121	H	1.359688	-1.036016	-0.461824
C122	C	1.723542	-0.803092	-0.561416
C123	C	1.812760	-0.857714	-0.586462
C124	C	1.922177	-0.828277	-0.615943
C125	C	1.942377	-0.744217	-0.620379
C126	C	1.853156	-0.689590	-0.595332
C127	C	1.743739	-0.719027	-0.565851
H128	H	1.797809	-0.919944	-0.583179
H129	H	1.988224	-0.868716	-0.634484
H130	H	2.023374	-0.722426	-0.642202
H131	H	1.868107	-0.627359	-0.598615
H132	H	1.677692	-0.678588	-0.547310
C133	C	1.463216	-0.803566	-0.300708
C134	C	1.457694	-0.719563	-0.280461
C135	C	1.428303	-0.690452	-0.170900
C136	C	1.404435	-0.745344	-0.081587
C137	C	1.409956	-0.829352	-0.101831
C138	C	1.439347	-0.858463	-0.211392
H139	H	1.475363	-0.678924	-0.346578
H140	H	1.424216	-0.628264	-0.155914
H141	H	1.382678	-0.723795	-0.000483
H142	H	1.392287	-0.869991	-0.035713
H143	H	1.443434	-0.920651	-0.226377
H144	H	1.118325	-0.539070	-0.761988
H145	H	1.384037	-0.262586	-0.807665
C146	C	1.793718	-0.552291	-1.121852
C147	C	1.793747	-0.552268	-1.242543
C148	C	1.867622	-0.604507	-1.302879
C149	C	1.941469	-0.656770	-1.242526
C150	C	1.941443	-0.656795	-1.121829
C151	C	1.867567	-0.604556	-1.061492
H152	H	1.739078	-0.513578	-1.287226
H153	H	1.867641	-0.604488	-1.392228
H154	H	1.996157	-0.695441	-1.287191
H155	H	1.996111	-0.695485	-1.077146
H156	H	1.867548	-0.604575	-0.972144
H157	H	1.384140	-0.262508	-1.205793
C158	C	1.793653	-0.552344	-0.891430
C159	C	1.913099	-0.546297	-0.906525
C160	C	1.986942	-0.598566	-0.846167
C161	C	1.941338	-0.656884	-0.770715
C162	C	1.821885	-0.662934	-0.755618
C163	C	1.748043	-0.610664	-0.815975
H164	H	1.946864	-0.503125	-0.962381
H165	H	2.075369	-0.594087	-0.857344
H166	H	1.996001	-0.695577	-0.726035
H167	H	1.788121	-0.706106	-0.699761
H168	H	1.659616	-0.615143	-0.804799
C169	C	0.903577	-0.162721	-0.231208
C170	C	0.828206	-0.104461	-0.276899
C171	C	0.767851	-0.052154	-0.203134
C172	C	0.782866	-0.058107	-0.083679
C173	C	0.858241	-0.116369	-0.037983
C174	C	0.918596	-0.168676	-0.111747
H175	H	0.817088	-0.100052	-0.365332
H176	H	0.712054	-0.009024	-0.236962
H177	H	0.738188	-0.019386	-0.029074
H178	H	0.869359	-0.120778	0.050451
H179	H	0.974393	-0.211806	-0.077919
H180	H	0.919254	-0.539083	-0.762019
H181	H	0.819720	-0.452810	-0.640355
H182	H	0.819724	-0.262591	-0.372072
H183	H	1.652725	-0.452518	-1.205737
H184	H	1.118318	-0.176288	-0.250347
H185	H	1.652618	-0.452597	-0.807609
