data_functionalizedCrystal
_audit_creation_method	'MofGen! by Chris Wilmer'
_symmetry_space_group_name_H-M	'P1'
_symmetry_Int_Tables_number	1
_symmetry_cell_setting	triclinic
loop_
_symmetry_equiv_pos_as_xyz
  x,y,z
_cell_length_a	18.050591
_cell_length_b	12.759400
_cell_length_c	12.759393
_cell_angle_alpha	89.968231
_cell_angle_beta	89.973418
_cell_angle_gamma	90.010691
loop_
_atom_site_label
_atom_site_type_symbol
_atom_site_fract_x
_atom_site_fract_y
_atom_site_fract_z
Zn1	Zn	1.135404	-0.418314	-0.594239
Zn2	Zn	1.135332	-0.594034	-0.418559
Zn3	Zn	1.011211	-0.418357	-0.418550
Zn4	Zn	1.011200	-0.593939	-0.594173
O5	O	1.073287	-0.506161	-0.506380
O6	O	1.239319	-0.441645	-0.570967
O7	O	1.118841	-0.570787	-0.271537
O8	O	1.027720	-0.271330	-0.441880
O9	O	1.239266	-0.570745	-0.441895
O10	O	1.118964	-0.271299	-0.570958
O11	O	1.027650	-0.441718	-0.271531
O12	O	0.907285	-0.441627	-0.441815
O13	O	1.027702	-0.570585	-0.741203
O14	O	0.907277	-0.570626	-0.570844
O15	O	1.118954	-0.441554	-0.741252
O16	O	1.118831	-0.741042	-0.441831
O17	O	1.027632	-0.740973	-0.570853
C18	C	1.073243	-0.779128	-0.506359
C19	C	1.073292	-0.895905	-0.506384
C20	C	0.880335	-0.506122	-0.506322
C21	C	0.797789	-0.506130	-0.506322
C22	C	1.120832	-0.950768	-0.439277
C23	C	1.120877	-1.060492	-0.439309
C24	C	1.025837	-1.060480	-0.573560
C25	C	1.025795	-0.950758	-0.573532
C26	C	1.168328	-0.895915	-0.372129
C27	C	1.215871	-0.950778	-0.305015
C28	C	1.215917	-1.060502	-0.305048
C29	C	1.168419	-1.115363	-0.372194
C30	C	0.598321	-0.435899	-0.436318
C31	C	0.548915	-0.531730	-0.410469
C32	C	0.646658	-0.506162	-0.506370
C33	C	0.548982	-0.410365	-0.532216
C34	C	0.500673	-0.506185	-0.506414
C35	C	0.598340	-0.602044	-0.480471
C36	C	0.598411	-0.480614	-0.602263
C37	C	0.549028	-0.576511	-0.576450
C38	C	0.730757	-0.506148	-0.506342
C39	C	0.416577	-0.506210	-0.506442
C40	C	1.266992	-0.506201	-0.506439
C41	C	1.349538	-0.506218	-0.506464
C42	C	1.073335	-0.506054	-0.780414
C43	C	1.073355	-0.506008	-0.897191
C44	C	1.073351	-0.232128	-0.506425
C45	C	1.073379	-0.115351	-0.506445
C46	C	1.025892	-0.438790	-0.952055
C47	C	1.025915	-0.438759	-1.061779
C48	C	1.120870	-0.573167	-1.061765
C49	C	1.120843	-0.573203	-0.952042
C50	C	0.978405	-0.371595	-0.897203
C51	C	0.930939	-0.304370	-0.952068
C52	C	0.930961	-0.304339	-1.061792
C53	C	0.978450	-0.371533	-1.116652
C54	C	1.073281	-0.506192	-0.233413
C55	C	1.073405	-0.505941	-0.116637
H56	H	1.168294	-0.806572	-0.372092
H57	H	0.978383	-0.371611	-0.807861
C58	C	0.878704	-0.230466	-0.891728
H59	H	0.885492	-0.240103	-0.818523
H60	H	0.828806	-0.245821	-0.909693
H61	H	0.889601	-0.159870	-0.909733
H62	H	1.254546	-0.906105	-0.250353
C63	C	0.878751	-0.230398	-1.122141
H64	H	0.850471	-0.190382	-1.073755
H65	H	0.846390	-0.270561	-1.164929
H66	H	0.907188	-0.184613	-1.164958
H67	H	0.978462	-0.371504	-1.205997
C68	C	0.519696	-0.300911	-0.561733
H69	H	0.536583	-0.251071	-0.511875
H70	H	0.467075	-0.301855	-0.562167
H71	H	0.537379	-0.282273	-0.629361
H72	H	1.159535	-0.627871	-1.106440
H73	H	1.159502	-0.627924	-0.907371
H74	H	1.254634	-1.105169	-0.250408
H75	H	0.987166	-1.105156	-0.628226
C76	C	1.168473	-1.236057	-0.372233
H77	H	1.203588	-1.260877	-0.322648
H78	H	1.181298	-1.260807	-0.440058
H79	H	1.120563	-1.260945	-0.353996
H80	H	0.619931	-0.683092	-0.458538
C81	C	0.973503	-0.890400	-0.647345
H82	H	0.980288	-0.817198	-0.637718
H83	H	0.923617	-0.908440	-0.631908
H84	H	0.984358	-0.908312	-0.717959
C85	C	0.627569	-0.355720	-0.356209
H86	H	0.610619	-0.374057	-0.288122
H87	H	0.609944	-0.287831	-0.373885
H88	H	0.680194	-0.355827	-0.357185
C89	C	0.519964	-0.656880	-0.656499
H90	H	0.536956	-0.724878	-0.637982
H91	H	0.537661	-0.639305	-0.724397
H92	H	0.467338	-0.656055	-0.656483
C93	C	0.519539	-0.560944	-0.300949
H94	H	0.536411	-0.510946	-0.251239
H95	H	0.537164	-0.628522	-0.282119
H96	H	0.466915	-0.561361	-0.301918
C97	C	0.627811	-0.451361	-0.711753
H98	H	0.610943	-0.383229	-0.729999
H99	H	0.610201	-0.500584	-0.761710
H100	H	0.680435	-0.452194	-0.711088
