data_functionalizedCrystal
_audit_creation_method	'MofGen! by Chris Wilmer'
_symmetry_space_group_name_H-M	'P1'
_symmetry_Int_Tables_number	1
_symmetry_cell_setting	triclinic
loop_
_symmetry_equiv_pos_as_xyz
  x,y,z
_cell_length_a	12.759401
_cell_length_b	21.295417
_cell_length_c	12.759393
_cell_angle_alpha	90.037460
_cell_angle_beta	90.020459
_cell_angle_gamma	90.032032
loop_
_atom_site_label
_atom_site_type_symbol
_atom_site_fract_x
_atom_site_fract_y
_atom_site_fract_z
Zn1	Zn	1.606146	-0.250557	0.593965
Zn2	Zn	1.939479	0.082776	0.927298
Zn3	Zn	2.272813	0.416110	1.260631
Zn4	Zn	1.605990	-0.355838	0.418261
Zn5	Zn	1.939323	-0.022505	0.751595
Zn6	Zn	2.272657	0.310829	1.084928
Zn7	Zn	1.430446	-0.250589	0.418300
Zn8	Zn	1.763780	0.082744	0.751633
Zn9	Zn	2.097113	0.416077	1.084966
Zn10	Zn	1.430388	-0.355795	0.593899
Zn11	Zn	1.763721	-0.022462	0.927232
Zn12	Zn	2.097055	0.310871	1.260565
O13	O	1.518243	-0.303195	0.506106
O14	O	1.851576	0.030138	0.839439
O15	O	2.184909	0.363472	1.172773
O16	O	1.753146	-0.264527	0.570669
O17	O	2.086480	0.068806	0.904002
O18	O	2.419813	0.402139	1.237335
O19	O	1.582663	-0.341908	0.271245
O20	O	1.915996	-0.008575	0.604579
O21	O	2.249330	0.324759	0.937912
O22	O	1.453843	-0.162496	0.441646
O23	O	1.787176	0.170838	0.774979
O24	O	2.120509	0.504171	1.108312
O25	O	1.753032	-0.341877	0.441580
O26	O	2.086365	-0.008543	0.774914
O27	O	2.419698	0.324790	1.108247
O28	O	1.582929	-0.162472	0.570706
O29	O	1.916262	0.170861	0.904039
O30	O	2.249595	0.504195	1.237373
O31	O	1.453692	-0.264582	0.271274
O32	O	1.787025	0.068751	0.604607
O33	O	2.120358	0.402084	0.937940
O34	O	1.283417	-0.264541	0.441582
O35	O	1.616751	0.068793	0.774915
O36	O	1.950084	0.402126	1.108248
O37	O	1.453744	-0.341804	0.740929
O38	O	1.787077	-0.008470	1.074262
O39	O	2.120410	0.324863	1.407595
O40	O	1.283375	-0.341835	0.570594
O41	O	1.616708	-0.008502	0.903927
O42	O	1.950042	0.324832	1.237260
O43	O	1.582872	-0.264486	0.740977
O44	O	1.916206	0.068848	1.074310
O45	O	2.249539	0.402181	1.407644
O46	O	1.582607	-0.443922	0.441516
O47	O	1.915940	-0.110588	0.774850
O48	O	2.249273	0.222745	1.108183
O49	O	1.453593	-0.443890	0.570556
O50	O	1.786926	-0.110557	0.903890
O51	O	2.120259	0.222776	1.237223
C52	C	1.245275	-0.303187	0.506085
C53	C	1.578609	0.030146	0.839419
C54	C	1.911942	0.363479	1.172752
C55	C	1.128499	-0.303199	0.506101
C56	C	1.461832	0.030134	0.839435
C57	C	1.795165	0.363468	1.172768
C58	C	1.073642	-0.343507	0.573172
C59	C	1.406975	-0.010174	0.906505
C60	C	1.740309	0.323159	1.239839
C61	C	0.963918	-0.343510	0.573193
C62	C	1.297251	-0.010177	0.906526
C63	C	1.630585	0.323157	1.239859
C64	C	0.963917	-0.262894	0.439063
C65	C	1.297250	0.070440	0.772397
C66	C	1.630584	0.403773	1.105730
C67	C	1.073639	-0.262889	0.439048
C68	C	1.406972	0.070445	0.772382
C69	C	1.740306	0.403778	1.105715
C70	C	1.518105	-0.466747	0.506048
C71	C	1.851438	-0.133413	0.839381
C72	C	2.184772	0.199920	1.172715
C73	C	1.518142	-0.536715	0.506058
C74	C	1.851475	-0.203381	0.839392
C75	C	2.184809	0.129952	1.172725
C76	C	1.585379	-0.569577	0.438936
C77	C	1.918713	-0.236243	0.772269
C78	C	2.252046	0.097090	1.105603
C79	C	1.585429	-0.635319	0.438960
C80	C	1.918762	-0.301986	0.772293
C81	C	2.252095	0.031347	1.105626
C82	C	1.518222	-0.668197	0.506094
C83	C	1.851555	-0.334864	0.839428
C84	C	2.184888	-0.001530	1.172761
C85	C	1.450980	-0.635327	0.573230
C86	C	1.784313	-0.301994	0.906563
C87	C	2.117646	0.031340	1.239896
C88	C	1.450940	-0.569586	0.573212
C89	C	1.784273	-0.236253	0.906545
C90	C	2.117607	0.097081	1.239878
N91	N	1.426315	-0.771464	0.514097
N92	N	1.759648	-0.438131	0.847430
N93	N	2.092981	-0.104797	1.180763
N94	N	1.426356	-0.833915	0.514108
N95	N	1.759689	-0.500582	0.847441
N96	N	2.093022	-0.167249	1.180775
C97	C	1.518339	-0.866272	0.506155
C98	C	1.851673	-0.532938	0.839488
C99	C	2.185006	-0.199605	1.172821
N100	N	1.610283	-0.833818	0.498169
N101	N	1.943616	-0.500484	0.831503
N102	N	2.276950	-0.167151	1.164836
N103	N	1.610241	-0.771360	0.498153
N104	N	1.943574	-0.438027	0.831486
N105	N	2.276908	-0.104694	1.164820
C106	C	1.518258	-0.739482	0.506122
C107	C	1.851591	-0.406149	0.839455
C108	C	2.184925	-0.072816	1.172789
C109	C	1.585636	-0.970419	0.439054
C110	C	1.918969	-0.637086	0.772388
C111	C	2.252303	-0.303753	1.105721
C112	C	1.585687	-1.036163	0.439085
C113	C	1.919020	-0.702830	0.772419
C114	C	2.252354	-0.369496	1.105752
C115	C	1.451229	-1.036170	0.573350
C116	C	1.784562	-0.702836	0.906683
C117	C	2.117895	-0.369503	1.240017
C118	C	1.451187	-0.970427	0.573325
C119	C	1.784520	-0.637094	0.906658
C120	C	2.117854	-0.303761	1.239991
C121	C	1.518389	-0.937556	0.506171
C122	C	1.851723	-0.604223	0.839504
C123	C	2.185056	-0.270889	1.172838
C124	C	1.792276	-0.303203	0.506128
C125	C	2.125609	0.030130	0.839461
C126	C	2.458943	0.363464	1.172794
C127	C	1.909052	-0.303207	0.506137
C128	C	2.242386	0.030127	0.839470
C129	C	2.575719	0.363460	1.172804
C130	C	1.518319	-0.303136	0.780140
C131	C	1.851652	0.030197	1.113473
C132	C	2.184986	0.363530	1.446806
C133	C	1.518351	-0.303111	0.896916
C134	C	1.851685	0.030222	1.230250
C135	C	2.185018	0.363555	1.563583
C136	C	1.518410	-0.139005	0.506188
C137	C	1.851743	0.194329	0.839521
C138	C	2.185076	0.527662	1.172854
C139	C	1.518481	-0.069036	0.506222
C140	C	1.851814	0.264297	0.839556
C141	C	2.185147	0.597630	1.172889
C142	C	1.518227	-0.303208	0.233139
C143	C	1.851560	0.030125	0.566472
C144	C	2.184894	0.363459	0.899805
C145	C	1.518398	-0.303056	0.116363
C146	C	1.851731	0.030278	0.449696
C147	C	2.185065	0.363611	0.783029
C148	C	1.585535	-0.343328	1.061499
C149	C	1.918868	-0.009995	1.394833
C150	C	2.252201	0.323339	1.728166
C151	C	1.585509	-0.343358	0.951775
C152	C	1.918842	-0.010024	1.285108
C153	C	2.252176	0.323309	1.618442
C154	C	1.451208	-0.262837	0.951787
C155	C	1.784541	0.070496	1.285121
C156	C	2.117874	0.403830	1.618454
C157	C	1.451229	-0.262811	1.061510
C158	C	1.784562	0.070522	1.394843
C159	C	2.117895	0.403856	1.728176
H160	H	1.640185	-0.662081	0.384301
H161	H	1.973518	-0.328747	0.717634
H162	H	2.306852	0.004586	1.050968
H163	H	1.640227	-0.376099	1.106157
H164	H	1.973560	-0.042765	1.439491
H165	H	2.306894	0.290568	1.772824
H166	H	0.919258	-0.376332	0.627810
H167	H	1.252592	-0.042999	0.961143
H168	H	1.585925	0.290335	1.294477
C169	C	0.903568	-0.218563	0.365300
C170	C	1.236901	0.114770	0.698633
C171	C	1.570235	0.448104	1.031967
H172	H	0.830364	-0.224344	0.374905
H173	H	1.163698	0.108990	0.708238
H174	H	1.497031	0.442323	1.041571
H175	H	0.921587	-0.176277	0.380799
H176	H	1.254921	0.157056	0.714132
H177	H	1.588254	0.490389	1.047466
H178	H	0.921512	-0.227731	0.294676
H179	H	1.254845	0.105603	0.628010
H180	H	1.588178	0.438936	0.961343
H181	H	1.640359	-0.943655	0.384377
H182	H	1.973693	-0.610321	0.717711
H183	H	2.307026	-0.276988	1.051044
H184	H	1.396522	-0.230070	0.907113
H185	H	1.729855	0.103263	1.240446
H186	H	2.063189	0.436596	1.573779
C187	C	1.133985	-0.218548	0.365266
C188	C	1.467319	0.114785	0.698599
C189	C	1.800652	0.448118	1.031932
H190	H	1.085600	-0.194548	0.325323
H191	H	1.418933	0.138785	0.658656
H192	H	1.752267	0.472119	0.991990
H193	H	1.176830	-0.191149	0.405536
H194	H	1.510164	0.142184	0.738870
H195	H	1.843497	0.475517	1.072203
H196	H	1.176745	-0.242598	0.319406
H197	H	1.510079	0.090736	0.652739
H198	H	1.843412	0.424069	0.986072
C199	C	1.659310	-0.533422	0.365082
C200	C	1.992644	-0.200089	0.698415
C201	C	2.325977	0.133245	1.031749
H202	H	1.699369	-0.562413	0.325117
H203	H	2.032702	-0.229080	0.658450
H204	H	2.366036	0.104254	0.991783
H205	H	1.619135	-0.507818	0.319262
H206	H	1.952469	-0.174485	0.652596
H207	H	2.285802	0.158849	0.985929
H208	H	1.705056	-0.507735	0.405315
H209	H	2.038389	-0.174401	0.738648
H210	H	2.371723	0.158932	1.071982
H211	H	1.396261	-0.662100	0.627893
H212	H	1.729595	-0.328767	0.961227
H213	H	2.062928	0.004566	1.294560
H214	H	1.396553	-0.230015	1.106181
H215	H	1.729886	0.103318	1.439514
H216	H	2.063219	0.436651	1.772847
C217	C	1.659651	-1.072312	0.365246
C218	C	1.992984	-0.738978	0.698580
C219	C	2.326318	-0.405645	1.031913
H220	H	1.699658	-1.043317	0.325246
H221	H	2.032991	-0.709983	0.658579
H222	H	2.366325	-0.376650	0.991913
H223	H	1.705428	-1.097912	0.405478
H224	H	2.038761	-0.764578	0.738811
H225	H	2.372094	-0.431245	1.072145
H226	H	1.619490	-1.098002	0.319443
H227	H	1.952823	-0.764669	0.652776
H228	H	2.286157	-0.431336	0.986109
H229	H	1.396186	-0.542829	0.627872
H230	H	1.729520	-0.209496	0.961205
H231	H	2.062853	0.123838	1.294538
H232	H	1.396512	-1.062938	0.628017
H233	H	1.729846	-0.729605	0.961351
H234	H	2.063179	-0.396272	1.294684
H235	H	1.396432	-0.943669	0.627977
H236	H	1.729765	-0.610336	0.961311
H237	H	2.063098	-0.277002	1.294644
H238	H	1.118305	-0.376329	0.627773
H239	H	1.451639	-0.042996	0.961107
H240	H	1.784972	0.290337	1.294440
H241	H	1.640178	-0.376152	0.907110
H242	H	1.973512	-0.042818	1.240443
H243	H	2.306845	0.290515	1.573777
