data_functionalizedCrystal
_audit_creation_method	'MofGen! by Chris Wilmer'
_symmetry_space_group_name_H-M	'P1'
_symmetry_Int_Tables_number	1
_symmetry_cell_setting	triclinic
loop_
_symmetry_equiv_pos_as_xyz
  x,y,z
_cell_length_a	14.519709
_cell_length_b	14.519731
_cell_length_c	10.868271
_cell_angle_alpha	89.993880
_cell_angle_beta	90.001299
_cell_angle_gamma	83.684499
loop_
_atom_site_label
_atom_site_type_symbol
_atom_site_fract_x
_atom_site_fract_y
_atom_site_fract_z
O1	O	1.223876	0.120891	-0.102165
O2	O	1.473876	0.370891	0.147835
O3	O	1.723876	0.620891	0.397835
O4	O	1.973876	0.870891	0.647835
O5	O	0.955401	0.135127	-0.102203
O6	O	1.205401	0.385127	0.147797
O7	O	1.455401	0.635127	0.397797
O8	O	1.705401	0.885127	0.647797
O9	O	1.096747	-0.006228	-0.102172
O10	O	1.346747	0.243772	0.147828
O11	O	1.596747	0.493772	0.397828
O12	O	1.846747	0.743772	0.647828
O13	O	1.082531	0.262246	-0.102196
O14	O	1.332531	0.512246	0.147804
O15	O	1.582531	0.762246	0.397804
O16	O	1.832531	1.012246	0.647804
O17	O	1.096735	-0.006234	0.102473
O18	O	1.346735	0.243766	0.352473
O19	O	1.596735	0.493766	0.602473
O20	O	1.846735	0.743766	0.852473
O21	O	0.955389	0.135121	0.102442
O22	O	1.205389	0.385121	0.352442
O23	O	1.455389	0.635121	0.602442
O24	O	1.705389	0.885121	0.852442
O25	O	1.223865	0.120885	0.102480
O26	O	1.473865	0.370885	0.352480
O27	O	1.723865	0.620885	0.602480
O28	O	1.973865	0.870885	0.852480
Zn29	Zn	1.089625	0.128002	0.134953
Zn30	Zn	1.339625	0.378002	0.384953
Zn31	Zn	1.589625	0.628002	0.634953
Zn32	Zn	1.839625	0.878002	0.884953
Zn33	Zn	1.089640	0.128010	-0.134676
Zn34	Zn	1.339640	0.378010	0.115324
Zn35	Zn	1.589640	0.628010	0.365324
Zn36	Zn	1.839640	0.878010	0.615324
O37	O	1.082519	0.262240	0.102449
O38	O	1.332519	0.512240	0.352449
O39	O	1.582519	0.762240	0.602449
O40	O	1.832519	1.012240	0.852449
C41	C	0.921035	0.134461	0.000115
C42	C	1.171035	0.384461	0.250115
C43	C	1.421035	0.634461	0.500115
C44	C	1.671035	0.884461	0.750115
C45	C	0.818654	0.132473	0.000101
C46	C	1.068654	0.382473	0.250101
C47	C	1.318654	0.632473	0.500101
C48	C	1.568654	0.882473	0.750101
C49	C	1.096075	-0.040591	0.000151
C50	C	1.346075	0.209409	0.250151
C51	C	1.596075	0.459409	0.500151
C52	C	1.846075	0.709409	0.750151
C53	C	1.094079	-0.142971	0.000151
C54	C	1.344079	0.107029	0.250151
C55	C	1.594079	0.357029	0.500151
C56	C	1.844079	0.607029	0.750151
C57	C	0.443757	0.125153	0.000157
C58	C	0.693757	0.375153	0.250157
C59	C	0.943757	0.625153	0.500157
C60	C	1.193757	0.875153	0.750157
C61	C	0.548065	0.127186	0.000141
C62	C	0.798065	0.377186	0.250141
C63	C	1.048065	0.627186	0.500141
C64	C	1.298065	0.877186	0.750141
C65	C	0.631202	0.128813	0.000128
C66	C	0.881202	0.378813	0.250128
C67	C	1.131202	0.628813	0.500128
C68	C	1.381202	0.878813	0.750128
C69	C	0.735517	0.130846	0.000114
C70	C	0.985517	0.380846	0.250114
C71	C	1.235517	0.630846	0.500114
C72	C	1.485517	0.880846	0.750114
C73	C	1.092457	-0.226115	0.000148
C74	C	1.342457	0.023885	0.250148
C75	C	1.592457	0.273885	0.500148
C76	C	1.842457	0.523885	0.750148
C77	C	1.090430	-0.330424	0.000139
C78	C	1.340430	-0.080424	0.250139
C79	C	1.590430	0.169576	0.500139
C80	C	1.840430	0.419576	0.750139
C81	C	1.088822	-0.413563	0.000130
C82	C	1.338822	-0.163563	0.250130
C83	C	1.588822	0.086437	0.500130
C84	C	1.838822	0.336437	0.750130
C85	C	1.086795	-0.517878	0.000123
C86	C	1.336795	-0.267878	0.250123
C87	C	1.586795	-0.017878	0.500123
C88	C	1.836795	0.232122	0.750123
C89	C	1.258230	0.121551	0.000160
C90	C	1.508230	0.371551	0.250160
C91	C	1.758230	0.621551	0.500160
C92	C	2.008230	0.871551	0.750160
C93	C	1.360612	0.123539	0.000166
C94	C	1.610612	0.373539	0.250166
C95	C	1.860612	0.623539	0.500166
C96	C	2.110612	0.873539	0.750166
C97	C	1.083191	0.296603	0.000123
C98	C	1.333191	0.546603	0.250123
C99	C	1.583191	0.796603	0.500123
C100	C	1.833191	1.046603	0.750123
C101	C	1.085187	0.398983	0.000115
C102	C	1.335187	0.648983	0.250115
C103	C	1.585187	0.898983	0.500115
C104	C	1.835187	1.148983	0.750115
N105	N	1.089621	0.127997	0.318967
N106	N	1.339621	0.377997	0.568967
N107	N	1.589621	0.627997	0.818967
N108	N	1.839621	0.877997	1.068967
N109	N	1.089651	0.128008	-0.318690
N110	N	1.339651	0.378008	-0.068690
N111	N	1.589651	0.628008	0.181310
N112	N	1.839651	0.878008	0.431310
C113	C	1.089636	0.128008	0.569973
C114	C	1.339636	0.378008	0.819973
C115	C	1.589636	0.628008	1.069973
C116	C	1.839636	0.878008	1.319973
C117	C	1.089625	0.128004	0.430295
C118	C	1.339625	0.378004	0.680295
C119	C	1.589625	0.628004	0.930295
C120	C	1.839625	0.878004	1.180295
