data_functionalizedCrystal
_audit_creation_method	'MofGen! by Chris Wilmer'
_symmetry_space_group_name_H-M	'P1'
_symmetry_Int_Tables_number	1
_symmetry_cell_setting	triclinic
loop_
_symmetry_equiv_pos_as_xyz
  x,y,z
_cell_length_a	19.188933
_cell_length_b	9.730223
_cell_length_c	19.188940
_cell_angle_alpha	90.001757
_cell_angle_beta	83.147142
_cell_angle_gamma	89.998779
loop_
_atom_site_label
_atom_site_type_symbol
_atom_site_fract_x
_atom_site_fract_y
_atom_site_fract_z
O1	O	0.926143	0.114245	0.087171
O2	O	0.722832	0.114258	0.098903
O3	O	0.830351	0.114241	-0.008618
O4	O	0.818624	0.114263	0.194692
O5	O	0.830350	-0.114339	-0.008615
O6	O	0.722831	-0.114322	0.098906
O7	O	0.926142	-0.114335	0.087173
Zn8	Zn	0.824486	-0.150620	0.093040
Zn9	Zn	0.824488	0.150544	0.093037
O10	O	0.818623	-0.114317	0.194695
C11	C	0.696821	-0.000030	0.098525
C12	C	0.619316	-0.000025	0.097383
N13	N	0.824490	-0.356156	0.093042
C14	C	0.066061	0.124558	0.089237
C15	C	0.138885	0.124563	0.090305
C16	C	0.175302	-0.000035	0.090844
C17	C	0.138890	-0.124648	0.090296
C18	C	0.066068	-0.124650	0.089221
N19	N	0.284323	-0.092775	0.132263
N20	N	0.353500	-0.092765	0.133286
C21	C	0.394711	-0.000037	0.094081
N22	N	0.364129	0.092701	0.053824
N23	N	0.294944	0.092695	0.052805
C24	C	0.254265	-0.000047	0.092009
C25	C	0.510078	0.124574	0.095782
C26	C	0.582905	0.124574	0.096846
C27	C	0.582907	-0.124641	0.096844
C28	C	0.510083	-0.124637	0.095773
C29	C	0.473673	-0.000026	0.095246
C30	C	0.872112	-0.428090	0.045448
C31	C	0.872110	-0.571973	0.045439
C32	C	0.776863	-0.571976	0.140626
C33	C	0.776862	-0.428096	0.140631
C34	C	0.919740	-0.356151	-0.002141
C35	C	0.967366	-0.428085	-0.049739
C36	C	0.967364	-0.571968	-0.049747
C37	C	0.919736	-0.643917	-0.002158
C38	C	0.952153	-0.000043	0.087552
C39	C	1.029658	-0.000039	0.088693
C40	C	0.829970	-0.000049	-0.034628
C41	C	0.828826	-0.000048	-0.112132
N42	N	0.824489	0.356080	0.093029
C43	C	0.820691	-0.124614	-0.665390
C44	C	0.821758	-0.124622	-0.592565
C45	C	0.822295	-0.000024	-0.556147
C46	C	0.821748	0.124590	-0.592557
C47	C	0.820674	0.124594	-0.665379
N48	N	0.863712	0.092714	-0.447124
N49	N	0.864733	0.092701	-0.377946
C50	C	0.825529	-0.000029	-0.336738
N51	N	0.785273	-0.092768	-0.367322
N52	N	0.784254	-0.092759	-0.436507
C53	C	0.823459	-0.000015	-0.477184
C54	C	0.827228	-0.124644	-0.221371
C55	C	0.828290	-0.124647	-0.148545
C56	C	0.828287	0.124569	-0.148539
C57	C	0.827218	0.124568	-0.221363
C58	C	0.826691	-0.000043	-0.257775
C59	C	0.819004	-0.000024	0.220704
C60	C	0.820148	-0.000016	0.298209
H61	H	0.168530	0.226028	0.090751
C62	C	0.828889	-0.261711	-0.108503
H63	H	0.828429	-0.335918	-0.140622
H64	H	0.788602	-0.266906	-0.074648
H65	H	0.870019	-0.266880	-0.085544
H66	H	0.820230	0.226060	-0.695017
H67	H	0.822183	0.226038	-0.562900
C68	C	0.919729	-0.802185	-0.002168
H69	H	0.884544	-0.834728	0.032989
H70	H	0.964321	-0.834745	0.007275
H71	H	0.910306	-0.834721	-0.046775
C72	C	0.025999	-0.261708	0.088781
H73	H	-0.022592	-0.243863	0.088108
H74	H	0.032538	-0.312714	0.129709
H75	H	0.043317	-0.313096	0.048290
C76	C	0.826636	-0.261706	-0.261426
H77	H	0.827100	-0.335916	-0.229312
H78	H	0.866923	-0.266893	-0.295282
H79	H	0.785506	-0.266875	-0.284385
H80	H	0.919747	-0.238994	-0.002137
H81	H	0.826780	0.226029	-0.251003
C82	C	1.019750	-0.348954	-0.102087
H83	H	1.048106	-0.412406	-0.130439
H84	H	1.048735	-0.292831	-0.077040
H85	H	0.994721	-0.292823	-0.131090
H86	H	1.006138	-0.630535	-0.088508
C87	C	0.828882	0.261624	-0.108489
H88	H	0.829604	0.243778	-0.059905
H89	H	0.788002	0.312829	-0.114974
H90	H	0.869418	0.312813	-0.125871
H91	H	0.738087	-0.630566	0.179372
H92	H	0.738083	-0.369527	0.179386
C93	C	0.820102	-0.261679	-0.705438
H94	H	0.820572	-0.335887	-0.673323
H95	H	0.860387	-0.266862	-0.739296
H96	H	0.778970	-0.266857	-0.728394
H97	H	0.036421	0.226026	0.088804
H98	H	0.480432	0.226040	0.095350
C99	C	0.178944	-0.261703	0.090892
H100	H	0.227528	-0.243857	0.091618
H101	H	0.172462	-0.312904	0.050010
H102	H	0.161560	-0.312895	0.131426
C103	C	0.822360	-0.261684	-0.552515
H104	H	0.821896	-0.335895	-0.584632
H105	H	0.782075	-0.266874	-0.518658
H106	H	0.863492	-0.266850	-0.529559
H107	H	0.612557	-0.226091	0.097280
H108	H	0.480443	-0.226098	0.095333
H109	H	0.612544	0.226040	0.097283
