data_functionalizedCrystal
_audit_creation_method	'MofGen! by Chris Wilmer'
_symmetry_space_group_name_H-M	'P1'
_symmetry_Int_Tables_number	1
_symmetry_cell_setting	triclinic
loop_
_symmetry_equiv_pos_as_xyz
  x,y,z
_cell_length_a	19.121241
_cell_length_b	19.120786
_cell_length_c	17.640968
_cell_angle_alpha	76.872907
_cell_angle_beta	76.877407
_cell_angle_gamma	94.790376
loop_
_atom_site_label
_atom_site_type_symbol
_atom_site_fract_x
_atom_site_fract_y
_atom_site_fract_z
Zn1	Zn	1.156819	-0.141300	-0.495798
Zn2	Zn	1.125314	-0.285371	-0.355172
Zn3	Zn	1.012757	-0.172721	-0.355188
Zn4	Zn	1.031835	-0.266210	-0.483739
O5	O	1.081681	-0.216400	-0.422474
O6	O	1.252051	-0.155281	-0.482184
O7	O	1.089214	-0.291597	-0.242522
O8	O	1.037068	-0.069133	-0.378893
O9	O	1.228905	-0.261129	-0.378867
O10	O	1.142909	-0.046048	-0.482199
O11	O	1.006519	-0.208833	-0.242534
O12	O	0.915876	-0.190253	-0.367200
O13	O	1.069584	-0.228471	-0.597991
O14	O	0.929893	-0.258939	-0.461647
O15	O	1.161409	-0.136701	-0.606851
O16	O	1.107714	-0.382249	-0.367174
O17	O	1.039035	-0.368171	-0.461631
C18	C	0.897108	-0.225926	-0.413117
C19	C	0.818150	-0.230015	-0.409132
C20	C	0.793118	-0.176884	-0.461127
C21	C	0.718927	-0.180724	-0.457376
C22	C	0.669770	-0.237698	-0.401633
C23	C	0.694806	-0.290832	-0.349633
C24	C	0.768995	-0.286989	-0.353381
C25	C	0.445162	-0.252054	-0.387619
C26	C	0.370969	-0.255894	-0.383877
C27	C	0.395095	-0.145784	-0.491619
C28	C	0.469285	-0.141948	-0.495365
C29	C	0.494314	-0.195080	-0.443362
C30	C	0.593934	-0.241626	-0.397800
C31	C	0.570147	-0.191149	-0.447193
C32	C	1.072049	-0.400984	-0.413111
C33	C	1.067998	-0.479942	-0.409135
C34	C	1.121174	-0.504950	-0.461094
C35	C	1.117365	-0.579139	-0.457359
C36	C	1.060382	-0.628318	-0.401662
C37	C	1.007200	-0.603305	-0.349702
C38	C	1.011007	-0.529117	-0.353441
C39	C	1.046130	-0.852922	-0.387685
C40	C	1.042328	-0.927115	-0.383948
C41	C	1.152494	-0.902944	-0.491607
C42	C	1.156298	-0.828756	-0.495338
C43	C	1.103114	-0.803749	-0.443380
C44	C	1.056488	-0.704152	-0.397842
C45	C	1.107005	-0.727916	-0.447205
C46	C	1.266975	-0.206838	-0.431869
C47	C	1.345937	-0.202763	-0.435872
C48	C	1.121139	-0.176944	-0.632447
C49	C	1.137953	-0.160130	-0.721925
C50	C	1.091375	-0.031092	-0.431893
C51	C	1.095505	0.047876	-0.435907
C52	C	0.954238	-0.343735	-0.993143
C53	C	0.970053	-0.327926	-1.077222
C54	C	1.065662	-0.232373	-1.086437
C55	C	1.049853	-0.248172	-1.002356
C56	C	0.994141	-0.303854	-0.955716
C57	C	1.089755	-0.208291	-0.964930
C58	C	1.073950	-0.224092	-0.880857
C59	C	1.018241	-0.279773	-0.834211
C60	C	0.978335	-0.319655	-0.871643
C61	C	1.145471	-0.152613	-1.011571
C62	C	1.185373	-0.112732	-0.974144
C63	C	1.169564	-0.128529	-0.890070
C64	C	1.113856	-0.184210	-0.843424
C65	C	1.209471	-0.088647	-0.852638
C66	C	1.193665	-0.104447	-0.768565
C67	C	1.098050	-0.200010	-0.759352
C68	C	1.042421	-0.255650	-0.213323
C69	C	1.025755	-0.272257	-0.123863
H70	H	0.465531	-0.295318	-0.345275
H71	H	0.932952	-0.364980	-0.833666
H72	H	1.167579	-0.464913	-0.506445
H73	H	0.908855	-0.389061	-0.955166
H74	H	0.960800	-0.643352	-0.304355
H75	H	1.254836	-0.043315	-0.890625
H76	H	0.937555	-0.360406	-1.107691
H77	H	1.002826	-0.832568	-0.345377
H78	H	0.654775	-0.337219	-0.304243
H79	H	0.967704	-0.508756	-0.311132
H80	H	1.153399	-0.687872	-0.492556
H81	H	1.230736	-0.067398	-1.012130
H82	H	1.111025	-0.187039	-1.124422
H83	H	0.833138	-0.130491	-0.506520
H84	H	0.698550	-0.137459	-0.499717
H85	H	0.789374	-0.330254	-0.311041
H86	H	1.158339	-0.139752	-1.080029
H87	H	1.202698	-0.788715	-0.540691
H88	H	1.010094	-0.744202	-0.352492
H89	H	0.509305	-0.095556	-0.540760
H90	H	0.374707	-0.102526	-0.533956
H91	H	1.195793	-0.923313	-0.533909
H92	H	0.330945	-0.302293	-0.338484
H93	H	0.610174	-0.144759	-0.492575
H94	H	1.052668	-0.245336	-0.721374
H95	H	0.553902	-0.288014	-0.352414
H96	H	1.160672	-0.599498	-0.499663
H97	H	1.226157	-0.071971	-0.738091
H98	H	1.005376	-0.292639	-0.765754
H99	H	0.995922	-0.967157	-0.338593
