data_functionalizedCrystal
_audit_creation_method	'MofGen! by Chris Wilmer'
_symmetry_space_group_name_H-M	'P1'
_symmetry_Int_Tables_number	1
_symmetry_cell_setting	triclinic
loop_
_symmetry_equiv_pos_as_xyz
  x,y,z
_cell_length_a	15.995350
_cell_length_b	15.538191
_cell_length_c	14.750779
_cell_angle_alpha	82.427828
_cell_angle_beta	77.359549
_cell_angle_gamma	114.617766
loop_
_atom_site_label
_atom_site_type_symbol
_atom_site_fract_x
_atom_site_fract_y
_atom_site_fract_z
O1	O	-0.247558	-1.229458	-0.079847
O2	O	-0.150879	-0.955200	-0.079843
O3	O	-0.323385	-1.099826	-0.079844
O4	O	-0.075052	-1.084832	-0.079846
O5	O	-0.372146	-1.140710	0.079806
O6	O	-0.199640	-0.996084	0.079807
O7	O	-0.296319	-1.270342	0.079803
Zn8	Zn	-0.255722	-1.139704	0.105153
Zn9	Zn	-0.191476	-1.085838	-0.105193
O10	O	-0.123813	-1.125716	0.079804
C11	C	-0.165145	-0.940547	-0.000017
C12	C	-0.135015	-0.835974	-0.000016
N13	N	-0.299570	-1.176474	0.248708
C14	C	-0.378771	-1.119648	-0.000021
C15	C	-0.471155	-1.117788	-0.000026
C16	C	-0.806875	-1.111115	-0.000023
C17	C	-0.728029	-1.008023	-0.000379
C18	C	-0.632013	-1.009974	-0.000020
C19	C	-0.640320	-1.114425	-0.000025
C20	C	-0.724682	-1.188574	0.091140
C21	C	-0.820555	-1.186007	0.091216
C22	C	-0.766109	-1.141642	-0.090335
C23	C	-0.668788	-1.141309	-0.091540
C24	C	-0.546194	-1.116302	-0.000023
C25	C	-0.901005	-1.109243	-0.000019
C26	C	-0.068426	-1.105894	-0.000021
C27	C	0.023960	-1.107752	-0.000022
C28	C	-0.282053	-1.284995	-0.000025
C29	C	-0.312180	-1.389566	-0.000033
C30	C	-0.434345	-0.548180	-0.000029
C31	C	-0.406012	-0.449914	-0.000030
C32	C	-0.246646	-0.427471	-0.000030
C33	C	-0.274967	-0.525738	-0.000025
C34	C	-0.368818	-0.586085	-0.000025
C35	C	-0.209440	-0.563643	-0.000021
C36	C	-0.237757	-0.661900	-0.000021
C37	C	-0.331603	-0.722253	-0.000024
C38	C	-0.397135	-0.684342	-0.000025
C39	C	-0.115588	-0.503293	-0.000028
C40	C	-0.050060	-0.541198	-0.000024
C41	C	-0.078380	-0.639459	-0.000017
C42	C	-0.172225	-0.699811	-0.000020
C43	C	-0.012847	-0.677369	-0.000016
C44	C	-0.041165	-0.775627	-0.000015
C45	C	-0.200543	-0.798068	-0.000019
N46	N	-0.147637	-1.049076	-0.248748
C47	C	-0.025213	-0.946384	0.600529
C48	C	-0.055935	-0.972157	0.701028
C49	C	-0.208655	-1.100250	0.700989
C50	C	-0.177947	-1.074485	0.600488
C51	C	-0.086225	-0.997552	0.550266
C52	C	-0.238959	-1.125653	0.550225
C53	C	-0.208251	-1.099893	0.449733
C54	C	-0.116531	-1.022965	0.399504
C55	C	-0.055517	-0.971792	0.449774
C56	C	-0.330678	-1.202589	0.600449
C57	C	-0.391690	-1.253757	0.550186
C58	C	-0.360985	-1.227993	0.449692
C59	C	-0.269266	-1.151066	0.399463
C60	C	-0.422000	-1.279166	0.399422
C61	C	-0.391292	-1.253406	0.298930
C62	C	-0.238558	-1.125306	0.298971
H63	H	-0.714081	-0.950113	-0.065756
O64	O	-0.511150	-1.353777	0.448261
C65	C	-0.565254	-1.318242	0.506425
H66	H	-0.534884	-1.236199	0.476161
H67	H	-0.643816	-1.356968	0.507562
H68	H	-0.560814	-1.332826	0.582585
O69	O	-0.753202	-1.080475	-0.172864
C70	C	-0.716608	-1.109825	-0.252340
H71	H	-0.736026	-1.190480	-0.229388
H72	H	-0.749440	-1.098401	-0.311267
H73	H	-0.634768	-1.064326	-0.280633
O74	O	-0.450694	-1.303179	0.250247
C75	C	-0.538226	-1.376619	0.316123
H76	H	-0.549352	-1.356367	0.387769
H77	H	-0.600578	-1.383544	0.287075
H78	H	-0.535531	-1.449328	0.326792
H79	H	-0.091529	-1.001996	0.317677
O80	O	-0.297699	-1.175091	0.749731
C81	C	-0.304892	-1.262035	0.725132
H82	H	-0.229558	-1.255428	0.697518
H83	H	-0.349071	-1.326247	0.791205
H84	H	-0.341864	-1.274736	0.666786
H85	H	-0.510769	-0.597320	-0.000023
O86	O	-0.480773	-1.328432	0.599125
C87	C	-0.494785	-1.340216	0.698600
H88	H	-0.444965	-1.268852	0.712349
H89	H	-0.573043	-1.360484	0.736787
H90	H	-0.477680	-1.400841	0.727104
O91	O	-0.087907	-0.407812	-0.000067
C92	C	0.008970	-0.362681	-0.000049
H93	H	0.047007	-0.405210	-0.030279
H94	H	0.046911	-0.284395	-0.046396
H95	H	0.011332	-0.361944	0.076543
H96	H	-0.459379	-0.419056	-0.000034
O97	O	-0.737048	-1.281224	0.095314
C98	C	-0.813260	-1.345847	0.177971
H99	H	-0.862933	-1.312202	0.201688
H100	H	-0.855920	-1.418109	0.160995
H101	H	-0.782556	-1.359486	0.238068
O102	O	0.063812	-0.871541	0.551694
C103	C	0.054351	-0.798553	0.493560
H104	H	-0.020457	-0.804734	0.523843
H105	H	0.111567	-0.723390	0.492438
H106	H	0.064292	-0.808511	0.417392
H107	H	-0.571494	-0.953304	-0.065370
H108	H	0.019169	-0.909140	0.408881
O109	O	-0.155534	-0.368724	0.000015
C110	C	-0.144581	-0.273863	-0.000013
H111	H	-0.218430	-0.277824	0.030205
H112	H	-0.097087	-0.241223	0.046342
H113	H	-0.109368	-0.225836	-0.076605
O114	O	-0.760250	-0.978868	0.077076
C115	C	-0.762635	-0.890408	0.045792
H116	H	-0.767637	-0.882963	-0.030516
H117	H	-0.828160	-0.890347	0.095422
H118	H	-0.694041	-0.826383	0.047174
O119	O	0.003437	-0.922310	0.749705
C120	C	0.090983	-0.848901	0.683824
H121	H	0.078867	-0.829483	0.612186
H122	H	0.117697	-0.781120	0.712876
H123	H	0.147177	-0.876738	0.673137
H124	H	-0.611924	-0.986535	0.065444
H125	H	-0.848413	-1.166413	0.159368
O126	O	-0.888077	-1.277469	0.096291
C127	C	-0.966757	-1.309277	0.179784
H128	H	-0.968819	-1.243089	0.203527
H129	H	-1.036789	-1.353757	0.163920
H130	H	-0.958285	-1.356703	0.239417
O131	O	-0.702792	-1.167065	0.172056
C132	C	-0.688834	-1.071465	0.173103
H133	H	-0.728093	-1.049746	0.125876
H134	H	-0.718706	-1.068956	0.249777
H135	H	-0.608417	-1.018387	0.144503
O136	O	-0.360535	-1.227467	0.698068
C137	C	-0.360678	-1.146663	0.731665
H138	H	-0.366544	-1.095015	0.673760
H139	H	-0.424798	-1.173280	0.798888
H140	H	-0.290809	-1.106354	0.749517
O141	O	-0.598089	-1.076395	-0.171908
C142	C	-0.523216	-1.006923	-0.145557
H143	H	-0.525215	-1.039015	-0.070552
H144	H	-0.450695	-0.987180	-0.198924
H145	H	-0.533190	-0.938398	-0.145887
O146	O	0.078304	-0.618871	0.000105
C147	C	0.094607	-0.657203	0.082802
H148	H	0.042969	-0.738793	0.110378
H149	H	0.172219	-0.645538	0.064203
H150	H	0.081820	-0.618276	0.140694
O151	O	0.041164	-0.482568	-0.000193
C152	C	0.107981	-0.478601	-0.082860
H153	H	0.071226	-0.497380	-0.140654
H154	H	0.171228	-0.401786	-0.110613
H155	H	0.135521	-0.533425	-0.064160
H156	H	-0.674893	-1.216069	-0.097049
O157	O	-0.291688	-0.856845	0.000029
C158	C	-0.302617	-0.951689	0.000004
H159	H	-0.247224	-0.963197	0.030224
H160	H	-0.378425	-1.008072	0.046359
H161	H	-0.291040	-0.960492	-0.076588
O162	O	-0.831282	-1.231987	-0.091253
C163	C	-0.858317	-1.225922	-0.175741
H164	H	-0.799334	-1.158272	-0.233009
H165	H	-0.868708	-1.294038	-0.202721
H166	H	-0.928769	-1.220552	-0.159814
H167	H	-0.163872	-1.062653	0.258078
O168	O	-0.358965	-0.817653	-0.000151
C169	C	-0.299480	-0.823156	-0.082847
H170	H	-0.228208	-0.752925	-0.110414
H171	H	-0.284935	-0.888141	-0.064250
H172	H	-0.337194	-0.832853	-0.140746
H173	H	0.012192	-0.806491	-0.000003
H174	H	-0.473559	-0.733482	-0.000019
