data_functionalizedCrystal
_audit_creation_method	'MofGen! by Chris Wilmer'
_symmetry_space_group_name_H-M	'P1'
_symmetry_Int_Tables_number	1
_symmetry_cell_setting	triclinic
loop_
_symmetry_equiv_pos_as_xyz
  x,y,z
_cell_length_a	14.044220
_cell_length_b	16.109301
_cell_length_c	15.186229
_cell_angle_alpha	90.005167
_cell_angle_beta	89.997033
_cell_angle_gamma	91.674821
loop_
_atom_site_label
_atom_site_type_symbol
_atom_site_fract_x
_atom_site_fract_y
_atom_site_fract_z
O1	O	1.257643	-0.200436	-0.073232
O2	O	0.981676	-0.193203	-0.073234
O3	O	1.127241	-0.076352	-0.073224
O4	O	1.112079	-0.317286	-0.073242
O5	O	1.127231	-0.076350	0.073233
O6	O	0.981667	-0.193200	0.073223
O7	O	1.257634	-0.200433	0.073225
Zn8	Zn	1.119649	-0.196816	0.096478
Zn9	Zn	1.119661	-0.196820	-0.096486
O10	O	1.112069	-0.317284	0.073215
C11	C	1.126622	-0.045330	0.000005
C12	C	1.124781	0.047102	0.000006
C13	C	0.946358	-0.190036	-0.000005
C14	C	0.841135	-0.180592	-0.000006
C15	C	1.292952	-0.203600	-0.000005
C16	C	1.398175	-0.213044	-0.000010
C17	C	1.590831	-0.230310	-0.000011
C18	C	1.648485	-0.163330	-0.000005
C19	C	1.755685	-0.172937	-0.000006
C20	C	1.483620	-0.220704	-0.000011
C21	C	1.112688	-0.348306	-0.000016
C22	C	1.114529	-0.440738	-0.000023
N23	N	1.119647	-0.196814	0.228170
C24	C	1.206874	0.263266	-0.000007
C25	C	1.205137	0.350116	-0.000014
C26	C	1.032429	0.343091	-0.000012
C27	C	1.034168	0.256243	-0.000011
C28	C	1.121393	0.216333	-0.000004
C29	C	1.117917	0.390031	-0.000012
C30	C	1.116032	0.484197	-0.000020
C31	C	1.123278	0.122161	0.000002
N32	N	1.119671	-0.196816	-0.228179
C33	C	1.184125	-0.145093	0.453898
C34	C	1.184128	-0.145092	0.546087
C35	C	1.055186	-0.248539	0.546087
C36	C	1.055179	-0.248536	0.453899
C37	C	1.119654	-0.196814	0.407807
C38	C	1.119664	-0.196816	0.592185
C39	C	1.119666	-0.196814	0.692141
C40	C	1.119650	-0.196814	0.307844
H41	H	1.617334	-0.098773	-0.000065
H42	H	1.277898	0.230774	-0.000003
H43	H	1.002675	-0.290653	0.416370
H44	H	1.621980	-0.294862	-0.000016
H45	H	1.274744	0.388326	-0.000018
H46	H	0.961413	0.375597	-0.000016
H47	H	0.964554	0.218029	-0.000011
H48	H	1.236623	-0.102977	0.416371
H49	H	1.236624	-0.102975	0.583612
H50	H	1.002693	-0.290651	0.583625
