data_functionalizedCrystal
_audit_creation_method	'MofGen! by Chris Wilmer'
_symmetry_space_group_name_H-M	'P1'
_symmetry_Int_Tables_number	1
_symmetry_cell_setting	triclinic
loop_
_symmetry_equiv_pos_as_xyz
  x,y,z
_cell_length_a	16.109301
_cell_length_b	10.489741
_cell_length_c	14.586319
_cell_angle_alpha	89.996488
_cell_angle_beta	89.999213
_cell_angle_gamma	84.000327
loop_
_atom_site_label
_atom_site_type_symbol
_atom_site_fract_x
_atom_site_fract_y
_atom_site_fract_z
O1	O	1.104141	0.163947	-0.076182
O2	O	1.604141	0.663947	0.423818
O3	O	0.862205	0.184350	-0.076196
O4	O	1.362205	0.684350	0.423804
O5	O	0.988678	-0.011529	-0.076183
O6	O	1.488678	0.488471	0.423817
O7	O	0.977668	0.359826	-0.076195
O8	O	1.477668	0.859826	0.423805
O9	O	0.988670	-0.011532	0.076298
O10	O	1.488670	0.488468	0.576298
O11	O	0.862196	0.184347	0.076284
O12	O	1.362196	0.684347	0.576284
O13	O	1.104132	0.163944	0.076299
O14	O	1.604132	0.663944	0.576299
Cu15	Cu	0.983164	0.174145	0.090214
Cu16	Cu	1.483164	0.674145	0.590214
Cu17	Cu	0.983174	0.174149	-0.090112
Cu18	Cu	1.483174	0.674149	0.409888
O19	O	0.977659	0.359823	0.076286
O20	O	1.477659	0.859823	0.576286
C21	C	0.831221	0.183522	0.000042
C22	C	1.331221	0.683522	0.500042
C23	C	0.738910	0.181044	0.000037
C24	C	1.238910	0.681044	0.500037
C25	C	0.517319	0.291514	0.000044
C26	C	1.017319	0.791514	0.500044
C27	C	0.430584	0.289175	0.000050
C28	C	0.930584	0.789175	0.500050
C29	C	0.449026	0.056771	0.000053
C30	C	0.949026	0.556771	0.500053
C31	C	0.535759	0.059111	0.000054
C32	C	1.035759	0.559111	0.500054
C33	C	0.569903	0.176486	0.000045
C34	C	1.069903	0.676486	0.500045
C35	C	0.396435	0.171808	0.000050
C36	C	0.896435	0.671808	0.500050
C37	C	0.302393	0.169272	0.000056
C38	C	0.802393	0.669272	0.500056
C39	C	0.663950	0.179022	0.000040
C40	C	1.163950	0.679022	0.500040
C41	C	0.987842	-0.059050	0.000057
C42	C	1.487842	0.440950	0.500057
C43	C	0.985354	-0.200644	0.000055
C44	C	1.485354	0.299356	0.500055
C45	C	0.904883	-0.267616	0.000043
C46	C	1.404883	0.232384	0.500043
C47	C	0.942893	-0.360292	0.075226
C48	C	1.442893	0.139708	0.575226
C49	C	0.942920	-0.360264	-0.075108
C50	C	1.442920	0.139736	0.424892
C51	C	1.023397	-0.291454	0.075300
C52	C	1.523397	0.208546	0.575300
C53	C	1.023414	-0.291417	-0.075102
C54	C	1.523414	0.208583	0.424898
C55	C	1.061482	-0.384066	0.000100
C56	C	1.561482	0.115934	0.500100
C57	C	1.135117	0.164772	0.000058
C58	C	1.635117	0.664772	0.500058
C59	C	1.227427	0.167250	0.000058
C60	C	1.727427	0.667250	0.500058
C61	C	0.978495	0.407344	0.000044
C62	C	1.478495	0.907344	0.500044
C63	C	0.980983	0.548938	0.000040
C64	C	1.480983	1.048938	0.500040
N65	N	0.983162	0.174142	0.217046
N66	N	1.483162	0.674142	0.717046
N67	N	0.983182	0.174142	-0.216944
N68	N	1.483182	0.674142	0.283056
C69	C	1.039183	0.087436	0.452058
C70	C	1.539183	0.587436	0.952058
C71	C	1.039186	0.087433	0.548040
C72	C	1.539186	0.587433	1.048040
C73	C	0.927155	0.260852	0.548038
C74	C	1.427155	0.760852	1.048038
C75	C	0.927149	0.260848	0.452058
C76	C	1.427149	0.760848	0.952058
C77	C	0.983168	0.174141	0.404071
C78	C	1.483168	0.674141	0.904071
C79	C	0.983176	0.174142	0.596032
C80	C	1.483176	0.674142	1.096032
C81	C	0.983178	0.174140	0.700099
C82	C	1.483178	0.674140	1.200099
C83	C	0.983165	0.174142	0.299997
C84	C	1.483165	0.674142	0.799997
H85	H	0.421215	-0.038791	0.000067
H86	H	0.921215	0.461209	0.500067
N87	N	1.099599	-0.006080	0.400299
N88	N	1.599599	0.493920	0.900299
H89	H	1.135084	-0.061009	0.445267
H90	H	1.635084	0.438991	0.945267
H91	H	1.067432	-0.062483	0.360482
H92	H	1.567432	0.437517	0.860482
H93	H	1.127704	-0.434450	0.000146
H94	H	1.627704	0.065550	0.500146
N95	N	1.099614	-0.006073	0.599794
N96	N	1.599614	0.493927	1.099794
H97	H	1.067519	-0.062575	0.639622
H98	H	1.567519	0.437425	1.139622
H99	H	1.135083	-0.060904	0.554764
H100	H	1.635083	0.439096	1.054764
H101	H	0.881546	0.331449	0.587118
H102	H	1.381546	0.831449	1.087118
H103	H	0.545116	0.387088	0.000043
H104	H	1.045116	0.887088	0.500043
N105	N	0.866723	0.354360	0.400292
N106	N	1.366723	0.854360	0.900292
H107	H	0.831239	0.409294	0.445254
H108	H	1.331239	0.909294	0.945254
H109	H	0.898881	0.410761	0.360458
H110	H	1.398881	0.910761	0.860458
N111	N	0.897806	-0.400639	-0.159301
N112	N	1.397806	0.099361	0.340699
H113	H	0.927608	-0.374359	-0.216083
H114	H	1.427608	0.125641	0.283917
H115	H	0.896933	-0.496768	-0.158911
H116	H	1.396933	0.003232	0.341089
N117	N	0.373888	0.413261	0.000086
N118	N	0.873888	0.913261	0.500086
H119	H	0.384945	0.464496	-0.056429
H120	H	0.884945	0.964496	0.443571
H121	H	0.313778	0.393900	0.000138
H122	H	0.813778	0.893900	0.500138
N123	N	0.592476	-0.064967	0.000062
N124	N	1.092476	0.435033	0.500062
H125	H	0.581418	-0.116176	-0.056461
H126	H	1.081418	0.383824	0.443539
H127	H	0.652579	-0.045572	0.000102
H128	H	1.152579	0.454428	0.500102
N129	N	0.817245	-0.200574	0.000126
N130	N	1.317245	0.299426	0.500126
H131	H	0.786955	-0.225431	0.056969
H132	H	1.286955	0.274569	0.556969
H133	H	0.819613	-0.104746	-0.000489
H134	H	1.319613	0.395254	0.499511
H135	H	0.908840	-0.390811	0.138784
H136	H	1.408840	0.109189	0.638784
N137	N	1.068453	-0.251302	0.159598
N138	N	1.568453	0.248698	0.659598
H139	H	1.118750	-0.207726	0.140544
H140	H	1.618750	0.292274	0.640544
H141	H	1.029543	-0.189921	0.196952
H142	H	1.529543	0.310079	0.696952
N143	N	1.068489	-0.250945	-0.159291
N144	N	1.568489	0.249055	0.340709
H145	H	1.038045	-0.275684	-0.216056
H146	H	1.538045	0.224316	0.283944
H147	H	1.070302	-0.155006	-0.158257
H148	H	1.570302	0.344994	0.341743
