data_functionalizedCrystal
_audit_creation_method	'MofGen! by Chris Wilmer'
_symmetry_space_group_name_H-M	'P1'
_symmetry_Int_Tables_number	1
_symmetry_cell_setting	triclinic
loop_
_symmetry_equiv_pos_as_xyz
  x,y,z
_cell_length_a	8.559649
_cell_length_b	23.532407
_cell_length_c	7.681481
_cell_angle_alpha	84.289450
_cell_angle_beta	94.913240
_cell_angle_gamma	76.313671
loop_
_atom_site_label
_atom_site_type_symbol
_atom_site_fract_x
_atom_site_fract_y
_atom_site_fract_z
O1	O	2.105234	-0.013278	-0.146397
O2	O	1.639561	0.016154	-0.146414
O3	O	1.886443	-0.082081	-0.146373
O4	O	1.858352	0.084957	-0.146438
O5	O	1.916831	-0.094196	0.146490
O6	O	1.669949	0.004039	0.146449
O7	O	2.135622	-0.025394	0.146466
Zn8	Zn	1.907610	-0.012601	0.192956
Zn9	Zn	1.867573	0.003362	-0.192904
O10	O	1.888739	0.072842	0.146425
C11	C	1.595190	0.012327	0.000016
C12	C	1.417704	0.018967	0.000010
C13	C	1.900922	-0.109325	0.000063
C14	C	1.898774	-0.172453	0.000077
C15	C	2.031375	-0.577085	-0.000015
C16	C	2.029376	-0.636401	-0.000028
O17	O	2.152301	-0.678272	-0.000089
N18	N	1.882607	-0.652904	-0.000032
C19	C	1.737825	-0.610085	-0.000041
O20	O	1.612803	-0.629568	-0.000048
C21	C	1.739824	-0.550770	-0.000040
C22	C	1.886605	-0.534272	-0.000018
C23	C	2.178143	-0.560586	0.000005
C24	C	2.180142	-0.501274	0.000022
C25	C	2.035372	-0.458460	0.000019
C26	C	1.888603	-0.474960	-0.000002
C27	C	1.595043	-0.507952	-0.000062
C28	C	1.597055	-0.448633	-0.000062
C29	C	1.743835	-0.432135	-0.000040
C30	C	1.745832	-0.372834	0.000012
N31	N	1.892601	-0.356332	0.000016
C32	C	2.037371	-0.399145	0.000019
C33	C	1.733637	-0.734653	-0.000046
C34	C	1.731638	-0.793968	-0.000034
C35	C	2.023189	-0.820279	-0.000025
C36	C	2.025188	-0.760964	-0.000024
C37	C	1.880407	-0.718150	-0.000042
C38	C	2.041557	-0.274584	0.000056
C39	C	2.043544	-0.215266	0.000080
C40	C	1.751992	-0.188959	0.000061
C41	C	1.750006	-0.248272	0.000046
C42	C	1.894801	-0.291084	0.000038
O43	O	1.622970	-0.330931	0.000065
O44	O	2.162370	-0.379651	0.000003
C45	C	2.179993	-0.021566	0.000033
C46	C	2.357478	-0.028205	0.000026
C47	C	1.874260	0.100086	-0.000015
C48	C	1.876408	0.163214	-0.000040
N49	N	1.934946	-0.023496	0.456295
N50	N	1.840250	0.014252	-0.456243
H51	H	1.333473	0.064435	-0.000017
C52	C	1.552642	-0.090119	-0.150491
C53	C	1.471166	-0.089584	0.000052
H54	H	1.622842	-0.128011	-0.150466
H55	H	1.476168	-0.081301	-0.252601
H56	H	1.614196	-0.061412	-0.150482
H57	H	1.409602	-0.118288	0.000037
H58	H	1.547651	-0.098408	0.102189
C59	C	2.331534	-0.247241	0.000074
C60	C	2.204895	-0.197133	0.000090
H61	H	2.431138	-0.236046	0.000066
H62	H	2.335288	-0.274058	0.102191
H63	H	2.314072	-0.265596	-0.102065
H64	H	2.222351	-0.178780	0.102236
H65	H	2.201143	-0.170306	-0.102038
C66	C	1.551080	-0.646451	-0.150591
C67	C	1.574479	-0.687595	-0.000042
H68	H	1.452817	-0.617404	-0.150592
H69	H	1.638754	-0.628130	-0.150575
H70	H	1.545773	-0.665915	-0.252708
H71	H	1.579798	-0.668132	0.102076
H72	H	1.486782	-0.705917	-0.000042
C73	C	2.192881	-0.350309	-0.150503
C74	C	2.200718	-0.321637	0.000054
H75	H	2.291145	-0.379355	-0.150497
H76	H	2.105210	-0.368631	-0.150505
H77	H	2.176998	-0.322386	-0.252614
H78	H	2.216589	-0.349560	0.102167
H79	H	2.288415	-0.303315	0.000072
H80	H	2.031629	-0.062024	0.531517
C81	C	2.413626	-0.499216	-0.150535
C82	C	2.341487	-0.483144	0.000021
H83	H	2.513234	-0.488024	-0.150542
H84	H	2.433129	-0.540665	-0.150522
H85	H	2.343444	-0.479852	-0.252648
H86	H	2.411664	-0.502512	0.102134
H87	H	2.321990	-0.441688	0.000024
H88	H	2.296039	-0.595440	0.000002
H89	H	2.144710	-0.747536	-0.000007
C90	C	2.174436	-0.896011	-0.150612
C91	C	2.182329	-0.867345	-0.000048
H92	H	2.272681	-0.925064	-0.150630
H93	H	2.086746	-0.914323	-0.150600
H94	H	2.158556	-0.868085	-0.252719
H95	H	2.198197	-0.895270	0.102060
H96	H	2.270045	-0.849033	-0.000044
C97	C	1.626224	0.099563	0.561888
C98	C	1.709746	0.066266	0.442235
H99	H	1.545663	0.131677	0.499201
H100	H	1.576400	0.075430	0.633809
H101	H	1.699967	0.114173	0.633785
H102	H	1.636005	0.051652	0.370347
H103	H	1.759571	0.090403	0.370283
C104	C	1.443658	-0.761987	-0.000047
C105	C	1.570293	-0.812098	-0.000044
H106	H	1.344048	-0.773179	-0.000072
H107	H	1.461103	-0.743634	0.102082
H108	H	1.439927	-0.735168	-0.102175
H109	H	1.574032	-0.838916	0.102090
H110	H	1.552844	-0.830461	-0.102184
C111	C	1.488505	-0.142024	-0.150520
C112	C	1.592864	-0.141891	0.000045
H113	H	1.390262	-0.112967	-0.150532
H114	H	1.538151	-0.133484	-0.252616
H115	H	1.466306	-0.179712	-0.150505
H116	H	1.615072	-0.104204	0.000023
H117	H	1.543207	-0.150428	0.102167
H118	H	1.479153	-0.413775	-0.000079
H119	H	1.475518	-0.521372	-0.000090
H120	H	1.630490	-0.261707	0.000077
