data_functionalizedCrystal
_audit_creation_method	'MofGen! by Chris Wilmer'
_symmetry_space_group_name_H-M	'P1'
_symmetry_Int_Tables_number	1
_symmetry_cell_setting	triclinic
loop_
_symmetry_equiv_pos_as_xyz
  x,y,z
_cell_length_a	17.077404
_cell_length_b	16.120444
_cell_length_c	17.077396
_cell_angle_alpha	87.130511
_cell_angle_beta	90.019501
_cell_angle_gamma	92.926816
loop_
_atom_site_label
_atom_site_type_symbol
_atom_site_fract_x
_atom_site_fract_y
_atom_site_fract_z
Zn1	Zn	1.184189	-0.331904	0.459677
Zn2	Zn	1.177431	-0.471328	0.335063
Zn3	Zn	1.052919	-0.331933	0.328426
Zn4	Zn	1.046226	-0.471279	0.466284
O5	O	1.115191	-0.401611	0.397363
O6	O	1.293139	-0.350407	0.443159
O7	O	1.160887	-0.452870	0.224337
O8	O	1.075961	-0.215263	0.340295
O9	O	1.288174	-0.452842	0.351605
O10	O	1.172405	-0.215241	0.436724
O11	O	1.069409	-0.350457	0.219461
O12	O	0.942185	-0.350409	0.346701
O13	O	1.064554	-0.452758	0.575253
O14	O	0.937267	-0.452786	0.447984
O15	O	1.165915	-0.350359	0.570399
O16	O	1.154397	-0.587988	0.358012
O17	O	1.058001	-0.587952	0.454419
C18	C	0.911244	-0.401596	0.397340
C19	C	0.823993	-0.401610	0.397350
C20	C	0.780459	-0.454998	0.450012
C21	C	0.698479	-0.454999	0.450024
C22	C	0.660034	-0.401617	0.397371
C23	C	0.703574	-0.348223	0.344707
C24	C	0.785553	-0.348217	0.344699
C25	C	0.532703	-0.348239	0.344727
C26	C	0.450718	-0.348246	0.344734
C27	C	0.445629	-0.455021	0.450052
C28	C	0.527608	-0.455016	0.450044
C29	C	0.571142	-0.401623	0.397379
C30	C	1.104761	-0.618220	0.407670
C31	C	1.100370	-0.710886	0.412105
C32	C	1.138158	-0.921827	0.374521
C33	C	1.092369	-0.880544	0.420212
C34	C	1.096822	-0.786138	0.415700
C35	C	1.133706	-1.016242	0.379032
C36	C	1.319935	-0.401627	0.397385
C37	C	1.407184	-0.401634	0.397395
C38	C	1.115241	-0.401550	0.602104
C39	C	1.115263	-0.401523	0.689353
C40	C	1.125684	-0.184156	0.387032
C41	C	1.130155	-0.091490	0.382630
C42	C	1.115189	-0.401612	0.193415
C43	C	1.115331	-0.401403	0.106155
C44	C	1.168043	-0.348200	0.727816
C45	C	1.168054	-0.348173	0.809795
C46	C	1.115288	-0.401473	0.853310
C47	C	1.062501	-0.454798	0.814840
C48	C	1.062488	-0.454821	0.732862
C49	C	1.062535	-0.454748	0.985708
C50	C	1.062550	-0.454727	1.067692
C51	C	1.168102	-0.348099	1.062641
C52	C	1.168088	-0.348122	0.980663
C53	C	1.115303	-0.401449	0.942200
H54	H	0.672265	-0.304754	0.301839
N55	N	1.225027	-0.290562	1.104111
H56	H	1.280487	-0.303516	1.090472
H57	H	1.216964	-0.298647	1.162634
H58	H	1.180701	-0.886274	0.332017
N59	N	1.225000	-0.290629	0.933736
H60	H	1.194955	-0.252003	0.897884
H61	H	1.259725	-0.324579	0.901386
N62	N	0.651523	-0.512590	0.506816
H63	H	0.615639	-0.551176	0.476688
H64	H	0.619202	-0.478706	0.541630
H65	H	0.811755	-0.498471	0.492886
H66	H	0.419419	-0.304767	0.301868
N67	N	0.398677	-0.512612	0.506854
H68	H	0.435471	-0.546435	0.540202
H69	H	0.362798	-0.551147	0.476669
N70	N	1.005638	-0.512195	1.114644
H71	H	1.014935	-0.571776	1.103222
H72	H	0.950199	-0.499165	1.099742
H73	H	0.558908	-0.498489	0.492915
N74	N	1.005600	-0.512259	0.944219
H75	H	0.972176	-0.546024	0.984223
H76	H	1.035686	-0.550853	0.912044
H77	H	1.019535	-0.498193	0.850276
N78	N	1.224962	-0.290717	0.680886
H79	H	1.258398	-0.256932	0.717696
H80	H	1.194866	-0.252142	0.645034
N81	N	1.005553	-0.512326	0.691372
H82	H	0.972127	-0.546088	0.731376
H83	H	1.035631	-0.550922	0.659192
N84	N	1.036004	-0.927627	0.476516
H85	H	1.066208	-0.963700	0.514616
H86	H	0.997985	-0.963767	0.446216
N87	N	0.579661	-0.290649	0.287928
H88	H	0.542868	-0.256833	0.254572
H89	H	0.612028	-0.324535	0.253159
N90	N	0.832512	-0.290629	0.287905
H91	H	0.795719	-0.256812	0.254550
H92	H	0.864883	-0.324509	0.253134
H93	H	1.211035	-0.304753	0.841109
