data_functionalizedCrystal
_audit_creation_method	'MofGen! by Chris Wilmer'
_symmetry_space_group_name_H-M	'P1'
_symmetry_Int_Tables_number	1
_symmetry_cell_setting	triclinic
loop_
_symmetry_equiv_pos_as_xyz
  x,y,z
_cell_length_a	21.883469
_cell_length_b	21.882911
_cell_length_c	21.879399
_cell_angle_alpha	60.006540
_cell_angle_beta	60.013207
_cell_angle_gamma	59.992231
loop_
_atom_site_label
_atom_site_type_symbol
_atom_site_fract_x
_atom_site_fract_y
_atom_site_fract_z
O1	O	0.084645	-0.892842	0.746620
O2	O	0.031867	-0.695139	0.601571
O3	O	0.157054	-0.820237	0.601476
O4	O	-0.040542	-0.767744	0.746716
O5	O	0.198586	-0.778715	0.642912
O6	O	0.073399	-0.653617	0.643007
O7	O	0.126177	-0.851320	0.788056
Cu8	Cu	0.103580	-0.748677	0.719315
Cu9	Cu	0.054464	-0.797782	0.670313
O10	O	0.000990	-0.726222	0.788151
N11	N	0.138128	-0.714145	0.753785
N12	N	0.019923	-0.832320	0.635843
C13	C	0.190018	-0.547369	0.805644
C14	C	0.190029	-0.662289	0.805630
C15	C	0.218780	-0.633565	0.834353
C16	C	0.344122	-0.611968	0.768360
C17	C	0.422474	-0.638085	0.742222
C18	C	0.422504	-0.764859	0.790561
C19	C	0.344154	-0.738739	0.816702
C20	C	0.208899	-0.508180	0.728617
C21	C	0.182748	-0.429822	0.702522
C22	C	0.118843	-0.429847	0.830485
C23	C	0.144993	-0.508205	0.856580
C24	C	0.112994	-0.643364	0.824587
C25	C	0.086865	-0.669476	0.798467
C26	C	0.214799	-0.733437	0.734451
C27	C	0.240932	-0.707325	0.760562
C28	C	0.113084	-0.643389	0.959747
C29	C	0.087018	-0.669524	1.038102
C30	C	0.214996	-0.733501	1.038048
C31	C	0.241061	-0.707367	0.959690
C32	C	0.190103	-0.662308	0.920542
C33	C	0.304966	-0.662293	0.805598
C34	C	-0.117460	-0.854702	0.612901
C35	C	-0.002405	-0.854864	0.498145
C36	C	-0.002621	-0.969735	0.613108
C37	C	-0.002603	-0.854858	0.613180
C38	C	-0.031272	-0.883541	0.584334
N39	N	0.460550	-0.714150	0.753681
O40	O	0.699805	-0.721060	0.574973
O41	O	0.700047	-0.866553	0.772482
O42	O	0.699952	-0.866219	0.647213
O43	O	0.699900	-0.721394	0.700242
O44	O	0.575478	-0.824800	0.688791
O45	O	0.575573	-0.825134	0.814060
O46	O	0.575331	-0.679641	0.616551
Cu47	Cu	0.564087	-0.748606	0.719102
Cu48	Cu	0.711292	-0.797588	0.669931
O49	O	0.575426	-0.679975	0.741820
N50	N	0.814828	-0.832044	0.635345
N51	N	0.138106	-0.391772	0.753815
O52	O	-0.040520	-0.152377	0.746758
O53	O	0.156993	-0.152371	0.601281
O54	O	0.031698	-0.152390	0.601639
O55	O	0.084775	-0.152358	0.746401
O56	O	0.073234	-0.276876	0.643130
O57	O	0.198529	-0.276856	0.642772
O58	O	0.001015	-0.276863	0.788249
Cu59	Cu	0.103564	-0.288226	0.719299
Cu60	Cu	0.054444	-0.141007	0.670231
O61	O	0.126310	-0.276844	0.787892
N62	N	0.019892	-0.037461	0.635717
N63	N	0.138332	-0.714192	1.076133
O64	O	0.131293	-0.892804	1.315506
O65	O	-0.014162	-0.695219	1.315533
O66	O	-0.013826	-0.820490	1.315480
O67	O	0.130957	-0.767533	1.315559
O68	O	0.027651	-0.778981	1.191001
O69	O	0.027314	-0.653710	1.191054
O70	O	0.172770	-0.851295	1.191026
Cu71	Cu	0.103829	-0.748713	1.179674
Cu72	Cu	0.054778	-0.797802	1.326885
O73	O	0.172434	-0.726024	1.191079
N74	N	0.020275	-0.832331	1.430426
C75	C	0.047687	-0.649466	0.602306
C76	C	0.202716	-0.804385	0.602188
C77	C	0.110357	-0.896993	0.787321
C78	C	-0.044672	-0.742074	0.787439
C79	C	0.637839	-0.865879	0.818154
C80	C	0.637724	-0.865466	0.663023
C81	C	0.637536	-0.680313	0.570880
C82	C	0.637655	-0.680728	0.726010
C83	C	0.202592	-0.214459	0.601942
C84	C	0.047481	-0.214636	0.602435
C85	C	-0.044635	-0.214620	0.787537
C86	C	0.110528	-0.214598	0.787096
C87	C	-0.013455	-0.649572	1.253296
C88	C	-0.013030	-0.804697	1.253206
C89	C	0.172063	-0.896942	1.253263
C90	C	0.171648	-0.741808	1.253325
H91	H	0.024299	-0.654107	1.070013
C92	C	-0.138608	-0.756166	1.253088
C93	C	-0.074413	-0.819957	1.253106
H94	H	-0.176503	-0.765590	1.253032
H95	H	-0.126945	-0.715346	1.209706
H96	H	-0.155919	-0.744306	1.296524
H97	H	-0.057099	-0.831814	1.209668
H98	H	-0.086076	-0.860789	1.296493
C99	C	0.207070	-1.019883	1.253221
C100	C	0.233715	-0.973546	1.253251
H101	H	0.245132	-1.067176	1.253217
H102	H	0.193472	-0.997480	1.209808
H103	H	0.164542	-1.026429	1.296625
H104	H	0.276241	-0.966995	1.209844
H105	H	0.247324	-0.995954	1.296669
H106	H	-0.059121	-0.592825	1.253304
C107	C	0.186056	-0.278596	0.865649
C108	C	0.125860	-0.214602	0.848503
H109	H	0.195517	-0.278602	0.903564
H110	H	0.229293	-0.278586	0.822089
H111	H	0.174176	-0.322002	0.882932
H112	H	0.137742	-0.171196	0.831214
H113	H	0.082614	-0.214605	0.892071
H114	H	0.637644	-0.635235	0.737357
C115	C	0.198597	-1.019863	0.821965
C116	C	0.125567	-0.973660	0.848822
H117	H	0.207984	-1.067195	0.859932
H118	H	0.233148	-0.997396	0.808333
H119	H	0.204181	-1.026341	0.779421
H120	H	0.119985	-0.967177	0.891363
H121	H	0.091006	-0.996132	0.862464
C122	C	0.292729	-0.879633	0.523365
C123	C	0.279328	-0.819486	0.540613
H124	H	0.340029	-0.888957	0.485355
H125	H	0.254662	-0.867783	0.506178
H126	H	0.292596	-0.922952	0.566864
H127	H	0.279456	-0.776165	0.497115
H128	H	0.317405	-0.831332	0.557797
H129	H	0.217133	-0.730478	1.253340
H130	H	-0.101428	-0.730886	0.833046
C131	C	0.637947	-0.900891	0.941080
C132	C	0.637930	-0.927545	0.894729
H133	H	0.638008	-0.938963	0.988352
H134	H	0.594519	-0.858379	0.947662
H135	H	0.681334	-0.887265	0.918664
H136	H	0.594540	-0.941166	0.917143
H137	H	0.681362	-0.970070	0.888149
C138	C	0.279034	-0.213883	0.476062
C139	C	0.279012	-0.214006	0.540132
H140	H	0.326217	-0.213613	0.437908
H141	H	0.240776	-0.170570	0.459102
H142	H	0.270135	-0.257391	0.487724
H143	H	0.287906	-0.170495	0.528472
H144	H	0.317281	-0.257324	0.557095
H145	H	0.071582	-0.606692	0.927876
H146	H	0.637745	-0.910963	0.651673
H147	H	0.637457	-0.634634	0.514159
H148	H	0.256495	-0.770176	1.069914
C149	C	0.256030	-0.517237	0.825561
C150	C	0.301048	-0.527937	0.756157
H151	H	0.229434	-0.465360	0.818024
H152	H	0.286620	-0.535615	0.854248
H153	H	0.221496	-0.543473	0.851474
H154	H	0.335586	-0.501706	0.730246
H155	H	0.270456	-0.509550	0.727458
C156	C	-0.040886	-0.214696	0.568028
C157	C	0.032156	-0.214676	0.541047
H158	H	-0.050341	-0.214734	0.530132
H159	H	-0.075412	-0.171278	0.581635
H160	H	-0.046437	-0.258100	0.610608
H161	H	0.037705	-0.171270	0.498470
H162	H	0.066692	-0.258100	0.527430
C163	C	-0.177346	-0.150613	0.823891
C164	C	-0.121210	-0.214607	0.849197
H165	H	-0.224619	-0.150601	0.861960
H166	H	-0.177294	-0.150631	0.780463
H167	H	-0.168199	-0.107207	0.812100
H168	H	-0.130354	-0.258013	0.860983
H169	H	-0.121264	-0.214595	0.892639
C170	C	0.358174	-0.806101	0.935520
C171	C	0.325727	-0.728169	0.916599
H172	H	0.410443	-0.818941	0.908921
H173	H	0.336160	-0.824110	0.922681
H174	H	0.349935	-0.828102	0.987789
H175	H	0.333962	-0.706167	0.864331
H176	H	0.347749	-0.710152	0.929433
C177	C	-0.036977	-0.603651	0.864389
C178	C	0.002186	-0.648687	0.819308
H179	H	-0.089253	-0.590823	0.877260
H180	H	-0.024161	-0.559343	0.837811
H181	H	-0.024084	-0.630250	0.908675
H182	H	-0.010702	-0.622085	0.775019
H183	H	-0.010635	-0.693002	0.845886
H184	H	0.256252	-0.770113	0.697763
C185	C	0.364773	-0.773135	0.694625
C186	C	0.325610	-0.728101	0.739707
H187	H	0.417049	-0.785958	0.681748
H188	H	0.351875	-0.746544	0.650349
H189	H	0.351963	-0.817454	0.721211
H190	H	0.338416	-0.683779	0.713118
H191	H	0.338514	-0.754692	0.783990
H192	H	0.312274	-0.779724	0.847024
C193	C	0.414671	-0.887550	0.840962
C194	C	0.465586	-0.848891	0.802756
H195	H	0.441269	-0.939427	0.848494
H196	H	0.384088	-0.869167	0.812266
H197	H	0.384134	-0.880282	0.888044
H198	H	0.496120	-0.856153	0.755672
H199	H	0.496182	-0.867279	0.831452
H200	H	0.071542	-0.606694	0.861281
H201	H	0.245557	-0.540066	0.687141
C202	C	0.414574	-0.510151	0.697055
C203	C	0.465518	-0.582767	0.701285
H204	H	0.441151	-0.476000	0.671777
H205	H	0.384040	-0.508153	0.746140
H206	H	0.383991	-0.497048	0.670367
H207	H	0.496097	-0.595872	0.727978
H208	H	0.496065	-0.584767	0.652191
H209	H	0.036413	-0.592673	0.556752
H210	H	0.082193	-0.397958	0.871963
C211	C	0.248542	-0.437662	0.578651
C212	C	0.203499	-0.386739	0.617847
H213	H	0.261356	-0.411064	0.526377
H214	H	0.221965	-0.468223	0.591499
H215	H	0.292860	-0.468227	0.591485
H216	H	0.159178	-0.356178	0.605017
H217	H	0.230075	-0.356165	0.604993
H218	H	0.129609	-0.540114	0.919306
