data_functionalizedCrystal
_audit_creation_method	'MofGen! by Chris Wilmer'
_symmetry_space_group_name_H-M	'P1'
_symmetry_Int_Tables_number	1
_symmetry_cell_setting	triclinic
loop_
_symmetry_equiv_pos_as_xyz
  x,y,z
_cell_length_a	14.853567
_cell_length_b	13.930277
_cell_length_c	14.853567
_cell_angle_alpha	89.999243
_cell_angle_beta	96.365070
_cell_angle_gamma	90.004245
loop_
_atom_site_label
_atom_site_type_symbol
_atom_site_fract_x
_atom_site_fract_y
_atom_site_fract_z
O1	O	-1.196368	-0.079756	0.117704
O2	O	-0.696368	0.420244	0.617704
O3	O	-0.933909	-0.079772	0.131725
O4	O	-0.433909	0.420228	0.631725
O5	O	-1.072149	-0.079767	-0.006516
O6	O	-0.572149	0.420233	0.493484
O7	O	-1.058128	-0.079762	0.255944
O8	O	-0.558128	0.420238	0.755944
O9	O	-1.072130	0.079895	-0.006519
O10	O	-0.572130	0.579895	0.493481
O11	O	-0.933890	0.079890	0.131722
O12	O	-0.433890	0.579890	0.631722
O13	O	-1.196349	0.079905	0.117701
O14	O	-0.696349	0.579905	0.617701
Zn15	Zn	-1.065116	0.105247	0.124711
Zn16	Zn	-0.565116	0.605247	0.624711
Zn17	Zn	-1.065142	-0.105114	0.124715
Zn18	Zn	-0.565142	0.394886	0.624715
O19	O	-1.058109	0.079900	0.255941
O20	O	-0.558109	0.579900	0.755941
C21	C	-0.900311	0.000057	0.131088
C22	C	-0.400311	0.500057	0.631088
C23	C	-0.800227	0.000051	0.129184
C24	C	-0.300227	0.500051	0.629184
C25	C	-1.229947	0.000075	0.118337
C26	C	-0.729947	0.500075	0.618337
C27	C	-1.330031	0.000075	0.120241
C28	C	-0.830031	0.500075	0.620241
C29	C	-1.071504	0.000061	-0.040106
C30	C	-0.571504	0.500061	0.459894
C31	C	-1.069601	0.000053	-0.140189
C32	C	-0.569601	0.500053	0.359811
C33	C	-0.387693	0.000070	0.039019
C34	C	0.112307	0.500070	0.539019
C35	C	-0.366412	0.000073	0.203251
C36	C	0.133588	0.500073	0.703251
C37	C	-0.460446	0.000070	0.205042
C38	C	0.039554	0.500070	0.705042
C39	C	-0.518108	0.000066	0.123819
C40	C	-0.018108	0.500066	0.623819
C41	C	-0.481736	0.000065	0.040806
C42	C	0.018264	0.500065	0.540806
C43	C	-0.496825	0.000061	0.288053
C44	C	0.003175	0.500061	0.788053
C45	C	-0.590864	0.000057	0.289846
C46	C	-0.090864	0.500057	0.789846
C47	C	-0.648528	0.000060	0.208623
C48	C	-0.148528	0.500060	0.708623
C49	C	-0.612150	0.000060	0.125607
C50	C	-0.112150	0.500060	0.625607
C51	C	-0.669812	0.000056	0.044384
C52	C	-0.169812	0.500056	0.544384
C53	C	-0.633437	0.000063	-0.038633
C54	C	-0.133437	0.500063	0.461367
C55	C	-0.539399	0.000067	-0.040417
C56	C	-0.039399	0.500067	0.459583
C57	C	-0.742565	0.000055	0.210407
C58	C	-0.242565	0.500055	0.710407
C59	C	-0.763855	0.000050	0.046172
C60	C	-0.263855	0.500050	0.546172
N61	N	-1.065106	0.248814	0.124708
N62	N	-0.565106	0.748814	0.624708
N63	N	-1.065160	-0.248680	0.124711
N64	N	-0.565160	0.251320	0.624711
C65	C	-1.003926	0.701081	0.185904
C66	C	-0.503926	1.201081	0.685904
C67	C	-1.126382	0.701055	0.063519
C68	C	-0.626382	1.201055	0.563519
C69	C	-1.126371	0.600559	0.063516
C70	C	-0.626371	1.100559	0.563516
C71	C	-1.065138	0.550319	0.124709
C72	C	-0.565138	1.050319	0.624709
C73	C	-1.003916	0.600576	0.185904
C74	C	-0.503916	1.100576	0.685904
C75	C	-1.187598	0.550295	0.002328
C76	C	-0.687598	1.050295	0.502328
C77	C	-1.187591	0.449793	0.002323
C78	C	-0.687591	0.949793	0.502323
C79	C	-1.126353	0.399552	0.063512
C80	C	-0.626353	0.899552	0.563512
C81	C	-1.065127	0.449814	0.124710
C82	C	-0.565127	0.949814	0.624710
C83	C	-1.003894	0.399575	0.185902
C84	C	-0.503894	0.899575	0.685902
C85	C	-0.942664	0.449835	0.247096
C86	C	-0.442664	0.949835	0.747096
C87	C	-0.942677	0.550334	0.247094
C88	C	-0.442677	1.050334	0.747094
C89	C	-1.126339	0.299053	0.063515
C90	C	-0.626339	0.799053	0.563515
C91	C	-1.003883	0.299070	0.185903
C92	C	-0.503883	0.799070	0.685903
C93	C	-0.979435	0.000066	-0.552723
C94	C	-0.479435	0.500066	-0.052723
C95	C	-1.143668	0.000076	-0.574004
C96	C	-0.643668	0.500076	-0.074004
C97	C	-1.145458	0.000070	-0.479971
C98	C	-0.645458	0.500070	0.020029
C99	C	-1.064235	0.000064	-0.422309
C100	C	-0.564235	0.500064	0.077691
C101	C	-0.981223	0.000063	-0.458680
C102	C	-0.481223	0.500063	0.041320
C103	C	-1.228469	0.000080	-0.443591
C104	C	-0.728469	0.500080	0.056409
C105	C	-1.230262	0.000076	-0.349552
C106	C	-0.730262	0.500076	0.150448
C107	C	-1.149039	0.000063	-0.291889
C108	C	-0.649039	0.500063	0.208111
C109	C	-1.066023	0.000061	-0.328266
C110	C	-0.566023	0.500061	0.171734
C111	C	-0.984800	0.000055	-0.270604
C112	C	-0.484800	0.500055	0.229396
C113	C	-0.901783	0.000047	-0.306979
C114	C	-0.401783	0.500047	0.193021
C115	C	-0.899999	0.000050	-0.401017
C116	C	-0.399999	0.500050	0.098983
C117	C	-1.150823	0.000059	-0.197851
C118	C	-0.650823	0.500059	0.302149
C119	C	-0.986588	0.000052	-0.176561
C120	C	-0.486588	0.500052	0.323439
C121	C	-1.058754	0.000070	0.289531
C122	C	-0.558754	0.500070	0.789531
C123	C	-1.060657	0.000072	0.389615
C124	C	-0.560657	0.500072	0.889615
H125	H	-0.810798	0.000050	-0.019971
H126	H	-0.310798	0.500050	0.480029
Cl127	Cl	-0.865694	0.386666	0.324027
Cl128	Cl	-0.365694	0.886666	0.824027
H129	H	-0.954016	0.258171	0.235731
H130	H	-0.454016	0.758171	0.735731
H131	H	-1.176240	0.741963	0.013702
H132	H	-0.676240	1.241963	0.513702
Cl133	Cl	-1.264580	0.613451	-0.074592
Cl134	Cl	-0.764580	1.113451	0.425408
Cl135	Cl	-0.865711	0.613521	0.324020
Cl136	Cl	-0.365711	1.113521	0.824020
Cl137	Cl	-0.926951	0.764260	0.262826
Cl138	Cl	-0.426951	1.264260	0.762826
H139	H	-0.620472	0.000051	0.357443
H140	H	-0.120472	0.500051	0.857443
Cl141	Cl	-0.884473	0.000037	-0.104079
Cl142	Cl	-0.384473	0.500037	0.395921
Cl143	Cl	-1.203314	0.235875	-0.013403
Cl144	Cl	-0.703314	0.735875	0.486597
Cl145	Cl	-0.341967	0.000084	-0.065340
Cl146	Cl	0.158033	0.500084	0.434660
Cl147	Cl	-1.255178	0.000088	-0.152125
Cl148	Cl	-0.755178	0.500088	0.347875
Cl149	Cl	-0.788291	0.000039	0.314762
Cl150	Cl	-0.288291	0.500039	0.814762
H151	H	-1.237447	0.408877	-0.047505
H152	H	-0.737447	0.908877	0.452495
H153	H	-0.835652	0.000048	-0.260019
H154	H	-0.335652	0.500048	0.239981
Cl155	Cl	-0.795645	0.000037	-0.446752
Cl156	Cl	-0.295645	0.500037	0.053248
Cl157	Cl	-1.330570	0.000109	-0.516083
Cl158	Cl	-0.830570	0.500109	-0.016083
H159	H	-0.911844	0.000055	-0.582344
H160	H	-0.411844	0.500055	-0.082344
H161	H	-1.209795	0.000088	-0.620958
H162	H	-0.709795	0.500088	-0.120958
H163	H	-0.680397	0.000053	-0.104764
H164	H	-0.180397	0.500053	0.395236
Cl165	Cl	-0.293923	0.000065	0.305354
Cl166	Cl	0.206077	0.500065	0.805354
Cl167	Cl	-0.493664	0.000070	-0.144771
Cl168	Cl	0.006336	0.500070	0.355229
Cl169	Cl	-0.424333	0.000050	0.390154
Cl170	Cl	0.075667	0.500050	0.890154
Cl171	Cl	-1.334624	0.000070	-0.303832
Cl172	Cl	-0.834624	0.500070	0.196168
