data_functionalizedCrystal
_audit_creation_method	'MofGen! by Chris Wilmer'
_symmetry_space_group_name_H-M	'P1'
_symmetry_Int_Tables_number	1
_symmetry_cell_setting	triclinic
loop_
_symmetry_equiv_pos_as_xyz
  x,y,z
_cell_length_a	21.295417
_cell_length_b	18.101398
_cell_length_c	21.295420
_cell_angle_alpha	89.988291
_cell_angle_beta	90.018953
_cell_angle_gamma	89.974227
loop_
_atom_site_label
_atom_site_type_symbol
_atom_site_fract_x
_atom_site_fract_y
_atom_site_fract_z
Zn1	Zn	-0.250777	-1.132032	0.356000
Zn2	Zn	0.082556	-0.798698	0.689334
Zn3	Zn	0.415889	-0.465365	1.022667
Zn4	Zn	-0.356024	-1.131956	0.250726
Zn5	Zn	-0.022691	-0.798623	0.584059
Zn6	Zn	0.310643	-0.465290	0.917392
Zn7	Zn	-0.250764	-1.008218	0.250736
Zn8	Zn	0.082569	-0.674885	0.584069
Zn9	Zn	0.415903	-0.341551	0.917402
Zn10	Zn	-0.356004	-1.008143	0.355948
Zn11	Zn	-0.022670	-0.674809	0.689281
Zn12	Zn	0.310663	-0.341476	1.022614
O13	O	-0.303392	-1.070087	0.303352
O14	O	0.029941	-0.736754	0.636686
O15	O	0.363274	-0.403421	0.970019
O16	O	-0.264752	-1.235655	0.342053
O17	O	0.068581	-0.902321	0.675387
O18	O	0.401914	-0.568988	1.008720
O19	O	-0.342064	-1.115542	0.162638
O20	O	-0.008731	-0.782209	0.495971
O21	O	0.324603	-0.448875	0.829304
O22	O	-0.162676	-1.024705	0.264725
O23	O	0.170657	-0.691372	0.598059
O24	O	0.503990	-0.358039	0.931392
O25	O	-0.342077	-1.235599	0.264709
O26	O	-0.008744	-0.902266	0.598042
O27	O	0.324590	-0.568932	0.931375
O28	O	-0.162686	-1.115671	0.342063
O29	O	0.170647	-0.782337	0.675396
O30	O	0.503981	-0.449004	1.008730
O31	O	-0.264730	-1.024632	0.162645
O32	O	0.068603	-0.691299	0.495978
O33	O	0.401937	-0.357965	0.829312
O34	O	-0.264710	-0.904575	0.264674
O35	O	0.068623	-0.571242	0.598008
O36	O	0.401956	-0.237909	0.931341
O37	O	-0.342042	-1.024577	0.444044
O38	O	-0.008709	-0.691244	0.777377
O39	O	0.324624	-0.357910	1.110711
O40	O	-0.342029	-0.904520	0.341973
O41	O	-0.008696	-0.571187	0.675306
O42	O	0.324637	-0.237853	1.008640
O43	O	-0.264733	-1.115598	0.444083
O44	O	0.068601	-0.782264	0.777416
O45	O	0.401934	-0.448931	1.110749
O46	O	-0.444111	-1.115469	0.264657
O47	O	-0.110777	-0.782136	0.597991
O48	O	0.222556	-0.448802	0.931324
O49	O	-0.444096	-1.024504	0.341964
O50	O	-0.110763	-0.691170	0.675297
O51	O	0.222571	-0.357837	1.008630
C52	C	-0.303367	-0.877677	0.303319
C53	C	0.029967	-0.544343	0.636653
C54	C	0.363300	-0.211010	0.969986
C55	C	-0.303371	-0.795363	0.303320
C56	C	0.029962	-0.462029	0.636654
C57	C	0.363296	-0.128696	0.969987
C58	C	-0.466944	-1.069990	0.303317
C59	C	-0.133611	-0.736657	0.636651
C60	C	0.199723	-0.403323	0.969984
C61	C	-0.536912	-1.070016	0.303324
C62	C	-0.203579	-0.736683	0.636657
C63	C	0.129755	-0.403350	0.969990
C64	C	-0.303387	-1.070087	0.467543
C65	C	0.029947	-0.736754	0.800876
C66	C	0.363280	-0.403421	1.134209
C67	C	-0.303384	-1.070088	0.537511
C68	C	0.029949	-0.736754	0.870844
C69	C	0.363282	-0.403421	1.204177
C70	C	-0.569765	-1.117424	0.263112
C71	C	-0.236432	-0.784091	0.596445
C72	C	0.096901	-0.450757	0.929778
C73	C	-0.635508	-1.117459	0.263126
C74	C	-0.302175	-0.784125	0.596459
C75	C	0.031159	-0.450792	0.929792
C76	C	-0.668394	-1.070073	0.303345
C77	C	-0.335061	-0.736739	0.636679
C78	C	-0.001728	-0.403406	0.970012
C79	C	-0.635533	-1.022662	0.343565
C80	C	-0.302200	-0.689328	0.676898
C81	C	0.031134	-0.355995	1.010232
C82	C	-0.569792	-1.022633	0.343554
C83	C	-0.236458	-0.689300	0.676888
C84	C	0.096875	-0.355967	1.010221
N85	N	-0.771657	-1.005287	0.308133
N86	N	-0.438323	-0.671954	0.641466
N87	N	-0.104990	-0.338620	0.974800
N88	N	-0.834108	-1.005316	0.308140
N89	N	-0.500775	-0.671983	0.641473
N90	N	-0.167442	-0.338649	0.974806
C91	C	-0.866469	-1.070155	0.303381
C92	C	-0.533136	-0.736822	0.636715
C93	C	-0.199802	-0.403489	0.970048
N94	N	-0.834019	-1.134967	0.298604
N95	N	-0.500686	-0.801633	0.631937
N96	N	-0.167353	-0.468300	0.965270
N97	N	-0.771562	-1.134937	0.298594
N98	N	-0.438229	-0.801604	0.631927
N99	N	-0.104896	-0.468270	0.965261
C100	C	-0.739680	-1.070098	0.303362
C101	C	-0.406346	-0.736765	0.636695
C102	C	-0.073013	-0.403431	0.970028
C103	C	-0.970608	-1.117605	0.263183
C104	C	-0.637275	-0.784271	0.596516
C105	C	-0.303942	-0.450938	0.929849
C106	C	-1.036352	-1.117641	0.263201
C107	C	-0.703019	-0.784307	0.596534
C108	C	-0.369685	-0.450974	0.929868
C109	C	-1.036376	-1.022837	0.343637
C110	C	-0.703042	-0.689504	0.676971
C111	C	-0.369709	-0.356170	1.010304
C112	C	-0.970633	-1.022808	0.343622
C113	C	-0.637300	-0.689474	0.676955
C114	C	-0.303967	-0.356141	1.010289
C115	C	-0.937753	-1.070191	0.303391
C116	C	-0.604420	-0.736857	0.636725
C117	C	-0.271087	-0.403524	0.970058
C118	C	-0.139202	-1.070205	0.303401
C119	C	0.194131	-0.736872	0.636734
C120	C	0.527465	-0.403538	0.970068
C121	C	-0.069234	-1.070255	0.303422
C122	C	0.264099	-0.736922	0.636755
C123	C	0.597433	-0.403588	0.970089
C124	C	-0.303418	-1.263249	0.303386
C125	C	0.029915	-0.929916	0.636719
C126	C	0.363248	-0.596582	0.970052
C127	C	-0.303429	-1.345563	0.303400
C128	C	0.029904	-1.012230	0.636733
C129	C	0.363237	-0.678896	0.970067
C130	C	-0.303410	-0.496272	0.303373
C131	C	0.029923	-0.162938	0.636707
C132	C	0.363256	0.170395	0.970040
C133	C	-0.254520	-0.527607	0.254976
C134	C	0.078813	-0.194273	0.588310
C135	C	0.412147	0.139060	0.921643
C136	C	-0.254651	-0.613225	0.254770
C137	C	0.078682	-0.279892	0.588103
C138	C	0.412016	0.053442	0.921436
C139	C	-0.303390	-0.644654	0.303347
C140	C	0.029943	-0.311321	0.636680
C141	C	0.363276	0.022013	0.970014
C142	C	-0.369697	-0.613542	0.285216
C143	C	-0.036364	-0.280208	0.618549
C144	C	0.296970	0.053125	0.951883
C145	C	-0.369425	-0.527896	0.284880
C146	C	-0.036092	-0.194563	0.618213
C147	C	0.297242	0.138770	0.951546
C148	C	-0.286570	-0.527869	0.370015
C149	C	0.046763	-0.194535	0.703348
C150	C	0.380096	0.138798	1.036682
C151	C	-0.285093	-0.613520	0.369651
C152	C	0.048240	-0.280186	0.702985
C153	C	0.381573	0.053147	1.036318
C154	C	-0.303383	-0.728514	0.303333
C155	C	0.029950	-0.395180	0.636667
C156	C	0.363284	-0.061847	0.970000
C157	C	-0.303422	-0.412412	0.303385
C158	C	0.029911	-0.079079	0.636719
C159	C	0.363245	0.254255	0.970052
C160	C	-0.263136	-1.117449	1.036990
C161	C	0.070197	-0.784116	1.370323
C162	C	0.403530	-0.450783	1.703656
C163	C	-0.263137	-1.117457	0.971247
C164	C	0.070196	-0.784124	1.304581
C165	C	0.403529	-0.450790	1.637914
C166	C	-0.303387	-1.070069	0.938350
C167	C	0.029947	-0.736736	1.271683
C168	C	0.363280	-0.403402	1.605017
C169	C	-0.343649	-1.022683	0.971201
C170	C	-0.010316	-0.689350	1.304534
C171	C	0.323017	-0.356017	1.637868
C172	C	-0.343651	-1.022682	1.036942
C173	C	-0.010318	-0.689349	1.370276
C174	C	0.323015	-0.356015	1.703609
N175	N	-0.308204	-1.005243	0.835116
N176	N	0.025129	-0.671909	1.168450
N177	N	0.358463	-0.338576	1.501783
N178	N	-0.308198	-1.005246	0.772665
N179	N	0.025135	-0.671913	1.105998
N180	N	0.358468	-0.338579	1.439332
C181	C	-0.303384	-1.070071	0.740275
C182	C	0.029950	-0.736738	1.073609
C183	C	0.363283	-0.403404	1.406942
N184	N	-0.298563	-1.134894	0.772697
N185	N	0.034770	-0.801561	1.106030
N186	N	0.368104	-0.468227	1.439363
N187	N	-0.298565	-1.134890	0.835154
N188	N	0.034768	-0.801557	1.168487
N189	N	0.368101	-0.468223	1.501820
C190	C	-0.303389	-1.070065	0.867065
C191	C	0.029944	-0.736732	1.200398
C192	C	0.363277	-0.403399	1.533731
C193	C	-0.263128	-1.117466	0.636147
C194	C	0.070205	-0.784133	0.969480
C195	C	0.403538	-0.450799	1.302814
C196	C	-0.263134	-1.117475	0.570403
C197	C	0.070200	-0.784142	0.903737
C198	C	0.403533	-0.450808	1.237070
C199	C	-0.343642	-1.022695	0.570358
C200	C	-0.010309	-0.689361	0.903692
C201	C	0.323024	-0.356028	1.237025
C202	C	-0.343640	-1.022692	0.636101
C203	C	-0.010307	-0.689359	0.969434
C204	C	0.323027	-0.356026	1.302767
C205	C	-0.303380	-1.070077	0.668991
C206	C	0.029954	-0.736744	1.002324
C207	C	0.363287	-0.403410	1.335658
C208	C	-0.303406	-1.070078	1.139801
C209	C	0.029927	-0.736744	1.473134
C210	C	0.363261	-0.403411	1.806467
C211	C	-0.303391	-1.070067	1.069833
C212	C	0.029942	-0.736733	1.403166
C213	C	0.363276	-0.403400	1.736499
H214	H	-0.662263	-1.156066	0.230380
H215	H	-0.328929	-0.822733	0.563714
H216	H	0.004404	-0.489400	0.897047
H217	H	-0.542997	-1.156008	0.230355
H218	H	-0.209663	-0.822674	0.563688
H219	H	0.123670	-0.489341	0.897022
N220	N	-0.419306	-0.500429	0.329534
N221	N	-0.085972	-0.167096	0.662868
N222	N	0.247361	0.166238	0.996201
H223	H	-0.441375	-0.543958	0.349347
H224	H	-0.108042	-0.210625	0.682681
H225	H	0.225291	0.122708	1.016014
H226	H	-0.450777	-0.469474	0.305702
H227	H	-0.117444	-0.136140	0.639036
H228	H	0.215890	0.197193	0.972369
N229	N	-0.534350	-0.971491	0.386919
N230	N	-0.201017	-0.638158	0.720253
N231	N	0.132316	-0.304825	1.053586
H232	H	-0.507036	-1.001546	0.416111
H233	H	-0.173703	-0.668212	0.749445
H234	H	0.159631	-0.334879	1.082778
H235	H	-0.565195	-0.941486	0.412361
H236	H	-0.231861	-0.608153	0.745694
H237	H	0.101472	-0.274820	1.079028
N238	N	-0.935139	-1.168708	0.219795
N239	N	-0.601806	-0.835375	0.553129
N240	N	-0.268472	-0.502042	0.886462
H241	H	-0.965930	-1.198752	0.194326
H242	H	-0.632597	-0.865418	0.527659
H243	H	-0.299264	-0.532085	0.860992
H244	H	-0.907823	-1.202942	0.245443
H245	H	-0.574490	-0.869609	0.578776
H246	H	-0.241156	-0.536275	0.912109
H247	H	-0.662313	-0.984081	0.376313
H248	H	-0.328980	-0.650747	0.709647
H249	H	0.004353	-0.317414	1.042980
H250	H	-0.230345	-1.156049	0.662928
H251	H	0.102988	-0.822716	0.996261
H252	H	0.436321	-0.489382	1.329594
H253	H	-0.943882	-0.984201	0.376364
H254	H	-0.610549	-0.650867	0.709697
H255	H	-0.277215	-0.317534	1.043030
H256	H	-0.376417	-0.984113	0.543574
H257	H	-0.043083	-0.650780	0.876907
H258	H	0.290250	-0.317447	1.210241
H259	H	-0.230355	-1.156065	0.543664
H260	H	0.102978	-0.822732	0.876997
H261	H	0.436311	-0.489398	1.210330
N262	N	-0.419241	-0.640475	0.330459
N263	N	-0.085908	-0.307142	0.663792
N264	N	0.247426	0.026192	0.997125
H265	H	-0.399133	-0.673187	0.363219
H266	H	-0.065800	-0.339853	0.696552
H267	H	0.267534	-0.006520	1.029886
H268	H	-0.452079	-0.669490	0.306748
H269	H	-0.118746	-0.336157	0.640082
H270	H	0.214587	-0.002823	0.973415
N271	N	-1.071790	-1.168780	0.219831
N272	N	-0.738457	-0.835447	0.553164
N273	N	-0.405124	-0.502113	0.886498
H274	H	-1.040983	-1.198789	0.194344
H275	H	-0.707649	-0.865455	0.527678
H276	H	-0.374316	-0.532122	0.861011
H277	H	-1.099105	-1.138672	0.190682
H278	H	-0.765771	-0.805339	0.524015
H279	H	-0.432438	-0.472005	0.857348
H280	H	-1.063151	-0.984257	0.376388
H281	H	-0.729818	-0.650924	0.709721
H282	H	-0.396485	-0.317591	1.043054
H283	H	-0.205200	-0.507033	0.266217
H284	H	0.128133	-0.173700	0.599550
H285	H	0.461467	0.159634	0.932883
H286	H	-0.376417	-0.984105	0.662842
H287	H	-0.043084	-0.650772	0.996175
H288	H	0.290249	-0.317438	1.329508
H289	H	-0.205481	-0.634262	0.266135
H290	H	0.127852	-0.300929	0.599468
H291	H	0.461185	0.032405	0.932802
H292	H	-0.265525	-0.506070	0.205883
H293	H	0.067808	-0.172737	0.539216
H294	H	0.401141	0.160596	0.872549
N295	N	-0.269391	-0.640344	0.189360
N296	N	0.063942	-0.307011	0.522694
N297	N	0.397276	0.026322	0.856027
H298	H	-0.275833	-0.596663	0.160550
H299	H	0.057500	-0.263329	0.493884
H300	H	0.390834	0.070004	0.827217
H301	H	-0.308870	-0.671216	0.190396
H302	H	0.024463	-0.337882	0.523729
H303	H	0.357796	-0.004549	0.857062
H304	H	-0.318109	-0.634915	0.407644
H305	H	0.015224	-0.301582	0.740977
H306	H	0.348558	0.031751	1.074310
H307	H	-0.383708	-0.507897	0.236161
H308	H	-0.050375	-0.174564	0.569494
H309	H	0.282958	0.158769	0.902828
N310	N	-0.219715	-1.168566	1.072453
N311	N	0.113618	-0.835232	1.405787
N312	N	0.446952	-0.501899	1.739120
H313	H	-0.245297	-1.202872	1.099726
H314	H	0.088036	-0.869539	1.433059
H315	H	0.421370	-0.536205	1.766393
H316	H	-0.190546	-1.138440	1.099698
H317	H	0.142787	-0.805107	1.433031
H318	H	0.476120	-0.471773	1.766365
H319	H	-0.384228	-0.634969	0.237024
H320	H	-0.050895	-0.301636	0.570357
H321	H	0.282439	0.031698	0.903690
H322	H	-0.239062	-0.506292	0.386499
H323	H	0.094271	-0.172959	0.719832
H324	H	0.427605	0.160375	1.053165
N325	N	-0.220457	-0.640449	0.387763
N326	N	0.112876	-0.307116	0.721096
N327	N	0.446210	0.026217	1.054430
H328	H	-0.203095	-0.672685	0.353168
H329	H	0.130238	-0.339352	0.686502
H330	H	0.463572	-0.006018	1.019835
H331	H	-0.223249	-0.669964	0.427917
H332	H	0.110084	-0.336631	0.761250
H333	H	0.443418	-0.003297	1.094583
N334	N	-0.333737	-0.501031	0.417784
N335	N	-0.000403	-0.167697	0.751118
N336	N	0.332930	0.165636	1.084451
H337	H	-0.365860	-0.468564	0.396397
H338	H	-0.032527	-0.135230	0.729731
H339	H	0.300807	0.198103	1.063064
H340	H	-0.311380	-0.471778	0.451411
H341	H	0.021953	-0.138444	0.784745
H342	H	0.355287	0.194889	1.118078
H343	H	-0.230355	-1.156041	0.944501
H344	H	0.102978	-0.822708	1.277835
H345	H	0.436312	-0.489375	1.611168
N346	N	-0.387065	-0.971574	0.935724
N347	N	-0.053731	-0.638241	1.269057
N348	N	0.279602	-0.304908	1.602390
H349	H	-0.380954	-0.978763	0.889093
H350	H	-0.047621	-0.645430	1.222426
H351	H	0.285712	-0.312097	1.555759
H352	H	-0.377264	-0.918690	0.947210
H353	H	-0.043931	-0.585357	1.280543
H354	H	0.289402	-0.252023	1.613876
H355	H	-0.376433	-0.984096	1.063682
H356	H	-0.043099	-0.650763	1.397016
H357	H	0.290234	-0.317430	1.730349
