data_functionalizedCrystal
_audit_creation_method	'MofGen! by Chris Wilmer'
_symmetry_space_group_name_H-M	'P1'
_symmetry_Int_Tables_number	1
_symmetry_cell_setting	triclinic
loop_
_symmetry_equiv_pos_as_xyz
  x,y,z
_cell_length_a	13.339070
_cell_length_b	12.376457
_cell_length_c	13.339070
_cell_angle_alpha	104.398083
_cell_angle_beta	64.370706
_cell_angle_gamma	104.410245
loop_
_atom_site_label
_atom_site_type_symbol
_atom_site_fract_x
_atom_site_fract_y
_atom_site_fract_z
O1	O	-1.511964	-0.094035	0.535384
O2	O	-1.197153	-0.094030	0.463125
O3	O	-1.318428	-0.094029	0.341851
O4	O	-1.390689	-0.094037	0.656659
O5	O	-1.288108	0.093983	0.372116
O6	O	-1.166834	0.093982	0.493391
O7	O	-1.481644	0.093976	0.565650
Zn8	Zn	-1.319425	0.123830	0.534326
Zn9	Zn	-1.359372	-0.123884	0.494450
O10	O	-1.360369	0.093975	0.686924
C11	C	-1.291062	-0.000024	0.315868
C12	C	-1.254679	-0.000028	0.193353
C13	C	-1.140878	-0.000024	0.466052
C14	C	-1.018364	-0.000022	0.429669
N15	N	-1.292170	0.292888	0.561541
C16	C	-1.537920	-0.000033	0.562723
C17	C	-1.660435	-0.000042	0.599105
C18	C	-0.732980	-0.000047	0.712564
C19	C	-0.848090	-0.000052	0.746750
C20	C	-0.890664	-0.000044	0.667483
C21	C	-0.818117	-0.000031	0.554023
C22	C	-0.702998	-0.000035	0.519831
C23	C	-0.860682	-0.000032	0.474751
C24	C	-0.788135	-0.000020	0.361291
C25	C	-0.673027	-0.000022	0.327105
C26	C	-0.630453	-0.000030	0.406372
C27	C	-0.975801	-0.000029	0.508942
C28	C	-0.945819	-0.000017	0.316210
C29	C	-0.830709	-0.000012	0.282023
N30	N	-1.386634	-0.292942	0.467227
C31	C	-1.449896	0.647875	0.404029
C32	C	-1.468966	0.529535	0.384979
C33	C	-1.424768	0.470367	0.429117
C34	C	-1.361498	0.529551	0.492310
C35	C	-1.342434	0.647902	0.511370
C36	C	-1.317306	0.470395	0.536458
C37	C	-1.254035	0.529579	0.599651
C38	C	-1.234974	0.647918	0.618707
C39	C	-1.279171	0.707086	0.574568
C40	C	-1.336370	0.352044	0.517399
C41	C	-1.228907	0.352071	0.624740
C42	C	-1.209837	0.470411	0.643790
C43	C	-1.537579	-0.000032	-0.092035
C44	C	-1.571765	-0.000022	0.023075
C45	C	-1.492496	-0.000024	0.065651
C46	C	-1.379036	-0.000035	-0.006896
C47	C	-1.344845	-0.000037	-0.122016
C48	C	-1.299763	-0.000028	0.035669
C49	C	-1.186303	-0.000040	-0.036877
C50	C	-1.152118	-0.000042	-0.151986
C51	C	-1.231386	-0.000040	-0.194561
C52	C	-1.333954	-0.000027	0.150790
C53	C	-1.141220	-0.000031	0.120808
C54	C	-1.107034	-0.000042	0.005698
C55	C	-1.387736	-0.000032	0.712907
C56	C	-1.424120	-0.000035	0.835420
H57	H	-1.034857	-0.000035	0.601322
C58	C	-1.114347	0.096587	-0.352081
C59	C	-1.193800	-0.000056	-0.321099
H60	H	-1.091140	0.096569	-0.430203
H61	H	-1.147101	0.162141	-0.309968
H62	H	-1.050905	0.096582	-0.337101
H63	H	-1.257245	-0.000046	-0.336072
H64	H	-1.161047	-0.065627	-0.363226
C65	C	-0.699451	-0.096662	0.116210
C66	C	-0.750961	-0.000010	0.157307
H67	H	-0.650225	-0.096663	0.039214
H68	H	-0.657632	-0.096657	0.158527
H69	H	-0.755568	-0.162217	0.123001
H70	H	-0.694845	0.065545	0.150523
H71	H	-0.792782	-0.000005	0.114977
H72	H	-1.664144	-0.000012	0.082135
H73	H	-1.076672	-0.000027	0.155473
H74	H	-1.602105	-0.000021	-0.126710
H75	H	-0.980482	-0.000015	0.251662
C76	C	-0.866152	-0.000055	0.933818
C77	C	-0.927827	-0.000055	0.871460
H78	H	-0.915381	-0.000049	1.010814
H79	H	-0.831209	-0.065616	0.905923
H80	H	-0.810051	0.065512	0.927020
H81	H	-0.983924	-0.065628	0.878251
H82	H	-0.962789	0.065512	0.899364
H83	H	-0.984393	-0.000051	0.695324
C84	C	-0.636493	-0.096711	0.770335
C85	C	-0.686176	-0.000059	0.799680
H86	H	-0.607592	-0.096714	0.824119
H87	H	-0.691355	-0.162259	0.769124
H88	H	-0.576821	-0.096697	0.697865
H89	H	-0.745853	-0.000077	0.872147
H90	H	-0.631309	0.065506	0.800903
H91	H	-1.059730	-0.000042	-0.211050
H92	H	-0.536722	-0.000025	0.378543
C93	C	-1.120773	0.363985	0.732767
C94	C	-1.180319	0.287048	0.673264
H95	H	-1.090788	0.323834	0.762729
H96	H	-1.061004	0.410152	0.683383
H97	H	-1.170151	0.410134	0.792558
H98	H	-1.130939	0.240904	0.613468
H99	H	-1.240095	0.240861	0.722652
H100	H	-0.613963	-0.000025	0.234717
H101	H	-1.426333	-0.000018	0.209846
H102	H	-1.387885	0.303867	0.465947
C103	C	-1.510579	0.300833	0.343375
C104	C	-1.445717	0.340286	0.408167
H105	H	-1.523502	0.220523	0.330431
H106	H	-1.580674	0.327581	0.382463
H107	H	-1.471535	0.327625	0.273280
H108	H	-1.484765	0.313501	0.478266
H109	H	-1.375610	0.313527	0.369080
C110	C	-1.573263	0.541404	0.280789
C111	C	-1.538501	0.464484	0.315513
H112	H	-1.616186	0.501241	0.237894
H113	H	-1.618161	0.587549	0.345040
H114	H	-1.509013	0.587577	0.235866
H115	H	-1.602751	0.418317	0.360443
H116	H	-1.493602	0.418320	0.251252
H117	H	-1.485884	0.696057	0.368104
H118	H	-1.183466	0.696106	0.670173
C119	C	-1.310371	0.876598	0.543426
C120	C	-1.258218	0.837172	0.595518
H121	H	-1.297442	0.956908	0.556367
H122	H	-1.279950	0.849838	0.464712
H123	H	-1.389097	0.849801	0.573888
H124	H	-1.179491	0.863962	0.565050
H125	H	-1.288634	0.863944	0.674247
H126	H	-1.014653	-0.000050	-0.053385
H127	H	-1.158322	0.518613	0.695244
H128	H	-1.520338	-0.000016	0.159380
