data_functionalizedCrystal
_audit_creation_method	'MofGen! by Chris Wilmer'
_symmetry_space_group_name_H-M	'P1'
_symmetry_Int_Tables_number	1
_symmetry_cell_setting	triclinic
loop_
_symmetry_equiv_pos_as_xyz
  x,y,z
_cell_length_a	29.839131
_cell_length_b	25.639242
_cell_length_c	29.839135
_cell_angle_alpha	89.983173
_cell_angle_beta	90.000668
_cell_angle_gamma	89.963053
loop_
_atom_site_label
_atom_site_type_symbol
_atom_site_fract_x
_atom_site_fract_y
_atom_site_fract_z
Zn1	Zn	-0.179046	-0.799187	0.254113
Zn2	Zn	-0.254135	-0.799115	0.178983
Zn3	Zn	-0.179014	-0.711772	0.178984
Zn4	Zn	-0.254143	-0.711705	0.254073
O5	O	-0.216585	-0.755445	0.216539
O6	O	-0.189016	-0.872343	0.244164
O7	O	-0.244154	-0.787527	0.116116
O8	O	-0.116151	-0.723426	0.188968
O9	O	-0.244184	-0.872290	0.188966
O10	O	-0.116174	-0.787650	0.244165
O11	O	-0.188963	-0.723356	0.116117
O12	O	-0.188970	-0.638598	0.188928
O13	O	-0.244198	-0.723312	0.316945
O14	O	-0.244168	-0.638548	0.244096
O15	O	-0.189024	-0.787585	0.316975
O16	O	-0.317003	-0.787461	0.188927
O17	O	-0.317009	-0.723241	0.244095
C18	C	-0.216567	-0.619602	0.216508
C19	C	-0.216570	-0.561488	0.216506
C20	C	-0.333307	-0.755350	0.216516
C21	C	-0.383242	-0.755358	0.216522
C22	C	-0.216615	-0.755449	0.333717
C23	C	-0.216628	-0.755451	0.383651
C24	C	-0.692869	-0.788945	0.187855
C25	C	-0.880542	-0.789009	0.187872
O26	O	-0.904794	-0.817491	0.163481
N27	N	-0.904027	-0.755553	0.216572
C28	C	-0.880590	-0.722081	0.245273
O29	O	-0.904871	-0.693630	0.269688
C30	C	-0.692918	-0.722019	0.245257
C31	C	-0.669436	-0.755474	0.216552
C32	C	-0.669387	-0.822397	0.159152
C33	C	-0.622472	-0.822379	0.159146
C34	C	-0.599038	-0.788908	0.187843
C35	C	-0.622520	-0.755456	0.216546
C36	C	-0.669482	-0.688550	0.273959
C37	C	-0.622561	-0.688539	0.273954
C38	C	-0.599079	-0.721993	0.245248
C39	C	-0.552171	-0.721966	0.245237
N40	N	-0.528687	-0.755422	0.216537
C41	C	-0.552120	-0.788893	0.187840
C42	C	-0.979120	-0.722115	0.245278
C43	C	-1.026038	-0.722129	0.245282
C44	C	-1.025987	-0.789059	0.187881
C45	C	-0.979069	-0.789041	0.187876
C46	C	-0.955636	-0.755571	0.216578
C47	C	-0.453595	-0.788852	0.187829
C48	C	-0.406675	-0.788829	0.187825
C49	C	-0.406730	-0.721901	0.245226
C50	C	-0.453645	-0.721922	0.245229
C51	C	-0.477077	-0.755402	0.216529
O52	O	-0.527891	-0.693503	0.269619
O53	O	-0.527831	-0.817349	0.163435
C54	C	-0.739785	-0.788963	0.187860
C55	C	-0.763267	-0.755511	0.216563
C56	C	-0.739833	-0.722040	0.245260
C57	C	-0.810184	-0.755526	0.216567
C58	C	-0.833618	-0.788996	0.187870
C59	C	-0.810134	-0.822453	0.159169
C60	C	-0.763218	-0.822434	0.159163
C61	C	-0.763318	-0.688584	0.273961
C62	C	-0.810233	-0.688605	0.273964
C63	C	-0.833666	-0.722076	0.245267
C64	C	-0.099406	-0.755554	0.216571
C65	C	-0.049472	-0.755600	0.216584
C66	C	-0.216603	-0.891818	0.216569
C67	C	-0.216610	-0.949932	0.216582
C68	C	-0.245374	-0.201108	0.245237
C69	C	-0.245376	-0.146504	0.245244
O70	O	-0.269844	-0.118253	0.269647
N71	N	-0.216597	-0.119206	0.216568
C72	C	-0.187810	-0.146515	0.187886
O73	O	-0.163330	-0.118281	0.163495
C74	C	-0.187805	-0.201118	0.187881
C75	C	-0.216590	-0.228413	0.216556
C76	C	-0.274156	-0.228404	0.273910
C77	C	-0.274153	-0.283004	0.273902
C78	C	-0.245369	-0.310309	0.245221
C79	C	-0.216587	-0.283014	0.216548
C80	C	-0.159016	-0.228426	0.159202
C81	C	-0.159013	-0.283033	0.159200
C82	C	-0.187798	-0.310328	0.187875
C83	C	-0.187801	-0.364919	0.187860
N84	N	-0.216580	-0.392218	0.216536
C85	C	-0.245364	-0.364913	0.245217
C86	C	-0.187821	-0.031844	0.187898
C87	C	-0.187828	0.022758	0.187900
C88	C	-0.245394	0.022765	0.245259
C89	C	-0.245389	-0.031838	0.245254
C90	C	-0.216601	-0.059142	0.216574
C91	C	-0.245358	-0.479578	0.245198
C92	C	-0.245354	-0.534183	0.245186
C93	C	-0.187786	-0.534185	0.187829
C94	C	-0.187791	-0.479585	0.187839
C95	C	-0.216579	-0.452282	0.216527
O96	O	-0.163344	-0.393205	0.163471
O97	O	-0.269835	-0.393153	0.269607
C98	C	-0.245323	-0.721978	0.740223
C99	C	-0.245339	-0.721981	0.552550
O100	O	-0.269757	-0.693508	0.528272
N101	N	-0.216615	-0.755445	0.529096
C102	C	-0.187883	-0.788908	0.552564
O103	O	-0.163448	-0.817367	0.528309
C104	C	-0.187865	-0.788901	0.740236
C105	C	-0.216594	-0.755439	0.763687
C106	C	-0.274049	-0.688517	0.763674
C107	C	-0.274046	-0.688519	0.810590
C108	C	-0.245318	-0.721980	0.834054
C109	C	-0.216591	-0.755441	0.810603
C110	C	-0.159131	-0.822361	0.763703
C111	C	-0.159128	-0.822356	0.810624
C112	C	-0.187857	-0.788894	0.834075
C113	C	-0.187860	-0.788904	0.880983
N114	N	-0.216584	-0.755440	0.904436
C115	C	-0.245313	-0.721978	0.880972
C116	C	-0.187895	-0.788910	0.454033
C117	C	-0.187900	-0.788912	0.407116
C118	C	-0.245355	-0.721984	0.407105
C119	C	-0.245352	-0.721985	0.454023
C120	C	-0.216619	-0.755446	0.477487
C121	C	-0.245305	-0.721984	0.979498
C122	C	-0.245302	-0.721990	1.026417
C123	C	-0.187845	-0.788916	1.026424
C124	C	-0.187850	-0.788912	0.979508
C125	C	-0.216582	-0.755442	0.956046
O126	O	-0.163450	-0.817357	0.905289
O127	O	-0.269736	-0.693515	0.905235
C128	C	-0.245325	-0.721976	0.693308
C129	C	-0.216599	-0.755436	0.669856
C130	C	-0.187870	-0.788898	0.693321
C131	C	-0.216604	-0.755439	0.622939
C132	C	-0.245333	-0.721977	0.599474
C133	C	-0.274057	-0.688513	0.622928
C134	C	-0.274054	-0.688514	0.669843
C135	C	-0.159146	-0.822362	0.669867
C136	C	-0.159151	-0.822358	0.622952
C137	C	-0.187880	-0.788896	0.599487
C138	C	-0.216569	-0.755441	1.099816
C139	C	-0.216573	-0.755451	1.049882
H140	H	-0.472667	-0.816115	0.164460
H141	H	-0.959952	-0.816283	0.164502
N142	N	-1.050015	-0.687945	0.274599
N143	N	-1.029081	-0.658064	0.300218
H144	H	-1.046012	-0.633920	0.320926
H145	H	-0.603484	-0.661284	0.297328
H146	H	-0.164354	-0.457360	0.164489
N147	N	-0.303395	-0.654324	0.598955
N148	N	-0.300406	-0.606081	0.604179
H149	H	-0.321123	-0.581933	0.587246
N150	N	-0.955186	-0.687917	0.274591
N151	N	-0.929034	-0.654603	0.258754
H152	H	-0.912131	-0.630450	0.279456
H153	H	-0.135757	-0.849612	0.603862
H154	H	-0.268748	-0.694739	0.387992
N155	N	-0.129611	-0.200561	0.129906
N156	N	-0.103914	-0.224958	0.104305
H157	H	-0.083145	-0.205280	0.083613
N158	N	-0.739383	-0.654386	0.303269
N159	N	-0.713234	-0.621071	0.287430
H160	H	-0.696331	-0.596916	0.308130
N161	N	-0.382696	-0.823004	0.158496
N162	N	-0.403628	-0.852886	0.132877
H163	H	-0.386695	-0.877022	0.112164
H164	H	-0.829221	-0.849704	0.135802
H165	H	-0.135751	-0.849610	0.688967
N166	N	-0.274697	-0.687797	0.477969
N167	N	-0.300343	-0.657924	0.457008
H168	H	-0.321068	-0.633774	0.473917
H169	H	-0.688462	-0.849656	0.135783
N170	N	-0.598496	-0.856556	0.129821
N171	N	-0.619432	-0.886437	0.104204
H172	H	-0.602502	-0.910578	0.083493
H173	H	-0.297595	-0.206178	0.297268
N174	N	-0.274771	-0.451703	0.274499
N175	N	-0.316219	-0.457780	0.271438
H176	H	-0.336994	-0.438094	0.292130
N177	N	-0.693461	-0.654386	0.303289
N178	N	-0.719620	-0.672767	0.331939
H179	H	-0.736556	-0.648638	0.352656
N180	N	-0.158563	-0.823097	0.383156
N181	N	-0.174372	-0.856402	0.356986
H182	H	-0.153651	-0.880545	0.340065
H183	H	-0.268698	-0.694725	0.960400
N184	N	-1.049936	-0.823244	0.158568
N185	N	-1.091826	-0.823248	0.158580
H186	H	-1.108742	-0.847391	0.137880
H187	H	-0.297592	-0.305223	0.297253
H188	H	-0.387643	-0.694648	0.268590
N189	N	-0.477627	-0.687738	0.274546
N190	N	-0.456697	-0.657852	0.300162
H191	H	-0.473631	-0.633710	0.320870
H192	H	-0.268828	-0.054058	0.268605
N193	N	-0.274788	0.050664	0.274565
N194	N	-0.271879	0.044549	0.316025
H195	H	-0.292636	0.064254	0.336721
H196	H	-0.744102	-0.849676	0.135789
N197	N	-0.303398	-0.654328	0.739718
N198	N	-0.329041	-0.624458	0.760671
H199	H	-0.349773	-0.600311	0.743755
N200	N	-0.158382	-0.562072	0.158531
N201	N	-0.161278	-0.555955	0.117070
H202	H	-0.140508	-0.575650	0.096380
N203	N	-0.834209	-0.654421	0.303287
N204	N	-0.813275	-0.624541	0.328906
H205	H	-0.830207	-0.600401	0.349618
N206	N	-0.274764	-0.562056	0.274479
N207	N	-0.300461	-0.537666	0.300084
H208	H	-0.321231	-0.557349	0.320772
N209	N	-0.274653	-0.687805	1.050364
N210	N	-0.300300	-0.657931	1.029405
H211	H	-0.321029	-0.633788	1.046316
N212	N	-0.303401	-0.654341	0.834534
N213	N	-0.329051	-0.624473	0.813570
H214	H	-0.349786	-0.600335	0.830478
N215	N	-0.158429	0.050628	0.158599
N216	N	-0.132734	0.026236	0.132993
H217	H	-0.111969	0.045917	0.112300
H218	H	-0.164378	-0.054072	0.164540
H219	H	-0.135567	-0.305261	0.135848
H220	H	-0.164496	-0.816160	0.473133
N221	N	-0.129783	-0.856549	0.739763
N222	N	-0.104136	-0.886418	0.760728
H223	H	-0.083407	-0.910565	0.743821
N224	N	-0.129770	-0.856536	0.834584
N225	N	-0.104122	-0.886405	0.813636
H226	H	-0.083388	-0.910545	0.830556
H227	H	-0.164460	-0.816163	0.960414
N228	N	-0.158506	-0.823094	1.050404
N229	N	-0.158510	-0.823085	1.092295
H230	H	-0.137788	-0.847222	1.109232
H231	H	-0.297448	-0.661266	0.688933
