data_functionalizedCrystal
_audit_creation_method	'MofGen! by Chris Wilmer'
_symmetry_space_group_name_H-M	'P1'
_symmetry_Int_Tables_number	1
_symmetry_cell_setting	triclinic
loop_
_symmetry_equiv_pos_as_xyz
  x,y,z
_cell_length_a	12.759400
_cell_length_b	11.169417
_cell_length_c	11.169409
_cell_angle_alpha	90.019824
_cell_angle_beta	89.966206
_cell_angle_gamma	89.984437
loop_
_atom_site_label
_atom_site_type_symbol
_atom_site_fract_x
_atom_site_fract_y
_atom_site_fract_z
Zn1	Zn	-0.418157	-1.834926	-0.678531
Zn2	Zn	0.081843	-1.334926	-0.178531
Zn3	Zn	-0.593882	-1.834800	-0.477842
Zn4	Zn	-0.093882	-1.334800	0.022158
Zn5	Zn	-0.418221	-1.634212	-0.477865
Zn6	Zn	0.081779	-1.134212	0.022135
Zn7	Zn	-0.593797	-1.634204	-0.678487
Zn8	Zn	-0.093797	-1.134204	-0.178487
O9	O	-0.506014	-1.734536	-0.578181
O10	O	-0.006014	-1.234536	-0.078181
O11	O	-0.441476	-2.002859	-0.651918
O12	O	0.058524	-1.502859	-0.151918
O13	O	-0.570643	-1.808142	-0.309896
O14	O	-0.070643	-1.308142	0.190104
O15	O	-0.271191	-1.660893	-0.504511
O16	O	0.228809	-1.160893	-0.004511
O17	O	-0.570581	-2.002767	-0.504473
O18	O	-0.070581	-1.502767	-0.004473
O19	O	-0.271144	-1.808357	-0.651939
O20	O	0.228856	-1.308357	-0.151939
O21	O	-0.441585	-1.660771	-0.309912
O22	O	0.058415	-1.160771	0.190088
O23	O	-0.441502	-1.466261	-0.504469
O24	O	0.058498	-0.966261	-0.004469
O25	O	-0.570435	-1.660880	-0.846443
O26	O	-0.070435	-1.160880	-0.346443
O27	O	-0.570497	-1.466256	-0.651866
O28	O	-0.070497	-0.966256	-0.151866
O29	O	-0.441393	-1.808349	-0.846475
O30	O	0.058607	-1.308349	-0.346475
O31	O	-0.740892	-1.808135	-0.504431
O32	O	-0.240892	-1.308135	-0.004431
O33	O	-0.740829	-1.660758	-0.651844
O34	O	-0.240829	-1.160758	-0.151844
C35	C	-0.505998	-1.422711	-0.578166
C36	C	-0.005998	-0.922711	-0.078166
C37	C	-0.506017	-1.289311	-0.578188
C38	C	-0.006017	-0.789311	-0.078188
C39	C	-0.778981	-1.734464	-0.578156
C40	C	-0.278981	-1.234464	-0.078156
C41	C	-0.895758	-1.734544	-0.578186
C42	C	-0.395758	-1.234544	-0.078186
C43	C	-0.505897	-1.734628	-0.891224
C44	C	-0.005897	-1.234628	-0.391224
C45	C	-0.505848	-1.734667	-1.024624
C46	C	-0.005848	-1.234667	-0.524624
C47	C	-0.950618	-1.811368	-0.501513
C48	C	-0.450618	-1.311368	-0.001513
C49	C	-1.060342	-1.811442	-0.501550
C50	C	-0.560342	-1.311442	-0.001550
C51	C	-1.060337	-1.657857	-0.654936
C52	C	-0.560337	-1.157857	-0.154936
C53	C	-0.950615	-1.657790	-0.654904
C54	C	-0.450615	-1.157790	-0.154904
C55	C	-0.895761	-1.888122	-0.424794
C56	C	-0.395761	-1.388122	0.075206
C57	C	-0.950621	-1.964952	-0.348114
C58	C	-0.450621	-1.464952	0.151886
C59	C	-1.060345	-1.965025	-0.348151
C60	C	-0.560345	-1.465025	0.151849
C61	C	-1.115209	-1.888270	-0.424868
C62	C	-0.615209	-1.388270	0.075132
C63	C	-0.231981	-1.734640	-0.578233
C64	C	0.268019	-1.234640	-0.078233
C65	C	-0.115204	-1.734684	-0.578255
C66	C	0.384796	-1.234684	-0.078255
C67	C	-0.506031	-2.047578	-0.578198
C68	C	-0.006031	-1.547578	-0.078198
C69	C	-0.506038	-2.180978	-0.578204
C70	C	-0.006038	-1.680978	-0.078204
C71	C	-0.506054	-1.734513	-0.266357
C72	C	-0.006054	-1.234513	0.233643
C73	C	-0.505808	-1.734706	-0.132957
C74	C	-0.005808	-1.234706	0.367043
H75	H	-0.806419	-1.888067	-0.424752
H76	H	-0.306419	-1.388067	0.075248
Br77	Br	-0.876167	-2.069130	-0.244018
Br78	Br	-0.376167	-1.569130	0.255982
Br79	Br	-1.264121	-1.887823	-0.424367
Br80	Br	-0.764121	-1.387823	0.075633
H81	H	-1.105009	-2.027592	-0.285723
H82	H	-0.605009	-1.527592	0.214277
Br83	Br	-1.134794	-1.553694	-0.759044
Br84	Br	-0.634794	-1.053694	-0.259044
H85	H	-0.905947	-1.595233	-0.717340
H86	H	-0.405947	-1.095233	-0.217340
