data_functionalizedCrystal
_audit_creation_method	'MofGen! by Chris Wilmer'
_symmetry_space_group_name_H-M	'P1'
_symmetry_Int_Tables_number	1
_symmetry_cell_setting	triclinic
loop_
_symmetry_equiv_pos_as_xyz
  x,y,z
_cell_length_a	6.394989
_cell_length_b	7.681459
_cell_length_c	8.559649
_cell_angle_alpha	85.087351
_cell_angle_beta	78.138188
_cell_angle_gamma	95.905477
loop_
_atom_site_label
_atom_site_type_symbol
_atom_site_fract_x
_atom_site_fract_y
_atom_site_fract_z
O1	O	0.048511	-0.146402	-2.104048
O2	O	0.548511	0.353598	-1.604048
O3	O	-0.059014	-0.146408	-1.641009
O4	O	0.440986	0.353592	-1.141009
O5	O	0.299867	-0.146406	-1.879101
O6	O	0.799867	0.353594	-1.379101
O7	O	-0.310370	-0.146404	-1.865956
O8	O	0.189630	0.353596	-1.365956
O9	O	0.344123	0.146452	-1.908400
O10	O	0.844123	0.646452	-1.408400
O11	O	-0.014758	0.146450	-1.670308
O12	O	0.485242	0.646450	-1.170308
O13	O	0.092767	0.146456	-2.133348
O14	O	0.592767	0.646456	-1.633348
Zn15	Zn	0.046031	0.192951	-1.906480
Zn16	Zn	0.546031	0.692951	-1.406480
Zn17	Zn	-0.012278	-0.192902	-1.867876
Zn18	Zn	0.487722	0.307098	-1.367876
O19	O	-0.266114	0.146454	-1.895256
O20	O	0.233886	0.646454	-1.395256
C21	C	-0.045035	0.000021	-1.596293
C22	C	0.454965	0.500021	-1.096293
C23	C	-0.069291	0.000018	-1.419401
C24	C	0.430709	0.500018	-0.919401
N25	N	0.085829	0.456285	-1.932838
N26	N	0.585829	0.956285	-1.432838
C27	C	0.399398	0.000016	-1.891151
C28	C	0.899398	0.500016	-1.391151
C29	C	0.634359	0.000015	-1.883208
C30	C	1.134359	0.500015	-1.383208
C31	C	0.078787	0.000024	-2.178063
C32	C	0.578787	0.500024	-1.678063
C33	C	0.103041	0.000015	-2.354954
C34	C	0.603041	0.500015	-1.854954
N35	N	-0.052076	0.543763	-1.841519
N36	N	0.447924	1.043763	-1.341519
H37	H	-0.192833	0.468566	-1.748302
H38	H	0.307167	0.968566	-1.248302
H39	H	0.226582	0.531491	-2.026072
H40	H	0.726582	1.031491	-1.526072
H41	H	0.269137	0.000005	-1.435105
H42	H	0.769137	0.500005	-0.935105
H43	H	-0.235400	0.000009	-1.339239
H44	H	0.264600	0.500009	-0.839239
