data_functionalizedCrystal
_audit_creation_method	'MofGen! by Chris Wilmer'
_symmetry_space_group_name_H-M	'P1'
_symmetry_Int_Tables_number	1
_symmetry_cell_setting	triclinic
loop_
_symmetry_equiv_pos_as_xyz
  x,y,z
_cell_length_a	14.519709
_cell_length_b	12.837942
_cell_length_c	11.295471
_cell_angle_alpha	94.527666
_cell_angle_beta	85.889017
_cell_angle_gamma	89.254543
loop_
_atom_site_label
_atom_site_type_symbol
_atom_site_fract_x
_atom_site_fract_y
_atom_site_fract_z
O1	O	-1.241207	-0.128953	0.098867
O2	O	-0.741207	0.371047	0.598867
O3	O	-0.974115	-0.144956	0.098903
O4	O	-0.474115	0.355044	0.598903
O5	O	-1.101738	0.013959	0.098879
O6	O	-0.601738	0.513959	0.598879
O7	O	-1.113584	-0.287868	0.098892
O8	O	-0.613584	0.212132	0.598892
O9	O	-1.090517	0.000031	-0.099170
O10	O	-0.590517	0.500031	0.400830
O11	O	-0.962894	-0.158884	-0.099145
O12	O	-0.462894	0.341116	0.400855
O13	O	-1.229986	-0.142881	-0.099182
O14	O	-0.729986	0.357119	0.400818
Cu15	Cu	-1.095415	-0.152154	-0.117247
Cu16	Cu	-0.595415	0.347846	0.382753
Cu17	Cu	-1.108686	-0.135683	0.116969
Cu18	Cu	-0.608686	0.364317	0.616969
O19	O	-1.102363	-0.301796	-0.099157
O20	O	-0.602363	0.198204	0.400843
C21	C	-0.934081	-0.151173	-0.000116
C22	C	-0.434081	0.348827	0.499884
C23	C	-0.831507	-0.148937	-0.000103
C24	C	-0.331507	0.351063	0.499897
C25	C	-1.092126	0.045623	-0.000144
C26	C	-0.592126	0.545623	0.499856
C27	C	-1.080192	0.160723	-0.000141
C28	C	-0.580192	0.660723	0.499859
C29	C	-1.270021	-0.136663	-0.000159
C30	C	-0.770021	0.363337	0.499841
C31	C	-1.372595	-0.138899	-0.000165
C32	C	-0.872595	0.361101	0.499835
C33	C	-0.455897	-0.140712	-0.000157
C34	C	0.044103	0.359288	0.499843
C35	C	-0.560403	-0.142996	-0.000142
C36	C	-0.060403	0.357004	0.499858
C37	C	-0.643699	-0.144824	-0.000129
C38	C	-0.143699	0.355176	0.499871
C39	C	-0.748212	-0.147109	-0.000115
C40	C	-0.248212	0.352891	0.499885
C41	C	-1.111975	-0.333460	-0.000131
C42	C	-0.611975	0.166540	0.499869
C43	C	-1.123909	-0.448558	-0.000127
C44	C	-0.623909	0.051442	0.499873
N45	N	-1.086089	-0.163739	-0.281982
N46	N	-0.586089	0.336261	0.218018
C47	C	-1.223663	0.401415	-0.000135
C48	C	-0.723663	0.901415	0.499865
C49	C	-1.212454	0.509562	-0.000132
C50	C	-0.712454	1.009562	0.499868
C51	C	-1.046567	0.485166	-0.000122
C52	C	-0.546567	0.985166	0.499878
C53	C	-1.057776	0.377019	-0.000125
C54	C	-0.557776	0.877019	0.499875
C55	C	-1.146327	0.335148	-0.000134
C56	C	-0.646327	0.835148	0.499866
C57	C	-1.157534	0.226998	-0.000146
C58	C	-0.657534	0.726998	0.499854
C59	C	-0.991648	0.202605	-0.000127
C60	C	-0.491648	0.702605	0.499873
C61	C	-0.980440	0.310751	-0.000124
C62	C	-0.480440	0.810751	0.499876
C63	C	-1.019013	-0.247238	-0.468991
C64	C	-0.519013	0.252762	0.031009
C65	C	-1.026044	-0.238467	-0.344328
C66	C	-0.526044	0.261533	0.155672
C67	C	-1.139105	-0.097774	-0.344306
C68	C	-0.639105	0.402226	0.155694
C69	C	-1.132074	-0.106544	-0.468969
C70	C	-0.632074	0.393456	0.031031
C71	C	-1.072028	-0.181280	-0.531307
C72	C	-0.572028	0.318720	-0.031307
C73	C	-1.065003	-0.190055	-0.655972
C74	C	-0.565003	0.309945	-0.155972
C75	C	-1.178058	-0.049357	-0.655947
C76	C	-0.678058	0.450643	-0.155947
C77	C	-1.185089	-0.040587	-0.531285
C78	C	-0.685089	0.459413	-0.031285
N79	N	-1.118019	-0.124090	0.281704
N80	N	-0.618019	0.375910	0.781704
H81	H	-1.229636	0.192909	-0.000157
H82	H	-0.729636	0.692909	0.499843
F83	F	-0.969616	-0.308667	-0.278011
F84	F	-0.469616	0.191333	0.221989
F85	F	-1.202998	-0.018230	-0.277949
F86	F	-0.702998	0.481770	0.222051
F87	F	-1.294767	0.580086	-0.000130
F88	F	-0.794767	1.080086	0.499870
F89	F	-0.952335	0.529749	-0.000083
F90	F	-0.452335	1.029749	0.499917
H91	H	-1.233975	0.020264	-0.480515
H92	H	-0.733975	0.520264	0.019485
F93	F	-0.886203	0.355326	-0.000105
F94	F	-0.386203	0.855326	0.499895
F95	F	-0.909335	0.132069	-0.000138
F96	F	-0.409335	0.632069	0.499862
H97	H	-1.221229	0.004347	-0.706699
H98	H	-0.721229	0.504347	-0.206699
H99	H	-1.295764	0.367323	-0.000154
H100	H	-0.795764	0.867323	0.499846
F101	F	-1.001099	-0.269596	-0.722314
F102	F	-0.501099	0.230404	-0.222314
H103	H	-0.970128	-0.308097	-0.519747
H104	H	-0.470128	0.191903	-0.019747
