data_functionalizedCrystal
_audit_creation_method	'MofGen! by Chris Wilmer'
_symmetry_space_group_name_H-M	'P1'
_symmetry_Int_Tables_number	1
_symmetry_cell_setting	triclinic
loop_
_symmetry_equiv_pos_as_xyz
  x,y,z
_cell_length_a	23.532407
_cell_length_b	27.732048
_cell_length_c	22.010155
_cell_angle_alpha	89.999275
_cell_angle_beta	89.996931
_cell_angle_gamma	82.745667
loop_
_atom_site_label
_atom_site_type_symbol
_atom_site_fract_x
_atom_site_fract_y
_atom_site_fract_z
O1	O	0.755138	0.058672	-0.050456
O2	O	1.255138	0.558672	0.449544
O3	O	0.589257	0.067162	-0.050475
O4	O	1.089257	0.567162	0.449525
O5	O	0.677350	-0.007472	-0.050453
O6	O	1.177350	0.492528	0.449547
O7	O	0.667046	0.133306	-0.050477
O8	O	1.167046	0.633306	0.449523
O9	O	0.677334	-0.007461	0.050597
O10	O	1.177334	0.492539	0.550597
O11	O	0.589241	0.067173	0.050576
O12	O	1.089241	0.567173	0.550576
O13	O	0.755122	0.058683	0.050595
O14	O	1.255122	0.558683	0.550595
Cu15	Cu	0.672180	0.062929	0.059812
Cu16	Cu	1.172180	0.562929	0.559812
Cu17	Cu	0.672199	0.062916	-0.059692
Cu18	Cu	1.172199	0.562916	0.440308
O19	O	0.667030	0.133317	0.050573
O20	O	1.167030	0.633317	0.550573
C21	C	0.568033	0.066952	0.000048
C22	C	1.068033	0.566952	0.500048
C23	C	0.504818	0.066302	0.000042
C24	C	1.004818	0.566302	0.500042
C25	C	0.105629	0.106391	0.000062
C26	C	0.605629	0.606391	0.500062
C27	C	0.046230	0.105787	0.000066
C28	C	0.546230	0.605787	0.500066
O29	O	0.009406	0.142951	0.000082
O30	O	0.509406	0.642951	0.500082
N31	N	0.023699	0.061418	0.000073
N32	N	0.523699	0.561418	0.500073
C33	C	0.060570	0.017649	0.000082
C34	C	0.560570	0.517649	0.500082
O35	O	0.035951	-0.020147	0.000088
O36	O	0.535951	0.479853	0.500088
C37	C	0.119967	0.018253	0.000082
C38	C	0.619967	0.518253	0.500082
C39	C	0.142495	0.062626	0.000070
C40	C	0.642495	0.562626	0.500070
C41	C	0.128158	0.150760	0.000050
C42	C	0.628158	0.650760	0.500050
C43	C	0.187552	0.151364	0.000045
C44	C	0.687552	0.651364	0.500045
C45	C	0.224419	0.107599	0.000052
C46	C	0.724419	0.607599	0.500052
C47	C	0.201890	0.063229	0.000065
C48	C	0.701890	0.563229	0.500065
C49	C	0.156837	-0.025515	0.000096
C50	C	0.656837	0.474485	0.500096
C51	C	0.216239	-0.024907	0.000097
C52	C	0.716239	0.475093	0.500097
C53	C	0.238766	0.019466	0.000084
C54	C	0.738766	0.519466	0.500084
C55	C	0.298151	0.020068	0.000067
C56	C	0.798151	0.520068	0.500067
N57	N	0.320683	0.064437	0.000060
N58	N	0.820683	0.564437	0.500060
C59	C	0.283817	0.108203	0.000053
C60	C	0.783817	0.608203	0.500053
C61	C	-0.064170	0.016383	0.000082
C62	C	0.435830	0.516383	0.500082
C63	C	-0.123567	0.015778	0.000077
C64	C	0.376433	0.515778	0.500077
C65	C	-0.137902	0.103917	0.000062
C66	C	0.362098	0.603917	0.500062
C67	C	-0.078505	0.104521	0.000063
C68	C	0.421495	0.604521	0.500063
C69	C	-0.041639	0.060753	0.000075
C70	C	0.458361	0.560753	0.500075
C71	C	0.408551	0.109467	0.000042
C72	C	0.908551	0.609467	0.500042
C73	C	0.467951	0.110067	0.000035
C74	C	0.967951	0.610067	0.500035
C75	C	0.482282	0.021928	0.000052
C76	C	0.982282	0.521928	0.500052
C77	C	0.422886	0.021328	0.000057
C78	C	0.922886	0.521328	0.500057
C79	C	0.386021	0.065102	0.000053
C80	C	0.886021	0.565102	0.500053
O81	O	0.335010	-0.017077	0.000054
O82	O	0.835010	0.482923	0.500054
O83	O	0.308444	0.145992	0.000054
O84	O	0.808444	0.645992	0.500054
C85	C	0.677125	-0.025473	0.000074
C86	C	1.177125	0.474527	0.500074
C87	C	0.676474	-0.079129	0.000079
C88	C	1.176474	0.420871	0.500079
C89	C	0.724431	-0.417871	0.000053
C90	C	1.224431	0.082129	0.500053
C91	C	0.722014	-0.619534	0.000044
C92	C	1.222014	-0.119534	0.500044
O93	O	0.765867	-0.650722	0.000023
O94	O	1.265867	-0.150722	0.500023
N95	N	0.669779	-0.638738	0.000039
N96	N	1.169779	-0.138738	0.500039
C97	C	0.618144	-0.607523	0.000032
C98	C	1.118144	-0.107523	0.500032
O99	O	0.573659	-0.628484	0.000021
O100	O	1.073659	-0.128484	0.500021
C101	C	0.620561	-0.405860	0.000036
C102	C	1.120561	0.094140	0.500036
C103	C	0.672800	-0.386659	0.000048
C104	C	1.172800	0.113341	0.500048
C105	C	0.776665	-0.398669	0.000064
C106	C	1.276665	0.101331	0.500064
C107	C	0.777269	-0.348256	0.000069
C108	C	1.277269	0.151744	0.500069
C109	C	0.725638	-0.317045	0.000064
C110	C	1.225638	0.182955	0.500064
C111	C	0.673403	-0.336247	0.000053
C112	C	1.173403	0.163753	0.500053
C113	C	0.568927	-0.374646	0.000025
C114	C	1.068927	0.125354	0.500025
C115	C	0.569536	-0.324228	0.000024
C116	C	1.069536	0.175772	0.500024
C117	C	0.621775	-0.305027	0.000036
C118	C	1.121775	0.194973	0.500036
C119	C	0.622376	-0.254622	0.000053
C120	C	1.122376	0.245378	0.500053
N121	N	0.674611	-0.235418	0.000059
N122	N	1.174611	0.264582	0.500059
C123	C	0.726242	-0.266630	0.000064
C124	C	1.226242	0.233370	0.500064
C125	C	0.616879	-0.713399	0.000031
C126	C	1.116879	-0.213399	0.500031
C127	C	0.616274	-0.763814	0.000031
C128	C	1.116274	-0.263814	0.500031
C129	C	0.720145	-0.775822	0.000042
C130	C	1.220145	-0.275822	0.500042
C131	C	0.720749	-0.725406	0.000046
C132	C	1.220749	-0.225406	0.500046
C133	C	0.669114	-0.694195	0.000036
C134	C	1.169114	-0.194195	0.500036
C135	C	0.727506	-0.160758	0.000076
C136	C	1.227506	0.339242	0.500076
C137	C	0.728105	-0.110341	0.000084
C138	C	1.228105	0.389659	0.500084
C139	C	0.624235	-0.098337	0.000069
C140	C	1.124235	0.401663	0.500069
C141	C	0.623635	-0.148751	0.000065
C142	C	1.123635	0.351249	0.500065
C143	C	0.675276	-0.179961	0.000066
C144	C	1.175276	0.320039	0.500066
O145	O	0.578547	-0.223406	0.000068
O146	O	1.078547	0.276594	0.500068
O147	O	0.770721	-0.245659	0.000061
O148	O	1.270721	0.254341	0.500061
C149	C	0.723827	-0.468283	0.000047
C150	C	1.223827	0.031717	0.500047
C151	C	0.671593	-0.487485	0.000037
C152	C	1.171593	0.012515	0.500037
C153	C	0.619962	-0.456274	0.000031
C154	C	1.119962	0.043726	0.500031
C155	C	0.670988	-0.537900	0.000037
C156	C	1.170988	-0.037900	0.500037
C157	C	0.722619	-0.569112	0.000042
C158	C	1.222619	-0.069112	0.500042
C159	C	0.774855	-0.549908	0.000047
C160	C	1.274855	-0.049908	0.500047
C161	C	0.775458	-0.499495	0.000053
C162	C	1.275458	0.000505	0.500053
C163	C	0.567727	-0.475478	0.000026
C164	C	1.067727	0.024522	0.500026
C165	C	0.567127	-0.525891	0.000021
C166	C	1.067127	-0.025891	0.500021
C167	C	0.618758	-0.557103	0.000026
C168	C	1.118758	-0.057103	0.500026
C169	C	0.776346	0.058894	0.000070
C170	C	1.276346	0.558894	0.500070
C171	C	0.839562	0.059544	0.000073
C172	C	1.339562	0.559544	0.500073
C173	C	0.667254	0.151319	0.000045
C174	C	1.167254	0.651319	0.500045
C175	C	0.667905	0.204975	0.000036
C176	C	1.167905	0.704975	0.500036
N177	N	0.672171	0.062938	0.143864
N178	N	1.172171	0.562938	0.643864
N179	N	0.672213	0.062903	-0.143744
N180	N	1.172213	0.562903	0.356256
C181	C	0.711209	0.029873	0.563653
C182	C	1.211209	0.529873	1.063653
C183	C	0.711211	0.029869	0.627261
C184	C	1.211211	0.529869	1.127261
O185	O	0.744380	0.001762	0.660160
O186	O	1.244380	0.501762	1.160160
N187	N	0.672199	0.062906	0.659071
N188	N	1.172199	0.562906	1.159071
C189	C	0.633177	0.095945	0.627271
C190	C	1.133177	0.595945	1.127271
O191	O	0.599994	0.124044	0.660169
O192	O	1.099994	0.624044	1.160169
C193	C	0.633172	0.095945	0.563665
C194	C	1.133172	0.595945	1.063665
C195	C	0.672191	0.062910	0.531857
C196	C	1.172191	0.562910	1.031857
C197	C	0.750224	-0.003160	0.531846
C198	C	1.250224	0.496840	1.031846
C199	C	0.750222	-0.003156	0.468243
C200	C	1.250222	0.496844	0.968243
C201	C	0.711205	0.029881	0.436447
C202	C	1.211205	0.529881	0.936447
C203	C	0.672189	0.062914	0.468254
C204	C	1.172189	0.562914	0.968254
C205	C	0.594148	0.128981	0.531866
C206	C	1.094148	0.628981	1.031866
C207	C	0.594147	0.128979	0.468255
C208	C	1.094147	0.628979	0.968255
C209	C	0.633166	0.095943	0.436447
C210	C	1.133166	0.595943	0.936447
C211	C	0.633170	0.095955	0.372855
C212	C	1.133170	0.595955	0.872855
N213	N	0.672182	0.062919	0.341045
N214	N	1.172182	0.562919	0.841045
C215	C	0.711200	0.029881	0.372840
C216	C	1.211200	0.529881	0.872840
C217	C	0.633190	0.095940	0.760849
C218	C	1.133190	0.595940	1.260849
C219	C	0.633197	0.095942	0.824454
C220	C	1.133197	0.595942	1.324454
C221	C	0.711231	0.029866	0.824440
C222	C	1.211231	0.529866	1.324440
C223	C	0.711226	0.029867	0.760833
C224	C	1.211226	0.529867	1.260833
C225	C	0.672202	0.062904	0.729038
C226	C	1.172202	0.562904	1.229038
C227	C	0.711193	0.029893	0.239269
C228	C	1.211193	0.529893	0.739269
C229	C	0.711189	0.029901	0.175660
C230	C	1.211189	0.529901	0.675660
C231	C	0.633153	0.095975	0.175680
C232	C	1.133153	0.595975	0.675680
C233	C	0.633159	0.095969	0.239284
C234	C	1.133159	0.595969	0.739284
C235	C	0.672181	0.062924	0.271076
C236	C	1.172181	0.562924	0.771076
O237	O	0.600017	0.124047	0.339915
O238	O	1.100017	0.624047	0.839915
O239	O	0.744372	0.001783	0.339935
O240	O	1.244372	0.501783	0.839935
H241	H	0.770646	-0.094710	0.000095
H242	H	1.270646	0.405290	0.500095
N243	N	0.513847	-0.290560	0.000016
N244	N	1.013847	0.209440	0.500016
H245	H	0.491043	-0.296706	-0.037447
H246	H	0.991043	0.203294	0.462553
H247	H	0.491076	-0.296726	0.037497
H248	H	0.991076	0.203274	0.537497
H249	H	0.246253	-0.060550	0.000107
H250	H	0.746253	0.439450	0.500107
H251	H	-0.034156	-0.019261	0.000086
H252	H	0.465844	0.480739	0.500086
N253	N	0.368788	0.156675	0.000034
N254	N	0.868788	0.656675	0.500034
H255	H	0.343824	0.158395	0.037495
H256	H	0.843824	0.658395	0.537495
H257	H	0.392115	0.184847	0.000001
H258	H	0.892115	0.684847	0.500001
N259	N	0.492242	0.157931	0.000024
N260	N	0.992242	0.657931	0.500024
H261	H	0.516567	0.160152	0.037480
H262	H	1.016567	0.660152	0.537480
H263	H	0.516537	0.160116	-0.037463
H264	H	1.016537	0.660116	0.462537
N265	N	0.211846	0.199223	0.000028
N266	N	0.711846	0.699223	0.500028
H267	H	0.179472	0.226853	0.000024
H268	H	0.679472	0.726853	0.500024
H269	H	0.236177	0.201403	0.037487
H270	H	0.736177	0.701403	0.537487
N271	N	0.753286	-0.005742	0.273554
N272	N	1.253286	0.494258	0.773554
H273	H	0.731723	-0.027059	0.299947
H274	H	1.231723	0.472941	0.799947
H275	H	0.777989	-0.026630	0.243707
H276	H	1.277989	0.473370	0.743707
H277	H	0.581099	-0.164385	0.000072
H278	H	1.081099	0.335615	0.500072
N279	N	0.830540	-0.583580	0.000051
N280	N	1.330540	-0.083580	0.500051
H281	H	0.853357	-0.577433	-0.037405
H282	H	1.353357	-0.077433	0.462595
H283	H	0.853302	-0.577423	0.037538
H284	H	1.353302	-0.077423	0.537538
H285	H	0.404543	-0.014804	0.000058
H286	H	0.904543	0.485196	0.500058
H287	H	0.781993	-0.030058	0.442349
H288	H	1.281993	0.469942	0.942349
N289	N	0.552056	0.164607	0.566161
N290	N	1.052056	0.664607	1.066161
H291	H	0.527009	0.146237	0.592551
H292	H	1.027009	0.646237	1.092551
H293	H	0.573661	0.185913	0.592518
H294	H	1.073661	0.685913	1.092518
H295	H	0.098146	0.186402	0.000047
H296	H	0.598146	0.686402	0.500047
H297	H	0.818712	-0.424077	0.000066
H298	H	1.318712	0.075923	0.500066
H299	H	0.138506	-0.061648	0.000107
H300	H	0.638506	0.438352	0.500107
N301	N	0.591072	0.131607	0.141380
N302	N	1.091072	0.631607	0.641380
H303	H	0.596992	0.126592	0.096260
H304	H	1.096992	0.626592	0.596260
H305	H	0.550723	0.126192	0.152501
H306	H	1.050723	0.626192	0.652501
N307	N	0.552059	0.164616	0.433964
N308	N	1.052059	0.664616	0.933964
H309	H	0.557974	0.159608	0.388843
H310	H	1.057974	0.659608	0.888843
H311	H	0.511710	0.159203	0.445088
H312	H	1.011710	0.659203	0.945088
N313	N	0.591075	0.131603	0.273587
N314	N	1.091075	0.631603	0.773587
H315	H	0.566022	0.113238	0.299975
H316	H	1.066022	0.613238	0.799975
H317	H	0.612684	0.152904	0.299945
H318	H	1.112684	0.652904	0.799945
H319	H	0.743000	0.002965	0.850339
H320	H	1.243000	0.502965	1.350339
N321	N	0.753303	-0.005764	0.726522
N322	N	1.253303	0.494236	1.226522
H323	H	0.793674	-0.000373	0.737583
H324	H	1.293674	0.499627	1.237583
H325	H	0.746998	-0.040028	0.737608
H326	H	1.246998	0.459972	1.237608
N327	N	0.522050	-0.025274	0.000060
N328	N	1.022050	0.474726	0.500060
H329	H	0.563095	-0.018155	0.000059
H330	H	1.063095	0.481845	0.500059
H331	H	0.514798	-0.044616	0.037528
H332	H	1.014798	0.455384	0.537528
N333	N	0.783202	-0.194416	0.000077
N334	N	1.283202	0.305584	0.500077
H335	H	0.816380	-0.174595	0.000086
H336	H	1.316380	0.325405	0.500086
H337	H	0.785209	-0.215596	0.037537
H338	H	1.285209	0.284404	0.537537
N339	N	0.831801	-0.478789	0.000066
N340	N	1.331801	0.021211	0.500066
H341	H	0.864413	-0.506217	0.000069
H342	H	1.364413	-0.006217	0.500069
H343	H	0.834325	-0.458132	-0.037393
H344	H	1.334325	0.041868	0.462607
H345	H	0.819807	-0.332628	0.000076
H346	H	1.319807	0.167372	0.500076
H347	H	-0.060167	0.140653	0.000056
H348	H	0.439833	0.640653	0.500056
N349	N	0.792317	-0.038792	0.566132
N350	N	1.292317	0.461208	1.066132
H351	H	0.786410	-0.033786	0.611255
H352	H	1.286410	0.466214	1.111255
H353	H	0.786045	-0.073056	0.555012
H354	H	1.286045	0.426944	1.055012
N355	N	-0.177671	0.151123	0.000055
N356	N	0.322329	0.651123	0.500055
H357	H	-0.218717	0.144003	0.000059
H358	H	0.281283	0.644003	0.500059
H359	H	-0.170424	0.170477	0.037512
H360	H	0.329576	0.670477	0.537512
H361	H	-0.141903	-0.020355	0.000078
H362	H	0.358097	0.479645	0.500078
N363	N	0.777091	-0.704697	0.000059
N364	N	1.277091	-0.204697	0.500059
H365	H	0.809704	-0.732124	0.000064
H366	H	1.309704	-0.232124	0.500064
H367	H	0.779614	-0.684043	-0.037402
H368	H	1.279614	-0.184043	0.462598
H369	H	0.601430	0.122848	0.850347
H370	H	1.101430	0.622848	1.350347
H371	H	0.762185	-0.801243	0.000047
H372	H	1.262185	-0.301243	0.500047
N373	N	0.591100	0.131576	0.726558
N374	N	1.091100	0.631576	1.226558
H375	H	0.566389	0.152502	0.756366
H376	H	1.066389	0.652502	1.256366
H377	H	0.612708	0.152855	0.700164
H378	H	1.112708	0.652855	1.200164
H379	H	0.573737	-0.779443	0.000032
H380	H	1.073737	-0.279443	0.500032
H381	H	0.574829	-0.687991	0.000022
H382	H	1.074829	-0.187991	0.500022
N383	N	0.512583	-0.395348	0.000020
N384	N	1.012583	0.104652	0.500020
H385	H	0.479973	-0.367919	0.000015
H386	H	0.979973	0.132081	0.500015
H387	H	0.510070	-0.416003	-0.037441
H388	H	1.010070	0.083997	0.462559
N389	N	0.568555	-0.064662	0.000075
N390	N	1.068555	0.435338	0.500075
H391	H	0.566500	-0.043474	-0.037381
H392	H	1.066500	0.456526	0.462619
H393	H	0.535396	-0.084501	0.000094
H394	H	1.035396	0.415499	0.500094
H395	H	0.525681	-0.450070	0.000020
H396	H	1.025681	0.049930	0.500020
N397	N	0.510777	-0.546593	0.000016
N398	N	1.010777	-0.046593	0.500016
H399	H	0.488187	-0.535188	-0.037446
H400	H	0.988187	-0.035188	0.462554
H401	H	0.518267	-0.583264	0.000037
H402	H	1.018267	-0.083264	0.500037
N403	N	0.753276	-0.005730	0.141354
N404	N	1.253276	0.494270	0.641354
H405	H	0.777992	-0.026659	0.171152
H406	H	1.277992	0.473341	0.671152
H407	H	0.731664	-0.027006	0.114963
H408	H	1.231664	0.472994	0.614963
