data_functionalizedCrystal
_audit_creation_method	'MofGen! by Chris Wilmer'
_symmetry_space_group_name_H-M	'P1'
_symmetry_Int_Tables_number	1
_symmetry_cell_setting	triclinic
loop_
_symmetry_equiv_pos_as_xyz
  x,y,z
_cell_length_a	14.971486
_cell_length_b	10.723024
_cell_length_c	13.448316
_cell_angle_alpha	89.994589
_cell_angle_beta	89.998199
_cell_angle_gamma	84.040999
loop_
_atom_site_label
_atom_site_type_symbol
_atom_site_fract_x
_atom_site_fract_y
_atom_site_fract_z
O1	O	1.187821	0.162617	-0.082575
O2	O	0.927525	0.182090	-0.082602
O3	O	1.063677	-0.009285	-0.082584
O4	O	1.051669	0.353992	-0.082593
O5	O	1.063660	-0.009297	0.082800
O6	O	0.927508	0.182078	0.082782
O7	O	1.187803	0.162605	0.082809
Cu8	Cu	1.057654	0.172341	0.097896
Cu9	Cu	1.057674	0.172355	-0.097689
O10	O	1.051651	0.353981	0.082791
C11	C	0.894187	0.181213	0.000087
C12	C	0.794876	0.178604	0.000077
C13	C	0.738254	0.291032	0.000075
C14	C	0.644941	0.288572	0.000090
C15	C	0.608252	0.173683	0.000099
C16	C	0.664881	0.061246	0.000104
C17	C	0.758192	0.063707	0.000096
C18	C	0.470391	0.056125	0.000117
C19	C	0.377074	0.053663	0.000123
C20	C	0.357141	0.280990	0.000112
C21	C	0.450452	0.283451	0.000104
C22	C	0.507074	0.171013	0.000106
C23	C	1.062794	-0.055782	0.000107
C24	C	1.060180	-0.194309	0.000103
C25	C	1.136363	-0.270088	0.000109
C26	C	1.133663	-0.413263	0.000106
C27	C	1.221141	0.163482	0.000118
C28	C	1.320452	0.166091	0.000122
C29	C	1.052534	0.400477	0.000098
C30	C	1.055148	0.539004	0.000096
N31	N	1.057646	0.172330	0.235461
N32	N	1.057689	0.172355	-0.235253
C33	C	1.117953	0.087624	0.287509
C34	C	1.117959	0.087623	0.391612
C35	C	1.057661	0.172335	0.443665
C36	C	0.997347	0.257045	0.391610
C37	C	0.997338	0.257039	0.287509
C38	C	0.997372	0.257054	0.608590
C39	C	0.997382	0.257062	0.712698
C40	C	1.117993	0.087637	0.712694
C41	C	1.117984	0.087631	0.608592
C42	C	1.057671	0.172343	0.556544
H43	H	0.347205	-0.039889	0.000132
H44	H	0.598843	0.380122	0.000088
C45	C	1.212226	-0.083498	0.000128
C46	C	1.227117	-0.214591	0.000124
H47	H	1.268256	-0.049243	0.000143
H48	H	1.179178	-0.056164	-0.057546
H49	H	1.179155	-0.056183	0.057800
H50	H	1.260182	-0.241907	-0.057553
H51	H	1.260179	-0.241937	0.057804
C52	C	1.201994	-0.625976	0.000100
C53	C	1.221712	-0.501155	0.000108
H54	H	1.256355	-0.680236	0.000094
H55	H	1.168134	-0.641186	0.057767
H56	H	1.168133	-0.641161	-0.057579
H57	H	1.255568	-0.485967	0.057791
H58	H	1.255587	-0.485939	-0.057565
H59	H	0.948229	0.326014	0.245132
H60	H	0.311034	0.372540	0.000114
H61	H	0.804293	-0.027843	0.000096
H62	H	0.480320	0.377003	0.000087
H63	H	0.948256	0.326031	0.566216
H64	H	0.948247	0.326015	0.433998
H65	H	1.167087	0.018658	0.566211
H66	H	0.989926	-0.395889	0.000097
H67	H	0.992957	-0.235428	0.000090
H68	H	0.516492	-0.035434	0.000121
H69	H	0.635002	-0.032298	0.000125
C70	C	0.709169	0.515484	0.000076
C71	C	0.778578	0.417324	0.000068
H72	H	0.734063	0.593452	0.000080
H73	H	0.673189	0.509802	-0.057591
H74	H	0.673190	0.509779	0.057756
H75	H	0.814553	0.423023	-0.057616
H76	H	0.814573	0.423008	0.057741
C77	C	1.237164	-0.079853	0.297971
C78	C	1.184234	-0.005499	0.230297
H79	H	1.278078	-0.137350	0.262651
H80	H	1.269657	-0.027834	0.338560
H81	H	1.199652	-0.124816	0.338588
H82	H	1.221746	0.039472	0.189685
H83	H	1.151739	-0.057525	0.189691
C84	C	1.136363	-0.082169	0.508683
C85	C	1.184257	-0.005489	0.448816
H86	H	1.177297	-0.139659	0.543990
H87	H	1.100463	-0.031727	0.554583
H88	H	1.098859	-0.127139	0.468071
H89	H	1.221756	0.039489	0.489429
H90	H	1.220172	-0.055937	0.402911
H91	H	1.167101	0.018662	0.755077
H92	H	0.948280	0.326042	0.755075
