data_functionalizedCrystal
_audit_creation_method	'MofGen! by Chris Wilmer'
_symmetry_space_group_name_H-M	'P1'
_symmetry_Int_Tables_number	1
_symmetry_cell_setting	triclinic
loop_
_symmetry_equiv_pos_as_xyz
  x,y,z
_cell_length_a	12.827893
_cell_length_b	18.050590
_cell_length_c	18.050582
_cell_angle_alpha	89.976663
_cell_angle_beta	89.987073
_cell_angle_gamma	90.018523
loop_
_atom_site_label
_atom_site_type_symbol
_atom_site_fract_x
_atom_site_fract_y
_atom_site_fract_z
Zn1	Zn	1.597581	-0.295707	-0.419869
Zn2	Zn	1.847581	-0.045707	-0.169869
Zn3	Zn	2.097581	0.204293	0.080131
Zn4	Zn	2.347581	0.454293	0.330131
Zn5	Zn	1.597485	-0.419890	-0.295677
Zn6	Zn	1.847485	-0.169890	-0.045677
Zn7	Zn	2.097485	0.080110	0.204323
Zn8	Zn	2.347485	0.330110	0.454323
Zn9	Zn	1.422842	-0.295719	-0.295698
Zn10	Zn	1.672842	-0.045719	-0.045698
Zn11	Zn	1.922842	0.204281	0.204302
Zn12	Zn	2.172842	0.454281	0.454302
Zn13	Zn	1.422798	-0.419860	-0.419830
Zn14	Zn	1.672798	-0.169860	-0.169830
Zn15	Zn	1.922798	0.080140	0.080170
Zn16	Zn	2.172798	0.330140	0.330170
O17	O	1.510177	-0.357794	-0.357769
O18	O	1.760177	-0.107794	-0.107769
O19	O	2.010177	0.142206	0.142231
O20	O	2.260177	0.392206	0.392231
O21	O	1.743804	-0.312188	-0.403403
O22	O	1.993804	-0.062188	-0.153403
O23	O	2.243804	0.187812	0.096597
O24	O	2.493804	0.437812	0.346597
O25	O	1.574296	-0.403437	-0.191755
O26	O	1.824296	-0.153437	0.058245
O27	O	2.074296	0.096563	0.308245
O28	O	2.324296	0.346563	0.558245
O29	O	1.446080	-0.191793	-0.312194
O30	O	1.696080	0.058207	-0.062194
O31	O	1.946080	0.308207	0.187806
O32	O	2.196080	0.558207	0.437806
O33	O	1.743734	-0.403425	-0.312160
O34	O	1.993734	-0.153425	-0.062160
O35	O	2.243734	0.096575	0.187840
O36	O	2.493734	0.346575	0.437840
O37	O	1.574460	-0.191784	-0.403422
O38	O	1.824460	0.058216	-0.153422
O39	O	2.074460	0.308216	0.096578
O40	O	2.324460	0.558216	0.346578
O41	O	1.445987	-0.312208	-0.191770
O42	O	1.695987	-0.062208	0.058230
O43	O	1.945987	0.187792	0.308230
O44	O	2.195987	0.437792	0.558230
O45	O	1.276600	-0.312178	-0.312156
O46	O	1.526600	-0.062178	-0.062156
O47	O	1.776600	0.187822	0.187844
O48	O	2.026600	0.437822	0.437844
O49	O	1.446006	-0.403373	-0.523760
O50	O	1.696006	-0.153373	-0.273760
O51	O	1.946006	0.096627	-0.023760
O52	O	2.196006	0.346627	0.226240
O53	O	1.276568	-0.403384	-0.403356
O54	O	1.526568	-0.153384	-0.153356
O55	O	1.776568	0.096616	0.096644
O56	O	2.026568	0.346616	0.346644
O57	O	1.574418	-0.312159	-0.523789
O58	O	1.824418	-0.062159	-0.273789
O59	O	2.074418	0.187841	-0.023789
O60	O	2.324418	0.437841	0.226211
O61	O	1.574254	-0.523811	-0.312122
O62	O	1.824254	-0.273811	-0.062122
O63	O	2.074254	-0.023811	0.187878
O64	O	2.324254	0.226189	0.437878
O65	O	1.445912	-0.523788	-0.403336
O66	O	1.695912	-0.273788	-0.153336
O67	O	1.945912	-0.023788	0.096664
O68	O	2.195912	0.226212	0.346664
C69	C	1.238667	-0.357780	-0.357754
C70	C	1.488667	-0.107780	-0.107754
C71	C	1.738667	0.142220	0.142246
C72	C	1.988667	0.392220	0.392246
C73	C	1.122514	-0.357792	-0.357766
C74	C	1.372514	-0.107792	-0.107766
C75	C	1.622514	0.142208	0.142234
C76	C	1.872514	0.392208	0.392234
C77	C	1.070741	-0.402994	-0.402825
C78	C	1.320741	-0.152994	-0.152825
C79	C	1.570741	0.097006	0.097175
C80	C	1.820741	0.347006	0.347175
C81	C	0.950690	-0.403007	-0.402838
C82	C	1.200690	-0.153007	-0.152838
C83	C	1.450690	0.096993	0.097162
C84	C	1.700690	0.346993	0.347162
C85	C	1.510096	-0.550746	-0.357739
C86	C	1.760096	-0.300746	-0.107739
C87	C	2.010096	-0.050746	0.142261
C88	C	2.260096	0.199254	0.392261
C89	C	1.510157	-0.633292	-0.357751
C90	C	1.760157	-0.383292	-0.107751
C91	C	2.010157	-0.133292	0.142249
C92	C	2.260157	0.116708	0.392249
C93	C	1.580095	-0.832728	-0.308218
C94	C	1.830095	-0.582728	-0.058218
C95	C	2.080095	-0.332728	0.191782
C96	C	2.330095	-0.082728	0.441782
C97	C	1.605614	-0.882067	-0.375997
C98	C	1.855614	-0.632067	-0.125997
C99	C	2.105614	-0.382067	0.124003
C100	C	2.355614	-0.132067	0.374003
C101	C	1.510217	-0.784422	-0.357781
C102	C	1.760217	-0.534422	-0.107781
C103	C	2.010217	-0.284422	0.142219
C104	C	2.260217	-0.034422	0.392219
C105	C	1.484804	-0.882165	-0.290032
C106	C	1.734804	-0.632165	-0.040032
C107	C	1.984804	-0.382165	0.209968
C108	C	2.234804	-0.132165	0.459968
C109	C	1.510276	-0.930407	-0.357803
C110	C	1.760276	-0.680407	-0.107803
C111	C	2.010276	-0.430407	0.142197
C112	C	2.260276	-0.180407	0.392197
C113	C	1.535785	-0.832674	-0.425596
C114	C	1.785785	-0.582674	-0.175596
C115	C	2.035785	-0.332674	0.074404
C116	C	2.285785	-0.082674	0.324404
C117	C	1.414931	-0.832768	-0.339584
C118	C	1.664931	-0.582768	-0.089584
C119	C	1.914931	-0.332768	0.160416
C120	C	2.164931	-0.082768	0.410416
C121	C	1.440413	-0.882085	-0.407411
C122	C	1.690413	-0.632085	-0.157411
C123	C	1.940413	-0.382085	0.092589
C124	C	2.190413	-0.132085	0.342589
C125	C	1.510185	-0.700324	-0.357767
C126	C	1.760185	-0.450324	-0.107767
C127	C	2.010185	-0.200324	0.142233
C128	C	2.260185	0.049676	0.392233
C129	C	1.510307	-1.014504	-0.357825
C130	C	1.760307	-0.764504	-0.107825
C131	C	2.010307	-0.514504	0.142175
C132	C	2.260307	-0.264504	0.392175
C133	C	1.782747	-0.357809	-0.357783
C134	C	2.032747	-0.107809	-0.107783
C135	C	2.282747	0.142191	0.142217
C136	C	2.532747	0.392191	0.392217
C137	C	1.898900	-0.357815	-0.357789
C138	C	2.148900	-0.107815	-0.107789
C139	C	2.398900	0.142185	0.142211
C140	C	2.648900	0.392185	0.392211
C141	C	1.510218	-0.357761	-0.551474
C142	C	1.760218	-0.107761	-0.301474
C143	C	2.010218	0.142239	-0.051474
C144	C	2.260218	0.392239	0.198526
C145	C	1.510235	-0.357747	-0.634020
C146	C	1.760235	-0.107747	-0.384020
C147	C	2.010235	0.142253	-0.134020
C148	C	2.260235	0.392253	0.115980
C149	C	1.510286	-0.164088	-0.357815
C150	C	1.760286	0.085912	-0.107815
C151	C	2.010286	0.335912	0.142185
C152	C	2.260286	0.585912	0.392185
C153	C	1.510332	-0.081543	-0.357834
C154	C	1.760332	0.168457	-0.107834
C155	C	2.010332	0.418457	0.142166
C156	C	2.260332	0.668457	0.392166
C157	C	1.440458	-0.407282	-0.833455
C158	C	1.690458	-0.157282	-0.583455
C159	C	1.940458	0.092718	-0.333455
C160	C	2.190458	0.342718	-0.083455
C161	C	1.535803	-0.425435	-0.882844
C162	C	1.785803	-0.175435	-0.632844
C163	C	2.035803	0.074565	-0.382844
C164	C	2.285803	0.324565	-0.132844
C165	C	1.510286	-0.357690	-0.785151
C166	C	1.760286	-0.107690	-0.535151
C167	C	2.010286	0.142310	-0.285151
C168	C	2.260286	0.392310	-0.035151
C169	C	1.414994	-0.339516	-0.882844
C170	C	1.664994	-0.089516	-0.632844
C171	C	1.914994	0.160484	-0.382844
C172	C	2.164994	0.410484	-0.132844
C173	C	1.510328	-0.357637	-0.931136
C174	C	1.760328	-0.107637	-0.681136
C175	C	2.010328	0.142363	-0.431136
C176	C	2.260328	0.392363	-0.181136
C177	C	1.605682	-0.375879	-0.833452
C178	C	1.855682	-0.125879	-0.583452
C179	C	2.105682	0.124121	-0.333452
C180	C	2.355682	0.374121	-0.083452
C181	C	1.484808	-0.289929	-0.833447
C182	C	1.734808	-0.039929	-0.583447
C183	C	1.984808	0.210071	-0.333447
C184	C	2.234808	0.460071	-0.083447
C185	C	1.580219	-0.308057	-0.882814
C186	C	1.830219	-0.058057	-0.632814
C187	C	2.080219	0.191943	-0.382814
C188	C	2.330219	0.441943	-0.132814
C189	C	1.510261	-0.357723	-0.701052
C190	C	1.760261	-0.107723	-0.451052
C191	C	2.010261	0.142277	-0.201052
C192	C	2.260261	0.392277	0.048948
C193	C	1.510364	-0.357604	-1.015232
C194	C	1.760364	-0.107604	-0.765232
C195	C	2.010364	0.142396	-0.515232
C196	C	2.260364	0.392396	-0.265232
C197	C	1.510196	-0.357773	-0.164816
C198	C	1.760196	-0.107773	0.085184
C199	C	2.010196	0.142227	0.335184
C200	C	2.260196	0.392227	0.585184
C201	C	1.510381	-0.357578	-0.082271
C202	C	1.760381	-0.107578	0.167729
C203	C	2.010381	0.142422	0.417729
C204	C	2.260381	0.392422	0.667729
H205	H	0.943417	-0.319117	-0.319208
H206	H	1.193417	-0.069117	-0.069208
H207	H	1.443417	0.180883	0.180792
H208	H	1.693417	0.430883	0.430792
F209	F	1.128968	-0.453567	-0.453235
F210	F	1.378968	-0.203567	-0.203235
F211	F	1.628968	0.046433	0.046765
F212	F	1.878968	0.296433	0.296765
H213	H	1.639357	-0.266096	-0.904349
H214	H	1.889357	-0.016096	-0.654349
H215	H	2.139357	0.233904	-0.404349
H216	H	2.389357	0.483904	-0.154349
H217	H	1.463205	-0.232664	-0.811733
H218	H	1.713205	0.017336	-0.561733
H219	H	1.963205	0.267336	-0.311733
H220	H	2.213205	0.517336	-0.061733
F221	F	1.309638	-0.319452	-0.911202
F222	F	1.559638	-0.069452	-0.661202
F223	F	1.809638	0.180548	-0.411202
F224	F	2.059638	0.430548	-0.161202
F225	F	1.363345	-0.462167	-0.805126
F226	F	1.613345	-0.212167	-0.555126
F227	F	1.863345	0.037833	-0.305126
F228	F	2.113345	0.287833	-0.055126
F229	F	1.564004	-0.500306	-0.911206
F230	F	1.814004	-0.250306	-0.661206
F231	F	2.064004	-0.000306	-0.411206
F232	F	2.314004	0.249694	-0.161206
F233	F	1.064286	-0.307216	-0.307358
F234	F	1.314286	-0.057216	-0.057358
F235	F	1.564286	0.192784	0.192642
F236	F	1.814286	0.442784	0.442642
F237	F	1.710976	-0.910360	-0.396144
F238	F	1.960976	-0.660360	-0.146144
F239	F	2.210976	-0.410360	0.103856
F240	F	2.460976	-0.160360	0.353856
F241	F	1.657357	-0.804399	-0.253489
F242	F	1.907357	-0.554399	-0.003489
F243	F	2.157357	-0.304399	0.246511
F244	F	2.407357	-0.054399	0.496511
F245	F	0.892498	-0.453595	-0.453259
F246	F	1.142498	-0.203595	-0.203259
F247	F	1.392498	0.046405	0.046741
F248	F	1.642498	0.296405	0.296741
H249	H	1.686310	-0.391294	-0.811847
H250	H	1.936310	-0.141294	-0.561847
H251	H	2.186310	0.108706	-0.311847
H252	H	2.436310	0.358706	-0.061847
F253	F	1.564045	-0.804382	-0.500516
F254	F	1.814045	-0.554382	-0.250516
F255	F	2.064045	-0.304382	-0.000516
F256	F	2.314045	-0.054382	0.249484
H257	H	1.381345	-0.903619	-0.449383
H258	H	1.631345	-0.653619	-0.199383
H259	H	1.881345	-0.403619	0.050617
H260	H	2.131345	-0.153619	0.300617
H261	H	1.334347	-0.811096	-0.324159
H262	H	1.584347	-0.561096	-0.074159
H263	H	1.834347	-0.311096	0.175841
H264	H	2.084347	-0.061096	0.425841
F265	F	1.456677	-0.910581	-0.215132
F266	F	1.706677	-0.660581	0.034868
F267	F	1.956677	-0.410581	0.284868
F268	F	2.206677	-0.160581	0.534868
