data_functionalizedCrystal
_audit_creation_method	'MofGen! by Chris Wilmer'
_symmetry_space_group_name_H-M	'P1'
_symmetry_Int_Tables_number	1
_symmetry_cell_setting	triclinic
loop_
_symmetry_equiv_pos_as_xyz
  x,y,z
_cell_length_a	16.625547
_cell_length_b	29.839126
_cell_length_c	16.625546
_cell_angle_alpha	90.022454
_cell_angle_beta	89.977595
_cell_angle_gamma	89.975854
loop_
_atom_site_label
_atom_site_type_symbol
_atom_site_fract_x
_atom_site_fract_y
_atom_site_fract_z
Zn1	Zn	1.232675	-0.254065	0.321065
Zn2	Zn	1.232580	-0.178937	0.455889
Zn3	Zn	1.097839	-0.178941	0.321074
Zn4	Zn	1.097807	-0.254032	0.455859
O5	O	1.165225	-0.216494	0.388472
O6	O	1.345495	-0.244110	0.338958
O7	O	1.214679	-0.116070	0.438022
O8	O	1.115778	-0.188922	0.208240
O9	O	1.345425	-0.188914	0.438013
O10	O	1.214842	-0.244115	0.208234
O11	O	1.115685	-0.116074	0.338974
O12	O	0.985002	-0.188891	0.338945
O13	O	1.115725	-0.316904	0.437962
O14	O	0.984979	-0.244060	0.437971
O15	O	1.214811	-0.316927	0.338929
O16	O	1.214649	-0.188883	0.568718
O17	O	1.115632	-0.244055	0.568695
C18	C	0.955734	-0.216473	0.388456
C19	C	0.866113	-0.216474	0.388469
C20	C	0.793331	-0.216480	0.388470
C21	C	0.702022	-0.216491	0.388475
C22	C	0.629246	-0.216502	0.388482
C23	C	0.537932	-0.216513	0.388488
C24	C	1.165275	-0.333672	0.388441
C25	C	1.165296	-0.383607	0.388428
C26	C	1.113766	-0.693255	0.336773
C27	C	1.113789	-0.880928	0.336717
O28	O	1.069936	-0.905197	0.292878
N29	N	1.165335	-0.904392	0.388276
C30	C	1.216874	-0.880935	0.439857
O31	O	1.260711	-0.905199	0.483717
C32	C	1.216847	-0.693262	0.439917
C33	C	1.165304	-0.669801	0.388348
C34	C	1.062227	-0.669793	0.285209
C35	C	1.062225	-0.622878	0.285220
C36	C	1.113762	-0.599424	0.336795
C37	C	1.165302	-0.622885	0.388359
C38	C	1.268382	-0.669806	0.491501
C39	C	1.268369	-0.622885	0.491513
C40	C	1.216826	-0.599424	0.439944
C41	C	1.216837	-0.552516	0.439946
N42	N	1.165292	-0.529052	0.388387
C43	C	1.113754	-0.552506	0.336811
C44	C	1.216886	-0.979465	0.439821
C45	C	1.216894	-1.026383	0.439806
C46	C	1.113808	-1.026373	0.336666
C47	C	1.113804	-0.979454	0.336678
C48	C	1.165341	-0.956001	0.388262
C49	C	1.113754	-0.453980	0.336839
C50	C	1.113759	-0.407060	0.336852
C51	C	1.216842	-0.407075	0.439995
C52	C	1.216841	-0.453990	0.439978
C53	C	1.165290	-0.477442	0.388398
O54	O	1.260661	-0.528218	0.483768
O55	O	1.069911	-0.528234	0.292971
C56	C	1.113768	-0.740170	0.336761
C57	C	1.165308	-0.763632	0.388325
C58	C	1.216845	-0.740178	0.439901
C59	C	1.165316	-0.810550	0.388309
C60	C	1.113779	-0.834004	0.336734
C61	C	1.062233	-0.810539	0.285174
C62	C	1.062231	-0.763624	0.285186
C63	C	1.268391	-0.763642	0.491460
C64	C	1.268389	-0.810557	0.491444
C65	C	1.216852	-0.834011	0.439869
C66	C	1.375534	-0.216515	0.388488
C67	C	1.465155	-0.216524	0.388495
C68	C	1.165149	-0.216475	0.597963
C69	C	1.165190	-0.216482	0.687584
C70	C	1.165222	-0.099771	0.388444
C71	C	1.165357	-0.049837	0.388230
C72	C	1.165324	-0.216522	0.178163
C73	C	1.165366	-0.216535	0.088542
C74	C	1.165331	-0.216529	1.015759
C75	C	1.165289	-0.216517	0.924451
C76	C	1.165260	-0.216505	0.851674
C77	C	1.165219	-0.216494	0.760360
H78	H	1.071787	-0.387960	0.294855
F79	F	1.271763	-1.051348	0.494683
F80	F	1.323248	-0.738687	0.546356
H81	H	1.310342	-0.603792	0.533515
F82	F	1.271711	-0.478961	0.494851
H83	H	1.071778	-0.473069	0.294836
H84	H	1.020273	-0.829644	0.243177
F85	F	1.007371	-0.738660	0.230299
H86	H	1.020255	-0.688884	0.243209
F87	F	1.271693	-0.382105	0.494878
F88	F	1.323237	-0.694766	0.546394
F89	F	1.323255	-0.835522	0.546332
H90	H	1.020250	-0.603779	0.243231
F91	F	1.058945	-0.954489	0.281793
H92	H	1.071846	-1.045477	0.294669
F93	F	1.271745	-0.954511	0.494725
