data_functionalizedCrystal
_audit_creation_method	'MofGen! by Chris Wilmer'
_symmetry_space_group_name_H-M	'P1'
_symmetry_Int_Tables_number	1
_symmetry_cell_setting	triclinic
loop_
_symmetry_equiv_pos_as_xyz
  x,y,z
_cell_length_a	12.376457
_cell_length_b	10.654541
_cell_length_c	10.654545
_cell_angle_alpha	95.515322
_cell_angle_beta	78.610582
_cell_angle_gamma	78.597673
loop_
_atom_site_label
_atom_site_type_symbol
_atom_site_fract_x
_atom_site_fract_y
_atom_site_fract_z
O1	O	0.093964	-1.691710	0.152532
O2	O	0.093974	-1.326234	0.169339
O3	O	0.093968	-1.517374	-0.021804
O4	O	0.093970	-1.500570	0.343674
O5	O	-0.094043	-1.469605	0.025916
O6	O	-0.094037	-1.278465	0.217059
O7	O	-0.094046	-1.643942	0.200252
Zn8	Zn	-0.123893	-1.453619	0.216232
Zn9	Zn	0.123820	-1.516556	0.153359
O10	O	-0.094041	-1.452801	0.391394
C11	C	-0.000031	-1.255552	0.191965
C12	C	-0.000027	-1.116109	0.188273
N13	N	-0.292950	-1.410675	0.259141
C14	C	-0.000035	-1.492256	-0.044742
C15	C	-0.000029	-1.488565	-0.184187
C16	C	-0.647942	-1.659196	0.010811
C17	C	-0.529603	-1.689245	-0.019222
C18	C	-0.470434	-1.619605	0.050366
C19	C	-0.529615	-1.519911	0.149992
C20	C	-0.647966	-1.489865	0.180033
C21	C	-0.470458	-1.450274	0.219589
C22	C	-0.529639	-1.350580	0.319214
C23	C	-0.647978	-1.320539	0.349251
C24	C	-0.707147	-1.390179	0.279663
C25	C	-0.352107	-1.480320	0.189547
C26	C	-0.352131	-1.310989	0.358770
C27	C	-0.470470	-1.280940	0.388802
N28	N	0.292877	-1.559510	0.110440
C29	C	-0.000040	-1.714624	0.177625
C30	C	-0.000036	-1.854069	0.181315
C31	C	-0.000011	-1.088143	0.416834
C32	C	0.000001	-1.008652	0.529374
C33	C	0.000002	-0.877635	0.525898
C34	C	-0.000013	-0.826105	0.409871
C35	C	-0.000025	-0.905596	0.297331
C36	C	-0.000023	-1.036616	0.300818
C37	C	-0.000048	-0.933559	0.068775
C38	C	-0.000041	-1.064580	0.072246
C39	C	-0.000063	-0.882030	-0.047253
C40	C	-0.000067	-0.961523	-0.159797
C41	C	-0.000067	-1.092548	-0.156317
C42	C	-0.000054	-1.144070	-0.040294
C43	C	0.204947	-1.540659	-0.236222
C44	C	0.307434	-1.564976	-0.327749
C45	C	0.307435	-1.561507	-0.458768
C46	C	0.204938	-1.533715	-0.498260
C47	C	0.102451	-1.509398	-0.406733
C48	C	0.102461	-1.512873	-0.275714
C49	C	-0.102521	-1.457296	-0.354698
C50	C	-0.102525	-1.460773	-0.223679
C51	C	-0.205018	-1.429504	-0.394190
C52	C	-0.307508	-1.405195	-0.302663
C53	C	-0.307505	-1.408667	-0.171637
C54	C	-0.205012	-1.436456	-0.132152
C55	C	-0.000035	-1.477920	0.414332
C56	C	-0.000034	-1.481613	0.553775
H57	H	-0.303932	-1.561491	0.108432
Br58	Br	0.446530	-1.602725	-0.274151
Br59	Br	-0.867757	-1.349386	0.320416
H60	H	0.390889	-1.581296	-0.533290
Br61	Br	-0.309828	-1.660385	0.009607
Br62	Br	0.000014	-1.265960	0.421552
Br63	Br	-0.728242	-1.753713	-0.083606
Br64	Br	-0.449287	-1.824539	-0.154416
H65	H	0.204949	-1.530877	-0.604943
H66	H	-0.205010	-1.426674	-0.500873
H67	H	-0.390952	-1.382560	-0.334829
Br68	Br	-0.000036	-0.648287	0.405162
H69	H	-0.000068	-0.775346	-0.050073
Br70	Br	-0.446603	-1.375650	-0.047429
H71	H	-0.696164	-1.239372	0.430381
H72	H	0.000004	-0.812910	0.617540
Br73	Br	-0.550799	-1.145642	0.524003
H74	H	-0.000078	-0.919556	-0.254258
H75	H	-0.205000	-1.439291	-0.025474
H76	H	0.204956	-1.543500	-0.129543
H77	H	-0.303956	-1.254284	0.415437
H78	H	0.000010	-1.050622	0.623842
H79	H	-0.000081	-1.157263	-0.247960
H80	H	-0.000040	-1.250754	-0.037453
