data_functionalizedCrystal
_audit_creation_method	'MofGen! by Chris Wilmer'
_symmetry_space_group_name_H-M	'P1'
_symmetry_Int_Tables_number	1
_symmetry_cell_setting	triclinic
loop_
_symmetry_equiv_pos_as_xyz
  x,y,z
_cell_length_a	10.968094
_cell_length_b	10.654559
_cell_length_c	10.065875
_cell_angle_alpha	98.877505
_cell_angle_beta	93.118877
_cell_angle_gamma	84.600770
loop_
_atom_site_label
_atom_site_type_symbol
_atom_site_fract_x
_atom_site_fract_y
_atom_site_fract_z
O1	O	1.614698	0.219043	0.266235
O2	O	1.264689	0.222638	0.183923
O3	O	1.447735	0.038405	0.226970
O4	O	1.431652	0.403275	0.223188
O5	O	1.412832	0.073683	0.445751
O6	O	1.229786	0.257916	0.402704
O7	O	1.579795	0.254321	0.485015
Zn8	Zn	1.399249	0.261720	0.478595
Zn9	Zn	1.445235	0.215239	0.190343
O10	O	1.396749	0.438553	0.441968
C11	C	1.202420	0.237351	0.282773
C12	C	1.068879	0.228619	0.251368
C13	C	0.853234	0.233961	0.318234
C14	C	0.991253	0.242998	0.350706
C15	C	1.429101	0.009201	0.336079
C16	C	1.425562	-0.130376	0.335239
C17	C	1.314461	-0.186110	0.309107
C18	C	1.311140	-0.317256	0.308337
C19	C	1.530033	-0.336924	0.359825
C20	C	1.533351	-0.205779	0.360605
C21	C	1.206672	-0.110707	0.283741
C22	C	1.095562	-0.166440	0.257606
C23	C	1.092241	-0.297586	0.256835
C24	C	1.200031	-0.372999	0.282199
C25	C	1.642064	0.239607	0.386162
C26	C	1.775607	0.248338	0.417558
C27	C	1.415384	0.467757	0.332856
C28	C	1.418924	0.607333	0.333688
N29	N	1.367873	0.293441	0.675322
N30	N	1.476620	0.183508	-0.006382
C31	C	1.434311	0.226268	0.758726
C32	C	1.410173	0.250691	0.910216
H33	H	0.811327	0.267330	0.526633
H34	H	1.033167	0.209621	0.142285
H35	H	0.817515	0.214956	0.209160
H36	H	1.001768	-0.342958	0.235569
H37	H	1.209364	-0.003921	0.284363
O38	O	1.641388	-0.151846	0.385941
C39	C	1.735811	-0.246515	0.408180
H40	H	1.707972	-0.343799	0.358665
H41	H	1.823444	-0.225742	0.362882
H42	H	1.752371	-0.246556	0.520971
O43	O	0.990982	-0.093016	0.232942
C44	C	1.017727	0.034693	0.239256
H45	H	1.118848	0.037471	0.220065
H46	H	0.959226	0.080568	0.159592
H47	H	0.996734	0.089307	0.343214
O48	O	1.523376	0.136047	0.709920
C49	C	1.470763	0.042886	0.614891
H50	H	1.380390	0.085396	0.572422
H51	H	1.536122	0.009786	0.529698
H52	H	1.453235	-0.041856	0.665706
H53	H	1.026967	0.261991	0.459789
H54	H	1.335413	0.326283	0.950956
H55	H	1.197318	-0.479786	0.281569
H56	H	1.617790	-0.398335	0.380473
H57	H	1.551371	0.107907	0.952876
O58	O	1.278619	0.383471	0.724055
C59	C	1.191014	0.325668	0.786097
H60	H	1.234602	0.232796	0.817600
H61	H	1.157201	0.392786	0.878691
H62	H	1.110403	0.304682	0.712173
