data_functionalizedCrystal
_audit_creation_method	'MofGen! by Chris Wilmer'
_symmetry_space_group_name_H-M	'P1'
_symmetry_Int_Tables_number	1
_symmetry_cell_setting	triclinic
loop_
_symmetry_equiv_pos_as_xyz
  x,y,z
_cell_length_a	6.817900
_cell_length_b	19.551823
_cell_length_c	9.514088
_cell_angle_alpha	92.277325
_cell_angle_beta	118.843545
_cell_angle_gamma	101.663376
loop_
_atom_site_label
_atom_site_type_symbol
_atom_site_fract_x
_atom_site_fract_y
_atom_site_fract_z
V1	V	-4.208673	-0.097915	-0.501504
O2	O	-4.201670	0.003431	-0.491184
O3	O	-4.150342	-0.192924	-0.498817
O4	O	-4.243536	-0.096969	-0.719888
O5	O	-4.107831	-0.093189	-0.268583
V6	V	-4.682799	-0.085727	-0.473554
O7	O	-4.490545	-0.124651	-0.562813
O8	O	-4.851125	-0.058991	-0.412245
O9	O	-4.517924	0.009281	-0.476241
O10	O	-4.807199	-0.187073	-0.483873
O11	O	-4.901039	-0.090454	-0.706475
O12	O	-4.424730	-0.086674	-0.255170
C13	C	-3.990233	-0.216068	-0.491097
C14	C	-4.024381	-0.293742	-0.490356
C15	C	-4.225252	-0.333807	-0.498039
C16	C	-4.257350	-0.406791	-0.497359
C17	C	-4.088544	-0.439705	-0.488963
C18	C	-3.887651	-0.399632	-0.481288
C19	C	-3.855569	-0.326650	-0.481985
C20	C	-3.936486	-0.545941	-0.387121
C21	C	-3.968567	-0.618921	-0.386415
C22	C	-4.187490	-0.664806	-0.486822
C23	C	-4.374347	-0.637701	-0.587916
C24	C	-4.342266	-0.564719	-0.588613
C25	C	-4.123310	-0.518842	-0.488208
C26	C	-4.423178	-0.784009	-0.493771
C27	C	-4.455275	-0.856996	-0.493101
C28	C	-4.085560	-0.849834	-0.477013
C29	C	-4.053479	-0.776850	-0.477700
C30	C	-4.222291	-0.743942	-0.486072
C31	C	-4.109110	-0.093666	-0.773093
C32	C	-4.218832	-0.093521	-0.951628
C33	C	-4.341374	0.032421	-0.483956
C34	C	-4.286467	0.110095	-0.484708
C35	C	-4.222495	-0.089979	-0.201957
C36	C	-4.092011	-0.090121	-0.023420
H37	H	-4.420928	-0.439418	-0.503615
H38	H	-4.411364	-0.096322	-1.026757
H39	H	-4.362723	-0.307018	-0.504867
H40	H	-3.899499	-0.087328	-0.948302
H41	H	-4.552517	-0.675071	-0.669899
O42	O	-4.543768	-0.535482	-0.697666
H43	H	-4.701391	-0.579645	-0.767387
O44	O	-3.705588	-0.435133	-0.472240
H45	H	-3.560521	-0.395009	-0.467029
H46	H	-4.560634	-0.757214	-0.500585
O47	O	-4.671936	-0.900210	-0.501374
H48	H	-4.825713	-0.895644	-0.615378
O49	O	-3.903476	-0.885323	-0.467960
H50	H	-3.959523	-0.942803	-0.468760
H51	H	-3.889903	-0.744228	-0.471433
O52	O	-3.767040	-0.648156	-0.277396
H53	H	-3.609409	-0.603992	-0.207721
H54	H	-3.758201	-0.508587	-0.305363
O55	O	-3.638899	-0.283430	-0.473687
H56	H	-3.526898	-0.318575	-0.467729
