data_functionalizedCrystal
_audit_creation_method	'MofGen! by Chris Wilmer'
_symmetry_space_group_name_H-M	'P1'
_symmetry_Int_Tables_number	1
_symmetry_cell_setting	triclinic
loop_
_symmetry_equiv_pos_as_xyz
  x,y,z
_cell_length_a	16.974885
_cell_length_b	10.540539
_cell_length_c	16.053833
_cell_angle_alpha	92.858123
_cell_angle_beta	96.535644
_cell_angle_gamma	83.957898
loop_
_atom_site_label
_atom_site_type_symbol
_atom_site_fract_x
_atom_site_fract_y
_atom_site_fract_z
O1	O	1.050111	0.161837	0.001463
O2	O	1.383444	0.495171	0.334796
O3	O	1.716778	0.828504	0.668129
O4	O	0.819349	0.181384	-0.014116
O5	O	1.152682	0.514718	0.319217
O6	O	1.486016	0.848051	0.652550
O7	O	0.939995	-0.013157	-0.005970
O8	O	1.273328	0.320176	0.327363
O9	O	1.606661	0.653510	0.660696
O10	O	0.929465	0.356379	-0.006683
O11	O	1.262799	0.689712	0.326650
O12	O	1.596132	1.023045	0.659983
O13	O	0.946015	-0.003599	0.133294
O14	O	1.279348	0.329734	0.466627
O15	O	1.612682	0.663067	0.799961
O16	O	0.825369	0.190942	0.125148
O17	O	1.158702	0.524275	0.458482
O18	O	1.492036	0.857609	0.791815
O19	O	1.056131	0.171395	0.140727
O20	O	1.389464	0.504728	0.474060
O21	O	1.722798	0.838062	0.807394
Zn22	Zn	0.941706	0.182686	0.155049
Zn23	Zn	1.275039	0.516019	0.488382
Zn24	Zn	1.608373	0.849353	0.821716
Zn25	Zn	0.933774	0.170093	-0.028438
Zn26	Zn	1.267108	0.503427	0.304895
Zn27	Zn	1.600441	0.836760	0.638229
O28	O	0.935485	0.365936	0.132581
O29	O	1.268819	0.699270	0.465915
O30	O	1.602152	1.032603	0.799248
C31	C	0.792810	0.185244	0.053521
C32	C	1.126144	0.518577	0.386854
C33	C	1.459477	0.851910	0.720188
C34	C	0.704764	0.182488	0.047577
C35	C	1.038097	0.515822	0.380910
C36	C	1.371431	0.849155	0.714244
C37	C	0.208806	0.166375	0.005912
C38	C	0.542139	0.499708	0.339245
C39	C	0.875472	0.833041	0.672578
C40	C	0.291535	0.168964	0.011508
C41	C	0.624868	0.502298	0.344841
C42	C	0.958202	0.835631	0.678175
C43	C	0.336172	0.175479	0.090220
C44	C	0.669506	0.508812	0.423553
C45	C	1.002839	0.842145	0.756887
C46	C	0.298077	0.179390	0.163340
C47	C	0.631411	0.512724	0.496674
C48	C	0.964744	0.846057	0.830007
C49	C	0.215350	0.176792	0.157743
C50	C	0.548684	0.510125	0.491077
C51	C	0.882017	0.843458	0.824410
C52	C	0.583942	0.183801	0.115100
C53	C	0.917275	0.517135	0.448434
C54	C	1.250609	0.850468	0.781767
C55	C	0.666674	0.186404	0.120692
C56	C	1.000008	0.519737	0.454025
C57	C	1.333341	0.853070	0.787359
C58	C	0.660126	0.175975	-0.031141
C59	C	0.993460	0.509309	0.302192
C60	C	1.326793	0.842642	0.635525
C61	C	0.577397	0.173385	-0.036731
C62	C	0.910730	0.506718	0.296602
C63	C	1.244064	0.840051	0.629935
C64	C	0.539310	0.177290	0.036389
C65	C	0.872643	0.510623	0.369722
C66	C	1.205977	0.843957	0.703056
N67	N	0.420735	0.178130	0.095942
N68	N	0.754068	0.511463	0.429276
N69	N	1.087401	0.844796	0.762609
N70	N	0.454750	0.174630	0.030666
N71	N	0.788083	0.507963	0.363999
N72	N	1.121416	0.841296	0.697332
C73	C	0.942215	-0.055672	0.063607
C74	C	1.275548	0.277661	0.396940
C75	C	1.608882	0.610995	0.730274
C76	C	0.939853	-0.196593	0.063443
C77	C	1.273186	0.136740	0.396776
C78	C	1.606519	0.470074	0.730110
C79	C	0.849313	-0.378986	0.057019
C80	C	1.182647	-0.045652	0.390352
C81	C	1.515980	0.287681	0.723686
C82	C	0.851722	-0.232374	0.057494
C83	C	1.185055	0.100959	0.390828
C84	C	1.518388	0.434293	0.724161
C85	C	0.985703	-0.253287	0.145833
C86	C	1.319036	0.080046	0.479167
C87	C	1.652369	0.413379	0.812500
C88	C	0.982698	-0.399792	0.145697
C89	C	1.316031	-0.066459	0.479030
C90	C	1.649364	0.266875	0.812364
C91	C	0.977644	-0.411200	-0.012552
C92	C	1.310978	-0.077867	0.320782
C93	C	1.644311	0.255467	0.654115
C94	C	0.978411	-0.264300	-0.013548
C95	C	1.311744	0.069033	0.319785
C96	C	1.645077	0.402367	0.653118
C97	C	1.082670	0.167535	0.073088
C98	C	1.416003	0.500869	0.406421
C99	C	1.749337	0.834202	0.739754
C100	C	1.170716	0.170290	0.079026
C101	C	1.504049	0.503624	0.412360
C102	C	1.837383	0.836957	0.745693
C103	C	0.933265	0.408451	0.063002
C104	C	1.266598	0.741784	0.396335
C105	C	1.599932	1.075118	0.729669
C106	C	0.935627	0.549372	0.063160
C107	C	1.268961	0.882705	0.396494
C108	C	1.602294	1.216038	0.729827
N109	N	0.947125	0.191279	0.280274
N110	N	1.280458	0.524613	0.613608
N111	N	1.613792	0.857946	0.946941
N112	N	0.928362	0.161490	-0.153663
N113	N	1.261695	0.494823	0.179670
N114	N	1.595028	0.828157	0.513004
C115	C	0.974994	0.235651	0.805785
C116	C	1.308327	0.568985	1.139118
C117	C	1.641661	0.902318	1.472451
C118	C	0.971207	0.229631	0.718123
C119	C	1.304540	0.562964	1.051456
C120	C	1.637874	0.896298	1.384789
C121	C	0.920792	0.149441	0.671015
C122	C	1.254125	0.482775	1.004348
C123	C	1.587458	0.816108	1.337682
C124	C	0.874154	0.075277	0.711573
C125	C	1.207487	0.408610	1.044907
C126	C	1.540821	0.741944	1.378240
C127	C	0.877937	0.081305	0.799233
C128	C	1.211271	0.414638	1.132567
C129	C	1.544604	0.747972	1.465900
C130	C	0.904270	0.123143	0.408492
C131	C	1.237604	0.456476	0.741826
C132	C	1.570937	0.789810	1.075159
C133	C	0.900493	0.117118	0.320827
C134	C	1.233826	0.450451	0.654160
C135	C	1.567159	0.783784	0.987493
C136	C	0.997545	0.271474	0.327382
C137	C	1.330878	0.604807	0.660715
C138	C	1.664212	0.938141	0.994049
C139	C	1.001327	0.277489	0.415044
C140	C	1.334660	0.610823	0.748377
C141	C	1.667994	0.944156	1.081710
C142	C	0.954686	0.203330	0.455594
C143	C	1.288020	0.536664	0.788927
C144	C	1.621353	0.869997	1.122261
N145	N	0.916922	0.143282	0.581411
N146	N	1.250255	0.476616	0.914744
N147	N	1.583588	0.809949	1.248077
N148	N	0.958553	0.209497	0.545197
N149	N	1.291886	0.542830	0.878530
N150	N	1.625219	0.876163	1.211863
H151	H	0.541059	0.168079	-0.100827
H152	H	0.874392	0.501412	0.232506
H153	H	1.207725	0.834745	0.565840
H154	H	0.953923	-0.423546	0.203029
H155	H	1.287256	-0.090213	0.536362
H156	H	1.620590	0.243120	0.869696
H157	H	0.691146	0.172794	-0.090671
H158	H	1.024479	0.506128	0.242662
H159	H	1.357813	0.839461	0.575995
H160	H	0.552943	0.186963	0.174640
H161	H	0.886276	0.520296	0.507974
H162	H	1.219610	0.853629	0.841307
H163	H	1.009181	0.290019	0.685109
H164	H	1.342515	0.623353	1.018443
H165	H	1.675848	0.956686	1.351776
H166	H	0.820584	-0.186307	0.112328
H167	H	1.153917	0.147026	0.445662
H168	H	1.487251	0.480360	0.778995
H169	H	1.035516	0.331852	0.294356
H170	H	1.368849	0.665185	0.627690
H171	H	1.702182	0.998519	0.961023
H172	H	1.042382	0.342786	0.453393
H173	H	1.375715	0.676120	0.786727
H174	H	1.709049	1.009453	1.120060
H175	H	0.812034	-0.411094	-0.002361
H176	H	1.145368	-0.077760	0.330972
H177	H	1.478701	0.255573	0.664306
H178	H	0.866295	0.062753	0.441498
H179	H	1.199628	0.396086	0.774831
H180	H	1.532961	0.729420	1.108165
H181	H	0.833101	0.009990	0.673211
H182	H	1.166435	0.343324	1.006544
H183	H	1.499768	0.676657	1.339878
H184	H	0.859434	0.051819	0.282473
H185	H	1.192767	0.385152	0.615807
H186	H	1.526100	0.718485	0.949140
H187	H	0.703016	0.191717	0.184792
H188	H	1.036349	0.525051	0.518125
H189	H	1.369682	0.858384	0.851459
H190	H	1.042457	-0.241157	-0.014013
H191	H	1.375790	0.092176	0.319321
H192	H	1.709124	0.425509	0.652654
H193	H	0.839962	0.020918	0.832250
H194	H	1.173296	0.354251	1.165583
H195	H	1.506629	0.687584	1.498916
H196	H	0.322544	0.165768	-0.048030
H197	H	0.655877	0.499102	0.285303
H198	H	0.989211	0.832435	0.618637
H199	H	1.046236	-0.448252	0.153584
H200	H	1.379570	-0.114919	0.486917
H201	H	1.712903	0.218414	0.820251
H202	H	0.334429	0.184686	0.227430
H203	H	0.667762	0.518019	0.560763
H204	H	1.001095	0.851353	0.894096
H205	H	0.958799	-0.206283	0.203025
H206	H	1.292132	0.127051	0.536359
H207	H	1.625466	0.460384	0.869692
H208	H	0.184338	0.179993	0.217281
H209	H	0.517671	0.513326	0.550615
H210	H	0.851005	0.846660	0.883948
H211	H	0.815885	-0.193294	-0.001767
H212	H	1.149218	0.140040	0.331567
H213	H	1.482552	0.473373	0.664900
H214	H	0.172467	0.161079	-0.058184
H215	H	0.505800	0.494413	0.275149
H216	H	0.839133	0.827746	0.608482
H217	H	0.817093	-0.404897	0.111389
H218	H	1.150426	-0.071563	0.444722
H219	H	1.483759	0.261770	0.778056
H220	H	0.944835	-0.227117	-0.074475
H221	H	1.278168	0.106216	0.258858
H222	H	1.611501	0.439549	0.592192
H223	H	0.946515	-0.446557	-0.074754
H224	H	1.279849	-0.113224	0.258580
H225	H	1.613182	0.220109	0.591913
H226	H	1.050551	-0.231485	0.153159
H227	H	1.383885	0.101848	0.486493
H228	H	1.717218	0.435182	0.819826
H229	H	1.016051	0.300946	0.844134
H230	H	1.349384	0.634279	1.177467
H231	H	1.682717	0.967612	1.510801
H232	H	1.041278	-0.459205	-0.008789
H233	H	1.374611	-0.125872	0.324544
H234	H	1.707944	0.207462	0.657878
