data_functionalizedCrystal
_audit_creation_method	'MofGen! by Chris Wilmer'
_symmetry_space_group_name_H-M	'P1'
_symmetry_Int_Tables_number	1
_symmetry_cell_setting	triclinic
loop_
_symmetry_equiv_pos_as_xyz
  x,y,z
_cell_length_a	16.625547
_cell_length_b	16.625539
_cell_length_c	19.805404
_cell_angle_alpha	90.027676
_cell_angle_beta	89.969301
_cell_angle_gamma	89.975178
loop_
_atom_site_label
_atom_site_type_symbol
_atom_site_fract_x
_atom_site_fract_y
_atom_site_fract_z
Zn1	Zn	1.232634	-0.456004	0.269463
Zn2	Zn	1.232518	-0.321173	0.382656
Zn3	Zn	1.097796	-0.321175	0.269487
Zn4	Zn	1.097747	-0.455953	0.382615
O5	O	1.165174	-0.388576	0.326055
O6	O	1.345451	-0.438139	0.284486
O7	O	1.214618	-0.208341	0.367671
O8	O	1.115752	-0.339083	0.174767
O9	O	1.345366	-0.339079	0.367648
O10	O	1.214817	-0.438141	0.174750
O11	O	1.115639	-0.208342	0.284526
O12	O	0.984957	-0.339033	0.284486
O13	O	1.115668	-0.568792	0.367578
O14	O	0.984921	-0.438054	0.367601
O15	O	1.214769	-0.568830	0.284446
O16	O	1.214571	-0.339030	0.477368
O17	O	1.115555	-0.438052	0.477337
C18	C	0.955683	-0.388538	0.326042
C19	C	0.866062	-0.388541	0.326053
C20	C	1.165226	-0.598885	0.326005
C21	C	1.165248	-0.688506	0.325983
C22	C	0.793279	-0.388551	0.326054
C23	C	0.701971	-0.388571	0.326058
C24	C	0.629194	-0.388592	0.326064
C25	C	0.537880	-0.388611	0.326069
C26	C	1.165286	-1.016682	0.325908
C27	C	1.165273	-0.925374	0.325931
C28	C	1.165267	-0.852597	0.325946
C29	C	1.165254	-0.761283	0.325968
C30	C	1.375482	-0.388615	0.326069
C31	C	1.465104	-0.388632	0.326075
C32	C	1.165067	-0.388552	0.501911
C33	C	1.165095	-0.388569	0.577143
C34	C	1.165168	-0.179085	0.326057
C35	C	1.165302	-0.089465	0.325888
C36	C	1.216912	-0.337157	1.038928
C37	C	1.216876	-0.337139	0.968239
C38	C	1.165265	-0.388644	0.932905
C39	C	1.113680	-0.440165	0.968263
C40	C	1.113713	-0.440179	1.038950
C41	C	1.113547	-0.440109	0.683190
C42	C	1.113520	-0.440093	0.612498
C43	C	1.216710	-0.337069	0.612479
C44	C	1.216742	-0.337083	0.683166
C45	C	1.165156	-0.388601	0.718518
C46	C	1.165194	-0.388619	0.795166
C47	C	1.165229	-0.388630	0.856258
C48	C	1.165297	-0.388628	1.149513
C49	C	1.165333	-0.388676	1.074281
H50	H	1.258944	-0.295220	1.067691
H51	H	1.071489	-0.482036	0.583730
O52	O	1.266904	-0.287120	0.933793
C53	C	1.312620	-0.241464	0.824887
C54	C	1.255909	-0.298142	0.863812
H55	H	1.303763	-0.250368	0.768300
H56	H	1.298506	-0.176419	0.838785
H57	H	1.377626	-0.255686	0.838765
H58	H	1.190885	-0.283993	0.849954
H59	H	1.270093	-0.363170	0.849911
H60	H	1.258772	-0.295145	0.711931
H61	H	1.071653	-0.482098	0.939490
H62	H	1.071536	-0.482052	0.711965
H63	H	1.258712	-0.295118	0.583688
H64	H	1.071717	-0.482135	1.067734
