data_functionalizedCrystal
_audit_creation_method	'MofGen! by Chris Wilmer'
_symmetry_space_group_name_H-M	'P1'
_symmetry_Int_Tables_number	1
_symmetry_cell_setting	triclinic
loop_
_symmetry_equiv_pos_as_xyz
  x,y,z
_cell_length_a	21.395362
_cell_length_b	16.959454
_cell_length_c	21.395356
_cell_angle_alpha	89.979902
_cell_angle_beta	89.964230
_cell_angle_gamma	90.035955
loop_
_atom_site_label
_atom_site_type_symbol
_atom_site_fract_x
_atom_site_fract_y
_atom_site_fract_z
Zn1	Zn	0.957855	-0.314383	-0.354610
Zn2	Zn	0.957792	-0.446560	-0.249842
Zn3	Zn	0.853085	-0.314436	-0.249811
Zn4	Zn	0.853059	-0.446560	-0.354547
O5	O	0.905448	-0.380485	-0.302202
O6	O	1.045525	-0.331894	-0.340751
O7	O	0.943887	-0.429056	-0.162160
O8	O	0.867021	-0.203818	-0.263726
O9	O	1.045478	-0.429004	-0.263779
O10	O	0.943995	-0.203779	-0.340721
O11	O	0.866959	-0.331985	-0.162137
O12	O	0.765404	-0.331985	-0.263665
O13	O	0.866976	-0.429004	-0.442233
O14	O	0.765384	-0.429055	-0.340614
O15	O	0.943969	-0.331894	-0.442279
O16	O	0.943862	-0.557171	-0.263718
O17	O	0.866914	-0.557171	-0.340645
C18	C	0.742660	-0.380526	-0.302130
C19	C	0.673019	-0.380563	-0.302114
C20	C	0.640312	-0.431175	-0.342121
C21	C	0.574877	-0.431156	-0.342149
C22	C	0.542151	-0.380533	-0.302158
C23	C	0.574865	-0.329911	-0.262148
C24	C	0.640299	-0.329926	-0.262126
C25	C	0.438433	-0.374174	-0.245752
C26	C	0.373000	-0.374164	-0.245774
C27	C	0.340330	-0.380481	-0.302227
C28	C	0.373101	-0.386824	-0.358661
C29	C	0.438535	-0.386840	-0.358639
C30	C	0.471198	-0.380510	-0.302178
C31	C	0.236671	-0.431075	-0.342268
C32	C	0.171234	-0.431050	-0.342297
C33	C	0.171224	-0.329809	-0.262291
C34	C	0.236659	-0.329830	-0.262267
C35	C	0.269379	-0.380467	-0.302255
C36	C	0.905395	-0.585851	-0.302192
C37	C	0.905430	-0.673707	-0.302208
C38	C	0.865440	-1.045213	-0.342254
C39	C	0.945631	-1.045153	-0.262215
C40	C	0.945609	-0.962607	-0.262209
C41	C	0.905501	-0.921360	-0.302226
C42	C	0.865415	-0.962659	-0.342248
C43	C	0.985689	-0.921302	-0.222184
C44	C	0.985668	-0.838751	-0.222176
C45	C	0.945563	-0.797503	-0.262196
C46	C	0.905477	-0.838807	-0.302220
C47	C	0.865369	-0.797560	-0.342236
C48	C	0.825285	-0.838863	-0.382264
C49	C	0.825310	-0.921411	-0.382268
C50	C	0.945538	-0.714954	-0.262192
C51	C	0.865344	-0.715006	-0.342230
C52	C	1.068871	-0.380443	-0.302276
C53	C	1.138512	-0.380425	-0.302307
C54	C	0.905477	-0.380443	-0.465626
C55	C	0.905489	-0.380425	-0.535267
C56	C	0.905518	-0.174316	-0.302227
C57	C	0.905547	-0.086460	-0.302237
C58	C	0.945615	-0.430804	-1.037076
C59	C	0.945604	-0.430829	-0.971641
C60	C	0.905548	-0.380300	-0.938906
C61	C	0.865490	-0.329756	-0.971611
C62	C	0.865498	-0.329738	-1.037046
C63	C	0.900612	-0.309116	-0.835243
C64	C	0.900609	-0.309132	-0.769810
C65	C	0.905520	-0.380356	-0.737085
C66	C	0.910448	-0.451565	-0.769800
C67	C	0.910456	-0.451547	-0.835234
C68	C	0.905535	-0.380314	-0.867953
C69	C	0.945561	-0.430928	-0.633434
C70	C	0.945546	-0.430954	-0.567997
C71	C	0.865434	-0.329874	-0.567970
C72	C	0.865447	-0.329854	-0.633405
C73	C	0.905514	-0.380380	-0.666133
C74	C	0.905455	-0.380469	-0.139415
C75	C	0.905564	-0.380264	-0.069774
H76	H	0.666929	-0.288710	-0.229547
Br77	Br	0.328772	-0.395396	-0.435283
Br78	Br	0.894293	-0.212408	-0.879650
Br79	Br	0.281050	-0.261139	-0.207968
Br80	Br	0.999985	-0.499383	-1.081490
Br81	Br	0.530453	-0.261202	-0.207879
Br82	Br	0.999901	-0.499557	-0.523620
Br83	Br	0.999924	-0.658904	-0.207865
Br84	Br	0.999961	-0.499427	-0.927255
Br85	Br	0.810915	-0.659035	-0.396546
Br86	Br	0.126817	-0.261098	-0.208022
Br87	Br	0.770850	-0.782875	-0.436565
Br88	Br	0.893929	-0.212492	-0.725417
Br89	Br	0.328532	-0.365557	-0.169186
Br90	Br	0.482764	-0.365601	-0.169130
H91	H	0.978184	-0.472071	-0.660083
H92	H	0.792675	-0.955047	-0.414855
H93	H	0.832819	-0.288733	-0.541318
H94	H	0.832806	-1.078845	-0.374845
Br95	Br	1.000059	-1.101131	-0.207909
Br96	Br	0.684714	-0.499894	-0.396391
H97	H	0.914467	-0.509528	-0.861869
H98	H	0.914449	-0.509562	-0.743157
Br99	Br	1.040121	-0.977282	-0.167882
H100	H	1.018307	-0.805127	-0.189584
Br101	Br	0.811077	-0.261274	-0.677784
Br102	Br	0.811128	-0.261179	-0.927187
Br103	Br	0.811133	-0.261149	-1.081425
H104	H	0.263312	-0.472302	-0.374832
H105	H	0.465214	-0.392002	-0.404590
Br106	Br	0.530479	-0.499846	-0.396450
H107	H	0.144605	-0.472262	-0.374880
