data_functionalizedCrystal
_audit_creation_method	'MofGen! by Chris Wilmer'
_symmetry_space_group_name_H-M	'P1'
_symmetry_Int_Tables_number	1
_symmetry_cell_setting	triclinic
loop_
_symmetry_equiv_pos_as_xyz
  x,y,z
_cell_length_a	14.044220
_cell_length_b	15.995350
_cell_length_c	13.101039
_cell_angle_alpha	93.364563
_cell_angle_beta	86.340132
_cell_angle_gamma	88.340626
loop_
_atom_site_label
_atom_site_type_symbol
_atom_site_fract_x
_atom_site_fract_y
_atom_site_fract_z
O1	O	1.262914	0.197637	-0.085096
O2	O	1.762914	0.697637	0.414904
O3	O	0.986946	0.190352	-0.085122
O4	O	1.486946	0.690352	0.414878
O5	O	1.132474	0.072670	-0.085107
O6	O	1.632474	0.572670	0.414893
O7	O	1.117386	0.315319	-0.085111
O8	O	1.617386	0.815319	0.414889
O9	O	1.122032	0.081129	0.085321
O10	O	1.622032	0.581129	0.585321
O11	O	0.976505	0.198810	0.085307
O12	O	1.476505	0.698810	0.585307
O13	O	1.252472	0.206096	0.085333
O14	O	1.752472	0.706096	0.585333
Zn15	Zn	1.112831	0.203796	0.112379
Zn16	Zn	1.612831	0.703796	0.612379
Zn17	Zn	1.126588	0.192651	-0.112168
Zn18	Zn	1.626588	0.692651	0.387832
O19	O	1.106945	0.323777	0.085318
O20	O	1.606945	0.823777	0.585318
C21	C	0.946411	0.191392	0.000089
C22	C	1.446411	0.691392	0.500089
C23	C	0.841186	0.181881	0.000079
C24	C	1.341186	0.681881	0.500079
C25	C	1.126629	0.045658	0.000105
C26	C	1.626629	0.545658	0.500105
C27	C	1.124760	-0.047432	0.000099
C28	C	1.624760	0.452568	0.500099
C29	C	0.648524	0.164494	0.000099
C30	C	1.148524	0.664494	0.500099
C31	C	0.590890	0.231950	0.000102
C32	C	1.090890	0.731950	0.500102
C33	C	0.483686	0.222275	0.000114
C34	C	0.983686	0.722275	0.500114
C35	C	0.755738	0.174167	0.000088
C36	C	1.255738	0.674167	0.500088
C37	C	1.118044	-0.385681	0.000102
C38	C	1.618044	0.114319	0.500102
C39	C	1.014425	-0.346007	-0.000290
C40	C	1.514425	0.153993	0.499710
C41	C	1.016272	-0.249158	0.000094
C42	C	1.516272	0.250842	0.500094
C43	C	1.121375	-0.217872	0.000100
C44	C	1.621375	0.282128	0.500100
C45	C	1.166533	-0.250301	0.097426
C46	C	1.666533	0.249699	0.597426
C47	C	1.163924	-0.347127	0.097507
C48	C	1.663924	0.152873	0.597507
C49	C	1.177939	-0.356944	-0.096302
C50	C	1.677939	0.143056	0.403698
C51	C	1.177993	-0.260065	-0.097588
C52	C	1.677993	0.239935	0.402412
C53	C	1.123263	-0.123033	0.000102
C54	C	1.623263	0.376967	0.500102
C55	C	1.116159	-0.480519	0.000106
C56	C	1.616159	0.019481	0.500106
C57	C	1.293008	0.205055	0.000120
C58	C	1.793008	0.705055	0.500120
C59	C	1.398233	0.214566	0.000123
C60	C	1.898233	0.714566	0.500123
C61	C	1.112789	0.350789	0.000103
C62	C	1.612789	0.850789	0.500103
C63	C	1.114659	0.443879	0.000103
C64	C	1.614659	0.943879	0.500103
N65	N	1.103449	0.211402	0.265626
N66	N	1.603449	0.711402	0.765626
N67	N	1.135977	0.185039	-0.265416
N68	N	1.635977	0.685039	0.234584
C69	C	1.090685	0.221758	0.474668
C70	C	1.590685	0.721758	0.974668
C71	C	1.148739	0.174686	0.525549
C72	C	1.648739	0.674686	1.025549
C73	C	1.141636	0.180448	0.641867
C74	C	1.641636	0.680448	1.141867
C75	C	1.097786	0.215997	0.358340
C76	C	1.597786	0.715997	0.858340
H77	H	0.622062	0.296967	0.000097
H78	H	1.122062	0.796967	0.500097
H79	H	1.035653	0.266383	0.518459
H80	H	1.535653	0.766383	1.018459
H81	H	1.243527	-0.230228	0.101050
H82	H	1.743527	0.269772	0.601050
H83	H	0.617354	0.099482	0.000106
H84	H	1.117354	0.599482	0.500106
H85	H	0.980363	-0.227200	-0.069674
H86	H	1.480363	0.272800	0.430326
H87	H	1.203775	0.130059	0.481753
H88	H	1.703775	0.630059	0.981753
H89	H	0.968933	-0.365237	0.069108
H90	H	1.468933	0.134763	0.569108
O91	O	0.970220	-0.376054	-0.083579
O92	O	1.470220	0.123946	0.416421
C93	C	1.032356	-0.433380	-0.142797
C94	C	1.532356	0.066620	0.357203
H95	H	1.087861	-0.459607	-0.092364
H96	H	1.587861	0.040393	0.407636
H97	H	0.989651	-0.486828	-0.176039
H98	H	1.489651	0.013172	0.323961
H99	H	1.069798	-0.400061	-0.207871
H100	H	1.569798	0.099939	0.292129
H101	H	0.971537	-0.220847	0.069973
H102	H	1.471537	0.279153	0.569973
O103	O	1.114036	-0.368081	0.184185
O104	O	1.614036	0.131919	0.684185
C105	C	1.034428	-0.414414	0.157604
C106	C	1.534428	0.085586	0.657604
H107	H	1.048306	-0.444647	0.076840
H108	H	1.548306	0.055353	0.576840
H109	H	1.022086	-0.465252	0.214005
H110	H	1.522086	0.034748	0.714005
H111	H	0.968520	-0.370812	0.160475
H112	H	1.468520	0.129188	0.660475
O113	O	1.254429	-0.378474	0.102662
O114	O	1.754429	0.121526	0.602662
C115	C	1.311613	-0.355292	0.017177
C116	C	1.811613	0.144708	0.517177
H117	H	1.278576	-0.297053	-0.014449
H118	H	1.778576	0.202947	0.485551
H119	H	1.386318	-0.341271	0.041407
H120	H	1.886318	0.158729	0.541407
H121	H	1.316188	-0.408804	-0.044550
H122	H	1.816188	0.091196	0.455450
O123	O	1.118747	-0.215418	0.183801
O124	O	1.618747	0.284582	0.683801
C125	C	1.022213	-0.237427	0.184907
C126	C	1.522213	0.262573	0.684907
H127	H	1.015617	-0.297261	0.134491
H128	H	1.515617	0.202739	0.634491
H129	H	0.994917	-0.248213	0.266755
H130	H	1.494917	0.251787	0.766755
H131	H	0.978045	-0.184604	0.154371
H132	H	1.478045	0.315396	0.654371
O133	O	1.143055	-0.388791	-0.184407
O134	O	1.643055	0.111209	0.315593
C135	C	1.198265	-0.361841	-0.269243
C136	C	1.698265	0.138159	0.230757
H137	H	1.272008	-0.344687	-0.244733
H138	H	1.772008	0.155313	0.255267
H139	H	1.205809	-0.414403	-0.332148
H140	H	1.705809	0.085597	0.167852
H141	H	1.161624	-0.304643	-0.299451
H142	H	1.661624	0.195357	0.200549
O143	O	1.138641	-0.234976	-0.183387
O144	O	1.638641	0.265024	0.316613
C145	C	1.060222	-0.179551	-0.155265
C146	C	1.560222	0.320449	0.344735
H147	H	1.068281	-0.149785	-0.075195
H148	H	1.568281	0.350215	0.424805
H149	H	1.057599	-0.128462	-0.212236
H150	H	1.557599	0.371538	0.287764
H151	H	0.991377	-0.215589	-0.155625
H152	H	1.491377	0.284411	0.344375
O153	O	1.269845	-0.235205	-0.104420
O154	O	1.769845	0.264795	0.395580
C155	C	1.284984	-0.178813	-0.020653
C156	C	1.784984	0.321187	0.479347
H157	H	1.230187	-0.189020	0.045074
H158	H	1.730187	0.310980	0.545074
H159	H	1.359922	-0.190049	0.005498
H160	H	1.859922	0.309951	0.505498
H161	H	1.277086	-0.111770	-0.044792
H162	H	1.777086	0.388230	0.455208
O163	O	1.269094	-0.388206	-0.097140
O164	O	1.769094	0.111794	0.402860
C165	C	1.268605	-0.476464	-0.100826
C166	C	1.768605	0.023536	0.399174
H167	H	1.200162	-0.498730	-0.134388
H168	H	1.700162	0.001270	0.365612
H169	H	1.332883	-0.503269	-0.151002
H170	H	1.832883	-0.003269	0.348998
H171	H	1.272378	-0.498761	-0.020069
H172	H	1.772378	0.001239	0.479931
