data_functionalizedCrystal
_audit_creation_method	'MofGen! by Chris Wilmer'
_symmetry_space_group_name_H-M	'P1'
_symmetry_Int_Tables_number	1
_symmetry_cell_setting	triclinic
loop_
_symmetry_equiv_pos_as_xyz
  x,y,z
_cell_length_a	17.019311
_cell_length_b	16.098538
_cell_length_c	14.971486
_cell_angle_alpha	92.731634
_cell_angle_beta	96.494255
_cell_angle_gamma	96.609511
loop_
_atom_site_label
_atom_site_type_symbol
_atom_site_fract_x
_atom_site_fract_y
_atom_site_fract_z
O1	O	1.054165	0.144847	-0.105619
O2	O	1.387499	0.478180	0.227714
O3	O	1.720832	0.811514	0.561048
O4	O	0.823672	0.128317	-0.121098
O5	O	1.157005	0.461651	0.212236
O6	O	1.490339	0.794984	0.545569
O7	O	0.945097	0.137031	0.016883
O8	O	1.278430	0.470365	0.350216
O9	O	1.611764	0.803698	0.683549
O10	O	0.932741	0.136133	-0.243600
O11	O	1.266074	0.469466	0.089734
O12	O	1.599407	0.802800	0.423067
O13	O	0.938004	-0.001990	0.008854
O14	O	1.271337	0.331343	0.342187
O15	O	1.604670	0.664676	0.675521
O16	O	0.816579	-0.010705	-0.129126
O17	O	1.149912	0.322629	0.204207
O18	O	1.483246	0.655962	0.537540
O19	O	1.047072	0.005825	-0.113648
O20	O	1.380406	0.339158	0.219685
O21	O	1.713739	0.672492	0.553019
Zn22	Zn	0.930699	-0.024512	-0.122662
Zn23	Zn	1.264033	0.308821	0.210671
Zn24	Zn	1.597366	0.642154	0.544005
Zn25	Zn	0.940045	0.158655	-0.112084
Zn26	Zn	1.273378	0.491988	0.221250
Zn27	Zn	1.606712	0.825322	0.554583
O28	O	0.925648	-0.002889	-0.251628
O29	O	1.258981	0.330444	0.081705
O30	O	1.592314	0.663778	0.415038
C31	C	0.790628	0.056691	-0.124682
C32	C	1.123962	0.390025	0.208651
C33	C	1.457295	0.723358	0.541984
C34	C	0.702735	0.050389	-0.123391
C35	C	1.036069	0.383722	0.209942
C36	C	1.369402	0.717055	0.543276
N37	N	0.924327	-0.149519	-0.129881
N38	N	1.257661	0.183814	0.203453
N39	N	1.590994	0.517148	0.536786
C40	C	0.205434	0.010942	-0.116337
C41	C	0.538767	0.344275	0.216996
C42	C	0.872100	0.677608	0.550329
C43	C	0.288018	0.016865	-0.117550
C44	C	0.621352	0.350199	0.215783
C45	C	0.954685	0.683532	0.549116
C46	C	0.333178	0.095610	-0.113774
C47	C	0.666511	0.428943	0.219560
C48	C	0.999845	0.762276	0.552893
C49	C	0.295748	0.168435	-0.108793
C50	C	0.629082	0.501768	0.224541
C51	C	0.962415	0.835101	0.557874
C52	C	0.213164	0.162510	-0.107586
C53	C	0.546497	0.495843	0.225747
C54	C	0.879831	0.829177	0.559081
C55	C	0.582721	0.117289	-0.117204
C56	C	0.916055	0.450622	0.216130
C57	C	1.249388	0.783956	0.549463
C58	C	0.665311	0.123208	-0.118408
C59	C	0.998645	0.456541	0.214926
C60	C	1.331978	0.789875	0.548259
C61	C	0.657575	-0.028362	-0.127167
C62	C	0.990909	0.304972	0.206166
C63	C	1.324242	0.638305	0.539499
C64	C	0.574991	-0.034279	-0.125955
C65	C	0.908324	0.299054	0.207379
C66	C	1.241657	0.632387	0.540712
C67	C	0.537567	0.038546	-0.120979
C68	C	0.870901	0.371879	0.212355
C69	C	1.204234	0.705212	0.545688
C70	C	0.417593	0.101666	-0.115011
C71	C	0.750927	0.435000	0.218323
C72	C	1.084260	0.768333	0.551656
C73	C	0.453153	0.032488	-0.119748
C74	C	0.786486	0.365821	0.213585
C75	C	1.119820	0.699155	0.546919
C76	C	0.975884	-0.189404	-0.071337
C77	C	1.309217	0.143929	0.261997
C78	C	1.642550	0.477263	0.595330
C79	C	0.971433	-0.276912	-0.076395
C80	C	1.304767	0.056421	0.256938
C81	C	1.638100	0.389754	0.590272
C82	C	0.915430	-0.324534	-0.140002
C83	C	1.248763	0.008800	0.193331
C84	C	1.582097	0.342133	0.526665
C85	C	0.863868	-0.284643	-0.198549
C86	C	1.197201	0.048690	0.134785
C87	C	1.530535	0.382024	0.468118
C88	C	0.868315	-0.197136	-0.193485
C89	C	1.201648	0.136197	0.139848
C90	C	1.534982	0.469530	0.473181
C91	C	0.899309	-0.588941	-0.158341
C92	C	1.232642	-0.255607	0.174992
C93	C	1.565975	0.077726	0.508326
C94	C	0.894867	-0.676453	-0.163402
C95	C	1.228200	-0.343120	0.169932
C96	C	1.561534	-0.009786	0.503265
C97	C	1.002432	-0.668716	-0.041246
C98	C	1.335765	-0.335383	0.292087
C99	C	1.669099	-0.002050	0.625420
C100	C	1.006877	-0.581208	-0.036193
C101	C	1.340211	-0.247875	0.297141
C102	C	1.673544	0.085458	0.630474
C103	C	0.955313	-0.541325	-0.094736
C104	C	1.288646	-0.207992	0.238598
C105	C	1.621979	0.125341	0.571931
C106	C	0.910881	-0.413981	-0.145176
C107	C	1.244215	-0.080648	0.188158
C108	C	1.577548	0.252685	0.521491
C109	C	0.959858	-0.451880	-0.089557
C110	C	1.293191	-0.118546	0.243776
C111	C	1.626525	0.214787	0.577109
C112	C	1.080116	0.077453	-0.110063
C113	C	1.413450	0.410787	0.223270
C114	C	1.746783	0.744120	0.556604
C115	C	1.168009	0.083761	-0.111354
C116	C	1.501343	0.417095	0.221979
C117	C	1.834676	0.750428	0.555313
N118	N	0.946423	0.283662	-0.104858
N119	N	1.279757	0.616995	0.228475
N120	N	1.613090	0.950329	0.561809
C121	C	0.929747	0.066660	-0.280935
C122	C	1.263080	0.399993	0.052398
C123	C	1.596413	0.733327	0.385732
C124	C	0.931402	0.066774	-0.380222
C125	C	1.264736	0.400108	-0.046888
C126	C	1.598069	0.733441	0.286445
C127	C	0.860069	0.061660	-0.437917
C128	C	1.193402	0.394993	-0.104584
C129	C	1.526735	0.728326	0.228750
C130	C	0.861630	0.061783	-0.531206
C131	C	1.194963	0.395116	-0.197872
C132	C	1.528297	0.728449	0.135461
C133	C	0.934525	0.067015	-0.566797
C134	C	1.267858	0.400348	-0.233464
C135	C	1.601192	0.733681	0.099870
C136	C	1.005864	0.072133	-0.509094
C137	C	1.339198	0.405466	-0.175761
C138	C	1.672531	0.738799	0.157573
C139	C	1.004303	0.072015	-0.415807
C140	C	1.337636	0.405349	-0.082474
C141	C	1.670969	0.738682	0.250860
C142	C	1.009114	0.072375	-0.703534
C143	C	1.342447	0.405708	-0.370201
C144	C	1.675781	0.739041	-0.036868
C145	C	1.010676	0.072490	-0.796828
C146	C	1.344009	0.405824	-0.463495
C147	C	1.677343	0.739157	-0.130161
C148	C	0.866441	0.062142	-0.818933
C149	C	1.199775	0.395475	-0.485600
C150	C	1.533108	0.728809	-0.152267
C151	C	0.864880	0.062025	-0.725646
C152	C	1.198213	0.395358	-0.392313
C153	C	1.531546	0.728691	-0.058980
C154	C	0.936219	0.067141	-0.667950
C155	C	1.269553	0.400474	-0.334616
C156	C	1.602886	0.733808	-0.001283
C157	C	0.940998	0.067484	0.046190
C158	C	1.274331	0.400818	0.379523
C159	C	1.607665	0.734151	0.712856
C160	C	0.939343	0.067376	0.145476
C161	C	1.272676	0.400709	0.478810
C162	C	1.606009	0.734042	0.812143
H163	H	0.168670	-0.053180	-0.119417
H164	H	0.502003	0.280153	0.213917
H165	H	0.835336	0.613486	0.547250
H166	H	0.857324	-0.556475	-0.206011
H167	H	1.190657	-0.223142	0.127322
H168	H	1.523991	0.110192	0.460655
C169	C	0.849253	-0.466366	-0.215112
C170	C	1.182587	-0.133033	0.118221
C171	C	1.515920	0.200301	0.451554
H172	H	0.819171	-0.430083	-0.249246
H173	H	1.152504	-0.096750	0.084087
H174	H	1.485838	0.236584	0.417420
H175	H	0.876002	-0.498471	-0.254196
H176	H	1.209336	-0.165138	0.079137
H177	H	1.542669	0.168196	0.412471
H178	H	0.814545	-0.502856	-0.185023
H179	H	1.147878	-0.169523	0.148310
H180	H	1.481211	0.163811	0.481644
H181	H	0.332523	0.232550	-0.105723
H182	H	0.665857	0.565883	0.227610
H183	H	0.999190	0.899216	0.560944
C184	C	1.037493	-0.137024	-0.001377
C185	C	1.370826	0.196310	0.331957
C186	C	1.704159	0.529643	0.665290
H187	H	1.032765	-0.079194	-0.006751
H188	H	1.366099	0.254139	0.326582
H189	H	1.699432	0.587472	0.659916
H190	H	1.028118	-0.151988	0.057452
H191	H	1.361452	0.181345	0.390785
H192	H	1.694785	0.514679	0.724119
H193	H	1.089610	-0.147566	-0.011683
H194	H	1.422943	0.185767	0.321650
H195	H	1.756277	0.519100	0.654984
C196	C	0.811606	-0.153263	-0.257887
C197	C	1.144940	0.180071	0.075446
C198	C	1.478273	0.513404	0.408780
H199	H	0.777620	-0.194155	-0.296500
H200	H	1.110954	0.139178	0.036833
H201	H	1.444287	0.472511	0.370166
H202	H	0.780356	-0.121501	-0.223893
H203	H	1.113690	0.211832	0.109441
H204	H	1.447023	0.545166	0.442774
H205	H	0.841859	-0.117073	-0.293014
H206	H	1.175193	0.216260	0.040319
H207	H	1.508526	0.549593	0.373652
C208	C	0.541569	0.197394	-0.111701
C209	C	0.874902	0.530727	0.221632
C210	C	1.208236	0.864060	0.554966
H211	H	0.580296	0.245137	-0.109608
H212	H	0.913630	0.578470	0.223725
H213	H	1.246963	0.911804	0.557058
H214	H	0.503525	0.197821	-0.163201
H215	H	0.836858	0.531154	0.170133
H216	H	1.170191	0.864487	0.503466
H217	H	0.515506	0.198651	-0.058877
H218	H	0.848840	0.531984	0.274456
H219	H	1.182173	0.865318	0.607789
C220	C	0.714985	0.209830	-0.114263
C221	C	1.048318	0.543164	0.219070
C222	C	1.381652	0.876497	0.552403
H223	H	0.680869	0.252354	-0.111137
H224	H	1.014202	0.585688	0.222197
H225	H	1.347535	0.919021	0.555530
H226	H	0.753347	0.215725	-0.062393
H227	H	1.086680	0.549059	0.270940
H228	H	1.420013	0.882392	0.604274
H229	H	0.741375	0.214852	-0.166719
H230	H	1.074708	0.548186	0.166614
H231	H	1.408042	0.881519	0.499948
H232	H	0.800708	0.057389	-0.408947
H233	H	1.134042	0.390723	-0.075614
H234	H	1.467375	0.724056	0.257719
H235	H	1.005453	-0.413104	-0.037765
H236	H	1.338787	-0.079771	0.295568
H237	H	1.672120	0.253563	0.628902
C238	C	0.802240	-0.337022	-0.268490
C239	C	1.135574	-0.003689	0.064843
C240	C	1.468907	0.329645	0.398177
H241	H	0.772160	-0.300733	-0.302618
H242	H	1.105494	0.032600	0.030715
H243	H	1.438827	0.365933	0.364049
H244	H	0.828993	-0.369119	-0.307577
H245	H	1.162326	-0.035786	0.025756
H246	H	1.495660	0.297547	0.359090
H247	H	0.767529	-0.373519	-0.238411
H248	H	1.100862	-0.040186	0.094922
H249	H	1.434195	0.293147	0.428255
C250	C	0.783162	0.056147	-0.594668
C251	C	1.116496	0.389480	-0.261334
C252	C	1.449829	0.722814	0.071999
H253	H	0.739525	0.053002	-0.560111
H254	H	1.072858	0.386335	-0.226777
H255	H	1.406192	0.719668	0.106556
H256	H	0.783238	0.104456	-0.628716
H257	H	1.116572	0.437789	-0.295382
H258	H	1.449905	0.771123	0.037951
H259	H	0.778307	0.007491	-0.634321
H260	H	1.111640	0.340824	-0.300988
H261	H	1.444973	0.674158	0.032345
C262	C	1.028153	-0.320782	-0.012005
C263	C	1.361486	0.012551	0.321328
C264	C	1.694820	0.345885	0.654662
H265	H	1.062152	-0.279887	0.026592
H266	H	1.395485	0.053446	0.359926
H267	H	1.728818	0.386780	0.693259
H268	H	0.997914	-0.356974	0.023126
H269	H	1.331247	-0.023640	0.356459
H270	H	1.664581	0.309693	0.689792
H271	H	1.059402	-0.352540	-0.046013
H272	H	1.392735	-0.019207	0.287320
H273	H	1.726068	0.314127	0.620653
H274	H	0.805522	0.057760	-0.696671
H275	H	1.138855	0.391094	-0.363338
H276	H	1.472189	0.724427	-0.030005
H277	H	1.052480	-0.542436	0.015601
H278	H	1.385813	-0.209103	0.348935
H279	H	1.719146	0.124230	0.682268
H280	H	0.808354	0.057973	-0.865915
H281	H	1.141687	0.391306	-0.532582
H282	H	1.475021	0.724640	-0.199248
C283	C	0.171994	0.242609	-0.102104
C284	C	0.505327	0.575942	0.231229
C285	C	0.838660	0.909276	0.564563
H286	H	0.116341	0.227803	-0.101936
H287	H	0.449675	0.561137	0.231397
H288	H	0.783008	0.894470	0.564731
H289	H	0.193098	0.275150	-0.048344
H290	H	0.526432	0.608484	0.284989
H291	H	0.859765	0.941817	0.618323
H292	H	0.181132	0.274284	-0.152670
H293	H	0.514466	0.607618	0.180664
H294	H	0.847799	0.940951	0.513997
H295	H	0.849260	-0.715223	-0.215202
H296	H	1.182593	-0.381890	0.118131
H297	H	1.515927	-0.048556	0.451465
H298	H	0.416380	-0.031625	-0.122828
H299	H	0.749713	0.301708	0.210505
H300	H	1.083046	0.635042	0.543839
H301	H	1.070034	0.076752	-0.825803
H302	H	1.403367	0.410086	-0.492470
H303	H	1.736700	0.743419	-0.159136
C304	C	1.059140	-0.712590	0.023153
C305	C	1.392474	-0.379257	0.356486
C306	C	1.725807	-0.045923	0.689820
H307	H	1.048469	-0.771526	0.011036
H308	H	1.381802	-0.438193	0.344369
H309	H	1.715135	-0.104860	0.677703
H310	H	1.112716	-0.694446	0.014524
H311	H	1.446050	-0.361113	0.347857
H312	H	1.779383	-0.027780	0.681191
H313	H	1.051208	-0.698874	0.083640
H314	H	1.384541	-0.365540	0.416973
H315	H	1.717875	-0.032207	0.750306
C316	C	1.087586	0.078000	-0.640070
C317	C	1.420919	0.411333	-0.306737
C318	C	1.754252	0.744667	0.026596
H319	H	1.131223	0.081124	-0.674627
H320	H	1.464557	0.414457	-0.341293
H321	H	1.797890	0.747791	-0.007960
H322	H	1.092451	0.126648	-0.600411
H323	H	1.425784	0.459981	-0.267078
H324	H	1.759117	0.793315	0.066255
H325	H	1.087498	0.029682	-0.606029
H326	H	1.420831	0.363015	-0.272695
H327	H	1.754164	0.696348	0.060638
H328	H	0.454372	0.165780	-0.111933
H329	H	0.787705	0.499114	0.221400
H330	H	1.121039	0.832447	0.554734
H331	H	0.318485	-0.042432	-0.121606
H332	H	0.651819	0.290901	0.211727
H333	H	0.985152	0.624235	0.545061
H334	H	0.538229	-0.098401	-0.129011
H335	H	0.871562	0.234932	0.204323
H336	H	1.204896	0.568266	0.537656
H337	H	1.065217	0.076391	-0.538080
H338	H	1.398550	0.409724	-0.204746
H339	H	1.731883	0.743058	0.128587
C340	C	1.082767	0.077642	-0.352338
C341	C	1.416100	0.410975	-0.019005
C342	C	1.749434	0.744309	0.314329
H343	H	1.071398	0.076832	-0.291682
H344	H	1.404731	0.410165	0.041651
H345	H	1.738065	0.743499	0.374985
H346	H	1.110185	0.031309	-0.365885
H347	H	1.443519	0.364642	-0.032552
H348	H	1.776852	0.697976	0.300781
H349	H	1.115123	0.128274	-0.360281
H350	H	1.448456	0.461608	-0.026948
H351	H	1.781789	0.794941	0.306386
C352	C	0.698741	-0.108462	-0.132652
C353	C	1.032075	0.224872	0.200681
C354	C	1.365408	0.558205	0.534014
H355	H	0.754392	-0.093659	-0.132838
H356	H	1.087726	0.239675	0.200495
H357	H	1.421059	0.573008	0.533828
H358	H	0.689603	-0.140146	-0.082099
H359	H	1.022937	0.193188	0.251235
H360	H	1.356270	0.526521	0.584568
H361	H	0.677631	-0.140994	-0.186423
H362	H	1.010965	0.192340	0.146910
H363	H	1.344298	0.525673	0.480244
