data_functionalizedCrystal
_audit_creation_method	'MofGen! by Chris Wilmer'
_symmetry_space_group_name_H-M	'P1'
_symmetry_Int_Tables_number	1
_symmetry_cell_setting	triclinic
loop_
_symmetry_equiv_pos_as_xyz
  x,y,z
_cell_length_a	19.188930
_cell_length_b	14.853567
_cell_length_c	18.266242
_cell_angle_alpha	90.002654
_cell_angle_beta	89.990385
_cell_angle_gamma	96.610144
loop_
_atom_site_label
_atom_site_type_symbol
_atom_site_fract_x
_atom_site_fract_y
_atom_site_fract_z
O1	O	0.091155	-1.195859	-0.060839
O2	O	0.591155	-0.695859	0.439161
O3	O	0.102014	-0.933340	-0.060853
O4	O	0.602014	-0.433340	0.439147
O5	O	-0.005046	-1.072175	-0.060831
O6	O	0.494954	-0.572175	0.439169
O7	O	0.198215	-1.057024	-0.060860
O8	O	0.698215	-0.557024	0.439140
O9	O	-0.005048	-1.072160	0.060931
O10	O	0.494952	-0.572160	0.560931
O11	O	0.102011	-0.933325	0.060909
O12	O	0.602011	-0.433325	0.560909
O13	O	0.091153	-1.195844	0.060923
O14	O	0.591153	-0.695844	0.560923
Zn15	Zn	0.096582	-1.064582	0.080249
Zn16	Zn	0.596582	-0.564582	0.580249
Zn17	Zn	0.096585	-1.064602	-0.080178
Zn18	Zn	0.596585	-0.564602	0.419822
O19	O	0.198212	-1.057009	0.060901
O20	O	0.698212	-0.557009	0.560901
C21	C	0.101521	-0.899746	0.000027
C22	C	0.601521	-0.399746	0.500027
C23	C	0.100046	-0.799671	0.000022
C24	C	0.600046	-0.299671	0.500022
C25	C	-0.031060	-1.071677	0.000052
C26	C	0.468940	-0.571677	0.500052
C27	C	-0.108569	-1.070204	0.000058
C28	C	0.391431	-0.570204	0.500058
C29	C	0.091646	-1.229438	0.000042
C30	C	0.591646	-0.729438	0.500042
C31	C	0.093120	-1.329513	0.000042
C32	C	0.593120	-0.829513	0.500042
C33	C	-0.153221	-1.151668	0.000066
C34	C	0.346779	-0.651668	0.500066
C35	C	-0.226050	-1.150285	0.000054
C36	C	0.273950	-0.650285	0.500054
C37	C	-0.254223	-1.067432	0.000049
C38	C	0.245777	-0.567432	0.500049
C39	C	-0.209561	-0.985957	0.000037
C40	C	0.290439	-0.485957	0.500037
C41	C	-0.136734	-0.987343	0.000042
C42	C	0.363266	-0.487343	0.500042
N43	N	-0.362440	-1.004096	0.041484
N44	N	0.137560	-0.504096	0.541484
N45	N	-0.431623	-1.002785	0.041481
N46	N	0.068377	-0.502785	0.541481
C47	C	-0.473645	-1.063251	0.000034
C48	C	0.026355	-0.563251	0.500034
N49	N	-0.443873	-1.125091	-0.041401
N50	N	0.056127	-0.625091	0.458599
N51	N	-0.374684	-1.126405	-0.041395
N52	N	0.125316	-0.626405	0.458605
C53	C	-0.333190	-1.065920	0.000044
C54	C	0.166810	-0.565920	0.500044
C55	C	-0.597267	-1.143220	0.000028
C56	C	-0.097267	-0.643220	0.500028
C57	C	-0.670096	-1.141833	0.000012
C58	C	-0.170096	-0.641833	0.500012
C59	C	-0.653606	-0.977503	0.000003
C60	C	-0.153606	-0.477503	0.500003
C61	C	-0.580778	-0.978893	0.000011
C62	C	-0.080778	-0.478893	0.500011
C63	C	-0.552613	-1.061754	0.000028
C64	C	-0.052613	-0.561754	0.500028
C65	C	0.224226	-1.057507	0.000017
C66	C	0.724226	-0.557507	0.500017
C67	C	0.301736	-1.058980	0.000006
C68	C	0.801736	-0.558980	0.500006
N69	N	0.096579	-1.064575	0.189735
N70	N	0.596579	-0.564575	0.689735
C71	C	0.030218	-0.387525	0.000049
C72	C	0.530218	0.112475	0.500049
C73	C	0.157407	-0.365537	0.000030
C74	C	0.657407	0.134463	0.500030
C75	C	0.158794	-0.459563	0.000027
C76	C	0.658794	0.040437	0.500027
C77	C	0.095891	-0.517574	0.000034
C78	C	0.595891	-0.017574	0.500034
C79	C	0.031602	-0.481560	0.000044
C80	C	0.531602	0.018440	0.500044
C81	C	0.223081	-0.495585	0.000010
C82	C	0.723081	0.004415	0.500010
C83	C	0.224470	-0.589616	0.000007
C84	C	0.724470	-0.089616	0.500007
C85	C	0.161567	-0.647629	0.000019
C86	C	0.661567	-0.147629	0.500019
C87	C	0.097276	-0.611610	0.000030
C88	C	0.597276	-0.111610	0.500030
C89	C	0.034373	-0.669621	0.000037
C90	C	0.534373	-0.169621	0.500037
C91	C	-0.029919	-0.633603	0.000053
C92	C	0.470081	-0.133603	0.500053
C93	C	-0.031301	-0.539574	0.000056
C94	C	0.468699	-0.039574	0.500056
C95	C	0.162949	-0.741659	0.000015
C96	C	0.662949	-0.241659	0.500015
C97	C	0.035757	-0.763656	0.000032
C98	C	0.535757	-0.263656	0.500032
N99	N	0.096582	-1.064616	-0.189665
N100	N	0.596582	-0.564616	0.310335
C101	C	0.049189	-1.126094	0.772022
C102	C	0.549189	-0.626094	1.272022
C103	C	0.049191	-1.126095	0.695377
C104	C	0.549191	-0.626095	1.195377
C105	C	0.096579	-1.064603	0.657048
C106	C	0.596579	-0.564603	1.157048
C107	C	0.143981	-1.003120	0.695370
C108	C	0.643981	-0.503120	1.195370
C109	C	0.143982	-1.003127	0.772013
C110	C	0.643982	-0.503127	1.272013
N111	N	0.105361	-0.984789	0.536717
N112	N	0.605361	-0.484789	1.036717
N113	N	0.105355	-0.984786	0.463909
N114	N	0.605355	-0.484786	0.963909
C115	C	0.096577	-1.064580	0.426126
C116	C	0.596577	-0.564580	0.926126
N117	N	0.087792	-1.144381	0.463901
N118	N	0.587792	-0.644381	0.963901
N119	N	0.087794	-1.144384	0.536716
N120	N	0.587794	-0.644384	1.036716
C121	C	0.096582	-1.064589	0.573941
C122	C	0.596582	-0.564589	1.073941
C123	C	0.049183	-1.126065	0.304706
C124	C	0.549183	-0.626065	0.804706
C125	C	0.049190	-1.126067	0.228059
C126	C	0.549190	-0.626067	0.728059
C127	C	0.143976	-1.003084	0.228054
C128	C	0.643976	-0.503084	0.728054
C129	C	0.143973	-1.003090	0.304698
C130	C	0.643973	-0.503090	0.804698
C131	C	0.096573	-1.064579	0.343020
C132	C	0.596573	-0.564579	0.843020
H133	H	-0.130295	-1.219140	0.000077
H134	H	0.369705	-0.719140	0.500077
N135	N	0.000774	-1.188887	0.811181
N136	N	0.500774	-0.688887	1.311181
N137	N	0.022985	-1.244758	0.853954
N138	N	0.522985	-0.744758	1.353954
H139	H	-0.011211	-1.289096	0.881618
H140	H	0.488789	-0.789096	1.381618
N141	N	-0.094164	-0.692879	0.000067
N142	N	0.405836	-0.192879	0.500067
N143	N	-0.107571	-0.747810	0.051389
N144	N	0.392429	-0.247810	0.551389
H145	H	-0.152942	-0.789679	0.051400
H146	H	0.347058	-0.289679	0.551400
H147	H	0.010596	-1.176160	0.664177
H148	H	0.510596	-0.676160	1.164177
H149	H	0.182566	-0.953054	0.664158
H150	H	0.682566	-0.453054	1.164158
N151	N	-0.271662	-1.233510	0.000061
N152	N	0.228338	-0.733510	0.500061
N153	N	-0.246506	-1.307484	0.000074
N154	N	0.253494	-0.807484	0.500074
H155	H	-0.278717	-1.366263	0.000080
H156	H	0.221283	-0.866263	0.500080
N157	N	0.192402	-0.940321	0.811142
N158	N	0.692402	-0.440321	1.311142
N159	N	0.234714	-0.885425	0.776915
N160	N	0.734714	-0.385425	1.276915
H161	H	0.268911	-0.841067	0.804550
H162	H	0.768911	-0.341067	1.304550
N163	N	-0.028498	-0.822911	0.000056
N164	N	0.471502	-0.322911	0.500056
N165	N	-0.071229	-0.819775	0.051394
N166	N	0.428771	-0.319775	0.551394
H167	H	-0.116610	-0.861625	0.051413
H168	H	0.383390	-0.361625	0.551413
N169	N	-0.238346	-0.901333	0.000026
N170	N	0.261654	-0.401333	0.500026
N171	N	-0.303371	-0.900106	0.000023
N172	N	0.196629	-0.400106	0.500023
H173	H	-0.323701	-0.840337	0.000011
H174	H	0.176299	-0.340337	0.500011
H175	H	-0.100377	-0.921003	0.000036
H176	H	0.399623	-0.421003	0.500036
H177	H	0.274293	-0.448345	-0.000003
H178	H	0.774293	0.051655	0.499997
N179	N	-0.535162	-0.895678	0.000028
N180	N	-0.035162	-0.395678	0.500028
N181	N	-0.492698	-0.878115	0.051359
N182	N	0.007302	-0.378115	0.551359
H183	H	-0.460481	-0.819341	0.051370
H184	H	0.039519	-0.319341	0.551370
H185	H	-0.022127	-0.358195	0.000065
H186	H	0.477873	0.141805	0.500065
H187	H	0.182562	-0.953025	0.335895
H188	H	0.682562	-0.453025	0.835895
H189	H	-0.574334	-1.210691	0.000038
H190	H	-0.074334	-0.710691	0.500038
N191	N	0.000787	-1.188900	0.343851
N192	N	0.500787	-0.688900	0.843851
N193	N	0.023026	-1.244773	0.386603
N194	N	0.523026	-0.744773	0.886603
H195	H	-0.011151	-1.289157	0.414246
H196	H	0.488849	-0.789157	0.914246
H197	H	0.215294	-0.770981	0.000004
H198	H	0.715294	-0.270981	0.500004
H199	H	0.182563	-0.953020	0.196847
H200	H	0.682563	-0.453020	0.696847
H201	H	0.010599	-1.176134	0.196865
H202	H	0.510599	-0.676134	0.696865
H203	H	-0.706452	-1.208174	0.000014
H204	H	-0.206452	-0.708174	0.500014
H205	H	-0.083644	-0.510239	0.000087
H206	H	0.416356	-0.010239	0.500087
H207	H	-0.676543	-0.910043	-0.000005
H208	H	-0.176543	-0.410043	0.499995
H209	H	0.208620	-0.318299	0.000018
H210	H	0.708620	0.181701	0.500018
H211	H	0.276821	-0.618933	-0.000006
H212	H	0.776821	-0.118933	0.499994
