data_functionalizedCrystal
_audit_creation_method	'MofGen! by Chris Wilmer'
_symmetry_space_group_name_H-M	'P1'
_symmetry_Int_Tables_number	1
_symmetry_cell_setting	triclinic
loop_
_symmetry_equiv_pos_as_xyz
  x,y,z
_cell_length_a	19.188930
_cell_length_b	15.944551
_cell_length_c	18.266242
_cell_angle_alpha	89.992703
_cell_angle_beta	89.977082
_cell_angle_gamma	83.321759
loop_
_atom_site_label
_atom_site_type_symbol
_atom_site_fract_x
_atom_site_fract_y
_atom_site_fract_z
O1	O	-0.926420	-0.104867	0.061118
O2	O	-0.426420	0.395133	0.561118
O3	O	-0.723146	-0.118984	0.061068
O4	O	-0.223146	0.381016	0.561068
O5	O	-0.830334	0.010370	0.061088
O6	O	-0.330334	0.510370	0.561088
O7	O	-0.819232	-0.234221	0.061098
O8	O	-0.319232	0.265779	0.561098
O9	O	-0.830316	0.010377	-0.060674
O10	O	-0.330316	0.510377	0.439326
O11	O	-0.723127	-0.118977	-0.060694
O12	O	-0.223127	0.381023	0.439306
O13	O	-0.926402	-0.104861	-0.060644
O14	O	-0.426402	0.395139	0.439356
Zn15	Zn	-0.824762	-0.111918	-0.080001
Zn16	Zn	-0.324762	0.388082	0.419999
Zn17	Zn	-0.824786	-0.111927	0.080425
Zn18	Zn	-0.324786	0.388073	0.580425
O19	O	-0.819214	-0.234215	-0.060664
O20	O	-0.319214	0.265785	0.439336
C21	C	-0.697124	-0.118524	0.000180
C22	C	-0.197124	0.381476	0.500180
C23	C	-0.619616	-0.117151	0.000161
C24	C	-0.119616	0.382849	0.500161
C25	C	-0.829864	0.041665	0.000206
C26	C	-0.329864	0.541665	0.500206
C27	C	-0.828482	0.134906	0.000206
C28	C	-0.328482	0.634906	0.500206
C29	C	-0.952423	-0.105321	0.000245
C30	C	-0.452423	0.394679	0.500245
C31	C	-1.029932	-0.106693	0.000269
C32	C	-0.529932	0.393307	0.500269
C33	C	-0.574889	-0.193052	0.000176
C34	C	-0.074889	0.306948	0.500176
C35	C	-0.502061	-0.191763	0.000184
C36	C	-0.002061	0.308237	0.500184
C37	C	-0.473965	-0.114568	0.000192
C38	C	0.026035	0.385432	0.500192
C39	C	-0.518703	-0.038658	0.000173
C40	C	-0.018703	0.461342	0.500173
C41	C	-0.591528	-0.039949	0.000158
C42	C	-0.091528	0.460051	0.500158
N43	N	-0.365839	-0.055565	0.041660
N44	N	0.134161	0.444435	0.541660
N45	N	-0.296657	-0.054344	0.041676
N46	N	0.203343	0.445656	0.541676
C47	C	-0.254547	-0.110673	0.000236
C48	C	0.245453	0.389327	0.500236
N49	N	-0.284230	-0.168283	-0.041210
N50	N	0.215770	0.331717	0.458790
N51	N	-0.353418	-0.169507	-0.041223
N52	N	0.146582	0.330493	0.458777
C53	C	-0.394999	-0.113160	0.000208
C54	C	0.105001	0.386840	0.500208
C55	C	-0.130851	-0.185181	0.000259
C56	C	0.369149	0.314819	0.500259
C57	C	-0.058023	-0.183888	0.000262
C58	C	0.441977	0.316112	0.500262
C59	C	-0.074666	-0.030781	0.000259
C60	C	0.425334	0.469219	0.500259
C61	C	-0.147492	-0.032076	0.000248
C62	C	0.352508	0.467924	0.500248
C63	C	-0.175580	-0.109278	0.000251
C64	C	0.324420	0.390722	0.500251
C65	C	-0.819684	-0.265510	0.000219
C66	C	-0.319684	0.234490	0.500219
C67	C	-0.821066	-0.358751	0.000225
C68	C	-0.321066	0.141249	0.500225
N69	N	-0.824751	-0.111912	-0.189488
N70	N	-0.324751	0.388088	0.310512
C71	C	-0.758739	0.349502	0.000199
C72	C	-0.258739	0.849502	0.500199
C73	C	-0.791117	0.410644	-0.059829
C74	C	-0.291117	0.910644	0.440171
C75	C	-0.825983	0.305623	0.000211
C76	C	-0.325983	0.805623	0.500211
C77	C	-0.791150	0.410621	0.060218
C78	C	-0.291150	0.910621	0.560218
C79	C	-0.823563	0.470527	0.000219
C80	C	-0.323563	0.970527	0.500219
C81	C	-0.858378	0.365536	-0.059867
C82	C	-0.358378	0.865536	0.440133
C83	C	-0.858403	0.365507	0.060235
C84	C	-0.358403	0.865507	0.560235
C85	C	-0.890829	0.426631	0.000192
C86	C	-0.390829	0.926631	0.500192
C87	C	-0.827374	0.210626	0.000205
C88	C	-0.327374	0.710626	0.500205
C89	C	-0.822176	0.565522	0.000219
C90	C	-0.322176	1.065522	0.500219
C91	C	-0.872229	-0.054662	-0.227788
C92	C	-0.372229	0.445338	0.272212
C93	C	-0.872234	-0.054658	-0.304433
C94	C	-0.372234	0.445342	0.195567
C95	C	-0.824766	-0.111918	-0.342775
C96	C	-0.324766	0.388082	0.157225
C97	C	-0.777279	-0.169172	-0.304466
C98	C	-0.277279	0.330828	0.195534
C99	C	-0.777271	-0.169169	-0.227822
C100	C	-0.277271	0.330831	0.272178
N101	N	-0.815883	-0.186275	-0.463106
N102	N	-0.315883	0.313725	0.036894
N103	N	-0.815894	-0.186275	-0.535914
N104	N	-0.315894	0.313725	-0.035914
C105	C	-0.824786	-0.111930	-0.573698
C106	C	-0.324786	0.388070	-0.073698
N107	N	-0.833679	-0.037582	-0.535923
N108	N	-0.333679	0.462418	-0.035923
N109	N	-0.833671	-0.037582	-0.463108
N110	N	-0.333671	0.462418	0.036892
C111	C	-0.824769	-0.111928	-0.425882
C112	C	-0.324769	0.388072	0.074118
C113	C	-0.872272	-0.054671	-0.695105
C114	C	-0.372272	0.445329	-0.195105
C115	C	-0.872271	-0.054666	-0.771751
C116	C	-0.372271	0.445334	-0.271751
C117	C	-0.777320	-0.169188	-0.771782
C118	C	-0.277320	0.330812	-0.271782
C119	C	-0.777317	-0.169186	-0.695137
C120	C	-0.277317	0.330814	-0.195137
C121	C	-0.824797	-0.111929	-0.656803
C122	C	-0.324797	0.388071	-0.156803
N123	N	-0.824803	-0.111926	0.189912
N124	N	-0.324803	0.388074	0.689912
H125	H	-0.597753	-0.255916	0.000180
H126	H	-0.097753	0.244084	0.500180
C127	C	-0.752683	0.437674	-0.128406
C128	C	-0.252683	0.937674	0.371594
N129	N	-0.723731	0.458030	-0.180054
N130	N	-0.223731	0.958030	0.319946
H131	H	-0.021605	-0.245698	0.000270
H132	H	0.478395	0.254302	0.500270
C133	C	-0.196695	0.051422	0.000240
C134	C	0.303305	0.551422	0.500240
N135	N	-0.233755	0.114317	0.000233
N136	N	0.266245	0.614317	0.500233
C137	C	-0.752723	0.437608	0.128776
C138	C	-0.252723	0.937608	0.628776
N139	N	-0.723775	0.457931	0.180411
N140	N	-0.223775	0.957931	0.680411
C141	C	-0.924493	0.008331	-0.813881
C142	C	-0.424493	0.508331	-0.313881
N143	N	-0.963824	0.055785	-0.845614
N144	N	-0.463824	0.555785	-0.345614
H145	H	-0.886788	0.345655	-0.110671
H146	H	-0.386788	0.845655	0.389329
C147	C	-0.924452	0.008332	-0.185625
C148	C	-0.424452	0.508332	0.314375
N149	N	-0.963784	0.055782	-0.153867
N150	N	-0.463784	0.555782	0.346133
H151	H	-0.153721	-0.248043	0.000251
H152	H	0.346279	0.251957	0.500251
C153	C	-0.896802	0.338448	0.128817
C154	C	-0.396802	0.838448	0.628817
N155	N	-0.925720	0.318064	0.180479
N156	N	-0.425720	0.818064	0.680479
H157	H	-0.910898	-0.008036	-0.335623
H158	H	-0.410898	0.491964	0.164377
H159	H	-0.702924	0.315986	0.000125
H160	H	-0.202924	0.815986	0.500125
H161	H	-0.738668	-0.215808	-0.803000
H162	H	-0.238668	0.284192	-0.303000
H163	H	-0.946693	0.459999	0.000172
H164	H	-0.446693	0.959999	0.500172
H165	H	-0.738629	-0.215794	-0.335688
H166	H	-0.238629	0.284206	0.164312
C167	C	-0.725069	-0.232188	-0.185691
C168	C	-0.225069	0.267812	0.314309
N169	N	-0.685761	-0.279668	-0.153957
N170	N	-0.185761	0.220332	0.346043
H171	H	-0.051791	0.032072	0.000311
H172	H	0.448209	0.532072	0.500311
H173	H	-0.910931	-0.008046	-0.663892
H174	H	-0.410931	0.491954	-0.163892
H175	H	-0.465637	-0.253572	0.000194
H176	H	0.034363	0.246428	0.500194
H177	H	-0.738658	-0.215808	-0.663951
H178	H	-0.238658	0.284192	-0.163951
C179	C	-0.487796	0.046256	0.000183
C180	C	0.012204	0.546256	0.500183
N181	N	-0.464517	0.110216	0.000188
N182	N	0.035483	0.610216	0.500188
C183	C	-0.640731	0.043551	0.000146
C184	C	-0.140731	0.543551	0.500146
N185	N	-0.677792	0.106445	0.000140
N186	N	-0.177792	0.606445	0.500140
