data_functionalizedCrystal
_audit_creation_method	'MofGen! by Chris Wilmer'
_symmetry_space_group_name_H-M	'P1'
_symmetry_Int_Tables_number	1
_symmetry_cell_setting	triclinic
loop_
_symmetry_equiv_pos_as_xyz
  x,y,z
_cell_length_a	35.277628
_cell_length_b	35.288095
_cell_length_c	35.277682
_cell_angle_alpha	59.997929
_cell_angle_beta	89.998958
_cell_angle_gamma	60.000166
loop_
_atom_site_label
_atom_site_type_symbol
_atom_site_fract_x
_atom_site_fract_y
_atom_site_fract_z
O1	O	-0.323087	-0.271234	0.011271
O2	O	-0.267964	-0.193634	-0.011228
O3	O	-0.267962	-0.271233	0.066395
O4	O	-0.323089	-0.193635	-0.066351
O5	O	-0.204915	-0.334261	0.066394
O6	O	-0.204918	-0.256661	-0.011228
O7	O	-0.260040	-0.334261	0.011271
Cu8	Cu	-0.226722	-0.301216	0.000022
Cu9	Cu	-0.301282	-0.226679	0.000022
O10	O	-0.260043	-0.256662	-0.066351
C11	C	-0.163481	-0.071298	-0.023519
C12	C	-0.186872	-0.024531	-0.020298
C13	C	-0.117860	-0.093995	-0.023838
C14	C	-0.163483	-0.139918	-0.023524
C15	C	-0.186875	-0.166518	-0.020308
C16	C	-0.117862	-0.162510	-0.023843
C17	C	-0.094838	-0.139921	-0.023519
C18	C	-0.044836	-0.166525	-0.020298
C19	C	-0.186401	-0.093991	-0.023843
C20	C	-0.004439	-0.188019	-0.017694
C21	C	-0.205769	0.013252	-0.017695
C22	C	-0.205774	-0.188010	-0.017709
C23	C	0.046241	-0.214983	-0.014429
C24	C	-0.229477	0.060653	-0.014430
C25	C	-0.229483	-0.214971	-0.014450
C26	C	-0.500364	-0.466062	0.034181
C27	C	-0.477341	-0.511990	0.034503
C28	C	-0.431722	-0.466060	0.034178
C29	C	-0.408804	-0.511988	0.034500
C30	C	-0.431721	-0.534685	0.034181
C31	C	-0.477342	-0.443470	0.034500
C32	C	-0.665895	-0.342485	0.021756
C33	C	-0.712772	-0.317221	0.018243
C34	C	-0.736287	-0.338907	0.016481
C35	C	-0.787116	-0.311512	0.012664
C36	C	-0.712921	-0.385861	0.018236
C37	C	-0.666047	-0.411125	0.021755
C38	C	-0.642533	-0.389434	0.023515
C39	C	-0.389805	-0.687746	0.021758
C40	C	-0.368199	-0.731097	0.018245
C41	C	-0.322995	-0.752841	0.016478
C42	C	-0.299567	-0.799839	0.012662
C43	C	-0.299393	-0.731235	0.018230
C44	C	-0.320995	-0.687892	0.021751
C45	C	-0.366205	-0.666148	0.023512
C46	C	-0.389808	-0.342477	0.021744
C47	C	-0.368205	-0.317208	0.018222
C48	C	-0.322998	-0.338892	0.016457
C49	C	-0.299573	-0.311495	0.012637
C50	C	-0.299398	-0.385842	0.018210
C51	C	-0.321003	-0.411107	0.021730
C52	C	-0.366208	-0.389423	0.023501
C53	C	-0.591706	-0.416830	0.027326
C54	C	-0.551191	-0.438667	0.030366
C55	C	-0.408299	-0.438663	0.030360
C56	C	-0.389629	-0.416824	0.027317
C57	C	-0.408298	-0.581682	0.030365
C58	C	-0.389627	-0.619146	0.027325
C59	C	-0.432024	-0.061845	-0.438511
C60	C	-0.477645	-0.015917	-0.461431
C61	C	-0.432025	-0.061844	-0.369869
C62	C	-0.477645	-0.015916	-0.392892
C63	C	-0.500668	0.006779	-0.438513
C64	C	-0.409106	-0.084435	-0.392891
C65	C	-0.320834	-0.185425	-0.480424
C66	C	-0.299076	-0.210690	-0.502029
C67	C	-0.322531	-0.189005	-0.547237
C68	C	-0.298945	-0.216401	-0.570661
C69	C	-0.367745	-0.142051	-0.570839
C70	C	-0.389497	-0.116787	-0.549237
C71	C	-0.366040	-0.138476	-0.504027
C72	C	-0.666200	0.159838	-0.549704
C73	C	-0.713077	0.203188	-0.571462
C74	C	-0.736595	0.224934	-0.548009
C75	C	-0.787423	0.271931	-0.571594
C76	C	-0.713230	0.203329	-0.502796
C77	C	-0.666353	0.159987	-0.481041
C78	C	-0.642841	0.138241	-0.504500
C79	C	-0.320836	-0.185423	-0.204335
C80	C	-0.299080	-0.210691	-0.157455
C81	C	-0.322536	-0.189006	-0.133940
C82	C	-0.298950	-0.216402	-0.083110
C83	C	-0.367748	-0.142056	-0.157305
C84	C	-0.389502	-0.116792	-0.204182
C85	C	-0.366040	-0.138478	-0.227695
C86	C	-0.389632	-0.111079	-0.480604
C87	C	-0.408436	-0.089241	-0.461934
C88	C	-0.408437	-0.089240	-0.319041
C89	C	-0.389634	-0.111078	-0.278525
C90	C	-0.551496	0.053776	-0.462102
C91	C	-0.592011	0.091239	-0.480906
O92	O	0.196122	-0.334274	0.011291
O93	O	0.063378	-0.256674	-0.011208
O94	O	0.140994	-0.334276	0.066414
O95	O	0.118506	-0.256671	-0.066331
O96	O	0.140996	-0.271251	0.066419
O97	O	0.063380	-0.193649	-0.011203
O98	O	0.196124	-0.271249	0.011296
Cu99	Cu	0.129752	-0.226694	0.000047
Cu100	Cu	0.129750	-0.301228	0.000041
O101	O	0.118508	-0.193647	-0.066327
O102	O	-0.260036	0.184774	0.011294
O103	O	-0.204910	0.074561	-0.011204
O104	O	-0.204913	0.074554	0.066418
O105	O	-0.260033	0.184781	-0.066328
O106	O	-0.267961	0.074557	0.066413
O107	O	-0.267958	0.074564	-0.011209
O108	O	-0.323083	0.184777	0.011289
Cu109	Cu	-0.301278	0.129670	0.000040
Cu110	Cu	-0.226716	0.129668	0.000045
O111	O	-0.323081	0.184784	-0.066333
O112	O	-0.936929	0.397535	-0.602582
O113	O	-0.804185	0.287317	-0.547454
O114	O	-0.881802	0.287315	-0.547452
O115	O	-0.859312	0.397537	-0.602584
O116	O	-0.881801	0.287314	-0.610498
O117	O	-0.804183	0.287316	-0.610500
O118	O	-0.936927	0.397533	-0.665628
Cu119	Cu	-0.870555	0.342425	-0.643820
Cu120	Cu	-0.870557	0.342426	-0.569261
O121	O	-0.859310	0.397536	-0.665629
O122	O	-0.267961	-0.271234	-0.665316
O123	O	-0.323086	-0.193638	-0.610192
O124	O	-0.323085	-0.271236	-0.610189
O125	O	-0.267962	-0.193636	-0.665319
O126	O	-0.260038	-0.334264	-0.547142
O127	O	-0.260039	-0.256666	-0.547145
O128	O	-0.204914	-0.334262	-0.602269
Cu129	Cu	-0.226720	-0.301219	-0.568950
Cu130	Cu	-0.301280	-0.226681	-0.643511
O131	O	-0.204915	-0.256664	-0.602272
C132	C	-0.094840	-0.456607	0.293255
C133	C	-0.044837	-0.503376	0.316647
C134	C	-0.117862	-0.433912	0.316174
C135	C	-0.163483	-0.387984	0.224612
C136	C	-0.186875	-0.361381	0.174609
C137	C	-0.186401	-0.365393	0.247634
C138	C	-0.163483	-0.387984	0.293255
C139	C	-0.186874	-0.361382	0.316646
C140	C	-0.117862	-0.433912	0.247635
C141	C	-0.205772	-0.339889	0.335543
C142	C	-0.004440	-0.541160	0.335545
C143	C	-0.205773	-0.339888	0.134212
C144	C	-0.229480	-0.312925	0.359250
C145	C	0.046239	-0.588562	0.359254
C146	C	-0.229481	-0.312924	0.083532
C147	C	0.153295	-0.388013	0.293279
C148	C	0.150076	-0.361413	0.316673
C149	C	0.153614	-0.433940	0.316196
C150	C	0.153297	-0.388008	0.224634
C151	C	0.150079	-0.361403	0.174632
C152	C	0.153616	-0.433935	0.247655
C153	C	0.153293	-0.456633	0.293275
C154	C	0.150072	-0.503401	0.316665
C155	C	0.153617	-0.365420	0.247659
C156	C	0.147469	-0.541185	0.335561
C157	C	0.147474	-0.339922	0.335572
C158	C	0.147479	-0.339908	0.134234
C159	C	0.144204	-0.588587	0.359267
C160	C	0.144211	-0.312962	0.359282
C161	C	0.144218	-0.312942	0.083555
C162	C	-0.163482	-0.139963	0.293267
C163	C	-0.186875	-0.166567	0.316654
C164	C	-0.117861	-0.162559	0.316187
C165	C	-0.163482	-0.071333	0.224628
C166	C	-0.186873	-0.024557	0.174627
C167	C	-0.117860	-0.094033	0.247653
C168	C	-0.094838	-0.139967	0.293272
C169	C	-0.044835	-0.166574	0.316665
C170	C	-0.186401	-0.094030	0.247648
C171	C	-0.004438	-0.188070	0.335563
C172	C	-0.205773	-0.188061	0.335549
C173	C	-0.205771	0.013233	0.134231
C174	C	0.046242	-0.215038	0.359273
C175	C	-0.229482	-0.215026	0.359253
C176	C	-0.229479	0.060643	0.083553
C177	C	0.095627	0.006487	-0.438489
C178	C	0.095306	-0.016206	-0.461409
C179	C	0.095623	-0.062137	-0.369847
C180	C	0.095303	-0.084726	-0.392871
C181	C	0.095625	-0.062133	-0.438492
C182	C	0.095305	-0.016210	-0.392868
C183	C	0.108059	0.159543	-0.480399
C184	C	0.111575	0.202893	-0.502003
C185	C	0.113340	0.224640	-0.547210
C186	C	0.117161	0.271637	-0.570634
C187	C	0.111587	0.203038	-0.570814
C188	C	0.108065	0.159695	-0.549212
C189	C	0.106302	0.137948	-0.504002
C190	C	0.108054	-0.116452	-0.549685
C191	C	0.111568	-0.141562	-0.571444
C192	C	0.113332	-0.188519	-0.547992
C193	C	0.117148	-0.215753	-0.571578
C194	C	0.111577	-0.210363	-0.502779
C195	C	0.108055	-0.185249	-0.481023
C196	C	0.106297	-0.138292	-0.504481
C197	C	0.108046	-0.116473	-0.204312
C198	C	0.111564	-0.141591	-0.157432
C199	C	0.113326	-0.188548	-0.133918
C200	C	0.117142	-0.215786	-0.083088
C201	C	0.111574	-0.210388	-0.157283
C202	C	0.108058	-0.185270	-0.204161
C203	C	0.106290	-0.138308	-0.227673
C204	C	0.102487	0.090947	-0.480580
C205	C	0.099445	0.053484	-0.461911
C206	C	0.099438	-0.089371	-0.319019
C207	C	0.102477	-0.111078	-0.278503
C208	C	0.099442	-0.089362	-0.462081
C209	C	0.102482	-0.111066	-0.480886
O210	O	0.118477	-0.256700	0.452885
O211	O	0.140984	-0.334299	0.397762
O212	O	0.063360	-0.256699	0.397752
O213	O	0.196101	-0.334300	0.452895
O214	O	0.063367	-0.193672	0.334708
O215	O	0.140992	-0.271271	0.334718
O216	O	0.118484	-0.193673	0.389842
Cu217	Cu	0.129739	-0.226717	0.356523
Cu218	Cu	0.129730	-0.301254	0.431080
O219	O	0.196108	-0.271272	0.389852
C220	C	-0.500364	0.533998	-0.438484
C221	C	-0.477341	0.556591	-0.461399
C222	C	-0.431721	0.465364	-0.369840
C223	C	-0.408802	0.488061	-0.392859
C224	C	-0.431720	0.533995	-0.438478
C225	C	-0.477342	0.488064	-0.392865
C226	C	-0.665898	0.588334	-0.480407
C227	C	-0.712776	0.613450	-0.502014
C228	C	-0.736291	0.660414	-0.547220
C229	C	-0.787122	0.687654	-0.570647
C230	C	-0.712926	0.682257	-0.570819
C231	C	-0.666050	0.657138	-0.549214
C232	C	-0.642536	0.610174	-0.504006
C233	C	-0.389802	0.657585	-0.549654
C234	C	-0.368196	0.682850	-0.571408
C235	C	-0.322990	0.661164	-0.547952
C236	C	-0.299561	0.688558	-0.571532
C237	C	-0.299388	0.614205	-0.502740
C238	C	-0.320990	0.588935	-0.480990
C239	C	-0.366202	0.610633	-0.504452
C240	C	-0.389804	0.312282	-0.204314
C241	C	-0.368201	0.268929	-0.157436
C242	C	-0.322993	0.247179	-0.133918
C243	C	-0.299567	0.200174	-0.083089
C244	C	-0.299392	0.268786	-0.157278
C245	C	-0.320998	0.312139	-0.204154
C246	C	-0.366204	0.333881	-0.227670
C247	C	-0.591708	0.582942	-0.480581
C248	C	-0.551193	0.561234	-0.461909
C249	C	-0.408297	0.418359	-0.319013
C250	C	-0.389626	0.380890	-0.278499
C251	C	-0.408296	0.561393	-0.462062
C252	C	-0.389624	0.583232	-0.480862
H253	H	-0.371321	-0.530978	0.035012
H254	H	0.106623	0.141841	-0.443588
H255	H	-0.262584	-0.748943	0.016794
H256	H	-0.223883	-0.328432	0.229146
C257	C	-0.092901	-0.459576	0.366814
H258	H	-0.113163	-0.439474	0.377225
H259	H	-0.065931	-0.459767	0.368594
H260	H	-0.084218	-0.495322	0.385865
C261	C	-0.295040	-0.664122	0.023672
H262	H	-0.314381	-0.635194	0.026020
H263	H	-0.287237	-0.651520	-0.003766
H264	H	-0.267491	-0.690989	0.049952
C265	C	-0.092892	-0.212431	-0.024543
H266	H	-0.113148	-0.222697	-0.024688
H267	H	-0.065922	-0.240974	0.002237
H268	H	-0.084210	-0.204414	-0.051617
C269	C	0.113504	-0.117541	-0.621172
H270	H	0.115848	-0.139220	-0.630770
H271	H	0.139783	-0.116275	-0.621839
H272	H	0.086067	-0.082307	-0.641588
H273	H	-0.387419	-0.748683	0.016816
C274	C	-0.237034	-0.068370	0.222672
H275	H	-0.247447	-0.088480	0.242924
H276	H	-0.238798	-0.068176	0.195700
H277	H	-0.256095	-0.032626	0.213991
C278	C	0.113510	0.226647	-0.476038
H279	H	0.111960	0.207484	-0.446019
H280	H	0.088028	0.263291	-0.492904
H281	H	0.141744	0.223811	-0.473164
H282	H	0.154133	-0.328462	0.229178
C283	C	-0.092892	-0.068368	0.222692
H284	H	-0.113148	-0.037703	0.192168
H285	H	-0.065920	-0.093554	0.221109
H286	H	-0.084213	-0.058002	0.239398
C287	C	-0.092899	-0.068320	-0.024561
H288	H	-0.113154	-0.037660	-0.024706
H289	H	-0.084225	-0.057955	-0.051639
H290	H	-0.065922	-0.093502	0.002214
C291	C	0.094610	0.009452	-0.512045
H292	H	0.094460	-0.010651	-0.522457
H293	H	0.121393	0.009636	-0.513815
H294	H	0.067541	0.045201	-0.531103
H295	H	0.154138	-0.452930	0.229170
C296	C	-0.502306	-0.537654	0.035202
H297	H	-0.482046	-0.568316	0.035352
H298	H	-0.529274	-0.512465	0.008420
H299	H	-0.510993	-0.548022	0.062274
C300	C	-0.640035	0.536674	-0.430684
H301	H	-0.660662	0.527259	-0.419727
H302	H	-0.628859	0.542419	-0.410949
H303	H	-0.614632	0.508469	-0.430704
C304	C	-0.249661	0.590343	-0.476936
H305	H	-0.238698	0.558757	-0.446899
H306	H	-0.249671	0.615748	-0.474119
H307	H	-0.229933	0.581794	-0.493870
C308	C	-0.295031	0.537288	-0.431262
H309	H	-0.265015	0.527990	-0.420404
H310	H	-0.292161	0.509027	-0.431221
H311	H	-0.311903	0.542989	-0.411478
C312	C	0.113528	0.226959	-0.620538
H313	H	0.115880	0.255864	-0.630022
H314	H	0.086098	0.239622	-0.641005
H315	H	0.139814	0.200145	-0.621259
H316	H	0.113006	-0.248593	-0.483685
H317	H	-0.099381	-0.199518	0.353671
H318	H	0.094785	-0.121682	-0.374387
H319	H	-0.223885	-0.074993	-0.024363
H320	H	0.094825	0.002760	-0.374372
C321	C	-0.092894	-0.459568	0.222664
H322	H	-0.062368	-0.490226	0.242919
H323	H	-0.091318	-0.434372	0.195692
H324	H	-0.109591	-0.469941	0.213983
H325	H	-0.495829	-0.406511	0.035012
C326	C	0.113487	-0.117566	-0.131735
H327	H	0.111927	-0.085999	-0.152454
H328	H	0.141714	-0.142912	-0.106334
H329	H	0.087997	-0.108953	-0.120570
H330	H	0.154122	-0.452930	0.353678
C331	C	-0.394167	-0.265563	0.016290
H332	H	-0.424182	-0.256270	0.017850
H333	H	-0.397041	-0.237300	-0.011941
H334	H	-0.377296	-0.271263	0.041776
C335	C	-0.640337	0.135926	-0.575509
H336	H	-0.660963	0.155004	-0.605552
H337	H	-0.629161	0.099277	-0.558580
H338	H	-0.614933	0.138753	-0.578322
H339	H	-0.426617	-0.324814	0.023182
H340	H	-0.301784	-0.449335	0.023157
C341	C	0.106105	-0.064821	-0.230173
H342	H	0.107659	-0.055415	-0.209544
H343	H	0.077877	-0.036611	-0.255578
H344	H	0.131593	-0.070577	-0.241347
C345	C	-0.295036	0.335901	-0.229849
H346	H	-0.265016	0.316736	-0.209132
H347	H	-0.311902	0.372542	-0.241015
H348	H	-0.292164	0.333073	-0.255250
H349	H	0.106637	0.142110	-0.568432
C350	C	-0.738776	0.226944	-0.621189
H351	H	-0.718060	0.207782	-0.632040
H352	H	-0.749948	0.263588	-0.640979
H353	H	-0.764173	0.224107	-0.621223
H354	H	-0.262587	-0.403497	0.016771
C355	C	0.106112	-0.064799	-0.575490
H356	H	0.107656	-0.055383	-0.605533
H357	H	0.131596	-0.070552	-0.558560
H358	H	0.077880	-0.036590	-0.578302
H359	H	0.106623	-0.203035	-0.444212
C360	C	0.106125	-0.209289	-0.229861
H361	H	0.107673	-0.240848	-0.209145
H362	H	0.131609	-0.217903	-0.241030
H363	H	0.077893	-0.183934	-0.255260
C364	C	-0.640653	0.136223	-0.431312
H365	H	-0.609367	0.107296	-0.421717
H366	H	-0.655480	0.123620	-0.410898
H367	H	-0.641250	0.163094	-0.430645
H368	H	0.113009	-0.248624	-0.138135
C369	C	-0.640032	-0.318630	0.023701
H370	H	-0.660657	-0.287055	0.022160
H371	H	-0.628856	-0.310076	-0.001782
H372	H	-0.614628	-0.344046	0.051935
H373	H	-0.732378	0.221040	-0.483702
H374	H	-0.731792	-0.278991	0.016812
H375	H	-0.371318	0.469063	-0.374372
H376	H	-0.495826	0.593550	-0.498882
H377	H	-0.495832	0.469078	-0.374381
H378	H	-0.426314	-0.078564	-0.223203
C379	C	-0.394162	0.245165	-0.131742
H380	H	-0.424177	0.264322	-0.152462
H381	H	-0.397034	0.247988	-0.106341
H382	H	-0.377291	0.208522	-0.120579
H383	H	-0.426614	0.329984	-0.223458
H384	H	-0.731797	0.595663	-0.482796
C385	C	-0.295025	-0.209270	-0.430704
H386	H	-0.314456	-0.187500	-0.421217
H387	H	-0.267487	-0.210521	-0.429992
H388	H	-0.287218	-0.244496	-0.410228
H389	H	-0.732075	0.720493	-0.607626
C390	C	-0.640352	0.681166	-0.575169
H391	H	-0.661071	0.712735	-0.605184
H392	H	-0.614953	0.655822	-0.578044
H393	H	-0.629187	0.689776	-0.558292
H394	H	-0.426614	0.675254	-0.568760
H395	H	-0.387416	0.721084	-0.608218
H396	H	-0.496128	0.003076	-0.374407
C397	C	-0.249663	0.244865	-0.131414
H398	H	-0.238705	0.263945	-0.152040
H399	H	-0.229935	0.208218	-0.120243
H400	H	-0.249675	0.247685	-0.106005
C401	C	-0.738787	-0.409713	0.016298
H402	H	-0.770052	-0.387940	0.013947
H403	H	-0.724021	-0.444935	0.043729
H404	H	-0.738251	-0.410970	-0.009988
H405	H	-0.647026	-0.449354	0.023185
H406	H	-0.262264	-0.248919	-0.482808
H407	H	-0.426615	-0.670047	0.023195
H408	H	-0.371622	-0.121391	-0.374409
C409	C	-0.502615	0.009743	-0.512066
H410	H	-0.482363	-0.010368	-0.522477
H411	H	-0.511302	0.045488	-0.531125
H412	H	-0.529585	0.009928	-0.513832
H413	H	-0.262268	-0.248920	-0.138435
C414	C	-0.295031	-0.209280	-0.230197
H415	H	-0.264992	-0.240863	-0.209568
H416	H	-0.292218	-0.183871	-0.255602
H417	H	-0.311963	-0.217832	-0.241370
C418	C	-0.393543	-0.118201	-0.620563
H419	H	-0.374114	-0.139975	-0.630048
H420	H	-0.401345	-0.082979	-0.641031
H421	H	-0.421086	-0.116945	-0.621283
H422	H	-0.426308	-0.078556	-0.568458
H423	H	-0.386847	-0.124399	-0.138156
