data_functionalizedCrystal
_audit_creation_method	'MofGen! by Chris Wilmer'
_symmetry_space_group_name_H-M	'P1'
_symmetry_Int_Tables_number	1
_symmetry_cell_setting	triclinic
loop_
_symmetry_equiv_pos_as_xyz
  x,y,z
_cell_length_a	21.295419
_cell_length_b	21.295417
_cell_length_c	19.805399
_cell_angle_alpha	89.970204
_cell_angle_beta	89.981377
_cell_angle_gamma	90.044503
loop_
_atom_site_label
_atom_site_type_symbol
_atom_site_fract_x
_atom_site_fract_y
_atom_site_fract_z
Zn1	Zn	0.962322	-0.250375	-0.382692
Zn2	Zn	1.462322	0.249625	0.117308
Zn3	Zn	0.962237	-0.355644	-0.269500
Zn4	Zn	1.462237	0.144356	0.230500
Zn5	Zn	0.857056	-0.250420	-0.269519
Zn6	Zn	1.357056	0.249580	0.230481
Zn7	Zn	0.857016	-0.355638	-0.382648
Zn8	Zn	1.357016	0.144362	0.117352
O9	O	0.909658	-0.303019	-0.326090
O10	O	1.409658	0.196981	0.173910
O11	O	1.050400	-0.264323	-0.367687
O12	O	1.550400	0.235677	0.132313
O13	O	0.948266	-0.341707	-0.174785
O14	O	1.448266	0.158293	0.325215
O15	O	0.871073	-0.162324	-0.284558
O16	O	1.371073	0.337676	0.215442
O17	O	1.050338	-0.341664	-0.284525
O18	O	1.550338	0.158336	0.215475
O19	O	0.948411	-0.162292	-0.367706
O20	O	1.448411	0.337708	0.132294
O21	O	0.870990	-0.264399	-0.174800
O22	O	1.370990	0.235601	0.325200
O23	O	0.768962	-0.264393	-0.284515
O24	O	1.268962	0.235607	0.215485
O25	O	0.871004	-0.341653	-0.477371
O26	O	1.371004	0.158347	0.022629
O27	O	0.768932	-0.341696	-0.367631
O28	O	1.268932	0.158304	0.132369
O29	O	0.948372	-0.264317	-0.477403
O30	O	1.448372	0.235683	0.022597
O31	O	0.948227	-0.443733	-0.284483
O32	O	1.448227	0.056267	0.215517
O33	O	0.870922	-0.443728	-0.367612
O34	O	1.370922	0.056272	0.132388
C35	C	0.746106	-0.303049	-0.326071
C36	C	1.246106	0.196951	0.173929
C37	C	0.676138	-0.303077	-0.326079
C38	C	1.176138	0.196923	0.173921
C39	C	0.643327	-0.262872	-0.369448
C40	C	1.143327	0.237128	0.130552
C41	C	0.577584	-0.262855	-0.369451
C42	C	1.077584	0.237145	0.130549
C43	C	0.544656	-0.303055	-0.326091
C44	C	1.044656	0.196945	0.173909
C45	C	0.577475	-0.343263	-0.282713
C46	C	1.077475	0.156737	0.217287
C47	C	0.643217	-0.343274	-0.282707
C48	C	1.143217	0.156726	0.217293
N49	N	0.441382	-0.358133	-0.320802
N50	N	0.941382	0.141867	0.179198
N51	N	0.378930	-0.358120	-0.320812
N52	N	0.878930	0.141880	0.179188
C53	C	0.346581	-0.303022	-0.326106
C54	C	0.846581	0.196978	0.173894
N55	N	0.379043	-0.247936	-0.331403
N56	N	0.879043	0.252064	0.168597
N57	N	0.441500	-0.247949	-0.331397
N58	N	0.941500	0.252051	0.168603
C59	C	0.473370	-0.303047	-0.326092
C60	C	0.973370	0.196953	0.173908
C61	C	0.242484	-0.262795	-0.369480
C62	C	0.742484	0.237205	0.130520
C63	C	0.176740	-0.262777	-0.369478
C64	C	0.676740	0.237223	0.130522
C65	C	0.176633	-0.343191	-0.282744
C66	C	0.676633	0.156809	0.217256
C67	C	0.242375	-0.343203	-0.282743
C68	C	0.742375	0.156797	0.217257
C69	C	0.275297	-0.303006	-0.326115
C70	C	0.775297	0.196994	0.173885
C71	C	0.909578	-0.466571	-0.326055
C72	C	1.409578	0.033429	0.173945
C73	C	0.909601	-0.536539	-0.326063
C74	C	1.409601	-0.036539	0.173937
C75	C	0.949848	-0.569331	-0.369390
C76	C	1.449848	-0.069331	0.130610
C77	C	0.949870	-0.635074	-0.369406
C78	C	1.449870	-0.135074	0.130594
C79	C	0.909652	-0.668021	-0.326085
C80	C	1.409652	-0.168021	0.173915
C81	C	0.869397	-0.635221	-0.282755
C82	C	1.369397	-0.135221	0.217245
C83	C	0.869372	-0.569480	-0.282745
C84	C	1.369372	-0.069480	0.217255
N85	N	0.904898	-0.771284	-0.266849
N86	N	1.404898	-0.271284	0.233151
N87	N	0.904926	-0.833735	-0.266861
N88	N	1.404926	-0.333735	0.233139
C89	C	0.909726	-0.866096	-0.326115
C90	C	1.409726	-0.366096	0.173885
N91	N	0.914508	-0.833646	-0.385358
N92	N	1.414508	-0.333646	0.114642
N93	N	0.914484	-0.771189	-0.385345
N94	N	1.414484	-0.271189	0.114655
C95	C	0.909675	-0.739307	-0.326092
C96	C	1.409675	-0.239307	0.173908
C97	C	0.949999	-0.970174	-0.369463
C98	C	1.449999	-0.470174	0.130537
C99	C	0.950017	-1.035918	-0.369481
C100	C	1.450017	-0.535918	0.130519
C101	C	0.869547	-1.036064	-0.282824
C102	C	1.369547	-0.536064	0.217176
C103	C	0.869526	-0.970321	-0.282812
C104	C	1.369526	-0.470321	0.217188
C105	C	0.909755	-0.937380	-0.326131
C106	C	1.409755	-0.437380	0.173869
C107	C	1.073848	-0.302989	-0.326109
C108	C	1.573848	0.197011	0.173891
C109	C	1.143816	-0.302977	-0.326117
C110	C	1.643816	0.197023	0.173883
C111	C	0.909693	-0.302979	-0.502632
C112	C	1.409693	0.197021	-0.002632
C113	C	0.909708	-0.302963	-0.577864
C114	C	1.409708	0.197037	-0.077864
C115	C	0.909756	-0.138829	-0.326139
C116	C	1.409756	0.361171	0.173861
C117	C	0.909797	-0.068861	-0.326160
C118	C	1.409797	0.431139	0.173840
C119	C	0.949995	-0.262692	-0.613227
C120	C	1.449995	0.237308	-0.113227
C121	C	0.950001	-0.262674	-0.683915
C122	C	1.450001	0.237326	-0.183915
C123	C	0.909724	-0.302930	-0.719240
C124	C	1.409724	0.197070	-0.219240
C125	C	0.869433	-0.343202	-0.683873
C126	C	1.369433	0.156798	-0.183873
C127	C	0.869424	-0.343217	-0.613186
C128	C	1.369424	0.156783	-0.113186
C129	C	0.869469	-0.343144	-0.968947
C130	C	1.369469	0.156856	-0.468947
C131	C	0.869482	-0.343127	-1.039639
C132	C	1.369482	0.156873	-0.539639
C133	C	0.950046	-0.262600	-1.039676
C134	C	1.450046	0.237400	-0.539676
C135	C	0.950037	-0.262615	-0.968988
C136	C	1.450037	0.237385	-0.468988
C137	C	0.909744	-0.302885	-0.933628
C138	C	1.409744	0.197115	-0.433628
C139	C	0.909737	-0.302903	-0.856979
C140	C	1.409737	0.197097	-0.356979
C141	C	0.909734	-0.302915	-0.795887
C142	C	1.409734	0.197085	-0.295887
C143	C	0.909659	-0.303013	-0.150234
C144	C	1.409659	0.196987	0.349766
C145	C	0.909766	-0.302853	-0.075002
C146	C	1.409766	0.197147	0.424998
H147	H	0.269290	-0.230060	-0.404792
H148	H	0.769290	0.269940	0.095208
H149	H	0.836669	-0.375943	-0.940164
H150	H	1.336669	0.124057	-0.440164
O151	O	0.830533	-1.068158	-0.240767
O152	O	1.330533	-0.568158	0.259233
C153	C	0.794870	-1.169501	-0.202420
C154	C	1.294870	-0.669501	0.297580
C155	C	0.839101	-1.133229	-0.250068
C156	C	1.339101	-0.633229	0.249932
H157	H	0.801772	-1.222117	-0.209934
H158	H	1.301772	-0.722117	0.290066
H159	H	0.805945	-1.156647	-0.147834
H160	H	1.305945	-0.656647	0.352166
H161	H	0.744109	-1.156584	-0.214252
H162	H	1.244109	-0.656584	0.285748
H163	H	0.889877	-1.146126	-0.238297
H164	H	1.389877	-0.646126	0.261703
H165	H	0.827972	-1.146085	-0.304640
H166	H	1.327972	-0.646085	0.195360
O167	O	0.830366	-0.382286	-0.718290
O168	O	1.330366	0.117714	-0.218290
C169	C	0.794646	-0.417928	-0.827169
C170	C	1.294646	0.082072	-0.327169
C171	C	0.838932	-0.373642	-0.788278
C172	C	1.338932	0.126358	-0.288278
H173	H	0.801547	-0.410945	-0.883761
H174	H	1.301547	0.089055	-0.383761
H175	H	0.805667	-0.468701	-0.813306
H176	H	1.305667	0.031299	-0.313306
H177	H	0.743899	-0.406890	-0.813224
H178	H	1.243899	0.093110	-0.313224
H179	H	0.889694	-0.384623	-0.802202
H180	H	1.389694	0.115377	-0.302202
H181	H	0.827857	-0.322881	-0.802144
H182	H	1.327857	0.177119	-0.302144
O183	O	0.830415	-0.938560	-0.240654
O184	O	1.330415	-0.438560	0.259346
C185	C	0.750580	-0.945645	-0.154732
C186	C	1.250580	-0.445645	0.345268
C187	C	0.794854	-0.981692	-0.202431
C188	C	1.294854	-0.481692	0.297569
H189	H	0.721808	-0.980501	-0.123826
H190	H	1.221808	-0.480501	0.376174
H191	H	0.779460	-0.914873	-0.119319
H192	H	1.279460	-0.414873	0.380681
H193	H	0.717663	-0.914867	-0.185779
H194	H	1.217663	-0.414867	0.314221
H195	H	0.827781	-1.012504	-0.171438
H196	H	1.327781	-0.512504	0.328562
H197	H	0.765935	-1.012424	-0.237845
H198	H	1.265935	-0.512424	0.262155
H199	H	0.982837	-0.229836	-0.940230
H200	H	1.482837	0.270164	-0.440230
H201	H	0.836612	-0.376003	-0.584395
H202	H	1.336612	0.123997	-0.084395
O203	O	0.274281	-0.382175	-0.240549
O204	O	0.774281	0.117825	0.259451
C205	C	0.348494	-0.390551	-0.149174
C206	C	0.848494	0.109449	0.350826
C207	C	0.312389	-0.346343	-0.196909
C208	C	0.812389	0.153657	0.303091
H209	H	0.379323	-0.361599	-0.113889
H210	H	0.879323	0.138401	0.386111
H211	H	0.313698	-0.419271	-0.118133
H212	H	0.813698	0.080729	0.381867
H213	H	0.379224	-0.423520	-0.180199
H214	H	0.879224	0.076480	0.319801
H215	H	0.281659	-0.313335	-0.165936
H216	H	0.781659	0.186665	0.334064
H217	H	0.347219	-0.317667	-0.227952
H218	H	0.847219	0.182333	0.272048
H219	H	0.982852	-0.229808	-1.068475
H220	H	1.482852	0.270192	-0.568475
O221	O	0.144627	-0.382310	-0.240721
O222	O	0.644627	0.117690	0.259279
C223	C	0.070292	-0.467251	-0.231452
C224	C	0.570292	0.032749	0.268548
C225	C	0.106513	-0.422998	-0.279124
C226	C	0.606513	0.077002	0.220876
H227	H	0.039459	-0.500150	-0.262481
H228	H	0.539459	-0.000150	0.237519
H229	H	0.105013	-0.496038	-0.200468
H230	H	0.605013	0.003962	0.299532
H231	H	0.039557	-0.438290	-0.196105
H232	H	0.539557	0.061710	0.303895
H233	H	0.137250	-0.451911	-0.314512
H234	H	0.637250	0.048089	0.185488
H235	H	0.071759	-0.394209	-0.310061
H236	H	0.571759	0.105791	0.189939
O237	O	0.989026	-1.067801	-0.411643
O238	O	1.489026	-0.567801	0.088357
C239	C	0.997483	-1.141981	-0.503023
C240	C	1.497483	-0.641981	-0.003023
C241	C	0.953233	-1.105902	-0.455328
C242	C	1.453233	-0.605902	0.044672
H243	H	0.968564	-1.172804	-0.538345
H244	H	1.468564	-0.672804	-0.038345
H245	H	1.026219	-1.107169	-0.534027
H246	H	1.526219	-0.607169	-0.034027
H247	H	1.030437	-1.172715	-0.471970
H248	H	1.530437	-0.672715	0.028030
H249	H	0.920242	-1.075168	-0.486329
H250	H	1.420242	-0.575168	0.013671
H251	H	0.924542	-1.140749	-0.424321
H252	H	1.424542	-0.640749	0.075679
O253	O	0.830292	-0.382251	-1.073850
O254	O	1.330292	0.117749	-0.573850
C255	C	0.750400	-0.462148	-1.066358
C256	C	1.250400	0.037852	-0.566358
C257	C	0.794735	-0.417865	-1.027530
C258	C	1.294735	0.082135	-0.527530
H259	H	0.721650	-0.490962	-1.028925
H260	H	1.221650	0.009038	-0.528925
H261	H	0.717469	-0.433272	-1.099438
H262	H	1.217469	0.066728	-0.599438
H263	H	0.779295	-0.495026	-1.099464
H264	H	1.279295	0.004974	-0.599464
H265	H	0.765891	-0.384978	-0.994387
H266	H	1.265891	0.115022	-0.494387
H267	H	0.827667	-0.446779	-0.994492
H268	H	1.327667	0.053221	-0.494492
O269	O	0.545675	-0.223733	-0.411489
O270	O	1.045675	0.276267	0.088511
C271	C	0.471501	-0.138774	-0.420785
C272	C	0.971501	0.361226	0.079215
C273	C	0.507607	-0.183029	-0.373099
C274	C	1.007607	0.316971	0.126901
H275	H	0.440704	-0.105862	-0.389767
H276	H	0.940704	0.394138	0.110233
H277	H	0.506297	-0.110001	-0.451769
H278	H	1.006297	0.389999	0.048231
H279	H	0.440739	-0.167733	-0.456132
H280	H	0.940739	0.332267	0.043868
H281	H	0.538369	-0.154118	-0.337712
H282	H	1.038369	0.345882	0.162288
H283	H	0.472777	-0.211804	-0.342163
H284	H	0.972777	0.288196	0.157837
H285	H	0.670128	-0.230140	-0.404764
H286	H	1.170128	0.269860	0.095236
H287	H	0.982639	-0.661779	-0.404695
H288	H	1.482639	-0.161779	0.095305
O289	O	0.545561	-0.382402	-0.240628
O290	O	1.045561	0.117598	0.259372
C291	C	0.525304	-0.489439	-0.207591
C292	C	1.025304	0.010561	0.292409
C293	C	0.561496	-0.445185	-0.255288
C294	C	1.061496	0.054815	0.244712
H295	H	0.538165	-0.540209	-0.219436
H296	H	1.038165	-0.040209	0.280564
H297	H	0.538230	-0.478371	-0.153023
H298	H	1.038230	0.021629	0.346977
H299	H	0.472684	-0.482494	-0.215036
H300	H	0.972684	0.017506	0.284964
H301	H	0.614125	-0.452106	-0.247904
H302	H	1.114125	0.047894	0.252096
H303	H	0.548519	-0.456264	-0.309839
H304	H	1.048519	0.043736	0.190161
O305	O	0.675162	-0.382366	-0.240673
O306	O	1.175162	0.117634	0.259327
C307	C	0.749270	-0.467385	-0.231402
C308	C	1.249270	0.032615	0.268598
C309	C	0.713141	-0.423142	-0.279079
C310	C	1.213141	0.076858	0.220921
H311	H	0.779975	-0.500372	-0.262434
H312	H	1.279975	-0.000372	0.237566
H313	H	0.780108	-0.438483	-0.196077
H314	H	1.280108	0.061517	0.303923
H315	H	0.714433	-0.496085	-0.200394
H316	H	1.214433	0.003915	0.299606
H317	H	0.747932	-0.394432	-0.310131
H318	H	1.247932	0.105568	0.189869
H319	H	0.682293	-0.452080	-0.314359
H320	H	1.182293	0.047920	0.185641
O321	O	0.988999	-0.938197	-0.411645
O322	O	1.488999	-0.438197	0.088355
C323	C	1.019496	-0.917997	-0.526806
C324	C	1.519496	-0.417997	-0.026806
C325	C	0.975283	-0.954237	-0.479112
C326	C	1.475283	-0.454237	0.020888
H327	H	1.008431	-0.930962	-0.581362
H328	H	1.508431	-0.430962	-0.081362
H329	H	1.012563	-0.865369	-0.519411
H330	H	1.512563	-0.365369	-0.019411
H331	H	1.070264	-0.930862	-0.514945
H332	H	1.570264	-0.430862	-0.014945
H333	H	0.924498	-0.941424	-0.490944
H334	H	1.424498	-0.441424	0.009056
H335	H	0.982271	-1.006856	-0.486516
H336	H	1.482271	-0.506856	0.013484
O337	O	0.144962	-0.223698	-0.411673
O338	O	0.644962	0.276302	0.088327
C339	C	0.152010	-0.143922	-0.497678
C340	C	0.652010	0.356078	0.002322
C341	C	0.188077	-0.188158	-0.449938
C342	C	0.688077	0.311842	0.050062
H343	H	0.186852	-0.115167	-0.528618
H344	H	0.686852	0.384833	-0.028618
H345	H	0.121232	-0.172832	-0.533056
H346	H	0.621232	0.327168	-0.033056
H347	H	0.121237	-0.110987	-0.466660
H348	H	0.621237	0.389013	0.033340
H349	H	0.218884	-0.221102	-0.480901
H350	H	0.718884	0.278898	0.019099
H351	H	0.218816	-0.159209	-0.414558
H352	H	0.718816	0.340791	0.085442
O353	O	0.988943	-0.537431	-0.411534
O354	O	1.488943	-0.037431	0.088466
C355	C	1.068792	-0.544227	-0.497449
C356	C	1.568792	-0.044227	0.002551
C357	C	1.024540	-0.580434	-0.449767
C358	C	1.524540	-0.080434	0.050233
H359	H	1.097593	-0.578979	-0.528363
H360	H	1.597593	-0.078979	-0.028363
H361	H	1.039894	-0.513478	-0.532856
H362	H	1.539894	-0.013478	-0.032856
H363	H	1.101684	-0.513413	-0.466389
H364	H	1.601684	-0.013413	0.033611
H365	H	0.991639	-0.611283	-0.480773
H366	H	1.491639	-0.111283	0.019227
H367	H	1.053478	-0.611144	-0.414359
H368	H	1.553478	-0.111144	0.085641
O369	O	0.830299	-0.667292	-0.240766
O370	O	1.330299	-0.167292	0.259234
C371	C	0.745319	-0.741593	-0.231591
C372	C	1.245319	-0.241593	0.268409
C373	C	0.789573	-0.705324	-0.279218
C374	C	1.289573	-0.205324	0.220782
H375	H	0.712373	-0.772341	-0.262661
H376	H	1.212373	-0.272341	0.237339
H377	H	0.774217	-0.772401	-0.196242
H378	H	1.274217	-0.272401	0.303758
H379	H	0.716577	-0.706847	-0.200606
H380	H	1.216577	-0.206847	0.299394
H381	H	0.818325	-0.740025	-0.310247
H382	H	1.318325	-0.240025	0.189753
H383	H	0.760640	-0.674507	-0.314522
H384	H	1.260640	-0.174507	0.185478
H385	H	0.836597	-0.542780	-0.247463
H386	H	1.336597	-0.042780	0.252537
O387	O	0.989197	-0.223537	-0.718161
O388	O	1.489197	0.276463	-0.218161
C389	C	1.069086	-0.143643	-0.710738
C390	C	1.569086	0.356357	-0.210738
C391	C	1.024738	-0.187946	-0.671871
C392	C	1.524738	0.312054	-0.171871
H393	H	1.097823	-0.114847	-0.673330
H394	H	1.597823	0.385153	-0.173330
H395	H	1.102028	-0.172503	-0.743812
H396	H	1.602028	0.327497	-0.243812
H397	H	1.040202	-0.110750	-0.743854
H398	H	1.540202	0.389250	-0.243854
H399	H	1.053571	-0.220848	-0.638719
H400	H	1.553571	0.279152	-0.138719
H401	H	0.991794	-0.159047	-0.638840
H402	H	1.491794	0.340953	-0.138840
H403	H	0.982795	-0.229912	-0.584470
H404	H	1.482795	0.270088	-0.084470
