data_functionalizedCrystal
_audit_creation_method	'MofGen! by Chris Wilmer'
_symmetry_space_group_name_H-M	'P1'
_symmetry_Int_Tables_number	1
_symmetry_cell_setting	triclinic
loop_
_symmetry_equiv_pos_as_xyz
  x,y,z
_cell_length_a	14.853569
_cell_length_b	10.868271
_cell_length_c	14.853567
_cell_angle_alpha	89.998659
_cell_angle_beta	96.364752
_cell_angle_gamma	90.002343
loop_
_atom_site_label
_atom_site_type_symbol
_atom_site_fract_x
_atom_site_fract_y
_atom_site_fract_z
O1	O	1.196364	0.102255	-0.117711
O2	O	1.529697	0.435589	0.215622
O3	O	1.863030	0.768922	0.548955
O4	O	0.933904	0.102269	-0.131731
O5	O	1.267238	0.435602	0.201602
O6	O	1.600571	0.768936	0.534935
O7	O	1.072145	0.102265	0.006508
O8	O	1.405478	0.435599	0.339842
O9	O	1.738811	0.768932	0.673175
O10	O	1.058123	0.102259	-0.255951
O11	O	1.391457	0.435592	0.077382
O12	O	1.724790	0.768925	0.410716
O13	O	1.072133	-0.102379	0.006514
O14	O	1.405467	0.230954	0.339847
O15	O	1.738800	0.564287	0.673180
O16	O	0.933893	-0.102376	-0.131726
O17	O	1.267226	0.230958	0.201607
O18	O	1.600560	0.564291	0.534941
O19	O	1.196352	-0.102389	-0.117706
O20	O	1.529686	0.230944	0.215627
O21	O	1.863019	0.564277	0.548961
Zn22	Zn	1.065121	-0.134874	-0.124715
Zn23	Zn	1.398454	0.198459	0.208618
Zn24	Zn	1.731787	0.531792	0.541952
Zn25	Zn	1.065136	0.134754	-0.124722
Zn26	Zn	1.398469	0.468087	0.208611
Zn27	Zn	1.731802	0.801420	0.541944
O28	O	1.058112	-0.102386	-0.255946
O29	O	1.391445	0.230947	0.077388
O30	O	1.724779	0.564281	0.410721
C31	C	0.900310	-0.000052	-0.131093
C32	C	1.233643	0.333282	0.202240
C33	C	1.566977	0.666615	0.535574
C34	C	0.800226	-0.000046	-0.129189
C35	C	1.133560	0.333287	0.204145
C36	C	1.466893	0.666621	0.537478
N37	N	1.065117	-0.318888	-0.124710
N38	N	1.398450	0.014445	0.208624
N39	N	1.731784	0.347778	0.541957
C40	C	0.763850	-0.000039	-0.046178
C41	C	1.097183	0.333294	0.287155
C42	C	1.430516	0.666627	0.620489
C43	C	0.742560	-0.000057	-0.210410
C44	C	1.075894	0.333276	0.122923
C45	C	1.409227	0.666609	0.456256
C46	C	0.648526	-0.000059	-0.208624
C47	C	0.981859	0.333275	0.124709
C48	C	1.315193	0.666608	0.458043
C49	C	0.612150	-0.000052	-0.125613
C50	C	0.945483	0.333281	0.207720
C51	C	1.278816	0.666614	0.541053
C52	C	0.669807	-0.000044	-0.044389
C53	C	1.003140	0.333289	0.288945
C54	C	1.336474	0.666622	0.622278
C55	C	0.590862	-0.000079	-0.289847
C56	C	0.924195	0.333254	0.043486
C57	C	1.257528	0.666588	0.376820
C58	C	0.496821	-0.000082	-0.288064
C59	C	0.830155	0.333251	0.045270
C60	C	1.163488	0.666585	0.378603
C61	C	0.460443	-0.000067	-0.205052
C62	C	0.793776	0.333267	0.128282
C63	C	1.127110	0.666600	0.461615
C64	C	0.518107	-0.000057	-0.123824
C65	C	0.851440	0.333276	0.209509
C66	C	1.184774	0.666609	0.542843
C67	C	0.481730	-0.000051	-0.040813
C68	C	0.815064	0.333282	0.292520
C69	C	1.148397	0.666616	0.625853
C70	C	0.539393	-0.000033	0.040415
C71	C	0.872726	0.333300	0.373749
C72	C	1.206059	0.666634	0.707082
C73	C	0.633429	-0.000029	0.038623
C74	C	0.966762	0.333304	0.371956
C75	C	1.300096	0.666637	0.705290
C76	C	0.366407	-0.000070	-0.203259
C77	C	0.699740	0.333263	0.130074
C78	C	1.033073	0.666596	0.463407
C79	C	0.387688	-0.000056	-0.039024
C80	C	0.721021	0.333277	0.294309
C81	C	1.054354	0.666611	0.627643
C82	C	1.065131	-0.569894	-0.124720
C83	C	1.398464	-0.236561	0.208613
C84	C	1.731798	0.096772	0.541946
C85	C	1.065120	-0.430217	-0.124717
C86	C	1.398454	-0.096884	0.208616
C87	C	1.731787	0.236450	0.541950
C88	C	1.229947	-0.000066	-0.118344
C89	C	1.563280	0.333267	0.214989
C90	C	1.896613	0.666600	0.548322
C91	C	1.330030	-0.000064	-0.120249
C92	C	1.663364	0.333270	0.213085
C93	C	1.996697	0.666603	0.546418
C94	C	1.071504	-0.000053	0.040100
C95	C	1.404837	0.333280	0.373433
C96	C	1.738170	0.666613	0.706766
C97	C	1.069600	-0.000043	0.140183
C98	C	1.402933	0.333291	0.473517
C99	C	1.736266	0.666624	0.806850
N100	N	1.065147	0.318768	-0.124720
N101	N	1.398480	0.652101	0.208613
N102	N	1.731813	0.985435	0.541946
C103	C	1.058753	-0.000065	-0.289537
C104	C	1.392086	0.333269	0.043796
C105	C	1.725420	0.666602	0.377130
C106	C	1.060657	-0.000067	-0.389621
C107	C	1.393990	0.333266	-0.056287
C108	C	1.727323	0.666599	0.277046
C109	C	0.979434	-0.000061	0.552718
C110	C	1.312768	0.333272	0.886051
C111	C	1.646101	0.666605	1.219384
C112	C	1.143667	-0.000070	0.573998
C113	C	1.477000	0.333264	0.907331
C114	C	1.810334	0.666597	1.240665
C115	C	1.145457	-0.000063	0.479964
C116	C	1.478790	0.333271	0.813297
C117	C	1.812124	0.666604	1.146631
C118	C	1.064234	-0.000057	0.422303
C119	C	1.397568	0.333277	0.755636
C120	C	1.730901	0.666610	1.088969
C121	C	0.981222	-0.000058	0.458675
C122	C	1.314555	0.333276	0.792008
C123	C	1.647888	0.666609	1.125342
C124	C	1.228468	-0.000074	0.443585
C125	C	1.561801	0.333260	0.776918
C126	C	1.895135	0.666593	1.110251
C127	C	1.230262	-0.000068	0.349545
C128	C	1.563595	0.333265	0.682879
C129	C	1.896928	0.666599	1.016212
C130	C	1.149038	-0.000053	0.291882
C131	C	1.482371	0.333280	0.625216
C132	C	1.815705	0.666613	0.958549
C133	C	1.066022	-0.000053	0.328260
C134	C	1.399355	0.333280	0.661593
C135	C	1.732689	0.666614	0.994927
C136	C	0.984800	-0.000047	0.270599
C137	C	1.318133	0.333286	0.603932
C138	C	1.651466	0.666619	0.937265
C139	C	0.901783	-0.000038	0.306974
C140	C	1.235116	0.333295	0.640308
C141	C	1.568449	0.666628	0.973641
C142	C	0.899998	-0.000043	0.401012
C143	C	1.233332	0.333290	0.734345
C144	C	1.566665	0.666624	1.067678
C145	C	1.150822	-0.000048	0.197845
C146	C	1.484156	0.333285	0.531178
C147	C	1.817489	0.666618	0.864512
C148	C	0.986587	-0.000044	0.176556
C149	C	1.319921	0.333290	0.509889
C150	C	1.653254	0.666623	0.843222
H151	H	0.358078	-0.000044	0.028574
H152	H	0.691411	0.333289	0.361907
H153	H	1.024745	0.666623	0.695241
Cl154	Cl	0.493651	-0.000036	0.144768
Cl155	Cl	0.826984	0.333297	0.478101
Cl156	Cl	1.160317	0.666630	0.811434
Cl157	Cl	0.705922	-0.000021	0.140729
Cl158	Cl	1.039256	0.333312	0.474062
Cl159	Cl	1.372589	0.666646	0.807395
H160	H	0.810802	-0.000020	0.019956
H161	H	1.144136	0.333313	0.353290
H162	H	1.477469	0.666647	0.686623
H163	H	0.920445	-0.000034	0.129613
H164	H	1.253778	0.333300	0.462946
H165	H	1.587111	0.666633	0.796280
Cl166	Cl	0.795644	-0.000028	0.446748
Cl167	Cl	1.128978	0.333305	0.780081
Cl168	Cl	1.462311	0.666638	1.113414
H169	H	0.319463	-0.000096	-0.269395
H170	H	0.652796	0.333238	0.063939
H171	H	0.986129	0.666571	0.397272
H172	H	0.835651	-0.000042	0.260014
H173	H	1.168985	0.333291	0.593348
H174	H	1.502318	0.666625	0.926681
H175	H	1.209794	-0.000084	0.620951
H176	H	1.543128	0.333249	0.954284
H177	H	1.876461	0.666582	1.287618
Cl178	Cl	1.330569	-0.000108	0.516076
Cl179	Cl	1.663902	0.333226	0.849409
Cl180	Cl	1.997236	0.666559	1.182742
Cl181	Cl	0.424341	-0.000094	-0.390177
Cl182	Cl	0.757674	0.333239	-0.056844
Cl183	Cl	1.091007	0.666572	0.276489
Cl184	Cl	0.788292	-0.000068	-0.314761
Cl185	Cl	1.121626	0.333266	0.018572
Cl186	Cl	1.454959	0.666599	0.351906
Cl187	Cl	0.875075	-0.000038	0.598445
Cl188	Cl	1.208409	0.333295	0.931778
Cl189	Cl	1.541742	0.666629	1.265111
H190	H	1.297859	-0.000074	0.319937
H191	H	1.631192	0.333260	0.653270
H192	H	1.964525	0.666593	0.986604
H193	H	1.218413	-0.000064	0.168232
H194	H	1.551747	0.333270	0.501565
H195	H	1.885080	0.666603	0.834898
H196	H	0.620487	-0.000092	-0.357430
H197	H	0.953820	0.333241	-0.024097
H198	H	1.287154	0.666574	0.309237
