data_functionalizedCrystal
_audit_creation_method	'MofGen! by Chris Wilmer'
_symmetry_space_group_name_H-M	'P1'
_symmetry_Int_Tables_number	1
_symmetry_cell_setting	triclinic
loop_
_symmetry_equiv_pos_as_xyz
  x,y,z
_cell_length_a	16.959455
_cell_length_b	21.295417
_cell_length_c	16.959447
_cell_angle_alpha	89.964725
_cell_angle_beta	89.977004
_cell_angle_gamma	90.027526
loop_
_atom_site_label
_atom_site_type_symbol
_atom_site_fract_x
_atom_site_fract_y
_atom_site_fract_z
Zn1	Zn	1.208347	-0.250646	-0.447010
Zn2	Zn	1.208239	-0.355923	-0.314820
Zn3	Zn	1.076169	-0.250666	-0.314833
Zn4	Zn	1.076116	-0.355876	-0.446944
O5	O	1.142218	-0.303278	-0.380902
O6	O	1.318944	-0.264623	-0.429496
O7	O	1.190697	-0.341989	-0.204211
O8	O	1.093770	-0.162574	-0.332399
O9	O	1.318864	-0.341969	-0.332377
O10	O	1.190881	-0.162560	-0.429509
O11	O	1.093666	-0.264657	-0.204220
O12	O	0.965551	-0.264611	-0.332336
O13	O	1.093679	-0.341889	-0.557564
O14	O	0.965512	-0.341908	-0.429398
O15	O	1.190829	-0.264577	-0.557612
O16	O	1.190646	-0.444006	-0.332313
O17	O	1.093575	-0.443972	-0.429385
C18	C	0.936852	-0.303257	-0.380862
C19	C	0.848995	-0.303264	-0.380864
C20	C	0.477468	-0.343512	-0.330306
C21	C	0.477571	-0.263096	-0.431594
C22	C	0.560117	-0.263085	-0.431574
C23	C	0.601342	-0.303290	-0.380921
C24	C	0.560021	-0.343505	-0.330287
C25	C	0.601444	-0.222876	-0.482213
C26	C	0.683995	-0.222864	-0.482197
C27	C	0.725222	-0.263066	-0.431539
C28	C	0.683896	-0.303282	-0.380902
C29	C	0.725121	-0.343486	-0.330248
C30	C	0.683796	-0.383700	-0.279607
C31	C	0.601248	-0.383706	-0.279629
C32	C	0.807770	-0.263059	-0.431517
C33	C	0.807674	-0.343479	-0.330229
C34	C	1.142114	-0.466830	-0.380858
C35	C	1.142142	-0.536798	-0.380866
C36	C	1.192732	-0.569661	-0.330372
C37	C	1.192769	-0.635404	-0.330390
C38	C	1.142202	-0.668280	-0.380893
C39	C	1.091609	-0.635409	-0.431396
C40	C	1.091579	-0.569667	-0.431382
N41	N	1.073056	-0.771543	-0.386905
N42	N	1.073087	-0.833994	-0.386914
C43	C	1.142291	-0.866355	-0.380938
N44	N	1.211465	-0.833905	-0.374939
N45	N	1.211433	-0.771448	-0.374926
C46	C	1.142230	-0.739566	-0.380914
C47	C	1.192925	-0.970504	-0.330462
C48	C	1.192963	-1.036248	-0.330485
C49	C	1.091796	-1.036251	-0.431487
C50	C	1.091765	-0.970509	-0.431467
C51	C	1.142328	-0.937639	-0.380951
C52	C	1.348386	-0.303299	-0.380942
C53	C	1.436243	-0.303308	-0.380959
C54	C	1.142260	-0.303226	-0.587070
C55	C	1.142278	-0.303203	-0.674927
C56	C	1.142343	-0.139088	-0.380963
C57	C	1.142397	-0.069120	-0.380989
C58	C	1.091828	-0.262874	-1.046414
C59	C	1.192868	-0.343400	-1.046391
C60	C	1.192854	-0.343415	-0.963845
C61	C	1.142326	-0.303159	-0.922580
C62	C	1.091811	-0.262889	-0.963860
C63	C	1.243362	-0.383689	-0.922559
C64	C	1.243349	-0.383706	-0.840008
C65	C	1.192825	-0.343446	-0.798741
C66	C	1.142309	-0.303174	-0.840026
C67	C	1.091781	-0.262918	-0.798761
C68	C	1.041268	-0.222642	-0.840045
C69	C	1.041287	-0.222629	-0.922593
C70	C	1.192806	-0.343459	-0.716192
C71	C	1.091764	-0.262933	-0.716207
C72	C	1.142221	-0.303285	-0.175535
C73	C	1.142356	-0.303130	-0.087679
H74	H	0.717635	-0.190120	-0.523432
H75	H	1.233938	-0.376247	-0.682582
H76	H	1.050621	-0.230148	-0.682615
Br77	Br	1.023284	-0.208212	-1.102438
Br78	Br	1.261635	-1.080850	-0.261960
Br79	Br	0.545160	-0.438277	-0.210908
Br80	Br	0.863616	-0.398039	-0.261475
H81	H	1.233905	-0.542901	-0.289241
H82	H	0.567873	-0.190148	-0.523458
Br83	Br	1.022918	-0.525063	-0.499916
Br84	Br	0.972697	-0.168012	-0.784032
H85	H	0.444001	-0.230367	-0.472838
Br86	Br	0.739754	-0.438267	-0.210873
Br87	Br	0.421389	-0.398080	-0.261576
Br88	Br	1.261429	-0.398038	-1.102394
Br89	Br	0.863850	-0.208494	-0.500245
H90	H	1.233968	-0.662167	-0.289273
Br91	Br	1.022989	-0.680024	-0.499942
Br92	Br	1.261541	-0.925892	-0.261903
H93	H	1.050628	-1.063018	-0.472610
Br94	Br	1.023102	-0.925905	-0.499996
H95	H	1.000161	-0.189839	-0.956214
H96	H	1.284479	-0.416502	-0.806401
H97	H	1.284490	-0.416470	-0.956163
