data_functionalizedCrystal
_audit_creation_method	'MofGen! by Chris Wilmer'
_symmetry_space_group_name_H-M	'P1'
_symmetry_Int_Tables_number	1
_symmetry_cell_setting	triclinic
loop_
_symmetry_equiv_pos_as_xyz
  x,y,z
_cell_length_a	6.817900
_cell_length_b	12.257928
_cell_length_c	12.095703
_cell_angle_alpha	86.697738
_cell_angle_beta	105.446920
_cell_angle_gamma	72.012007
loop_
_atom_site_label
_atom_site_type_symbol
_atom_site_fract_x
_atom_site_fract_y
_atom_site_fract_z
V1	V	-4.088057	0.357774	-0.158964
O2	O	-4.064307	0.350846	0.007380
O3	O	-4.048866	0.355441	-0.314950
O4	O	-4.061960	0.513760	-0.156632
O5	O	-4.051123	0.191430	-0.152033
V6	V	-4.567602	0.337864	-0.139054
O7	O	-4.358042	0.401448	-0.202638
O8	O	-4.747815	0.294191	-0.095379
O9	O	-4.383587	0.340198	0.016932
O10	O	-4.708749	0.344793	-0.305398
O11	O	-4.721934	0.504208	-0.145984
O12	O	-4.370493	0.181878	-0.141385
C13	C	-3.912086	0.551777	-0.151021
C14	C	-3.972093	0.679297	-0.150147
C15	C	-3.895385	0.349826	-0.352972
C16	C	-3.944777	0.348957	-0.480493
C17	C	-4.081916	0.912769	-0.148548
C18	C	-4.020794	0.782848	-0.149437
C19	C	-4.200410	0.345810	0.054948
C20	C	-4.130258	0.346686	0.182468
C21	C	-4.001754	0.348257	0.415945
C22	C	-4.073254	0.347382	0.286022
C23	C	-4.190671	1.143855	-0.146994
C24	C	-4.130653	1.016331	-0.147844
