data_functionalizedCrystal
_audit_creation_method	'MofGen! by Chris Wilmer'
_symmetry_space_group_name_H-M	'P1'
_symmetry_Int_Tables_number	1
_symmetry_cell_setting	triclinic
loop_
_symmetry_equiv_pos_as_xyz
  x,y,z
_cell_length_a	18.050590
_cell_length_b	12.759399
_cell_length_c	12.759393
_cell_angle_alpha	90.031355
_cell_angle_beta	89.992932
_cell_angle_gamma	89.987198
loop_
_atom_site_label
_atom_site_type_symbol
_atom_site_fract_x
_atom_site_fract_y
_atom_site_fract_z
Zn1	Zn	1.135373	0.418519	-0.593625
Zn2	Zn	1.135277	0.594235	-0.417942
Zn3	Zn	1.011176	0.418537	-0.418003
Zn4	Zn	1.011151	0.594124	-0.593622
O5	O	1.073244	0.506354	-0.505798
O6	O	1.239285	0.441868	-0.570296
O7	O	1.118785	0.570982	-0.270929
O8	O	1.027702	0.271514	-0.441326
O9	O	1.239214	0.570965	-0.441223
O10	O	1.118949	0.271501	-0.570354
O11	O	1.027608	0.441898	-0.270973
O12	O	0.907248	0.441790	-0.441323
O13	O	1.027659	0.570775	-0.740644
O14	O	0.907229	0.570793	-0.570350
O15	O	1.118925	0.441760	-0.740646
O16	O	1.118761	0.741241	-0.441220
O17	O	1.027565	0.741159	-0.570291
C18	C	0.880292	0.506282	-0.505843
C19	C	0.797746	0.506277	-0.505887
C20	C	0.598307	0.576629	-0.575886
C21	C	0.548911	0.480828	-0.601735
C22	C	0.646616	0.506335	-0.505836
C23	C	0.548930	0.602191	-0.479986
C24	C	0.500631	0.506401	-0.505789
C25	C	0.598307	0.410484	-0.531736
C26	C	0.598331	0.531911	-0.409942
C27	C	0.548957	0.436044	-0.435755
C28	C	0.730714	0.506299	-0.505866
C29	C	0.416534	0.506426	-0.505758
C30	C	1.073170	0.779321	-0.505772
C31	C	1.073206	0.896098	-0.505796
C32	C	1.120692	0.950863	-0.573037
C33	C	1.120722	1.060587	-0.573063
C34	C	1.025777	1.060771	-0.438597
C35	C	1.025745	0.951049	-0.438577
C36	C	1.266950	0.506427	-0.505753
C37	C	1.349496	0.506458	-0.505734
C38	C	1.073311	1.232321	-0.505840
C39	C	1.073268	1.115544	-0.505841
C40	C	1.073300	0.506253	-0.779831
C41	C	1.073324	0.506210	-0.896608
C42	C	1.120849	0.439021	-0.951473
C43	C	1.120862	0.438976	-1.061197
C44	C	1.025821	0.573318	-1.061182
C45	C	1.025805	0.573357	-0.951460
C46	C	1.073232	0.506379	-0.232831
C47	C	1.073352	0.506126	-0.116054
H48	H	0.527204	0.459217	-0.682811
N49	N	0.520200	0.709529	-0.451038
H50	H	0.538154	0.762540	-0.504020
H51	H	0.538959	0.729270	-0.379120
N52	N	1.172101	0.366606	-0.892309
H53	H	1.141938	0.317924	-0.846788
H54	H	1.206482	0.409422	-0.846842
N55	N	0.626904	0.303109	-0.560809
H56	H	0.608531	0.249976	-0.508237
H57	H	0.682853	0.303847	-0.560696
H58	H	1.159337	0.906124	-0.627772
H59	H	0.987099	0.628070	-0.906788
H60	H	0.619978	0.635970	-0.635191
N61	N	1.172129	0.366516	-1.120370
H62	H	1.164930	0.376674	-1.198202
H63	H	1.160599	0.291483	-1.101203
H64	H	0.987072	0.906456	-0.383821
N65	N	0.520435	0.357251	-0.357259
H66	H	0.488917	0.303412	-0.394405
H67	H	0.489667	0.394453	-0.302576
N68	N	1.171930	1.119636	-0.645614
H69	H	1.224995	1.100509	-0.629352
H70	H	1.164691	1.197468	-0.635418
N71	N	0.627100	0.560576	-0.302575
H72	H	0.658690	0.625693	-0.307757
H73	H	0.657850	0.500892	-0.274117
N74	N	0.974596	1.120040	-0.366090
H75	H	0.981825	1.197859	-0.376299
H76	H	0.986182	1.100898	-0.291066
N77	N	0.974560	0.645722	-1.120344
H78	H	0.981778	0.635499	-1.198178
H79	H	0.986076	0.720774	-1.101157
