data_functionalizedCrystal
_audit_creation_method	'MofGen! by Chris Wilmer'
_symmetry_space_group_name_H-M	'P1'
_symmetry_Int_Tables_number	1
_symmetry_cell_setting	triclinic
loop_
_symmetry_equiv_pos_as_xyz
  x,y,z
_cell_length_a	12.759401
_cell_length_b	16.120484
_cell_length_c	12.759393
_cell_angle_alpha	92.863686
_cell_angle_beta	89.981827
_cell_angle_gamma	92.925560
loop_
_atom_site_label
_atom_site_type_symbol
_atom_site_fract_x
_atom_site_fract_y
_atom_site_fract_z
Zn1	Zn	1.584968	-0.331860	-0.615146
Zn2	Zn	1.575920	-0.471296	-0.448359
Zn3	Zn	1.409268	-0.331902	-0.439488
Zn4	Zn	1.400320	-0.471234	-0.623996
O5	O	1.492619	-0.401573	-0.531747
O6	O	1.730788	-0.350365	-0.593030
O7	O	1.553772	-0.452848	-0.300164
O8	O	1.440107	-0.215231	-0.455373
O9	O	1.724141	-0.452808	-0.470492
O10	O	1.569192	-0.215200	-0.584428
O11	O	1.431334	-0.350436	-0.293647
O12	O	1.261061	-0.350376	-0.463955
O13	O	1.424855	-0.452702	-0.769841
O14	O	1.254486	-0.452742	-0.599512
O15	O	1.560515	-0.350305	-0.763339
O16	O	1.545095	-0.587953	-0.479074
O17	O	1.416082	-0.587907	-0.608114
C18	C	1.219653	-0.401557	-0.531732
C19	C	1.102875	-0.401571	-0.531752
C20	C	1.044612	-0.454959	-0.602231
C21	C	0.934887	-0.454969	-0.602243
C22	C	0.941699	-0.348202	-0.461288
C23	C	1.051422	-0.348188	-0.461282
C24	C	1.096065	-0.508342	-0.672701
C25	C	1.037801	-0.561734	-0.743185
C26	C	0.928077	-0.561745	-0.743197
C27	C	0.876616	-0.508363	-0.672725
C28	C	1.478664	-0.618180	-0.545540
C29	C	1.472791	-0.710846	-0.551476
C30	C	1.462073	-0.880506	-0.562334
C31	C	1.523354	-0.921799	-0.501178
C32	C	1.517390	-1.016204	-0.507220
C33	C	1.468035	-0.786093	-0.556294
C34	C	1.766651	-0.401589	-0.531763
C35	C	1.883427	-0.401596	-0.531770
C36	C	1.492696	-0.401492	-0.805776
C37	C	1.492729	-0.401457	-0.922550
C38	C	1.506657	-0.184120	-0.517924
C39	C	1.512639	-0.091454	-0.512033
C40	C	1.422148	-0.454723	-1.090521
C41	C	1.422114	-0.454753	-0.980799
C42	C	1.563376	-0.348121	-0.974029
C43	C	1.563405	-0.348087	-1.083749
C44	C	1.351535	-0.508028	-1.148765
C45	C	1.280887	-0.561363	-1.097294
C46	C	1.280852	-0.561394	-0.987572
C47	C	1.351467	-0.508089	-0.929321
C48	C	1.492606	-0.401593	-0.258781
C49	C	1.492792	-0.401393	-0.141992
H50	H	1.079709	-0.605191	-0.800567
H51	H	1.405133	-0.916053	-0.619223
C52	C	1.351423	-0.508124	-0.808622
N53	N	1.351392	-0.508155	-0.717714
C54	C	1.600274	-0.873775	-0.424307
N55	N	1.658204	-0.837600	-0.366407
C56	C	1.641052	-0.289495	-0.909948
N57	N	1.699562	-0.245340	-0.861683
C58	C	0.863989	-0.620480	-0.820727
N59	N	0.815721	-0.664726	-0.879118
H60	H	0.787271	-0.508368	-0.672749
C61	C	1.203206	-0.619988	-1.161372
N62	N	1.144694	-0.664143	-1.209634
C63	C	0.885087	-0.289491	-0.383768
N64	N	0.842447	-0.245271	-0.325376
H65	H	1.351557	-0.508011	-1.238107
H66	H	1.223319	-0.604815	-0.945667
H67	H	1.185408	-0.508340	-0.672698
C68	C	1.115515	-0.289461	-0.383748
N69	N	1.163790	-0.245226	-0.325348
C70	C	1.641120	-0.289424	-1.140370
N71	N	1.699656	-0.245237	-1.183018
