data_functionalizedCrystal
_audit_creation_method	'MofGen! by Chris Wilmer'
_symmetry_space_group_name_H-M	'P1'
_symmetry_Int_Tables_number	1
_symmetry_cell_setting	triclinic
loop_
_symmetry_equiv_pos_as_xyz
  x,y,z
_cell_length_a	14.519709
_cell_length_b	14.853567
_cell_length_c	13.930277
_cell_angle_alpha	90.000757
_cell_angle_beta	90.001602
_cell_angle_gamma	83.657537
loop_
_atom_site_label
_atom_site_type_symbol
_atom_site_fract_x
_atom_site_fract_y
_atom_site_fract_z
O1	O	-1.223823	-0.118178	-0.079698
O2	O	-0.723823	0.381822	0.420302
O3	O	-0.955341	-0.132096	-0.079726
O4	O	-0.455341	0.367904	0.420274
O5	O	-1.096754	0.006090	-0.079714
O6	O	-0.596754	0.506090	0.420286
O7	O	-1.082410	-0.256364	-0.079710
O8	O	-0.582410	0.243636	0.420290
O9	O	-1.096734	0.006093	0.079948
O10	O	-0.596734	0.506093	0.579948
O11	O	-0.955321	-0.132093	0.079936
O12	O	-0.455321	0.367907	0.579936
O13	O	-1.223804	-0.118176	0.079964
O14	O	-0.723804	0.381824	0.579964
Zn15	Zn	-1.089559	-0.125134	0.105300
Zn16	Zn	-0.589559	0.374866	0.605300
Zn17	Zn	-1.089585	-0.125138	-0.105061
Zn18	Zn	-0.589585	0.374862	0.394939
O19	O	-1.082391	-0.256361	0.079952
O20	O	-0.582391	0.243639	0.579952
C21	C	-1.096094	0.039680	0.000114
C22	C	-0.596094	0.539680	0.500114
C23	C	-1.094146	0.139765	0.000106
C24	C	-0.594146	0.639765	0.500106
C25	C	-0.920971	-0.131446	0.000101
C26	C	-0.420971	0.368554	0.500101
C27	C	-0.818591	-0.129502	0.000090
C28	C	-0.318591	0.370498	0.500090
C29	C	-1.258173	-0.118826	0.000135
C30	C	-0.758173	0.381174	0.500135
C31	C	-1.360553	-0.120769	0.000140
C32	C	-0.860553	0.379231	0.500140
C33	C	-0.443698	-0.122347	0.000134
C34	C	0.056302	0.377653	0.500134
C35	C	-0.548005	-0.124334	0.000121
C36	C	-0.048005	0.375666	0.500121
C37	C	-0.631141	-0.125924	0.000111
C38	C	-0.131141	0.374076	0.500111
C39	C	-0.735455	-0.127912	0.000100
C40	C	-0.235455	0.372088	0.500100
C41	C	-1.083050	-0.289952	0.000122
C42	C	-0.583050	0.210048	0.500122
C43	C	-1.084998	-0.390036	0.000124
C44	C	-0.584998	0.109964	0.500124
N45	N	-1.089548	-0.125130	0.248866
N46	N	-0.589548	0.374870	0.748866
C47	C	-1.001911	0.552334	0.000114
C48	C	-0.501911	1.052334	0.500114
C49	C	-1.169913	0.573550	0.000132
C50	C	-0.669913	1.073550	0.500132
C51	C	-1.171744	0.479516	0.000126
C52	C	-0.671744	0.979516	0.500126
C53	C	-1.088658	0.421886	0.000116
C54	C	-0.588658	0.921886	0.500116
C55	C	-1.003740	0.458291	0.000112
C56	C	-0.503740	0.958291	0.500112
C57	C	-1.256661	0.443104	0.000141
C58	C	-0.756661	0.943104	0.500141
C59	C	-1.258495	0.349064	0.000136
C60	C	-0.758495	0.849064	0.500136
C61	C	-1.175408	0.291433	0.000119
C62	C	-0.675408	0.791433	0.500119
C63	C	-1.090486	0.327843	0.000114
C64	C	-0.590486	0.827843	0.500114
C65	C	-1.007400	0.270213	0.000104
C66	C	-0.507400	0.770213	0.500104
C67	C	-0.922478	0.306621	0.000091
C68	C	-0.422478	0.806621	0.500091
C69	C	-0.920653	0.400660	0.000095
C70	C	-0.420653	0.900660	0.500095
C71	C	-1.177233	0.197394	0.000116
C72	C	-0.677233	0.697394	0.500116
C73	C	-1.009229	0.176170	0.000101
C74	C	-0.509229	0.676170	0.500101
N75	N	-1.089603	-0.125134	-0.248628
N76	N	-0.589603	0.374866	0.251372
C77	C	-1.026965	-0.186302	0.701130
C78	C	-0.526965	0.313698	1.201130
C79	C	-1.152231	-0.063966	0.701110
C80	C	-0.652231	0.436034	1.201110
C81	C	-1.152220	-0.063963	0.600614
C82	C	-0.652220	0.436037	1.100614
C83	C	-1.089581	-0.125132	0.550372
C84	C	-0.589581	0.374868	1.050372
C85	C	-1.026954	-0.186303	0.600625
C86	C	-0.526954	0.313697	1.100625
C87	C	-1.214852	-0.002799	0.550354
C88	C	-0.714852	0.497201	1.050354
C89	C	-1.214844	-0.002795	0.449852
C90	C	-0.714844	0.497205	0.949852
C91	C	-1.152201	-0.063959	0.399607
C92	C	-0.652201	0.436041	0.899607
C93	C	-1.089570	-0.125132	0.449867
C94	C	-0.589570	0.374868	0.949867
C95	C	-1.026932	-0.186301	0.399624
C96	C	-0.526932	0.313699	0.899624
C97	C	-0.964296	-0.247470	0.449882
C98	C	-0.464296	0.252530	0.949882
C99	C	-0.964310	-0.247468	0.550381
C100	C	-0.464310	0.252532	1.050381
C101	C	-1.152186	-0.063962	0.299108
C102	C	-0.652186	0.436038	0.799108
C103	C	-1.026921	-0.186302	0.299119
C104	C	-0.526921	0.313698	0.799119
H105	H	-0.941568	0.129253	0.000089
H106	H	-0.441568	0.629253	0.500089
Br107	Br	-1.373743	0.299660	0.000139
Br108	Br	-0.873743	0.799660	0.500139
H109	H	-1.265855	0.046998	0.591264
H110	H	-0.765855	0.546998	1.091264
H111	H	-1.246375	0.167755	0.000132
H112	H	-0.746375	0.667755	0.500132
H113	H	-1.203233	-0.014169	0.742021
H114	H	-0.703233	0.485831	1.242021
Br115	Br	-0.941900	-0.269313	0.230940
Br116	Br	-0.441900	0.230687	0.730940
Br117	Br	-1.369414	0.521317	0.000181
Br118	Br	-0.869414	1.021317	0.500181
H119	H	-0.932770	0.581982	0.000100
H120	H	-0.432770	1.081982	0.500100
H121	H	-0.851513	0.430312	0.000085
H122	H	-0.351513	0.930312	0.500085
H123	H	-1.237558	0.620477	0.000148
H124	H	-0.737558	1.120477	0.500148
Br125	Br	-1.299845	0.080219	0.381651
Br126	Br	-0.799845	0.580219	0.881651
Br127	Br	-0.879299	-0.330490	0.381685
Br128	Br	-0.379299	0.169510	0.881685
Br129	Br	-1.237193	0.019039	0.230908
Br130	Br	-0.737193	0.519039	0.730908
H131	H	-0.913316	-0.297271	0.591306
H132	H	-0.413316	0.202729	1.091306
H133	H	-0.975965	-0.236103	0.742052
H134	H	-0.475965	0.263897	1.242052
H135	H	-0.854829	0.259687	0.000089
H136	H	-0.354829	0.759687	0.500089
