data_functionalizedCrystal
_audit_creation_method	'MofGen! by Chris Wilmer'
_symmetry_space_group_name_H-M	'P1'
_symmetry_Int_Tables_number	1
_symmetry_cell_setting	triclinic
loop_
_symmetry_equiv_pos_as_xyz
  x,y,z
_cell_length_a	16.109295
_cell_length_b	16.776229
_cell_length_c	17.699083
_cell_angle_alpha	89.986324
_cell_angle_beta	83.371101
_cell_angle_gamma	89.995788
loop_
_atom_site_label
_atom_site_type_symbol
_atom_site_fract_x
_atom_site_fract_y
_atom_site_fract_z
O1	O	-1.102970	0.066246	-0.097267
O2	O	-0.860887	0.066262	-0.109378
O3	O	-0.988768	0.066234	0.006857
O4	O	-0.975089	0.066274	-0.213502
O5	O	-0.988751	-0.066342	0.006864
O6	O	-0.860870	-0.066315	-0.109371
O7	O	-1.102953	-0.066330	-0.097260
Zn8	Zn	-0.981909	-0.087372	-0.103314
Zn9	Zn	-0.981931	0.087303	-0.103324
O10	O	-0.975072	-0.066303	-0.213495
C11	C	-0.829904	-0.000025	-0.108885
C12	C	-0.737611	-0.000020	-0.107416
C13	C	-0.515225	-0.000017	-0.172972
C14	C	-0.428507	-0.000022	-0.171586
C15	C	-0.448619	-0.000043	-0.033679
C16	C	-0.535335	-0.000044	-0.035066
C17	C	-0.568636	-0.000027	-0.104715
C18	C	-0.395201	-0.000031	-0.101942
C19	C	-0.301178	-0.000037	-0.100439
C20	C	-0.662666	-0.000023	-0.106218
N21	N	-0.981900	-0.206583	-0.103308
C22	C	-1.038543	-0.248312	-0.051860
C23	C	-1.038547	-0.331765	-0.051859
C24	C	-0.981912	-0.373486	-0.103310
C25	C	-0.925263	-0.331751	-0.154761
C26	C	-0.925255	-0.248300	-0.154757
C27	C	-0.925293	-0.668298	-0.154776
C28	C	-0.925307	-0.751755	-0.154777
C29	C	-1.038585	-0.751762	-0.051878
C30	C	-1.038577	-0.668312	-0.051874
C31	C	-0.981926	-0.626584	-0.103321
C32	C	-0.981920	-0.536096	-0.103320
C33	C	-0.981921	-0.463973	-0.103316
C34	C	-0.133935	-0.000041	-0.097758
C35	C	-0.226226	-0.000038	-0.099240
C36	C	-0.988269	-0.000057	0.035058
C37	C	-0.986799	-0.000067	0.119078
N38	N	-0.981947	0.206515	-0.103325
C39	C	-1.061862	-0.000078	0.167593
C40	C	-1.060476	-0.000080	0.246539
C41	C	-0.984025	-0.000076	0.276967
C42	C	-0.908956	-0.000063	0.228446
C43	C	-0.910343	-0.000056	0.149502
C44	C	-0.903358	-0.000092	0.546817
C45	C	-0.901977	-0.000102	0.625767
C46	C	-1.053491	-0.000116	0.643853
C47	C	-1.054879	-0.000109	0.564910
C48	C	-0.979810	-0.000091	0.516395
C49	C	-0.981314	-0.000088	0.430794
C50	C	-0.982520	-0.000086	0.362567
C51	C	-0.975571	-0.000038	0.758304
C52	C	-0.977041	-0.000107	0.674283
H53	H	-0.421495	-0.000062	0.023026
C54	C	-0.593470	-0.000092	0.038965
C55	C	-0.676539	-0.000112	0.022842
C56	C	-0.730115	-0.000170	0.091016
H57	H	-0.583505	0.046124	0.067575
H58	H	-0.583437	-0.046347	0.067534
H59	H	-0.686568	0.046138	-0.005715
H60	H	-0.686531	-0.046325	-0.005758
H61	H	-0.720082	-0.046425	0.119585
H62	H	-0.720142	0.046047	0.119621
H63	H	-0.786483	-0.000191	0.080085
H64	H	-0.842232	-0.000078	0.507325
C65	C	-1.100071	-0.203163	0.004088
C66	C	-1.149662	-0.257573	0.049158
C67	C	-1.206343	-0.216014	0.100716
H68	H	-1.134700	-0.170591	-0.023056
H69	H	-1.070248	-0.170641	0.035647
H70	H	-1.179483	-0.290082	0.017604
H71	H	-1.115056	-0.290146	0.076319
H72	H	-1.176520	-0.183492	0.132274
H73	H	-1.240965	-0.183444	0.073564
H74	H	-1.239991	-0.252925	0.131306
H75	H	-0.542335	-0.000009	-0.229684
H76	H	-0.385023	-0.000015	-0.227168
C77	C	-0.863941	-0.797096	-0.210724
C78	C	-0.908131	-0.844966	-0.257088
C79	C	-0.851633	-0.886737	-0.308639
H80	H	-0.829379	-0.829731	-0.183573
H81	H	-0.830210	-0.760318	-0.241406
H82	H	-0.941848	-0.881740	-0.226410
H83	H	-0.942691	-0.812351	-0.284256
H84	H	-0.817902	-0.849959	-0.339321
H85	H	-0.817074	-0.919368	-0.281481
H86	H	-0.881608	-0.919217	-0.340107
C87	C	-1.099920	-0.377108	0.004085
C88	C	-1.055745	-0.425021	0.050450
C89	C	-1.112257	-0.466791	0.102004
H90	H	-1.134495	-0.409714	-0.023064
H91	H	-1.133637	-0.340329	0.034766
H92	H	-1.022042	-0.461795	0.019773
H93	H	-1.021173	-0.392434	0.077616
H94	H	-1.145974	-0.430012	0.132685
H95	H	-1.146829	-0.499393	0.074849
H96	H	-1.082293	-0.499299	0.133474
H97	H	-0.879146	-0.365725	-0.196651
C98	C	-0.826034	-0.000100	0.261626
C99	C	-0.840883	-0.000133	0.341146
C100	C	-0.764515	-0.000181	0.371736
H101	H	-0.795075	0.046123	0.245052
H102	H	-0.795121	-0.046347	0.245019
H103	H	-0.871784	0.046110	0.357748
H104	H	-0.871829	-0.046353	0.357742
H105	H	-0.733601	-0.046428	0.355128
H106	H	-0.733562	0.046044	0.355155
H107	H	-0.774579	-0.000210	0.425693
H108	H	-1.114616	-0.000126	0.683364
H109	H	-1.084697	-0.634345	-0.009980
H110	H	-0.839717	-0.000101	0.650538
H111	H	-1.084712	-0.785746	-0.009984
H112	H	-0.879167	-0.634330	-0.196667
H113	H	-0.849218	-0.000047	0.110001
C114	C	-0.863721	-0.203135	-0.210703
C115	C	-0.814139	-0.257532	-0.255777
C116	C	-0.757449	-0.215956	-0.307328
H117	H	-0.829088	-0.170593	-0.183553
H118	H	-0.893538	-0.170583	-0.242258
H119	H	-0.784325	-0.290070	-0.224226
H120	H	-0.848749	-0.290076	-0.282944
H121	H	-0.787265	-0.183404	-0.338883
H122	H	-0.722822	-0.183415	-0.280172
H123	H	-0.723806	-0.252858	-0.337922
H124	H	-1.124118	-0.000086	0.142825
H125	H	-1.117133	-0.000116	0.540140
C126	C	-1.142064	-0.000138	0.299087
C127	C	-1.209313	-0.000168	0.255542
C128	C	-1.284488	-0.000233	0.303923
H129	H	-1.144804	0.046078	0.330270
H130	H	-1.144707	-0.046393	0.330253
H131	H	-1.206672	0.046082	0.224388
H132	H	-1.206601	-0.046381	0.224360
H133	H	-1.287131	-0.046487	0.335089
H134	H	-1.287219	0.045984	0.335104
H135	H	-1.330125	-0.000260	0.274385
