data_functionalizedCrystal
_audit_creation_method	'MofGen! by Chris Wilmer'
_symmetry_space_group_name_H-M	'P1'
_symmetry_Int_Tables_number	1
_symmetry_cell_setting	triclinic
loop_
_symmetry_equiv_pos_as_xyz
  x,y,z
_cell_length_a	17.640112
_cell_length_b	19.077068
_cell_length_c	19.076919
_cell_angle_alpha	94.470751
_cell_angle_beta	77.038285
_cell_angle_gamma	76.960565
loop_
_atom_site_label
_atom_site_type_symbol
_atom_site_fract_x
_atom_site_fract_y
_atom_site_fract_z
Zn1	Zn	1.196685	0.072021	0.185764
Zn2	Zn	1.696685	0.572021	0.685764
Zn3	Zn	1.196585	0.185193	0.072627
Zn4	Zn	1.696585	0.685193	0.572627
Zn5	Zn	1.067866	0.091489	0.092016
Zn6	Zn	1.567866	0.591489	0.592016
Zn7	Zn	1.056565	0.216177	0.216690
Zn8	Zn	1.556565	0.716177	0.716690
O9	O	1.129425	0.141220	0.141774
O10	O	1.629425	0.641220	0.641774
O11	O	1.309182	0.065919	0.149699
O12	O	1.809182	0.565919	0.649699
O13	O	1.184198	0.167944	-0.024326
O14	O	1.684198	0.667944	0.475674
O15	O	1.089725	-0.010638	0.099623
O16	O	1.589725	0.489362	0.599623
O17	O	1.309109	0.149066	0.066578
O18	O	1.809109	0.649066	0.566578
O19	O	1.184368	-0.024941	0.168500
O20	O	1.684368	0.475059	0.668500
O21	O	1.089628	0.099100	-0.010081
O22	O	1.589628	0.599100	0.489919
O23	O	0.953857	0.129144	0.129611
O24	O	1.453857	0.629144	0.629611
O25	O	1.070465	0.201873	0.312113
O26	O	1.570465	0.701873	0.812113
O27	O	0.945554	0.220751	0.221209
O28	O	1.445554	0.720751	0.721209
O29	O	1.173410	0.095963	0.289391
O30	O	1.673410	0.595963	0.789391
O31	O	1.173241	0.288848	0.096566
O32	O	1.673241	0.788848	0.596566
O33	O	1.070369	0.311612	0.202409
O34	O	1.570369	0.811612	0.702409
C35	C	1.120589	0.326037	0.150751
C36	C	1.620589	0.826037	0.650751
C37	C	1.116881	0.405090	0.154601
C38	C	1.616881	0.905090	0.654601
C39	C	0.920533	0.180423	0.180871
C40	C	1.420533	0.680423	0.680871
C41	C	0.831166	0.197212	0.197614
C42	C	1.331166	0.697212	0.697614
C43	C	1.120688	0.150203	0.327279
C44	C	1.620688	0.650203	0.827279
C45	C	1.116965	0.154030	0.406330
C46	C	1.616965	0.654030	0.906330
C47	C	0.558750	0.013664	0.014584
C48	C	1.058750	0.513664	0.514584
C49	C	0.474775	0.029455	0.030327
C50	C	0.974775	0.529455	0.530327
C51	C	0.466186	0.124963	0.125557
C52	C	0.966186	0.624963	0.625557
C53	C	0.550162	0.109178	0.109824
C54	C	1.050162	0.609178	0.609824
C55	C	0.596437	0.053528	0.054336
C56	C	1.096437	0.553528	0.554336
C57	C	0.587849	0.149042	0.149576
C58	C	1.087849	0.649042	0.649576
C59	C	0.671817	0.133261	0.133842
C60	C	1.171817	0.633261	0.633842
C61	C	0.718099	0.077615	0.078355
C62	C	1.218099	0.577615	0.578355
C63	C	0.680406	0.037747	0.038602
C64	C	1.180406	0.537747	0.538602
C65	C	0.541572	0.204695	0.205060
C66	C	1.041572	0.704695	0.705060
C67	C	0.579259	0.244559	0.244813
C68	C	1.079259	0.744559	0.744813
C69	C	0.663229	0.228775	0.229082
C70	C	1.163229	0.728775	0.729082
C71	C	0.709510	0.173129	0.173596
C72	C	1.209510	0.673129	0.673596
C73	C	0.700922	0.268643	0.268836
C74	C	1.200922	0.768643	0.768836
C75	C	0.784890	0.252861	0.253102
C76	C	1.284890	0.752861	0.753102
C77	C	0.793479	0.157347	0.157861
C78	C	1.293479	0.657347	0.657861
C79	C	1.339134	0.101865	0.102526
C80	C	1.839134	0.601865	0.602526
C81	C	1.428499	0.085094	0.085801
C82	C	1.928499	0.585094	0.585801
C83	C	1.138318	-0.044322	0.132775
C84	C	1.638318	0.455678	0.632775
C85	C	1.142107	-0.123389	0.128939
C86	C	1.642107	0.376611	0.628939
C87	C	1.168737	0.430349	0.101333
C88	C	1.668737	0.930349	0.601333
C89	C	1.165254	0.504628	0.104958
C90	C	1.665254	1.004628	0.604958
C91	C	1.109910	0.553647	0.161848
C92	C	1.609910	1.053647	0.661848
C93	C	1.058052	0.528384	0.215120
C94	C	1.558052	1.028384	0.715120
C95	C	1.061539	0.454106	0.211498
C96	C	1.561539	0.954106	0.711498
C97	C	1.093736	0.777070	0.178590
C98	C	1.593736	1.277070	0.678590
C99	C	1.090251	0.851352	0.182207
C100	C	1.590251	1.351352	0.682207
C101	C	1.197455	0.827590	0.072045
C102	C	1.697455	1.327590	0.572045
C103	C	1.200934	0.753312	0.068425
C104	C	1.700934	1.253312	0.568425
C105	C	1.149078	0.728055	0.121700
C106	C	1.649078	1.228055	0.621700
N107	N	1.106347	0.629573	0.165553
N108	N	1.606347	1.129573	0.665553
N109	N	1.152646	0.652130	0.117997
N110	N	1.652646	1.152130	0.617997
C111	C	1.138177	0.132213	-0.043020
C112	C	1.638177	0.632213	0.456980
C113	C	1.142066	0.128155	-0.122109
C114	C	1.642066	0.628155	0.377891
C115	C	1.168811	0.100689	0.431641
C116	C	1.668811	0.600689	0.931641
C117	C	1.165303	0.104285	0.505919
C118	C	1.665303	0.604285	1.005919
C119	C	1.109952	0.161225	0.554886
C120	C	1.609952	0.661225	1.054886
C121	C	1.058100	0.214569	0.529571
C122	C	1.558100	0.714569	1.029571
C123	C	1.061605	0.210970	0.455295
C124	C	1.561605	0.710970	0.955295
C125	C	1.093719	0.177900	0.778299
C126	C	1.593719	0.677900	1.278299
C127	C	1.090220	0.181496	0.852580
C128	C	1.590220	0.681496	1.352580
C129	C	1.197422	0.071211	0.828923
C130	C	1.697422	0.571211	1.328923
C131	C	1.200925	0.067619	0.754645
C132	C	1.700925	0.567619	1.254645
C133	C	1.149070	0.120961	0.729338
C134	C	1.649070	0.620961	1.229338
N135	N	1.106367	0.164903	0.630810
N136	N	1.606367	0.664903	1.130810
N137	N	1.152653	0.117279	0.653415
N138	N	1.652653	0.617279	1.153415
H139	H	0.831159	0.112022	0.112688
H140	H	1.331159	0.612022	0.612688
H141	H	1.012993	0.568302	0.261444
H142	H	1.512993	1.068302	0.761444
O143	O	1.254663	0.705780	0.013077
O144	O	1.754663	1.205780	0.513077
C145	C	1.239634	0.723816	-0.053657
C146	C	1.739634	1.223816	0.446343
H147	H	1.206262	0.783498	-0.046738
H148	H	1.706262	1.283498	0.453262
H149	H	1.299073	0.713892	-0.096246
H150	H	1.799073	1.213892	0.403754
H151	H	1.201415	0.688643	-0.071949
H152	H	1.701415	1.188643	0.428051
O153	O	1.036511	0.236773	0.900244
O154	O	1.536511	0.736773	1.400244
C155	C	1.044526	0.228497	0.971231
C156	C	1.544526	0.728497	1.471231
H157	H	1.107217	0.194059	0.968633
H158	H	1.607217	0.694059	1.468633
H159	H	1.035173	0.284171	1.003071
H160	H	1.535173	0.784171	1.503071
H161	H	0.997669	0.200572	0.999390
H162	H	1.497669	0.700572	1.499390
H163	H	1.246000	0.021254	0.714780
H164	H	1.746000	0.521254	1.214780
H165	H	0.786471	0.064768	0.065544
H166	H	1.286471	0.564768	0.565544
H167	H	1.019314	0.433542	0.254875
H168	H	1.519314	0.933542	0.754875
H169	H	0.663232	0.313957	0.314009
H170	H	1.163232	0.813957	0.814009
O171	O	0.459996	0.220152	0.220410
O172	O	0.959996	0.720152	0.720410
C173	C	0.427233	0.277813	0.277911
C174	C	0.927233	0.777813	0.777911
H175	H	0.473190	0.310761	0.280756
H176	H	0.973190	0.810761	0.780756
H177	H	0.370794	0.314296	0.268227
H178	H	0.870794	0.814296	0.768227
H179	H	0.411223	0.255010	0.331243
H180	H	0.911223	0.755010	0.831243
O181	O	0.725485	-0.016312	-0.015252
O182	O	1.225485	0.483688	0.484748
C183	C	0.807678	-0.021676	-0.020625
C184	C	1.307678	0.478324	0.479375
H185	H	0.815461	0.002208	0.033206
H186	H	1.315461	0.502208	0.533206
H187	H	0.842352	-0.081189	-0.033923
H188	H	1.342352	0.418811	0.466077
H189	H	0.831685	0.009615	-0.065502
H190	H	1.331685	0.509615	0.434498
H191	H	1.051507	0.221343	0.757702
H192	H	1.551507	0.721343	1.257702
H193	H	1.207523	0.060851	0.526522
H194	H	1.707523	0.560851	1.026522
H195	H	1.013030	0.260929	0.569447
H196	H	1.513030	0.760929	1.069447
H197	H	1.213886	0.054324	0.391776
H198	H	1.713886	0.554324	0.891776
O199	O	0.821377	0.291630	0.291810
O200	O	1.321377	0.791630	0.791810
C201	C	0.762527	0.344141	0.344148
C202	C	1.262527	0.844141	0.844148
H203	H	0.703939	0.326384	0.356461
H204	H	1.203939	0.826384	0.856461
H205	H	0.783803	0.349960	0.395994
H206	H	1.283803	0.849960	0.895994
H207	H	0.752254	0.398540	0.322314
H208	H	1.252254	0.898540	0.822314
H209	H	0.541570	0.289871	0.289989
H210	H	1.041570	0.789871	0.789989
O211	O	1.222536	0.382654	0.046156
O212	O	1.722536	0.882654	0.546156
C213	C	1.274553	0.331864	0.074873
C214	C	1.774553	0.831864	0.574873
H215	H	1.244132	0.328672	0.133523
H216	H	1.744132	0.828672	0.633523
H217	H	1.289172	0.276207	0.041340
H218	H	1.789172	0.776207	0.541340
H219	H	1.332415	0.349641	0.072975
H220	H	1.832415	0.849641	0.572975
O221	O	1.247703	0.019437	0.853634
O222	O	1.747703	0.519437	1.353634
C223	C	1.232757	0.034829	0.929690
C224	C	1.732757	0.534829	1.429690
H225	H	1.169116	0.070264	0.952574
H226	H	1.669116	0.570264	1.452574
H227	H	1.239430	-0.018111	0.954313
H228	H	1.739430	0.481889	1.454313
H229	H	1.277639	0.064779	0.943683
H230	H	1.777639	0.564779	1.443683
O231	O	1.247799	0.852243	0.020381
O232	O	1.747799	1.352243	0.520381
C233	C	1.232847	0.928315	0.035766
C234	C	1.732847	1.428315	0.535766
H235	H	1.203395	0.946066	0.096064
H236	H	1.703395	1.446066	0.596064
H237	H	1.291980	0.944960	0.021096
H238	H	1.791980	1.444960	0.521096
H239	H	1.191076	0.955431	0.002579
H240	H	1.691076	1.455431	0.502579
O241	O	1.036469	0.898869	0.237543
O242	O	1.536469	1.398869	0.737543
C243	C	0.991435	0.860652	0.283781
C244	C	1.491435	1.360652	0.783781
H245	H	1.026732	0.801617	0.277521
H246	H	1.526732	1.301617	0.777521
H247	H	0.979171	0.886430	0.342468
H248	H	1.479171	1.386430	0.842468
H249	H	0.931989	0.863005	0.268743
H250	H	1.431989	1.363005	0.768743
O251	O	1.043331	0.752462	0.230237
O252	O	1.543331	1.252462	0.730237
C253	C	0.995352	0.717345	0.197327
C254	C	1.495352	1.217345	0.697327
H255	H	1.026821	0.698279	0.137592
H256	H	1.526821	1.198279	0.637592
H257	H	0.985638	0.668538	0.225763
H258	H	1.485638	1.168538	0.725763
H259	H	0.934800	0.756821	0.202016
H260	H	1.434800	1.256821	0.702016
H261	H	1.207480	0.525189	0.061581
H262	H	1.707480	1.025189	0.561581
H263	H	1.019379	0.254400	0.434690
H264	H	1.519379	0.754400	0.934690
H265	H	0.428497	0.170275	0.170733
H266	H	0.928497	0.670275	0.670733
H267	H	0.444094	-0.003016	-0.002044
H268	H	0.944094	0.496984	0.497956
O269	O	0.603589	-0.040395	-0.039365
O270	O	1.103589	0.459605	0.460635
C271	C	0.552323	-0.072213	-0.071069
C272	C	1.052323	0.427787	0.428931
H273	H	0.491194	-0.031960	-0.060945
H274	H	0.991194	0.468040	0.439055
H275	H	0.579572	-0.087150	-0.132008
H276	H	1.079572	0.412850	0.367992
H277	H	0.544746	-0.123258	-0.045890
H278	H	1.044746	0.376742	0.454110
