data_functionalizedCrystal
_audit_creation_method	'MofGen! by Chris Wilmer'
_symmetry_space_group_name_H-M	'P1'
_symmetry_Int_Tables_number	1
_symmetry_cell_setting	triclinic
loop_
_symmetry_equiv_pos_as_xyz
  x,y,z
_cell_length_a	10.540558
_cell_length_b	9.065215
_cell_length_c	8.140239
_cell_angle_alpha	89.997810
_cell_angle_beta	89.996719
_cell_angle_gamma	95.226094
loop_
_atom_site_label
_atom_site_type_symbol
_atom_site_fract_x
_atom_site_fract_y
_atom_site_fract_z
O1	O	-0.186124	1.959485	-0.136566
O2	O	-0.201396	1.530125	-0.136571
O3	O	-0.009091	1.754586	-0.136586
O4	O	-0.378429	1.735024	-0.136551
O5	O	-0.009089	1.754574	0.136641
O6	O	-0.201394	1.530112	0.136656
O7	O	-0.186122	1.959473	0.136661
Zn8	Zn	-0.193758	1.744790	0.180039
Zn9	Zn	-0.193761	1.744807	-0.179949
O10	O	-0.378427	1.735011	0.136676
C11	C	-0.199928	1.475139	0.000041
C12	C	-0.195542	1.311317	0.000038
C13	C	0.038218	1.753107	0.000020
C14	C	0.179181	1.748701	-0.000004
C15	C	0.363228	1.580252	-0.000639
C16	C	0.216594	1.584719	-0.000009
C17	C	0.240548	1.827602	0.156017
C18	C	0.387112	1.821995	0.156133
C19	C	0.387616	1.825344	-0.154578
C20	C	0.240629	1.826866	-0.156625
C21	C	0.574262	1.736471	0.000040
C22	C	0.433293	1.740819	-0.000026
C23	C	-0.187590	2.014458	0.000045
C24	C	-0.191976	2.178280	0.000037
N25	N	-0.193755	1.744790	0.425722
N26	N	-0.193754	1.744819	-0.425632
H27	H	0.392065	1.515479	-0.112532
C28	C	0.404339	1.493091	0.149666
H29	H	0.464013	1.554131	0.212794
H30	H	0.442528	1.407764	0.113789
H31	H	0.331829	1.463630	0.215165
H32	H	0.434404	1.943781	-0.155630
H33	H	0.199983	1.769134	-0.272045
H34	H	0.175070	1.522188	0.112027
H35	H	0.215967	1.946421	-0.166042
H36	H	0.415528	1.763666	0.272761
C37	C	0.451332	1.981294	0.165722
H38	H	0.387815	2.049145	0.169544
H39	H	0.503434	2.001099	0.071638
H40	H	0.502350	1.991916	0.261938
H41	H	0.198152	1.772783	0.272130
C42	C	0.159340	1.500829	-0.151079
H43	H	0.225695	1.463700	-0.213386
H44	H	0.115699	1.566301	-0.217092
H45	H	0.101321	1.420696	-0.115948
C46	C	0.209746	1.990278	0.163878
H47	H	0.159060	2.011570	0.071862
H48	H	0.286772	2.053430	0.162427
H49	H	0.164377	2.006185	0.262193
C50	C	0.430491	1.753651	-0.314341
H51	H	0.476655	1.671489	-0.288275
H52	H	0.483459	1.824271	-0.375269
H53	H	0.357798	1.720924	-0.378025
