data_functionalizedCrystal
_audit_creation_method	'MofGen! by Chris Wilmer'
_symmetry_space_group_name_H-M	'P1'
_symmetry_Int_Tables_number	1
_symmetry_cell_setting	triclinic
loop_
_symmetry_equiv_pos_as_xyz
  x,y,z
_cell_length_a	16.120530
_cell_length_b	12.645330
_cell_length_c	16.120297
_cell_angle_alpha	87.123238
_cell_angle_beta	89.871860
_cell_angle_gamma	87.113442
loop_
_atom_site_label
_atom_site_type_symbol
_atom_site_fract_x
_atom_site_fract_y
_atom_site_fract_z
Zn1	Zn	1.247482	-0.537081	0.534595
Zn2	Zn	1.747482	-0.037081	1.034595
Zn3	Zn	1.254445	-0.705843	0.395547
Zn4	Zn	1.754445	-0.205843	0.895547
Zn5	Zn	1.115471	-0.519167	0.388512
Zn6	Zn	1.615471	-0.019167	0.888512
Zn7	Zn	1.108402	-0.704866	0.527517
Zn8	Zn	1.608402	-0.204866	1.027517
O9	O	1.181450	-0.616739	0.461543
O10	O	1.681450	-0.116739	0.961543
O11	O	1.364772	-0.567373	0.522057
O12	O	1.864772	-0.067373	1.022057
O13	O	1.241883	-0.673991	0.278248
O14	O	1.741883	-0.173991	0.778248
O15	O	1.133026	-0.373200	0.407909
O16	O	1.633026	0.126800	0.907909
O17	O	1.369888	-0.691362	0.419899
O18	O	1.869888	-0.191362	0.919899
O19	O	1.230014	-0.386361	0.515235
O20	O	1.730014	0.113639	1.015235
O21	O	1.139779	-0.536842	0.273080
O22	O	1.639779	-0.036842	0.773080
O23	O	0.998166	-0.535895	0.401045
O24	O	1.498166	-0.035895	0.901045
O25	O	1.120978	-0.689698	0.644821
O26	O	1.620978	-0.189698	1.144821
O27	O	0.992972	-0.672327	0.503171
O28	O	1.492972	-0.172327	1.003171
O29	O	1.223160	-0.566427	0.650022
O30	O	1.723160	-0.066427	1.150022
O31	O	1.235028	-0.854056	0.413035
O32	O	1.735028	-0.354056	0.913035
O33	O	1.127731	-0.853339	0.509992
O34	O	1.627731	-0.353339	1.009992
C35	C	0.965397	-0.602062	0.450577
C36	C	1.465397	-0.102062	0.950577
C37	C	0.872967	-0.595810	0.445905
C38	C	1.372967	-0.095810	0.945905
C39	C	0.703737	-0.584371	0.437383
C40	C	1.203737	-0.084371	0.937383
C41	C	0.660000	-0.649190	0.485763
C42	C	1.160000	-0.149190	0.985763
C43	C	0.565835	-0.642825	0.481022
C44	C	1.065835	-0.142825	0.981022
C45	C	0.797911	-0.590734	0.442124
C46	C	1.297911	-0.090734	0.942124
C47	C	1.181390	-0.892164	0.461528
C48	C	1.681390	-0.392164	0.961528
C49	C	1.181439	-1.009999	0.461554
C50	C	1.681439	-0.509999	0.961554
C51	C	1.114193	-1.177186	0.522761
C52	C	1.614193	-0.677186	1.022761
C53	C	1.113876	-1.054592	0.522537
C54	C	1.613876	-0.554592	1.022537
C55	C	1.162161	-1.047614	0.372717
C56	C	1.662161	-0.547614	0.872717
C57	C	1.161751	-1.170210	0.373088
C58	C	1.661751	-0.670210	0.873088
C59	C	1.268390	-1.184441	0.488492
C60	C	1.768390	-0.684441	0.988492
C61	C	1.267753	-1.061915	0.490381
C62	C	1.767753	-0.561915	0.990381
C63	C	1.398347	-0.631475	0.472552
C64	C	1.898347	-0.131475	0.972552
C65	C	1.490775	-0.637754	0.477244
C66	C	1.990775	-0.137754	0.977244
C67	C	1.170504	-0.629952	0.678438
C68	C	1.670504	-0.129952	1.178438
C69	C	1.165839	-0.635582	0.770865
C70	C	1.665839	-0.135582	1.270865
C71	C	1.181532	-0.340242	0.461577
C72	C	1.681532	0.159758	0.961577
C73	C	1.181567	-0.222415	0.461592
C74	C	1.681567	0.277585	0.961592
C75	C	1.192401	-0.603505	0.245494
C76	C	1.692401	-0.103505	0.745494
C77	C	1.197227	-0.597587	0.153075
C78	C	1.697227	-0.097587	0.653075
C79	C	1.157292	-0.645836	0.940091
C80	C	1.657292	-0.145836	1.440091
C81	C	1.205771	-0.587337	0.983855
C82	C	1.705771	-0.087337	1.483855
C83	C	1.201016	-0.593042	1.078018
C84	C	1.701016	-0.093042	1.578018
C85	C	1.162047	-0.640132	0.845919
C86	C	1.662047	-0.140132	1.345919
H87	H	0.693277	-0.709462	0.530745
H88	H	1.193277	-0.209462	1.030745
O89	O	0.659661	-0.504540	0.377801
O90	O	1.159661	-0.004540	0.877801
H91	H	0.706224	-0.458030	0.343090
H92	H	1.206224	0.041970	0.843090
O93	O	1.265489	-0.515332	0.939815
O94	O	1.765489	-0.015332	1.439815
H95	H	1.300269	-0.473356	0.986403
H96	H	1.800269	0.026644	1.486403
O97	O	1.337265	-1.022306	0.436116
O98	O	1.837265	-0.522306	0.936116
H99	H	1.382241	-0.982875	0.474760
H100	H	1.882241	-0.482875	0.974760
H101	H	1.112221	-0.700199	0.973339
H102	H	1.612221	-0.200199	1.473339
O103	O	1.292831	-1.232324	0.573158
O104	O	1.792831	-0.732324	1.073158
H105	H	1.352020	-1.280368	0.568216
H106	H	1.852020	-0.780368	1.068216
H107	H	1.125422	-1.029426	0.588270
H108	H	1.625422	-0.529426	1.088270
H109	H	1.050134	-1.202791	0.504798
H110	H	1.550134	-0.702791	1.004798
O111	O	1.128987	-1.223241	0.610016
O112	O	1.628987	-0.723241	1.110016
H113	H	1.184556	-1.278797	0.610735
H114	H	1.684556	-0.778797	1.110735
H115	H	1.049419	-1.020022	0.504364
H116	H	1.549419	-0.520022	1.004364
O117	O	1.334888	-1.223323	0.429638
O118	O	1.834888	-0.723323	0.929638
H119	H	1.381928	-1.274576	0.464803
H120	H	1.881928	-0.774576	0.964803
O121	O	1.077859	-1.200912	0.343591
O122	O	1.577859	-0.700912	0.843591
H123	H	1.028904	-1.170157	0.385876
H124	H	1.528904	-0.670157	0.885876
O125	O	1.224240	-1.209503	0.310342
O126	O	1.724240	-0.709503	0.810342
H127	H	1.207164	-1.174903	0.247690
H128	H	1.707164	-0.674903	0.747690
O129	O	1.225353	-1.009052	0.310428
O130	O	1.725353	-0.509052	0.810428
H131	H	1.271278	-0.962552	0.342202
H132	H	1.771278	-0.462552	0.842202
O133	O	1.079174	-0.999792	0.342799
O134	O	1.579174	-0.499792	0.842799
H135	H	1.051532	-0.949231	0.391048
H136	H	1.551532	-0.449231	0.891048
O137	O	1.287137	-1.030132	0.577004
O138	O	1.787137	-0.530132	1.077004
H139	H	1.235519	-0.977575	0.599440
H140	H	1.735519	-0.477575	1.099440
