data_functionalizedCrystal
_audit_creation_method	'MofGen! by Chris Wilmer'
_symmetry_space_group_name_H-M	'P1'
_symmetry_Int_Tables_number	1
_symmetry_cell_setting	triclinic
loop_
_symmetry_equiv_pos_as_xyz
  x,y,z
_cell_length_a	13.339070
_cell_length_b	13.262508
_cell_length_c	9.730223
_cell_angle_alpha	105.916979
_cell_angle_beta	89.998606
_cell_angle_gamma	99.430496
loop_
_atom_site_label
_atom_site_type_symbol
_atom_site_fract_x
_atom_site_fract_y
_atom_site_fract_z
O1	O	1.344496	0.526826	0.082604
O2	O	1.049678	0.457676	0.056762
O3	O	1.204503	0.341621	0.013382
O4	O	1.189670	0.642882	0.125985
O5	O	1.204502	0.341625	0.241963
O6	O	1.049676	0.457680	0.285343
O7	O	1.344494	0.526830	0.311186
Zn8	Zn	1.197085	0.492255	0.334557
Zn9	Zn	1.197087	0.492251	0.033391
O10	O	1.189668	0.642885	0.354566
C11	C	1.011938	0.445997	0.166687
C12	C	0.899490	0.411180	0.153675
C13	C	0.535837	0.681903	0.254842
C14	C	0.641488	0.714619	0.267065
C15	C	0.705993	0.638762	0.238719
C16	C	0.664838	0.530183	0.198147
C17	C	0.559177	0.497464	0.185912
C18	C	0.729333	0.454323	0.169789
C19	C	0.688178	0.345744	0.129217
C20	C	0.582528	0.313030	0.116985
C21	C	0.518022	0.388887	0.145331
C22	C	0.834994	0.487042	0.182024
C23	C	0.858334	0.302603	0.113094
C24	C	0.752684	0.269887	0.100871
C25	C	1.203671	0.302277	0.112963
C26	C	1.201182	0.185036	0.069133
C27	C	1.194155	-0.145455	0.443996
C28	C	1.196486	-0.035302	0.485178
C29	C	1.197660	0.019788	0.381170
C30	C	1.196503	-0.035286	0.235974
C31	C	1.194163	-0.145451	0.194788
C32	C	1.197669	0.019792	0.131962
C33	C	1.196511	-0.035282	-0.013235
C34	C	1.194173	-0.145436	-0.054414
C35	C	1.192999	-0.200525	0.049594
C36	C	1.200008	0.129957	0.173148
C37	C	1.200017	0.129961	-0.076061
C38	C	1.197686	0.019808	-0.117243
C39	C	1.382233	0.538509	0.201257
C40	C	1.494682	0.573327	0.214261
C41	C	1.190501	0.682229	0.254981
C42	C	1.192990	0.799470	0.298803
N43	N	1.197090	0.492260	0.540095
N44	N	1.197089	0.492240	-0.172149
C45	C	1.265665	0.440900	0.592823
C46	C	1.265662	0.440887	0.736701
C47	C	1.128507	0.543602	0.775113
C48	C	1.128506	0.543608	0.631235
C49	C	1.334249	0.389552	0.501683
C50	C	1.402830	0.338189	0.554410
C51	C	1.402828	0.338175	0.698288
C52	C	1.334244	0.389525	0.789438
H53	H	0.483308	0.743654	0.277905
O54	O	1.061999	0.593676	0.580131
C55	C	1.078874	0.702503	0.655995
H56	H	1.159963	0.726684	0.704589
H57	H	1.067445	0.751843	0.579816
H58	H	1.022861	0.716985	0.744922
H59	H	1.334241	0.389501	0.906589
O60	O	1.469342	0.288291	0.749725
C61	C	1.454656	0.299312	0.896266
H62	H	1.374294	0.315082	0.921820
H63	H	1.465599	0.223015	0.922417
H64	H	1.512197	0.368749	0.963059
O65	O	0.920942	0.228866	0.085299
C66	C	0.902215	0.164752	-0.057032
H67	H	0.866344	0.209713	-0.122973
H68	H	0.976995	0.144440	-0.104356
H69	H	0.848165	0.088260	-0.058861
H70	H	1.072670	0.585410	0.849337
H71	H	0.719160	0.181480	0.067825
H72	H	1.458663	0.296374	0.480185
O73	O	0.808605	0.670670	0.250465
C74	C	0.837513	0.732154	0.155043
H75	H	0.769813	0.767142	0.128638
H76	H	0.902456	0.799381	0.206798
H77	H	0.863647	0.679660	0.052536
O78	O	0.542380	0.207601	0.077513
C79	C	0.435296	0.194991	0.072824
H80	H	0.410838	0.269777	0.057503
H81	H	0.402599	0.123664	-0.020205
H82	H	0.405859	0.181333	0.177377
H83	H	1.193191	-0.190320	0.528663
O84	O	1.190877	-0.307509	0.009497
C85	C	1.277679	-0.330715	-0.067576
H86	H	1.340295	-0.257734	-0.038073
H87	H	1.305489	-0.399872	-0.039774
H88	H	1.257446	-0.353305	-0.187201
H89	H	0.868492	0.575448	0.215063
O90	O	0.681594	0.820050	0.306621
C91	C	0.742001	0.844521	0.434154
H92	H	0.767951	0.769359	0.445559
H93	H	0.811365	0.906537	0.430677
H94	H	0.695535	0.877454	0.529349
H95	H	1.200942	0.174786	0.291367
H96	H	1.193221	-0.190275	-0.172643
O97	O	1.196366	-0.033784	-0.258271
C98	C	1.107408	-0.111150	-0.294604
H99	H	1.046878	-0.087463	-0.215045
H100	H	1.077967	-0.116994	-0.406990
H101	H	1.125442	-0.191551	-0.291159
O102	O	1.199976	0.126797	0.421418
C103	C	1.200722	0.163591	0.571871
H104	H	1.231393	0.105086	0.620561
H105	H	1.251404	0.244926	0.609854
H106	H	1.119975	0.170514	0.606857
O107	O	1.200977	0.183525	-0.177015
C108	C	1.114675	0.233556	-0.165738
H109	H	1.085859	0.245541	-0.053056
H110	H	1.135973	0.314070	-0.188432
H111	H	1.052407	0.181516	-0.246607
H112	H	0.431992	0.362255	0.135382
O113	O	1.334357	0.389422	0.361868
C114	C	1.409612	0.333114	0.292738
H115	H	1.427022	0.275662	0.354166
H116	H	1.380927	0.286508	0.179052
H117	H	1.481737	0.391637	0.289092
H118	H	1.197439	0.009533	0.603397
