data_functionalizedCrystal
_audit_creation_method	'MofGen! by Chris Wilmer'
_symmetry_space_group_name_H-M	'P1'
_symmetry_Int_Tables_number	1
_symmetry_cell_setting	triclinic
loop_
_symmetry_equiv_pos_as_xyz
  x,y,z
_cell_length_a	9.065218
_cell_length_b	16.776229
_cell_length_c	9.065218
_cell_angle_alpha	89.998456
_cell_angle_beta	94.984115
_cell_angle_gamma	90.005845
loop_
_atom_site_label
_atom_site_type_symbol
_atom_site_fract_x
_atom_site_fract_y
_atom_site_fract_z
O1	O	1.960405	0.066287	-0.216354
O2	O	1.531120	0.066288	-0.234100
O3	O	1.754635	0.066285	-0.010585
O4	O	1.736889	0.066289	-0.439869
O5	O	1.754610	-0.066291	-0.010584
O6	O	1.531094	-0.066289	-0.234099
O7	O	1.960379	-0.066290	-0.216353
Zn8	Zn	1.745732	-0.087339	-0.225226
Zn9	Zn	1.745766	0.087336	-0.225227
O10	O	1.736863	-0.066288	-0.439868
C11	C	1.476120	-0.000001	-0.232394
C12	C	1.312277	-0.000000	-0.227294
N13	N	1.745720	-0.206550	-0.225224
C14	C	1.836401	-0.248263	-0.315969
C15	C	1.836417	-0.331715	-0.315964
C16	C	1.745744	-0.373453	-0.225220
C17	C	1.655060	-0.331734	-0.134465
C18	C	1.655052	-0.248283	-0.134463
C19	C	1.655089	-0.668281	-0.134467
C20	C	1.655101	-0.751738	-0.134479
C21	C	1.836454	-0.751713	-0.315968
C22	C	1.836447	-0.668262	-0.315966
C23	C	1.745769	-0.626551	-0.225206
C24	C	1.745754	-0.536062	-0.225211
C25	C	1.745750	-0.463940	-0.225222
C26	C	2.015378	0.000000	-0.218059
C27	C	2.179221	0.000005	-0.223158
C28	C	1.752917	-0.000001	0.044403
C29	C	1.747817	0.000002	0.208245
N30	N	1.745790	0.206548	-0.225217
C31	C	1.738582	0.000001	-0.494855
C32	C	1.743681	0.000002	-0.658698
H33	H	1.910228	-0.214286	-0.389872
H34	H	1.910292	-0.785685	-0.389866
C35	C	1.555310	-0.377638	-0.034645
C36	C	1.386197	-0.366167	-0.054033
C37	C	1.286437	-0.412067	0.045786
C38	C	1.355789	-0.469438	0.164992
C39	C	1.524911	-0.480912	0.184386
C40	C	1.624671	-0.435012	0.084567
H41	H	1.334850	-0.323696	-0.142281
H42	H	1.161241	-0.403573	0.031429
H43	H	1.281941	-0.503416	0.238884
H44	H	1.576258	-0.523383	0.272634
H45	H	1.749866	-0.443505	0.098924
H46	H	1.910261	-0.365674	-0.389855
C47	C	1.555363	-0.797651	-0.034645
C48	C	1.455625	-0.751773	0.065195
C49	C	1.355893	-0.797687	0.165021
C50	C	1.355899	-0.889479	0.165008
C51	C	1.455641	-0.935363	0.065165
C52	C	1.555373	-0.889449	-0.034662
H53	H	1.455618	-0.683818	0.065208
H54	H	1.282058	-0.763720	0.238932
H55	H	1.282072	-0.923467	0.238905
H56	H	1.455649	-1.003318	0.065152
H57	H	1.629209	-0.923416	-0.108572
C58	C	1.555299	-0.202395	-0.034646
C59	C	1.624664	-0.145024	0.084562
C60	C	1.524915	-0.099136	0.184388
C61	C	1.355800	-0.110619	0.165007
C62	C	1.286426	-0.167992	0.045794
C63	C	1.386176	-0.213880	-0.054033
H64	H	1.749861	-0.136522	0.098914
H65	H	1.576271	-0.056665	0.272638
H66	H	1.281960	-0.076650	0.238904
H67	H	1.161230	-0.176495	0.031442
H68	H	1.334820	-0.256352	-0.142282
H69	H	1.910277	-0.634284	-0.389865
H70	H	1.581255	-0.634330	-0.060564
