data_functionalizedCrystal
_audit_creation_method	'MofGen! by Chris Wilmer'
_symmetry_space_group_name_H-M	'P1'
_symmetry_Int_Tables_number	1
_symmetry_cell_setting	triclinic
loop_
_symmetry_equiv_pos_as_xyz
  x,y,z
_cell_length_a	19.805407
_cell_length_b	16.625546
_cell_length_c	19.805399
_cell_angle_alpha	89.972133
_cell_angle_beta	89.980427
_cell_angle_gamma	90.022468
loop_
_atom_site_label
_atom_site_type_symbol
_atom_site_fract_x
_atom_site_fract_y
_atom_site_fract_z
Zn1	Zn	1.034754	-0.321020	-0.382718
Zn2	Zn	1.034677	-0.455857	-0.269529
Zn3	Zn	0.921569	-0.321043	-0.269543
Zn4	Zn	0.921540	-0.455815	-0.382676
O5	O	0.978135	-0.388434	-0.326117
O6	O	1.129461	-0.338915	-0.367716
O7	O	1.019652	-0.438001	-0.174815
O8	O	0.936628	-0.208207	-0.284579
O9	O	1.129404	-0.437980	-0.284556
O10	O	1.019784	-0.208191	-0.367729
O11	O	0.936553	-0.338953	-0.174825
O12	O	0.826848	-0.338912	-0.284538
O13	O	0.936579	-0.437907	-0.477398
O14	O	0.826827	-0.437928	-0.367657
O15	O	1.019756	-0.338874	-0.477429
O16	O	1.019625	-0.568684	-0.284515
O17	O	0.936504	-0.568653	-0.367644
C18	C	0.802279	-0.388418	-0.326095
C19	C	0.727047	-0.388431	-0.326102
C20	C	0.691710	-0.440067	-0.369311
C21	C	0.621021	-0.440068	-0.369321
C22	C	0.585671	-0.388437	-0.326117
C23	C	0.621014	-0.336796	-0.282905
C24	C	0.691701	-0.336791	-0.282899
C25	C	0.335941	-0.336814	-0.282927
C26	C	0.265248	-0.336825	-0.282935
C27	C	0.265261	-0.440091	-0.369349
C28	C	0.335948	-0.440086	-0.369343
C29	C	0.371284	-0.388442	-0.326134
C30	C	0.447932	-0.388440	-0.326125
C31	C	0.509024	-0.388443	-0.326122
C32	C	0.978071	-0.597925	-0.326088
C33	C	0.978105	-0.687546	-0.326099
C34	C	0.978224	-1.015721	-0.326169
C35	C	0.978189	-0.924413	-0.326152
C36	C	0.978164	-0.851636	-0.326134
C37	C	0.978130	-0.760322	-0.326117
C38	C	1.154678	-0.388450	-0.326139
C39	C	1.229910	-0.388457	-0.326149
C40	C	0.978173	-0.388383	-0.502660
C41	C	0.978189	-0.388361	-0.577892
C42	C	0.978218	-0.178125	-0.326160
C43	C	0.978253	-0.088504	-0.326178
C44	C	1.021501	-0.336792	-0.613253
C45	C	1.021508	-0.336769	-0.683941
C46	C	0.978206	-0.388319	-0.719267
C47	C	0.934889	-0.439890	-0.683901
C48	C	0.934880	-0.439909	-0.613214
C49	C	0.934928	-0.439815	-0.968974
C50	C	0.934942	-0.439794	-1.039667
C51	C	1.021556	-0.336675	-1.039702
C52	C	1.021546	-0.336694	-0.969015
C53	C	0.978227	-0.388262	-0.933655
C54	C	0.978219	-0.388285	-0.857006
C55	C	0.978217	-0.388300	-0.795914
C56	C	0.978136	-0.388426	-0.150261
C57	C	0.978251	-0.388221	-0.075029
H58	H	0.592226	-0.294754	-0.247730
C59	C	1.112576	-0.325503	-0.889529
C60	C	1.069134	-0.280021	-0.930180
H61	H	1.141953	-0.290509	-0.865557
H62	H	1.086780	-0.356218	-0.858360
H63	H	1.138467	-0.360618	-0.917105
H64	H	1.043240	-0.244910	-0.902603
H65	H	1.094933	-0.249292	-0.961353
H66	H	0.236481	-0.482139	-0.404534
H67	H	0.720472	-0.294740	-0.247717
H68	H	0.720486	-0.482113	-0.404491
H69	H	1.056764	-0.294817	-0.584496
C70	C	0.843813	-0.451134	-0.533707
C71	C	0.887270	-0.496601	-0.574347
H72	H	0.814417	-0.486135	-0.509719
H73	H	0.869598	-0.420445	-0.502552
H74	H	0.817945	-0.415995	-0.561293
H75	H	0.913143	-0.531736	-0.546761
H76	H	0.861483	-0.527304	-0.605506
H77	H	0.899678	-0.481774	-1.068427
H78	H	0.899630	-0.481861	-0.712669
C79	C	0.925451	-0.548301	-0.889467
C80	C	0.887312	-0.496503	-0.930119
H81	H	0.896050	-0.583296	-0.865477
H82	H	0.954931	-0.579134	-0.917039
H83	H	0.951229	-0.517598	-0.858306
H84	H	0.861537	-0.527205	-0.961283
H85	H	0.857820	-0.465667	-0.902544
H86	H	0.592253	-0.482116	-0.404506
H87	H	0.364726	-0.482132	-0.404522
H88	H	0.236469	-0.294776	-0.247753
C89	C	1.107133	-0.234852	-0.676876
C90	C	1.069122	-0.280088	-0.722810
H91	H	1.136532	-0.199863	-0.700874
H92	H	1.077654	-0.204013	-0.649308
H93	H	1.133000	-0.270006	-0.649302
H94	H	1.043251	-0.244935	-0.750381
H95	H	1.098605	-0.310930	-0.750390
C96	C	0.357655	-0.297352	-0.168374
C97	C	0.374774	-0.280050	-0.235429
H98	H	0.381634	-0.262308	-0.139051
H99	H	0.310502	-0.289971	-0.162202
H100	H	0.369231	-0.351510	-0.158392
H101	H	0.363194	-0.225893	-0.245413
H102	H	0.421937	-0.287424	-0.241605
C103	C	1.060029	-0.290839	-1.148077
C104	C	1.069166	-0.279979	-1.078572
H105	H	1.089419	-0.255835	-1.172071
H106	H	1.069917	-0.345004	-1.159651
H107	H	1.014556	-0.279028	-1.159646
H108	H	1.114638	-0.291795	-1.067002
H109	H	1.059283	-0.225801	-1.066993
