data_functionalizedCrystal
_audit_creation_method	'MofGen! by Chris Wilmer'
_symmetry_space_group_name_H-M	'P1'
_symmetry_Int_Tables_number	1
_symmetry_cell_setting	triclinic
loop_
_symmetry_equiv_pos_as_xyz
  x,y,z
_cell_length_a	11.792241
_cell_length_b	12.503552
_cell_length_c	11.792241
_cell_angle_alpha	93.543652
_cell_angle_beta	95.806584
_cell_angle_gamma	93.543175
loop_
_atom_site_label
_atom_site_type_symbol
_atom_site_fract_x
_atom_site_fract_y
_atom_site_fract_z
O1	O	1.513413	0.089217	-0.149055
O2	O	1.846747	0.422550	0.184279
O3	O	2.180080	0.755883	0.517612
O4	O	1.183074	0.089242	-0.165086
O5	O	1.516408	0.422575	0.168248
O6	O	1.849741	0.755908	0.501581
O7	O	1.356260	0.089221	0.008100
O8	O	1.689593	0.422554	0.341433
O9	O	2.022926	0.755888	0.674766
O10	O	1.340228	0.089237	-0.322240
O11	O	1.673561	0.422571	0.011093
O12	O	2.006895	0.755904	0.344427
O13	O	1.343220	-0.089420	-0.004936
O14	O	1.676553	0.243913	0.328397
O15	O	2.009887	0.577247	0.661730
O16	O	1.170035	-0.089399	-0.178122
O17	O	1.503368	0.243934	0.155212
O18	O	1.836701	0.577267	0.488545
O19	O	1.500374	-0.089424	-0.162091
O20	O	1.833707	0.243909	0.171243
O21	O	2.167040	0.577242	0.504576
Cu22	Cu	1.334014	-0.105723	-0.171296
Cu23	Cu	1.667347	0.227610	0.162037
Cu24	Cu	2.000680	0.560943	0.495370
Cu25	Cu	1.349434	0.105540	-0.155880
Cu26	Cu	1.682768	0.438874	0.177453
Cu27	Cu	2.016101	0.772207	0.510787
O28	O	1.327188	-0.089404	-0.335276
O29	O	1.660522	0.243930	-0.001943
O30	O	1.993855	0.577263	0.331391
C31	C	1.134264	-0.000076	-0.170596
C32	C	1.467597	0.333258	0.162737
C33	C	1.800930	0.666591	0.496070
C34	C	1.008251	-0.000066	-0.167581
C35	C	1.341584	0.333267	0.165752
C36	C	1.674917	0.666600	0.499085
N37	N	1.323176	-0.254315	-0.182139
N38	N	1.656509	0.079019	0.151194
N39	N	1.989842	0.412352	0.484528
C40	C	0.777536	-0.000097	-0.162041
C41	C	1.110870	0.333236	0.171293
C42	C	1.444203	0.666569	0.504626
C43	C	0.905923	-0.000080	-0.165119
C44	C	1.239256	0.333253	0.168214
C45	C	1.572589	0.666586	0.501547
C46	C	1.376218	-0.526754	-0.129075
C47	C	1.709552	-0.193421	0.204258
C48	C	2.042885	0.139913	0.537592
C49	C	1.307242	-0.473422	-0.198089
C50	C	1.640576	-0.140088	0.135245
C51	C	1.973909	0.193245	0.468578
C52	C	1.316110	-0.351499	-0.189212
C53	C	1.649443	-0.018166	0.144121
C54	C	1.982777	0.315167	0.477455
C55	C	1.367352	-0.648688	-0.137950
C56	C	1.700686	-0.315354	0.195383
C57	C	2.034019	0.017979	0.528716
C58	C	1.549185	-0.000105	-0.156580
C59	C	1.882518	0.333229	0.176754
C60	C	2.215851	0.666562	0.510087
C61	C	1.675198	-0.000107	-0.159594
C62	C	2.008531	0.333226	0.173739
C63	C	2.341865	0.666560	0.507072
C64	C	1.348733	-0.000099	0.043873
C65	C	1.682066	0.333234	0.377206
C66	C	2.015399	0.666568	0.710539
C67	C	1.345718	-0.000098	0.169887
C68	C	1.679052	0.333235	0.503220
C69	C	2.012385	0.666569	0.836553
N70	N	1.360281	0.254132	-0.145028
N71	N	1.693615	0.587465	0.188305
N72	N	2.026948	0.920799	0.521638
C73	C	1.334715	-0.000081	-0.371049
C74	C	1.668049	0.333252	-0.037716
C75	C	2.001382	0.666585	0.295618
C76	C	1.337730	-0.000076	-0.497062
C77	C	1.671064	0.333258	-0.163729
C78	C	2.004397	0.666591	0.169604
C79	C	1.340177	-0.000079	0.400600
C80	C	1.673510	0.333254	0.733933
C81	C	2.006844	0.666587	1.067267
C82	C	1.343256	-0.000089	0.272214
C83	C	1.676589	0.333244	0.605547
C84	C	2.009923	0.666577	0.938881
H85	H	1.441927	-0.480852	-0.063329
H86	H	1.775260	-0.147518	0.270004
H87	H	2.108594	0.185815	0.603338
H88	H	1.241531	-0.519330	-0.263840
H89	H	1.574864	-0.185996	0.069493
H90	H	1.908198	0.147337	0.402826
