data_functionalizedCrystal
_audit_creation_method	'MofGen! by Chris Wilmer'
_symmetry_space_group_name_H-M	'P1'
_symmetry_Int_Tables_number	1
_symmetry_cell_setting	triclinic
loop_
_symmetry_equiv_pos_as_xyz
  x,y,z
_cell_length_a	17.917559
_cell_length_b	12.970454
_cell_length_c	12.970454
_cell_angle_alpha	59.999644
_cell_angle_beta	89.999831
_cell_angle_gamma	57.010364
loop_
_atom_site_label
_atom_site_type_symbol
_atom_site_fract_x
_atom_site_fract_y
_atom_site_fract_z
Zr1	Zr	0.754920	1.033572	-0.087835
O2	O	0.629793	1.264401	-0.260329
O3	O	0.793278	0.813656	-0.034956
O4	O	0.793277	1.028748	-0.250048
O5	O	0.629794	1.049308	0.124430
O6	O	0.922237	1.012528	-0.241939
O7	O	0.629794	1.049309	-0.045237
O8	O	0.922238	0.627768	0.142822
O9	O	0.629793	1.434068	-0.260330
O10	O	0.905879	0.887963	-0.006353
O11	O	0.809638	0.900068	0.114217
O12	O	0.809637	1.153311	-0.139027
O13	O	0.713396	1.165415	-0.018457
Zr14	Zr	0.960597	1.007701	0.195698
Zr15	Zr	0.960596	1.007703	-0.074902
Zr16	Zr	0.754921	1.033570	0.182765
Zr17	Zr	0.754920	1.304171	-0.087837
Zr18	Zr	0.960597	0.737101	0.195699
O19	O	0.922238	1.227617	0.142819
O20	O	0.922237	1.227619	-0.241940
O21	O	0.629794	1.264399	0.124429
O22	O	1.085724	0.776872	0.368192
O23	O	1.085722	0.776874	-0.016566
O24	O	0.793279	0.813654	0.349803
O25	O	1.085723	0.991965	-0.016568
O26	O	0.922239	1.012525	0.357911
O27	O	0.793280	1.028745	0.349801
O28	O	1.085723	0.991964	0.153100
O29	O	0.793278	1.413506	-0.250050
O30	O	0.922239	0.627767	0.357913
O31	O	1.085724	0.607204	0.368193
O32	O	1.085723	0.607205	0.153102
O33	O	0.629794	1.434067	-0.045239
O34	O	0.793278	1.413505	-0.034959
O35	O	0.905879	0.887962	0.246889
O36	O	1.002120	0.875858	0.126320
O37	O	0.905879	1.141205	-0.006354
O38	O	0.809638	1.153309	0.114215
C39	C	0.857758	0.682157	0.053933
C40	C	0.857758	0.567280	0.053934
C41	C	0.600489	1.052994	0.037754
C42	C	0.513175	1.063976	0.032263
C43	C	0.362183	0.957254	0.085622
C44	C	0.353341	1.084012	0.022244
C45	C	0.442282	1.072861	0.027820
C46	C	0.273235	0.968403	0.080047
C47	C	1.115027	0.988278	0.070109
C48	C	1.202342	0.977296	0.075599
C49	C	0.857757	1.020638	-0.284548
C50	C	0.857757	1.020639	-0.399425
C51	C	0.857758	1.359116	0.053930
C52	C	0.857758	1.473992	0.053929
C53	C	0.857759	1.020635	0.392411
C54	C	0.857760	1.020634	0.507287
C55	C	1.115027	0.649799	0.070111
C56	C	1.202342	0.523940	0.075602
C57	C	0.857759	0.682155	0.392412
C58	C	0.857760	0.567278	0.507290
C59	C	1.115028	0.649797	0.408590
C60	C	1.202343	0.523938	0.528958
C61	C	0.600488	1.391475	-0.300727
C62	C	0.513173	1.517335	-0.421095
C63	C	0.600489	1.391474	0.037752
C64	C	0.513175	1.517332	0.032261
C65	C	0.857757	1.359117	-0.284550
C66	C	0.857757	1.473995	-0.399427
C67	C	1.193109	0.471155	0.008915
C68	C	1.275142	0.352913	0.014049
C69	C	1.366408	0.287452	0.085877
C70	C	1.375639	0.340248	0.152565
C71	C	1.293607	0.458495	0.147424
C72	C	1.293593	0.458514	0.522548
C73	C	1.375642	0.340270	0.635637
C74	C	1.366441	0.287444	0.755133
C75	C	1.275182	0.352880	0.761540
C76	C	1.193134	0.471130	0.648452
C77	C	0.421924	1.582772	-0.414686
C78	C	0.339874	1.701050	-0.527774
C79	C	0.349076	1.753881	-0.647271
C80	C	0.440335	1.688438	-0.653677
C81	C	0.522383	1.570170	-0.540590
C82	C	0.522408	1.570129	0.098936
C83	C	0.440374	1.688401	0.093773
C84	C	0.349109	1.753866	0.021941
C85	C	0.339877	1.701064	-0.044742
C86	C	0.421910	1.582802	-0.039586
H87	H	0.278975	1.200908	-0.036213
H88	H	0.447816	1.731468	-0.750984
F89	F	0.261744	1.879754	-0.767619
H90	H	1.449942	0.287003	0.630398
H91	H	1.449959	0.286933	0.211046
F92	F	0.242737	1.770750	-0.121184
H93	H	1.301103	0.501506	0.425259
H94	H	1.301138	0.501458	0.201736
F95	F	0.412068	1.526617	-0.110548
F96	F	0.459378	0.804472	0.162023
F97	F	1.453772	0.161589	0.875482
F98	F	1.095984	0.540807	-0.067542
F99	F	1.265297	0.296740	-0.056930
F100	F	0.242759	1.770675	-0.520929
H101	H	1.433196	0.191167	0.090054
H102	H	1.267704	0.309852	0.858849
H103	H	1.118838	0.524384	0.653689
F104	F	0.261810	1.879730	0.016466
H105	H	0.414413	1.539765	-0.317396
H106	H	0.596680	1.516891	-0.545823
H107	H	0.596714	1.516836	0.157438
H108	H	0.447909	1.731371	0.148080
