data_functionalizedCrystal
_audit_creation_method	'MofGen! by Chris Wilmer'
_symmetry_space_group_name_H-M	'P1'
_symmetry_Int_Tables_number	1
_symmetry_cell_setting	triclinic
loop_
_symmetry_equiv_pos_as_xyz
  x,y,z
_cell_length_a	6.817900
_cell_length_b	12.840976
_cell_length_c	16.305597
_cell_angle_alpha	81.389179
_cell_angle_beta	103.455834
_cell_angle_gamma	88.343600
loop_
_atom_site_label
_atom_site_type_symbol
_atom_site_fract_x
_atom_site_fract_y
_atom_site_fract_z
V1	V	-3.898081	0.325576	-0.118701
O2	O	-3.888324	0.319010	0.003664
O3	O	-3.850208	0.323703	-0.233402
O4	O	-3.793681	0.467409	-0.117770
O5	O	-3.945243	0.174309	-0.112768
V6	V	-4.388897	0.307440	-0.103959
O7	O	-4.143342	0.365358	-0.151039
O8	O	-4.593833	0.267658	-0.071621
O9	O	-4.213563	0.309313	0.010742
O10	O	-4.516050	0.314006	-0.226324
O11	O	-4.459132	0.458707	-0.109891
O12	O	-4.270090	0.165607	-0.104890
C13	C	-3.697149	0.318658	-0.261335
C14	C	-3.738921	0.318072	-0.355111
C15	C	-3.620914	0.620100	-0.113849
C16	C	-3.625043	0.501967	-0.113843
C17	C	-4.085086	0.012921	-0.108867
C18	C	-4.102086	0.131047	-0.108842
C19	C	-3.890866	0.315994	-0.695856
C20	C	-3.657388	0.310298	-0.654991
C21	C	-3.613773	0.310494	-0.557394
C22	C	-3.815483	0.317026	-0.526809
C23	C	-3.936698	0.219837	-0.551584
C24	C	-3.978786	0.219118	-0.649112
C25	C	-3.988518	0.418599	-0.675660
C26	C	-3.940979	0.420399	-0.578158
C27	C	-3.772891	0.317606	-0.431270
C28	C	-3.933465	0.315407	-0.791394
V29	V	-3.881045	0.811743	-0.118732
O30	O	-3.917609	0.962935	-0.112813
O31	O	-3.786772	0.664554	-0.117788
O32	O	-3.831637	0.853477	-0.233434
O33	O	-3.872434	0.772704	0.003633
V34	V	-4.369919	0.849148	-0.103998
O35	O	-4.128240	0.796310	-0.151071
O36	O	-4.572129	0.887269	-0.071666
O37	O	-4.241378	0.985089	-0.104939
O38	O	-4.450545	0.703873	-0.109919
O39	O	-4.495720	0.894104	-0.226365
O40	O	-4.196513	0.796166	0.010706
C41	C	-4.029965	0.314355	0.038671
C42	C	-3.967429	0.314947	0.132446
C43	C	-3.678129	0.861092	-0.261362
C44	C	-3.718569	0.898354	-0.355137
C45	C	-4.013953	0.771582	0.038643
C46	C	-3.952790	0.733283	0.132420
C47	C	-3.917616	0.921319	-0.403509
C48	C	-3.955640	0.956346	-0.491620
C49	C	-3.794615	0.968400	-0.531359
C50	C	-3.595551	0.945434	-0.482980
C51	C	-3.557529	0.910415	-0.394870
C52	C	-3.749998	0.702886	0.172143
C53	C	-3.692496	0.666912	0.260258
C54	C	-3.837791	0.661330	0.308648
C55	C	-4.040599	0.691733	0.268921
C56	C	-4.098096	0.727713	0.180808
H57	H	-3.520208	0.379943	-0.540900
Cl58	Cl	-3.765476	0.616092	0.419419
H59	H	-4.159109	0.423786	-0.702689
H60	H	-3.848813	0.143313	-0.515506
Cl61	Cl	-4.353054	0.765913	0.130882
H62	H	-4.148827	0.219052	-0.675955
H63	H	-3.584321	0.379467	-0.685892
H64	H	-3.464455	0.955254	-0.515348
Cl65	Cl	-3.842450	1.012422	-0.642129
Cl66	Cl	-3.307279	0.881538	-0.334071
Cl67	Cl	-4.120084	0.906181	-0.353571
H68	H	-3.631662	0.707430	0.132755
Cl69	Cl	-4.205903	0.985204	-0.552422
H70	H	-4.086308	0.220898	-0.531738
H71	H	-3.527353	0.642159	0.292590
H72	H	-4.089074	0.431202	-0.558391
Cl73	Cl	-3.901005	0.532396	-0.726553
H74	H	-4.158884	0.687183	0.308334
H75	H	-3.853821	0.492313	-0.562907
H76	H	-3.516181	0.236279	-0.522508
Cl77	Cl	-3.540166	0.196048	-0.675133
H78	H	-3.910180	0.141922	-0.660141
