data_functionalizedCrystal
_audit_creation_method	'MofGen! by Chris Wilmer'
_symmetry_space_group_name_H-M	'P1'
_symmetry_Int_Tables_number	1
_symmetry_cell_setting	triclinic
loop_
_symmetry_equiv_pos_as_xyz
  x,y,z
_cell_length_a	27.732064
_cell_length_b	26.809956
_cell_length_c	27.731996
_cell_angle_alpha	90.001656
_cell_angle_beta	82.635407
_cell_angle_gamma	90.001122
loop_
_atom_site_label
_atom_site_type_symbol
_atom_site_fract_x
_atom_site_fract_y
_atom_site_fract_z
O1	O	0.640915	0.041397	0.057550
O2	O	0.500121	0.041418	0.066287
O3	O	0.574904	0.041396	-0.008480
O4	O	0.566132	0.041419	0.132317
O5	O	0.574890	-0.041563	-0.008468
O6	O	0.500107	-0.041541	0.066299
O7	O	0.640901	-0.041562	0.057561
Zn8	Zn	0.570502	-0.054723	0.061932
Zn9	Zn	0.570520	0.054579	0.061917
O10	O	0.566118	-0.041540	0.132328
C11	C	0.482107	-0.000059	0.066108
C12	C	0.428453	-0.000051	0.065552
N13	N	0.570492	-0.129319	0.061942
C14	C	0.051389	-0.000087	0.017584
C15	C	0.253049	-0.000074	0.019630
O16	O	0.284309	-0.000099	-0.017592
N17	N	0.272168	-0.000064	0.063966
C18	C	0.240869	-0.000062	0.107793
O19	O	0.261758	-0.000058	0.145549
C20	C	0.039210	-0.000078	0.105746
C21	C	0.020094	-0.000083	0.061407
C22	C	0.032272	-0.000092	-0.026751
C23	C	-0.018140	-0.000093	-0.027262
C24	C	-0.049435	-0.000088	0.016562
C25	C	-0.030318	-0.000083	0.060896
C26	C	0.007912	-0.000079	0.149572
C27	C	-0.042506	-0.000085	0.149057
C28	C	-0.061622	-0.000089	0.104718
C29	C	-0.112026	-0.000080	0.104209
N30	N	-0.131145	-0.000089	0.059873
C31	C	-0.099849	-0.000093	0.016050
C32	C	0.346743	-0.000052	0.108864
C33	C	0.397158	-0.000047	0.109376
C34	C	0.409334	-0.000060	0.021213
C35	C	0.358919	-0.000061	0.020702
C36	C	0.327624	-0.000061	0.064529
C37	C	-0.205719	-0.000094	0.014980
C38	C	-0.256136	-0.000093	0.014473
C39	C	-0.268308	-0.000082	0.102635
C40	C	-0.217895	-0.000081	0.103142
C41	C	-0.186601	-0.000089	0.059311
O42	O	-0.143313	-0.000061	0.141411
O43	O	-0.120748	-0.000108	-0.021702
C44	C	0.101801	-0.000087	0.018095
C45	C	0.120918	-0.000082	0.062430
C46	C	0.089623	-0.000077	0.106253
C47	C	0.171332	-0.000077	0.062941
C48	C	0.202628	-0.000081	0.019118
C49	C	0.183508	-0.000090	-0.025218
C50	C	0.133096	-0.000091	-0.025729
C51	C	0.108742	-0.000068	0.150589
C52	C	0.159154	-0.000067	0.151096
C53	C	0.190450	-0.000071	0.107273
C54	C	0.603630	-0.473955	0.028818
C55	C	0.603641	-0.682833	0.028811
O56	O	0.631796	-0.709845	0.000651
N57	N	0.570523	-0.708946	0.061906
C58	C	0.537397	-0.682837	0.095004
O59	O	0.509225	-0.709841	0.123150
C60	C	0.537384	-0.473960	0.095008
C61	C	0.570508	-0.447850	0.061914
C62	C	0.636751	-0.447844	-0.004274
C63	C	0.636749	-0.395628	-0.004270
C64	C	0.603627	-0.369522	0.028826
C65	C	0.570506	-0.395633	0.061918
C66	C	0.504256	-0.447852	0.128103
C67	C	0.504255	-0.395630	0.128101
C68	C	0.537379	-0.369519	0.095006
C69	C	0.537382	-0.317312	0.095018
N70	N	0.570501	-0.291198	0.061922
C71	C	0.603623	-0.317303	0.028826
C72	C	0.537407	-0.792500	0.094999
C73	C	0.537411	-0.844719	0.094999
C74	C	0.603655	-0.844711	0.028805
C75	C	0.603653	-0.792491	0.028808
C76	C	0.570526	-0.766387	0.061904
C77	C	0.603618	-0.207645	0.028837
C78	C	0.603615	-0.155425	0.028846
C79	C	0.537370	-0.155437	0.095037
C80	C	0.537374	-0.207653	0.095031
C81	C	0.570500	-0.233756	0.061927
O82	O	0.509239	-0.290267	0.123159
O83	O	0.631784	-0.290290	0.000677
C84	C	0.603631	-0.526171	0.028814
C85	C	0.570510	-0.552282	0.061906
C86	C	0.537388	-0.526177	0.095002
C87	C	0.570514	-0.604501	0.061906
C88	C	0.603637	-0.630606	0.028810
C89	C	0.636755	-0.604493	-0.004286
C90	C	0.636753	-0.552277	-0.004282
C91	C	0.504270	-0.552290	0.128097
C92	C	0.504274	-0.604507	0.128091
C93	C	0.537397	-0.630612	0.094995
C94	C	0.658915	-0.000084	0.057740
C95	C	0.712569	-0.000089	0.058296
C96	C	0.574717	-0.000085	-0.026481
C97	C	0.574174	-0.000090	-0.080138
N98	N	0.570533	0.129175	0.061903
C99	C	0.570767	0.045156	-0.412860
C100	C	0.568706	0.045165	-0.614519
O101	O	0.568425	0.083624	-0.640595
N102	N	0.568442	-0.000056	-0.639730
C103	C	0.568691	-0.045282	-0.614523
O104	O	0.568414	-0.083744	-0.640592
C105	C	0.570748	-0.045290	-0.412865
C106	C	0.571017	-0.000067	-0.387657
C107	C	0.571035	0.090376	-0.387653
C108	C	0.571553	0.090373	-0.337242
C109	C	0.571803	0.045150	-0.312038
C110	C	0.571535	-0.000069	-0.337246
C111	C	0.570993	-0.090516	-0.387658
C112	C	0.571506	-0.090514	-0.337240
C113	C	0.571775	-0.045290	-0.312032
C114	C	0.572302	-0.045295	-0.261631
N115	N	0.572566	-0.000074	-0.236420
C116	C	0.572316	0.045148	-0.261624
C117	C	0.567611	-0.045274	-0.720396
C118	C	0.567098	-0.045272	-0.770810
C119	C	0.567112	0.045175	-0.770803
C120	C	0.567629	0.045172	-0.720388
C121	C	0.567875	-0.000053	-0.695185
C122	C	0.573404	0.045139	-0.155757
C123	C	0.573924	0.045133	-0.105341
C124	C	0.573907	-0.045314	-0.105353
C125	C	0.573390	-0.045308	-0.155764
C126	C	0.573137	-0.000077	-0.180964
O127	O	0.572578	-0.083734	-0.235523
O128	O	0.572582	0.083605	-0.235544
C129	C	0.570249	0.045159	-0.463272
C130	C	0.569981	-0.000061	-0.488479
C131	C	0.570231	-0.045284	-0.463276
C132	C	0.569467	-0.000059	-0.538894
C133	C	0.569218	0.045163	-0.564097
C134	C	0.569481	0.090384	-0.538886
C135	C	0.569999	0.090381	-0.488475
C136	C	0.569967	-0.090504	-0.488487
C137	C	0.569450	-0.090498	-0.538898
C138	C	0.569200	-0.045275	-0.564102
C139	C	0.566305	-0.000058	0.150330
C140	C	0.566848	-0.000049	0.203986
H141	H	-0.271697	-0.000095	-0.021635
H142	H	0.477284	-0.469104	0.155051
H143	H	0.477302	-0.625762	0.155045
H144	H	0.208998	-0.000091	-0.060900
Cl145	Cl	-0.081845	-0.000086	0.204157
H146	H	-0.202330	-0.000077	0.139246
H147	H	0.510403	-0.134174	0.121985
Cl148	Cl	0.566795	0.102026	-0.802496
H149	H	0.663723	-0.469095	-0.031227
Cl150	Cl	0.645260	-0.122602	-0.012761
H151	H	0.477297	-0.531039	0.155048
H152	H	0.510406	-0.228913	0.121984
H153	H	0.570830	0.127204	-0.408168
H154	H	0.412717	-0.000036	0.145480
H155	H	0.630625	-0.865975	0.001858
H156	H	0.570171	-0.127331	-0.467971
Cl157	Cl	0.567918	-0.102135	-0.688719
Cl158	Cl	0.334893	-0.000069	-0.035040
Cl159	Cl	0.678395	-0.637321	-0.045891
H160	H	-0.180245	-0.000100	-0.020712
H161	H	0.573176	-0.082132	-0.176290
H162	H	0.321266	-0.000051	0.144555
H163	H	0.574144	0.081961	-0.084820
Cl164	Cl	0.570336	0.147237	-0.456793
Cl165	Cl	0.645263	-0.240452	-0.012779
H166	H	0.574113	-0.082133	-0.084823
Cl167	Cl	0.109073	-0.000094	-0.081471
Cl168	Cl	0.678396	-0.519459	-0.045889
Cl169	Cl	0.569169	0.147235	-0.570581
H170	H	0.573196	0.081970	-0.176269
H171	H	0.571770	0.127199	-0.316722
H172	H	0.663720	-0.374371	-0.031220
H173	H	0.630625	-0.771235	0.001860
Cl174	Cl	0.495774	-0.877539	0.136611
Cl175	Cl	0.448686	-0.000065	-0.033879
Cl176	Cl	0.462605	-0.362816	0.169709
H177	H	0.510430	-0.771250	0.121951
Cl178	Cl	0.567965	0.102027	-0.688704
Cl179	Cl	0.566770	-0.102127	-0.802495
H180	H	-0.033699	-0.000098	-0.063367
Cl181	Cl	0.071607	-0.000098	-0.081851
H182	H	0.023467	-0.000073	0.185677
Cl183	Cl	0.570652	-0.147372	-0.419335
Cl184	Cl	0.571816	-0.147373	-0.305559
Cl185	Cl	0.569115	-0.147357	-0.570582
H186	H	0.174713	-0.000060	0.187204
Cl187	Cl	-0.307660	-0.000075	0.157724
H188	H	0.083265	-0.000065	0.186276
