data_functionalizedCrystal
_audit_creation_method	'MofGen! by Chris Wilmer'
_symmetry_space_group_name_H-M	'P1'
_symmetry_Int_Tables_number	1
_symmetry_cell_setting	triclinic
loop_
_symmetry_equiv_pos_as_xyz
  x,y,z
_cell_length_a	15.944551
_cell_length_b	15.944551
_cell_length_c	15.021413
_cell_angle_alpha	89.996935
_cell_angle_beta	89.997174
_cell_angle_gamma	96.501262
loop_
_atom_site_label
_atom_site_type_symbol
_atom_site_fract_x
_atom_site_fract_y
_atom_site_fract_z
O1	O	1.114529	-0.108321	-0.073941
O2	O	0.869979	-0.121677	-0.073964
O3	O	0.998932	0.007276	-0.073944
O4	O	0.985576	-0.237274	-0.073961
O5	O	0.998912	0.007257	0.074121
O6	O	0.869959	-0.121695	0.074101
O7	O	1.114508	-0.108339	0.074123
Zn8	Zn	0.992230	-0.115020	0.097620
Zn9	Zn	0.992257	-0.114996	-0.097461
O10	O	0.985555	-0.237292	0.074103
C11	C	0.838675	-0.121132	0.000066
C12	C	0.745429	-0.119470	0.000057
C13	C	0.530572	-0.035565	0.000081
C14	C	0.469562	-0.074518	-0.072926
C15	C	0.574703	-0.116462	0.000068
C16	C	0.469564	-0.074556	0.073054
C17	C	0.409790	-0.113551	0.000083
C18	C	0.514921	-0.155438	-0.072998
C19	C	0.514930	-0.155464	0.073047
C20	C	0.453937	-0.194476	0.000023
C21	C	0.669705	-0.118137	0.000059
C22	C	0.314789	-0.111883	0.000085
C23	C	0.998367	0.038561	0.000089
C24	C	0.996705	0.131807	0.000089
C25	C	1.145813	-0.108885	0.000092
C26	C	1.239059	-0.110547	0.000094
C27	C	0.986120	-0.268577	0.000069
C28	C	0.987782	-0.361823	0.000063
N29	N	0.992218	-0.115036	0.230758
C30	C	0.912801	0.346663	0.000069
C31	C	0.951753	0.407672	0.073077
C32	C	0.993698	0.302533	0.000082
C33	C	0.951792	0.407673	-0.072903
C34	C	0.990787	0.467445	0.000071
C35	C	1.032672	0.362313	0.073150
C36	C	1.032700	0.362308	-0.072895
C37	C	1.071711	0.423298	0.000131
C38	C	0.995372	0.207530	0.000089
C39	C	0.989119	0.562446	0.000070
N40	N	0.992276	-0.114973	-0.230598
C41	C	0.932581	-0.174636	0.470432
C42	C	1.008481	-0.190943	0.529772
C43	C	0.992239	-0.115015	0.412365
C44	C	0.916360	-0.098727	0.529766
C45	C	0.992253	-0.114997	0.587789
C46	C	1.068178	-0.131360	0.470398
C47	C	0.976006	-0.039111	0.470387
C48	C	1.051962	-0.055386	0.529701
C49	C	0.992230	-0.115028	0.311307
C50	C	0.992271	-0.114984	0.688844
H51	H	0.420779	-0.261683	-0.000023
H52	H	0.962240	0.025051	0.444283
O53	O	0.538924	-0.196135	0.146766
C54	C	0.516062	-0.153285	0.223592
H55	H	0.509297	-0.084802	0.206106
H56	H	0.566984	-0.155343	0.276567
H57	H	0.453420	-0.185059	0.250228
H58	H	1.066851	0.342314	0.134941
O59	O	0.910983	0.431807	0.146675
C60	C	0.910641	0.520194	0.146038
H61	H	0.964921	0.550103	0.103066
H62	H	0.918507	0.545400	0.216920
H63	H	0.848220	0.536549	0.117612
O64	O	1.024758	-0.267508	0.561006
C65	C	0.956597	-0.302547	0.613942
H66	H	0.920412	-0.249913	0.639959
H67	H	0.981619	-0.337823	0.672483
H68	H	0.912645	-0.348239	0.572190
O69	O	0.445630	-0.033558	-0.146486
C70	C	0.485049	0.050185	-0.146235
H71	H	0.503290	0.069670	-0.075191
H72	H	0.439602	0.094012	-0.173806
H73	H	0.544130	0.054592	-0.189503
O74	O	1.151836	0.462986	0.000119
C75	C	1.149419	0.551105	-0.000601
H76	H	1.086458	0.565911	-0.029030
H77	H	1.203112	0.582169	-0.043614
H78	H	1.156733	0.576490	0.070257
O79	O	1.073373	0.338316	-0.146614
C80	C	1.030524	0.361181	-0.223440
H81	H	0.962041	0.367944	-0.205956
H82	H	1.032584	0.310261	-0.276417
H83	H	1.062298	0.423824	-0.250073
O84	O	0.538917	-0.196158	-0.146689
C85	C	0.627215	-0.197219	-0.145813
H86	H	0.657407	-0.143304	-0.102545
H87	H	0.652672	-0.189269	-0.216595
H88	H	0.642965	-0.259939	-0.117593
H89	H	0.449470	-0.040332	0.134773
O90	O	0.910859	0.431532	-0.146512
C91	C	0.827106	0.392137	-0.146227
H92	H	0.823074	0.332733	-0.103488
H93	H	0.806982	0.374435	-0.217226
H94	H	0.783538	0.437385	-0.117739
O95	O	0.832682	0.306959	0.000301
C96	C	0.790325	0.329948	0.077404
H97	H	0.838536	0.351932	0.130940
H98	H	0.747115	0.273159	0.102877
H99	H	0.751072	0.383339	0.060743
H100	H	1.102474	-0.004956	0.555561
O101	O	0.872545	-0.234940	0.439417
C102	C	0.889983	-0.314854	0.469696
H103	H	0.959967	-0.312487	0.486336
H104	H	0.873137	-0.363850	0.415425
H105	H	0.850946	-0.332844	0.531808
H106	H	1.132368	-0.145206	0.444430
O107	O	0.839763	-0.082245	0.560725
C108	C	0.785789	-0.071506	0.488271
H109	H	0.825189	-0.052578	0.426648
H110	H	0.744177	-0.019978	0.504707
H111	H	0.744355	-0.133277	0.474868
O112	O	0.570416	0.044497	-0.000113
C113	C	0.621844	0.056655	-0.076426
H114	H	0.638056	-0.007036	-0.101511
H115	H	0.682439	0.098351	-0.058872
H116	H	0.586623	0.088480	-0.130604
