data_functionalizedCrystal
_audit_creation_method	'MofGen! by Chris Wilmer'
_symmetry_space_group_name_H-M	'P1'
_symmetry_Int_Tables_number	1
_symmetry_cell_setting	triclinic
loop_
_symmetry_equiv_pos_as_xyz
  x,y,z
_cell_length_a	13.033291
_cell_length_b	25.639239
_cell_length_c	13.032268
_cell_angle_alpha	97.141717
_cell_angle_beta	89.079236
_cell_angle_gamma	97.207818
loop_
_atom_site_label
_atom_site_type_symbol
_atom_site_fract_x
_atom_site_fract_y
_atom_site_fract_z
Zn1	Zn	1.498348	-0.162668	-0.781443
Zn2	Zn	1.520038	-0.237806	-0.609452
Zn3	Zn	1.348210	-0.159907	-0.587619
Zn4	Zn	1.326273	-0.259603	-0.759488
O5	O	1.423217	-0.204996	-0.684500
O6	O	1.645150	-0.164669	-0.776954
O7	O	1.515502	-0.217195	-0.462650
O8	O	1.368230	-0.087105	-0.613382
O9	O	1.661085	-0.219873	-0.650593
O10	O	1.478535	-0.089133	-0.755783
O11	O	1.389261	-0.159963	-0.446609
O12	O	1.201376	-0.181098	-0.592092
O13	O	1.330841	-0.257022	-0.906306
O14	O	1.185259	-0.254344	-0.718363
O15	O	1.457264	-0.185804	-0.922437
O16	O	1.494231	-0.313866	-0.629304
O17	O	1.351873	-0.329880	-0.739534
C18	C	1.155999	-0.219787	-0.650477
C19	C	1.041679	-0.226130	-0.635946
C20	C	0.864660	-0.208250	-0.677075
C21	C	0.982816	-0.201696	-0.692092
C22	C	1.423050	-0.340845	-0.684431
C23	C	1.423069	-0.398959	-0.684448
C24	C	1.497500	-0.750963	-0.627238
C25	C	1.497539	-0.805566	-0.627256
O26	O	1.560650	-0.826702	-0.578539
N27	N	1.423389	-0.841230	-0.684592
C28	C	1.349204	-0.822288	-0.741920
O29	O	1.286138	-0.857637	-0.790691
C30	C	1.349171	-0.767686	-0.741907
C31	C	1.423319	-0.732025	-0.684559
C32	C	1.571643	-0.715302	-0.569896
C33	C	1.571603	-0.660703	-0.569876
C34	C	1.497421	-0.641765	-0.627197
C35	C	1.423279	-0.677425	-0.684539
C36	C	1.274991	-0.748746	-0.799240
C37	C	1.274965	-0.694139	-0.799222
C38	C	1.349112	-0.658478	-0.741875
C39	C	1.349057	-0.603888	-0.741841
N40	N	1.423207	-0.568224	-0.684505
C41	C	1.497389	-0.587162	-0.627184
C42	C	1.349279	-0.936956	-0.741946
C43	C	1.349306	-0.991557	-0.741954
C44	C	1.497643	-0.974831	-0.627292
C45	C	1.497610	-0.920229	-0.627278
C46	C	1.423428	-0.901292	-0.684611
C47	C	1.497299	-0.472501	-0.627145
C48	C	1.497250	-0.417897	-0.627127
C49	C	1.348918	-0.434628	-0.741793
C50	C	1.348963	-0.489226	-0.741807
C51	C	1.423162	-0.508161	-0.684481
O52	O	1.285980	-0.582713	-0.790536
O53	O	1.560452	-0.551809	-0.578432
C54	C	1.691479	-0.190147	-0.718658
C55	C	1.805796	-0.183820	-0.733213
C56	C	1.389186	-0.224152	-0.952728
C57	C	1.374684	-0.232315	-1.067030
C58	C	1.423410	-0.068617	-0.684596
C59	C	1.423492	-0.010500	-0.684637
C60	C	1.430770	-0.200718	-1.125971
C61	C	1.415783	-0.209154	-1.244109
C62	C	1.457175	-0.185873	-0.417324
C63	C	1.471877	-0.177552	-0.303048
H64	H	1.019891	-0.175924	-0.751273
C65	C	1.193364	-0.673309	-0.862287
H66	H	1.203960	-0.635683	-0.854074
H67	H	1.126194	-0.685047	-0.838392
H68	H	1.199611	-0.686342	-0.933310
C69	C	0.855870	-0.149008	-0.813164
H70	H	0.803617	-0.134528	-0.846433
H71	H	0.892097	-0.169931	-0.863185
H72	H	0.902776	-0.121081	-0.779190
C73	C	1.335926	-0.254141	-1.294078
H74	H	1.336335	-0.253913	-1.366925
H75	H	1.269042	-0.249074	-1.267732
H76	H	1.353152	-0.287195	-1.278417
C77	C	1.578820	-0.378672	-0.564048
H78	H	1.623011	-0.397775	-0.529922
H79	H	1.545194	-0.356376	-0.514194
H80	H	1.618594	-0.357674	-0.609124
C81	C	1.578910	-0.493321	-0.564079
H82	H	1.623048	-0.464257	-0.529922
H83	H	1.618719	-0.514922	-0.609150
H84	H	1.545299	-0.513623	-0.514235
H85	H	1.631983	-0.631670	-0.523182
H86	H	1.004607	-0.251899	-0.576761
C87	C	1.267402	-0.528455	-0.804886
H88	H	1.223220	-0.509353	-0.839025
H89	H	1.227631	-0.549461	-0.759827
H90	H	1.301048	-0.550744	-0.854745
H91	H	1.530988	-0.144249	-1.266053
C92	C	1.294831	-0.277300	-1.117004
H93	H	1.295240	-0.277072	-1.189851
H94	H	1.227947	-0.272233	-1.090658
H95	H	1.312057	-0.310354	-1.101343
H96	H	0.827583	-0.234015	-0.617889
C97	C	1.653245	-0.736126	-0.506830
H98	H	1.697384	-0.707060	-0.472676
H99	H	1.693054	-0.757729	-0.551896
H100	H	1.619633	-0.756425	-0.456982
H101	H	1.557988	-0.891196	-0.580582
C102	C	1.579240	-0.995670	-0.564235
H103	H	1.568638	-1.033297	-0.572466
H104	H	1.573005	-0.982639	-0.493216
H105	H	1.646416	-0.983939	-0.588138
C106	C	1.267739	-1.030779	-0.805029
H107	H	1.223562	-1.011674	-0.839168
H108	H	1.227964	-1.051781	-0.759967
H109	H	1.301375	-1.053072	-0.854889
H110	H	1.288863	-0.921541	-0.788629
H111	H	1.489879	-0.167419	-1.088971
C112	C	1.193440	-0.787964	-0.862336
H113	H	1.204070	-0.823198	-0.854143
H114	H	1.199679	-0.783091	-0.933344
H115	H	1.126252	-0.781802	-0.838434
C116	C	1.267328	-0.413788	-0.804847
H117	H	1.277939	-0.376162	-0.796627
H118	H	1.200153	-0.425520	-0.780959
H119	H	1.273577	-0.426818	-0.875871
