data_functionalizedCrystal
_audit_creation_method	'MofGen! by Chris Wilmer'
_symmetry_space_group_name_H-M	'P1'
_symmetry_Int_Tables_number	1
_symmetry_cell_setting	triclinic
loop_
_symmetry_equiv_pos_as_xyz
  x,y,z
_cell_length_a	16.959447
_cell_length_b	10.686220
_cell_length_c	10.686285
_cell_angle_alpha	89.654569
_cell_angle_beta	85.609753
_cell_angle_gamma	85.647861
loop_
_atom_site_label
_atom_site_type_symbol
_atom_site_fract_x
_atom_site_fract_y
_atom_site_fract_z
Zn1	Zn	-0.336168	-1.956148	-0.352100
Zn2	Zn	-0.193167	-1.972154	-0.561884
Zn3	Zn	-0.213297	-1.746385	-0.368251
Zn4	Zn	-0.334598	-1.762473	-0.577921
O5	O	-0.269308	-1.859290	-0.465039
O6	O	-0.309431	-2.133809	-0.366457
O7	O	-0.085226	-1.942171	-0.536246
O8	O	-0.238677	-1.760779	-0.190565
O9	O	-0.204369	-2.145569	-0.520585
O10	O	-0.328950	-1.914891	-0.178699
O11	O	-0.100015	-1.776300	-0.393984
O12	O	-0.237155	-1.572981	-0.409535
O13	O	-0.445418	-1.788199	-0.547918
O14	O	-0.326275	-1.584801	-0.563579
O15	O	-0.446571	-1.930491	-0.382008
O16	O	-0.202847	-1.957770	-0.739555
O17	O	-0.306756	-1.803719	-0.751337
C18	C	-0.283730	-1.533376	-0.490051
C19	C	-0.289917	-1.393950	-0.500781
C20	C	-0.252463	-1.884261	-0.790960
C21	C	-0.245278	-1.895059	-0.930381
C22	C	-0.475477	-1.859354	-0.464950
C23	C	-0.563334	-1.859381	-0.464912
C24	C	-0.604009	-1.785311	-0.551277
C25	C	-0.605214	-1.933469	-0.378504
C26	C	-0.687761	-1.933492	-0.378461
C27	C	-0.728436	-1.859422	-0.464826
C28	C	-0.686564	-1.785328	-0.551234
C29	C	-0.729639	-2.007574	-0.292046
C30	C	-0.812191	-2.007599	-0.291999
C31	C	-0.852868	-1.933535	-0.378371
C32	C	-0.810991	-1.859439	-0.464783
C33	C	-0.851666	-1.785369	-0.551148
C34	C	-0.809790	-1.711280	-0.637568
C35	C	-0.727240	-1.711264	-0.637606
C36	C	-0.935417	-1.933550	-0.378332
C37	C	-0.934221	-1.785387	-0.551106
C38	C	-0.063942	-1.859291	-0.465031
C39	C	0.023908	-1.859480	-0.464697
C40	C	-0.254830	-2.186477	-0.439931
C41	C	-0.248660	-2.325904	-0.429231
C42	C	-0.286234	-1.834255	-0.137843
C43	C	-0.293447	-1.823587	0.001588
H44	H	-0.967332	-1.725074	-0.621440
H45	H	-0.208604	-1.374312	-0.359766
H46	H	-0.340185	-1.754136	-0.949995
F47	F	-0.853090	-1.632444	-0.729474
F48	F	-0.682669	-1.632412	-0.729565
H49	H	-0.198532	-1.964505	-0.978806
F50	F	-0.856749	-2.086474	-0.200045
F51	F	-0.559443	-1.706466	-0.643249
H52	H	-0.572092	-1.993768	-0.308185
F53	F	-0.342268	-1.330677	-0.591596
F54	F	-0.686351	-2.086339	-0.200086
F55	F	-0.979983	-2.012370	-0.286344
