data_functionalizedCrystal
_audit_creation_method	'MofGen! by Chris Wilmer'
_symmetry_space_group_name_H-M	'P1'
_symmetry_Int_Tables_number	1
_symmetry_cell_setting	triclinic
loop_
_symmetry_equiv_pos_as_xyz
  x,y,z
_cell_length_a	13.897449
_cell_length_b	18.050589
_cell_length_c	13.897441
_cell_angle_alpha	89.972127
_cell_angle_beta	89.979267
_cell_angle_gamma	90.029500
loop_
_atom_site_label
_atom_site_type_symbol
_atom_site_fract_x
_atom_site_fract_y
_atom_site_fract_z
Zn1	Zn	1.474632	-0.295610	-0.545399
Zn2	Zn	1.474496	-0.419815	-0.384108
Zn3	Zn	1.313321	-0.295646	-0.384118
Zn4	Zn	1.313273	-0.419766	-0.545361
O5	O	1.393931	-0.357709	-0.464747
O6	O	1.609596	-0.312092	-0.524016
O7	O	1.453079	-0.403379	-0.249128
O8	O	1.334796	-0.191716	-0.405532
O9	O	1.609496	-0.403344	-0.405516
O10	O	1.453311	-0.191690	-0.524025
O11	O	1.334665	-0.312152	-0.249135
O12	O	1.178333	-0.312105	-0.405495
O13	O	1.334715	-0.403261	-0.680348
O14	O	1.178298	-0.403295	-0.523960
O15	O	1.453264	-0.312045	-0.680376
O16	O	1.453033	-0.523733	-0.405479
O17	O	1.334583	-0.523697	-0.523951
C18	C	1.143316	-0.357699	-0.464725
C19	C	1.036102	-0.357713	-0.464738
C20	C	0.839807	-0.357716	-0.464763
C21	C	0.949040	-0.357712	-0.464747
C22	C	1.393814	-0.550661	-0.464731
C23	C	1.393853	-0.633207	-0.464756
C24	C	1.329503	-0.832665	-0.529158
C25	C	1.305986	-0.882111	-0.441140
C26	C	1.393947	-0.784337	-0.464769
C27	C	1.417512	-0.881973	-0.552797
C28	C	1.394037	-0.930323	-0.464789
C29	C	1.370384	-0.832696	-0.376703
C30	C	1.481951	-0.832554	-0.488420
C31	C	1.458467	-0.881977	-0.400341
C32	C	1.393893	-0.700239	-0.464758
C33	C	1.394092	-1.014419	-0.464789
C34	C	1.645524	-0.357720	-0.464769
C35	C	1.752738	-0.357724	-0.464779
C36	C	1.393999	-0.357644	-0.716340
C37	C	1.394028	-0.357616	-0.823554
C38	C	1.394074	-0.164004	-0.464784
C39	C	1.394135	-0.081458	-0.464800
C40	C	1.394055	-0.357565	-1.019849
C41	C	1.394037	-0.357595	-0.910616
C42	C	1.393918	-0.357721	-0.214132
C43	C	1.394076	-0.357540	-0.106919
H44	H	1.274924	-0.811012	-0.583534
C45	C	1.443914	-0.910734	-0.652133
C46	C	1.376170	-0.885732	-0.719236
C47	C	1.400460	-0.912201	-0.810756
H48	H	1.444316	-0.963354	-0.651417
H49	H	1.505942	-0.893015	-0.669421
H50	H	1.314159	-0.903455	-0.701952
H51	H	1.375758	-0.833115	-0.719982
H52	H	1.462487	-0.894481	-0.828044
H53	H	1.400862	-0.964820	-0.810030
H54	H	1.354505	-0.895235	-0.856297
C55	C	1.581158	-0.803648	-0.515191
C56	C	1.642757	-0.863496	-0.532730
C57	C	1.734150	-0.836895	-0.557418
H58	H	1.605980	-0.774716	-0.463795
H59	H	1.576546	-0.773946	-0.571455
H60	H	1.647372	-0.893185	-0.476473
H61	H	1.617965	-0.892434	-0.584130
H62	H	1.729538	-0.807194	-0.613682
H63	H	1.758963	-0.807963	-0.506018
H64	H	1.775953	-0.877497	-0.569329
C65	C	1.206737	-0.911098	-0.414651
C66	C	1.139507	-0.886134	-0.482293
C67	C	1.048071	-0.912826	-0.457937
H68	H	1.189455	-0.893517	-0.352598
H69	H	1.207595	-0.963726	-0.414317
H70	H	1.138646	-0.833517	-0.482617
H71	H	1.156758	-0.903712	-0.544352
H72	H	1.048929	-0.965454	-0.457602
H73	H	1.030798	-0.895244	-0.395882
H74	H	1.002446	-0.895897	-0.503832
H75	H	1.350403	-0.811140	-0.302246
H76	H	1.513005	-0.903493	-0.345834
