data_functionalizedCrystal
_audit_creation_method	'MofGen! by Chris Wilmer'
_symmetry_space_group_name_H-M	'P1'
_symmetry_Int_Tables_number	1
_symmetry_cell_setting	triclinic
loop_
_symmetry_equiv_pos_as_xyz
  x,y,z
_cell_length_a	16.625548
_cell_length_b	21.295417
_cell_length_c	21.295412
_cell_angle_alpha	90.030668
_cell_angle_beta	90.023476
_cell_angle_gamma	90.031575
loop_
_atom_site_label
_atom_site_type_symbol
_atom_site_fract_x
_atom_site_fract_y
_atom_site_fract_z
Zn1	Zn	1.232659	-0.250607	0.355911
Zn2	Zn	1.732659	0.249393	0.855911
Zn3	Zn	1.232536	-0.355875	0.250636
Zn4	Zn	1.732536	0.144125	0.750636
Zn5	Zn	1.097814	-0.250626	0.250656
Zn6	Zn	1.597814	0.249374	0.750656
Zn7	Zn	1.097772	-0.355844	0.355868
Zn8	Zn	1.597772	0.144156	0.855868
O9	O	1.165195	-0.303238	0.303268
O10	O	1.665195	0.196762	0.803268
O11	O	1.345475	-0.264576	0.341956
O12	O	1.845475	0.235424	0.841956
O13	O	1.214631	-0.341935	0.162549
O14	O	1.714631	0.158065	0.662549
O15	O	1.115770	-0.162534	0.264644
O16	O	1.615770	0.337466	0.764644
O17	O	1.345385	-0.341916	0.264611
O18	O	1.845385	0.158084	0.764611
O19	O	1.214840	-0.162520	0.341975
O20	O	1.714840	0.337480	0.841975
O21	O	1.115651	-0.264609	0.162564
O22	O	1.615651	0.235391	0.662564
O23	O	0.984976	-0.264578	0.264603
O24	O	1.484976	0.235422	0.764603
O25	O	1.115699	-0.341863	0.443963
O26	O	1.615699	0.158137	0.943963
O27	O	0.984945	-0.341882	0.341902
O28	O	1.484945	0.158118	0.841902
O29	O	1.214799	-0.264546	0.443995
O30	O	1.714799	0.235454	0.943995
O31	O	1.214591	-0.443961	0.264569
O32	O	1.714591	0.056039	0.764569
O33	O	1.115580	-0.443938	0.341883
O34	O	1.615580	0.056062	0.841883
C35	C	0.955704	-0.303229	0.303250
C36	C	1.455704	0.196771	0.803250
C37	C	0.866083	-0.303240	0.303258
C38	C	1.366083	0.196760	0.803258
C39	C	0.537907	-0.303245	0.303284
C40	C	1.037907	0.196755	0.803284
C41	C	0.629216	-0.303242	0.303275
C42	C	1.129216	0.196758	0.803275
C43	C	0.701992	-0.303243	0.303270
C44	C	1.201992	0.196757	0.803270
C45	C	0.793307	-0.303239	0.303262
C46	C	1.293307	0.196761	0.803262
C47	C	1.165089	-0.466790	0.303233
C48	C	1.665089	0.033210	0.803233
C49	C	1.165118	-0.536758	0.303239
C50	C	1.665118	-0.036758	0.803239
C51	C	1.216718	-0.569616	0.263023
C52	C	1.716718	-0.069616	0.763023
C53	C	1.216756	-0.635358	0.263037
C54	C	1.716756	-0.135358	0.763037
C55	C	1.165179	-0.668240	0.303261
C56	C	1.665179	-0.168240	0.803261
C57	C	1.113575	-0.635375	0.343484
C58	C	1.613575	-0.135375	0.843484
C59	C	1.113544	-0.569633	0.343473
C60	C	1.613544	-0.069633	0.843473
N61	N	1.094644	-0.771507	0.308054
N62	N	1.594644	-0.271507	0.808054
N63	N	1.094676	-0.833959	0.308060
N64	N	1.594676	-0.333959	0.808060
C65	C	1.165269	-0.866315	0.303297
C66	C	1.665269	-0.366315	0.803297
N67	N	1.235832	-0.833861	0.298514
N68	N	1.735832	-0.333861	0.798514
N69	N	1.235800	-0.771403	0.298504
N70	N	1.735800	-0.271403	0.798504
C71	C	1.165207	-0.739526	0.303277
C72	C	1.665207	-0.239526	0.803277
C73	C	1.216915	-0.970458	0.263094
C74	C	1.716915	-0.470458	0.763094
C75	C	1.216954	-1.036202	0.263113
C76	C	1.716954	-0.536202	0.763113
C77	C	1.113766	-1.036217	0.343556
C78	C	1.613766	-0.536217	0.843556
C79	C	1.113734	-0.970475	0.343541
C80	C	1.613734	-0.470475	0.843541
C81	C	1.165307	-0.937599	0.303307
C82	C	1.665307	-0.437599	0.803307
C83	C	1.375504	-0.303248	0.303286
C84	C	1.875504	0.196752	0.803286
C85	C	1.465125	-0.303252	0.303293
C86	C	1.965125	0.196748	0.803293
C87	C	1.165258	-0.303199	0.467458
C88	C	1.665258	0.196801	0.967458
C89	C	1.165285	-0.303182	0.537426
C90	C	1.665285	0.196818	1.037426
C91	C	1.165323	-0.139048	0.303316
C92	C	1.665323	0.360952	0.803316
C93	C	1.165378	-0.069080	0.303337
C94	C	1.665378	0.430920	0.803337
C95	C	1.165179	-0.303232	0.139716
C96	C	1.665179	0.196768	0.639716
C97	C	1.165308	-0.303071	0.069748
C98	C	1.665308	0.196929	0.569748
C99	C	1.113760	-0.262914	0.570290
C100	C	1.613760	0.237086	1.070290
C101	C	1.113757	-0.262902	0.636033
C102	C	1.613757	0.237098	1.136033
C103	C	1.165294	-0.303152	0.668909
C104	C	1.665294	0.196848	1.168909
C105	C	1.216822	-0.343428	0.636037
C106	C	1.716822	0.156572	1.136037
C107	C	1.216818	-0.343443	0.570295
C108	C	1.716818	0.156557	1.070295
N109	N	1.235876	-0.307959	0.772147
N110	N	1.735876	0.192041	1.272147
N111	N	1.235878	-0.307941	0.834598
N112	N	1.735878	0.192059	1.334598
C113	C	1.165309	-0.303110	0.866984
C114	C	1.665309	0.196890	1.366984
N115	N	1.094736	-0.298286	0.834558
N116	N	1.594736	0.201714	1.334558
N117	N	1.094735	-0.298301	0.772101
N118	N	1.594735	0.201699	1.272101
C119	C	1.165304	-0.303141	0.740194
C120	C	1.665304	0.196859	1.240194
C121	C	1.113776	-0.262827	0.971133
C122	C	1.613776	0.237173	1.471133
C123	C	1.113772	-0.262820	1.036877
C124	C	1.613772	0.237180	1.536877
C125	C	1.216844	-0.343343	1.036879
C126	C	1.716844	0.156657	1.536879
C127	C	1.216841	-0.343353	0.971137
C128	C	1.716841	0.156647	1.471137
C129	C	1.165308	-0.303092	0.938268
C130	C	1.665308	0.196908	1.438268
H131	H	1.258779	-0.662116	0.230289
H132	H	1.758779	-0.162116	0.730289
N133	N	1.061104	-0.221805	0.536715
N134	N	1.561104	0.278195	1.036715
N135	N	1.009702	-0.243963	0.500013
N136	N	1.509702	0.256037	1.000013
H137	H	0.972511	-0.214932	0.476299
H138	H	1.472511	0.285068	0.976299
H139	H	1.258780	-0.376234	0.543537
H140	H	1.758780	0.123766	1.043537
N141	N	1.060900	-0.668970	0.384571
N142	N	1.560900	-0.168970	0.884571
N143	N	1.060933	-0.727667	0.384576
N144	N	1.560933	-0.227667	0.884576
H145	H	1.023732	-0.751394	0.413597
H146	H	1.523732	-0.251394	0.913597
N147	N	1.060830	-0.536077	0.384561
N148	N	1.560830	-0.036077	0.884561
N149	N	1.014787	-0.565439	0.420477
N150	N	1.514787	-0.065439	0.920477
H151	H	0.977556	-0.541739	0.449496
H152	H	1.477556	-0.041739	0.949496
H153	H	1.258715	-0.542850	0.230263
H154	H	1.758715	-0.042850	0.730263
H155	H	1.071712	-0.943720	0.376286
H156	H	1.571712	-0.443720	0.876286
N157	N	1.269496	-0.384481	0.937577
N158	N	1.769496	0.115519	1.437577
N159	N	1.343900	-0.380303	0.944948
N160	N	1.843900	0.119697	1.444948
H161	H	1.381091	-0.409353	0.921249
H162	H	1.881091	0.090647	1.421249
H163	H	1.258912	-0.943690	0.230335
H164	H	1.758912	-0.443690	0.730335
N165	N	1.061138	-0.221755	0.669613
N166	N	1.561138	0.278245	1.169613
N167	N	1.089555	-0.181638	0.706315
N168	N	1.589555	0.318362	1.206315
H169	H	1.052395	-0.152577	0.730029
H170	H	1.552395	0.347423	1.230029
H171	H	1.071808	-0.230030	1.063634
H172	H	1.571808	0.269970	1.563634
H173	H	1.258808	-0.376114	1.063646
H174	H	1.758808	0.123886	1.563646
N175	N	1.061130	-0.221719	0.937544
N176	N	1.561130	0.278281	1.437544
N177	N	1.061134	-0.221736	0.878847
N178	N	1.561134	0.278264	1.378847
H179	H	1.023952	-0.192704	0.855125
H180	H	1.523952	0.307296	1.355125
N181	N	1.269681	-1.069758	0.222034
N182	N	1.769681	-0.569758	0.722034
N183	N	1.315725	-1.040393	0.186120
N184	N	1.815725	-0.540393	0.686120
H185	H	1.352966	-1.064092	0.157108
H186	H	1.852966	-0.564092	0.657108
H187	H	1.071774	-1.062989	0.376310
H188	H	1.571774	-0.562989	0.876310
H189	H	1.258784	-0.376200	0.662808
H190	H	1.758784	0.123800	1.162808
