data_functionalizedCrystal
_audit_creation_method	'MofGen! by Chris Wilmer'
_symmetry_space_group_name_H-M	'P1'
_symmetry_Int_Tables_number	1
_symmetry_cell_setting	triclinic
loop_
_symmetry_equiv_pos_as_xyz
  x,y,z
_cell_length_a	19.188930
_cell_length_b	14.421503
_cell_length_c	15.944551
_cell_angle_alpha	90.003340
_cell_angle_beta	83.321759
_cell_angle_gamma	89.978519
loop_
_atom_site_label
_atom_site_type_symbol
_atom_site_fract_x
_atom_site_fract_y
_atom_site_fract_z
O1	O	0.926420	-0.077412	0.104854
O2	O	1.426420	0.422588	0.604854
O3	O	0.723145	-0.077348	0.118971
O4	O	1.223145	0.422652	0.618971
O5	O	0.830334	-0.077374	-0.010383
O6	O	1.330334	0.422626	0.489617
O7	O	0.819232	-0.077387	0.234208
O8	O	1.319232	0.422613	0.734208
O9	O	0.830316	0.076850	-0.010364
O10	O	1.330316	0.576850	0.489636
O11	O	0.723128	0.076875	0.118990
O12	O	1.223128	0.576875	0.618990
O13	O	0.926402	0.076812	0.104874
O14	O	1.426402	0.576812	0.604874
Cu15	Cu	0.824763	0.090925	0.111934
Cu16	Cu	1.324763	0.590925	0.611934
Cu17	Cu	0.824784	-0.091462	0.111911
Cu18	Cu	1.324784	0.408538	0.611911
O19	O	0.819214	0.076837	0.234228
O20	O	1.319214	0.576837	0.734228
C21	C	0.697124	-0.000229	0.118524
C22	C	1.197124	0.499771	0.618524
C23	C	0.619616	-0.000204	0.117151
C24	C	1.119616	0.499796	0.617151
N25	N	0.824754	0.219206	0.111949
N26	N	1.324754	0.719206	0.611949
N27	N	0.824800	-0.219743	0.111889
N28	N	1.324800	0.280257	0.611889
C29	C	0.574889	-0.000223	0.193052
C30	C	1.074889	0.499777	0.693052
C31	C	0.502061	-0.000233	0.191763
C32	C	1.002061	0.499767	0.691763
C33	C	0.473965	-0.000243	0.114568
C34	C	0.973965	0.499757	0.614568
C35	C	0.518703	-0.000219	0.038658
C36	C	1.018703	0.499781	0.538658
C37	C	0.591528	-0.000200	0.039949
C38	C	1.091528	0.499800	0.539949
N39	N	0.365839	-0.052766	0.055556
N40	N	0.865839	0.447234	0.555556
N41	N	0.296657	-0.052787	0.054335
N42	N	0.796657	0.447213	0.554335
C43	C	0.254547	-0.000300	0.110673
C44	C	0.754547	0.499700	0.610673
N45	N	0.284230	0.052197	0.168291
N46	N	0.784230	0.552197	0.668291
N47	N	0.353418	0.052213	0.169515
N48	N	0.853418	0.552213	0.669515
C49	C	0.394999	-0.000263	0.113160
C50	C	0.894999	0.499737	0.613160
C51	C	0.130851	-0.000328	0.185181
C52	C	0.630851	0.499672	0.685181
C53	C	0.058023	-0.000332	0.183888
C54	C	0.558023	0.499668	0.683888
C55	C	0.074666	-0.000328	0.030781
C56	C	0.574666	0.499672	0.530781
C57	C	0.147492	-0.000314	0.032076
C58	C	0.647492	0.499686	0.532076
C59	C	0.175580	-0.000319	0.109278
C60	C	0.675580	0.499681	0.609278
C61	C	0.952423	-0.000310	0.105321
C62	C	1.452423	0.499690	0.605321
C63	C	1.029932	-0.000341	0.106693
C64	C	1.529932	0.499659	0.606693
C65	C	0.829864	-0.000261	-0.041666
C66	C	1.329864	0.499739	0.458334
C67	C	0.828482	-0.000261	-0.134906
C68	C	1.328482	0.499739	0.365094
C69	C	0.775181	0.468872	0.171736
C70	C	1.275181	0.968872	0.671736
C71	C	0.838271	0.530653	0.187807
C72	C	1.338271	1.030653	0.687807
C73	C	0.824771	0.408368	0.111929
C74	C	1.324771	0.908368	0.611929
C75	C	0.761697	0.530680	0.095877
C76	C	1.261697	1.030680	0.595877
C77	C	0.824781	0.591089	0.111912
C78	C	1.324781	1.091089	0.611912
C79	C	0.887892	0.468789	0.128038
C80	C	1.387892	0.968789	0.628038
C81	C	0.811277	0.468810	0.036076
C82	C	1.311277	0.968810	0.536076
C83	C	0.874413	0.530564	0.052114
C84	C	1.374413	1.030564	0.552114
C85	C	0.824764	0.303107	0.111941
C86	C	1.324764	0.803107	0.611941
C87	C	0.824796	0.696348	0.111899
C88	C	1.324796	1.196348	0.611899
C89	C	0.758739	-0.000252	-0.349502
C90	C	1.258739	0.499748	0.150498
C91	C	0.791117	0.075780	-0.410631
C92	C	1.291117	0.575780	0.089369
C93	C	0.825983	-0.000267	-0.305623
C94	C	1.325983	0.499733	0.194377
C95	C	0.791150	-0.076272	-0.410634
C96	C	1.291150	0.423728	0.089366
C97	C	0.823563	-0.000277	-0.470527
C98	C	1.323563	0.499723	0.029473
C99	C	0.858379	0.075827	-0.365524
C100	C	1.358379	0.575827	0.134476
C101	C	0.858403	-0.076293	-0.365520
C102	C	1.358403	0.423707	0.134480
C103	C	0.890829	-0.000243	-0.426631
C104	C	1.390829	0.499757	0.073369
C105	C	0.827374	-0.000260	-0.210626
C106	C	1.327374	0.499740	0.289374
C107	C	0.822176	-0.000277	-0.565522
C108	C	1.322176	0.499723	-0.065522
C109	C	0.819684	-0.000277	0.265510
C110	C	1.319684	0.499723	0.765510
C111	C	0.821066	-0.000284	0.358751
C112	C	1.321066	0.499716	0.858751
H113	H	0.597753	-0.000228	0.255916
H114	H	1.097753	0.499772	0.755916
F115	F	0.454450	-0.000250	0.272550
F116	F	0.954450	0.499750	0.772550
F117	F	0.853203	0.566160	0.271641
F118	F	1.353203	1.066160	0.771641
H119	H	0.799834	0.441624	-0.028044
H120	H	1.299834	0.941624	0.471956
H121	H	0.708353	0.557868	0.082309
H122	H	1.208353	1.057868	0.582309
F123	F	0.957634	0.433408	0.145871
F124	F	1.457634	0.933408	0.645871
F125	F	0.720424	0.433461	0.237893
F126	F	1.220424	0.933461	0.737893
F127	F	0.929290	0.565753	-0.014006
F128	F	1.429290	1.065753	0.485994
F129	F	0.963846	-0.000213	-0.470247
F130	F	1.463846	0.499787	0.029753
F131	F	0.160747	-0.000326	0.267345
F132	F	0.660747	0.499674	0.767345
H133	H	0.495822	-0.000240	-0.024194
H134	H	0.995822	0.499760	0.475806
F135	F	0.639133	-0.000180	-0.040838
F136	F	1.139133	0.499820	0.459162
H137	H	0.886827	-0.140592	-0.345504
H138	H	1.386827	0.359408	0.154496
F139	F	0.685785	-0.000134	-0.305695
F140	F	1.185785	0.499866	0.194305
F141	F	0.753934	0.159820	-0.436765
F142	F	1.253934	0.659820	0.063235
F143	F	0.753970	-0.160282	-0.436765
F144	F	1.253970	0.339718	0.063235
F145	F	0.010419	-0.000347	0.264677
F146	F	0.510419	0.499653	0.764677
F147	F	0.044769	-0.000329	-0.051375
F148	F	0.544769	0.499671	0.448625
F149	F	0.195097	-0.000299	-0.048709
F150	F	0.695097	0.499701	0.451291
F151	F	0.895515	0.159935	-0.339527
F152	F	1.395515	0.659935	0.160473
