data_functionalizedCrystal
_audit_creation_method	'MofGen! by Chris Wilmer'
_symmetry_space_group_name_H-M	'P1'
_symmetry_Int_Tables_number	1
_symmetry_cell_setting	triclinic
loop_
_symmetry_equiv_pos_as_xyz
  x,y,z
_cell_length_a	12.759395
_cell_length_b	19.120786
_cell_length_c	12.759387
_cell_angle_alpha	92.476434
_cell_angle_beta	90.020509
_cell_angle_gamma	92.466757
loop_
_atom_site_label
_atom_site_type_symbol
_atom_site_fract_x
_atom_site_fract_y
_atom_site_fract_z
Zn1	Zn	1.588349	-0.279566	0.576121
Zn2	Zn	1.580710	-0.397042	0.392927
Zn3	Zn	1.412645	-0.279604	0.400456
Zn4	Zn	1.405113	-0.396992	0.568569
O5	O	1.496704	-0.338301	0.484518
O6	O	1.734357	-0.295154	0.551830
O7	O	1.558371	-0.381500	0.246902
O8	O	1.442302	-0.181308	0.430070
O9	O	1.728744	-0.381463	0.417238
O10	O	1.571391	-0.181280	0.559130
O11	O	1.434894	-0.295220	0.252433
O12	O	1.264625	-0.295171	0.422747
O13	O	1.429465	-0.381378	0.716595
O14	O	1.259092	-0.381415	0.546259
O15	O	1.564088	-0.295106	0.722143
O16	O	1.551068	-0.495326	0.409915
O17	O	1.422057	-0.495289	0.538958
C18	C	1.223738	-0.338292	0.484501
C19	C	1.106960	-0.338306	0.484517
C20	C	1.484945	-0.520793	0.472823
C21	C	1.480010	-0.598864	0.467855
C22	C	1.101227	-0.428257	0.612904
C23	C	1.043500	-0.473238	0.677100
C24	C	0.933777	-0.473246	0.677112
C25	C	0.881781	-0.428267	0.612924
C26	C	0.939508	-0.383286	0.548728
C27	C	1.049233	-0.383284	0.548720
C28	C	0.945241	-0.293333	0.420348
C29	C	1.054963	-0.293327	0.420329
C30	C	0.893245	-0.248354	0.356160
C31	C	0.950972	-0.203375	0.291957
C32	C	1.060701	-0.203369	0.291946
C33	C	1.112691	-0.248346	0.356133
C34	C	1.544852	-0.635467	0.532770
C35	C	1.540211	-0.708823	0.528104
C36	C	1.470733	-0.745575	0.458516
C37	C	1.405884	-0.708967	0.393598
C38	C	1.410521	-0.635612	0.398270
C39	C	1.453369	-0.967062	0.441049
C40	C	1.448740	-1.040422	0.436380
C41	C	1.583066	-1.040273	0.570888
C42	C	1.587700	-0.966917	0.575549
C43	C	1.522848	-0.930316	0.510635
C44	C	1.465990	-0.820557	0.453743
C45	C	1.527587	-0.855335	0.515415
C46	C	1.770737	-0.338310	0.484537
C47	C	1.887514	-0.338314	0.484544
C48	C	1.496788	-0.338232	0.758556
C49	C	1.496824	-0.338203	0.875335
C50	C	1.508539	-0.155096	0.496282
C51	C	1.513582	-0.077025	0.501295
C52	C	1.496685	-0.338319	0.211550
C53	C	1.496865	-0.338150	0.094784
C54	C	1.637015	-0.248374	0.881132
C55	C	1.707126	-0.203448	0.938892
C56	C	1.707154	-0.203423	1.048615
C57	C	1.637060	-0.248326	1.100581
C58	C	1.566949	-0.293251	1.042821
C59	C	1.566932	-0.293273	0.933095
C60	C	1.426754	-0.383075	1.037024
C61	C	1.426730	-0.383106	0.927301
C62	C	1.356661	-0.427978	1.088990
C63	C	1.286553	-0.472908	1.031229
C64	C	1.286530	-0.472932	0.921500
C65	C	1.356619	-0.428031	0.869541
H66	H	1.190568	-0.428259	0.612892
H67	H	1.356611	-0.428049	0.780198
C68	C	1.654391	-1.080541	0.642296
N69	N	1.708113	-1.110871	0.696087
C70	C	1.636999	-0.248402	0.760433
N71	N	1.636987	-0.248422	0.669522
H72	H	1.229426	-0.509508	0.874478
C73	C	1.611556	-0.749083	0.599503
N74	N	1.665301	-0.779406	0.653280
H75	H	1.107697	-0.166735	0.239678
C76	C	1.621285	-0.595047	0.609322
N77	N	1.678854	-0.564604	0.666985
H78	H	1.357719	-0.605811	0.345411
C79	C	1.100704	-0.522715	0.747699
N80	N	1.143787	-0.559982	0.800873
C81	C	1.664150	-0.926496	0.652082
N82	N	1.721743	-0.896050	0.709719
H83	H	1.392158	-1.070343	0.379712
H84	H	1.202032	-0.248347	0.356127
H85	H	1.764238	-0.166837	1.095644
H86	H	1.356684	-0.427952	1.178333
C87	C	1.382005	-0.926810	0.369665
N88	N	1.328241	-0.896490	0.315904
H89	H	1.349310	-0.738896	0.336942
C90	C	1.637095	-0.248295	1.221280
N91	N	1.637124	-0.248275	1.312192
C92	C	1.209451	-0.522290	1.088399
N93	N	1.151375	-0.559485	1.131463
H94	H	0.792439	-0.428272	0.612949
C95	C	0.870275	-0.522728	0.747729
N96	N	0.822446	-0.559999	0.800917
H97	H	0.803903	-0.248361	0.356179
H98	H	1.584151	-0.825410	0.572077
C99	C	0.893769	-0.153902	0.221361
N100	N	0.850679	-0.116639	0.168185
C101	C	1.784225	-0.154057	0.881722
N102	N	1.842294	-0.116854	0.838664
H103	H	1.409424	-0.850488	0.397081
