data_functionalizedCrystal
_audit_creation_method	'MofGen! by Chris Wilmer'
_symmetry_space_group_name_H-M	'P1'
_symmetry_Int_Tables_number	1
_symmetry_cell_setting	triclinic
loop_
_symmetry_equiv_pos_as_xyz
  x,y,z
_cell_length_a	14.519709
_cell_length_b	14.519731
_cell_length_c	9.730217
_cell_angle_alpha	90.006091
_cell_angle_beta	89.998108
_cell_angle_gamma	83.684499
loop_
_atom_site_label
_atom_site_type_symbol
_atom_site_fract_x
_atom_site_fract_y
_atom_site_fract_z
O1	O	1.223876	0.120891	0.114114
O2	O	1.723876	0.620891	0.614114
O3	O	0.955400	0.135127	0.114157
O4	O	1.455400	0.635127	0.614157
O5	O	1.096746	-0.006228	0.114122
O6	O	1.596746	0.493772	0.614122
O7	O	1.082530	0.262246	0.114149
O8	O	1.582530	0.762246	0.614149
O9	O	1.096736	-0.006234	-0.114458
O10	O	1.596736	0.493766	0.385542
O11	O	0.955390	0.135121	-0.114424
O12	O	1.455390	0.635121	0.385576
O13	O	1.223866	0.120885	-0.114466
O14	O	1.723866	0.620885	0.385534
Zn15	Zn	1.089626	0.128002	-0.150737
Zn16	Zn	1.589626	0.628002	0.349263
Zn17	Zn	1.089639	0.128010	0.150427
Zn18	Zn	1.589639	0.628010	0.650427
O19	O	1.082520	0.262240	-0.114431
O20	O	1.582520	0.762240	0.385569
C21	C	0.921035	0.134461	-0.000128
C22	C	1.421035	0.634461	0.499872
C23	C	0.818654	0.132473	-0.000112
C24	C	1.318654	0.632473	0.499888
C25	C	0.443757	0.125153	-0.000176
C26	C	0.943757	0.625153	0.499824
C27	C	0.548065	0.127186	-0.000158
C28	C	1.048065	0.627186	0.499842
C29	C	0.631202	0.128813	-0.000143
C30	C	1.131202	0.628813	0.499857
C31	C	0.735517	0.130846	-0.000127
C32	C	1.235517	0.630846	0.499873
C33	C	1.096075	-0.040591	-0.000169
C34	C	1.596075	0.459409	0.499831
C35	C	1.094079	-0.142971	-0.000169
C36	C	1.594079	0.357029	0.499831
C37	C	1.092457	-0.226115	-0.000166
C38	C	1.592457	0.273885	0.499834
C39	C	1.090430	-0.330424	-0.000155
C40	C	1.590430	0.169576	0.499845
C41	C	1.088822	-0.413563	-0.000146
C42	C	1.588822	0.086437	0.499854
C43	C	1.086795	-0.517878	-0.000137
C44	C	1.586795	-0.017878	0.499863
C45	C	1.258230	0.121551	-0.000178
C46	C	1.758230	0.621551	0.499822
C47	C	1.360612	0.123539	-0.000185
C48	C	1.860612	0.623539	0.499815
C49	C	1.083191	0.296603	-0.000138
C50	C	1.583191	0.796603	0.499862
C51	C	1.085187	0.398983	-0.000128
C52	C	1.585187	0.898983	0.499872
N53	N	1.089624	0.127997	-0.356273
N54	N	1.589624	0.627997	0.143727
C55	C	0.977584	0.015869	-0.356323
C56	C	1.477584	0.515869	0.143677
C57	C	0.921573	-0.040197	-0.428287
C58	C	1.421573	0.459803	0.071713
C59	C	0.921587	-0.040197	-0.572167
C60	C	1.421587	0.459803	-0.072167
C61	C	0.977615	0.015877	-0.644086
C62	C	1.477615	0.515877	-0.144086
C63	C	1.033625	0.071942	-0.572121
C64	C	1.533625	0.571942	-0.072121
C65	C	1.033607	0.071934	-0.428238
C66	C	1.533607	0.571934	0.071762
C67	C	1.145659	0.184074	-0.572072
C68	C	1.645659	0.684074	-0.072072
C69	C	1.145652	0.184071	-0.428192
C70	C	1.645652	0.684071	0.071808
C71	C	1.201687	0.240148	-0.643990
C72	C	1.701687	0.740148	-0.143990
C73	C	1.257703	0.296210	-0.572025
C74	C	1.757703	0.796210	-0.072025
C75	C	1.257688	0.296207	-0.428137
C76	C	1.757688	0.796207	0.071863
C77	C	1.201662	0.240136	-0.356227
C78	C	1.701662	0.740136	0.143773
N79	N	1.089649	0.128008	0.355964
N80	N	1.589649	0.628008	0.855964
H81	H	0.977574	0.015857	-0.239168
H82	H	1.477574	0.515857	0.260832
F83	F	1.201644	0.240125	-0.203097
F84	F	1.701644	0.740125	0.296903
F85	F	0.861944	-0.099868	-0.351738
F86	F	1.361944	0.400132	0.148262
F87	F	0.861971	-0.099864	-0.648759
F88	F	1.361971	0.400136	-0.148759
F89	F	1.317318	0.355888	-0.648573
F90	F	1.817318	0.855888	-0.148573
F91	F	1.317300	0.355885	-0.351558
F92	F	1.817300	0.855885	0.148442
F93	F	0.977614	0.015886	-0.797216
F94	F	1.477614	0.515886	-0.297216
F95	F	1.201694	0.240153	-0.797120
F96	F	1.701694	0.740153	-0.297120
