data_functionalizedCrystal
_audit_creation_method	'MofGen! by Chris Wilmer'
_symmetry_space_group_name_H-M	'P1'
_symmetry_Int_Tables_number	1
_symmetry_cell_setting	triclinic
loop_
_symmetry_equiv_pos_as_xyz
  x,y,z
_cell_length_a	12.759395
_cell_length_b	15.297327
_cell_length_c	12.759387
_cell_angle_alpha	80.357435
_cell_angle_beta	90.021028
_cell_angle_gamma	99.707363
loop_
_atom_site_label
_atom_site_type_symbol
_atom_site_fract_x
_atom_site_fract_y
_atom_site_fract_z
Zn1	Zn	1.533815	-0.359095	0.666331
Zn2	Zn	1.503262	-0.509981	0.521035
Zn3	Zn	1.358104	-0.359142	0.490676
Zn4	Zn	1.327675	-0.509915	0.696659
O5	O	1.430714	-0.434533	0.593675
O6	O	1.676782	-0.379118	0.647070
O7	O	1.483954	-0.490020	0.369996
O8	O	1.406934	-0.232890	0.488578
O9	O	1.654334	-0.489974	0.540322
O10	O	1.536028	-0.232856	0.617631
O11	O	1.377307	-0.379199	0.347691
O12	O	1.207048	-0.379134	0.517987
O13	O	1.355072	-0.489861	0.839648
O14	O	1.184692	-0.489907	0.669322
O15	O	1.506522	-0.379054	0.817366
O16	O	1.454449	-0.636218	0.569730
O17	O	1.325446	-0.636169	0.698761
C18	C	1.157750	-0.434519	0.593652
C19	C	1.040970	-0.434535	0.593671
C20	C	0.844868	-0.319307	0.705121
C21	C	0.911404	-0.261674	0.760813
C22	C	1.021129	-0.261659	0.760791
C23	C	1.064318	-0.319284	0.705075
C24	C	0.997781	-0.376917	0.649384
C25	C	0.888056	-0.376925	0.649409
C26	C	0.974433	-0.492168	0.537980
C27	C	0.864709	-0.492180	0.537994
C28	C	1.017622	-0.549793	0.482264
C29	C	0.951086	-0.607423	0.426565
C30	C	0.841356	-0.607436	0.426588
C31	C	0.798173	-0.549813	0.482302
C32	C	1.383359	-0.668928	0.640854
C33	C	1.363196	-0.769202	0.661072
C34	C	1.575253	-1.051836	0.449530
C35	C	1.594197	-0.957623	0.430528
C36	C	1.536448	-0.910513	0.488163
C37	C	1.459753	-0.957626	0.564802
C38	C	1.440802	-1.051848	0.583799
C39	C	1.401997	-0.910525	0.622432
C40	C	1.325302	-0.957638	0.699072
C41	C	1.306355	-1.051851	0.718066
C42	C	1.364103	-1.098961	0.660432
C43	C	1.420948	-0.816303	0.603435
C44	C	1.286497	-0.816315	0.737705
C45	C	1.267554	-0.910528	0.756706
C46	C	1.704745	-0.434548	0.593699
C47	C	1.821520	-0.434555	0.593710
C48	C	1.430811	-0.434445	0.867691
C49	C	1.430853	-0.434407	0.984460
C50	C	1.478283	-0.199224	0.546335
C51	C	1.498554	-0.098949	0.526162
C52	C	1.430691	-0.434556	0.320712
C53	C	1.430904	-0.434340	0.203893
C54	C	1.588565	-0.319032	0.961279
C55	C	1.667439	-0.261330	1.004546
C56	C	1.667471	-0.261297	1.114261
C57	C	1.588619	-0.318970	1.180712
C58	C	1.509746	-0.376671	1.137445
C59	C	1.509724	-0.376700	1.027727
C60	C	1.352031	-0.492041	1.160625
C61	C	1.352001	-0.492080	1.050911
C62	C	1.273179	-0.549714	1.227076
C63	C	1.194308	-0.607421	1.183810
C64	C	1.194279	-0.607452	1.074088
C65	C	1.273127	-0.549781	1.007644
H66	H	0.787186	-0.654372	0.381242
C67	C	1.754167	-0.197889	0.931454
H68	H	1.801138	-0.163514	0.972936
H69	H	1.792954	-0.232412	0.895599
H70	H	1.721908	-0.158585	0.880745
H71	H	1.551876	-0.833801	0.472686
C72	C	0.677479	-0.549827	0.482327
H73	H	0.644035	-0.592400	0.441176
H74	H	0.649533	-0.565497	0.553255
H75	H	0.664410	-0.491590	0.452546
H76	H	1.588555	-0.319061	0.871944
C77	C	1.678560	-0.905806	0.346239
H78	H	1.710247	-0.947354	0.314643
H79	H	1.645777	-0.869109	0.293028
H80	H	1.731724	-0.868995	0.379055
H81	H	1.588645	-0.318931	1.270046
H82	H	1.622257	-1.090202	0.402605
C83	C	1.185011	-0.319271	0.705058
H84	H	1.218452	-0.276693	0.746203
H85	H	1.198082	-0.377506	0.734826
H86	H	1.212963	-0.303589	0.634127
C87	C	1.343262	-1.202596	0.681327
H88	H	1.388638	-1.223901	0.636022
H89	H	1.357117	-1.223856	0.753427
H90	H	1.271171	-1.223969	0.667398
C91	C	0.998589	-0.670810	0.365293
H92	H	0.943250	-0.705140	0.332131
H93	H	1.048355	-0.636254	0.312624
H94	H	1.033457	-0.710159	0.413335
C95	C	1.273094	-0.549814	0.886960
H96	H	1.214831	-0.592441	0.870705
H97	H	1.266700	-0.491600	0.850430
H98	H	1.337730	-0.565439	0.865292
C99	C	1.273214	-0.549680	1.347760
H100	H	1.331487	-0.507063	1.364015
H101	H	1.208582	-0.534064	1.369434
H102	H	1.279617	-0.607899	1.384287
C103	C	0.724174	-0.319320	0.705146
H104	H	0.707981	-0.276753	0.746308
H105	H	0.702476	-0.303657	0.634230
H106	H	0.687605	-0.377563	0.734939
C107	C	0.863895	-0.198288	0.822091
H108	H	0.789019	-0.206542	0.814122
H109	H	0.879235	-0.211557	0.895325
H110	H	0.894115	-0.137652	0.794613
H111	H	1.239471	-0.777959	0.784634
C112	C	1.107532	-0.670941	1.026505
H113	H	1.060590	-0.705289	1.081799
H114	H	1.068717	-0.636454	0.976745
H115	H	1.139781	-0.710269	0.991634
H116	H	1.075303	-0.214731	0.806142
H117	H	1.483394	-0.777952	0.541034
C118	C	1.138315	-0.549783	0.482240
H119	H	1.154504	-0.592361	0.441090
H120	H	1.174890	-0.491546	0.452457
H121	H	1.160007	-0.565457	0.553163
C122	C	1.221988	-1.103673	0.802361
H123	H	1.190315	-1.062126	0.833973
H124	H	1.168827	-1.140487	0.769556
H125	H	1.254783	-1.140367	0.855574
H126	H	1.205107	-0.948901	0.819106
H127	H	1.731692	-0.214306	1.149488
H128	H	1.130108	-0.654369	1.237921
