data_functionalizedCrystal
_audit_creation_method	'MofGen! by Chris Wilmer'
_symmetry_space_group_name_H-M	'P1'
_symmetry_Int_Tables_number	1
_symmetry_cell_setting	triclinic
loop_
_symmetry_equiv_pos_as_xyz
  x,y,z
_cell_length_a	16.120530
_cell_length_b	12.645330
_cell_length_c	12.645324
_cell_angle_alpha	89.968341
_cell_angle_beta	87.080817
_cell_angle_gamma	87.113442
loop_
_atom_site_label
_atom_site_type_symbol
_atom_site_fract_x
_atom_site_fract_y
_atom_site_fract_z
Zn1	Zn	1.274606	-0.504243	-0.681531
Zn2	Zn	1.274515	-0.681546	-0.504265
Zn3	Zn	1.135183	-0.495302	-0.495296
Zn4	Zn	1.135167	-0.672463	-0.672506
O5	O	1.204868	-0.588388	-0.588399
O6	O	1.391261	-0.535305	-0.665546
O7	O	1.256001	-0.656899	-0.354726
O8	O	1.153723	-0.348144	-0.520024
O9	O	1.391193	-0.665569	-0.535310
O10	O	1.256156	-0.354712	-0.656850
O11	O	1.153634	-0.520067	-0.348137
O12	O	1.018514	-0.511260	-0.511273
O13	O	1.153695	-0.650089	-0.822053
O14	O	1.018503	-0.641419	-0.641469
O15	O	1.256141	-0.526498	-0.828683
O16	O	1.255985	-0.828685	-0.526559
O17	O	1.153607	-0.822012	-0.650165
C18	C	0.988258	-0.574385	-0.574419
C19	C	0.895592	-0.568419	-0.568464
C20	C	0.725929	-0.557504	-0.557599
C21	C	0.684647	-0.619351	-0.619277
C22	C	0.590241	-0.613277	-0.613232
C23	C	0.820343	-0.563576	-0.563643
C24	C	1.204807	-0.863814	-0.588381
C25	C	1.204857	-0.981647	-0.588413
C26	C	1.140717	-1.145075	-0.666443
C27	C	1.140389	-1.022494	-0.666158
C28	C	1.181072	-1.024719	-0.475159
C29	C	1.180680	-1.147292	-0.475633
C30	C	1.293175	-1.154435	-0.622756
C31	C	1.292634	-1.031793	-0.625164
C32	C	1.422323	-0.602447	-0.602435
C33	C	1.514990	-0.608438	-0.608416
C34	C	1.204927	-0.588277	-0.864909
C35	C	1.204952	-0.588230	-0.982740
C36	C	1.204952	-0.311888	-0.588443
C37	C	1.204987	-0.194061	-0.588461
C38	C	1.269414	-0.510462	-1.031794
C39	C	1.269691	-0.510694	-1.154372
C40	C	1.228510	-0.701520	-1.152139
C41	C	1.228954	-0.701103	-1.029569
C42	C	1.116819	-0.553618	-1.022235
C43	C	1.117315	-0.551158	-1.144874
C44	C	1.204857	-0.588425	-0.312969
C45	C	1.204994	-0.588184	-0.195148
H46	H	0.720206	-0.676860	-0.676623
Cl47	Cl	1.326888	-0.746277	-1.205890
Cl48	Cl	1.039448	-0.970837	-0.630393
Cl49	Cl	1.320332	-0.988561	-0.753891
Cl50	Cl	1.083656	-0.427748	-0.972389
Cl51	Cl	0.671031	-0.468719	-0.469067
Cl52	Cl	1.040410	-1.186333	-0.631112
Cl53	Cl	1.081150	-1.185174	-0.431799
H54	H	1.155270	-0.993291	-0.749958
H55	H	1.155461	-1.175428	-0.750506
Cl56	Cl	1.370531	-0.546814	-1.206175
Cl57	Cl	1.249807	-1.197560	-0.382388
H58	H	1.254893	-0.426376	-1.001403
H59	H	1.226400	-0.998494	-0.415220
Cl60	Cl	1.369673	-0.546186	-0.990727
H61	H	1.117278	-0.989993	-0.446372
Cl62	Cl	1.326674	-1.204200	-0.748556
Cl63	Cl	1.370463	-0.989499	-0.544562
H64	H	1.341058	-1.186521	-0.566027
Cl65	Cl	1.039248	-0.631463	-1.187072
H66	H	1.254997	-0.426848	-1.183532
H67	H	1.293369	-0.729724	-1.005133
H68	H	1.099575	-0.467724	-1.172836
H69	H	1.184009	-0.761324	-0.996967
Cl70	Cl	1.158264	-0.793792	-1.192552
H71	H	1.068794	-0.610186	-0.990099
