data_functionalizedCrystal
_audit_creation_method	'MofGen! by Chris Wilmer'
_symmetry_space_group_name_H-M	'P1'
_symmetry_Int_Tables_number	1
_symmetry_cell_setting	triclinic
loop_
_symmetry_equiv_pos_as_xyz
  x,y,z
_cell_length_a	20.919309
_cell_length_b	23.196402
_cell_length_c	23.196402
_cell_angle_alpha	90.003917
_cell_angle_beta	62.590980
_cell_angle_gamma	57.445468
loop_
_atom_site_label
_atom_site_type_symbol
_atom_site_fract_x
_atom_site_fract_y
_atom_site_fract_z
Zr1	Zr	0.700761	-0.100254	0.579955
O2	O	0.834322	-0.196989	0.492584
O3	O	0.567199	-0.067350	0.603488
O4	O	0.700759	-0.192305	0.608166
O5	O	0.700763	0.022836	0.487914
O6	O	0.700759	-0.192307	0.703036
O7	O	0.700762	-0.072034	0.487906
O8	O	0.461844	0.031214	0.694670
O9	O	0.939678	-0.200685	0.496281
O10	O	0.622135	-0.057245	0.688253
O11	O	0.622137	0.013557	0.617458
O12	O	0.779387	-0.133561	0.622965
O13	O	0.779388	-0.062759	0.552170
Zr14	Zr	0.700763	0.051049	0.731276
Zr15	Zr	0.700761	-0.100258	0.731263
Zr16	Zr	0.700764	0.051052	0.579968
Zr17	Zr	0.868792	-0.106150	0.585852
Zr18	Zr	0.532732	0.056945	0.725378
O19	O	0.834325	0.018145	0.707742
O20	O	0.834321	-0.196993	0.707724
O21	O	0.834326	0.018150	0.492602
O22	O	0.567202	0.147783	0.818647
O23	O	0.567198	-0.067355	0.818629
O24	O	0.567203	0.147788	0.603507
O25	O	0.700761	-0.072041	0.823316
O26	O	0.700765	0.143100	0.703065
O27	O	0.700765	0.143102	0.608194
O28	O	0.700762	0.022829	0.823324
O29	O	0.939678	-0.200688	0.616551
O30	O	0.461846	0.151483	0.694680
O31	O	0.461846	0.151480	0.814949
O32	O	0.461844	0.031212	0.814939
O33	O	0.939680	-0.080417	0.496292
O34	O	0.939680	-0.080420	0.616561
O35	O	0.622138	0.084356	0.688265
O36	O	0.622136	0.013554	0.759060
O37	O	0.779388	-0.062762	0.693772
O38	O	0.779389	0.008040	0.622977
C39	C	0.490581	-0.017228	0.648239
C40	C	0.419247	-0.014725	0.645735
C41	C	0.700763	-0.024598	0.466352
C42	C	0.700763	-0.024597	0.402118
C43	C	0.700765	0.164659	0.655632
C44	C	0.700766	0.228892	0.655637
C45	C	0.385734	-0.050507	0.681511
C46	C	0.318703	-0.048148	0.679161
C47	C	0.285192	-0.010011	0.641029
C48	C	0.318709	0.025775	0.605252
C49	C	0.385733	0.023420	0.607607
C50	C	0.082818	-0.001049	0.632074
C51	C	0.015790	0.001302	0.629720
C52	C	0.015789	-0.072621	0.703629
C53	C	0.082818	-0.074976	0.705978
C54	C	0.116325	-0.039186	0.670203
C55	C	0.216679	-0.007601	0.638624
C56	C	0.184833	-0.041592	0.672613
C57	C	0.910943	-0.031977	0.662992
C58	C	0.982277	-0.034480	0.665496
C59	C	0.700759	-0.213864	0.655599
C60	C	0.700758	-0.278097	0.655594
C61	C	0.782848	0.219231	0.621560
C62	C	0.782849	0.279586	0.621550
C63	C	0.700764	0.349601	0.655630
C64	C	0.618672	0.359260	0.689708
C65	C	0.618673	0.298906	0.689711
C66	C	0.637876	0.475743	0.715325
C67	C	0.637878	0.536095	0.715324
C68	C	0.700757	0.535755	0.655618
C69	C	0.763649	0.475049	0.595915
C70	C	0.763650	0.414695	0.595918
C71	C	0.700754	0.415049	0.655630
C72	C	0.782845	0.591534	0.621527
C73	C	0.782843	0.651891	0.621514
C74	C	0.618664	0.731565	0.689679
C75	C	0.618669	0.671208	0.689685
C76	C	0.700762	0.601195	0.655610
C77	C	0.700773	0.027651	-0.060717
C78	C	0.700767	0.027657	-0.000360
C79	C	0.700767	-0.024608	0.029818
C80	C	0.700750	-0.076872	-0.000358
C81	C	0.700747	-0.076872	-0.060710
C82	C	0.753524	-0.090253	0.103529
C83	C	0.753533	-0.090253	0.163878
C84	C	0.700772	-0.024608	0.215966
C85	C	0.648015	0.041041	0.207693
C86	C	0.648012	0.041041	0.147341
C87	C	0.700770	-0.024614	0.095260
C88	C	0.700776	0.027662	0.311584
C89	C	0.700764	0.027668	0.371944
C90	C	0.700756	-0.076867	0.371941
C91	C	0.700759	-0.076867	0.311585
C92	C	0.700773	-0.024604	0.281408
C93	C	0.700762	-0.024607	0.844879
C94	C	0.700761	-0.024608	0.909113
C95	C	0.490580	-0.017232	0.837502
C96	C	0.419246	-0.014731	0.899232
C97	C	0.490584	0.172034	0.648255
C98	C	0.419251	0.238770	0.645757
C99	C	0.490583	0.172029	0.837518
C100	C	0.419251	0.238764	0.899254
C101	C	0.910941	-0.221234	0.473713
C102	C	0.982273	-0.287969	0.411977
C103	C	0.910944	-0.031973	0.473729
C104	C	0.982278	-0.034475	0.411998
C105	C	0.910940	-0.221239	0.662976
C106	C	0.982273	-0.287975	0.665474
C107	C	0.385747	-0.050518	0.891261
C108	C	0.318730	-0.048182	0.949258
C109	C	0.285210	-0.010054	1.015226
C110	C	0.318716	0.025735	1.023196
C111	C	0.385736	0.023394	0.965199
C112	C	0.385754	0.307073	0.681544
C113	C	0.318738	0.369784	0.679194
C114	C	0.285218	0.364192	0.641061
C115	C	0.318723	0.295882	0.605269
C116	C	0.385741	0.233172	0.607615
C117	C	0.385751	0.233146	0.965207
C118	C	0.318736	0.295844	1.023220
C119	C	0.285217	0.364161	1.015280
C120	C	0.318723	0.369778	0.949320
C121	C	0.385741	0.307080	0.891308
C122	C	1.015781	-0.282351	0.346025
C123	C	1.082817	-0.345051	0.288012
C124	C	1.116340	-0.413367	0.295952
C125	C	1.082830	-0.418984	0.361911
C126	C	1.015799	-0.356285	0.419923
C127	C	1.015784	0.001307	0.419970
C128	C	1.082819	-0.001047	0.361973
C129	C	1.116342	-0.039177	0.296006
C130	C	1.082832	-0.074963	0.288036
C131	C	1.015803	-0.072614	0.346032
C132	C	1.015772	-0.282359	0.703614
C133	C	1.082787	-0.345059	0.705975
C134	C	1.116307	-0.413375	0.670191
C135	C	1.082801	-0.418989	0.632050
C136	C	1.015782	-0.356290	0.629694
H137	H	0.291417	-0.077284	0.708293
H138	H	0.212116	-0.072640	0.703663
H139	H	0.988524	-0.101749	0.339532
O140	O	0.282576	0.066900	0.564116
H141	H	0.252036	0.124775	0.584406
O142	O	0.282558	0.066862	1.094347
H143	H	0.208624	0.110300	1.121010
H144	H	0.189386	0.023450	0.607577
H145	H	0.413003	0.052541	0.971699
H146	H	0.700755	-0.119424	0.287017
O147	O	1.118921	-0.338991	0.747110
H148	H	1.106041	-0.364251	0.787519
H149	H	1.110103	-0.474620	0.602916
O150	O	0.871387	0.269167	0.584796
H151	H	0.875322	0.294746	0.544078
O152	O	1.188647	-0.480991	0.233380
H153	H	1.206308	-0.465600	0.186187
O154	O	0.212922	-0.007529	1.077778
H155	H	0.151853	0.017742	1.075591
H156	H	0.849690	0.534526	0.593778
O157	O	0.831474	0.349221	0.531530
H158	H	0.875198	0.359119	0.490008
O159	O	0.979652	-0.362350	0.588555
H160	H	0.992514	-0.337073	0.548159
H161	H	0.700748	-0.119426	0.024216
O162	O	0.871386	0.143718	0.584803
H163	H	0.928463	0.147143	0.561101
H164	H	0.988490	-0.226730	0.339546
H165	H	0.605053	0.094496	0.250104
O166	O	0.282593	0.443457	0.717812
H167	H	0.317150	0.436804	0.744734
H168	H	0.413038	0.311640	0.712597
H169	H	0.230646	0.415208	1.062523
H170	H	-0.011491	0.032357	0.598665
H171	H	0.551829	0.788572	0.717423
H172	H	1.110090	-0.340463	0.234310
O173	O	0.212918	0.431832	0.638546
H174	H	0.195251	0.480265	0.669849
H175	H	1.170879	-0.464423	0.672115
H176	H	0.413021	0.052556	0.578473
H177	H	0.291458	-0.077326	0.942755
H178	H	0.291420	0.291339	0.574222
O179	O	0.421877	-0.091640	0.722639
H180	H	0.387303	-0.116119	0.747126
O181	O	1.188612	-0.041685	0.233454
H182	H	1.206260	-0.010382	0.250086
O183	O	0.421743	0.159506	0.569123
H184	H	0.387120	0.166162	0.542259
H185	H	0.796486	-0.143713	0.061122
O186	O	1.118939	0.037566	0.370578
H187	H	1.149452	0.015151	0.400970
O188	O	0.979686	-0.362356	0.491056
H189	H	0.927456	-0.307286	0.530068
O190	O	0.570043	0.601565	0.779716
H191	H	0.500446	0.623755	0.794771
O192	O	0.700748	-0.133246	-0.093263
H193	H	0.700752	-0.169593	-0.062143
O194	O	0.421902	-0.091653	0.820114
H195	H	0.387350	-0.116151	0.824327
H196	H	0.291421	0.425409	0.942865
H197	H	1.110133	-0.474615	0.368369
O198	O	0.871382	0.641467	0.584753
H199	H	0.857592	0.695197	0.590465
H200	H	0.988491	-0.226739	0.732754
H201	H	0.413033	0.177525	0.971685
H202	H	0.110102	-0.106030	0.737027
H203	H	0.988495	0.032362	0.473679
O204	O	0.530138	0.681622	0.726473
H205	H	0.473058	0.740447	0.750184
O206	O	0.591098	0.111841	0.138419
H207	H	0.554401	0.157491	0.184778
O208	O	1.118996	-0.116090	0.216883
H209	H	1.106131	-0.078319	0.187176
O210	O	-0.020350	-0.111220	0.742214
H211	H	-0.072590	-0.103175	0.734176
H212	H	0.291462	0.291258	1.076922
H213	H	0.110088	0.028097	0.602946
H214	H	0.586663	0.476033	0.763946
H215	H	0.413008	0.311664	0.837609
H216	H	0.551838	0.416270	0.717454
H217	H	0.814852	0.474768	0.547296
O218	O	0.530140	0.309321	0.726492
H219	H	0.473059	0.368145	0.750199
H220	H	0.700781	0.070209	-0.085284
O221	O	0.700788	0.084020	0.032189
H222	H	0.700804	0.120358	0.001063
H223	H	0.700768	0.070228	0.396512
O224	O	0.700772	0.084037	0.279036
H225	H	0.700761	0.120387	0.310166
H226	H	0.796492	-0.143709	0.170608
O227	O	0.700761	-0.133244	0.404478
H228	H	0.700771	-0.124468	0.451511
