data_functionalizedCrystal
_audit_creation_method	'MofGen! by Chris Wilmer'
_symmetry_space_group_name_H-M	'P1'
_symmetry_Int_Tables_number	1
_symmetry_cell_setting	triclinic
loop_
_symmetry_equiv_pos_as_xyz
  x,y,z
_cell_length_a	14.044220
_cell_length_b	14.044220
_cell_length_c	13.101039
_cell_angle_alpha	93.671451
_cell_angle_beta	86.328313
_cell_angle_gamma	93.188878
loop_
_atom_site_label
_atom_site_type_symbol
_atom_site_fract_x
_atom_site_fract_y
_atom_site_fract_z
O1	O	1.272352	0.234978	0.085101
O2	O	0.995679	0.226674	0.085127
O3	O	1.129863	0.092490	0.085110
O4	O	1.138169	0.369162	0.085118
O5	O	1.139494	0.082850	-0.085321
O6	O	1.005310	0.217034	-0.085304
O7	O	1.281983	0.225338	-0.085330
Zn8	Zn	1.145176	0.219656	-0.112376
Zn9	Zn	1.132487	0.232357	0.112174
O10	O	1.147800	0.359522	-0.085313
C11	C	0.964873	0.218219	-0.000085
C12	C	0.858730	0.207375	-0.000075
C13	C	1.131043	0.052048	-0.000104
C14	C	1.120198	-0.054094	-0.000100
N15	N	1.123827	0.241018	0.265424
C16	C	0.664393	0.187547	-0.000096
C17	C	0.613263	0.264461	-0.000098
C18	C	0.505128	0.253429	-0.000109
C19	C	0.772538	0.198578	-0.000084
C20	C	1.312790	0.233794	-0.000115
C21	C	1.418933	0.244638	-0.000119
C22	C	1.146620	0.399964	-0.000096
C23	C	1.157464	0.506107	-0.000093
C24	C	1.177291	0.700444	-0.000100
C25	C	1.100376	0.751574	-0.000094
C26	C	1.111408	0.859710	-0.000097
C27	C	1.166260	0.592298	-0.000096
N28	N	1.153843	0.210987	-0.265626
C29	C	1.112036	0.252801	0.474468
C30	C	1.165631	0.199207	0.525336
C31	C	1.159071	0.205763	0.641656
C32	C	1.118595	0.246246	0.358138
H33	H	0.650702	0.338595	-0.000091
C34	C	1.000228	0.701004	-0.000092
H35	H	1.005853	0.633904	-0.000101
H36	H	0.963160	0.722311	0.059339
H37	H	0.969894	0.715585	-0.059534
H38	H	0.626957	0.113419	-0.000104
H39	H	1.251419	0.737881	-0.000111
H40	H	1.216442	0.148399	0.481528
C41	C	1.043389	0.321425	0.533642
H42	H	1.047923	0.316874	0.605191
H43	H	1.060119	0.385054	0.516135
H44	H	0.979763	0.304664	0.516125
