data_functionalizedCrystal
_audit_creation_method	'MofGen! by Chris Wilmer'
_symmetry_space_group_name_H-M	'P1'
_symmetry_Int_Tables_number	1
_symmetry_cell_setting	triclinic
loop_
_symmetry_equiv_pos_as_xyz
  x,y,z
_cell_length_a	21.295418
_cell_length_b	12.827892
_cell_length_c	12.827885
_cell_angle_alpha	90.029786
_cell_angle_beta	89.959362
_cell_angle_gamma	89.968793
loop_
_atom_site_label
_atom_site_type_symbol
_atom_site_fract_x
_atom_site_fract_y
_atom_site_fract_z
Zn1	Zn	0.962403	0.415541	-0.591439
Zn2	Zn	1.462403	0.915541	-0.091439
Zn3	Zn	0.962339	0.590319	-0.416700
Zn4	Zn	1.462339	1.090319	0.083300
Zn5	Zn	0.857132	0.415640	-0.416648
Zn6	Zn	1.357132	0.915640	0.083352
Zn7	Zn	0.857123	0.590289	-0.591335
Zn8	Zn	1.357123	1.090289	-0.091335
O9	O	0.909749	0.502947	-0.504031
O10	O	1.409749	1.002947	-0.004031
O11	O	1.050484	0.438697	-0.568325
O12	O	1.550484	0.938697	-0.068325
O13	O	0.948359	0.567201	-0.270457
O14	O	1.448359	1.067201	0.229543
O15	O	0.871126	0.269391	-0.439857
O16	O	1.371126	0.769391	0.060143
O17	O	1.050436	0.567105	-0.439944
O18	O	1.550436	1.067105	0.060056
O19	O	0.948469	0.269318	-0.568275
O20	O	1.448469	0.769318	-0.068275
O21	O	0.871064	0.438866	-0.270419
O22	O	1.371064	0.938866	0.229581
O23	O	0.769041	0.438837	-0.439756
O24	O	1.269041	0.938837	0.060244
O25	O	0.871112	0.567055	-0.737585
O26	O	1.371112	1.067055	-0.237585
O27	O	0.769035	0.567151	-0.568097
O28	O	1.269035	1.067151	-0.068097
O29	O	0.948460	0.438668	-0.737662
O30	O	1.448460	0.938668	-0.237662
O31	O	0.948351	0.736551	-0.439843
O32	O	1.448351	1.236551	0.060157
O33	O	0.871050	0.736529	-0.568147
O34	O	1.371050	1.236529	-0.068147
C35	C	0.746197	0.503002	-0.503910
C36	C	1.246197	1.003002	-0.003910
C37	C	0.676229	0.503051	-0.503884
C38	C	1.176229	1.003051	-0.003884
C39	C	0.909710	0.774457	-0.504012
C40	C	1.409710	1.274457	-0.004012
C41	C	0.909750	0.890610	-0.504039
C42	C	1.409750	1.390610	-0.004039
C43	C	0.909792	0.502847	-0.776601
C44	C	1.409792	1.002847	-0.276601
C45	C	0.909811	0.502804	-0.892754
C46	C	1.409811	1.002804	-0.392754
C47	C	0.643376	0.569952	-0.570611
C48	C	1.143376	1.069952	-0.070611
C49	C	0.577633	0.569927	-0.570658
C50	C	1.077633	1.069927	-0.070658
C51	C	0.544747	0.503010	-0.503959
C52	C	1.044747	1.003010	-0.003959
C53	C	0.577608	0.436096	-0.437227
C54	C	1.077608	0.936096	0.062773
C55	C	0.643349	0.436116	-0.437189
C56	C	1.143349	0.936116	0.062811
N57	N	0.441472	0.494857	-0.412557
N58	N	0.941472	0.994857	0.087443
N59	N	0.379021	0.494844	-0.412596
N60	N	0.879021	0.994844	0.087404
C61	C	0.346672	0.502944	-0.504070
C62	C	0.846672	1.002944	-0.004070
N63	N	0.379134	0.511077	-0.595505
N64	N	0.879134	1.011077	-0.095505
N65	N	0.441591	0.511096	-0.595465
N66	N	0.941591	1.011096	-0.095465
C67	C	0.473461	0.502981	-0.503993
C68	C	0.973461	1.002981	-0.003993
C69	C	0.242533	0.569821	-0.570854
C70	C	0.742533	1.069821	-0.070854
C71	C	0.176789	0.569788	-0.570902
C72	C	0.676789	1.069788	-0.070902
C73	C	0.176765	0.435963	-0.437462
C74	C	0.676765	0.935963	0.062538
C75	C	0.242508	0.435990	-0.437422
C76	C	0.742508	0.935990	0.062578
C77	C	0.275388	0.502925	-0.504117
C78	C	0.775388	1.002925	-0.004117
C79	C	1.073939	0.502893	-0.504152
C80	C	1.573939	1.002893	-0.004152
C81	C	1.143907	0.502870	-0.504204
C82	C	1.643907	1.002870	-0.004204
C83	C	0.909806	0.230377	-0.504072
C84	C	1.409806	0.730377	-0.004072
C85	C	0.909830	0.114224	-0.504090
C86	C	1.409830	0.614224	-0.004090
C87	C	0.948047	0.942371	-0.440621
C88	C	1.448047	1.442371	0.059379
C89	C	0.948090	1.062421	-0.440647
C90	C	1.448090	1.562421	0.059353
C91	C	0.871575	0.439287	-0.944520
C92	C	1.371575	0.939287	-0.444520
C93	C	0.871593	0.439242	-1.064571
C94	C	1.371593	0.939242	-0.564571
C95	C	0.909742	0.502972	-0.232521
C96	C	1.409742	1.002972	0.267479
C97	C	0.909845	0.502720	-0.116368
C98	C	1.409845	1.002720	0.383632
H99	H	0.670142	0.624454	-0.624921
H100	H	1.170142	1.124454	-0.124921
Cl101	Cl	0.821053	0.355274	-1.133297
Cl102	Cl	1.321053	0.855274	-0.633297
Cl103	Cl	0.998710	1.131140	-0.356810
Cl104	Cl	1.498710	1.631140	0.143190
H105	H	0.942585	0.557098	-1.071857
H106	H	1.442585	1.057098	-0.571857
H107	H	0.942559	0.557150	-0.937312
H108	H	1.442559	1.057150	-0.437312
H109	H	0.269305	0.624318	-0.625166
H110	H	0.769305	1.124318	-0.125166
H111	H	0.877038	1.069719	-0.558384
H112	H	1.377038	1.569719	-0.058384
H113	H	0.838824	0.384946	-0.899962
H114	H	1.338824	0.884946	-0.399962
H115	H	0.550879	0.624405	-0.625000
H116	H	1.050879	1.124405	-0.125000
Cl117	Cl	0.536266	0.351968	-0.353381
Cl118	Cl	1.036266	0.851968	0.146619
H119	H	0.149990	0.381473	-0.383159
H120	H	0.649990	0.881473	0.116841
Cl121	Cl	0.684653	0.352005	-0.353296
Cl122	Cl	1.184653	0.852005	0.146704
Cl123	Cl	0.859179	0.959402	-0.587907
Cl124	Cl	1.359179	1.459402	-0.087907
Cl125	Cl	0.135487	0.653895	-0.654803
Cl126	Cl	0.635487	1.153895	-0.154803
H127	H	0.980805	0.897811	-0.386310
H128	H	1.480805	1.397811	0.113690
Cl129	Cl	0.283812	0.351883	-0.353528
Cl130	Cl	0.783812	0.851883	0.146472
