data_functionalizedCrystal
_audit_creation_method	'MofGen! by Chris Wilmer'
_symmetry_space_group_name_H-M	'P1'
_symmetry_Int_Tables_number	1
_symmetry_cell_setting	triclinic
loop_
_symmetry_equiv_pos_as_xyz
  x,y,z
_cell_length_a	21.295418
_cell_length_b	25.639240
_cell_length_c	21.295411
_cell_angle_alpha	90.026709
_cell_angle_beta	90.043738
_cell_angle_gamma	90.048568
loop_
_atom_site_label
_atom_site_type_symbol
_atom_site_fract_x
_atom_site_fract_y
_atom_site_fract_z
Zn1	Zn	0.962346	-0.207990	0.356211
Zn2	Zn	1.462346	0.292010	0.856211
Zn3	Zn	0.962244	-0.295410	0.250928
Zn4	Zn	1.462244	0.204590	0.750928
Zn5	Zn	0.857069	-0.208014	0.250921
Zn6	Zn	1.357069	0.291986	0.750921
Zn7	Zn	0.857034	-0.295420	0.356124
Zn8	Zn	1.357034	0.204580	0.856124
O9	O	0.909673	-0.251708	0.303546
O10	O	1.409673	0.248292	0.803546
O11	O	1.050422	-0.219572	0.342285
O12	O	1.550422	0.280428	0.842285
O13	O	0.948264	-0.283822	0.162837
O14	O	1.448264	0.216178	0.662837
O15	O	0.871091	-0.134846	0.264922
O16	O	1.371091	0.365154	0.764922
O17	O	1.050347	-0.283799	0.264933
O18	O	1.550347	0.216201	0.764933
O19	O	0.948438	-0.134828	0.342278
O20	O	1.448438	0.365172	0.842278
O21	O	0.870993	-0.219613	0.162833
O22	O	1.370993	0.280387	0.662833
O23	O	0.768975	-0.219623	0.264837
O24	O	1.268975	0.280377	0.764837
O25	O	0.871032	-0.283816	0.444225
O26	O	1.371032	0.216184	0.944225
O27	O	0.768950	-0.283840	0.342129
O28	O	1.268950	0.216160	0.842129
O29	O	0.948404	-0.219582	0.444289
O30	O	1.448404	0.280418	0.944289
O31	O	0.948231	-0.368576	0.264848
O32	O	1.448231	0.131424	0.764848
O33	O	0.870934	-0.368584	0.342136
O34	O	1.370934	0.131416	0.842136
C35	C	0.746122	-0.251736	0.303474
C36	C	1.246122	0.248264	0.803474
C37	C	0.676154	-0.251760	0.303458
C38	C	1.176154	0.248240	0.803458
C39	C	0.643290	-0.285242	0.343643
C40	C	1.143290	0.214758	0.843643
C41	C	0.577548	-0.285229	0.343672
C42	C	1.077548	0.214771	0.843672
C43	C	0.544671	-0.251740	0.303503
C44	C	1.044671	0.248260	0.803503
C45	C	0.577543	-0.218252	0.263314
C46	C	1.077543	0.281748	0.763314
C47	C	0.643284	-0.218262	0.263292
C48	C	1.143284	0.281738	0.763292
N49	N	0.441395	-0.247648	0.248446
N50	N	0.941395	0.252352	0.748446
N51	N	0.378944	-0.247641	0.248469
N52	N	0.878944	0.252359	0.748469
C53	C	0.346596	-0.251707	0.303570
C54	C	0.846596	0.248293	0.803570
N55	N	0.379060	-0.255789	0.358647
N56	N	0.879060	0.244211	0.858647
N57	N	0.441517	-0.255798	0.358623
N58	N	0.941517	0.244202	0.858623
C59	C	0.473386	-0.251725	0.303523
C60	C	0.973386	0.248275	0.803523
C61	C	0.242448	-0.285176	0.343789
C62	C	0.742448	0.214824	0.843789
C63	C	0.176704	-0.285160	0.343819
C64	C	0.676704	0.214840	0.843819
C65	C	0.176700	-0.218185	0.263456
C66	C	0.676700	0.281815	0.763456
C67	C	0.242442	-0.218199	0.263432
C68	C	0.742442	0.281801	0.763432
C69	C	0.275312	-0.251697	0.303598
C70	C	0.775312	0.248303	0.803598
C71	C	0.909584	-0.387551	0.303497
C72	C	1.409584	0.112449	0.803497
C73	C	0.909604	-0.445665	0.303497
C74	C	1.409604	0.054335	0.803497
C75	C	0.949968	-0.805980	0.343898
C76	C	1.449968	-0.305980	0.843898
C77	C	0.949986	-0.860584	0.343911
C78	C	1.449986	-0.360584	0.843911
O79	O	0.984199	-0.888781	0.378211
O80	O	1.484199	-0.388781	0.878211
N81	N	0.909761	-0.887947	0.303607
N82	N	1.409761	-0.387947	0.803607
C83	C	0.869510	-0.860703	0.263292
C84	C	1.369510	-0.360703	0.763292
O85	O	0.835296	-0.888991	0.229012
O86	O	1.335296	-0.388991	0.729012
C87	C	0.869488	-0.806100	0.263283
C88	C	1.369488	-0.306100	0.763283
C89	C	0.909721	-0.778740	0.303585
C90	C	1.409721	-0.278740	0.803585
C91	C	0.990197	-0.778620	0.384197
C92	C	1.490197	-0.278620	0.884197
C93	C	0.990179	-0.724019	0.384184
C94	C	1.490179	-0.224019	0.884184
C95	C	0.949932	-0.696779	0.343871
C96	C	1.449932	-0.196779	0.843871
C97	C	0.909703	-0.724139	0.303571
C98	C	1.409703	-0.224139	0.803571
C99	C	0.829234	-0.778857	0.222972
C100	C	1.329234	-0.278857	0.722972
C101	C	0.829216	-0.724250	0.222966
C102	C	1.329216	-0.224250	0.722966
C103	C	0.869449	-0.696890	0.263268
C104	C	1.369449	-0.196890	0.763268
C105	C	0.869438	-0.642298	0.263244
C106	C	1.369438	-0.142298	0.763244
N107	N	0.909664	-0.614935	0.303548
N108	N	1.409664	-0.114935	0.803548
C109	C	0.949911	-0.642176	0.343861
C110	C	1.449911	-0.142176	0.843861
C111	C	0.869557	-0.975374	0.263315
C112	C	1.369557	-0.475374	0.763315
C113	C	0.869581	-1.029976	0.263321
C114	C	1.369581	-0.529976	0.763321
C115	C	0.950057	-1.029854	0.343941
C116	C	1.450057	-0.529854	0.843941
C117	C	0.950035	-0.975250	0.343931
C118	C	1.450035	-0.475250	0.843931
C119	C	0.909782	-0.948011	0.303619
C120	C	1.409782	-0.448011	0.803619
C121	C	0.949870	-0.527511	0.343829
C122	C	1.449870	-0.027511	0.843829
C123	C	0.949851	-0.472905	0.343810
C124	C	1.449851	0.027095	0.843810
C125	C	0.869373	-0.473033	0.263193
C126	C	1.369373	0.026967	0.763193
C127	C	0.869394	-0.527633	0.263209
C128	C	1.369394	-0.027633	0.763209
C129	C	0.909645	-0.554871	0.303532
C130	C	1.409645	-0.054871	0.803532
O131	O	0.835241	-0.614068	0.228964
O132	O	1.335241	-0.114068	0.728964
O133	O	0.984113	-0.613881	0.378142
O134	O	1.484113	-0.113881	0.878142
C135	C	1.073864	-0.251681	0.303619
C136	C	1.573864	0.248319	0.803619
C137	C	1.143832	-0.251670	0.303650
C138	C	1.643832	0.248330	0.803650
C139	C	0.909726	-0.251697	0.467736
C140	C	1.409726	0.248303	0.967736
C141	C	0.909748	-0.251693	0.537705
C142	C	1.409748	0.248307	1.037705
C143	C	0.909780	-0.115335	0.303609
C144	C	1.409780	0.384665	0.803609
C145	C	0.909825	-0.057221	0.303636
C146	C	1.409825	0.442779	0.803636
C147	C	0.909658	-0.251682	0.139995
C148	C	1.409658	0.248318	0.639995
C149	C	0.909757	-0.251539	0.070027
C150	C	1.409757	0.248461	0.570027
C151	C	0.950034	-0.218244	0.570606
C152	C	1.450034	0.281756	1.070606
C153	C	0.950033	-0.218221	0.636348
C154	C	1.450033	0.281779	1.136348
C155	C	0.909753	-0.251657	0.669187
C156	C	1.409753	0.248343	1.169187
C157	C	0.869459	-0.285108	0.636278
C158	C	1.369459	0.214892	1.136278
C159	C	0.869457	-0.285126	0.570537
C160	C	1.369457	0.214874	1.070537
N161	N	0.904894	-0.297396	0.772396
N162	N	1.404894	0.202604	1.272396
N163	N	0.904900	-0.297377	0.834848
N164	N	1.404900	0.202623	1.334848
C165	C	0.909757	-0.251604	0.867262
C166	C	1.409757	0.248396	1.367262
N167	N	0.914620	-0.205848	0.834866
N168	N	1.414620	0.294152	1.334866
N169	N	0.914617	-0.205867	0.772408
N170	N	1.414617	0.294133	1.272408
C171	C	0.909751	-0.251641	0.740473
C172	C	1.409751	0.248359	1.240473
C173	C	0.950044	-0.218128	0.971449
C174	C	1.450044	0.281872	1.471449
C175	C	0.950039	-0.218104	1.037192
C176	C	1.450039	0.281896	1.537192
C177	C	0.869468	-0.284995	1.037121
C178	C	1.369468	0.215005	1.537121
C179	C	0.869470	-0.285014	0.971379
C180	C	1.369470	0.214986	1.471379
C181	C	0.909761	-0.251581	0.938546
C182	C	1.409761	0.248419	1.438546
H183	H	0.149933	-0.190915	0.230753
H184	H	0.649933	0.309085	0.730753
H185	H	0.982796	-0.952977	0.376749
H186	H	1.482796	-0.452977	0.876749
C187	C	0.825658	-0.321248	0.935618
C188	C	1.325658	0.178752	1.435618
C189	C	0.785323	-0.291660	0.897863
C190	C	1.285323	0.208340	1.397863
C191	C	0.744947	-0.325020	0.864918
C192	C	1.244947	0.174980	1.364918
H193	H	0.849648	-0.344041	0.909935
H194	H	1.349648	0.155959	1.409935
H195	H	0.801631	-0.341149	0.964569
H196	H	1.301631	0.158851	1.464569
H197	H	0.809348	-0.271767	0.868916
H198	H	1.309348	0.228233	1.368916
H199	H	0.761320	-0.268867	0.923531
H200	H	1.261320	0.231133	1.423531
H201	H	0.720919	-0.344922	0.893869
H202	H	1.220919	0.155078	1.393869
H203	H	0.768941	-0.347812	0.839238
H204	H	1.268941	0.152188	1.339238
H205	H	0.717571	-0.304949	0.839302
H206	H	1.217571	0.195051	1.339302
C207	C	0.993761	-0.181886	0.935684
C208	C	1.493761	0.318114	1.435684
C209	C	0.985154	-0.189075	0.871067
C210	C	1.485154	0.310925	1.371067
C211	C	1.025422	-0.155705	0.838103
C212	C	1.525422	0.344295	1.338103
H213	H	0.984618	-0.146733	0.946376
H214	H	1.484618	0.353267	1.446376
H215	H	1.036063	-0.189535	0.946455
H216	H	1.536063	0.310465	1.446455
H217	H	0.942861	-0.181422	0.860300
H218	H	1.442861	0.318578	1.360300
H219	H	0.994301	-0.224222	0.860356
H220	H	1.494301	0.275778	1.360356
H221	H	1.067724	-0.163354	0.848875
H222	H	1.567724	0.336646	1.348875
H223	H	1.016276	-0.120554	0.848801
H224	H	1.516276	0.379446	1.348801
H225	H	1.019592	-0.160581	0.794258
H226	H	1.519592	0.339419	1.294258
H227	H	0.982841	-0.191020	0.543878
H228	H	1.482841	0.308980	1.043878
C229	C	0.278161	-0.181787	0.219899
C230	C	0.778161	0.318213	0.719899
C231	C	0.315974	-0.148316	0.255607
C232	C	0.815974	0.351684	0.755607
C233	C	0.348880	-0.114759	0.215526
C234	C	0.848880	0.385241	0.715526
H235	H	0.303803	-0.201698	0.192405
H236	H	0.803803	0.298302	0.692405
H237	H	0.249188	-0.161809	0.195990
H238	H	0.749188	0.338191	0.695990
H239	H	0.344943	-0.168292	0.279506
H240	H	0.844943	0.331708	0.779506
H241	H	0.290348	-0.128393	0.283100
H242	H	0.790348	0.371607	0.783100
H243	H	0.319907	-0.094781	0.191617
H244	H	0.819907	0.405219	0.691617
H245	H	0.374518	-0.134675	0.188033
H246	H	0.874518	0.365325	0.688033
H247	H	0.374535	-0.092042	0.239748
H248	H	0.874535	0.407958	0.739748
C249	C	0.825684	-0.557410	0.219550
C250	C	1.325684	-0.057410	0.719550
C251	C	0.785338	-0.588783	0.255150
C252	C	1.285338	-0.088783	0.755150
C253	C	0.745066	-0.616223	0.214956
C254	C	1.245066	-0.116223	0.714956
H255	H	0.801654	-0.533426	0.195522
H256	H	1.301654	-0.033426	0.695522
H257	H	0.849768	-0.578736	0.192170
H258	H	1.349768	-0.078736	0.692170
H259	H	0.761256	-0.567460	0.282518
H260	H	1.261256	-0.067460	0.782518
H261	H	0.809351	-0.612777	0.279177
H262	H	1.309351	-0.112777	0.779177
H263	H	0.769150	-0.637549	0.187576
H264	H	1.269150	-0.137549	0.687576
H265	H	0.721040	-0.592235	0.190929
H266	H	1.221040	-0.092235	0.690929
H267	H	0.717690	-0.637517	0.239104
H268	H	1.217690	-0.137517	0.739104
H269	H	0.982843	-0.190863	1.063979
H270	H	1.482843	0.309137	1.563979
C271	C	0.825743	-0.321389	0.534698
C272	C	1.325743	0.178611	1.034698
C273	C	0.834354	-0.314242	0.470097
C274	C	1.334354	0.185758	0.970097
C275	C	0.794091	-0.347635	0.437062
C276	C	1.294091	0.152365	0.937062
H277	H	0.834887	-0.356536	0.545399
H278	H	1.334887	0.143464	1.045399
H279	H	0.783440	-0.313736	0.545403
H280	H	1.283440	0.186264	1.045403
H281	H	0.876648	-0.321899	0.459396
H282	H	1.376648	0.178101	0.959396
H283	H	0.825205	-0.279102	0.459378
H284	H	1.325205	0.220898	0.959378
H285	H	0.751788	-0.339981	0.447767
H286	H	1.251788	0.160019	0.947767
H287	H	0.803239	-0.382779	0.447767
H288	H	1.303239	0.117221	0.947767
H289	H	0.799924	-0.342786	0.393227
H290	H	1.299924	0.157214	0.893227
C291	C	0.825763	-0.321495	0.671848
C292	C	1.325763	0.178505	1.171848
C293	C	0.839417	-0.373227	0.655842
C294	C	1.339417	0.126773	1.155842
C295	C	0.799169	-0.406761	0.688589
C296	C	1.299169	0.093239	1.188589
H297	H	0.831495	-0.316767	0.715723
H298	H	1.331495	0.183233	1.215723
H299	H	0.783463	-0.313884	0.661032
H300	H	1.283463	0.186116	1.161032
H301	H	0.881708	-0.380836	0.666662
H302	H	1.381708	0.119164	1.166662
H303	H	0.833682	-0.377972	0.611973
H304	H	1.333682	0.122028	1.111973
H305	H	0.756868	-0.399149	0.677773
H306	H	1.256868	0.100851	1.177773
H307	H	0.804904	-0.402028	0.732463
H308	H	1.304904	0.097972	1.232463
H309	H	0.808424	-0.441864	0.677730
H310	H	1.308424	0.058136	1.177730
C311	C	0.678863	-0.321627	0.387324
C312	C	1.178863	0.178373	0.887324
C313	C	0.636006	-0.350937	0.422536
C314	C	1.136006	0.149063	0.922536
C315	C	0.668754	-0.384454	0.462787
C316	C	1.168754	0.115546	0.962787
H317	H	0.704457	-0.344429	0.363253
H318	H	1.204457	0.155571	0.863253
H319	H	0.704549	-0.301676	0.414825
H320	H	1.204549	0.198324	0.914825
H321	H	0.610330	-0.370887	0.395038
H322	H	1.110330	0.129113	0.895038
H323	H	0.610410	-0.328149	0.446620
H324	H	1.110410	0.171851	0.946620
H325	H	0.694440	-0.364503	0.490289
H326	H	1.194440	0.135497	0.990289
H327	H	0.694347	-0.407252	0.438711
H328	H	1.194347	0.092748	0.938711
H329	H	0.639680	-0.404342	0.486687
H330	H	1.139680	0.095658	0.986687
C331	C	0.541821	-0.321496	0.387379
C332	C	1.041821	0.178504	0.887379
C333	C	0.504170	-0.291936	0.427818
C334	C	1.004170	0.208064	0.927818
C335	C	0.471257	-0.325326	0.468094
C336	C	0.971257	0.174674	0.968094
H337	H	0.516069	-0.344250	0.363322
H338	H	1.016069	0.155750	0.863322
H339	H	0.570790	-0.341439	0.411336
H340	H	1.070790	0.158561	0.911336
H341	H	0.475205	-0.272002	0.403863
H342	H	0.975205	0.227998	0.903863
H343	H	0.529906	-0.269183	0.451889
H344	H	1.029906	0.230817	0.951889
H345	H	0.500226	-0.345269	0.492051
H346	H	1.000226	0.154731	0.992051
H347	H	0.445509	-0.348078	0.444032
H348	H	0.945509	0.151922	0.944032
H349	H	0.445712	-0.305274	0.495540
H350	H	0.945712	0.194726	0.995540
H351	H	0.982837	-0.190981	0.663142
H352	H	1.482837	0.309019	1.163142
H353	H	0.982642	-0.549681	0.376668
H354	H	1.482642	-0.049681	0.876668
C355	C	0.541820	-0.181981	0.219619
C356	C	1.041820	0.318019	0.719619
C357	C	0.504013	-0.211533	0.179204
C358	C	1.004013	0.288467	0.679204
C359	C	0.471105	-0.178136	0.138937
C360	C	0.971105	0.321864	0.638937
H361	H	0.516175	-0.159214	0.243684
H362	H	1.016175	0.340786	0.743684
H363	H	0.570792	-0.162051	0.195645
H364	H	1.070792	0.337949	0.695645
H365	H	0.475044	-0.231453	0.203176
H366	H	0.975044	0.268547	0.703176
H367	H	0.529642	-0.234298	0.155125
H368	H	1.029642	0.265702	0.655125
H369	H	0.500077	-0.158206	0.114962
H370	H	1.000077	0.341794	0.614962
H371	H	0.445463	-0.155371	0.163007
H372	H	0.945463	0.344629	0.663007
H373	H	0.445453	-0.198182	0.111507
H374	H	0.945453	0.301818	0.611507
C375	C	0.140989	-0.321427	0.387531
C376	C	0.640989	0.178573	0.887531
C377	C	0.103344	-0.291869	0.427977
C378	C	0.603344	0.208131	0.927977
C379	C	0.070441	-0.325261	0.468260
C380	C	0.570441	0.174739	0.968260
H381	H	0.115235	-0.344183	0.363479
H382	H	0.615235	0.155817	0.863479
H383	H	0.169965	-0.341369	0.411483
H384	H	0.669965	0.158631	0.911483
H385	H	0.074372	-0.271937	0.404028
H386	H	0.574372	0.228063	0.904028
H387	H	0.129083	-0.269115	0.452043
H388	H	0.629083	0.230885	0.952043
H389	H	0.099417	-0.345202	0.492211
H390	H	0.599417	0.154798	0.992211
H391	H	0.044691	-0.348015	0.444202
H392	H	0.544691	0.151985	0.944202
H393	H	0.044900	-0.305211	0.495711
H394	H	0.544900	0.194789	0.995711
H395	H	0.836665	-0.312213	1.063858
H396	H	1.336665	0.187787	1.563858
C397	C	1.033931	-0.694290	0.427842
C398	C	1.533931	-0.194290	0.927842
C399	C	1.074302	-0.662930	0.392253
C400	C	1.574302	-0.162930	0.892253
C401	C	1.114620	-0.635545	0.432454
C402	C	1.614620	-0.135545	0.932454
H403	H	1.009902	-0.672957	0.455249
H404	H	1.509902	-0.172957	0.955249
H405	H	1.057936	-0.718322	0.451842
H406	H	1.557936	-0.218322	0.951842
H407	H	1.050300	-0.638901	0.368265
H408	H	1.550300	-0.138901	0.868265
H409	H	1.098345	-0.684250	0.364848
H410	H	1.598345	-0.184250	0.864848
H411	H	1.138625	-0.659577	0.456453
H412	H	1.638625	-0.159577	0.956453
H413	H	1.090586	-0.614214	0.459859
H414	H	1.590586	-0.114214	0.959859
H415	H	1.142020	-0.614268	0.408312
H416	H	1.642020	-0.114268	0.908312
C417	C	0.278026	-0.321558	0.387472
C418	C	0.778026	0.178442	0.887472
C419	C	0.235171	-0.350864	0.422690
C420	C	0.735171	0.149136	0.922690
C421	C	0.267921	-0.384379	0.462944
C422	C	0.767921	0.115621	0.962944
H423	H	0.303619	-0.344362	0.363402
H424	H	0.803619	0.155638	0.863402
H425	H	0.303715	-0.301605	0.414969
H426	H	0.803715	0.198395	0.914969
H427	H	0.209493	-0.370816	0.395197
H428	H	0.709493	0.129184	0.895197
H429	H	0.209578	-0.328074	0.446773
H430	H	0.709578	0.171926	0.946773
H431	H	0.293610	-0.364426	0.490441
H432	H	0.793610	0.135574	0.990441
H433	H	0.293512	-0.407179	0.438869
H434	H	0.793512	0.092821	0.938869
H435	H	0.238849	-0.404263	0.486848
H436	H	0.738849	0.095737	0.986848
C437	C	0.678855	-0.181891	0.219586
C438	C	1.178855	0.318109	0.719586
C439	C	0.635995	-0.152566	0.184402
C440	C	1.135995	0.347434	0.684402
C441	C	0.668741	-0.119063	0.144127
C442	C	1.168741	0.380937	0.644127
H443	H	0.704561	-0.159099	0.243639
H444	H	1.204561	0.340901	0.743639
H445	H	0.704428	-0.201853	0.192068
H446	H	1.204428	0.298147	0.692068
H447	H	0.610432	-0.132606	0.211917
H448	H	1.110432	0.367394	0.711917
H449	H	0.610288	-0.175345	0.160337
H450	H	1.110288	0.324655	0.660337
H451	H	0.694315	-0.139024	0.116609
H452	H	1.194315	0.360976	0.616609
H453	H	0.694446	-0.096274	0.168184
H454	H	1.194446	0.403726	0.668184
H455	H	0.639667	-0.099165	0.120246
H456	H	1.139667	0.400835	0.620246
H457	H	0.836826	-1.052248	0.230496
H458	H	1.336826	-0.552248	0.730496
C459	C	0.993556	-0.443295	0.387640
C460	C	1.493556	0.056705	0.887640
C461	C	1.028791	-0.478843	0.422960
C462	C	1.528791	0.021157	0.922960
C463	C	1.069049	-0.451587	0.463348
C464	C	1.569049	0.048413	0.963348
H465	H	1.021046	-0.421980	0.363662
H466	H	1.521046	0.078020	0.863662
H467	H	0.969469	-0.422013	0.415067
H468	H	1.469469	0.077987	0.915067
H469	H	1.052876	-0.500115	0.395536
H470	H	1.552876	-0.000115	0.895536
H471	H	1.001317	-0.500159	0.446950
H472	H	1.501317	-0.000159	0.946950
H473	H	1.044962	-0.430305	0.490775
H474	H	1.544962	0.069695	0.990775
H475	H	1.096536	-0.430273	0.439365
H476	H	1.596536	0.069727	0.939365
H477	H	1.092957	-0.475702	0.487321
H478	H	1.592957	0.024298	0.987321
H479	H	1.022970	-0.800793	0.417029
H480	H	1.522970	-0.300793	0.917029
C481	C	0.825700	-0.443357	0.219496
C482	C	1.325700	0.056643	0.719496
C483	C	0.834286	-0.389682	0.228129
C484	C	1.334286	0.110318	0.728129
C485	C	0.794056	-0.362327	0.187896
C486	C	1.294056	0.137673	0.687896
H487	H	0.834890	-0.452252	0.177186
H488	H	1.334890	0.047748	0.677186
H489	H	0.783390	-0.452309	0.228668
H490	H	1.283390	0.047691	0.728668
H491	H	0.876587	-0.380734	0.218953
H492	H	1.376587	0.119266	0.718953
H493	H	0.825091	-0.380771	0.270431
H494	H	1.325091	0.119229	0.770431
H495	H	0.751746	-0.371280	0.197068
H496	H	1.251746	0.128720	0.697068
H497	H	0.803250	-0.371227	0.145589
H498	H	1.303250	0.128773	0.645589
H499	H	0.799872	-0.325907	0.193753
H500	H	1.299872	0.174093	0.693753
C501	C	0.993646	-1.059463	0.387793
C502	C	1.493646	-0.559463	0.887793
C503	C	0.957986	-1.090812	0.428108
C504	C	1.457986	-0.590812	0.928108
C505	C	0.998116	-1.118091	0.468516
C506	C	1.498116	-0.618091	0.968516
H507	H	1.021104	-1.080794	0.363826
H508	H	1.521104	-0.580794	0.863826
H509	H	1.017592	-1.035367	0.411834
H510	H	1.517592	-0.535367	0.911834
H511	H	0.934051	-1.114905	0.404069
H512	H	1.434051	-0.614905	0.904069
H513	H	0.930529	-1.069493	0.452089
H514	H	1.430529	-0.569493	0.952089
H515	H	1.022062	-1.093994	0.492557
H516	H	1.522062	-0.593994	0.992557
H517	H	1.025573	-1.139419	0.444543
H518	H	1.525573	-0.639419	0.944543
H519	H	0.973927	-1.139360	0.495877
H520	H	1.473927	-0.639360	0.995877
C521	C	0.825832	-0.945896	0.219468
C522	C	1.325832	-0.445896	0.719468
C523	C	0.790625	-0.981552	0.184166
C524	C	1.290625	-0.481552	0.684166
C525	C	0.750346	-0.954419	0.143764
C526	C	1.250346	-0.454419	0.643764
H527	H	0.798325	-0.924608	0.243435
H528	H	1.298325	-0.424608	0.743435
H529	H	0.849903	-0.924598	0.192031
H530	H	1.349903	-0.424598	0.692031
H531	H	0.766556	-1.002841	0.211600
H532	H	1.266556	-0.502841	0.711600
H533	H	0.818116	-1.002842	0.160187
H534	H	1.318116	-0.502842	0.660187
H535	H	0.774417	-0.933122	0.116327
H536	H	1.274417	-0.433122	0.616327
H537	H	0.722843	-0.933132	0.167736
H538	H	1.222843	-0.433132	0.667736
H539	H	0.726457	-0.978607	0.119803
H540	H	1.226457	-0.478607	0.619803
C541	C	0.785479	-0.808458	0.179193
C542	C	1.285479	-0.308458	0.679193
C543	C	0.750219	-0.772905	0.143908
C544	C	1.250219	-0.272905	0.643908
C545	C	0.709896	-0.800153	0.103577
C546	C	1.209896	-0.300153	0.603577
H547	H	0.809501	-0.829754	0.151738
H548	H	1.309501	-0.329754	0.651738
H549	H	0.758012	-0.829759	0.203231
H550	H	1.258012	-0.329759	0.703231
H551	H	0.777683	-0.751613	0.119872
H552	H	1.277683	-0.251613	0.619872
H553	H	0.726184	-0.751608	0.171346
H554	H	1.226184	-0.251608	0.671346
H555	H	0.682429	-0.821454	0.127614
H556	H	1.182429	-0.321454	0.627614
H557	H	0.733923	-0.821448	0.076126
H558	H	1.233923	-0.321448	0.576126
H559	H	0.685963	-0.776034	0.079635
H560	H	1.185963	-0.276034	0.579635
H561	H	0.796435	-0.702074	0.190140
H562	H	1.296435	-0.202074	0.690140
