data_functionalizedCrystal
_audit_creation_method	'MofGen! by Chris Wilmer'
_symmetry_space_group_name_H-M	'P1'
_symmetry_Int_Tables_number	1
_symmetry_cell_setting	triclinic
loop_
_symmetry_equiv_pos_as_xyz
  x,y,z
_cell_length_a	15.944551
_cell_length_b	10.654550
_cell_length_c	9.730223
_cell_angle_alpha	90.000193
_cell_angle_beta	89.995714
_cell_angle_gamma	83.991821
loop_
_atom_site_label
_atom_site_type_symbol
_atom_site_fract_x
_atom_site_fract_y
_atom_site_fract_z
O1	O	-1.115457	-0.161961	-0.114143
O2	O	-0.871023	-0.181930	-0.114177
O3	O	-0.998860	0.010867	-0.114154
O4	O	-0.987620	-0.354757	-0.114166
O5	O	-0.998858	0.010862	0.114426
O6	O	-0.871021	-0.181934	0.114403
O7	O	-1.115455	-0.161966	0.114437
Zn8	Zn	-0.993238	-0.171951	0.150712
Zn9	Zn	-0.993240	-0.171944	-0.150452
O10	O	-0.987618	-0.354762	0.114414
C11	C	-0.998034	0.057652	0.000134
C12	C	-0.995565	0.197063	0.000129
C13	C	-0.839723	-0.181103	0.000109
C14	C	-0.746463	-0.178618	0.000096
C15	C	-1.146755	-0.162792	0.000148
C16	C	-1.240015	-0.165278	0.000152
C17	C	-0.530880	-0.053173	0.000127
C18	C	-0.470198	-0.111423	-0.112577
C19	C	-0.575711	-0.174122	0.000112
C20	C	-0.470219	-0.111456	0.112785
C21	C	-0.410773	-0.169770	0.000134
C22	C	-0.516257	-0.232405	-0.112684
C23	C	-0.516284	-0.232421	0.112779
C24	C	-0.455620	-0.290759	0.000047
C25	C	-0.670728	-0.176625	0.000099
C26	C	-0.315757	-0.167276	0.000138
C27	C	-0.988444	-0.401547	0.000123
C28	C	-0.990913	-0.540958	0.000119
N29	N	-0.993243	-0.171954	0.356249
C30	C	-1.070833	0.277522	0.000144
C31	C	-1.068508	0.408513	0.000134
C32	C	-0.915639	0.378572	0.000100
C33	C	-0.917965	0.247584	0.000101
C34	C	-1.148432	0.227002	0.000172
C35	C	-1.223707	0.307463	0.000188
C36	C	-1.221382	0.438453	0.000178
C37	C	-1.143782	0.488983	0.000152
N38	N	-0.993242	-0.171931	-0.355988
C39	C	-1.049864	-0.086613	0.428185
C40	C	-1.049862	-0.086598	0.572068
C41	C	-0.936615	-0.257276	0.572066
C42	C	-0.936614	-0.257285	0.428185
C43	C	-1.106493	-0.001283	0.356248
C44	C	-1.163119	0.084065	0.428184
C45	C	-1.163117	0.084080	0.572067
C46	C	-1.106489	-0.001252	0.644014
H47	H	-0.449792	-0.060265	-0.207857
O48	O	-1.299011	0.258175	0.000268
C49	C	-1.284926	0.125307	0.000239
H50	H	-1.219555	0.094553	0.043505
H51	H	-1.289211	0.088840	-0.109419
C52	C	-1.432347	0.108750	0.036756
C53	C	-1.352060	0.070976	0.089906
H54	H	-1.473760	0.075234	0.092061
H55	H	-1.441837	0.198265	0.036770
H56	H	-1.435906	0.078357	-0.054625
H57	H	-1.348499	0.101382	0.181279
H58	H	-1.342571	-0.018535	0.089910
H59	H	-1.209218	0.153581	0.630636
O60	O	-0.840336	0.427862	0.000147
C61	C	-0.854424	0.560730	0.000118
H62	H	-0.919794	0.591482	0.043403
H63	H	-0.850143	0.597194	-0.109543
C64	C	-0.707003	0.577296	0.036587
C65	C	-0.787290	0.615067	0.089762
H66	H	-0.665590	0.610816	0.091878
H67	H	-0.697511	0.487781	0.036602
H68	H	-0.703448	0.607686	-0.054796
H69	H	-0.790848	0.584664	0.181136
H70	H	-0.796781	0.704579	0.089765
H71	H	-0.536711	-0.283537	0.208063
O72	O	-0.844772	0.169596	0.000146
C73	C	-0.775782	0.242272	0.000096
H74	H	-0.796525	0.340033	0.043383
H75	H	-0.752041	0.251604	-0.109572
C76	C	-0.678998	0.056924	0.036547
C77	C	-0.704472	0.176992	0.089723
H78	H	-0.635009	0.016655	0.091827
H79	H	-0.725477	0.007959	0.036575
H80	H	-0.659219	0.064717	-0.054842
H81	H	-0.724261	0.169197	0.181103
H82	H	-0.657995	0.225955	0.089712
H83	H	-0.563632	0.047204	-0.000009
H84	H	-0.536541	-0.283521	-0.208071
H85	H	-1.209220	0.153547	0.369598
O86	O	-0.881497	-0.340042	0.641891
C87	C	-0.798233	-0.319568	0.606701
H88	H	-0.797241	-0.219024	0.567139
H89	H	-0.773962	-0.389159	0.523191
C90	C	-0.742626	-0.462503	0.783105
C91	C	-0.741406	-0.339010	0.734525
H92	H	-0.707571	-0.474501	0.861950
H93	H	-0.798722	-0.476302	0.806811
H94	H	-0.722402	-0.520482	0.713501
H95	H	-0.761640	-0.281034	0.804122
H96	H	-0.685312	-0.325202	0.710834
H97	H	-0.423043	-0.391240	-0.000019
H98	H	-0.449836	-0.060280	0.208064
H99	H	-1.150334	0.120344	0.000185
H100	H	-1.106502	-0.001290	0.239091
H101	H	-1.106486	-0.001224	0.761173
H102	H	-1.282674	0.503962	0.000177
H103	H	-0.890507	-0.326777	0.369614
H104	H	-1.141895	0.595646	0.000130
