data_functionalizedCrystal
_audit_creation_method	'MofGen! by Chris Wilmer'
_symmetry_space_group_name_H-M	'P1'
_symmetry_Int_Tables_number	1
_symmetry_cell_setting	triclinic
loop_
_symmetry_equiv_pos_as_xyz
  x,y,z
_cell_length_a	10.540510
_cell_length_b	10.540514
_cell_length_c	13.448316
_cell_angle_alpha	89.992743
_cell_angle_beta	90.007118
_cell_angle_gamma	95.485765
loop_
_atom_site_label
_atom_site_type_symbol
_atom_site_fract_x
_atom_site_fract_y
_atom_site_fract_z
O1	O	-0.178753	1.685891	-0.082706
O2	O	0.321247	2.185891	0.417294
O3	O	-0.195643	1.316472	-0.082705
O4	O	0.304357	1.816472	0.417295
O5	O	-0.002488	1.509629	-0.082698
O6	O	0.497512	2.009629	0.417302
O7	O	-0.371908	1.492733	-0.082713
O8	O	0.128092	1.992733	0.417287
O9	O	-0.002476	1.509604	0.082686
O10	O	0.497524	2.009604	0.582686
O11	O	-0.195630	1.316447	0.082679
O12	O	0.304370	1.816447	0.582679
O13	O	-0.178741	1.685866	0.082678
O14	O	0.321259	2.185866	0.582678
Cu15	Cu	-0.187185	1.501154	0.097779
Cu16	Cu	0.312815	2.001154	0.597779
Cu17	Cu	-0.187199	1.501183	-0.097806
Cu18	Cu	0.312801	2.001183	0.402194
O19	O	-0.371895	1.492709	0.082670
O20	O	0.128105	1.992709	0.582670
C21	C	-0.194377	1.269156	-0.000013
C22	C	0.305623	1.769156	0.499987
C23	C	-0.190608	1.128207	-0.000013
C24	C	0.309392	1.628207	0.499987
C25	C	-0.328749	1.057486	-0.000021
C26	C	0.171251	1.557486	0.499979
C27	C	-0.324875	0.910874	-0.000401
C28	C	0.175125	1.410874	0.499599
C29	C	-0.115486	0.935891	-0.094274
C30	C	0.384514	1.435891	0.405726
C31	C	-0.120340	1.082430	-0.094348
C32	C	0.379660	1.582430	0.405652
C33	C	-0.118282	1.082805	0.093731
C34	C	0.381718	1.582805	0.593731
C35	C	-0.116949	0.935826	0.094965
C36	C	0.383051	1.435826	0.594965
C37	C	-0.419205	1.493980	-0.000024
C38	C	0.080795	1.993980	0.499976
C39	C	-0.560155	1.497747	-0.000030
C40	C	-0.060155	1.997747	0.499970
C41	C	-0.777622	1.363561	0.000362
C42	C	-0.277622	1.863561	0.500362
C43	C	-0.631027	1.359543	-0.000026
C44	C	-0.131027	1.859543	0.499974
C45	C	-0.604931	1.568508	-0.094466
C46	C	-0.104931	2.068508	0.405534
C47	C	-0.751692	1.571548	-0.094530
C48	C	-0.251692	2.071548	0.405470
C49	C	-0.751451	1.574397	0.093542
C50	C	-0.251451	2.074397	0.593542
C51	C	-0.605111	1.567842	0.094775
C52	C	-0.105111	2.067842	0.594775
C53	C	0.044821	1.508358	-0.000006
C54	C	0.544821	2.008358	0.499994
C55	C	0.185771	1.504591	-0.000006
C56	C	0.685771	2.004591	0.499994
C57	C	-0.180007	1.733182	-0.000016
C58	C	0.319993	2.233182	0.499984
C59	C	-0.183776	1.874131	-0.000023
C60	C	0.316224	2.374131	0.499977
N61	N	-0.187174	1.501143	0.235343
N62	N	0.312826	2.001143	0.735343
N63	N	-0.187200	1.501205	-0.235371
N64	N	0.312800	2.001205	0.264629
C65	C	-0.101681	1.586700	0.287387
C66	C	0.398319	2.086700	0.787387
C67	C	-0.101680	1.586708	0.391490
C68	C	0.398320	2.086708	0.891490
C69	C	-0.187179	1.501164	0.443548
C70	C	0.312821	2.001164	0.943548
C71	C	-0.272676	1.415598	0.391497
C72	C	0.227324	1.915598	0.891497
C73	C	-0.272670	1.415585	0.287396
C74	C	0.227330	1.915585	0.787396
C75	C	-0.272685	1.415633	0.608477
C76	C	0.227315	1.915633	1.108477
C77	C	-0.272693	1.415648	0.712586
C78	C	0.227307	1.915648	1.212586
C79	C	-0.101695	1.586757	0.712572
C80	C	0.398305	2.086757	1.212572
C81	C	-0.101688	1.586744	0.608471
C82	C	0.398312	2.086744	1.108471
C83	C	-0.187188	1.501179	0.556427
C84	C	0.312812	2.001179	1.056427
H85	H	-0.162307	0.893290	-0.164687
H86	H	0.337693	1.393290	0.335313
Cl87	Cl	-0.193994	0.872508	0.202623
Cl88	Cl	0.306006	1.372508	0.702623
H89	H	-0.342303	1.345953	0.566106
H90	H	0.157697	1.845953	1.066106
Cl91	Cl	-0.529404	1.723654	0.103545
Cl92	Cl	-0.029404	2.223654	0.603545
H93	H	-0.378588	0.868194	0.067146
H94	H	0.121412	1.368194	0.567146
H95	H	-0.032075	1.656406	0.566085
H96	H	0.467925	2.156406	1.066085
Cl97	Cl	-0.380157	1.308049	0.456939
Cl98	Cl	0.119843	1.808049	0.956939
Cl99	Cl	-0.813823	1.496915	-0.203519
Cl100	Cl	-0.313823	1.996915	0.296481
H101	H	-0.342285	1.345914	0.245023
H102	H	0.157715	1.845914	0.745023
H103	H	-0.384784	1.086010	0.067557
H104	H	0.115216	1.586010	0.567557
H105	H	-0.821146	1.310041	-0.066982
H106	H	-0.321146	1.810041	0.433018
Cl107	Cl	0.005786	1.694324	0.778002
Cl108	Cl	0.505786	2.194324	1.278002
Cl109	Cl	-0.189270	1.131403	0.204063
Cl110	Cl	0.310730	1.631403	0.704063
H111	H	-0.032064	1.656374	0.433864
H112	H	0.467936	2.156374	0.933864
H113	H	-0.018866	1.130447	-0.098368
H114	H	0.481134	1.630447	0.401632
Cl115	Cl	-0.197361	1.126020	-0.203545
Cl116	Cl	0.302639	1.626020	0.296455
Cl117	Cl	-0.380180	1.308098	0.778022
Cl118	Cl	0.119820	1.808098	1.278022
Cl119	Cl	-0.787189	1.731138	-0.101121
Cl120	Cl	-0.287189	2.231138	0.398879
H121	H	-0.014101	0.911652	0.100941
H122	H	0.485899	1.411652	0.600941
H123	H	-0.383973	1.087718	-0.067514
H124	H	0.116027	1.587718	0.432486
Cl125	Cl	-0.585698	1.274057	0.104486
Cl126	Cl	-0.085698	1.774057	0.604486
Cl127	Cl	-0.407460	0.846441	-0.105336
Cl128	Cl	0.092540	1.346441	0.394664
H129	H	-0.016388	1.130072	0.094645
H130	H	0.483612	1.630072	0.594645
Cl131	Cl	0.044516	0.901459	-0.099274
Cl132	Cl	0.544516	1.401459	0.400726
Cl133	Cl	-0.785634	1.734599	0.094530
Cl134	Cl	-0.285634	2.234599	0.594530
Cl135	Cl	-0.842394	1.280402	0.104925
Cl136	Cl	-0.342394	1.780402	0.604925
H137	H	-0.032063	1.656365	0.245009
H138	H	0.467937	2.156365	0.745009
Cl139	Cl	-0.531757	1.725594	-0.099898
Cl140	Cl	-0.031757	2.225594	0.400102
Cl141	Cl	-0.587196	1.273607	-0.104735
Cl142	Cl	-0.087196	1.773607	0.395265
H143	H	-0.574100	1.519386	-0.164751
H144	H	-0.074100	2.019386	0.335249
Cl145	Cl	-0.816956	1.506941	0.204065
Cl146	Cl	-0.316956	2.006941	0.704065
Cl147	Cl	-0.560916	1.488351	0.202643
Cl148	Cl	-0.060916	1.988351	0.702643
