data_functionalizedCrystal
_audit_creation_method	'MofGen! by Chris Wilmer'
_symmetry_space_group_name_H-M	'P1'
_symmetry_Int_Tables_number	1
_symmetry_cell_setting	triclinic
loop_
_symmetry_equiv_pos_as_xyz
  x,y,z
_cell_length_a	10.654545
_cell_length_b	10.540514
_cell_length_c	9.730223
_cell_angle_alpha	89.998752
_cell_angle_beta	89.997167
_cell_angle_gamma	84.499119
loop_
_atom_site_label
_atom_site_type_symbol
_atom_site_fract_x
_atom_site_fract_y
_atom_site_fract_z
O1	O	1.667889	0.178275	-0.114266
O2	O	1.302414	0.195269	-0.114270
O3	O	1.493506	0.002060	-0.114270
O4	O	1.476797	0.371484	-0.114266
O5	O	1.493494	0.002055	0.114310
O6	O	1.302402	0.195263	0.114309
O7	O	1.667877	0.178270	0.114314
Zn8	Zn	1.485137	0.186766	0.150604
Zn9	Zn	1.485154	0.186773	-0.150560
O10	O	1.476785	0.371478	0.114314
C11	C	1.255610	0.194019	0.000019
C12	C	1.116165	0.190290	0.000017
C13	C	1.050654	0.188531	0.124616
C14	C	0.919633	0.185006	0.124616
C15	C	0.919647	0.185003	-0.124594
C16	C	1.050666	0.188520	-0.124593
C17	C	1.492254	-0.045246	0.000017
C18	C	1.488525	-0.186194	0.000007
C19	C	1.625192	-0.256951	0.000012
C20	C	1.621359	-0.403563	0.000540
C21	C	1.414192	-0.378504	0.130293
C22	C	1.418994	-0.231967	0.130393
C23	C	1.416986	-0.231562	-0.129554
C24	C	1.415667	-0.378540	-0.131257
C25	C	1.714681	0.179519	0.000022
C26	C	1.854126	0.183249	0.000015
C27	C	1.478037	0.418784	0.000024
C28	C	1.481766	0.559732	0.000025
N29	N	1.485135	0.186760	0.356140
N30	N	1.485166	0.186768	-0.356096
C31	C	1.569780	0.101244	0.428066
C32	C	1.569793	0.101244	0.571949
C33	C	1.400512	0.272289	0.571967
C34	C	1.400494	0.272281	0.428087
H35	H	1.680630	-0.228449	-0.093405
H36	H	0.866302	0.183563	-0.226047
H37	H	1.674270	-0.445315	0.094473
H38	H	0.866299	0.183575	0.226078
C39	C	1.122738	0.190452	-0.261663
C40	C	1.226100	0.082824	-0.295922
C41	C	1.298172	0.084749	-0.432986
C42	C	1.266882	0.194303	-0.535790
C43	C	1.163515	0.301940	-0.501533
C44	C	1.091443	0.300015	-0.364469
H45	H	1.249267	0.001718	-0.219819
H46	H	1.374691	0.005068	-0.458344
H47	H	1.320234	0.195728	-0.637252
H48	H	1.140348	0.383046	-0.577637
H49	H	1.014923	0.379695	-0.339111
H50	H	1.103979	0.189973	0.226081
C51	C	1.307419	0.366369	0.651109
C52	C	1.307504	0.366461	0.809372
C53	C	1.214411	0.460548	0.888509
C54	C	1.121233	0.554541	0.809383
C55	C	1.121144	0.554452	0.651112
C56	C	1.214237	0.460366	0.571975
H57	H	1.376483	0.296879	0.867953
H58	H	1.214477	0.460613	1.005672
H59	H	1.052320	0.624190	0.867965
H60	H	1.052165	0.624035	0.592530
H61	H	1.214171	0.460300	0.454811
H62	H	1.468336	-0.203762	0.228145
H63	H	1.331560	0.341919	0.369521
H64	H	1.462482	-0.200081	-0.228325
C65	C	1.693159	-0.461236	-0.125580
C66	C	1.754392	-0.373895	-0.227484
C67	C	1.826201	-0.431562	-0.353605
C68	C	1.836776	-0.576570	-0.377822
C69	C	1.775541	-0.663919	-0.275916
C70	C	1.703732	-0.606252	-0.149795
H71	H	1.746565	-0.266544	-0.209559
H72	H	1.871532	-0.366899	-0.429042
H73	H	1.889934	-0.619258	-0.471185
H74	H	1.783368	-0.771270	-0.293841
H75	H	1.658401	-0.670915	-0.074357
H76	H	1.679854	-0.226655	0.093224
C77	C	1.280813	-0.167647	-0.131285
C78	C	1.190766	-0.196616	-0.248527
C79	C	1.054604	-0.132688	-0.250250
C80	C	1.008488	-0.039791	-0.134732
C81	C	1.098536	-0.010818	-0.017481
C82	C	1.234699	-0.074746	-0.015758
H83	H	1.224903	-0.265388	-0.334048
H84	H	0.987944	-0.154136	-0.337048
H85	H	0.907692	0.007533	-0.136008
H86	H	1.064400	0.057954	0.068040
H87	H	1.301359	-0.053297	0.071039
H88	H	1.318602	-0.183923	0.135947
C89	C	1.275685	-0.408598	0.136354
C90	C	1.244031	-0.547967	0.143361
C91	C	1.105525	-0.578063	0.149418
C92	C	0.998673	-0.468790	0.148469
C93	C	1.030325	-0.329412	0.141461
C94	C	1.168831	-0.299316	0.135404
H95	H	1.323131	-0.628865	0.144064
H96	H	1.082094	-0.681240	0.154605
H97	H	0.896142	-0.491069	0.152953
H98	H	0.951224	-0.248513	0.140758
H99	H	1.192261	-0.196139	0.130217
C100	C	1.476794	-0.436024	0.261771
C101	C	1.588366	-0.539824	0.251206
C102	C	1.650977	-0.597341	0.382680
C103	C	1.602015	-0.551059	0.524718
C104	C	1.490437	-0.447254	0.535288
C105	C	1.427827	-0.389736	0.403815
H106	H	1.624616	-0.574090	0.146056
H107	H	1.733575	-0.674185	0.374854
H108	H	1.648363	-0.593637	0.622043
H109	H	1.454188	-0.412988	0.640439
H110	H	1.345229	-0.312892	0.411640
C111	C	1.662906	0.007179	0.651070
C112	C	1.756024	-0.086867	0.571928
C113	C	1.849141	-0.180938	0.651049
C114	C	1.849140	-0.180963	0.809312
C115	C	1.756018	-0.086913	0.888463
C116	C	1.662902	0.007158	0.809342
H117	H	1.756028	-0.086852	0.454765
H118	H	1.918075	-0.250560	0.592456
H119	H	1.918070	-0.250599	0.867882
H120	H	1.756014	-0.086928	1.005626
H121	H	1.593967	0.076780	0.867935
H122	H	1.465050	-0.419553	-0.227631
H123	H	1.313922	-0.402696	-0.139519
H124	H	1.638698	0.031606	0.369491
