data_functionalizedCrystal
_audit_creation_method	'MofGen! by Chris Wilmer'
_symmetry_space_group_name_H-M	'P1'
_symmetry_Int_Tables_number	1
_symmetry_cell_setting	triclinic
loop_
_symmetry_equiv_pos_as_xyz
  x,y,z
_cell_length_a	23.532407
_cell_length_b	15.944551
_cell_length_c	15.021413
_cell_angle_alpha	89.996935
_cell_angle_beta	90.001925
_cell_angle_gamma	83.173708
loop_
_atom_site_label
_atom_site_type_symbol
_atom_site_fract_x
_atom_site_fract_y
_atom_site_fract_z
O1	O	-0.755658	-0.101953	-0.073923
O2	O	-0.589851	-0.116707	-0.073949
O3	O	-0.677282	0.012983	-0.073927
O4	O	-0.668227	-0.231643	-0.073945
O5	O	-0.677268	0.012965	0.074137
O6	O	-0.589838	-0.116725	0.074115
O7	O	-0.755644	-0.101972	0.074141
Zn8	Zn	-0.672738	-0.109351	0.097636
Zn9	Zn	-0.672757	-0.109327	-0.097444
O10	O	-0.668213	-0.231661	0.074119
C11	C	-0.568627	-0.116340	0.000080
C12	C	-0.505406	-0.115211	0.000070
C13	C	-0.676899	0.044265	0.000105
C14	C	-0.675772	0.137501	0.000105
C15	C	-0.776868	-0.102338	0.000111
C16	C	-0.840090	-0.103468	0.000115
C17	C	-0.106572	-0.184874	0.000105
C18	C	-0.047168	-0.183824	0.000111
O19	O	-0.010674	-0.248403	0.000138
N20	N	-0.024243	-0.106724	0.000115
C21	C	-0.060726	-0.030668	0.000122
O22	O	-0.035772	0.035009	0.000127
C23	C	-0.120129	-0.031718	0.000123
C24	C	-0.143051	-0.108823	0.000110
C25	C	-0.129494	-0.261973	0.000093
C26	C	-0.188894	-0.263022	0.000086
C27	C	-0.225373	-0.186971	0.000091
C28	C	-0.202451	-0.109872	0.000103
C29	C	-0.156611	0.044337	0.000137
C30	C	-0.216018	0.043281	0.000138
C31	C	-0.238939	-0.033825	0.000125
C32	C	-0.298329	-0.034871	0.000100
N33	N	-0.321254	-0.111971	0.000096
C34	C	-0.284776	-0.188022	0.000092
C35	C	0.064025	-0.028468	0.000122
C36	C	0.123427	-0.027417	0.000115
C37	C	0.136981	-0.180574	0.000105
C38	C	0.077578	-0.181624	0.000106
C39	C	0.041100	-0.105569	0.000118
C40	C	-0.409521	-0.190219	0.000076
C41	C	-0.468927	-0.191261	0.000065
C42	C	-0.482476	-0.038104	0.000079
C43	C	-0.423075	-0.037062	0.000086
C44	C	-0.386599	-0.113126	0.000087
O45	O	-0.334859	0.029673	0.000076
O46	O	-0.309738	-0.253687	0.000098
C47	C	-0.668596	-0.262943	0.000085
C48	C	-0.669723	-0.356179	0.000079
N49	N	-0.672730	-0.109367	0.230774
C50	C	-0.618885	0.351879	0.000084
C51	C	-0.645295	0.413109	0.073093
C52	C	-0.673733	0.308210	0.000098
C53	C	-0.645321	0.413111	-0.072887
C54	C	-0.671760	0.473106	0.000087
C55	C	-0.700158	0.368212	0.073167
C56	C	-0.700177	0.368208	-0.072878
C57	C	-0.726627	0.429421	0.000148
C58	C	-0.674869	0.213217	0.000105
C59	C	-0.670629	0.568097	0.000087
N60	N	-0.672770	-0.109304	-0.230582
C61	C	-0.632296	-0.169308	0.470447
C62	C	-0.683757	-0.185181	0.529789
C63	C	-0.672745	-0.109346	0.412381
C64	C	-0.621298	-0.093492	0.529781
C65	C	-0.672754	-0.109328	0.587805
C66	C	-0.724232	-0.125257	0.470416
C67	C	-0.661739	-0.033535	0.470403
C68	C	-0.713237	-0.049376	0.529718
C69	C	-0.672738	-0.109359	0.311324
C70	C	-0.672766	-0.109314	0.688860
H71	H	-0.379828	-0.252157	0.000079
C72	C	-0.213690	-0.346805	-0.000060
C73	C	-0.195130	-0.392743	-0.076226
C74	C	-0.217947	-0.469938	-0.076383
H75	H	-0.254292	-0.336680	-0.000107
H76	H	-0.201146	-0.378142	0.051545
H77	H	-0.207678	-0.361412	-0.127818
H78	H	-0.154532	-0.402890	-0.076195
H79	H	-0.205402	-0.501276	-0.024778
H80	H	-0.258548	-0.459805	-0.076428
H81	H	-0.205353	-0.501120	-0.128056
H82	H	-0.693074	-0.249285	0.555873
H83	H	-0.767753	-0.138736	0.444449
H84	H	-0.723332	0.348410	0.134958
C85	C	-0.787395	0.474112	0.000393
C86	C	-0.815832	0.451356	0.076969
C87	C	-0.871807	0.492519	0.077235
H88	H	-0.807097	0.458092	-0.050912
H89	H	-0.786372	0.533497	-0.000051
H90	H	-0.816858	0.391984	0.077404
H91	H	-0.796147	0.467377	0.128286
H92	H	-0.870784	0.551904	0.076791
H93	H	-0.891504	0.476496	0.025927
H94	H	-0.891107	0.477091	0.129194
H95	H	-0.723362	0.348281	-0.134597
H96	H	-0.652405	0.030548	0.444298
C97	C	-0.758986	0.018149	0.564162
C98	C	-0.812727	0.001158	0.533937
C99	C	-0.854886	0.063332	0.565661
H100	H	-0.751552	0.071901	0.542949
H101	H	-0.758568	0.018087	0.627406
H102	H	-0.813143	0.001229	0.470706
H103	H	-0.820179	-0.052583	0.555147
H104	H	-0.854468	0.063270	0.628904
H105	H	-0.847447	0.117080	0.544446
H106	H	-0.891355	0.051808	0.545164
C107	C	-0.614297	0.439510	-0.155158
C108	C	-0.557926	0.399843	-0.154822
C109	C	-0.529328	0.424128	-0.230597
H110	H	-0.614045	0.499039	-0.154931
H111	H	-0.633386	0.423347	-0.207019
H112	H	-0.538842	0.416011	-0.102975
H113	H	-0.558161	0.340314	-0.155063
H114	H	-0.548417	0.407965	-0.282459
H115	H	-0.529081	0.483657	-0.230364
H116	H	-0.491079	0.397211	-0.230384
H117	H	-0.577786	-0.080090	0.555861
H118	H	-0.487586	-0.254052	0.000054
H119	H	-0.099799	-0.323906	0.000092
H120	H	-0.622090	0.433014	0.134809
C121	C	0.052805	-0.265425	0.000144
C122	C	0.097472	-0.331796	0.000159
C123	C	0.074678	-0.409008	0.000208
H124	H	0.029919	-0.269136	-0.051473
H125	H	0.029934	-0.269074	0.051800
H126	H	0.120334	-0.328148	-0.051492
H127	H	0.120362	-0.328113	0.051772
H128	H	0.051807	-0.412658	0.051864
H129	H	0.051792	-0.412710	-0.051410
H130	H	0.104981	-0.454050	0.000226
C131	C	0.148198	0.056385	0.000163
C132	C	0.103531	0.122756	0.000187
C133	C	0.126326	0.199968	0.000249
H134	H	0.171082	0.060109	-0.051453
H135	H	0.171072	0.060021	0.051820
H136	H	0.080667	0.119121	-0.051465
H137	H	0.080644	0.119060	0.051799
H138	H	0.149200	0.203605	0.051906
H139	H	0.149209	0.203683	-0.051368
H140	H	0.096023	0.245010	0.000273
C141	C	0.176660	-0.263083	-0.000033
C142	C	0.211169	-0.266933	-0.076195
C143	C	0.247734	-0.342917	-0.076348
H144	H	0.154575	-0.309226	-0.000083
H145	H	0.200148	-0.265864	0.051575
H146	H	0.187684	-0.264160	-0.127790
H147	H	0.233266	-0.220807	-0.076161
H148	H	0.271222	-0.345698	-0.024739
H149	H	0.225644	-0.389054	-0.076395
H150	H	0.271156	-0.345536	-0.128018
C151	C	0.024355	0.054050	-0.000020
C152	C	-0.010155	0.057923	-0.076186
C153	C	-0.046707	0.133920	-0.076341
H154	H	0.046449	0.100183	-0.000066
H155	H	0.000867	0.056833	0.051585
H156	H	0.013331	0.055148	-0.127778
H157	H	-0.032261	0.011808	-0.076157
H158	H	-0.070195	0.136703	-0.024736
H159	H	-0.024608	0.180046	-0.076384
H160	H	-0.070129	0.136554	-0.128014
C161	C	-0.131846	0.128141	0.000206
C162	C	-0.176517	0.194506	0.000242
C163	C	-0.153727	0.271723	0.000322
H164	H	-0.108963	0.131878	-0.051408
H165	H	-0.108973	0.131771	0.051865
H166	H	-0.199381	0.190878	-0.051412
H167	H	-0.199404	0.190797	0.051853
H168	H	-0.130855	0.275352	0.051981
H169	H	-0.130845	0.275450	-0.051294
H170	H	-0.184033	0.316760	0.000354
H171	H	-0.245716	0.105216	0.000149
C172	C	-0.586803	-0.237097	0.435783
C173	C	-0.598607	-0.316324	0.465857
C174	C	-0.556720	-0.378793	0.433931
H175	H	-0.550299	-0.226486	0.456960
H176	H	-0.586895	-0.236350	0.372541
H177	H	-0.598510	-0.317069	0.529086
H178	H	-0.635104	-0.326962	0.444682
H179	H	-0.556811	-0.378045	0.370689
H180	H	-0.520219	-0.368173	0.455110
H181	H	-0.564726	-0.432555	0.454324
C182	C	-0.398296	0.046738	0.000133
C183	C	-0.442960	0.113114	0.000150
C184	C	-0.420160	0.190322	0.000213
H185	H	-0.375410	0.050457	-0.051481
H186	H	-0.375424	0.050372	0.051792
H187	H	-0.465822	0.109481	-0.051503
H188	H	-0.465849	0.109423	0.051761
H189	H	-0.397288	0.193957	0.051872
H190	H	-0.397274	0.194033	-0.051402
H191	H	-0.450460	0.235367	0.000233
H192	H	-0.573358	0.318187	0.000149
C193	C	-0.522157	0.044396	-0.000050
C194	C	-0.556669	0.048268	-0.076214
C195	C	-0.593237	0.124249	-0.076350
H196	H	-0.500074	0.090542	-0.000087
H197	H	-0.545643	0.047158	0.051557
H198	H	-0.533185	0.045514	-0.127808
H199	H	-0.578764	0.002140	-0.076193
H200	H	-0.616723	0.127011	-0.024743
H201	H	-0.571149	0.170389	-0.076385
H202	H	-0.616661	0.126882	-0.128022
