data_functionalizedCrystal
_audit_creation_method	'MofGen! by Chris Wilmer'
_symmetry_space_group_name_H-M	'P1'
_symmetry_Int_Tables_number	1
_symmetry_cell_setting	triclinic
loop_
_symmetry_equiv_pos_as_xyz
  x,y,z
_cell_length_a	12.478028
_cell_length_b	15.698487
_cell_length_c	15.698487
_cell_angle_alpha	90.000340
_cell_angle_beta	122.957919
_cell_angle_gamma	57.042107
loop_
_atom_site_label
_atom_site_type_symbol
_atom_site_fract_x
_atom_site_fract_y
_atom_site_fract_z
Zr1	Zr	1.298516	0.725312	0.207100
O2	O	1.545994	0.571136	0.361275
O3	O	1.051032	0.785170	0.147241
O4	O	1.298513	0.767010	0.343115
O5	O	1.298518	0.589294	0.025221
O6	O	1.298518	0.907191	0.343117
O7	O	1.298513	0.589297	0.165402
O8	O	0.855820	0.939676	-0.007265
O9	O	1.741216	0.556809	0.375603
O10	O	1.152832	0.900097	0.136932
O11	O	1.152832	0.795480	0.032315
O12	O	1.444209	0.774099	0.262930
O13	O	1.444209	0.669481	0.158313
Zr14	Zr	1.298531	0.948880	-0.016468
Zr15	Zr	1.298524	0.948884	0.207104
Zr16	Zr	1.298524	0.725308	-0.016472
Zr17	Zr	1.609872	0.702461	0.229951
Zr18	Zr	0.987175	0.971731	-0.039319
O19	O	1.546015	0.889022	0.043390
O20	O	1.546004	0.889027	0.361281
O21	O	1.546004	0.571131	0.043385
O22	O	1.051054	1.103056	-0.170644
O23	O	1.051043	1.103061	0.147247
O24	O	1.051043	0.785165	-0.170649
O25	O	1.298530	1.084898	0.165411
O26	O	1.298534	0.907182	-0.152483
O27	O	1.298530	0.767001	-0.152486
O28	O	1.298534	1.084895	0.025230
O29	O	1.741222	0.734519	0.375606
O30	O	0.855826	0.939673	-0.184975
O31	O	0.855832	1.117383	-0.184972
O32	O	0.855826	1.117386	-0.007262
O33	O	1.741222	0.556806	0.197893
O34	O	1.741228	0.734516	0.197896
O35	O	1.152839	0.900094	-0.072299
O36	O	1.152839	1.004711	0.032318
O37	O	1.444216	0.878712	0.158317
O38	O	1.444216	0.774095	0.053700
C39	C	0.909065	0.865679	0.066733
C40	C	0.776886	0.875380	0.057032
C41	C	1.298514	0.557441	0.095311
C42	C	1.298511	0.462529	0.095309
C43	C	1.298541	0.288742	0.095321
C44	C	1.298531	0.385446	0.095317
C45	C	1.687983	0.808513	0.123899
C46	C	1.820162	0.798812	0.133600
C47	C	1.298514	0.837101	0.374970
C48	C	1.298511	0.837102	0.469883
C49	C	1.298533	1.116751	0.095321
C50	C	1.298536	1.211663	0.095322
C51	C	1.298507	0.837103	0.546961
C52	C	1.298516	0.837102	0.643666
C53	C	1.298533	0.837093	0.815661
C54	C	1.298536	0.837096	0.720749
C55	C	0.909074	1.145334	0.066738
C56	C	0.776898	1.249947	0.057038
C57	C	0.909074	0.865674	-0.212922
C58	C	0.776898	0.875373	-0.317535
C59	C	0.909083	1.145329	-0.212917
C60	C	0.776911	1.249940	-0.317529
C61	C	1.687964	0.528863	0.403549
C62	C	1.820137	0.424252	0.508160
C63	C	1.687974	0.528858	0.123894
C64	C	1.820149	0.424245	0.133593
C65	C	1.687974	0.808518	0.403554
C66	C	1.820149	0.798819	0.508167
C67	C	0.714824	1.244467	0.107100
C68	C	0.590648	1.342752	0.098009
C69	C	0.528540	1.446517	0.038849
C70	C	0.590627	1.451994	-0.011214
C71	C	0.714809	1.353709	-0.002115
C72	C	0.714831	0.934535	-0.421279
C73	C	0.590655	0.943644	-0.519582
C74	C	0.528541	0.893596	-0.514138
C75	C	0.590620	0.834426	-0.410383
C76	C	0.714802	0.825312	-0.312082
C77	C	0.714841	1.353685	-0.312046
C78	C	0.590668	1.451986	-0.410330
C79	C	0.528559	1.446540	-0.514096
C80	C	0.590641	1.342784	-0.519575
C81	C	0.714820	1.244485	-0.421292
C82	C	1.882221	0.320506	0.502679
C83	C	2.006433	0.222202	0.600965
C84	C	2.068549	0.227647	0.704731
C85	C	2.006459	0.331404	0.710210
C86	C	1.882258	0.429705	0.611926
C87	C	1.882237	0.429724	0.083542
C88	C	2.006447	0.331436	0.092660
C89	C	2.068559	0.227672	0.151824
C90	C	2.006466	0.222195	0.201882
C91	C	1.882267	0.320481	0.192769
C92	C	1.882224	0.848880	0.502687
C93	C	2.006401	0.839788	0.600972
C94	C	2.068509	0.780628	0.704737
C95	C	2.006421	0.730566	0.710214
C96	C	1.882238	0.739665	0.611929
H97	H	0.540111	1.338271	0.138777
O98	O	2.189305	0.771587	0.800295
C99	C	2.333010	0.657719	0.870579
H100	H	2.295525	0.604109	0.848346
H101	H	2.393132	0.642973	0.961500
H102	H	2.426577	0.633997	0.858728
H103	H	0.765390	1.159985	0.155287
H104	H	0.540134	1.536460	-0.405849
O105	O	0.775048	1.358916	-0.050846
C106	C	0.744628	1.312871	-0.129752
H107	H	0.729204	1.253210	-0.107922
H108	H	0.854905	1.265205	-0.128306
H109	H	0.625181	1.382961	-0.216833
H110	H	0.958337	0.725838	0.206580
O111	O	0.775068	1.143656	-0.426496
C112	C	0.744657	1.091051	-0.380450
H113	H	0.729221	1.126224	-0.320794
H114	H	0.854944	0.997128	-0.332779
H115	H	0.625219	1.107262	-0.450540
O116	O	1.821668	0.315403	0.401793
C117	C	1.698759	0.424401	0.316206
H118	H	1.644427	0.487501	0.346967
H119	H	1.594293	0.431073	0.239769
H120	H	1.758168	0.442769	0.292674
H121	H	0.427424	0.901025	-0.594189
H122	H	0.540028	0.793680	-0.405968
O123	O	0.407871	1.542145	-0.609460
C124	C	0.366444	1.634874	-0.582354
H125	H	0.400678	1.611873	-0.497522
H126	H	0.226080	1.708163	-0.648984
H127	H	0.439070	1.659569	-0.578638
O128	O	0.407739	1.542074	0.029805
C129	C	0.264037	1.612354	-0.084065
H130	H	0.301529	1.590120	-0.137672
H131	H	0.203909	1.703276	-0.098815
H132	H	0.170474	1.600499	-0.107787
O133	O	2.066695	0.121369	0.595758
C134	C	2.036328	0.068744	0.641829
H135	H	2.020907	0.103911	0.701492
H136	H	2.146631	-0.025176	0.689498
H137	H	1.916896	0.084941	0.571753
H138	H	0.540053	1.338366	-0.604074
O139	O	1.822036	0.906436	0.401986
C140	C	1.903498	0.948644	0.418250
H141	H	1.954668	0.955699	0.501587
H142	H	1.810332	1.034810	0.347456
H143	H	2.011364	0.889557	0.418858
O144	O	2.066506	0.673251	0.810974
C145	C	1.933995	0.723096	0.812698
H146	H	1.828408	0.814077	0.748476
H147	H	1.981389	0.719486	0.899594
H148	H	1.885039	0.676031	0.791419
H149	H	0.765391	0.975292	-0.425732
O150	O	0.612014	0.962323	-0.030125
C151	C	0.533808	0.920734	-0.092290
H152	H	0.632294	0.833448	-0.077532
H153	H	0.437164	0.978714	-0.185103
H154	H	0.468727	0.916413	-0.064504
O155	O	2.189236	0.132258	0.800312
C156	C	2.230723	0.159302	0.893079
H157	H	2.196535	0.244122	0.870129
H158	H	2.371088	0.092641	0.966353
H159	H	2.158098	0.163008	0.917771
O160	O	2.066444	0.336778	0.810958
C161	C	1.933837	0.401437	0.812602
H162	H	1.809658	0.459851	0.723193
H163	H	1.952560	0.452990	0.861011
H164	H	1.932065	0.343758	0.854929
O165	O	0.530487	1.001213	-0.620273
C166	C	0.611962	1.043416	-0.603985
H167	H	0.663121	1.050464	-0.520644
H168	H	0.518808	1.129584	-0.674771
H169	H	0.719837	0.984330	-0.603368
O170	O	1.822248	0.530400	0.617424
C171	C	1.954790	0.532097	0.682150
H172	H	2.079022	0.442696	0.740455
H173	H	1.936101	0.580341	0.733822
H174	H	1.956426	0.574626	0.624516
O175	O	0.774837	0.767852	-0.211404
C176	C	0.693398	0.725620	-0.227692
H177	H	0.567538	0.777691	-0.316520
H178	H	0.671953	0.730141	-0.165325
H179	H	0.774845	0.634879	-0.214402
O180	O	0.774909	1.359196	-0.211353
C181	C	0.693386	1.471859	-0.227619
H182	H	0.642363	1.523161	-0.310896
H183	H	0.786468	1.477462	-0.156756
H184	H	0.585408	1.506057	-0.228358
O185	O	2.189419	0.132157	0.160866
C186	C	2.333090	0.061850	0.274739
H187	H	2.332928	0.114209	0.325059
H188	H	2.450465	0.017133	0.284445
H189	H	2.332056	-0.002643	0.306792
H190	H	1.831675	0.514206	0.035358
O191	O	0.530238	1.552744	-0.068847
C192	C	0.458336	1.569465	-0.180728
H193	H	0.514466	1.485071	-0.185548
H194	H	0.485507	1.614410	-0.212211
H195	H	0.316896	1.622436	-0.234897
O196	O	2.066662	0.121483	0.259420
C197	C	1.985203	0.137709	0.301621
H198	H	1.934034	0.221031	0.308707
H199	H	2.078371	0.066891	0.387772
H200	H	1.877337	0.138323	0.242512
H201	H	2.056982	0.335917	0.051891
H202	H	1.831718	0.316005	0.233525
H203	H	2.056939	0.880555	0.596492
H204	H	1.831711	0.698893	0.616406
