data_functionalizedCrystal
_audit_creation_method	'MofGen! by Chris Wilmer'
_symmetry_space_group_name_H-M	'P1'
_symmetry_Int_Tables_number	1
_symmetry_cell_setting	triclinic
loop_
_symmetry_equiv_pos_as_xyz
  x,y,z
_cell_length_a	19.121102
_cell_length_b	12.594516
_cell_length_c	12.594509
_cell_angle_alpha	89.972932
_cell_angle_beta	92.459896
_cell_angle_gamma	92.427312
loop_
_atom_site_label
_atom_site_type_symbol
_atom_site_fract_x
_atom_site_fract_y
_atom_site_fract_z
Zn1	Zn	1.073776	0.493236	0.671199
Zn2	Zn	1.073700	0.671241	0.493219
Zn3	Zn	0.956322	0.485677	0.485644
Zn4	Zn	0.956306	0.663567	0.663570
O5	O	1.015026	0.578430	0.578408
O6	O	1.172051	0.523224	0.653953
O7	O	1.058104	0.646674	0.343267
O8	O	0.971941	0.337737	0.510281
O9	O	1.171995	0.654004	0.523192
O10	O	1.058234	0.343290	0.646608
O11	O	0.971867	0.510341	0.337702
O12	O	0.858035	0.502899	0.502883
O13	O	0.971914	0.640924	0.813529
O14	O	0.858023	0.633594	0.633604
O15	O	1.058219	0.515783	0.819135
O16	O	1.058088	0.819167	0.515794
O17	O	0.971839	0.813528	0.640949
C18	C	0.832544	0.566595	0.566594
C19	C	0.754478	0.561557	0.561566
C20	C	1.014973	0.854968	0.578390
C21	C	1.015015	0.973276	0.578422
C22	C	1.015073	0.578340	0.856032
C23	C	1.015093	0.578302	0.974339
C24	C	0.717815	0.627338	0.627156
C25	C	0.644463	0.622591	0.622436
C26	C	0.607776	0.552066	0.552120
C27	C	0.644445	0.486277	0.486527
C28	C	0.717795	0.491020	0.491253
C29	C	0.386305	0.534331	0.534456
C30	C	0.312950	0.529595	0.529733
C31	C	0.312973	0.665908	0.665643
C32	C	0.386324	0.670649	0.670358
C33	C	0.422987	0.604857	0.604770
C34	C	0.532799	0.547214	0.547291
C35	C	0.497963	0.609704	0.609604
C36	C	1.198220	0.590313	0.590268
C37	C	1.276286	0.595377	0.595323
C38	C	1.015098	0.300814	0.578451
C39	C	1.015129	0.182511	0.578469
C40	C	0.968142	1.110267	0.646461
C41	C	1.032173	1.043502	0.676709
C42	C	0.950991	1.038470	0.548221
C43	C	1.079194	1.117306	0.608770
C44	C	0.997969	1.112278	0.480234
C45	C	1.062043	1.045547	0.510449
C46	C	1.015019	0.578446	0.301867
C47	C	1.015135	0.578193	0.183569
C48	C	0.968166	0.646327	1.040544
C49	C	1.032253	0.676482	1.115473
C50	C	0.951056	0.548085	1.110213
C51	C	1.079213	0.608511	1.047712
C52	C	0.997973	0.480066	1.042442
C53	C	1.062104	0.510187	1.117342
H54	H	0.747680	0.684771	0.684411
C55	C	1.115796	0.432419	1.162512
H56	H	1.161259	0.454017	1.141082
H57	H	1.104009	0.362906	1.136431
H58	H	1.115255	0.432377	1.237902
C59	C	0.538312	0.687278	0.686949
H60	H	0.505974	0.725778	0.725343
H61	H	0.566908	0.735446	0.647992
H62	H	0.566945	0.648462	0.735243
C63	C	1.152425	1.163718	0.643440
H64	H	1.182951	1.107403	0.657857
H65	H	1.149187	1.205460	0.705698
H66	H	1.170321	1.206914	0.588138
C67	C	0.877788	0.991834	0.513706
H68	H	0.844505	1.013923	0.562114
H69	H	0.878396	0.916456	0.513324
H70	H	0.865296	1.016363	0.444400
C71	C	1.115714	1.007280	0.432754
H72	H	1.161193	1.034504	0.454396
H73	H	1.103953	1.031899	0.363221
H74	H	1.115116	0.931817	0.432734
C75	C	1.051864	0.788649	1.158737
H76	H	1.093326	0.786488	1.202898
H77	H	1.014749	0.812924	1.198903
H78	H	1.059631	0.835739	1.101079
C79	C	1.152425	0.643056	1.010625
H80	H	1.151960	0.642903	0.935166
H81	H	1.185777	0.594986	1.037578
H82	H	1.164702	0.712592	1.036239
C83	C	0.978357	0.367933	0.999112
H84	H	0.932804	0.346602	1.020360
H85	H	1.011242	0.319363	1.026507
H86	H	0.978904	0.368661	0.923725
C87	C	1.051719	1.002635	0.788903
H88	H	1.018329	1.024708	0.837146
H89	H	1.096919	1.030748	0.810845
H90	H	1.051951	0.927227	0.787936
C91	C	0.426675	0.748220	0.747713
H92	H	0.394333	0.786711	0.786108
H93	H	0.455270	0.796395	0.708764
H94	H	0.455308	0.709402	0.796005
C95	C	0.272643	0.738263	0.737794
H96	H	0.223704	0.725334	0.724918
H97	H	0.284647	0.810536	0.722875
H98	H	0.284691	0.723539	0.810113
C99	C	0.877877	0.513614	1.147484
H100	H	0.844581	0.562060	1.121102
H101	H	0.878519	0.513192	1.222943
H102	H	0.865378	0.444331	1.121378
C103	C	0.914600	0.724162	0.995121
H104	H	0.926896	0.793898	1.020165
H105	H	0.869211	0.703419	1.017464
H106	H	0.914660	0.723202	0.919702
C107	C	0.272595	0.452008	0.452389
H108	H	0.304935	0.413495	0.414010
H109	H	0.243960	0.490812	0.404096
H110	H	0.244002	0.403837	0.491355
H111	H	0.614615	0.676158	0.675845
H112	H	0.983480	1.142543	0.397201
C113	C	0.604091	0.408705	0.409178
H114	H	0.555155	0.415309	0.415747
H115	H	0.616127	0.337986	0.425647
H116	H	0.616091	0.424982	0.338408
C117	C	0.426624	0.461980	0.462293
H118	H	0.394268	0.419314	0.419729
H119	H	0.455262	0.417498	0.504917
H120	H	0.455213	0.504503	0.417688
C121	C	0.758125	0.418659	0.419106
H122	H	0.725772	0.375982	0.376546
H123	H	0.786758	0.374186	0.461750
H124	H	0.786719	0.461168	0.374498
C125	C	0.914601	1.148810	0.724224
H126	H	0.926871	1.125295	0.793981
H127	H	0.869193	1.120685	0.703441
H128	H	0.914721	1.224241	0.723239
H129	H	0.502920	0.489795	0.490038
