data_functionalizedCrystal
_audit_creation_method	'MofGen! by Chris Wilmer'
_symmetry_space_group_name_H-M	'P1'
_symmetry_Int_Tables_number	1
_symmetry_cell_setting	triclinic
loop_
_symmetry_equiv_pos_as_xyz
  x,y,z
_cell_length_a	13.897449
_cell_length_b	16.120444
_cell_length_c	16.120256
_cell_angle_alpha	84.383140
_cell_angle_beta	87.123251
_cell_angle_gamma	92.927498
loop_
_atom_site_label
_atom_site_type_symbol
_atom_site_fract_x
_atom_site_fract_y
_atom_site_fract_z
Zn1	Zn	1.424974	-0.356749	0.489495
Zn2	Zn	1.924974	0.143251	0.989495
Zn3	Zn	1.424850	-0.489435	0.356806
Zn4	Zn	1.924850	0.010565	0.856806
Zn5	Zn	1.272283	-0.349682	0.349736
Zn6	Zn	1.772283	0.150318	0.849736
Zn7	Zn	1.255009	-0.496482	0.496526
Zn8	Zn	1.755009	0.003518	0.996526
O9	O	1.344279	-0.423087	0.423141
O10	O	1.844279	0.076913	0.923141
O11	O	1.559938	-0.374358	0.471910
O12	O	2.059938	0.125642	0.971910
O13	O	1.411789	-0.464990	0.238906
O14	O	1.911789	0.035010	0.738906
O15	O	1.299819	-0.233653	0.362374
O16	O	1.799819	0.266347	0.862374
O17	O	1.559846	-0.471842	0.374424
O18	O	2.059846	0.028158	0.874424
O19	O	1.412000	-0.238845	0.465054
O20	O	1.912000	0.261155	0.965054
O21	O	1.299699	-0.362314	0.233712
O22	O	1.799699	0.137686	0.733712
O23	O	1.135012	-0.369147	0.369192
O24	O	1.635012	0.130853	0.869192
O25	O	1.270378	-0.483853	0.612555
O26	O	1.770378	0.016147	1.112555
O27	O	1.122321	-0.477001	0.477037
O28	O	1.622321	0.022999	0.977037
O29	O	1.395250	-0.381191	0.607390
O30	O	1.895250	0.118809	1.107390
O31	O	1.395039	-0.607336	0.381241
O32	O	1.895039	-0.107336	0.881241
O33	O	1.270258	-0.612514	0.483893
O34	O	1.770258	-0.112514	0.983893
C35	C	1.093667	-0.423073	0.423111
C36	C	1.593667	0.076927	0.923111
C37	C	0.986452	-0.423088	0.423119
C38	C	1.486452	0.076912	0.923119
C39	C	0.899381	-0.423091	0.423133
C40	C	1.399381	0.076909	0.923133
C41	C	0.790147	-0.423098	0.423159
C42	C	1.290147	0.076902	0.923159
C43	C	1.330786	-0.640254	0.434115
C44	C	1.830786	-0.140254	0.934115
C45	C	1.325099	-0.733160	0.438838
C46	C	1.825099	-0.233160	0.938838
C47	C	1.374001	-0.942068	0.398820
C48	C	1.874001	-0.442068	0.898820
C49	C	1.314735	-0.903255	0.447470
C50	C	1.814735	-0.403255	0.947470
C51	C	1.320504	-0.808605	0.442666
C52	C	1.820504	-0.308605	0.942666
C53	C	1.368234	-1.036726	0.403623
C54	C	1.868234	-0.536726	0.903623
C55	C	1.595869	-0.423102	0.423171
C56	C	2.095869	0.076898	0.923171
C57	C	1.703082	-0.423108	0.423184
C58	C	2.203082	0.076892	0.923184
C59	C	1.330901	-0.434097	0.641148
C60	C	1.830901	0.065903	1.141148
C61	C	1.325200	-0.438788	0.734049
C62	C	1.825200	0.061212	1.234049
C63	C	1.357851	-0.205073	0.412141
C64	C	1.857851	0.294927	0.912141
C65	C	1.363634	-0.112169	0.407454
C66	C	1.863634	0.387831	0.907454
C67	C	1.357664	-0.412060	0.205979
C68	C	1.857664	0.087940	0.705979
C69	C	1.363566	-0.407133	0.113066
C70	C	1.863566	0.092867	0.613066
C71	C	1.374008	-0.398599	0.942976
C72	C	1.874008	0.101401	1.442976
C73	C	1.314762	-0.447319	0.904134
C74	C	1.814762	0.052681	1.404134
C75	C	1.320572	-0.442571	0.809490
C76	C	1.820572	0.057429	1.309490
C77	C	1.368199	-0.403346	1.037628
C78	C	1.868199	0.096654	1.537628
H79	H	1.259664	-0.941111	0.492729
H80	H	1.759664	-0.441111	0.992729
H81	H	1.429068	-0.904216	0.353563
H82	H	1.929068	-0.404216	0.853563
H83	H	1.259672	-0.492591	0.941960
H84	H	1.759672	0.007409	1.441960
Br85	Br	1.465801	-0.323126	0.879932
Br86	Br	1.965801	0.176874	1.379932
