data_functionalizedCrystal
_audit_creation_method	'MofGen! by Chris Wilmer'
_symmetry_space_group_name_H-M	'P1'
_symmetry_Int_Tables_number	1
_symmetry_cell_setting	triclinic
loop_
_symmetry_equiv_pos_as_xyz
  x,y,z
_cell_length_a	14.044220
_cell_length_b	10.654549
_cell_length_c	13.101039
_cell_angle_alpha	93.389233
_cell_angle_beta	86.332523
_cell_angle_gamma	88.836827
loop_
_atom_site_label
_atom_site_type_symbol
_atom_site_fract_x
_atom_site_fract_y
_atom_site_fract_z
O1	O	0.128041	1.687555	0.085194
O2	O	0.140735	1.323353	0.085201
O3	O	-0.003632	1.499987	0.085188
O4	O	0.272408	1.510922	0.085208
O5	O	0.006744	1.487315	-0.085241
O6	O	0.151110	1.310682	-0.085228
O7	O	0.138417	1.674884	-0.085235
Zn8	Zn	0.146411	1.490771	-0.112291
Zn9	Zn	0.132741	1.507466	0.112257
O10	O	0.282783	1.498250	-0.085221
C11	C	0.144990	1.270126	-0.000012
C12	C	0.142202	1.130402	-0.000010
C13	C	-0.033790	1.488865	-0.000027
C14	C	-0.139110	1.474590	-0.000028
C15	C	0.224576	0.928166	-0.000008
C16	C	0.227203	1.059451	-0.000002
C17	C	0.054568	1.070063	-0.000014
C18	C	0.051942	0.938781	-0.000013
C19	C	-0.331943	1.448492	-0.000013
C20	C	-0.388911	1.549740	-0.000012
C21	C	-0.496211	1.535219	-0.000003
C22	C	-0.224634	1.463011	-0.000021
C23	C	0.312941	1.509372	-0.000004
C24	C	0.418261	1.523648	0.000003
C25	C	0.134161	1.728111	-0.000019
C26	C	0.136949	1.867835	-0.000015
N27	N	0.155740	1.479386	-0.265538
C28	C	0.168441	1.463898	-0.474580
C29	C	0.110706	1.534345	-0.525461
C30	C	0.117773	1.525727	-0.641779
C31	C	0.161375	1.472514	-0.358251
N32	N	0.123404	1.518860	0.265504
H33	H	0.293795	0.870405	-0.000009
H34	H	-0.357103	1.647332	0.000055
Br35	Br	0.346130	1.141324	0.000016
Br36	Br	0.019880	1.646232	-0.452470
Br37	Br	-0.384964	1.285849	-0.000001
Br38	Br	-0.060793	1.166354	-0.000019
H39	H	-0.019419	0.889660	-0.000015
H40	H	0.223173	1.397119	-0.518371
