data_functionalizedCrystal
_audit_creation_method	'MofGen! by Chris Wilmer'
_symmetry_space_group_name_H-M	'P1'
_symmetry_Int_Tables_number	1
_symmetry_cell_setting	triclinic
loop_
_symmetry_equiv_pos_as_xyz
  x,y,z
_cell_length_a	6.817900
_cell_length_b	9.582860
_cell_length_c	10.992410
_cell_angle_alpha	90.912681
_cell_angle_beta	108.764651
_cell_angle_gamma	111.206767
loop_
_atom_site_label
_atom_site_type_symbol
_atom_site_fract_x
_atom_site_fract_y
_atom_site_fract_z
V1	V	-4.127214	-0.207056	-0.400358
O2	O	-4.071753	0.009950	-0.392979
O3	O	-4.117537	-0.410556	-0.397386
O4	O	-4.104607	-0.203871	-0.575074
O5	O	-4.084772	-0.198167	-0.214061
V6	V	-4.602483	-0.181099	-0.378103
O7	O	-4.406580	-0.263993	-0.449174
O8	O	-4.773314	-0.124162	-0.329287
O9	O	-4.388954	0.022402	-0.381075
O10	O	-4.775341	-0.398105	-0.385482
O11	O	-4.762322	-0.189988	-0.564400
O12	O	-4.401883	-0.184284	-0.203387
C13	C	-3.971123	-0.460166	-0.391011
C14	C	-4.044670	-0.626530	-0.389746
C15	C	-3.954628	-0.196515	-0.617667
C16	C	-4.017684	-0.195258	-0.760496
C17	C	-3.884090	-0.183800	-0.955633
C18	C	-3.818660	-0.185728	-0.807147
C19	C	-4.224941	-0.342815	-0.837433
C20	C	-4.289172	-0.341510	-0.986001
C21	C	-4.149046	-0.055786	-0.948294
C22	C	-4.078293	-0.055087	-0.799282
C23	C	-4.198710	0.072003	-0.387447
C24	C	-4.104404	0.238366	-0.388720
C25	C	-4.215204	-0.191644	-0.160788
C26	C	-4.131385	-0.192894	-0.017957
H27	H	-3.663561	-0.079628	-0.753927
N28	N	-4.425150	-0.359132	-0.799255
H29	H	-4.556397	-0.454734	-0.849896
H30	H	-4.466739	-0.268859	-0.819097
N31	N	-4.003444	0.092644	-0.975427
H32	H	-3.924555	0.072508	-1.033162
H33	H	-3.888124	0.156318	-0.890809
H34	H	-4.471978	-0.354341	-1.028618
N35	N	-3.859211	-0.314297	-1.019033
H36	H	-3.741065	-0.273832	-1.060325
H37	H	-4.007527	-0.379226	-1.087895
H38	H	-3.928203	0.054070	-0.747048
H39	H	-3.767735	-0.285609	-0.782219
H40	H	-4.280111	-0.445326	-1.032153
N41	N	-3.719958	-0.042302	-0.980736
H42	H	-3.804304	0.017282	-1.032755
H43	H	-3.636340	-0.071247	-1.031038
N44	N	-4.172985	-0.480678	-0.803365
H45	H	-4.015391	-0.447880	-0.738153
H46	H	-4.185463	-0.539422	-0.884495
N47	N	-4.266269	-0.052709	-0.756131
H48	H	-4.315043	-0.142876	-0.710641
H49	H	-4.397595	-0.057184	-0.834466
N50	N	-4.386563	-0.062875	-1.002378
H51	H	-4.482321	-0.154402	-1.071661
H52	H	-4.386332	0.031864	-1.041400
