data_functionalizedCrystal
_audit_creation_method	'MofGen! by Chris Wilmer'
_symmetry_space_group_name_H-M	'P1'
_symmetry_Int_Tables_number	1
_symmetry_cell_setting	triclinic
loop_
_symmetry_equiv_pos_as_xyz
  x,y,z
_cell_length_a	33.428889
_cell_length_b	33.428139
_cell_length_c	33.424847
_cell_angle_alpha	60.004234
_cell_angle_beta	60.008465
_cell_angle_gamma	59.994972
loop_
_atom_site_label
_atom_site_type_symbol
_atom_site_fract_x
_atom_site_fract_y
_atom_site_fract_z
O1	O	0.055565	-0.584504	0.488714
O2	O	0.020982	-0.455083	0.393778
O3	O	0.102943	-0.536959	0.393689
O4	O	-0.026396	-0.502628	0.488803
O5	O	0.130140	-0.509767	0.420792
O6	O	0.048179	-0.427891	0.420881
O7	O	0.082762	-0.557312	0.515817
Cu8	Cu	0.067954	-0.490119	0.470823
Cu9	Cu	0.035790	-0.522276	0.438771
O10	O	0.000801	-0.475436	0.515906
N11	N	0.090577	-0.467504	0.493370
N12	N	0.013171	-0.544895	0.416225
C13	C	0.143377	-0.280390	0.546067
C14	C	0.143515	-0.414755	0.680369
C15	C	0.143392	-0.414735	0.546069
C16	C	0.277766	-0.414702	0.545966
C17	C	0.158177	-0.324719	0.560828
C18	C	0.158255	-0.399967	0.636038
C19	C	0.233434	-0.399936	0.560773
C20	C	0.158186	-0.399955	0.560829
C21	C	0.124540	-0.223964	0.527278
C22	C	0.124565	-0.433545	0.527281
C23	C	0.177014	-0.381145	0.579617
C24	C	0.359814	-0.400540	0.502735
C25	C	0.411105	-0.417624	0.485606
C26	C	0.411136	-0.500620	0.517255
C27	C	0.359845	-0.483534	0.534385
C28	C	0.136887	-0.198305	0.476855
C29	C	0.119761	-0.147011	0.459777
C30	C	0.077945	-0.147038	0.543547
C31	C	0.095072	-0.198332	0.560625
C32	C	0.074134	-0.421169	0.539710
C33	C	0.057023	-0.438269	0.522625
C34	C	0.140770	-0.480120	0.480694
C35	C	0.157883	-0.463020	0.497773
C36	C	0.074339	-0.421208	0.762475
C37	C	0.057288	-0.438323	0.813768
C38	C	0.141075	-0.480183	0.813699
C39	C	0.158125	-0.463069	0.762404
C40	C	0.124756	-0.433580	0.736794
C41	C	0.334186	-0.433494	0.527123
C42	C	-0.173769	-0.597444	0.363037
C43	C	-0.039302	-0.597595	0.228856
C44	C	-0.039496	-0.597587	0.363300
C45	C	-0.039512	-0.731889	0.363237
C46	C	-0.129442	-0.612265	0.348329
C47	C	-0.054138	-0.612351	0.273187
C48	C	-0.054257	-0.687554	0.348440
C49	C	-0.054247	-0.612346	0.348477
C50	C	-0.230191	-0.578579	0.381758
C51	C	-0.020722	-0.578803	0.382168
C52	C	-0.073020	-0.631130	0.329609
C53	C	-0.053713	-0.813916	0.406386
C54	C	-0.036654	-0.865210	0.423504
C55	C	0.046338	-0.865293	0.391984
C56	C	0.029278	-0.813999	0.374865
C57	C	-0.255900	-0.590938	0.432169
C58	C	-0.307191	-0.573786	0.449185
C59	C	-0.307060	-0.531922	0.365377
C60	C	-0.255769	-0.549074	0.348360
C61	C	-0.033081	-0.528377	0.369764
C62	C	-0.016014	-0.511306	0.386922
C63	C	0.025770	-0.595083	0.428877
C64	C	0.008703	-0.612156	0.411725
C65	C	-0.032755	-0.528393	0.146761
C66	C	-0.015585	-0.511324	0.095468
C67	C	0.026262	-0.595106	0.095516
C68	C	0.009094	-0.612174	0.146811
C69	C	-0.020417	-0.578816	0.172432
C70	C	-0.020748	-0.788312	0.382068
N71	N	0.436037	-0.467415	0.493101
O72	O	0.592642	-0.471896	0.376066
O73	O	0.592838	-0.567146	0.505347
O74	O	0.592754	-0.566928	0.423360
O75	O	0.592727	-0.472113	0.458053
O76	O	0.511269	-0.539835	0.450606
O77	O	0.511353	-0.540052	0.532594
O78	O	0.511157	-0.444802	0.403312
Cu79	Cu	0.503815	-0.489954	0.470441
Cu80	Cu	0.600180	-0.521995	0.438219
O81	O	0.511242	-0.445020	0.485300
N82	N	0.667959	-0.544533	0.415554
N83	N	0.090544	-0.122107	0.493359
O84	O	-0.026406	0.034587	0.488773
O85	O	0.102877	0.034627	0.393499
O86	O	0.020848	0.034591	0.393771
O87	O	0.055623	0.034623	0.488500
O88	O	0.048051	-0.046899	0.420925
O89	O	0.130080	-0.046864	0.420653
O90	O	0.000796	-0.046903	0.515927
Cu91	Cu	0.067922	-0.054324	0.470769
Cu92	Cu	0.035752	0.042048	0.438656
O93	O	0.082825	-0.046867	0.515655
N94	N	0.013123	0.109830	0.416068
N95	N	0.090892	-0.467554	0.838649
O96	O	0.086330	-0.584488	0.995334
O97	O	-0.008902	-0.455160	0.995379
O98	O	-0.008679	-0.537172	0.995355
O99	O	0.086107	-0.502475	0.995358
O100	O	0.018452	-0.509990	0.913868
O101	O	0.018230	-0.427978	0.913891
O102	O	0.113461	-0.557306	0.913847
Cu103	Cu	0.068323	-0.490160	0.906429
Cu104	Cu	0.036237	-0.522306	1.002797
O105	O	0.113239	-0.475293	0.913870
N106	N	0.013667	-0.544916	1.070577
C107	C	0.031339	-0.425179	0.394250
C108	C	0.132837	-0.526572	0.394139
C109	C	0.072405	-0.587216	0.515344
C110	C	-0.029093	-0.485823	0.515455
C111	C	0.552119	-0.566716	0.535258
C112	C	0.552016	-0.566447	0.433726
C113	C	0.551873	-0.445232	0.373402
C114	C	0.551980	-0.445502	0.474933
C115	C	0.132731	-0.006013	0.393923
C116	C	0.031182	-0.006158	0.394293
C117	C	-0.029092	-0.006163	0.515469
C118	C	0.072491	-0.006119	0.515133
C119	C	-0.008451	-0.425276	0.954641
C120	C	-0.008170	-0.526833	0.954596
C121	C	0.113010	-0.587190	0.954585
C122	C	0.112735	-0.485627	0.954611
H123	H	0.016234	-0.428240	0.834672
H124	H	0.552170	-0.596617	0.572390
H125	H	0.142514	-0.478200	0.954606
H126	H	0.079796	-0.624394	0.545162
H127	H	0.169783	-0.005775	0.363939
H128	H	0.552029	-0.596233	0.426301
H129	H	0.023733	-0.006162	0.364531
C130	C	-0.079275	-0.475948	0.555804
H131	H	-0.079349	-0.504318	0.584274
H132	H	-0.085236	-0.449237	0.563469
H133	H	-0.104201	-0.468206	0.544563
H134	H	0.551811	-0.415327	0.336274
C135	C	0.551965	-0.405263	0.484958
H136	H	0.552003	-0.417240	0.517394
H137	H	0.580354	-0.396310	0.462334
H138	H	0.523519	-0.377414	0.481340
C139	C	-0.079246	-0.006177	0.555877
H140	H	-0.079269	-0.006176	0.584311
H141	H	-0.104191	0.022232	0.544658
H142	H	-0.085215	-0.034607	0.563597
C143	C	-0.048842	-0.375102	0.954660
H144	H	-0.037010	-0.354515	0.954668
H145	H	-0.057757	-0.360438	0.926248
H146	H	-0.076677	-0.379399	0.983084
C147	C	0.037631	-0.388770	0.734307
H148	H	0.005162	-0.383856	0.756950
H149	H	0.042538	-0.358020	0.714298
H150	H	0.042541	-0.404431	0.714301
C151	C	0.082550	-0.006111	0.555340
H152	H	0.114994	-0.006102	0.543349
H153	H	0.059947	0.022303	0.564270
H154	H	0.078922	-0.034536	0.583205
H155	H	0.087072	-0.886205	0.386121
H156	H	-0.037935	-0.534246	0.954563
H157	H	0.142910	-0.624330	0.954565
H158	H	0.169984	-0.533889	0.364272
H159	H	0.168250	-0.504186	0.834549
H160	H	0.047002	-0.397168	0.563734
C161	C	0.213586	-0.476678	0.734158
H162	H	0.231015	-0.496685	0.756759
H163	H	0.221985	-0.494076	0.714146
H164	H	0.221973	-0.447664	0.714150
H165	H	0.015959	-0.428182	0.532734
C166	C	0.331589	-0.345495	0.494749
H167	H	0.354201	-0.328318	0.477775
H168	H	0.311558	-0.333465	0.475974
H169	H	0.311602	-0.340744	0.525575
C170	C	0.177421	-0.512578	0.448270
H171	H	0.160007	-0.521002	0.439888
H172	H	0.197427	-0.495193	0.419253
H173	H	0.197433	-0.541577	0.465682
C174	C	0.213356	-0.476629	0.484101
H175	H	0.230747	-0.496635	0.464083
H176	H	0.221747	-0.447619	0.466698
H177	H	0.221798	-0.494040	0.513091
H178	H	0.432025	-0.541365	0.523165
C179	C	0.331656	-0.519785	0.561215
H180	H	0.297434	-0.502446	0.570382
H181	H	0.340047	-0.535999	0.540113
H182	H	0.340093	-0.543272	0.589710
C183	C	0.439301	-0.381377	0.458775
H184	H	0.473522	-0.398722	0.449616
H185	H	0.430866	-0.357890	0.430282
H186	H	0.430914	-0.365164	0.479879
C187	C	0.169298	-0.226497	0.440173
H188	H	0.174192	-0.203867	0.407695
H189	H	0.200056	-0.246499	0.445073
H190	H	0.153636	-0.246513	0.445115
H191	H	0.129813	-0.126117	0.418717
C192	C	0.045534	-0.118840	0.580226
H193	H	0.037103	-0.084616	0.562833
H194	H	0.016544	-0.127261	0.600257
H195	H	0.062963	-0.127243	0.600213
C196	C	0.081491	-0.226557	0.616090
H197	H	0.095907	-0.260777	0.621487
H198	H	0.093299	-0.218149	0.630485
H199	H	0.046885	-0.218162	0.630515
C200	C	-0.029168	-0.455858	0.067234
H201	H	-0.014714	-0.450466	0.033016
H202	H	-0.063770	-0.441423	0.075586
H203	H	-0.017388	-0.441465	0.075677
C204	C	-0.065219	-0.491699	0.174942
H205	H	-0.073681	-0.509084	0.209167
H206	H	-0.047814	-0.471711	0.166572
H207	H	-0.094195	-0.471669	0.166479
C208	C	0.058714	-0.631798	0.067333
H209	H	0.067170	-0.614411	0.033108
H210	H	0.087688	-0.651835	0.075795
H211	H	0.041300	-0.651779	0.075702
C212	C	0.022665	-0.667642	0.175048
H213	H	0.008218	-0.673031	0.209265
H214	H	0.010884	-0.682030	0.166605
H215	H	0.057269	-0.682081	0.166697
C216	C	-0.065453	-0.491689	0.337260
H217	H	-0.070375	-0.459212	0.332337
H218	H	-0.049757	-0.496630	0.306519
H219	H	-0.096206	-0.496585	0.352877
C220	C	-0.029973	-0.455841	0.373647
H221	H	-0.050047	-0.438421	0.353693
H222	H	-0.047440	-0.447742	0.402833
H223	H	-0.001147	-0.447140	0.356325
H224	H	0.049734	-0.622248	0.452940
C225	C	-0.335473	-0.587380	0.504638
H226	H	-0.312893	-0.607413	0.522090
H227	H	-0.355480	-0.558366	0.513030
H228	H	-0.355489	-0.604757	0.513006
H229	H	0.018765	-0.653217	0.421828
H230	H	0.056124	-0.793157	0.355062
H231	H	-0.063498	-0.886058	0.443304
H232	H	-0.094449	-0.793002	0.412253
H233	H	-0.327887	-0.507903	0.338181
C234	C	-0.227766	-0.623390	0.468906
H235	H	-0.250425	-0.628287	0.501367
H236	H	-0.207765	-0.654146	0.464002
H237	H	-0.207757	-0.607750	0.464017
H238	H	0.023949	-0.388000	0.364433
C239	C	-0.227492	-0.535480	0.292909
H240	H	-0.250074	-0.515453	0.275458
H241	H	-0.207476	-0.518106	0.284539
H242	H	-0.207487	-0.564497	0.284517
