data_functionalizedCrystal
_audit_creation_method	'MofGen! by Chris Wilmer'
_symmetry_space_group_name_H-M	'P1'
_symmetry_Int_Tables_number	1
_symmetry_cell_setting	triclinic
loop_
_symmetry_equiv_pos_as_xyz
  x,y,z
_cell_length_a	15.299816
_cell_length_b	15.298563
_cell_length_c	15.296720
_cell_angle_alpha	107.324882
_cell_angle_beta	69.242954
_cell_angle_gamma	91.574804
loop_
_atom_site_label
_atom_site_type_symbol
_atom_site_fract_x
_atom_site_fract_y
_atom_site_fract_z
Zn1	Zn	-0.177043	-1.356712	0.306392
Zn2	Zn	-0.296335	-1.401118	0.168538
Zn3	Zn	-0.177098	-1.228137	0.177775
Zn4	Zn	-0.359405	-1.228062	0.360160
O5	O	-0.252470	-1.303507	0.253216
O6	O	-0.166449	-1.488836	0.261737
O7	O	-0.254146	-1.396787	0.035743
O8	O	-0.050871	-1.226639	0.176200
O9	O	-0.254092	-1.521461	0.160457
O10	O	-0.050830	-1.321103	0.270694
O11	O	-0.166543	-1.269698	0.042529
O12	O	-0.227700	-1.101893	0.228337
O13	O	-0.361586	-1.226512	0.487048
O14	O	-0.361640	-1.101838	0.362334
O15	O	-0.227605	-1.321030	0.447545
O16	O	-0.430921	-1.396715	0.212594
O17	O	-0.477259	-1.269572	0.353378
C18	C	-0.301521	-1.069135	0.302173
C19	C	-0.322531	-0.968869	0.323143
C20	C	-0.102545	-0.686143	0.103549
C21	C	-0.082800	-0.780346	0.083847
C22	C	-0.142731	-0.827482	0.143669
C23	C	-0.222411	-0.780404	0.223197
C24	C	-0.242154	-0.686190	0.242905
C25	C	-0.282340	-0.827529	0.283025
C26	C	-0.362019	-0.780451	0.362553
C27	C	-0.381759	-0.686247	0.382258
C28	C	-0.321828	-0.639111	0.322436
C29	C	-0.262597	-0.921743	0.263317
C30	C	-0.402205	-0.921790	0.402674
C31	C	-0.421951	-0.827587	0.422375
C32	C	-0.486817	-1.337976	0.287834
C33	C	-0.587060	-1.352799	0.302658
C34	C	-0.869938	-1.198105	0.147466
C35	C	-0.775756	-1.184173	0.133541
C36	C	-0.728577	-1.226328	0.175819
C37	C	-0.775590	-1.282419	0.232025
C38	C	-0.869784	-1.296347	0.245957
C39	C	-0.728423	-1.324570	0.274310
C40	C	-0.775436	-1.380660	0.330516
C41	C	-0.869620	-1.394586	0.344445
C42	C	-0.916799	-1.352431	0.302168
C43	C	-0.634229	-1.310642	0.260377
C44	C	-0.634075	-1.408883	0.358869
C45	C	-0.728257	-1.422816	0.372793
C46	C	-0.017208	-1.268926	0.218479
C47	C	0.083047	-1.254189	0.203677
C48	C	-0.301625	-1.268810	0.503018
C49	C	-0.322572	-1.254024	0.609469
C50	C	-0.203222	-0.538796	0.204057
C51	C	-0.182219	-0.639064	0.183079
C52	C	-0.203431	-1.338112	0.004366
C53	C	-0.182194	-1.353035	-0.102158
C54	C	-0.102595	-1.409195	0.827266
C55	C	-0.082915	-1.423093	0.727249
C56	C	-0.142827	-1.380827	0.697799
C57	C	-0.222424	-1.324660	0.768376
C58	C	-0.242110	-1.310767	0.868402
C59	C	-0.282342	-1.282398	0.738935
C60	C	-0.361938	-1.226232	0.809512
C61	C	-0.381620	-1.212340	0.909527
C62	C	-0.321708	-1.254607	0.938978
C63	C	-0.262655	-1.296292	0.638909
C64	C	-0.402170	-1.197864	0.680045
C65	C	-0.421850	-1.183965	0.780061
H66	H	-0.126649	-0.904186	0.127623
F67	F	-0.342836	-0.538846	0.343404
F68	F	-0.466344	-1.152577	0.984638
H69	H	-0.908361	-1.163783	0.113055
F70	F	-0.465988	-0.971949	0.466351
F71	F	-0.038765	-0.635970	0.039899
H72	H	-0.766549	-1.468485	0.418557
H73	H	-0.446635	-0.647917	0.447021
H74	H	-0.486826	-0.789243	0.487129
F75	F	-0.628444	-1.211213	0.161313
F76	F	-0.038848	-1.454179	0.858616
H77	H	-0.595664	-1.443208	0.393297
H78	H	-0.595960	-1.264972	0.214615
H79	H	-0.017927	-0.818671	0.019092
H80	H	-0.486658	-1.138234	0.837539
F81	F	-0.725731	-1.124471	0.073736
F82	F	-1.016977	-1.367427	0.316796
F83	F	-0.919659	-1.454266	0.404284
F84	F	-0.177946	-1.356067	0.563807
F85	F	-0.121879	-1.395618	0.591351
H86	H	-0.018110	-1.468827	0.669792
F87	F	-0.177799	-0.971836	0.178680
H88	H	-0.337727	-1.243294	1.020418
H89	H	-0.450956	-1.163448	0.656068
