data_functionalizedCrystal
_audit_creation_method	'MofGen! by Chris Wilmer'
_symmetry_space_group_name_H-M	'P1'
_symmetry_Int_Tables_number	1
_symmetry_cell_setting	triclinic
loop_
_symmetry_equiv_pos_as_xyz
  x,y,z
_cell_length_a	11.169417
_cell_length_b	29.839131
_cell_length_c	11.169409
_cell_angle_alpha	89.959881
_cell_angle_beta	89.980176
_cell_angle_gamma	90.042299
loop_
_atom_site_label
_atom_site_type_symbol
_atom_site_fract_x
_atom_site_fract_y
_atom_site_fract_z
Zn1	Zn	1.834703	-0.178806	-0.678478
Zn2	Zn	1.834484	-0.253948	-0.477767
Zn3	Zn	1.633989	-0.178834	-0.477812
Zn4	Zn	1.633888	-0.253911	-0.678412
O5	O	1.734266	-0.216375	-0.578117
O6	O	2.002624	-0.188778	-0.651862
O7	O	1.807838	-0.244011	-0.309823
O8	O	1.660748	-0.115963	-0.504477
O9	O	2.002462	-0.243984	-0.504401
O10	O	1.808212	-0.115943	-0.651905
O11	O	1.660536	-0.188825	-0.309856
O12	O	1.466026	-0.188789	-0.504413
O13	O	1.660576	-0.243922	-0.846371
O14	O	1.465951	-0.243948	-0.651794
O15	O	1.808114	-0.188742	-0.846419
O16	O	1.807740	-0.316810	-0.504337
O17	O	1.660363	-0.316783	-0.651750
C18	C	1.422441	-0.216368	-0.578102
C19	C	1.289041	-0.216376	-0.578124
C20	C	1.734049	-0.333097	-0.578058
C21	C	1.734066	-0.383032	-0.578073
C22	C	1.811145	-0.692677	-0.501472
C23	C	1.811293	-0.880350	-0.501518
O24	O	1.876656	-0.904616	-0.436344
N25	N	1.734515	-0.903817	-0.578208
C26	C	1.657700	-0.880363	-0.654897
O27	O	1.592407	-0.904630	-0.720136
C28	C	1.657559	-0.692691	-0.654856
C29	C	1.734333	-0.669226	-0.578152
C30	C	1.887914	-0.669212	-0.424776
C31	C	1.887871	-0.622296	-0.424760
C32	C	1.811060	-0.598846	-0.501441
C33	C	1.734291	-0.622311	-0.578137
C34	C	1.580751	-0.669238	-0.731550
C35	C	1.580724	-0.622317	-0.731535
C36	C	1.657499	-0.598852	-0.654831
C37	C	1.657437	-0.551945	-0.654802
N38	N	1.734215	-0.528477	-0.578112
C39	C	1.811026	-0.551928	-0.501432
C40	C	1.657778	-0.978894	-0.654912
C41	C	1.657811	-1.025811	-0.654921
C42	C	1.811406	-1.025795	-0.501543
C43	C	1.811366	-0.978876	-0.501529
C44	C	1.734556	-0.955426	-0.578222
C45	C	1.810931	-0.453402	-0.501404
C46	C	1.810878	-0.406482	-0.501392
C47	C	1.657288	-0.406503	-0.654773
C48	C	1.657336	-0.453419	-0.654782
C49	C	1.734167	-0.476867	-0.578093
O50	O	1.592118	-0.527650	-0.719952
O51	O	1.876328	-0.527653	-0.436221
C52	C	1.811187	-0.739592	-0.501487
C53	C	1.734418	-0.763057	-0.578183
C54	C	1.657606	-0.739606	-0.654864
C55	C	1.734451	-0.809975	-0.578192
C56	C	1.811263	-0.833425	-0.501512
C57	C	1.888041	-0.809958	-0.424822
C58	C	1.887999	-0.763043	-0.424807
C59	C	1.580828	-0.763074	-0.731553
C60	C	1.580876	-0.809989	-0.731562
C61	C	1.657688	-0.833440	-0.654881
C62	C	2.047308	-0.216382	-0.578134
C63	C	2.180708	-0.216385	-0.578140
C64	C	1.734358	-0.216325	-0.891160
C65	C	1.734397	-0.216304	-1.024560
C66	C	1.734516	-0.099196	-0.578203
C67	C	1.734623	-0.049262	-0.578240
C68	C	1.734243	-0.216392	-0.266293
C69	C	1.734436	-0.216287	-0.132893
H70	H	1.873397	-0.387379	-0.438927
C71	C	1.428919	-0.627050	-0.883160
C72	C	1.496290	-0.596542	-0.815841
H73	H	1.376791	-0.611137	-0.935201
H74	H	1.481209	-0.645314	-0.929108
H75	H	1.383052	-0.645384	-0.830823
H76	H	1.542164	-0.578210	-0.868178
H77	H	1.443994	-0.578270	-0.769890
C78	C	1.419333	-0.722051	-0.748150
C79	C	1.496367	-0.695023	-0.815875
H80	H	1.367234	-0.737967	-0.800216
H81	H	1.465072	-0.742736	-0.702496
H82	H	1.373434	-0.703779	-0.695819
H83	H	1.542272	-0.713296	-0.868200
H84	H	1.450623	-0.674337	-0.861549
H85	H	1.873496	-0.472488	-0.438960
H86	H	1.594745	-0.387402	-0.717202
C87	C	1.512725	-0.881914	-0.799718
C88	C	1.496478	-0.835779	-0.815883
H89	H	1.460624	-0.897833	-0.851775
H90	H	1.593354	-0.889563	-0.817351
H91	H	1.495195	-0.889634	-0.719068
H92	H	1.514017	-0.828058	-0.896531
H93	H	1.415831	-0.828127	-0.798259
H94	H	1.594823	-0.472525	-0.717243
H95	H	1.873882	-0.959774	-0.439071
C96	C	2.039825	-0.767753	-0.273212
C97	C	1.972402	-0.737254	-0.340500
H98	H	2.091940	-0.751834	-0.221169
H99	H	1.987568	-0.786085	-0.227268
H100	H	2.085709	-0.786021	-0.325568
H101	H	1.926511	-0.718989	-0.288144
H102	H	2.024666	-0.718915	-0.386447
C103	C	1.956343	-0.881876	-0.356813
C104	C	1.972514	-0.835741	-0.340572
H105	H	2.008510	-0.897794	-0.304822
H106	H	1.875740	-0.889605	-0.339141
H107	H	1.973833	-0.889519	-0.437490
H108	H	1.955015	-0.828098	-0.259897
H109	H	2.053135	-0.828010	-0.358236
C110	C	2.039710	-0.627007	-0.273178
C111	C	1.972283	-0.596508	-0.340462
H112	H	2.091834	-0.611088	-0.221143
H113	H	1.987456	-0.645337	-0.227226
H114	H	2.085586	-0.645276	-0.325537
H115	H	1.926401	-0.578241	-0.288103
H116	H	2.024544	-0.578170	-0.386418
H117	H	1.950470	-0.688300	-0.362333
C118	C	1.879778	-1.097713	-0.433601
C119	C	1.895931	-1.051578	-0.417345
H120	H	1.931992	-1.113630	-0.381657
H121	H	1.799193	-1.105450	-0.415876
H122	H	1.897214	-1.105347	-0.514295
H123	H	1.878486	-1.043943	-0.336652
H124	H	1.976534	-1.043837	-0.435062
C125	C	1.505996	-1.021104	-0.806531
C126	C	1.573411	-1.051601	-0.739228
H127	H	1.453899	-1.037025	-0.858589
H128	H	1.460104	-1.002839	-0.754194
H129	H	1.558268	-1.002769	-0.852470
H130	H	1.521139	-1.069933	-0.693282
H131	H	1.619307	-1.069873	-0.791572
H132	H	1.518280	-0.743984	-0.793998
H133	H	1.595227	-0.959804	-0.717366
