data_functionalizedCrystal
_audit_creation_method	'MofGen! by Chris Wilmer'
_symmetry_space_group_name_H-M	'P1'
_symmetry_Int_Tables_number	1
_symmetry_cell_setting	triclinic
loop_
_symmetry_equiv_pos_as_xyz
  x,y,z
_cell_length_a	8.497374
_cell_length_b	12.759401
_cell_length_c	12.759399
_cell_angle_alpha	89.983359
_cell_angle_beta	89.991562
_cell_angle_gamma	90.001753
loop_
_atom_site_label
_atom_site_type_symbol
_atom_site_fract_x
_atom_site_fract_y
_atom_site_fract_z
Zn1	Zn	0.891958	1.606064	0.418406
Zn2	Zn	0.628160	1.606013	0.594052
Zn3	Zn	0.628185	1.430422	0.418393
Zn4	Zn	0.891892	1.430354	0.594048
O5	O	0.760048	1.518213	0.506225
O6	O	0.856982	1.753079	0.441713
O7	O	0.407401	1.582728	0.570747
O8	O	0.663213	1.453771	0.271373
O9	O	0.663171	1.753041	0.570760
O10	O	0.857005	1.582815	0.271383
O11	O	0.407419	1.453722	0.441691
O12	O	0.663149	1.283392	0.441686
O13	O	1.112663	1.453655	0.570752
O14	O	0.856893	1.283342	0.570739
O15	O	1.112711	1.582749	0.441709
O16	O	0.663107	1.582661	0.741073
O17	O	0.856869	1.453605	0.741069
C18	C	0.760017	1.245246	0.506212
C19	C	0.760041	1.128469	0.506232
C20	C	0.860765	1.073609	0.573532
C21	C	0.860796	0.963885	0.573536
C22	C	0.659366	0.963891	0.438937
C23	C	0.659344	1.073613	0.438928
C24	C	0.760013	1.518149	0.779192
C25	C	0.760050	1.518217	0.895969
C26	C	1.171529	1.518205	0.506226
C27	C	1.350173	1.518208	0.506237
C28	C	0.760081	1.792246	0.506238
C29	C	0.760095	1.909023	0.506244
C30	C	0.760119	1.518307	0.232191
C31	C	0.760149	1.518346	0.115415
C32	C	0.659273	1.585494	0.950797
C33	C	0.659326	1.585561	1.060521
C34	C	0.860938	1.451067	1.060578
C35	C	0.860891	1.451006	0.950856
H36	H	0.942763	1.118269	0.628332
C37	C	0.971588	0.903537	0.647571
C38	C	1.095589	0.828134	0.602187
C39	C	1.206387	0.767786	0.676225
C40	C	1.193184	0.782841	0.795646
C41	C	1.069178	0.858247	0.841035
C42	C	0.958380	0.918595	0.766998
H43	H	1.105367	0.816987	0.513779
H44	H	1.298184	0.711966	0.642624
H45	H	1.275203	0.738168	0.850453
H46	H	1.059400	0.869395	0.929443
H47	H	0.866583	0.974416	0.800599
C48	C	0.548598	0.903552	0.364906
C49	C	0.369231	0.918622	0.373278
C50	C	0.258458	0.858287	0.299244
C51	C	0.327053	0.782883	0.216839
C52	C	0.506429	0.767809	0.208463
C53	C	0.617201	0.828144	0.282497
H54	H	0.318445	0.974444	0.434282
H55	H	0.125672	0.869446	0.305445
H56	H	0.245052	0.738219	0.162034
H57	H	0.557215	0.711987	0.147459
H58	H	0.749988	0.816985	0.276297
H59	H	0.943037	1.396344	1.105281
C60	C	0.548532	1.133966	0.364896
C61	C	0.561713	1.118908	0.245474
C62	C	0.450909	1.179260	0.171444
C63	C	0.326925	1.254670	0.216836
C64	C	0.313739	1.269731	0.336264
C65	C	0.424543	1.209379	0.410294
H66	H	0.653498	1.063082	0.211867
H67	H	0.460670	1.168110	0.083036
H68	H	0.244901	1.299346	0.162034
H69	H	0.221954	1.325557	0.369871
H70	H	0.414781	1.220529	0.498702
C71	C	0.971752	1.376997	0.890534
C72	C	1.095632	1.422418	0.815031
C73	C	1.206492	1.348417	0.754708
C74	C	1.193472	1.228995	0.769889
C75	C	1.069587	1.183568	0.845395
C76	C	0.958727	1.257569	0.905718
H77	H	1.105275	1.510827	0.803791
H78	H	1.298200	1.382046	0.698813
H79	H	1.275537	1.174215	0.725234
H80	H	1.059944	1.095159	0.856636
H81	H	0.867019	1.223940	0.961613
H82	H	0.577164	1.640223	0.906111
H83	H	0.577265	1.640346	1.105158
