data_functionalizedCrystal
_audit_creation_method	'MofGen! by Chris Wilmer'
_symmetry_space_group_name_H-M	'P1'
_symmetry_Int_Tables_number	1
_symmetry_cell_setting	triclinic
loop_
_symmetry_equiv_pos_as_xyz
  x,y,z
_cell_length_a	6.817900
_cell_length_b	17.253917
_cell_length_c	17.078481
_cell_angle_alpha	99.951811
_cell_angle_beta	99.306161
_cell_angle_gamma	102.659311
loop_
_atom_site_label
_atom_site_type_symbol
_atom_site_fract_x
_atom_site_fract_y
_atom_site_fract_z
V1	V	-3.979160	-0.111101	-0.254878
O2	O	-3.968069	0.005532	-0.242279
O3	O	-3.930531	-0.220480	-0.260587
O4	O	-3.910213	-0.109307	-0.362640
O5	O	-3.988528	-0.106410	-0.139519
V6	V	-4.465480	-0.097160	-0.240175
O7	O	-4.234283	-0.141680	-0.287131
O8	O	-4.660554	-0.066580	-0.207923
O9	O	-4.290902	0.012219	-0.234467
O10	O	-4.593967	-0.213793	-0.252775
O11	O	-4.573508	-0.101850	-0.355535
O12	O	-4.311220	-0.098954	-0.132414
C13	C	-3.776141	-0.247147	-0.258489
C14	C	-3.817531	-0.336565	-0.263875
C15	C	-3.810620	-0.367142	-0.192979
C16	C	-3.849529	-0.451160	-0.198042
C17	C	-3.895337	-0.504600	-0.274002
C18	C	-3.902254	-0.474019	-0.344903
C19	C	-3.863359	-0.390002	-0.339839
C20	C	-4.014503	-0.757102	-0.297020
C21	C	-4.053393	-0.841124	-0.302078
C22	C	-4.000669	-0.818260	-0.155217
C23	C	-3.961764	-0.734242	-0.150159
C24	C	-3.968695	-0.703668	-0.221061
N25	N	-3.935103	-0.590481	-0.279179
N26	N	-3.928943	-0.617789	-0.215883
C27	C	-3.750223	-0.105334	-0.388667
C28	C	-3.775133	-0.104591	-0.476811
C29	C	-3.968160	-0.108257	-0.522535
C30	C	-3.991554	-0.107559	-0.605356
C31	C	-3.821922	-0.103200	-0.642453
C32	C	-3.628878	-0.099531	-0.596722
C33	C	-3.605484	-0.100223	-0.513902
C34	C	-3.872443	-0.100692	-0.889686
C35	C	-3.895854	-0.100002	-0.972514
C36	C	-4.258528	-0.108029	-0.981141
C37	C	-4.235119	-0.108726	-0.898320
C38	C	-4.042077	-0.105053	-0.852596
N39	N	-3.845831	-0.102488	-0.727109
N40	N	-4.018167	-0.105758	-0.767939
C41	C	-4.108634	0.038882	-0.236563
C42	C	-4.046481	0.128299	-0.231182
C43	C	-4.134553	-0.102930	-0.106383
C44	C	-4.088881	-0.103668	-0.018237
H45	H	-3.995034	-0.843163	-0.097493
H46	H	-4.020123	-0.732218	-0.354753
C47	C	-3.393142	-0.096193	-0.463606
N48	N	-3.233199	-0.093156	-0.425724
C49	C	-3.952623	-0.532805	-0.428459
N50	N	-3.990545	-0.577083	-0.491395
C51	C	-3.760231	-0.308364	-0.109416
N52	N	-3.722288	-0.264095	-0.046475
C53	C	-4.203892	-0.111583	-0.655647
N54	N	-4.363832	-0.114609	-0.693524
C55	C	-3.841913	-0.484790	-0.120050
N56	N	-3.836173	-0.510119	-0.061303
C57	C	-3.911361	-0.675463	-0.066597
N58	N	-3.873385	-0.631190	-0.003657
C59	C	-3.870956	-0.356368	-0.417831
N60	N	-3.876684	-0.331037	-0.476576
C61	C	-4.103797	-0.899908	-0.385644
N62	N	-4.141762	-0.944184	-0.448582
H63	H	-4.106300	-0.111812	-0.492339
H64	H	-4.373255	-0.112275	-0.868121
H65	H	-4.415697	-0.111018	-1.018378
H66	H	-3.757707	-0.096450	-1.002714
H67	H	-3.715274	-0.097730	-0.852474
H68	H	-3.490760	-0.095977	-0.626932
