data_functionalizedCrystal
_audit_creation_method	'MofGen! by Chris Wilmer'
_symmetry_space_group_name_H-M	'P1'
_symmetry_Int_Tables_number	1
_symmetry_cell_setting	triclinic
loop_
_symmetry_equiv_pos_as_xyz
  x,y,z
_cell_length_a	6.817900
_cell_length_b	11.102289
_cell_length_c	14.125465
_cell_angle_alpha	94.634960
_cell_angle_beta	100.398878
_cell_angle_gamma	108.605707
loop_
_atom_site_label
_atom_site_type_symbol
_atom_site_fract_x
_atom_site_fract_y
_atom_site_fract_z
V1	V	-4.017267	-0.174747	-0.299976
O2	O	-3.978094	0.009521	-0.294266
O3	O	-3.994689	-0.347575	-0.297924
O4	O	-3.952937	-0.171566	-0.430806
O5	O	-4.020135	-0.167706	-0.160464
V6	V	-4.499614	-0.152765	-0.283289
O7	O	-4.281107	-0.222967	-0.336580
O8	O	-4.685971	-0.104545	-0.246686
O9	O	-4.298985	0.020063	-0.285341
O10	O	-4.656184	-0.337033	-0.289000
O11	O	-4.614143	-0.159806	-0.422801
O12	O	-4.340737	-0.155946	-0.152459
C13	C	-3.846487	-0.389722	-0.293192
C14	C	-3.909207	-0.531008	-0.292387
C15	C	-3.793227	-0.165204	-0.462695
C16	C	-3.822084	-0.163747	-0.569649
C17	C	-4.121172	-0.603840	-0.296808
C18	C	-4.180096	-0.736594	-0.296059
C19	C	-3.815066	-0.723671	-0.286464
C20	C	-3.756148	-0.590921	-0.287220
C21	C	-4.274231	-0.543927	-0.301975
C22	C	-4.486211	-0.616760	-0.306395
C23	C	-4.545134	-0.749514	-0.305646
C24	C	-4.392078	-0.809436	-0.300478
C25	C	-3.874978	-0.161075	-0.765472
C26	C	-4.061271	-0.166435	-0.817793
C27	C	-4.090704	-0.164948	-0.926756
C28	C	-3.845537	-0.162561	-0.656500
C29	C	-4.110531	0.062203	-0.290071
C30	C	-4.027048	0.203488	-0.290883
C31	C	-4.163791	-0.162312	-0.120566
C32	C	-4.114171	-0.163763	-0.013611
H33	H	-4.226272	-0.435832	-0.302581
Br34	Br	-3.646009	-0.151577	-0.827206
Br35	Br	-4.290257	-0.175930	-0.756062
H36	H	-4.610821	-0.567964	-0.310611
H37	H	-4.440076	-0.917536	-0.299878
Br38	Br	-3.468477	-0.492070	-0.281230
Br39	Br	-4.832819	-0.848359	-0.311659
H40	H	-3.690460	-0.772470	-0.282255
