data_functionalizedCrystal
_audit_creation_method	'MofGen! by Chris Wilmer'
_symmetry_space_group_name_H-M	'P1'
_symmetry_Int_Tables_number	1
_symmetry_cell_setting	triclinic
loop_
_symmetry_equiv_pos_as_xyz
  x,y,z
_cell_length_a	23.532355
_cell_length_b	23.532407
_cell_length_c	17.666332
_cell_angle_alpha	90.009886
_cell_angle_beta	90.003432
_cell_angle_gamma	82.838088
loop_
_atom_site_label
_atom_site_type_symbol
_atom_site_fract_x
_atom_site_fract_y
_atom_site_fract_z
O1	O	0.755283	0.068994	0.062853
O2	O	1.255283	0.568994	0.562853
O3	O	0.589415	0.079028	0.062878
O4	O	1.089415	0.579028	0.562878
O5	O	0.677351	-0.008922	0.062851
O6	O	1.177351	0.491078	0.562851
O7	O	0.667347	0.156944	0.062880
O8	O	1.167347	0.656944	0.562880
O9	O	0.677335	-0.008924	-0.063046
O10	O	1.177335	0.491076	0.436954
O11	O	0.589400	0.079026	-0.063019
O12	O	1.089400	0.579026	0.436981
O13	O	0.755267	0.068992	-0.063044
O14	O	1.255267	0.568992	0.436956
Cu15	Cu	0.672332	0.074008	-0.074527
Cu16	Cu	1.172332	0.574008	0.425473
Cu17	Cu	0.672350	0.074011	0.074361
Cu18	Cu	1.172350	0.574011	0.574361
O19	O	0.667332	0.156941	-0.063017
O20	O	1.167332	0.656941	0.436983
C21	C	0.568191	0.078776	-0.000067
C22	C	1.068191	0.578776	0.499933
C23	C	0.504972	0.078022	-0.000058
C24	C	1.004972	0.578022	0.499942
C25	C	0.677088	-0.030139	-0.000099
C26	C	1.177088	0.469861	0.499901
C27	C	0.676322	-0.093356	-0.000105
C28	C	1.176322	0.406644	0.499895
C29	C	0.112950	0.073283	-0.068717
C30	C	0.612950	0.573283	0.431283
C31	C	0.053550	0.072565	-0.068720
C32	C	0.553550	0.572565	0.431280
O33	O	0.022825	0.072174	-0.127083
O34	O	0.522825	0.572174	0.372917
N35	N	0.023850	0.072211	-0.000094
N36	N	0.523850	0.572211	0.499906
C37	C	0.053554	0.072568	0.068539
C38	C	0.553554	0.572568	0.568539
O39	O	0.022837	0.072200	0.126911
O40	O	0.522837	0.572200	0.626911
C41	C	0.112952	0.073281	0.068542
C42	C	0.612952	0.573281	0.568542
C43	C	0.142649	0.073641	-0.000089
C44	C	0.642649	0.573641	0.499911
C45	C	0.142646	0.073642	-0.137342
C46	C	0.642646	0.573642	0.362658
C47	C	0.202041	0.074361	-0.137339
C48	C	0.702041	0.574361	0.362661
C49	C	0.231740	0.074719	-0.068710
C50	C	0.731740	0.574719	0.431290
C51	C	0.202044	0.074360	-0.000085
C52	C	0.702044	0.574360	0.499915
C53	C	0.142655	0.073634	0.137174
C54	C	0.642655	0.573634	0.637174
C55	C	0.202058	0.074347	0.137171
C56	C	0.702058	0.574347	0.637171
C57	C	0.231754	0.074708	0.068540
C58	C	0.731754	0.574708	0.568540
C59	C	0.291138	0.075437	0.068546
C60	C	0.791138	0.575437	0.568546
N61	N	0.320838	0.075792	-0.000080
N62	N	0.820838	0.575792	0.499920
C63	C	0.291139	0.075433	-0.068708
C64	C	0.791139	0.575433	0.431292
C65	C	-0.071188	0.071069	0.068529
C66	C	0.428812	0.571069	0.568529
C67	C	-0.130586	0.070360	0.068528
C68	C	0.369414	0.570360	0.568528
C69	C	-0.130585	0.070356	-0.068732
C70	C	0.369415	0.570356	0.431268
C71	C	-0.071186	0.071069	-0.068730
C72	C	0.428814	0.571069	0.431270
C73	C	-0.041488	0.071423	-0.000097
C74	C	0.458512	0.571423	0.499903
C75	C	0.415873	0.076942	-0.068696
C76	C	0.915873	0.576942	0.431304
C77	C	0.475273	0.077663	-0.068686
C78	C	0.975273	0.577663	0.431314
C79	C	0.475267	0.077664	0.068573
C80	C	0.975267	0.577664	0.568573
C81	C	0.415872	0.076946	0.068564
C82	C	0.915872	0.576946	0.568564
C83	C	0.386177	0.076583	-0.000077
C84	C	0.886177	0.576583	0.499923
O85	O	0.321902	0.075827	0.126880
O86	O	0.821902	0.575827	0.626880
O87	O	0.321864	0.075793	-0.127070
O88	O	0.821864	0.575793	0.372930
C89	C	0.723557	-0.492468	-0.000071
C90	C	1.223557	0.007532	0.499929
C91	C	0.722845	-0.551868	-0.000065
C92	C	1.222845	-0.051868	0.499935
O93	O	0.766632	-0.588620	-0.000044
O94	O	1.266632	-0.088620	0.499956
N95	N	0.670568	-0.574484	-0.000057
N96	N	1.170568	-0.074484	0.499943
C97	C	0.618998	-0.537697	-0.000048
C98	C	1.118998	-0.037697	0.499952
O99	O	0.574467	-0.562388	-0.000041
O100	O	1.074467	-0.062388	0.499959
C101	C	0.619710	-0.478298	-0.000049
C102	C	1.119710	0.021702	0.499951
C103	C	0.671991	-0.455685	-0.000064
C104	C	1.171991	0.044315	0.499936
C105	C	0.775834	-0.469854	-0.000085
C106	C	1.275834	0.030146	0.499915
C107	C	0.776545	-0.410458	-0.000092
C108	C	1.276545	0.089542	0.499908
C109	C	0.724979	-0.373676	-0.000085
C110	C	1.224979	0.126324	0.499915
C111	C	0.672703	-0.396289	-0.000071
C112	C	1.172703	0.103711	0.499929
C113	C	0.568141	-0.441512	-0.000034
C114	C	1.068141	0.058488	0.499966
C115	C	0.568858	-0.382110	-0.000034
C116	C	1.068858	0.117890	0.499966
C117	C	0.621139	-0.359497	-0.000049
C118	C	1.121139	0.140503	0.499951
C119	C	0.621848	-0.300110	-0.000071
C120	C	1.121848	0.199890	0.499929
N121	N	0.674126	-0.277494	-0.000079
N122	N	1.174126	0.222506	0.499921
C123	C	0.725691	-0.314277	-0.000086
C124	C	1.225691	0.185723	0.499914
C125	C	0.617507	-0.662439	-0.000046
C126	C	1.117507	-0.162439	0.499954
C127	C	0.616794	-0.721837	-0.000051
C128	C	1.116794	-0.221837	0.499949
C129	C	0.720642	-0.736004	-0.000066
C130	C	1.220642	-0.236004	0.499934
C131	C	0.721354	-0.676605	-0.000067
C132	C	1.221354	-0.176605	0.499933
C133	C	0.669784	-0.639823	-0.000053
C134	C	1.169784	-0.139823	0.499947
C135	C	0.727181	-0.189540	-0.000102
C136	C	1.227181	0.310460	0.499898
C137	C	0.727888	-0.130138	-0.000112
C138	C	1.227888	0.369862	0.499888
C139	C	0.624041	-0.115977	-0.000093
C140	C	1.124041	0.384023	0.499907
C141	C	0.623334	-0.175373	-0.000086
C142	C	1.123334	0.324627	0.499914
C143	C	0.674909	-0.212154	-0.000088
C144	C	1.174909	0.287846	0.499912
O145	O	0.578084	-0.263323	-0.000090
O146	O	1.078084	0.236677	0.499910
O147	O	0.770216	-0.289577	-0.000083
O148	O	1.270216	0.210423	0.499917
C149	C	0.776491	0.069244	-0.000097
C150	C	1.276491	0.569244	0.499903
C151	C	0.839710	0.069998	-0.000101
C152	C	1.339710	0.569998	0.499899
C153	C	0.667594	0.178158	-0.000065
C154	C	1.167594	0.678158	0.499935
C155	C	0.668360	0.241375	-0.000054
C156	C	1.168360	0.741375	0.499946
N157	N	0.672323	0.074006	-0.179246
N158	N	1.172323	0.574006	0.320754
C159	C	0.706664	0.108369	-0.218848
C160	C	1.206664	0.608369	0.281152
C161	C	0.706673	0.108367	-0.298096
C162	C	1.206673	0.608367	0.201904
C163	C	0.672331	0.074009	-0.337738
C164	C	1.172331	0.574009	0.162262
C165	C	0.637988	0.039639	-0.298126
C166	C	1.137988	0.539639	0.201874
C167	C	0.637985	0.039638	-0.218880
C168	C	1.137985	0.539638	0.281120
N169	N	0.622455	0.072745	-0.462171
N170	N	1.122455	0.572745	0.037829
N171	N	0.622460	0.072750	-0.537451
N172	N	1.122460	0.572750	-0.037451
C173	C	0.672341	0.074011	-0.576502
C174	C	1.172341	0.574011	-0.076502
N175	N	0.722217	0.075278	-0.537429
N176	N	1.222217	0.575278	-0.037429
N177	N	0.722211	0.075277	-0.462141
N178	N	1.222211	0.575277	0.037859
C179	C	0.672332	0.074007	-0.423667
C180	C	1.172332	0.574007	0.076333
C181	C	0.706695	0.108374	-0.702034
C182	C	1.206695	0.608374	-0.202034
C183	C	0.706705	0.108368	-0.781283
C184	C	1.206705	0.608368	-0.281283
C185	C	0.638015	0.039644	-0.781311
C186	C	1.138015	0.539644	-0.281311
C187	C	0.638010	0.039646	-0.702064
C188	C	1.138010	0.539646	-0.202064
C189	C	0.672349	0.074014	-0.662430
C190	C	1.172349	0.574014	-0.162430
N191	N	0.672363	0.074009	0.179080
N192	N	1.172363	0.574009	0.679080
H193	H	0.499449	0.077958	-0.124576
H194	H	0.999449	0.577958	0.375424
H195	H	-0.047012	0.071363	-0.124615
H196	H	0.452988	0.571363	0.375385
H197	H	-0.154777	0.070062	-0.124613
H198	H	0.345223	0.570062	0.375387
H199	H	0.391702	0.076652	-0.124590
H200	H	0.891702	0.576652	0.375410
H201	H	0.526863	-0.352164	-0.000022
H202	H	1.026863	0.147836	0.499978
H203	H	0.580762	-0.193785	-0.000095
H204	H	1.080762	0.306215	0.499905
H205	H	0.391691	0.076662	0.124448
H206	H	0.891691	0.576662	0.624448
H207	H	0.610028	0.011664	-0.330408
H208	H	1.110028	0.511664	0.169592
H209	H	0.817827	-0.499797	-0.000088
H210	H	1.317827	0.000203	0.499912
H211	H	0.610044	0.011666	-0.669819
H212	H	1.110044	0.511666	-0.169819
H213	H	0.610019	0.011654	-0.186636
H214	H	1.110019	0.511654	0.313364
H215	H	0.525569	-0.459912	-0.000017
H216	H	1.025569	0.040088	0.499983
H217	H	0.582057	-0.086018	-0.000090
H218	H	1.082057	0.413982	0.499910
H219	H	0.734628	0.136352	-0.186583
H220	H	1.234628	0.636352	0.313417
H221	H	0.734656	0.136358	-0.669762
H222	H	1.234656	0.636358	-0.169762
H223	H	0.734673	0.136349	-0.813526
H224	H	1.234673	0.636349	-0.313526
H225	H	0.610054	0.011668	-0.813587
H226	H	1.110054	0.511668	-0.313587
H227	H	-0.154761	0.070076	0.124414
H228	H	0.345239	0.570076	0.624414
H229	H	0.226215	0.074650	-0.193225
H230	H	0.726215	0.574650	0.306775
H231	H	-0.047012	0.071363	0.124422
H232	H	0.452988	0.571363	0.624422
H233	H	0.118472	0.073349	-0.193230
H234	H	0.618472	0.573349	0.306770
H235	H	0.762629	-0.765963	-0.000069
H236	H	1.262629	-0.265963	0.499931
H237	H	0.118487	0.073341	0.193061
H238	H	0.618487	0.573341	0.693061
H239	H	0.226235	0.074636	0.193061
H240	H	0.726235	0.574636	0.693061
H241	H	0.499459	0.077959	0.124448
H242	H	0.999459	0.577959	0.624448
H243	H	0.770463	-0.111731	-0.000126
H244	H	1.270463	0.388269	0.499874
H245	H	0.574222	-0.740243	-0.000052
H246	H	1.074222	-0.240243	0.499948
H247	H	0.769178	-0.219481	-0.000100
H248	H	1.269178	0.280519	0.499900
H249	H	0.575510	-0.632494	-0.000042
H250	H	1.075510	-0.132494	0.499958
H251	H	0.819117	-0.392053	-0.000101
H252	H	1.319117	0.107947	0.499899
H253	H	0.763925	-0.658198	-0.000078
H254	H	1.263925	-0.158198	0.499922
H255	H	0.734637	0.136351	-0.330347
H256	H	1.234637	0.636351	0.169653
