data_functionalizedCrystal
_audit_creation_method	'MofGen! by Chris Wilmer'
_symmetry_space_group_name_H-M	'P1'
_symmetry_Int_Tables_number	1
_symmetry_cell_setting	triclinic
loop_
_symmetry_equiv_pos_as_xyz
  x,y,z
_cell_length_a	10.654562
_cell_length_b	15.944493
_cell_length_c	9.730223
_cell_angle_alpha	90.004543
_cell_angle_beta	89.996961
_cell_angle_gamma	83.982574
loop_
_atom_site_label
_atom_site_type_symbol
_atom_site_fract_x
_atom_site_fract_y
_atom_site_fract_z
O1	O	1.666261	0.118027	-0.114360
O2	O	1.300636	0.129256	-0.114342
O3	O	1.493471	0.001421	-0.114363
O4	O	1.473426	0.245861	-0.114339
O5	O	1.493468	0.001425	0.114217
O6	O	1.300633	0.129259	0.114238
O7	O	1.666259	0.118030	0.114219
Zn8	Zn	1.483446	0.123645	0.150521
Zn9	Zn	1.483449	0.123641	-0.150643
O10	O	1.473424	0.245864	0.114241
C11	C	1.253848	0.128431	-0.000049
C12	C	1.114438	0.125957	-0.000043
C13	C	1.048921	0.124805	0.124545
C14	C	0.917930	0.122488	0.124522
C15	C	0.917983	0.122478	-0.124689
C16	C	1.048973	0.124789	-0.124664
C17	C	1.114387	0.125973	0.249166
C18	C	1.048870	0.124822	0.373764
C19	C	0.917878	0.122505	0.373741
C20	C	0.852404	0.121338	0.249119
C21	C	1.492650	-0.029877	-0.000079
C22	C	1.490194	-0.123140	-0.000096
C23	C	1.603701	-0.358239	-0.000076
C24	C	1.542492	-0.409165	-0.112774
C25	C	1.485643	-0.293887	-0.000079
C26	C	1.542462	-0.409138	0.112588
C27	C	1.481256	-0.458822	-0.000057
C28	C	1.424466	-0.343584	-0.112870
C29	C	1.424453	-0.343554	0.112593
C30	C	1.363158	-0.394447	-0.000132
C31	C	1.488174	-0.198872	-0.000093
C32	C	1.478715	-0.553834	-0.000052
C33	C	1.713047	0.118855	-0.000076
C34	C	1.852456	0.121328	-0.000091
C35	C	1.474244	0.277162	-0.000046
C36	C	1.476700	0.370425	-0.000038
N37	N	1.483453	0.123647	0.356057
N38	N	1.483451	0.123632	-0.356179
C39	C	1.568862	0.067062	0.427974
C40	C	1.568859	0.067051	0.571857
C41	C	1.398033	0.180220	0.571894
C42	C	1.398032	0.180226	0.428014
C43	C	1.654283	0.010483	0.356018
C44	C	1.739700	-0.046106	0.427934
C45	C	1.739697	-0.046117	0.571817
C46	C	1.654277	0.010463	0.643783
H47	H	0.864662	0.121530	-0.226149
Br48	Br	1.137726	0.126392	0.542884
H49	H	1.654296	0.010488	0.238861
Br50	Br	1.292158	0.129128	0.249204
Br51	Br	1.773191	-0.331201	-0.000264
Br52	Br	0.828966	0.120934	0.542834
Br53	Br	1.625597	-0.456873	0.271380
Br54	Br	1.137898	0.126347	-0.293750
Br55	Br	1.625588	-0.456930	-0.271588
H56	H	1.809240	-0.092176	0.369332
Br57	Br	0.674633	0.118164	0.249091
H58	H	1.809238	-0.092199	0.630370
Br59	Br	1.654264	0.010436	0.839055
Br60	Br	1.341417	-0.296042	-0.271847
Br61	Br	1.193535	-0.421216	-0.000217
H62	H	1.328482	0.226302	0.369459
Br63	Br	1.282115	0.257003	0.669560
Br64	Br	1.341450	-0.295740	0.271415
