data_functionalizedCrystal
_audit_creation_method	'MofGen! by Chris Wilmer'
_symmetry_space_group_name_H-M	'P1'
_symmetry_Int_Tables_number	1
_symmetry_cell_setting	triclinic
loop_
_symmetry_equiv_pos_as_xyz
  x,y,z
_cell_length_a	17.699104
_cell_length_b	23.532357
_cell_length_c	16.176319
_cell_angle_alpha	89.987656
_cell_angle_beta	89.991696
_cell_angle_gamma	83.059904
loop_
_atom_site_label
_atom_site_type_symbol
_atom_site_fract_x
_atom_site_fract_y
_atom_site_fract_z
O1	O	1.003686	0.072078	-0.068773
O2	O	0.783260	0.081436	-0.068773
O3	O	0.900140	-0.006157	-0.068756
O4	O	0.886806	0.159671	-0.068790
O5	O	0.900124	-0.006163	0.068737
O6	O	0.783244	0.081430	0.068721
O7	O	1.003670	0.072073	0.068720
Cu8	Cu	0.893456	0.076751	0.081274
Cu9	Cu	0.893474	0.076757	-0.081327
O10	O	0.886790	0.159666	0.068703
C11	C	0.755057	0.081096	-0.000026
C12	C	0.671045	0.080084	-0.000025
C13	C	0.145931	0.125792	-0.000043
C14	C	0.224870	0.126739	-0.000045
C15	C	0.273761	0.075319	-0.000035
C16	C	0.243709	0.022948	-0.000030
C17	C	0.164772	0.022001	-0.000033
C18	C	0.562055	0.026765	-0.000017
C19	C	0.640997	0.027716	-0.000011
C20	C	0.622153	0.131504	-0.000029
C21	C	0.543216	0.130557	-0.000033
C22	C	0.513171	0.078186	-0.000032
C23	C	0.427577	0.077159	-0.000031
C24	C	0.359354	0.076345	-0.000030
C25	C	0.899798	-0.027378	-0.000007
C26	C	0.898795	-0.090599	0.000001
C27	C	0.892509	-0.482626	-0.074991
C28	C	0.891556	-0.542028	-0.074996
O29	O	0.891045	-0.572743	-0.138736
N30	N	0.891075	-0.571744	-0.000049
C31	C	0.891539	-0.542053	0.074907
O32	O	0.891041	-0.572783	0.138654
C33	C	0.892487	-0.482651	0.074911
C34	C	0.892976	-0.452940	-0.000041
C35	C	0.892997	-0.452914	-0.149937
C36	C	0.893952	-0.393516	-0.149931
C37	C	0.894418	-0.363830	-0.074981
C38	C	0.893930	-0.393542	-0.000036
C39	C	0.892945	-0.452961	0.149866
C40	C	0.893892	-0.393556	0.149863
C41	C	0.894381	-0.363844	0.074912
C42	C	0.895351	-0.304458	0.074920
N43	N	0.895832	-0.274742	-0.000027
C44	C	0.895366	-0.304428	-0.074977
C45	C	0.889547	-0.666801	0.074893
C46	C	0.888605	-0.726202	0.074890
C47	C	0.888621	-0.726172	-0.075013
C48	C	0.889569	-0.666771	-0.075009
C49	C	0.890029	-0.637085	-0.000054
C50	C	0.897371	-0.179688	-0.074961
C51	C	0.898329	-0.120285	-0.074949
C52	C	0.898309	-0.120319	0.074953
C53	C	0.897355	-0.179717	0.074942
C54	C	0.896884	-0.209400	-0.000022
O55	O	0.895860	-0.273704	0.138627
O56	O	0.895854	-0.273690	-0.138714
C57	C	1.031873	0.072413	-0.000029
C58	C	1.115885	0.073425	-0.000035
C59	C	0.887132	0.180886	-0.000048
C60	C	0.888135	0.244107	-0.000061
N61	N	0.893448	0.076746	0.195640
N62	N	0.893488	0.076758	-0.195692
C63	C	0.945217	0.037976	0.238911
C64	C	0.945221	0.037975	0.325458
C65	C	0.893459	0.076748	0.368732
C66	C	0.841683	0.115520	0.325455
C67	C	0.841676	0.115518	0.238909
C68	C	0.841709	0.115531	0.674483
C69	C	0.841722	0.115532	0.761034
C70	C	0.945254	0.037988	0.761032
C71	C	0.945247	0.037986	0.674487
C72	C	0.893470	0.076756	0.631216
C73	C	0.893465	0.076755	0.537372
C74	C	0.893466	0.076752	0.462575
H75	H	0.537603	-0.015879	-0.000015
O76	O	0.791464	0.153259	0.196909
C77	C	0.746305	0.252327	0.170437
C78	C	0.803229	0.209649	0.218037
H79	H	0.755786	0.297927	0.187514
H80	H	0.755188	0.245714	0.101138
H81	H	0.685755	0.244929	0.187463
H82	H	0.863801	0.217021	0.201080
H83	H	0.794279	0.216272	0.287324
H84	H	0.283522	-0.018920	-0.000026
H85	H	0.799552	0.147100	0.639259
H86	H	0.799533	0.147088	0.360693
H87	H	0.249330	0.169382	-0.000059
H88	H	0.799567	0.147106	0.796267
O89	O	0.888263	-0.755102	0.147673
C90	C	0.952707	-0.828754	0.234658
C91	C	0.953210	-0.796062	0.152209
H92	H	1.005203	-0.861886	0.238344
H93	H	0.953249	-0.797362	0.288260
H94	H	0.899257	-0.851245	0.238382
H95	H	1.006651	-0.773570	0.148404
H96	H	0.952628	-0.827482	0.098645
O97	O	0.897014	-0.208584	-0.147731
C98	C	0.961550	-0.282137	-0.234786
C99	C	0.962035	-0.249470	-0.152336
H100	H	1.014122	-0.315192	-0.238544
H101	H	0.908164	-0.304700	-0.238563
H102	H	0.962026	-0.250670	-0.288323
H103	H	0.961587	-0.280899	-0.098752
H104	H	1.015416	-0.226898	-0.148632
H105	H	0.106129	0.167665	-0.000045
O106	O	0.894383	-0.364742	-0.222814
C107	C	0.894334	-0.371008	-0.371495
C108	C	0.893831	-0.403658	-0.289012
H109	H	0.893904	-0.402459	-0.425038
H110	H	0.841790	-0.337927	-0.375300
H111	H	0.947739	-0.348465	-0.375208
H112	H	0.840461	-0.426236	-0.285244
H113	H	0.946410	-0.436706	-0.285241
O114	O	0.896794	-0.208641	0.147692
C115	C	0.830119	-0.269153	0.234708
C116	C	0.830671	-0.236438	0.152283
H117	H	0.776656	-0.291626	0.238455
H118	H	0.882610	-0.302287	0.238454
H119	H	0.830661	-0.237728	0.288269
H120	H	0.830102	-0.267820	0.098675
H121	H	0.778184	-0.203297	0.148609
O122	O	0.495832	0.180559	-0.000081
C123	C	0.485474	0.283606	-0.000056
C124	C	0.539221	0.227021	-0.000017
H125	H	0.520532	0.321185	0.000013
H126	H	0.448071	0.285798	-0.057613
H127	H	0.448021	0.285724	0.057469
H128	H	0.576721	0.224865	-0.057502
H129	H	0.576572	0.224853	0.057578
O130	O	0.651375	0.182365	-0.000188
C131	C	0.729602	0.243664	-0.071406
C132	C	0.696548	0.186052	-0.071342
H133	H	0.766144	0.246659	-0.128919
H134	H	0.681127	0.280274	-0.071465
H135	H	0.766048	0.246693	-0.013840
H136	H	0.660111	0.182968	-0.128898
H137	H	0.745059	0.149470	-0.071240
H138	H	0.680803	-0.014160	-0.000005
H139	H	0.140310	-0.020642	-0.000029
O140	O	0.898767	-0.091508	-0.147835
C141	C	0.898727	-0.097764	-0.296517
C142	C	0.898215	-0.130419	-0.214039
H143	H	0.898297	-0.129211	-0.350065
H144	H	0.846188	-0.064680	-0.300322
H145	H	0.952137	-0.075224	-0.300221
H146	H	0.844841	-0.152993	-0.210281
H147	H	0.950790	-0.163471	-0.210269
O148	O	0.888198	-0.754930	-0.147897
C149	C	0.888263	-0.748644	-0.296580
C150	C	0.888760	-0.716005	-0.214107
H151	H	0.888702	-0.717186	-0.350133
H152	H	0.940805	-0.781726	-0.300383
H153	H	0.834856	-0.771184	-0.300276
H154	H	0.942133	-0.693431	-0.210355
H155	H	0.836183	-0.682955	-0.210338
H156	H	0.892615	-0.477078	-0.210973
O157	O	0.889921	-0.637842	-0.147768
C158	C	0.825358	-0.564267	-0.234794
C159	C	0.824886	-0.596968	-0.152349
H160	H	0.772775	-0.531222	-0.238532
H161	H	0.878733	-0.541691	-0.238580
H162	H	0.824894	-0.595716	-0.288336
H163	H	0.825323	-0.565558	-0.098760
H164	H	0.771516	-0.619553	-0.148635
H165	H	0.889924	-0.642634	0.135934
H166	H	0.892548	-0.477143	0.210899
O167	O	0.894205	-0.364678	0.222654
C168	C	0.829709	-0.291058	0.309627
C169	C	0.829250	-0.323726	0.227174
H170	H	0.777206	-0.257932	0.313301
H171	H	0.829147	-0.322468	0.363226
H172	H	0.883152	-0.268563	0.313370
H173	H	0.775816	-0.346222	0.223351
H174	H	0.829852	-0.292289	0.173614
O175	O	0.898622	-0.091432	0.147731
C176	C	0.834109	-0.017798	0.234669
C177	C	0.833662	-0.050482	0.152230
H178	H	0.781604	0.015326	0.238325
H179	H	0.833546	-0.049197	0.288281
H180	H	0.887549	0.004702	0.238407
H181	H	0.780231	-0.072983	0.148411
H182	H	0.834266	-0.019056	0.098657
H183	H	0.987400	0.006415	0.639256
O184	O	0.995530	0.000256	0.197007
C185	C	1.098252	-0.076638	0.206149
C186	C	1.041303	-0.033958	0.253705
H187	H	1.135285	-0.104304	0.251969
H188	H	1.065836	-0.105102	0.165673
H189	H	1.135831	-0.052074	0.165589
H190	H	1.003710	-0.058476	0.294310
H191	H	1.073766	-0.005495	0.294129
H192	H	0.987412	0.006418	0.796272
O193	O	0.995412	0.000258	0.367525
C194	C	1.012159	-0.077518	0.465289
C195	C	0.955231	-0.034843	0.417690
H196	H	0.979695	-0.105900	0.505872
H197	H	1.049145	-0.105266	0.419526
H198	H	1.049789	-0.052949	0.505752
H199	H	0.917551	-0.059366	0.377226
H200	H	0.918298	-0.007095	0.463497
