data_functionalizedCrystal
_audit_creation_method	'MofGen! by Chris Wilmer'
_symmetry_space_group_name_H-M	'P1'
_symmetry_Int_Tables_number	1
_symmetry_cell_setting	triclinic
loop_
_symmetry_equiv_pos_as_xyz
  x,y,z
_cell_length_a	16.109301
_cell_length_b	16.109301
_cell_length_c	15.186229
_cell_angle_alpha	89.994833
_cell_angle_beta	89.999006
_cell_angle_gamma	83.461532
loop_
_atom_site_label
_atom_site_type_symbol
_atom_site_fract_x
_atom_site_fract_y
_atom_site_fract_z
O1	O	1.103130	0.106867	-0.073183
O2	O	1.603130	0.606867	0.426817
O3	O	0.861069	0.120166	-0.073196
O4	O	1.361069	0.620166	0.426804
O5	O	0.988749	-0.007514	-0.073180
O6	O	1.488749	0.492486	0.426820
O7	O	0.975450	0.234548	-0.073199
O8	O	1.475450	0.734548	0.426801
O9	O	0.988741	-0.007516	0.073277
O10	O	1.488741	0.492484	0.573277
O11	O	0.861060	0.120164	0.073262
O12	O	1.361060	0.620164	0.573262
O13	O	1.103122	0.106865	0.073274
O14	O	1.603122	0.606865	0.573274
Zn15	Zn	0.982090	0.113515	0.096521
Zn16	Zn	1.482090	0.613515	0.596521
Zn17	Zn	0.982101	0.113517	-0.096443
Zn18	Zn	1.482101	0.613517	0.403557
O19	O	0.975441	0.234546	0.073259
O20	O	1.475441	0.734546	0.573259
C21	C	0.830089	0.119627	0.000031
C22	C	1.330089	0.619627	0.500031
C23	C	0.737794	0.118011	0.000027
C24	C	1.237794	0.618011	0.500027
C25	C	0.988206	-0.038490	0.000049
C26	C	1.488206	0.461510	0.500049
C27	C	0.986591	-0.130785	0.000050
C28	C	1.486591	0.369215	0.500050
C29	C	0.428796	0.188494	0.000037
C30	C	0.928796	0.688494	0.500037
C31	C	0.515516	0.190020	0.000032
C32	C	1.015516	0.690020	0.500032
C33	C	0.535389	0.038531	0.000031
C34	C	1.035389	0.538531	0.500031
C35	C	0.448671	0.037007	0.000030
C36	C	0.948671	0.537007	0.500030
C37	C	0.395376	0.111991	0.000037
C38	C	0.895376	0.611991	0.500037
C39	C	0.568815	0.115041	0.000033
C40	C	1.068815	0.615041	0.500033
C41	C	0.662841	0.116694	0.000028
C42	C	1.162841	0.616694	0.500028
C43	C	0.301344	0.110338	0.000041
C44	C	0.801344	0.610338	0.500041
C45	C	1.058599	-0.353058	0.000040
C46	C	1.558599	0.146942	0.500040
C47	C	1.057075	-0.439778	0.000033
C48	C	1.557075	0.060222	0.500033
C49	C	0.905586	-0.419904	0.000028
C50	C	1.405586	0.080096	0.500028
C51	C	0.907111	-0.333185	0.000029
C52	C	1.407111	0.166815	0.500029
C53	C	0.983620	-0.299765	0.000040
C54	C	1.483620	0.200235	0.500040
C55	C	0.980571	-0.473204	0.000031
C56	C	1.480571	0.026796	0.500031
C57	C	0.978918	-0.567230	0.000023
C58	C	1.478918	-0.067230	0.500023
C59	C	0.985273	-0.205733	0.000046
C60	C	1.485273	0.294267	0.500046
C61	C	1.134101	0.107405	0.000045
C62	C	1.634101	0.607405	0.500045
C63	C	1.226396	0.109020	0.000044
C64	C	1.726396	0.609020	0.500044
C65	C	0.975984	0.265522	0.000028
C66	C	1.475984	0.765522	0.500028
C67	C	0.977599	0.357817	0.000021
C68	C	1.477599	0.857817	0.500021
N69	N	0.982088	0.113512	0.228214
N70	N	1.482088	0.613512	0.728214
N71	N	0.982109	0.113512	-0.228135
N72	N	1.482109	0.613512	0.271865
C73	C	1.038644	0.056994	0.453944
C74	C	1.538644	0.556994	0.953944
C75	C	1.038647	0.056992	0.546133
C76	C	1.538647	0.556992	1.046133
C77	C	0.925547	0.170033	0.546128
C78	C	1.425547	0.670033	1.046128
C79	C	0.925541	0.170030	0.453940
C80	C	1.425541	0.670030	0.953940
C81	C	0.982094	0.113512	0.407850
C82	C	1.482094	0.613512	0.907850
C83	C	0.982103	0.113513	0.592228
C84	C	1.482103	0.613513	1.092228
C85	C	0.982105	0.113511	0.692184
C86	C	1.482105	0.613511	1.192184
C87	C	0.982091	0.113512	0.307888
C88	C	1.482091	0.613512	0.807888
H89	H	0.385405	0.249551	0.000042
H90	H	0.885405	0.749551	0.500042
H91	H	1.084694	0.010970	0.583660
H92	H	1.584694	0.510970	1.083660
H93	H	0.843295	-0.447126	0.000021
H94	H	1.343295	0.052874	0.500021
C95	C	0.820941	-0.224129	0.075312
C96	C	1.320941	0.275871	0.575312
C97	C	0.824689	-0.274595	0.000027
C98	C	1.324689	0.225405	0.500027
H99	H	0.770063	-0.187954	0.075302
H100	H	1.270063	0.312046	0.575302
H101	H	0.823484	-0.258374	0.126376
H102	H	1.323484	0.241626	0.626376
H103	H	0.866730	-0.191821	0.075304
H104	H	1.366730	0.308179	0.575304
H105	H	0.778904	-0.306907	0.000038
H106	H	1.278904	0.193093	0.500038
H107	H	0.822138	-0.240345	-0.051050
H108	H	1.322138	0.259655	0.448950
H109	H	0.542722	0.252317	0.000030
H110	H	1.042722	0.752317	0.500030
H111	H	0.879503	0.216050	0.583664
H112	H	1.379503	0.716050	1.083664
C113	C	0.677148	-0.026397	0.000044
C114	C	1.177148	0.473603	0.500044
C115	C	0.593974	-0.043889	0.000037
C116	C	1.093974	0.456111	0.500037
H117	H	0.713313	-0.077282	0.000055
H118	H	1.213313	0.422718	0.500055
H119	H	0.687277	0.004969	-0.051027
H120	H	1.187277	0.504969	0.448973
H121	H	0.687265	0.004973	0.051120
H122	H	1.187265	0.504973	0.551120
H123	H	0.583855	-0.075254	-0.051043
H124	H	1.083855	0.424746	0.448957
H125	H	0.583841	-0.075268	0.051113
H126	H	1.083841	0.424732	0.551113
C127	C	0.477019	-0.112587	0.000040
C128	C	0.977019	0.387413	0.500040
C129	C	0.411930	-0.047093	0.000034
C130	C	0.911930	0.452907	0.500034
H131	H	0.454334	-0.164503	0.000045
H132	H	0.954334	0.335497	0.500045
H133	H	0.510429	-0.108841	-0.051029
H134	H	1.010429	0.391159	0.448971
H135	H	0.510429	-0.108842	0.051117
H136	H	1.010429	0.391158	0.551117
H137	H	0.378523	-0.050835	-0.051047
H138	H	0.878523	0.449165	0.448953
H139	H	0.378505	-0.050841	0.051109
H140	H	0.878505	0.449159	0.551109
H141	H	1.084692	0.010973	0.416419
H142	H	1.584692	0.510973	0.916419
C143	C	1.208184	-0.381416	0.000027
C144	C	1.708184	0.118584	0.500027
C145	C	1.142696	-0.316321	0.000035
C146	C	1.642696	0.183679	0.500035
H147	H	1.260103	-0.358736	0.000016
H148	H	1.760103	0.141264	0.500016
H149	H	1.204443	-0.414827	0.051098
H150	H	1.704443	0.085173	0.551098
H151	H	1.204428	-0.414823	-0.051048
H152	H	1.704428	0.085177	0.448952
H153	H	1.146449	-0.282917	0.051114
H154	H	1.646449	0.217083	0.551114
H155	H	1.146439	-0.282895	-0.051041
H156	H	1.646439	0.217105	0.448959
H157	H	1.118130	-0.483167	0.000031
H158	H	1.618130	0.016833	0.500031
H159	H	0.879487	0.216054	0.416409
H160	H	1.379487	0.716054	0.916409
