data_functionalizedCrystal
_audit_creation_method	'MofGen! by Chris Wilmer'
_symmetry_space_group_name_H-M	'P1'
_symmetry_Int_Tables_number	1
_symmetry_cell_setting	triclinic
loop_
_symmetry_equiv_pos_as_xyz
  x,y,z
_cell_length_a	12.784890
_cell_length_b	19.288864
_cell_length_c	17.766277
_cell_angle_alpha	90.023209
_cell_angle_beta	89.993425
_cell_angle_gamma	101.878598
loop_
_atom_site_label
_atom_site_type_symbol
_atom_site_fract_x
_atom_site_fract_y
_atom_site_fract_z
O1	O	0.132632	-0.913613	-0.062833
O2	O	0.632632	-0.413613	0.437167
O3	O	0.150524	-0.710308	-0.062781
O4	O	0.650524	-0.210308	0.437219
O5	O	-0.013221	-0.826839	-0.062807
O6	O	0.486779	-0.326839	0.437193
O7	O	0.296377	-0.797083	-0.062807
O8	O	0.796377	-0.297083	0.437193
O9	O	-0.013229	-0.826820	0.062382
O10	O	0.486771	-0.326820	0.562382
O11	O	0.150516	-0.710290	0.062408
O12	O	0.650516	-0.210290	0.562408
O13	O	0.132624	-0.913595	0.062356
O14	O	0.632624	-0.413595	0.562356
Cu15	Cu	0.141569	-0.811941	0.073813
Cu16	Cu	0.641569	-0.311941	0.573813
Cu17	Cu	0.141579	-0.811962	-0.074237
Cu18	Cu	0.641579	-0.311962	0.425763
O19	O	0.296369	-0.797064	0.062382
O20	O	0.796369	-0.297064	0.562382
C21	C	0.149944	-0.684456	-0.000180
C22	C	0.649944	-0.184456	0.499820
C23	C	0.148216	-0.607454	-0.000160
C24	C	0.648216	-0.107454	0.499840
C25	C	-0.052834	-0.828765	-0.000214
C26	C	0.447166	-0.328765	0.499786
C27	C	-0.170855	-0.834523	-0.000217
C28	C	0.329145	-0.334523	0.499783
N29	N	0.141562	-0.811931	0.177943
N30	N	0.641562	-0.311931	0.677943
C31	C	-0.350177	-0.906691	-0.000236
C32	C	0.149823	-0.406691	0.499764
C33	C	-0.239286	-0.901285	-0.000234
C34	C	0.260714	-0.401285	0.499766
C35	C	-0.213322	-0.773163	-0.000201
C36	C	0.286678	-0.273163	0.499799
C37	C	-0.324213	-0.778569	-0.000204
C38	C	0.175787	-0.278569	0.499796
C39	C	-0.392637	-0.845335	-0.000223
C40	C	0.107363	-0.345335	0.499777
C41	C	-0.503530	-0.850741	-0.000231
C42	C	-0.003530	-0.350741	0.499769
C43	C	-0.477564	-0.722618	-0.000193
C44	C	0.022436	-0.222618	0.499807
C45	C	-0.366673	-0.717212	-0.000190
C46	C	0.133327	-0.217212	0.499810
C47	C	0.335982	-0.795138	-0.000213
C48	C	0.835982	-0.295138	0.499787
C49	C	0.454004	-0.789380	-0.000215
C50	C	0.954004	-0.289380	0.499785
C51	C	0.133204	-0.939447	-0.000247
C52	C	0.633204	-0.439447	0.499753
C53	C	0.134932	-1.016450	-0.000271
C54	C	0.634932	-0.516450	0.499729
C55	C	0.244294	-0.557150	-0.000172
C56	C	0.744294	-0.057150	0.499828
C57	C	0.242671	-0.484798	-0.000180
C58	C	0.742671	0.015202	0.499820
C59	C	0.144963	-0.462752	-0.000192
C60	C	0.644963	0.037248	0.499808
C61	C	0.048873	-0.513066	-0.000176
C62	C	0.548873	-0.013066	0.499824
C63	C	0.050499	-0.585417	-0.000160
C64	C	0.550499	-0.085417	0.499840
C65	C	0.068158	-0.358979	-0.044076
C66	C	0.568158	0.141021	0.455924
C67	C	0.066535	-0.286629	-0.044097
C68	C	0.566535	0.213371	0.455903
C69	C	0.139943	-0.239600	-0.000238
C70	C	0.639943	0.260400	0.499762
C71	C	0.214992	-0.264926	0.043633
C72	C	0.714992	0.235074	0.543633
C73	C	0.216618	-0.337277	0.043648
C74	C	0.716618	0.162723	0.543648
C75	C	0.143189	-0.384302	-0.000209
C76	C	0.643189	0.115698	0.499791
C77	C	0.234268	-0.110843	-0.000257
C78	C	0.734268	0.389157	0.499743
C79	C	0.232640	-0.038490	-0.000261
C80	C	0.732640	0.461510	0.499739
C81	C	0.038839	-0.066760	-0.000264
C82	C	0.538839	0.433240	0.499736
C83	C	0.040470	-0.139111	-0.000253
C84	C	0.540470	0.360889	0.499747
C85	C	0.138187	-0.161148	-0.000253
C86	C	0.638187	0.338852	0.499747
N87	N	0.141578	-0.811978	-0.178368
N88	N	0.641578	-0.311978	0.321632
C89	C	0.069091	-0.863543	0.217318
C90	C	0.569091	-0.363543	0.717318
C91	C	0.069086	-0.863548	0.296120
C92	C	0.569086	-0.363548	0.796120
C93	C	0.141570	-0.811945	0.335543
C94	C	0.641570	-0.311945	0.835543
C95	C	0.214046	-0.760323	0.296158
C96	C	0.714046	-0.260323	0.796158
C97	C	0.214042	-0.760316	0.217358
C98	C	0.714042	-0.260316	0.717358
C99	C	0.238444	-0.796993	0.460383
C100	C	0.738444	-0.296993	0.960383
C101	C	0.238449	-0.797005	0.539182
C102	C	0.738449	-0.297005	1.039182
C103	C	0.141583	-0.811963	0.578590
C104	C	0.641583	-0.311963	1.078590
C105	C	0.044706	-0.826924	0.539189
C106	C	0.544706	-0.326924	1.039189
C107	C	0.044702	-0.826917	0.460389
C108	C	0.544702	-0.326917	0.960389
C109	C	0.141582	-0.811946	0.420989
C110	C	0.641582	-0.311946	0.920989
C111	C	0.069101	-0.863583	0.703411
C112	C	0.569101	-0.363583	1.203411
C113	C	0.069094	-0.863583	0.782214
C114	C	0.569094	-0.363583	1.282214
C115	C	0.214064	-0.760360	0.782251
C116	C	0.714064	-0.260360	1.282251
C117	C	0.214061	-0.760358	0.703449
C118	C	0.714061	-0.260358	1.203449
C119	C	0.141581	-0.811973	0.664034
C120	C	0.641581	-0.311973	1.164034
H121	H	-0.559240	-0.905105	-0.000251
H122	H	-0.059240	-0.405105	0.499749
H123	H	-0.037768	-0.180070	-0.000247
H124	H	0.462232	0.319930	0.499753
H125	H	-0.204721	-0.951248	-0.000243
H126	H	0.295279	-0.451248	0.499757
Br127	Br	0.312402	-0.690264	0.163915
Br128	Br	0.812402	-0.190264	0.663915
H129	H	-0.512145	-0.672657	-0.000184
H130	H	-0.012145	-0.172657	0.499816
H131	H	0.317332	-0.784827	0.571255
H132	H	0.817332	-0.284827	1.071255
H133	H	-0.040716	-0.048811	-0.000320
H134	H	0.459284	0.451189	0.499680
Br135	Br	-0.120444	-0.682558	-0.000166
Br136	Br	0.379556	-0.182558	0.499834
H137	H	0.010074	-0.905610	0.814274
H138	H	0.510074	-0.405610	1.314274
H139	H	0.310882	0.002468	-0.000266
H140	H	0.810882	0.502468	0.499734
H141	H	-0.310947	-0.662853	-0.000172
H142	H	0.189053	-0.162853	0.499828
H143	H	0.273078	-0.718342	0.814349
H144	H	0.773078	-0.218342	1.314349
H145	H	0.323863	-0.575087	-0.000174
H146	H	0.823863	-0.075087	0.499826
H147	H	-0.034178	-0.839097	0.428312
H148	H	0.465822	-0.339097	0.928312
H149	H	0.320911	-0.443833	-0.000188
H150	H	0.820911	0.056167	0.499812
H151	H	0.277722	-0.357895	0.079371
H152	H	0.777722	0.142105	0.579371
H153	H	0.274767	-0.226636	0.079348
H154	H	0.774767	0.273364	0.579348
H155	H	-0.034172	-0.839104	0.571274
H156	H	0.465828	-0.339104	1.071274
H157	H	0.010079	-0.905609	0.671318
H158	H	0.510079	-0.405609	1.171318
Br159	Br	0.366880	-0.140755	-0.000252
Br160	Br	0.866880	0.359245	0.499748
Br161	Br	-0.035301	-0.252263	-0.103644
Br162	Br	0.464699	0.247737	0.396356
H163	H	0.317329	-0.784800	0.428303
H164	H	0.817329	-0.284800	0.928303
H165	H	0.008378	-0.397266	-0.079796
H166	H	0.508378	0.102734	0.420204
H167	H	-0.030681	-0.495112	-0.000196
H168	H	0.469319	0.004888	0.499804
Br169	Br	0.312412	-0.690285	0.349658
Br170	Br	0.812412	-0.190285	0.849658
H171	H	-0.027742	-0.626375	-0.000151
H172	H	0.472258	-0.126375	0.499849
Br173	Br	-0.443043	-0.997300	-0.000279
Br174	Br	0.056957	-0.497300	0.499721
Br175	Br	-0.029277	-0.933599	0.349568
Br176	Br	0.470723	-0.433599	0.849568
Br177	Br	-0.029276	-0.933588	0.163825
Br178	Br	0.470724	-0.433588	0.663825
Br179	Br	0.312422	-0.690311	0.650005
Br180	Br	0.812422	-0.190311	1.150005
