data_functionalizedCrystal
_audit_creation_method	'MofGen! by Chris Wilmer'
_symmetry_space_group_name_H-M	'P1'
_symmetry_Int_Tables_number	1
_symmetry_cell_setting	triclinic
loop_
_symmetry_equiv_pos_as_xyz
  x,y,z
_cell_length_a	15.944551
_cell_length_b	16.109302
_cell_length_c	15.186229
_cell_angle_alpha	89.994701
_cell_angle_beta	89.998855
_cell_angle_gamma	96.519741
loop_
_atom_site_label
_atom_site_type_symbol
_atom_site_fract_x
_atom_site_fract_y
_atom_site_fract_z
O1	O	-0.107969	1.103165	-0.073258
O2	O	0.392031	1.603165	0.426742
O3	O	-0.121405	0.861108	-0.073250
O4	O	0.378595	1.361108	0.426750
O5	O	0.007590	0.988746	-0.073260
O6	O	0.507590	1.488746	0.426740
O7	O	-0.236964	0.975526	-0.073249
O8	O	0.263036	1.475526	0.426751
O9	O	0.007592	0.988738	0.073198
O10	O	0.507592	1.488738	0.573198
O11	O	-0.121403	0.861099	0.073207
O12	O	0.378597	1.361099	0.573207
O13	O	-0.107967	1.103157	0.073199
O14	O	0.392033	1.603157	0.573199
Zn15	Zn	-0.114685	0.982127	0.096456
Zn16	Zn	0.385315	1.482127	0.596456
Zn17	Zn	-0.114687	0.982138	-0.096508
Zn18	Zn	0.385313	1.482138	0.403492
O19	O	-0.236962	0.975518	0.073208
O20	O	0.263038	1.475518	0.573208
C21	C	-0.120860	0.830128	-0.000021
C22	C	0.379140	1.330128	0.499979
C23	C	-0.119228	0.737833	-0.000018
C24	C	0.380772	1.237833	0.499982
C25	C	-0.115453	0.525486	0.079807
C26	C	0.384547	1.025486	0.579807
C27	C	-0.113910	0.438765	0.079804
C28	C	0.386090	0.938765	0.579804
C29	C	-0.113917	0.438785	-0.079872
C30	C	0.386083	0.938785	0.420128
C31	C	-0.115453	0.525505	-0.079868
C32	C	0.384547	1.025505	0.420132
C33	C	-0.116225	0.568852	-0.000026
C34	C	0.383775	1.068852	0.499974
C35	C	-0.113147	0.395412	-0.000033
C36	C	0.386853	0.895412	0.499967
C37	C	-0.111474	0.301386	-0.000037
C38	C	0.388526	0.801386	0.499963
C39	C	-0.117896	0.662885	-0.000022
C40	C	0.382104	1.162885	0.499978
C41	C	-0.268257	0.976071	-0.000019
C42	C	0.231743	1.476071	0.499981
C43	C	-0.361502	0.977716	-0.000015
C44	C	0.138498	1.477716	0.499985
C45	C	-0.576332	1.060766	-0.000032
C46	C	-0.076332	1.560766	0.499968
C47	C	-0.637360	1.022196	0.072182
C48	C	-0.137360	1.522196	0.572182
C49	C	-0.532227	0.980693	-0.000023
C50	C	-0.032227	1.480693	0.499977
C51	C	-0.637347	1.022186	-0.072214
C52	C	-0.137347	1.522186	0.427786
C53	C	-0.697139	0.983574	-0.000035
C54	C	-0.197139	1.483574	0.499965
C55	C	-0.592027	0.942101	0.072249
C56	C	-0.092027	1.442101	0.572249
C57	C	-0.592008	0.942102	-0.072211
C58	C	-0.092008	1.442102	0.427789
C59	C	-0.653018	0.903474	0.000020
C60	C	-0.153018	1.403474	0.500020
C61	C	-0.437225	0.979035	-0.000016
C62	C	0.062775	1.479035	0.499984
C63	C	-0.792140	0.985225	-0.000036
C64	C	-0.292140	1.485225	0.499964
C65	C	0.038885	0.988193	-0.000034
C66	C	0.538885	1.488193	0.499966
C67	C	0.132130	0.986548	-0.000044
C68	C	0.632130	1.486548	0.499956
C69	C	-0.108513	1.134136	-0.000033
C70	C	0.391487	1.634136	0.499967
C71	C	-0.110145	1.226432	-0.000041
C72	C	0.389855	1.726432	0.499959
N73	N	-0.114683	0.982125	0.228149
N74	N	0.385317	1.482125	0.728149
N75	N	-0.114683	0.982146	-0.228200
N76	N	0.385317	1.482146	0.271800
C77	C	-0.057583	1.038663	0.453867
C78	C	0.442417	1.538663	0.953867
C79	C	-0.057581	1.038665	0.546057
C80	C	0.442419	1.538665	1.046057
C81	C	-0.171785	0.925602	0.546075
C82	C	0.328215	1.425602	1.046075
C83	C	-0.171782	0.925596	0.453887
C84	C	0.328218	1.425596	0.953887
C85	C	-0.114682	0.982131	0.407785
C86	C	0.385318	1.482131	0.907785
C87	C	-0.114683	0.982140	0.592163
C88	C	0.385317	1.482140	1.092163
C89	C	-0.114681	0.982142	0.692119
C90	C	0.385319	1.482142	1.192119
C91	C	-0.114683	0.982128	0.307823
C92	C	0.385317	1.482128	0.807823
H93	H	-0.113282	0.403460	0.144811
H94	H	0.386718	0.903460	0.644811
Br95	Br	-0.116498	0.584313	0.188163
Br96	Br	0.383502	1.084313	0.688163
Br97	Br	-0.116491	0.584366	-0.188221
Br98	Br	0.383509	1.084366	0.311779
H99	H	-0.218280	0.879558	0.416364
H100	H	0.281720	1.379558	0.916364
Br101	Br	-0.249277	0.848881	0.608643
Br102	Br	0.250723	1.348881	1.108643
H103	H	-0.657427	1.056072	-0.133261
H104	H	-0.157427	1.556072	0.366739
H105	H	-0.011085	1.084697	0.583575
H106	H	0.488915	1.584697	1.083575
Br107	Br	0.019911	1.115387	0.391305
Br108	Br	0.519911	1.615387	0.891305
H109	H	-0.572046	0.908257	0.133366
H110	H	-0.072046	1.408257	0.633366
H111	H	-0.657455	1.056060	0.133230
H112	H	-0.157455	1.556060	0.633230
H113	H	-0.113289	0.403481	-0.144877
H114	H	0.386711	0.903481	0.355123
Br115	Br	-0.708314	0.792597	0.000078
Br116	Br	-0.208314	1.292597	0.500078
Br117	Br	-0.520780	1.171542	0.000077
Br118	Br	-0.020780	1.671542	0.500077
H119	H	-0.571891	0.908267	-0.133263
H120	H	-0.071891	1.408267	0.366737
