data_functionalizedCrystal
_audit_creation_method	'MofGen! by Chris Wilmer'
_symmetry_space_group_name_H-M	'P1'
_symmetry_Int_Tables_number	1
_symmetry_cell_setting	triclinic
loop_
_symmetry_equiv_pos_as_xyz
  x,y,z
_cell_length_a	10.654549
_cell_length_b	16.109301
_cell_length_c	14.586319
_cell_angle_alpha	90.005214
_cell_angle_beta	89.995465
_cell_angle_gamma	96.025801
loop_
_atom_site_label
_atom_site_type_symbol
_atom_site_fract_x
_atom_site_fract_y
_atom_site_fract_z
O1	O	1.666252	-0.116792	-0.076266
O2	O	2.166252	0.383208	0.423734
O3	O	1.300624	-0.127914	-0.076263
O4	O	1.800624	0.372086	0.423737
O5	O	1.493482	-0.001382	-0.076255
O6	O	1.993482	0.498618	0.423745
O7	O	1.473394	-0.243324	-0.076274
O8	O	1.973394	0.256676	0.423726
O9	O	1.493469	-0.001380	0.076226
O10	O	1.993469	0.498620	0.576226
O11	O	1.300610	-0.127912	0.076218
O12	O	1.800610	0.372088	0.576218
O13	O	1.666239	-0.116790	0.076215
O14	O	2.166239	0.383210	0.576215
Cu15	Cu	1.483423	-0.122351	0.090139
Cu16	Cu	1.983423	0.377649	0.590139
Cu17	Cu	1.483439	-0.122353	-0.090187
Cu18	Cu	1.983439	0.377647	0.409813
O19	O	1.473381	-0.243322	0.076207
O20	O	1.973381	0.256678	0.576207
C21	C	1.253830	-0.127095	-0.000022
C22	C	1.753830	0.372905	0.499978
C23	C	1.114420	-0.124649	-0.000021
C24	C	1.614420	0.375351	0.499979
C25	C	0.822445	-0.271361	-0.000058
C26	C	1.322445	0.228639	0.499942
C27	C	0.872941	-0.348164	-0.000060
C28	C	1.372941	0.151836	0.499940
C29	C	1.003927	-0.350465	-0.000048
C30	C	1.503927	0.149535	0.499952
C31	C	1.084424	-0.275955	-0.000037
C32	C	1.584424	0.224045	0.499963
C33	C	1.033929	-0.199152	-0.000035
C34	C	1.533929	0.300848	0.499965
C35	C	0.902937	-0.196859	-0.000044
C36	C	1.402937	0.303141	0.499956
C37	C	1.063925	-0.047847	-0.000019
C38	C	1.563925	0.452153	0.499981
C39	C	0.932939	-0.045544	-0.000024
C40	C	1.432939	0.454456	0.499976
C41	C	1.144422	0.026664	-0.000008
C42	C	1.644422	0.526664	0.499992
C43	C	1.093927	0.103469	0.000001
C44	C	1.593927	0.603469	0.500001
C45	C	0.962932	0.105766	-0.000010
C46	C	1.462932	0.605766	0.499990
C47	C	0.882444	0.031259	-0.000022
C48	C	1.382444	0.531259	0.499978
C49	C	1.492662	0.029599	-0.000014
C50	C	1.992662	0.529599	0.499986
C51	C	1.490222	0.121909	-0.000013
C52	C	1.990222	0.621909	0.499987
C53	C	1.713033	-0.117609	-0.000028
C54	C	2.213033	0.382391	0.499972
C55	C	1.852442	-0.120054	-0.000035
C56	C	2.352442	0.379946	0.499965
C57	C	1.474201	-0.274303	-0.000036
C58	C	1.974201	0.225697	0.499964
C59	C	1.476641	-0.366613	-0.000043
C60	C	1.976641	0.133387	0.499957
N61	N	1.483422	-0.122349	0.216971
N62	N	1.983422	0.377651	0.716971
C63	C	1.598988	0.343533	-0.000028
C64	C	2.098988	0.843533	0.499972
C65	C	1.596686	0.430267	-0.000036
C66	C	2.096686	0.930267	0.499964
C67	C	1.367866	0.411756	-0.000031
C68	C	1.867866	0.911756	0.499969
C69	C	1.370169	0.325024	-0.000030
C70	C	1.870169	0.825024	0.499970
C71	C	1.485734	0.290915	-0.000024
C72	C	1.985734	0.790915	0.499976
C73	C	1.481129	0.464381	-0.000032
C74	C	1.981129	0.964381	0.499968
C75	C	1.478632	0.558422	-0.000041
C76	C	1.978632	1.058422	0.499959
C77	C	1.488232	0.196868	-0.000017
C78	C	1.988232	0.696868	0.499983
N79	N	1.483451	-0.122349	-0.217019
N80	N	1.983451	0.377651	0.282981
C81	C	1.568847	-0.066340	0.451981
C82	C	2.068847	0.433660	0.951981
C83	C	1.568851	-0.066338	0.547962
C84	C	2.068851	0.433662	1.047962
C85	C	1.398016	-0.178360	0.547964
C86	C	1.898016	0.321640	1.047964
C87	C	1.398008	-0.178358	0.451985
C88	C	1.898008	0.321642	0.951985
C89	C	1.483430	-0.122348	0.403995
C90	C	1.983430	0.377652	0.903995
C91	C	1.483443	-0.122349	0.595956
C92	C	1.983443	0.377651	1.095956
C93	C	1.483446	-0.122347	0.700023
C94	C	1.983446	0.377653	1.200023
C95	C	1.483426	-0.122349	0.299922
C96	C	1.983426	0.377651	0.799922
H97	H	1.191079	-0.277835	-0.000038
H98	H	1.691079	0.222165	0.499962
H99	H	1.328444	-0.223967	0.412913
H100	H	1.828444	0.276033	0.912913
H101	H	0.715788	-0.269496	-0.000052
H102	H	1.215788	0.230504	0.499948
H103	H	0.775785	0.033122	-0.000023
H104	H	1.275785	0.533122	0.499977
H105	H	1.273777	0.439538	-0.000034
H106	H	1.773777	0.939538	0.499966
F107	F	1.659761	-0.006724	0.599028
F108	F	2.159761	0.493276	1.099028
F109	F	1.057669	-0.432207	-0.000056
F110	F	1.557669	0.067793	0.499944
F111	F	1.307110	-0.237969	0.599044
F112	F	1.807110	0.262031	1.099044
F113	F	1.249622	0.269019	-0.000032
F114	F	1.749622	0.769019	0.499968
H115	H	0.807386	-0.408829	-0.000072
H116	H	1.307386	0.091171	0.499928
F117	F	1.283829	0.024213	-0.000002
F118	F	1.783829	0.524213	0.499998
H119	H	0.921828	0.168309	-0.000013
H120	H	1.421828	0.668309	0.499987
F121	F	1.179601	0.182758	0.000007
F122	F	1.679601	0.682758	0.500007
F123	F	1.721982	0.307235	-0.000023
F124	F	2.221982	0.807235	0.499977
H125	H	1.638402	-0.020732	0.412910
H126	H	2.138402	0.479268	0.912910
F127	F	1.717227	0.486265	-0.000043
F128	F	2.217227	0.986265	0.499957
