data_functionalizedCrystal
_audit_creation_method	'MofGen! by Chris Wilmer'
_symmetry_space_group_name_H-M	'P1'
_symmetry_Int_Tables_number	1
_symmetry_cell_setting	triclinic
loop_
_symmetry_equiv_pos_as_xyz
  x,y,z
_cell_length_a	15.944545
_cell_length_b	15.944493
_cell_length_c	15.021413
_cell_angle_alpha	90.009890
_cell_angle_beta	89.995468
_cell_angle_gamma	83.485608
loop_
_atom_site_label
_atom_site_type_symbol
_atom_site_fract_x
_atom_site_fract_y
_atom_site_fract_z
O1	O	1.114510	0.108299	-0.073963
O2	O	0.869956	0.121661	-0.073976
O3	O	0.998937	-0.007299	-0.073976
O4	O	0.985529	0.237258	-0.073962
O5	O	0.998916	-0.007280	0.074088
O6	O	0.869936	0.121679	0.074089
O7	O	1.114489	0.108317	0.074102
Zn8	Zn	0.992209	0.115001	0.097603
Zn9	Zn	0.992236	0.114977	-0.097478
O10	O	0.985509	0.237276	0.074102
C11	C	0.838652	0.121116	0.000055
C12	C	0.745406	0.119456	0.000049
C13	C	0.474791	0.034560	0.000054
C14	C	0.525354	0.075499	0.073061
C15	C	0.409764	0.113535	0.000064
C16	C	0.525355	0.075502	-0.072918
C17	C	0.574677	0.116440	0.000055
C18	C	0.459098	0.154453	0.073132
C19	C	0.459096	0.154445	-0.072913
C20	C	0.509626	0.195442	0.000113
C21	C	0.314762	0.111860	0.000070
C22	C	0.669676	0.118122	0.000056
C23	C	0.998378	-0.038584	0.000052
C24	C	0.996735	-0.131833	0.000041
C25	C	1.072656	-0.367594	0.000062
C26	C	1.031725	-0.418171	-0.072944
C27	C	0.993691	-0.302554	0.000051
C28	C	1.031687	-0.418128	0.073036
C29	C	0.990757	-0.467463	0.000066
C30	C	0.952782	-0.351902	-0.073014
C31	C	0.952755	-0.351856	0.073031
C32	C	0.911766	-0.402400	0.000008
C33	C	0.995384	-0.207554	0.000042
C34	C	0.989058	-0.562460	0.000068
C35	C	1.145793	0.108862	0.000069
C36	C	1.239039	0.110522	0.000069
C37	C	0.986067	0.268562	0.000072
C38	C	0.987710	0.361811	0.000077
N39	N	0.992197	0.115017	0.230741
N40	N	0.992255	0.114954	-0.230615
C41	C	0.932547	0.174620	0.470425
C42	C	1.008445	0.190926	0.529764
C43	C	0.992218	0.114996	0.412348
C44	C	0.916342	0.098709	0.529750
C45	C	0.992232	0.114978	0.587772
C46	C	1.068154	0.131340	0.470381
C47	C	0.976001	0.039090	0.470362
C48	C	1.051953	0.055364	0.529675
C49	C	0.992209	0.115009	0.311291
C50	C	0.992250	0.114964	0.688827
H51	H	0.554283	0.042153	0.134780
Br52	Br	0.411062	0.210017	0.176118
H53	H	0.919427	-0.322887	0.134751
H54	H	0.525104	0.263508	0.000159
H55	H	0.962248	-0.025073	0.444249
Br56	Br	0.448721	-0.078799	0.000159
H57	H	0.843695	-0.417864	-0.000035
Br58	Br	0.410849	0.209976	-0.175786
Br59	Br	1.136157	-0.028695	0.572770
H60	H	0.554288	0.042128	-0.134637
H61	H	1.065042	-0.447053	0.134752
Br62	Br	0.848525	0.258722	0.427058
Br63	Br	1.186022	-0.341546	-0.000048
H64	H	1.065082	-0.447125	-0.134661
H65	H	1.022174	0.255110	0.555856
Br66	Br	1.175141	0.154410	0.427106
H67	H	0.852169	0.084942	0.555830
Br68	Br	0.897247	-0.303885	-0.175998
