data_functionalizedCrystal
_audit_creation_method	'MofGen! by Chris Wilmer'
_symmetry_space_group_name_H-M	'P1'
_symmetry_Int_Tables_number	1
_symmetry_cell_setting	triclinic
loop_
_symmetry_equiv_pos_as_xyz
  x,y,z
_cell_length_a	27.732048
_cell_length_b	14.519709
_cell_length_c	13.596369
_cell_angle_alpha	89.999709
_cell_angle_beta	89.989067
_cell_angle_gamma	96.838600
loop_
_atom_site_label
_atom_site_type_symbol
_atom_site_fract_x
_atom_site_fract_y
_atom_site_fract_z
O1	O	0.063362	-1.222766	-0.081675
O2	O	0.070824	-0.954159	-0.081706
O3	O	-0.003264	-1.096805	-0.081671
O4	O	0.137450	-1.080120	-0.081710
O5	O	-0.003268	-1.096791	0.081912
O6	O	0.070820	-0.954145	0.081877
O7	O	0.063358	-1.222752	0.081908
Zn8	Zn	0.067088	-1.088446	0.107865
Zn9	Zn	0.067094	-1.088465	-0.107663
O10	O	0.137446	-1.080106	0.081873
C11	C	0.070474	-0.919799	0.000082
C12	C	0.069432	-0.817435	0.000071
C13	C	-0.021274	-1.096448	0.000124
C14	C	-0.074934	-1.095393	0.000132
C15	C	0.063708	-1.257113	0.000119
C16	C	0.064750	-1.359476	0.000123
C17	C	-0.413378	-1.173048	0.000090
C18	C	-0.615057	-1.169135	0.000076
O19	O	-0.645973	-1.240145	0.000041
N20	N	-0.634585	-1.084552	0.000067
C21	C	-0.603690	-1.000941	0.000055
O22	O	-0.624927	-0.928909	0.000037
C23	C	-0.402012	-1.004855	0.000062
C24	C	-0.382487	-1.089444	0.000081
C25	C	-0.393853	-1.257630	0.000108
C26	C	-0.343436	-1.258607	0.000117
C27	C	-0.312545	-1.175003	0.000108
C28	C	-0.332071	-1.090421	0.000090
C29	C	-0.371118	-0.921246	0.000043
C30	C	-0.320696	-0.922232	0.000043
C31	C	-0.301171	-1.006820	0.000062
C32	C	-0.250763	-1.007794	0.000090
N33	N	-0.231235	-1.092377	0.000099
C34	C	-0.262126	-1.175981	0.000108
C35	C	-0.709574	-0.998893	0.000053
C36	C	-0.759993	-0.997914	0.000053
C37	C	-0.771356	-1.166108	0.000072
C38	C	-0.720936	-1.167086	0.000079
C39	C	-0.690045	-1.083476	0.000062
C40	C	-0.156247	-1.178028	0.000128
C41	C	-0.105825	-1.178998	0.000141
C42	C	-0.094466	-1.010804	0.000116
C43	C	-0.144883	-1.009833	0.000109
C44	C	-0.175773	-1.093453	0.000111
O45	O	-0.219818	-0.936822	0.000114
O46	O	-0.240879	-1.248004	0.000104
C47	C	-0.463795	-1.172071	0.000081
C48	C	-0.483320	-1.087489	0.000063
C49	C	-0.452429	-1.003885	0.000054
C50	C	-0.533740	-1.086510	0.000063
C51	C	-0.564631	-1.170115	0.000072
C52	C	-0.545103	-1.254698	0.000081
C53	C	-0.494686	-1.255675	0.000090
C54	C	-0.471957	-0.919302	0.000046
C55	C	-0.522375	-0.918331	0.000038
C56	C	-0.553266	-1.001936	0.000047
C57	C	0.155456	-1.080464	0.000077
C58	C	0.209116	-1.081518	0.000062
N59	N	0.067085	-1.088441	0.254957
C60	C	0.065596	-0.442606	0.000116
C61	C	0.066661	-0.546896	0.000103
C62	C	0.067514	-0.630018	0.000093
C63	C	0.068579	-0.734314	0.000081
N64	N	0.067094	-1.088478	-0.254754
C65	C	0.067094	-1.088464	0.656248
C66	C	0.067093	-1.088454	0.544596
C67	C	0.067090	-1.088453	0.455606
C68	C	0.067088	-1.088442	0.343947
H69	H	-0.181392	-1.246119	0.000126
C70	C	-0.060481	-0.918841	0.000099
C71	C	-0.062727	-0.849308	0.085024
C72	C	-0.028741	-0.757344	0.084996
C73	C	0.007491	-0.734913	0.000043
C74	C	0.009737	-0.804448	-0.084888
C75	C	-0.024249	-0.896412	-0.084860
H76	H	-0.089548	-0.865911	0.147916
H77	H	-0.030404	-0.705870	0.147868
H78	H	0.032649	-0.666836	0.000023
H79	H	0.036559	-0.787845	-0.147781
H80	H	-0.022585	-0.947886	-0.147732
C81	C	-0.473214	-1.348725	0.000101
C82	C	-0.484850	-1.417964	0.085049
C83	C	-0.463383	-1.511020	0.085057
C84	C	-0.430278	-1.534837	0.000116
C85	C	-0.418639	-1.465597	-0.084838
C86	C	-0.440107	-1.372541	-0.084846
H87	H	-0.509358	-1.400334	0.147933
H88	H	-0.471998	-1.562276	0.147946
H89	H	-0.414386	-1.603723	0.000122
H90	H	-0.394132	-1.483227	-0.147722
H91	H	-0.431491	-1.321285	-0.147735
H92	H	-0.160781	-0.940955	0.000120
C93	C	-0.543847	-0.825275	0.000018
C94	C	-0.532233	-0.756016	0.084946
C95	C	-0.553703	-0.662963	0.084916
C96	C	-0.586787	-0.639167	-0.000042
C97	C	-0.598403	-0.708427	-0.084977
C98	C	-0.576933	-0.801481	-0.084947
H99	H	-0.507740	-0.773630	0.147843
H100	H	-0.545103	-0.611692	0.147791
H101	H	-0.602680	-0.570283	-0.000065
H102	H	-0.622895	-0.690813	-0.147875
H103	H	-0.585532	-0.852751	-0.147822
H104	H	-0.419000	-1.325714	0.000112
H105	H	-0.775885	-0.929034	0.000055
H106	H	-0.387006	-0.852365	0.000022
C107	C	-0.084349	-1.272051	0.000157
C108	C	-0.051264	-1.295853	0.085110
C109	C	-0.029790	-1.388903	0.085124
C110	C	-0.041401	-1.458150	0.000185
C111	C	-0.074489	-1.434349	-0.084774
C112	C	-0.095963	-1.341300	-0.084789
H113	H	-0.042666	-1.244590	0.147993
H114	H	-0.005296	-1.406521	0.148018
H115	H	-0.025505	-1.527031	0.000196
H116	H	-0.083086	-1.485612	-0.147657
H117	H	-0.120456	-1.323681	-0.147682
H118	H	-0.327544	-1.327488	0.000128
C119	C	-0.286717	-0.830257	0.000027
C120	C	-0.288953	-0.760756	-0.084930
C121	C	-0.254975	-0.668783	-0.084943
C122	C	-0.218760	-0.646310	0.000000
C123	C	-0.216522	-0.715813	0.084964
C124	C	-0.250500	-0.807786	0.084977
H125	H	-0.315763	-0.777390	-0.147816
H126	H	-0.256632	-0.617332	-0.147839
H127	H	-0.193607	-0.578226	-0.000010
H128	H	-0.189712	-0.699179	0.147850
H129	H	-0.248843	-0.859236	0.147873
C130	C	-0.579089	-1.346664	0.000088
C131	C	-0.615328	-1.369106	0.085026
C132	C	-0.649317	-1.461067	0.085027
C133	C	-0.647067	-1.530585	0.000089
C134	C	-0.610827	-1.508144	-0.084855
C135	C	-0.576838	-1.416184	-0.084856
H136	H	-0.616994	-1.317643	0.147908
H137	H	-0.676144	-1.477678	0.147909
H138	H	-0.672228	-1.598659	0.000089
H139	H	-0.609161	-1.559607	-0.147737
H140	H	-0.550011	-1.399572	-0.147738
H141	H	-0.684426	-0.930803	0.000040
H142	H	-0.446810	-0.851220	0.000036
C143	C	-0.805342	-1.258075	0.000074
C144	C	-0.803115	-1.327595	0.085017
C145	C	-0.837102	-1.419557	0.085009
C146	C	-0.873317	-1.441999	0.000059
C147	C	-0.875546	-1.372478	-0.084890
C148	C	-0.841558	-1.280516	-0.084882
H149	H	-0.776305	-1.310983	0.147908
H150	H	-0.835452	-1.471021	0.147895
H151	H	-0.898477	-1.510075	0.000054
H152	H	-0.902355	-1.389090	-0.147781
H153	H	-0.843208	-1.229052	-0.147768
H154	H	-0.705043	-1.235965	0.000094
