data_functionalizedCrystal
_audit_creation_method	'MofGen! by Chris Wilmer'
_symmetry_space_group_name_H-M	'P1'
_symmetry_Int_Tables_number	1
_symmetry_cell_setting	triclinic
loop_
_symmetry_equiv_pos_as_xyz
  x,y,z
_cell_length_a	10.723024
_cell_length_b	11.295483
_cell_length_c	10.723024
_cell_angle_alpha	94.135327
_cell_angle_beta	95.532131
_cell_angle_gamma	94.144104
loop_
_atom_site_label
_atom_site_type_symbol
_atom_site_fract_x
_atom_site_fract_y
_atom_site_fract_z
O1	O	1.665521	0.099014	-0.166696
O2	O	2.165521	0.599014	0.333304
O3	O	1.302369	0.099018	-0.183449
O4	O	1.802369	0.599018	0.316551
O5	O	1.492322	0.099011	0.006503
O6	O	1.992322	0.599011	0.506503
O7	O	1.475569	0.099020	-0.356648
O8	O	1.975569	0.599020	0.143352
O9	O	1.475637	-0.099039	-0.010155
O10	O	1.975637	0.400961	0.489845
O11	O	1.285685	-0.099032	-0.200107
O12	O	1.785685	0.400968	0.299893
O13	O	1.648837	-0.099036	-0.183354
O14	O	2.148837	0.400964	0.316646
Cu15	Cu	1.465738	-0.117118	-0.193252
Cu16	Cu	1.965738	0.382882	0.306748
Cu17	Cu	1.485469	0.117099	-0.173552
Cu18	Cu	1.985469	0.617099	0.326448
O19	O	1.458885	-0.099030	-0.373306
O20	O	1.958885	0.400970	0.126694
C21	C	1.247528	-0.000007	-0.190559
C22	C	1.747528	0.499993	0.309441
C23	C	1.108974	-0.000005	-0.186911
C24	C	1.608974	0.499995	0.313089
N25	N	1.451869	-0.281854	-0.207107
N26	N	1.951869	0.218146	0.292893
C27	C	1.033991	-0.000002	-0.293198
C28	C	1.533991	0.499998	0.206802
C29	C	0.890788	-0.000000	-0.289431
C30	C	1.390788	0.500000	0.210569
C31	C	1.599180	-0.531148	-0.059879
C32	C	2.099180	-0.031148	0.440121
C33	C	1.588709	-0.655811	-0.070359
C34	C	2.088709	-0.155811	0.429641
C35	C	1.420449	-0.655846	-0.238538
C36	C	1.920449	-0.155846	0.261462
C37	C	1.430921	-0.531183	-0.228059
C38	C	1.930921	-0.031183	0.271941
C39	C	1.520290	-0.468838	-0.138728
C40	C	2.020290	0.031162	0.361272
C41	C	1.530767	-0.344172	-0.128255
C42	C	2.030767	0.155828	0.371745
C43	C	1.362502	-0.344209	-0.296428
C44	C	1.862502	0.155791	0.203572
C45	C	1.352031	-0.468873	-0.306908
C46	C	1.852031	0.031127	0.193092
C47	C	1.703679	-0.000009	-0.176244
C48	C	2.203679	0.499991	0.323756
C49	C	1.842234	-0.000003	-0.179891
C50	C	2.342234	0.499997	0.320109
C51	C	1.482760	-0.000012	0.044674
C52	C	1.982760	0.499988	0.544674
C53	C	1.479113	-0.000008	0.183229
C54	C	1.979113	0.499992	0.683229
N55	N	1.499347	0.281835	-0.159687
N56	N	1.999347	0.781835	0.340313
C57	C	1.468446	-0.000003	-0.411477
C58	C	1.968446	0.499997	0.088523
C59	C	1.472094	0.000000	-0.550031
C60	C	1.972094	0.500000	-0.050031
C61	C	1.585401	-0.000007	0.258211
C62	C	2.085401	0.499993	0.758211
C63	C	1.581634	-0.000003	0.401415
C64	C	2.081634	0.499997	0.901415
H65	H	1.075813	-0.000006	-0.386985
H66	H	1.575813	0.499994	0.113015
H67	H	0.826356	0.000007	-0.380421
H68	H	1.326356	0.500007	0.119579
Br69	Br	0.949611	0.000007	-0.028218
Br70	Br	1.449611	0.500007	0.471782
Br71	Br	1.255445	-0.259635	-0.403453
Br72	Br	1.755445	0.240365	0.096547
Br73	Br	1.322789	0.000011	0.252922
Br74	Br	1.822789	0.500011	0.752922
H75	H	1.067154	0.000023	-0.093123
H76	H	1.567154	0.500023	0.406877
H77	H	1.672624	-0.000008	0.465847
H78	H	2.172624	0.499992	0.965847
Br79	Br	1.299151	-0.740468	-0.359750
Br80	Br	1.799151	-0.240468	0.140250
H81	H	1.679186	-0.000016	0.216388
H82	H	2.179186	0.499984	0.716388
H83	H	1.652947	-0.706541	-0.006151
H84	H	2.152947	-0.206541	0.493849
Br85	Br	1.652059	-0.259563	-0.007027
Br86	Br	2.152059	0.240437	0.492973
Br87	Br	1.720481	-0.446535	0.061336
Br88	Br	2.220481	0.053465	0.561336
H89	H	1.279264	-0.519648	-0.379636
H90	H	1.779264	-0.019648	0.120364
H91	H	1.381098	-0.000008	0.385543
H92	H	1.881098	0.499992	0.885543
