data_functionalizedCrystal
_audit_creation_method	'MofGen! by Chris Wilmer'
_symmetry_space_group_name_H-M	'P1'
_symmetry_Int_Tables_number	1
_symmetry_cell_setting	triclinic
loop_
_symmetry_equiv_pos_as_xyz
  x,y,z
_cell_length_a	11.169417
_cell_length_b	19.805405
_cell_length_c	11.169409
_cell_angle_alpha	89.960143
_cell_angle_beta	89.980176
_cell_angle_gamma	90.027289
loop_
_atom_site_label
_atom_site_type_symbol
_atom_site_fract_x
_atom_site_fract_y
_atom_site_fract_z
Zn1	Zn	1.834828	-0.269393	-0.678480
Zn2	Zn	1.834661	-0.382602	-0.477771
Zn3	Zn	1.634114	-0.269434	-0.477814
Zn4	Zn	1.634065	-0.382547	-0.678415
O5	O	1.734417	-0.325994	-0.578120
O6	O	2.002756	-0.284416	-0.651864
O7	O	1.808009	-0.367630	-0.309827
O8	O	1.660830	-0.174712	-0.504478
O9	O	2.002633	-0.367590	-0.504404
O10	O	1.808293	-0.174681	-0.651907
O11	O	1.660668	-0.284486	-0.309859
O12	O	1.466158	-0.284433	-0.504416
O13	O	1.660746	-0.367496	-0.846374
O14	O	1.466122	-0.367536	-0.651797
O15	O	1.808246	-0.284362	-0.846421
O16	O	1.807962	-0.477311	-0.504341
O17	O	1.660585	-0.477271	-0.651754
C18	C	1.422593	-0.325983	-0.578105
C19	C	1.289193	-0.325995	-0.578127
C20	C	1.734282	-0.501850	-0.578062
C21	C	1.734334	-0.577082	-0.578077
C22	C	1.811148	-0.612424	-0.501400
C23	C	1.811199	-0.683113	-0.501426
C24	C	1.734429	-0.718457	-0.578125
C25	C	1.657612	-0.683110	-0.654811
C26	C	1.657568	-0.612422	-0.654790
C27	C	1.657789	-0.968183	-0.654900
C28	C	1.657837	-1.038875	-0.654913
C29	C	1.811420	-1.038873	-0.501537
C30	C	1.811376	-0.968186	-0.501515
C31	C	1.734564	-0.932845	-0.578205
C32	C	1.734511	-0.856196	-0.578177
C33	C	1.734475	-0.795104	-0.578148
C34	C	2.047460	-0.326004	-0.578136
C35	C	2.180860	-0.326009	-0.578143
C36	C	1.734509	-0.325919	-0.891163
C37	C	1.734549	-0.325886	-1.024563
C38	C	1.734586	-0.149451	-0.578205
C39	C	1.734657	-0.074219	-0.578241
C40	C	1.734395	-0.326020	-0.266295
C41	C	1.734588	-0.325861	-0.132896
H42	H	1.873748	-0.711886	-0.438987
C43	C	1.895826	-0.929308	-0.417148
C44	C	1.980329	-0.968184	-0.332808
C45	C	2.064785	-0.929307	-0.248443
C46	C	2.064739	-0.851554	-0.248419
C47	C	1.980233	-0.812673	-0.332762
C48	C	1.895777	-0.851551	-0.417126
H49	H	1.980366	-1.025745	-0.332823
H50	H	2.127342	-0.958089	-0.186007
H51	H	2.127258	-0.822774	-0.185967
H52	H	1.980196	-0.755112	-0.332746
H53	H	1.833220	-0.822768	-0.479563
H54	H	1.595020	-0.583647	-0.717230
C55	C	1.895926	-1.077751	-0.417183
C56	C	1.886186	-1.068104	-0.280735
C57	C	1.970685	-1.106979	-0.196381
C58	C	2.064924	-1.155502	-0.248476
C59	C	2.074668	-1.165151	-0.384931
C60	C	1.990169	-1.126276	-0.469285
H61	H	1.816422	-1.032182	-0.242164
H62	H	1.963472	-1.099836	-0.095367
H63	H	2.127476	-1.184280	-0.186032
H64	H	2.144433	-1.201073	-0.423502
H65	H	1.997382	-1.133419	-0.570299
C66	C	1.895598	-0.573548	-0.417029
C67	C	1.885886	-0.583340	-0.280585
C68	C	1.970342	-0.544466	-0.196215
C69	C	2.064508	-0.495800	-0.248289
C70	C	2.074223	-0.486006	-0.384739
C71	C	1.989768	-0.524880	-0.469109
H72	H	1.816175	-0.619368	-0.242031
H73	H	1.963149	-0.551717	-0.095205
H74	H	2.127027	-0.467023	-0.185833
H75	H	2.143935	-0.449978	-0.423293
H76	H	1.996961	-0.517629	-0.570119
H77	H	1.595323	-1.067650	-0.717380
H78	H	1.595244	-0.939413	-0.717341
C79	C	1.573168	-0.721986	-0.739187
C80	C	1.573210	-0.799739	-0.739214
C81	C	1.488762	-0.838614	-0.823591
C82	C	1.404274	-0.799736	-0.907941
C83	C	1.404229	-0.721978	-0.907918
C84	C	1.488676	-0.683103	-0.823541
H85	H	1.635756	-0.828523	-0.676770
H86	H	1.488796	-0.896175	-0.823608
H87	H	1.341761	-0.828513	-0.970402
H88	H	1.341682	-0.693194	-0.970362
H89	H	1.488642	-0.625542	-0.823524
