data_functionalizedCrystal
_audit_creation_method	'MofGen! by Chris Wilmer'
_symmetry_space_group_name_H-M	'P1'
_symmetry_Int_Tables_number	1
_symmetry_cell_setting	triclinic
loop_
_symmetry_equiv_pos_as_xyz
  x,y,z
_cell_length_a	16.959455
_cell_length_b	25.639239
_cell_length_c	16.959447
_cell_angle_alpha	90.033076
_cell_angle_beta	90.014322
_cell_angle_gamma	90.035633
loop_
_atom_site_label
_atom_site_type_symbol
_atom_site_fract_x
_atom_site_fract_y
_atom_site_fract_z
Zn1	Zn	1.208282	-0.208183	0.446894
Zn2	Zn	1.208161	-0.295624	0.314709
Zn3	Zn	1.076110	-0.208199	0.314731
Zn4	Zn	1.076032	-0.295585	0.446847
O5	O	1.142146	-0.251898	0.380795
O6	O	1.318876	-0.219792	0.429369
O7	O	1.190627	-0.284050	0.204101
O8	O	1.093726	-0.135032	0.332291
O9	O	1.318788	-0.284034	0.332253
O10	O	1.190832	-0.135020	0.429391
O11	O	1.093609	-0.219820	0.204117
O12	O	0.965489	-0.219782	0.332247
O13	O	1.093593	-0.283967	0.557464
O14	O	0.965431	-0.283983	0.429312
O15	O	1.190756	-0.219754	0.557498
O16	O	1.190551	-0.368784	0.332208
O17	O	1.093476	-0.368755	0.429290
C18	C	0.936780	-0.251880	0.380777
C19	C	0.848923	-0.251886	0.380788
C20	C	0.477453	-0.218441	0.330359
C21	C	0.477442	-0.285398	0.431277
C22	C	0.559988	-0.285390	0.431272
C23	C	0.601270	-0.251908	0.380809
C24	C	0.560007	-0.218433	0.330351
C25	C	0.601258	-0.318868	0.481723
C26	C	0.683809	-0.318863	0.481720
C27	C	0.725092	-0.285377	0.431260
C28	C	0.683824	-0.251901	0.380801
C29	C	0.725106	-0.218418	0.330338
C30	C	0.683839	-0.184939	0.279882
C31	C	0.601290	-0.184948	0.279891
C32	C	0.807641	-0.285368	0.431251
C33	C	0.807660	-0.218411	0.330330
C34	C	1.142013	-0.387740	0.380759
C35	C	1.142029	-0.445854	0.380770
C36	C	1.192825	-0.806220	0.330331
C37	C	1.192855	-0.860824	0.330341
O38	O	1.235906	-0.889063	0.287417
N39	N	1.142285	-0.888137	0.380847
C40	C	1.091686	-0.860842	0.431352
O41	O	1.048675	-0.889088	0.474313
C42	C	1.091660	-0.806239	0.431345
C43	C	1.142228	-0.778929	0.380830
C44	C	1.243389	-0.778910	0.279820
C45	C	1.243358	-0.724309	0.279809
C46	C	1.192761	-0.697019	0.330308
C47	C	1.142196	-0.724329	0.380818
C48	C	1.041066	-0.778946	0.481853
C49	C	1.041045	-0.724339	0.481842
C50	C	1.091613	-0.697029	0.431326
C51	C	1.091568	-0.642437	0.431306
N52	N	1.142139	-0.615125	0.380800
C53	C	1.192735	-0.642415	0.330301
C54	C	1.091746	-0.975513	0.431364
C55	C	1.091767	-1.030115	0.431368
C56	C	1.192938	-1.030093	0.330358
C57	C	1.192912	-0.975490	0.330351
C58	C	1.142316	-0.948200	0.380858
C59	C	1.192664	-0.527750	0.330280
C60	C	1.192625	-0.473145	0.330271
C61	C	1.091458	-0.473172	0.431283
C62	C	1.091493	-0.527772	0.431290
C63	C	1.142103	-0.555060	0.380786
O64	O	1.048541	-0.614164	0.474211
O65	O	1.235746	-0.614163	0.287355
C66	C	1.348314	-0.251915	0.380814
C67	C	1.436171	-0.251923	0.380822
C68	C	1.142179	-0.251854	0.586963
C69	C	1.142193	-0.251836	0.674820
C70	C	1.142301	-0.115525	0.380849
C71	C	1.142367	-0.057411	0.380872
C72	C	1.142159	-0.251903	0.175429
C73	C	1.142298	-0.251774	0.087573
C74	C	1.091699	-0.285214	1.046281
C75	C	1.192876	-0.218348	1.046311
C76	C	1.192855	-0.218359	0.963765
C77	C	1.142256	-0.251799	0.922473
C78	C	1.091678	-0.285227	0.963727
C79	C	1.243438	-0.184935	0.922505
C80	C	1.243419	-0.184945	0.839954
C81	C	1.192816	-0.218382	0.798661
C82	C	1.142235	-0.251812	0.839920
C83	C	1.091636	-0.285251	0.798628
C84	C	1.041051	-0.318679	0.839885
C85	C	1.041074	-0.318665	0.922433
C86	C	1.192792	-0.218396	0.716112
C87	C	1.091615	-0.285265	0.716074
H88	H	0.841237	-0.312628	0.472329
H89	H	1.233980	-0.191182	0.682524
H90	H	1.284638	-0.157713	0.956131
H91	H	1.234089	-0.953257	0.289218
O92	O	0.723856	-0.152344	0.230898
C93	C	0.703756	-0.100247	0.248328
H94	H	0.643832	-0.099186	0.278723
H95	H	0.700933	-0.076757	0.191345
H96	H	0.750248	-0.082669	0.289008
O97	O	1.292450	-0.697843	0.230636
C98	C	1.275227	-0.711226	0.151841
H99	H	1.244851	-0.750888	0.150185
H100	H	1.332301	-0.713084	0.116458
H101	H	1.234603	-0.680529	0.125167
O102	O	0.847724	-0.185942	0.281194
C103	C	0.827497	-0.197296	0.202387
H104	H	0.804768	-0.239063	0.198285
H105	H	0.881772	-0.192758	0.163341
H106	H	0.779595	-0.169250	0.181810
H107	H	0.567683	-0.157691	0.238812
H108	H	1.050403	-0.312491	0.682460
O109	O	0.437408	-0.185846	0.281431
C110	C	0.457646	-0.133750	0.298834
H111	H	0.480362	-0.131161	0.361985
H112	H	0.403378	-0.107915	0.292100
H113	H	0.505560	-0.120047	0.256489
H114	H	1.234076	-0.191126	1.079936
O115	O	0.437222	-0.317872	0.480267
C116	C	0.355513	-0.310712	0.469436
H117	H	0.344260	-0.270343	0.443659
H118	H	0.324154	-0.314309	0.528635
H119	H	0.332054	-0.341693	0.427261
H120	H	0.999884	-0.801172	0.522984
O121	O	1.292457	-0.805489	0.230767
C122	C	1.247546	-0.837136	0.179658
H123	H	1.187609	-0.845333	0.207443
H124	H	1.279779	-0.875520	0.169157
H125	H	1.238933	-0.816146	0.121046
O126	O	1.241847	-0.554172	0.281144
C127	C	1.286477	-0.518350	0.236579
H128	H	1.254075	-0.479451	0.233816
H129	H	1.294956	-0.534143	0.174308
H130	H	1.346488	-0.512488	0.265574
O131	O	1.241638	-0.446594	0.281115
C132	C	1.196655	-0.415053	0.230025
H133	H	1.134412	-0.431550	0.225091
H134	H	1.225284	-0.414447	0.169221
H135	H	1.193896	-0.373660	0.254450
H136	H	1.284608	-0.157726	0.806369
O137	O	0.991984	-0.351208	0.962426
C138	C	1.009208	-0.403323	0.942243
H139	H	1.039570	-0.404420	0.882302
H140	H	0.952135	-0.426765	0.939415
H141	H	1.049844	-0.420928	0.988689
O142	O	0.561116	-0.351313	0.530823
C143	C	0.513396	-0.321584	0.581942
H144	H	0.538319	-0.280411	0.586936
H145	H	0.512454	-0.340543	0.642721
H146	H	0.450829	-0.319760	0.557508
H147	H	0.717401	-0.346123	0.522805
H148	H	0.999857	-0.345907	0.806254
H149	H	0.999845	-0.702122	0.522973
H150	H	1.234139	-1.052323	0.289242
H151	H	1.050582	-1.052346	0.472495
H152	H	1.050538	-0.953296	0.472491
O153	O	1.042345	-0.554224	0.480431
C154	C	0.997664	-0.518424	0.524983
H155	H	1.030012	-0.479477	0.527732
H156	H	0.989207	-0.534173	0.587259
H157	H	0.937646	-0.512675	0.495985
O158	O	1.042637	-0.317667	1.086475
C159	C	1.053484	-0.310476	1.168190
H160	H	1.114506	-0.293357	1.179478
H161	H	1.048082	-0.349634	1.199543
H162	H	1.006636	-0.282625	1.191626
O163	O	1.042428	-0.446631	0.480422
C164	C	1.087395	-0.414985	0.531484
H165	H	1.149651	-0.431405	0.536419
H166	H	1.058776	-0.414348	0.592292
H167	H	1.090120	-0.373614	0.507032
