data_functionalizedCrystal
_audit_creation_method	'MofGen! by Chris Wilmer'
_symmetry_space_group_name_H-M	'P1'
_symmetry_Int_Tables_number	1
_symmetry_cell_setting	triclinic
loop_
_symmetry_equiv_pos_as_xyz
  x,y,z
_cell_length_a	21.295418
_cell_length_b	19.077432
_cell_length_c	19.077569
_cell_angle_alpha	94.710891
_cell_angle_beta	87.666701
_cell_angle_gamma	92.257988
loop_
_atom_site_label
_atom_site_type_symbol
_atom_site_fract_x
_atom_site_fract_y
_atom_site_fract_z
Zn1	Zn	0.985757	0.264334	-0.387716
Zn2	Zn	1.485757	0.764334	0.112284
Zn3	Zn	0.985681	0.386957	-0.265095
Zn4	Zn	1.485681	0.886957	0.234905
Zn5	Zn	0.876429	0.269124	-0.269798
Zn6	Zn	1.376429	0.769124	0.230202
Zn7	Zn	0.884520	0.382218	-0.382905
Zn8	Zn	1.384520	0.882218	0.117095
O9	O	0.933097	0.325658	-0.326378
O10	O	1.433097	0.825658	0.173622
O11	O	1.073837	0.280579	-0.371495
O12	O	1.573837	0.780579	0.128505
O13	O	0.967770	0.375314	-0.167065
O14	O	1.467770	0.875314	0.332935
O15	O	0.887577	0.169840	-0.289422
O16	O	1.387577	0.669840	0.210578
O17	O	1.073781	0.370669	-0.281405
O18	O	1.573781	0.870669	0.218595
O19	O	0.967900	0.166321	-0.376056
O20	O	1.467900	0.666321	0.123944
O21	O	0.887503	0.288743	-0.170521
O22	O	1.387503	0.788743	0.329479
O23	O	0.789412	0.284148	-0.284757
O24	O	1.289412	0.784148	0.215243
O25	O	0.901368	0.362593	-0.482196
O26	O	1.401368	0.862593	0.017804
O27	O	0.795357	0.367238	-0.367857
O28	O	1.295357	0.867238	0.132143
O29	O	0.975746	0.275984	-0.485731
O30	O	1.475746	0.775984	0.014269
O31	O	0.975616	0.484977	-0.276741
O32	O	1.475616	0.984977	0.223259
O33	O	0.901293	0.481495	-0.363296
O34	O	1.401293	0.981495	0.136704
C35	C	0.769544	0.325699	-0.326296
C36	C	1.269544	0.825699	0.173704
C37	C	0.699576	0.325732	-0.326277
C38	C	1.199576	0.825732	0.173723
C39	C	0.939468	0.318226	-0.510258
C40	C	1.439468	0.818226	-0.010258
C41	C	0.942183	0.315058	-0.588617
C42	C	1.442183	0.815058	-0.088617
C43	C	0.939342	0.508814	-0.319001
C44	C	1.439342	1.008814	0.180999
C45	C	0.942072	0.587167	-0.315869
C46	C	1.442072	1.087167	0.184131
C47	C	0.669821	0.369060	-0.369476
C48	C	1.169821	0.869060	0.130524
C49	C	0.604079	0.369041	-0.369509
C50	C	1.104079	0.869041	0.130491
C51	C	0.568094	0.325703	-0.326328
C52	C	1.068094	0.825703	0.173672
C53	C	0.597857	0.282367	-0.283126
C54	C	1.097857	0.782367	0.216874
C55	C	0.663598	0.282382	-0.283100
C56	C	1.163598	0.782382	0.216900
N57	N	0.462509	0.322673	-0.264890
N58	N	0.962509	0.822673	0.235110
N59	N	0.400058	0.322663	-0.264916
N60	N	0.900058	0.822663	0.235084
C61	C	0.370021	0.325655	-0.326405
C62	C	0.870021	0.825655	0.173595
N63	N	0.404794	0.328671	-0.387867
N64	N	0.904794	0.828671	0.112133
N65	N	0.467251	0.328685	-0.387840
N66	N	0.967251	0.828685	0.112160
C67	C	0.496809	0.325682	-0.326352
C68	C	0.996809	0.825682	0.173648
C69	C	0.268981	0.368964	-0.369644
C70	C	0.768981	0.868964	0.130356
C71	C	0.203237	0.368941	-0.369677
C72	C	0.703237	0.868941	0.130323
C73	C	0.197017	0.282271	-0.283288
C74	C	0.697017	0.782271	0.216712
C75	C	0.262759	0.282290	-0.283260
C76	C	0.762759	0.782290	0.216740
C77	C	0.298737	0.325641	-0.326437
C78	C	0.798737	0.825641	0.173563
C79	C	1.097289	0.325618	-0.326462
C80	C	1.597289	0.825618	0.173538
C81	C	1.167257	0.325601	-0.326497
C82	C	1.667257	0.825601	0.173503
C83	C	0.926845	0.141787	-0.333800
C84	C	1.426845	0.641787	0.166200
C85	C	0.924181	0.063432	-0.336963
C86	C	1.424181	0.563432	0.163037
C87	C	0.904630	0.622193	-0.359424
C88	C	1.404630	1.122193	0.140576
C89	C	0.907198	0.695814	-0.356478
C90	C	1.407198	1.195814	0.143522
C91	C	0.947211	0.734409	-0.309979
C92	C	1.447211	1.234409	0.190021
C93	C	0.984655	0.699379	-0.266419
C94	C	1.484655	1.199379	0.233581
C95	C	0.982083	0.625759	-0.269362
C96	C	1.482083	1.125759	0.230638
C97	C	0.959052	0.954782	-0.296346
C98	C	1.459052	1.454782	0.203654
C99	C	0.961622	1.028407	-0.293407
C100	C	1.461622	1.528407	0.206593
C101	C	0.884165	1.024837	-0.383466
C102	C	1.384165	1.524837	0.116534
C103	C	0.881599	0.951216	-0.386408
C104	C	1.381599	1.451216	0.113592
C105	C	0.919040	0.916192	-0.342845
C106	C	1.419040	1.416192	0.157155
N107	N	0.949839	0.809662	-0.306968
N108	N	1.449839	1.309662	0.193032
N109	N	0.916409	0.840940	-0.345853
N110	N	1.416409	1.340940	0.154147
C111	C	0.904734	0.358659	-0.623591
C112	C	1.404734	0.858659	-0.123591
C113	C	0.907290	0.355683	-0.697218
C114	C	1.407290	0.855683	-0.197218
C115	C	0.947292	0.309102	-0.735869
C116	C	1.447292	0.809102	-0.235869
C117	C	0.984745	0.265499	-0.700889
C118	C	1.484745	0.765499	-0.200889
C119	C	0.982192	0.268479	-0.627264
C120	C	1.482192	0.768479	-0.127264
C121	C	0.959084	0.295357	-0.956261
C122	C	1.459084	0.795357	-0.456261
C123	C	0.961634	0.292379	-1.029891
C124	C	1.461634	0.792379	-0.529891
C125	C	0.884179	0.382564	-1.026215
C126	C	1.384179	0.882564	-0.526215
C127	C	0.881627	0.385537	-0.952588
C128	C	1.381627	0.885537	-0.452588
C129	C	0.919082	0.341937	-0.917616
C130	C	1.419082	0.841937	-0.417616
N131	N	0.949905	0.306057	-0.811127
N132	N	1.449905	0.806057	-0.311127
N133	N	0.916472	0.344986	-0.842359
N134	N	1.416472	0.844986	-0.342359
C135	C	0.926785	0.333011	-0.143216
C136	C	1.426785	0.833011	0.356784
C137	C	0.924185	0.335980	-0.064866
C138	C	1.424185	0.835980	0.435134
H139	H	0.699110	0.404358	-0.404635
H140	H	1.199110	0.904358	0.095365
C141	C	0.170845	0.416029	-0.416468
C142	C	0.670845	0.916029	0.083532
C143	C	0.133192	0.462740	-0.374672
C144	C	0.633192	0.962740	0.125328
C145	C	0.103335	0.506122	-0.417751
C146	C	0.603335	1.006122	0.082249
H147	H	0.201619	0.441915	-0.442190
H148	H	0.701619	0.941915	0.057810
H149	H	0.145347	0.387882	-0.448314
H150	H	0.645347	0.887882	0.051686
H151	H	0.158688	0.490884	-0.342838
H152	H	0.658688	0.990884	0.157162
H153	H	0.102406	0.436873	-0.348951
H154	H	0.602406	0.936873	0.151049
H155	H	0.077837	0.477974	-0.449598
H156	H	0.577837	0.977974	0.050402
H157	H	0.134113	0.532003	-0.443471
H158	H	0.634113	1.032003	0.056529
H159	H	0.077779	0.537816	-0.389400
H160	H	0.577779	1.037816	0.110600
C161	C	0.861392	0.409355	-0.581659
C162	C	1.361392	0.909355	-0.081659
C163	C	0.878110	0.478374	-0.596751
C164	C	1.378110	0.978374	-0.096751
C165	C	0.838207	0.525099	-0.558130
C166	C	1.338207	1.025099	-0.058130
H167	H	0.819141	0.398663	-0.594082
H168	H	1.319141	0.898663	-0.094082
H169	H	0.865244	0.404933	-0.532793
H170	H	1.365244	0.904933	-0.032793
H171	H	0.874253	0.482794	-0.645606
H172	H	1.374253	0.982794	-0.145606
H173	H	0.920355	0.489089	-0.584325
H174	H	1.420355	0.989089	-0.084325
H175	H	0.842059	0.520677	-0.509264
H176	H	1.342059	1.020677	-0.009264
H177	H	0.795959	0.514400	-0.570556
H178	H	1.295959	1.014400	-0.070556
H179	H	0.849548	0.571934	-0.568359
H180	H	1.349548	1.071934	-0.068359
C181	C	1.028015	0.741241	-0.215812
C182	C	1.528015	1.241241	0.284188
C183	C	1.011301	0.726208	-0.146757
C184	C	1.511301	1.226208	0.353243
C185	C	1.051227	0.764760	-0.100117
C186	C	1.551227	1.264760	0.399883
H187	H	1.070259	0.728725	-0.226577
H188	H	1.570259	1.228725	0.273423
H189	H	1.024183	0.790114	-0.220244
H190	H	1.524183	1.290114	0.279756
H191	H	1.015139	0.677346	-0.142327
H192	H	1.515139	1.177346	0.357673
H193	H	0.969064	0.738726	-0.135969
H194	H	1.469064	1.238726	0.364031
H195	H	1.047395	0.813633	-0.104549
H196	H	1.547395	1.313633	0.395451
H197	H	1.093468	0.752241	-0.110888
H198	H	1.593468	1.252241	0.389112
H199	H	1.039889	0.754570	-0.053257
H200	H	1.539889	1.254570	0.446743
H201	H	1.017319	0.227575	-0.732365
H202	H	1.517319	0.727575	-0.232365
H203	H	1.012571	0.597242	-0.233893
H204	H	1.512571	1.097242	0.266107
C205	C	0.571880	0.416157	-0.416442
C206	C	1.071880	0.916157	0.083558
C207	C	0.617459	0.454132	-0.454239
C208	C	1.117459	0.954132	0.045761
C209	C	0.587824	0.497546	-0.497475
C210	C	1.087824	0.997546	0.002525
H211	H	0.546420	0.388062	-0.448355
H212	H	1.046420	0.888062	0.051645
H213	H	0.546326	0.447952	-0.388212
H214	H	1.046326	0.947952	0.111788
H215	H	0.643003	0.422340	-0.482466
H216	H	1.143003	0.922340	0.017534
H217	H	0.642922	0.482240	-0.422344
H218	H	1.142922	0.982240	0.077656
H219	H	0.562269	0.529341	-0.469246
H220	H	1.062269	1.029341	0.030754
H221	H	0.562364	0.469446	-0.529384
H222	H	1.062364	0.969446	-0.029384
H223	H	0.618745	0.523322	-0.523121
H224	H	1.118745	1.023322	-0.023121
C225	C	0.838257	0.909279	-0.436980
C226	C	1.338257	1.409279	0.063020
C227	C	0.873954	0.865132	-0.483923
C228	C	1.373954	1.365132	0.016077
C229	C	0.834050	0.826499	-0.530529
C230	C	1.334050	1.326499	-0.030529
H231	H	0.808899	0.881639	-0.411205
H232	H	1.308899	1.381639	0.088795
H233	H	0.816338	0.940664	-0.462538
H234	H	1.316338	1.440664	0.037462
H235	H	0.895862	0.833751	-0.458368
H236	H	1.395862	1.333751	0.041632
H237	H	0.903310	0.892754	-0.509714
H238	H	1.403310	1.392754	-0.009714
H239	H	0.812131	0.857883	-0.556086
H240	H	1.312131	1.357883	-0.056086
H241	H	0.804693	0.798863	-0.504748
H242	H	1.304693	1.298863	-0.004748
H243	H	0.858264	0.796545	-0.562389
H244	H	1.358264	1.296545	-0.062389
H245	H	0.167719	0.246981	-0.248133
H246	H	0.667719	0.746981	0.251867
H247	H	0.687824	0.247097	-0.247921
H248	H	1.187824	0.747097	0.252079
C249	C	0.558681	0.235395	-0.236262
C250	C	1.058681	0.735395	0.263738
C251	C	0.494738	0.244672	-0.245513
C252	C	0.994738	0.744672	0.254487
C253	C	0.458632	0.201417	-0.202346
C254	C	0.958632	0.701417	0.297654
H255	H	0.568146	0.187600	-0.248513
H256	H	1.068146	0.687600	0.251487
H257	H	0.568092	0.247566	-0.188446
H258	H	1.068092	0.747566	0.311554
H259	H	0.485332	0.232495	-0.293317
H260	H	0.985332	0.732495	0.206683
H261	H	0.485254	0.292458	-0.233257
H262	H	0.985254	0.792458	0.266743
H263	H	0.468043	0.213589	-0.154531
H264	H	0.968043	0.713589	0.345469
H265	H	0.468103	0.153625	-0.214601
H266	H	0.968103	0.653625	0.285399
H267	H	0.415243	0.207711	-0.208612
H268	H	0.915243	0.707711	0.291388
C269	C	0.307938	0.416043	-0.416604
C270	C	0.807938	0.916043	0.083396
C271	C	0.267805	0.453965	-0.454465
C272	C	0.767805	0.953965	0.045535
C273	C	0.303667	0.497333	-0.497740
C274	C	0.803667	0.997333	0.002260
H275	H	0.333667	0.447877	-0.388418
H276	H	0.833667	0.947877	0.111582
H277	H	0.333754	0.387899	-0.448473
H278	H	0.833754	0.887899	0.051527
H279	H	0.242000	0.482108	-0.422599
H280	H	0.742000	0.982108	0.077401
H281	H	0.242075	0.422150	-0.482664
H282	H	0.742075	0.922150	0.017336
H283	H	0.329484	0.469188	-0.529609
H284	H	0.829484	0.969188	-0.029609
H285	H	0.329395	0.529162	-0.469548
H286	H	0.829395	1.029162	0.030452
H287	H	0.276443	0.523063	-0.523438
H288	H	0.776443	1.023063	-0.023438
H289	H	0.853682	1.053362	-0.418931
H290	H	1.353682	1.553362	0.081069
C291	C	0.294951	0.235230	-0.236274
C292	C	0.794951	0.735230	0.263726
C293	C	0.249369	0.197284	-0.198451
C294	C	0.749369	0.697284	0.301549
C295	C	0.279001	0.153928	-0.155154
C296	C	0.779001	0.653928	0.344846
H297	H	0.320518	0.203411	-0.264442
H298	H	0.820518	0.703411	0.235558
H299	H	0.320400	0.263384	-0.204382
H300	H	0.820400	0.763384	0.295618
H301	H	0.223932	0.169132	-0.230340
H302	H	0.723932	0.669132	0.269660
H303	H	0.223801	0.229085	-0.170270
H304	H	0.723801	0.729085	0.329730
H305	H	0.304450	0.182082	-0.123262
H306	H	0.804450	0.682082	0.376738
H307	H	0.304567	0.122114	-0.183327
H308	H	0.804567	0.622114	0.316673
H309	H	0.248079	0.128181	-0.129481
H310	H	0.748079	0.628181	0.370519
H311	H	0.994210	1.059829	-0.255543
H312	H	1.494210	1.559829	0.244457
H313	H	0.872050	0.590773	-0.397291
H314	H	1.372050	1.090773	0.102709
H315	H	0.876797	0.391189	-0.725690
H316	H	1.376797	0.891189	-0.225690
C317	C	1.022875	0.221057	-0.589420
C318	C	1.522875	0.721057	-0.089420
C319	C	1.058441	0.179611	-0.639025
C320	C	1.558441	0.679611	-0.139025
C321	C	1.095923	0.135911	-0.604190
C322	C	1.595923	0.635911	-0.104190
H323	H	1.050277	0.249102	-0.559625
H324	H	1.550277	0.749102	-0.059625
H325	H	0.996768	0.191471	-0.561941
H326	H	1.496768	0.691471	-0.061941
H327	H	1.084546	0.209193	-0.666492
H328	H	1.584546	0.709193	-0.166492
H329	H	1.031056	0.151551	-0.668821
H330	H	1.531056	0.651551	-0.168821
H331	H	1.069816	0.106325	-0.576712
H332	H	1.569816	0.606325	-0.076712
H333	H	1.123321	0.163962	-0.574397
H334	H	1.623321	0.663962	-0.074397
H335	H	1.120055	0.107780	-0.637842
H336	H	1.620055	0.607780	-0.137842
C337	C	0.866521	0.733711	-0.403851
C338	C	1.366521	1.233711	0.096149
C339	C	0.830944	0.684154	-0.445218
C340	C	1.330944	1.184154	0.054782
C341	C	0.793469	0.719038	-0.488873
C342	C	1.293469	1.219038	0.011127
H343	H	0.839127	0.763568	-0.375773
H344	H	1.339127	1.263568	0.124227
H345	H	0.892633	0.761128	-0.433492
H346	H	1.392633	1.261128	0.066508
H347	H	0.804835	0.656749	-0.415580
H348	H	1.304835	1.156749	0.084420
H349	H	0.858322	0.654296	-0.473309
H350	H	1.358322	1.154296	0.026691
H351	H	0.819580	0.746455	-0.518514
H352	H	1.319580	1.246455	-0.018514
H353	H	0.766078	0.748893	-0.460790
H354	H	1.266078	1.248893	0.039210
H355	H	0.769329	0.685418	-0.516950
H356	H	1.269329	1.185418	-0.016950
H357	H	0.849063	0.423480	-0.921123
H358	H	1.349063	0.923480	-0.421123
H359	H	0.994206	0.254440	-1.061360
H360	H	1.494206	0.754440	-0.561360
H361	H	0.989539	0.926271	-0.260876
H362	H	1.489539	1.426271	0.239124
C363	C	0.843594	0.429873	-1.064314
C364	C	1.343594	0.929873	-0.564314
C365	C	0.854401	0.417310	-1.137064
C366	C	1.354401	0.917310	-0.637064
C367	C	0.817032	0.460889	-1.172182
C368	C	1.317032	0.960889	-0.672182
H369	H	0.800507	0.420099	-1.052728
H370	H	1.300507	0.920099	-0.552728
H371	H	0.854009	0.477737	-1.050381
H372	H	1.354009	0.977737	-0.550381
H373	H	0.843981	0.369457	-1.150992
H374	H	1.343981	0.869457	-0.650992
H375	H	0.897480	0.427089	-1.148671
H376	H	1.397480	0.927089	-0.648671
H377	H	0.827447	0.508753	-1.158249
H378	H	1.327447	1.008753	-0.658249
H379	H	0.773947	0.451111	-1.160590
H380	H	1.273947	0.951111	-0.660590
H381	H	0.824364	0.452376	-1.221546
H382	H	1.324364	0.952376	-0.721546
C383	C	0.999770	0.247933	-0.918427
C384	C	1.499770	0.747933	-0.418427
C385	C	1.035332	0.206488	-0.968038
C386	C	1.535332	0.706488	-0.468038
C387	C	1.072813	0.162784	-0.933208
C388	C	1.572813	0.662784	-0.433208
H389	H	1.027174	0.275975	-0.888633
H390	H	1.527174	0.775975	-0.388633
H391	H	0.973663	0.218347	-0.890949
H392	H	1.473663	0.718347	-0.390949
H393	H	1.061437	0.236071	-0.995504
H394	H	1.561437	0.736071	-0.495504
H395	H	1.007944	0.178432	-0.997834
H396	H	1.507944	0.678432	-0.497834
H397	H	1.046706	0.133198	-0.905730
H398	H	1.546706	0.633198	-0.405730
H399	H	1.100214	0.190831	-0.903416
H400	H	1.600214	0.690831	-0.403416
H401	H	1.096942	0.134653	-0.966864
H402	H	1.596942	0.634653	-0.466864
