data_functionalizedCrystal
_audit_creation_method	'MofGen! by Chris Wilmer'
_symmetry_space_group_name_H-M	'P1'
_symmetry_Int_Tables_number	1
_symmetry_cell_setting	triclinic
loop_
_symmetry_equiv_pos_as_xyz
  x,y,z
_cell_length_a	6.817900
_cell_length_b	9.582889
_cell_length_c	14.858572
_cell_angle_alpha	92.654507
_cell_angle_beta	104.524003
_cell_angle_gamma	111.207298
loop_
_atom_site_label
_atom_site_type_symbol
_atom_site_fract_x
_atom_site_fract_y
_atom_site_fract_z
V1	V	-4.078437	-0.207997	-0.289789
V2	V	-3.828437	0.042003	-0.039789
V3	V	-3.578437	0.292003	0.210211
V4	V	-3.328437	0.542003	0.460211
O5	O	-4.023872	0.009026	-0.284448
O6	O	-3.773872	0.259026	-0.034448
O7	O	-3.523872	0.509026	0.215552
O8	O	-3.273872	0.759026	0.465552
O9	O	-4.069125	-0.411491	-0.287639
O10	O	-3.819125	-0.161491	-0.037639
O11	O	-3.569125	0.088509	0.212361
O12	O	-3.319125	0.338509	0.462361
O13	O	-4.034542	-0.205223	-0.416253
O14	O	-3.784542	0.044777	-0.166253
O15	O	-3.534542	0.294777	0.083747
O16	O	-3.284542	0.544777	0.333747
O17	O	-4.058694	-0.198670	-0.154943
O18	O	-3.808694	0.051330	0.095057
O19	O	-3.558694	0.301330	0.345057
O20	O	-3.308694	0.551330	0.595057
V21	V	-4.556417	-0.181988	-0.273681
V22	V	-4.306417	0.068012	-0.023681
V23	V	-4.056417	0.318012	0.226319
V24	V	-3.806417	0.568012	0.476319
O25	O	-4.351856	-0.265049	-0.325124
O26	O	-4.101856	-0.015049	-0.075124
O27	O	-3.851856	0.234951	0.174876
O28	O	-3.601856	0.484951	0.424876
O29	O	-4.733195	-0.124936	-0.238346
O30	O	-4.483195	0.125064	0.011654
O31	O	-4.233195	0.375064	0.261654
O32	O	-3.983195	0.625064	0.511654
O33	O	-4.342523	0.021506	-0.275831
O34	O	-4.092523	0.271506	-0.025831
O35	O	-3.842523	0.521506	0.224169
O36	O	-3.592523	0.771506	0.474169
O37	O	-4.728379	-0.399011	-0.279022
O38	O	-4.478379	-0.149011	-0.029022
O39	O	-4.228379	0.100989	0.220978
O40	O	-3.978379	0.350989	0.470978
O41	O	-4.693557	-0.191315	-0.408527
O42	O	-4.443557	0.058685	-0.158527
O43	O	-4.193557	0.308685	0.091473
O44	O	-3.943557	0.558685	0.341473
O45	O	-4.377105	-0.184763	-0.147217
O46	O	-4.127105	0.065237	0.102783
O47	O	-3.877105	0.315237	0.352783
O48	O	-3.627105	0.565237	0.602783
C49	C	-3.923489	-0.461085	-0.283024
C50	C	-3.673489	-0.211085	-0.033024
C51	C	-3.423489	0.038915	0.216976
C52	C	-3.173489	0.288915	0.466976
C53	C	-3.997191	-0.627447	-0.282108
C54	C	-3.747191	-0.377447	-0.032108
C55	C	-3.497191	-0.127447	0.217892
C56	C	-3.247191	0.122553	0.467892
C57	C	-3.879374	-0.197968	-0.447083
C58	C	-3.629374	0.052032	-0.197083
C59	C	-3.379374	0.302032	0.052917
C60	C	-3.129374	0.552032	0.302917
C61	C	-3.925027	-0.197046	-0.550467
C62	C	-3.675027	0.052954	-0.300467
C63	C	-3.425027	0.302954	-0.050467
C64	C	-3.175027	0.552954	0.199533
C65	C	-4.092119	-0.193678	-0.929038
C66	C	-3.842119	0.056322	-0.679038
C67	C	-3.592119	0.306322	-0.429038
C68	C	-3.342119	0.556322	-0.179038
C69	C	-4.045621	-0.194615	-0.823707
C70	C	-3.795621	0.055385	-0.573707
C71	C	-3.545621	0.305385	-0.323707
C72	C	-3.295621	0.555385	-0.073707
C73	C	-4.008575	-0.195363	-0.739756
C74	C	-3.758575	0.054637	-0.489756
C75	C	-3.508575	0.304637	-0.239756
C76	C	-3.258575	0.554637	0.010244
C77	C	-3.962073	-0.196298	-0.634419
C78	C	-3.712073	0.053702	-0.384419
C79	C	-3.462073	0.303702	-0.134419
C80	C	-3.212073	0.553702	0.115581
C81	C	-4.151502	0.071092	-0.280444
C82	C	-3.901502	0.321092	-0.030444
C83	C	-3.651502	0.571092	0.219556
C84	C	-3.401502	0.821092	0.469556
C85	C	-4.057038	0.237452	-0.281365
C86	C	-3.807038	0.487452	-0.031365
C87	C	-3.557038	0.737452	0.218635
C88	C	-3.307038	0.987452	0.468635
C89	C	-4.195616	-0.192022	-0.116382
C90	C	-3.945616	0.057978	0.133618
C91	C	-3.695616	0.307978	0.383618
C92	C	-3.445616	0.557978	0.633618
C93	C	-4.129200	-0.192937	-0.012998
C94	C	-3.879200	0.057063	0.237002
C95	C	-3.629200	0.307063	0.487002
C96	C	-3.379200	0.557063	0.737002
