data_functionalizedCrystal
_audit_creation_method	'MofGen! by Chris Wilmer'
_symmetry_space_group_name_H-M	'P1'
_symmetry_Int_Tables_number	1
_symmetry_cell_setting	triclinic
loop_
_symmetry_equiv_pos_as_xyz
  x,y,z
_cell_length_a	10.540539
_cell_length_b	23.532407
_cell_length_c	9.616153
_cell_angle_alpha	89.993077
_cell_angle_beta	89.995174
_cell_angle_gamma	83.687085
loop_
_atom_site_label
_atom_site_type_symbol
_atom_site_fract_x
_atom_site_fract_y
_atom_site_fract_z
O1	O	1.683259	0.080251	-0.115596
O2	O	1.313597	0.087813	-0.115615
O3	O	1.509575	0.001174	-0.115579
O4	O	1.487281	0.166890	-0.115631
O5	O	1.509548	0.001176	0.115712
O6	O	1.313571	0.087814	0.115677
O7	O	1.683232	0.080253	0.115695
Zn8	Zn	1.498397	0.084034	0.152408
Zn9	Zn	1.498432	0.084032	-0.152328
O10	O	1.487254	0.166892	0.115660
C11	C	1.266300	0.087246	0.000029
C12	C	1.125407	0.085550	0.000023
C13	C	0.944114	0.020541	0.000583
C14	C	1.090676	0.022261	0.000047
C15	C	1.062750	0.116006	-0.132060
C16	C	0.916277	0.113846	-0.132156
C17	C	0.915716	0.115136	0.130865
C18	C	1.062678	0.115719	0.132597
C19	C	1.508994	-0.020045	0.000070
C20	C	1.507287	-0.083273	0.000080
C21	C	1.612557	-0.481681	0.000010
C22	C	1.610971	-0.541092	-0.000001
O23	O	1.708557	-0.577192	-0.000048
N24	N	1.494462	-0.564488	-0.000006
C25	C	1.379532	-0.528469	-0.000014
O26	O	1.280287	-0.553824	-0.000021
C27	C	1.381119	-0.469060	-0.000014
C28	C	1.497635	-0.445667	0.000005
C29	C	1.729064	-0.458288	0.000027
C30	C	1.730649	-0.398882	0.000040
C31	C	1.615727	-0.362868	0.000036
C32	C	1.499220	-0.386261	0.000019
C33	C	1.266190	-0.433042	-0.000032
C34	C	1.267787	-0.373629	-0.000032
C35	C	1.384303	-0.350237	-0.000013
C36	C	1.385883	-0.290840	0.000028
N37	N	1.502392	-0.267444	0.000032
C38	C	1.617314	-0.303458	0.000037
C39	C	1.376208	-0.653234	-0.000018
C40	C	1.374620	-0.712642	-0.000009
C41	C	1.606059	-0.725261	0.000002
C42	C	1.607646	-0.665851	0.000002
C43	C	1.492717	-0.629838	-0.000013
C44	C	1.620634	-0.178700	0.000066
C45	C	1.622209	-0.119287	0.000085
C46	C	1.390770	-0.106674	0.000067
C47	C	1.389194	-0.166081	0.000055
C48	C	1.504137	-0.202093	0.000050
O49	O	1.288349	-0.254705	0.000068
O50	O	1.716543	-0.278095	0.000025
C51	C	1.730530	0.080819	0.000049
C52	C	1.871422	0.082516	0.000045
C53	C	1.487835	0.188111	0.000008
C54	C	1.489542	0.251339	-0.000012
N55	N	1.498382	0.084035	0.360383
N56	N	1.498457	0.084026	-0.360302
C57	C	1.393237	0.130226	0.580734
C58	C	1.393459	0.130399	0.419567
C59	C	1.630662	0.097553	0.418834
C60	C	1.630087	0.097880	0.580052
C61	C	1.472575	0.024176	0.580312
C62	C	1.469515	0.024564	0.419085
H63	H	1.106044	0.094848	-0.230346
C64	C	1.338069	0.010720	0.367488
H65	H	1.300930	0.041051	0.310401
H66	H	1.284138	0.006303	0.444996
H67	H	1.348051	-0.023733	0.315204
C68	C	1.750381	-0.093559	0.000097
H69	H	1.818594	-0.123520	0.000083
H70	H	1.755809	-0.070652	0.080757
H71	H	1.755820	-0.070641	-0.080566
H72	H	1.702524	-0.646810	0.000017
H73	H	0.888817	0.091335	-0.230875
C74	C	1.246456	-0.738370	-0.000014
H75	H	1.261958	-0.778911	-0.000010
H76	H	1.199180	-0.726032	-0.080670
H77	H	1.199166	-0.726045	0.080653
C78	C	1.141360	-0.334018	-0.000044
H79	H	1.071749	-0.356462	-0.000046
H80	H	1.137176	-0.310573	-0.080695
H81	H	1.137153	-0.310587	0.080628
C82	C	1.738983	0.054196	0.632756
H83	H	1.739366	0.054098	0.731550
H84	H	1.818308	0.064357	0.599514
H85	H	1.726443	0.017180	0.599729
H86	H	0.866815	0.159363	-0.138165
H87	H	1.294574	0.122217	0.619543
H88	H	1.282612	-0.623914	-0.000019
C89	C	1.345135	0.006807	0.635283
H90	H	1.306517	0.035898	0.694971
H91	H	1.360410	-0.028037	0.685504
H92	H	1.289839	0.001860	0.559275
H93	H	1.294317	-0.185128	0.000078
C94	C	1.732476	-0.764881	-0.000004
H95	H	1.802100	-0.742444	0.000012
H96	H	1.736668	-0.788314	-0.080663
H97	H	1.736653	-0.788323	0.080660
C98	C	1.118954	0.085658	0.264608
H99	H	1.080623	0.104101	0.344451
H100	H	1.208487	0.087548	0.267045
H101	H	1.102451	0.046777	0.263778
C102	C	1.093338	0.178055	0.143355
H103	H	1.054263	0.195209	0.224343
H104	H	1.061526	0.198692	0.063482
H105	H	1.183149	0.178721	0.148897
H106	H	1.297204	-0.077341	0.000068
C107	C	0.874008	0.087469	0.266121
H108	H	0.901677	0.107797	0.343792
H109	H	0.910975	0.048826	0.270189
H110	H	0.783628	0.088721	0.267828
H111	H	1.549315	-0.010211	0.618442
H112	H	1.714231	-0.208014	0.000056
C113	C	1.415144	0.189873	0.635412
H114	H	1.488138	0.186743	0.694014
H115	H	1.342491	0.205432	0.686731
H116	H	1.428345	0.214239	0.559212
C117	C	1.858817	-0.373158	0.000035
H118	H	1.927023	-0.403121	0.000019
H119	H	1.864259	-0.350247	0.080687
H120	H	1.864253	-0.350243	-0.080636
H121	H	1.541225	-0.011468	0.378804
H122	H	1.653008	0.141545	0.617628
C123	C	1.090892	0.178792	-0.138735
H124	H	1.141230	0.187007	-0.060845
H125	H	1.012834	0.203168	-0.137513
H126	H	1.136003	0.184930	-0.221963
C127	C	1.855489	-0.497895	0.000043
H128	H	1.925092	-0.475446	0.000064
H129	H	1.859713	-0.521333	-0.080608
H130	H	1.859672	-0.521333	0.080715
H131	H	0.866988	0.160849	0.131743
C132	C	1.138020	-0.458761	-0.000065
H133	H	1.069816	-0.428796	-0.000086
H134	H	1.132557	-0.481680	0.080584
H135	H	1.132602	-0.481666	-0.080739
C136	C	1.415677	0.190382	0.367421
H137	H	1.424614	0.214737	0.444768
H138	H	1.344987	0.205567	0.312588
H139	H	1.491163	0.187848	0.312751
C140	C	1.149298	-0.010112	0.127952
H141	H	1.083549	-0.024438	0.180706
H142	H	1.191861	0.015162	0.183815
H143	H	1.208634	-0.041043	0.098241
C144	C	1.662395	0.155873	0.364266
H145	H	1.742628	0.163670	0.400213
H146	H	1.598130	0.184917	0.393344
H147	H	1.666021	0.155007	0.265567
C148	C	0.906585	-0.013236	0.128544
H149	H	0.846241	0.010152	0.182786
H150	H	0.980372	-0.024385	0.182926
H151	H	0.869959	-0.046311	0.098858
H152	H	1.710791	0.064822	0.380495
C153	C	0.904424	-0.013098	-0.126637
H154	H	0.843749	0.010463	-0.180082
H155	H	0.867629	-0.046029	-0.096251
H156	H	0.977414	-0.024471	-0.182084
C157	C	1.148167	-0.010332	-0.128072
H158	H	1.238042	-0.009395	-0.128833
H159	H	1.112344	0.007185	-0.210226
H160	H	1.129601	-0.048901	-0.124186
H161	H	1.295109	0.122265	0.380050
