data_functionalizedCrystal
_audit_creation_method	'MofGen! by Chris Wilmer'
_symmetry_space_group_name_H-M	'P1'
_symmetry_Int_Tables_number	1
_symmetry_cell_setting	triclinic
loop_
_symmetry_equiv_pos_as_xyz
  x,y,z
_cell_length_a	19.288864
_cell_length_b	15.995350
_cell_length_c	17.766277
_cell_angle_alpha	89.995869
_cell_angle_beta	89.976791
_cell_angle_gamma	83.314311
loop_
_atom_site_label
_atom_site_type_symbol
_atom_site_fract_x
_atom_site_fract_y
_atom_site_fract_z
O1	O	0.921624	0.104452	-0.062832
O2	O	0.719400	0.118542	-0.062780
O3	O	0.826040	-0.010412	-0.062807
O4	O	0.814984	0.233405	-0.062805
O5	O	0.826021	-0.010418	0.062382
O6	O	0.719381	0.118535	0.062408
O7	O	0.921605	0.104445	0.062357
Cu8	Cu	0.820492	0.111490	0.073813
Cu9	Cu	0.820514	0.111497	-0.074237
O10	O	0.814965	0.233399	0.062383
C11	C	0.693513	0.118085	-0.000179
C12	C	0.616406	0.116724	-0.000159
C13	C	0.571906	0.192388	-0.000171
C14	C	0.499456	0.191110	-0.000179
C15	C	0.471508	0.114163	-0.000191
C16	C	0.516018	0.038489	-0.000176
C17	C	0.588467	0.039769	-0.000160
C18	C	0.363096	0.053676	-0.044076
C19	C	0.290648	0.052398	-0.044097
C20	C	0.248053	0.110209	-0.000237
C21	C	0.277912	0.169312	0.043634
C22	C	0.350361	0.170593	0.043650
C23	C	0.392951	0.112765	-0.000208
C24	C	0.124993	0.184492	-0.000256
C25	C	0.052542	0.183210	-0.000260
C26	C	0.069106	0.030587	-0.000264
C27	C	0.141556	0.031871	-0.000253
C28	C	0.169495	0.108826	-0.000252
C29	C	0.825574	-0.041608	-0.000214
C30	C	0.824203	-0.134553	-0.000218
C31	C	0.819282	-0.472282	-0.000214
C32	C	0.743335	-0.424562	-0.000475
C33	C	0.744706	-0.327877	-0.000193
C34	C	0.821723	-0.304731	-0.000216
C35	C	0.859172	-0.345953	0.071262
C36	C	0.857264	-0.442582	0.071322
C37	C	0.858855	-0.442939	-0.071041
C38	C	0.858837	-0.345993	-0.071986
C39	C	0.823107	-0.210039	-0.000215
C40	C	0.817901	-0.566975	-0.000210
C41	C	0.947492	0.104902	-0.000246
C42	C	1.024600	0.106263	-0.000271
C43	C	0.815432	0.264595	-0.000211
C44	C	0.816802	0.357540	-0.000212
N45	N	0.820481	0.111484	0.177944
N46	N	0.820530	0.111497	-0.178367
C47	C	0.867717	0.054411	0.217319
C48	C	0.867721	0.054407	0.296120
C49	C	0.820496	0.111490	0.335544
C50	C	0.773251	0.168567	0.296160
C51	C	0.773244	0.168564	0.217359
C52	C	0.811395	0.187781	0.460384
C53	C	0.811407	0.187785	0.539183
C54	C	0.820514	0.111500	0.578590
C55	C	0.829624	0.035208	0.539190
C56	C	0.829617	0.035204	0.460389
C57	C	0.820498	0.111500	0.420990
C58	C	0.867757	0.054419	0.703411
C59	C	0.867756	0.054414	0.782215
C60	C	0.773290	0.168581	0.782252
C61	C	0.773288	0.168579	0.703451
C62	C	0.820525	0.111499	0.664035
H63	H	0.266342	0.004277	-0.079822
C64	C	0.932583	-0.486439	0.075702
H65	H	0.931928	-0.545736	0.075766
H66	H	0.953973	-0.469923	0.120613
H67	H	0.958311	-0.470721	0.033420
H68	H	0.915002	-0.330843	-0.076319
C69	C	0.825321	-0.470548	-0.144230
H70	H	0.786867	-0.500231	-0.132274
H71	H	0.858836	-0.506147	-0.172154
H72	H	0.809552	-0.422288	-0.173408
H73	H	0.624700	-0.021848	-0.000151
H74	H	0.906218	0.007938	0.671318
C75	C	0.409948	-0.009920	-0.092322
H76	H	0.457372	-0.000699	-0.086024
H77	H	0.397306	-0.002770	-0.143791
H78	H	0.404077	-0.065530	-0.076900
H79	H	0.493259	-0.024162	-0.000196
H80	H	0.906219	0.007934	0.814274
C81	C	0.450497	0.274343	-0.000203
H82	H	0.477513	0.320357	-0.000207
H83	H	0.421860	0.277023	0.043442
H84	H	0.421922	0.277004	-0.043875
C85	C	0.704941	-0.289319	-0.069408
H86	H	0.705730	-0.230043	-0.069331
H87	H	0.657965	-0.301633	-0.067630
H88	H	0.726605	-0.312489	-0.113971
H89	H	0.831457	-0.318638	-0.124863
H90	H	0.837032	-0.026916	0.428312
C91	C	0.383209	0.235592	0.091907
H92	H	0.432456	0.228076	0.085629
H93	H	0.372107	0.228022	0.143371
H94	H	0.365335	0.290784	0.076481
H95	H	0.803994	0.249907	0.571257
H96	H	0.712988	-0.442976	-0.051732
H97	H	0.713107	-0.444044	0.050512
C98	C	0.820346	-0.467178	0.143516
H99	H	0.818859	-0.526332	0.144191
H100	H	0.774132	-0.439204	0.144639
H101	H	0.845281	-0.451181	0.186261
H102	H	0.715054	-0.299903	0.051147
C103	C	0.038373	-0.054053	-0.000282
H104	H	-0.011149	-0.043981	-0.000298
H105	H	0.053624	-0.085205	0.043374
H106	H	0.053673	-0.085189	-0.043944
H107	H	0.914850	-0.474911	-0.071538
H108	H	0.594649	0.255051	-0.000172
H109	H	0.915755	-0.332041	0.073903
C110	C	0.801382	0.271700	0.417043
H111	H	0.795969	0.317136	0.451793
H112	H	0.760938	0.273524	0.386322
H113	H	0.841072	0.276217	0.386284
C114	C	0.231066	0.232912	0.091877
H115	H	0.183643	0.223682	0.085592
H116	H	0.236937	0.288517	0.076456
H117	H	0.243711	0.225761	0.143350
C118	C	0.839637	-0.048711	0.582527
H119	H	0.838327	-0.037786	0.635100
H120	H	0.883441	-0.078708	0.569596
H121	H	0.803307	-0.081404	0.569631
C122	C	0.919683	-0.008374	0.339442
H123	H	0.947816	-0.042366	0.304681
H124	H	0.894705	-0.043152	0.370202
H125	H	0.948595	0.021671	0.370161
C126	C	0.721308	0.231360	0.339522
H127	H	0.728082	0.223194	0.392093
H128	H	0.674952	0.222409	0.326637
H129	H	0.728851	0.287221	0.326595
H130	H	0.833147	-0.317477	0.124469
C131	C	0.721343	0.231372	0.825609
H132	H	0.728114	0.223204	0.878179
H133	H	0.674989	0.222422	0.812720
H134	H	0.728888	0.287233	0.812685
C135	C	0.721336	0.231369	0.660136
H136	H	0.693214	0.265371	0.694899
H137	H	0.692422	0.201339	0.629413
H138	H	0.746323	0.266149	0.629381
C139	C	0.721288	0.231353	0.174045
H140	H	0.693164	0.265353	0.208807
H141	H	0.692376	0.201322	0.143319
H142	H	0.746276	0.266134	0.143292
H143	H	0.016310	0.244828	-0.000265
C144	C	0.919668	-0.008384	0.173965
H145	H	0.947796	-0.042380	0.208707
H146	H	0.948576	0.021643	0.143203
H147	H	0.894676	-0.043168	0.143247
C148	C	0.155733	0.269135	-0.000247
H149	H	0.205255	0.259061	-0.000246
H150	H	0.140436	0.300276	0.043408
H151	H	0.140479	0.300281	-0.043909
C152	C	0.190508	-0.051361	-0.000252
H153	H	0.163489	-0.097372	-0.000266
H154	H	0.219092	-0.054038	0.043409
H155	H	0.219135	-0.054028	-0.043909
