data_functionalizedCrystal
_audit_creation_method	'MofGen! by Chris Wilmer'
_symmetry_space_group_name_H-M	'P1'
_symmetry_Int_Tables_number	1
_symmetry_cell_setting	triclinic
loop_
_symmetry_equiv_pos_as_xyz
  x,y,z
_cell_length_a	11.169417
_cell_length_b	19.076919
_cell_length_c	11.169409
_cell_angle_alpha	92.339074
_cell_angle_beta	89.980487
_cell_angle_gamma	87.668522
loop_
_atom_site_label
_atom_site_type_symbol
_atom_site_fract_x
_atom_site_fract_y
_atom_site_fract_z
Zn1	Zn	1.815588	0.280138	-0.659268
Zn2	Zn	1.807335	0.397866	-0.450489
Zn3	Zn	1.614871	0.280182	-0.458601
Zn4	Zn	1.606743	0.397810	-0.651139
O5	O	1.711134	0.338999	-0.554874
O6	O	1.982443	0.295761	-0.631580
O7	O	1.781752	0.382297	-0.283612
O8	O	1.648352	0.181679	-0.492016
O9	O	1.976379	0.382255	-0.478191
O10	O	1.795818	0.181647	-0.639446
O11	O	1.640349	0.295835	-0.289572
O12	O	1.445843	0.295780	-0.484134
O13	O	1.634499	0.382159	-0.820170
O14	O	1.439872	0.382201	-0.625591
O15	O	1.787937	0.295706	-0.826142
O16	O	1.773871	0.496356	-0.470309
O17	O	1.626497	0.496315	-0.617725
C18	C	1.399310	0.338990	-0.554861
C19	C	1.265910	0.339003	-0.554883
C20	C	1.698439	0.521874	-0.542281
C21	C	1.693118	0.600109	-0.536934
C22	C	1.767338	0.636787	-0.611242
C23	C	1.762334	0.710297	-0.606220
C24	C	1.683114	0.747128	-0.526882
C25	C	1.608885	0.710445	-0.452571
C26	C	1.613885	0.636937	-0.457600
C27	C	1.659929	0.966983	-0.503609
C28	C	1.654938	1.040497	-0.498583
C29	C	1.808385	1.040344	-0.652235
C30	C	1.813383	0.966834	-0.657252
C31	C	1.739150	0.930158	-0.582945
N32	N	1.677999	0.822267	-0.521744
N33	N	1.744259	0.855020	-0.588090
C34	C	2.024176	0.339009	-0.554888
C35	C	2.157576	0.339013	-0.554894
C36	C	1.711232	0.338921	-0.867922
C37	C	1.711274	0.338888	-1.001324
C38	C	1.723862	1.155410	-0.567530
C39	C	1.729158	1.077175	-0.572892
C40	C	1.711110	0.339026	-0.243047
C41	C	1.711314	0.338861	-0.109659
H42	H	1.831853	0.606804	-0.675842
O43	O	1.577807	1.076247	-0.421645
C44	C	1.459393	1.058331	-0.448983
H45	H	1.454661	1.038080	-0.546241
H46	H	1.430937	1.015713	-0.387523
C47	C	1.380683	1.148558	-0.311035
C48	C	1.374870	1.123692	-0.430492
H49	H	1.328544	1.188874	-0.299624
H50	H	1.460461	1.160628	-0.292613
H51	H	1.356973	1.113037	-0.259832
H52	H	1.398595	1.159209	-0.481692
H53	H	1.295094	1.111630	-0.448923
O54	O	1.890174	0.930985	-0.734392
C55	C	1.824697	0.888478	-0.814782
H56	H	1.734511	0.877528	-0.773125
H57	H	1.809538	0.916776	-0.901774
C58	C	2.006246	0.832060	-0.892517
C59	C	1.895482	0.818606	-0.841349
H60	H	2.049910	0.788961	-0.908911
H61	H	2.050360	0.860699	-0.838361
H62	H	1.993597	0.855643	-0.965005
H63	H	1.908132	0.795031	-0.768856
H64	H	1.851371	0.789960	-0.895495
H65	H	1.544378	0.740439	-0.387977
H66	H	1.822781	0.740157	-0.666721
O67	O	1.880303	1.076007	-0.724545
C68	C	1.809031	1.118538	-0.799068
H69	H	1.716006	1.096428	-0.807906
H70	H	1.801123	1.174268	-0.758142
C71	C	1.981774	1.146740	-0.912963
C72	C	1.867522	1.119580	-0.923826
H73	H	2.017855	1.147386	-0.989918
H74	H	2.029792	1.118088	-0.862754
H75	H	1.975168	1.193179	-0.878854
H76	H	1.874131	1.073140	-0.957920
H77	H	1.819506	1.148225	-0.974045
O78	O	1.587703	0.931334	-0.431593
C79	C	1.513050	0.888811	-0.502754
H80	H	1.504085	0.910919	-0.595765
H81	H	1.553935	0.833076	-0.510725
C82	C	1.399398	0.860630	-0.329840
C83	C	1.388378	0.887788	-0.444074
H84	H	1.322496	0.859996	-0.293642
H85	H	1.449695	0.889277	-0.281896
H86	H	1.433473	0.814187	-0.336498
H87	H	1.354318	0.934233	-0.437413
H88	H	1.338072	0.859149	-0.492016
H89	H	1.553445	0.607074	-0.397091
