data_functionalizedCrystal
_audit_creation_method	'MofGen! by Chris Wilmer'
_symmetry_space_group_name_H-M	'P1'
_symmetry_Int_Tables_number	1
_symmetry_cell_setting	triclinic
loop_
_symmetry_equiv_pos_as_xyz
  x,y,z
_cell_length_a	27.440280
_cell_length_b	27.440280
_cell_length_c	27.440280
_cell_angle_alpha	59.998992
_cell_angle_beta	90.008003
_cell_angle_gamma	59.999099
loop_
_atom_site_label
_atom_site_type_symbol
_atom_site_fract_x
_atom_site_fract_y
_atom_site_fract_z
Zr1	Zr	0.469480	0.533417	-0.063976
O2	O	0.391656	0.635096	-0.141812
O3	O	0.493340	0.431739	-0.040104
O4	O	0.493335	0.533405	-0.141783
O5	O	0.391663	0.533439	0.040061
O6	O	0.573538	0.533396	-0.141773
O7	O	0.391662	0.533429	-0.040133
O8	O	0.573547	0.351533	0.040112
O9	O	0.391653	0.715302	-0.141825
O10	O	0.563367	0.473554	-0.029929
O11	O	0.503514	0.473568	0.029911
O12	O	0.503508	0.593267	-0.089803
O13	O	0.443654	0.593281	-0.029963
Zr14	Zr	0.597396	0.533417	0.063939
Zr15	Zr	0.597395	0.533402	-0.063960
Zr16	Zr	0.469482	0.533432	0.063923
Zr17	Zr	0.469476	0.661337	-0.063996
Zr18	Zr	0.597401	0.405498	0.063960
O19	O	0.573537	0.635096	0.040067
O20	O	0.573534	0.635075	-0.141789
O21	O	0.391659	0.635118	0.040044
O22	O	0.675220	0.431739	0.141775
O23	O	0.675218	0.431717	-0.040081
O24	O	0.493343	0.431760	0.141752
O25	O	0.675214	0.533396	-0.040097
O26	O	0.573542	0.533429	0.141746
O27	O	0.493339	0.533439	0.141736
O28	O	0.675215	0.533405	0.040096
O29	O	0.493328	0.715290	-0.141812
O30	O	0.573549	0.351545	0.141775
O31	O	0.675223	0.351533	0.141788
O32	O	0.675222	0.351521	0.040125
O33	O	0.391655	0.715314	-0.040162
O34	O	0.493330	0.715302	-0.040149
O35	O	0.563369	0.473568	0.089766
O36	O	0.623223	0.473554	0.029926
O37	O	0.563363	0.593267	-0.029948
O38	O	0.503509	0.593281	0.029892
C39	C	0.533444	0.373410	0.000007
C40	C	0.533446	0.319105	0.000016
C41	C	0.489251	0.026606	-0.044227
C42	C	0.489250	-0.024411	-0.044234
O43	O	0.451684	-0.013218	-0.081831
N44	N	0.533436	-0.094115	-0.000042
C45	C	0.577629	-0.112802	0.044156
O46	O	0.615213	-0.176775	0.081743
C47	C	0.577631	-0.061785	0.044159
C48	C	0.533439	0.007919	-0.000032
C49	C	0.445062	0.096307	-0.088415
C50	C	0.445062	0.147321	-0.088408
C51	C	0.489251	0.128633	-0.044213
C52	C	0.533439	0.058932	-0.000025
C53	C	0.621826	-0.080473	0.088353
C54	C	0.621825	-0.029449	0.088353
C55	C	0.577632	0.040255	0.044161
C56	C	0.577627	0.091258	0.044177
N57	N	0.533441	0.160962	-0.000015
C58	C	0.489253	0.179650	-0.044210
C59	C	0.577621	-0.219937	0.044145
C60	C	0.577617	-0.270953	0.044145
C61	C	0.489239	-0.182558	-0.044245
C62	C	0.489241	-0.131542	-0.044242
C63	C	0.533435	-0.150233	-0.000047
C64	C	0.489256	0.286778	-0.044192
C65	C	0.489258	0.337792	-0.044179
C66	C	0.577638	0.249393	0.044209
C67	C	0.577634	0.198383	0.044199
C68	C	0.533440	0.217081	-0.000007
O69	O	0.615176	0.080117	0.081754
O70	O	0.451680	0.243623	-0.081796
C71	C	0.373437	0.533436	-0.000038
C72	C	0.319134	0.533443	-0.000045
C73	C	0.013683	0.470917	0.031252
C74	C	-0.037336	0.470913	0.031257
O75	O	-0.037150	0.417768	0.057855
N76	N	-0.094099	0.533402	0.000003
C77	C	-0.099842	0.595898	-0.031254
O78	O	-0.152808	0.649049	-0.057837
C79	C	-0.048824	0.595901	-0.031255
C80	C	0.007938	0.533408	-0.000004
C81	C	0.070443	0.408429	0.062501
C82	C	0.121457	0.408433	0.062495
C83	C	0.115712	0.470925	0.031239
C84	C	0.058953	0.533412	-0.000010
C85	C	-0.054569	0.658397	-0.062508
C86	C	-0.003545	0.658395	-0.062506
C87	C	0.053217	0.595902	-0.031255
C88	C	0.104222	0.595908	-0.031272
N89	N	0.160985	0.533420	-0.000018
C90	C	0.166730	0.470928	0.031238
C91	C	-0.206981	0.595887	-0.031248
C92	C	-0.257998	0.595884	-0.031250
C93	C	-0.195488	0.470899	0.031262
C94	C	-0.144470	0.470902	0.031260
C95	C	-0.150218	0.533398	0.000007
C96	C	0.273863	0.470941	0.031222
C97	C	0.324879	0.470951	0.031210
C98	C	0.262365	0.595936	-0.031299
C99	C	0.211352	0.595927	-0.031290
C100	C	0.217105	0.533424	-0.000026
O101	O	0.104083	0.649026	-0.057855
O102	O	0.219698	0.417786	0.057823
C103	C	0.693440	0.533399	0.000002
C104	C	0.747742	0.533392	0.000009
C105	C	0.533436	0.533399	-0.160001
C106	C	0.533435	0.533392	-0.214297
C107	C	0.533432	0.693425	-0.000044
C108	C	0.533430	0.747730	-0.000053
C109	C	0.502197	0.595918	-0.582285
C110	C	0.502199	0.595922	-0.633307
O111	O	0.475644	0.649067	-0.686275
N112	N	0.533444	0.533433	-0.627571
C113	C	0.564695	0.470937	-0.570808
O114	O	0.591272	0.417786	-0.570614
C115	C	0.564696	0.470934	-0.519787
C116	C	0.533444	0.533426	-0.525528
C117	C	0.470949	0.658406	-0.588023
C118	C	0.470946	0.658402	-0.537005
C119	C	0.502192	0.595910	-0.480247
C120	C	0.533441	0.533422	-0.474509
C121	C	0.595949	0.408438	-0.463025
C122	C	0.595949	0.408440	-0.412003
C123	C	0.564696	0.470933	-0.417744
C124	C	0.564685	0.470927	-0.366733
N125	N	0.533440	0.533415	-0.372469
C126	C	0.502194	0.595907	-0.429226
C127	C	0.564690	0.470948	-0.677958
C128	C	0.564686	0.470950	-0.728977
C129	C	0.502191	0.595936	-0.791474
C130	C	0.502192	0.595933	-0.740453
C131	C	0.533445	0.533437	-0.683694
C132	C	0.502191	0.595894	-0.322081
C133	C	0.502189	0.595884	-0.271055
C134	C	0.564686	0.470899	-0.208563
C135	C	0.564685	0.470908	-0.259585
C136	C	0.533436	0.533411	-0.316345
O137	O	0.591229	0.417809	-0.313746
O138	O	0.475628	0.649049	-0.429410
C139	C	0.533441	0.533436	0.159964
C140	C	0.533441	0.533443	0.214261
C141	C	0.693446	0.373391	0.000027
C142	C	0.747751	0.319080	0.000043
C143	C	0.533447	0.373429	0.159990
C144	C	0.533450	0.319130	0.214295
C145	C	0.693448	0.373410	0.160010
C146	C	0.747754	0.319105	0.214322
C147	C	0.373429	0.693425	-0.160046
C148	C	0.319123	0.747730	-0.214358
C149	C	0.373431	0.693444	-0.000064
C150	C	0.319126	0.747755	-0.000079
C151	C	0.533430	0.693406	-0.160026
C152	C	0.533427	0.747705	-0.214332
C153	C	0.742009	0.293574	-0.031199
C154	C	0.793029	0.242550	-0.031196
C155	C	0.849791	0.217028	0.000052
C156	C	0.855531	0.242539	0.031294
C157	C	0.804511	0.293566	0.031288
C158	C	0.564695	0.293631	0.271046
C159	C	0.564695	0.242618	0.322077
C160	C	0.533453	0.217103	0.316354
C161	C	0.502204	0.242607	0.259597
C162	C	0.502201	0.293622	0.208568
C163	C	0.804504	0.293595	0.208591
C164	C	0.855535	0.242577	0.259618
C165	C	0.849814	0.217066	0.316375
C166	C	0.793057	0.242580	0.322104
C167	C	0.742028	0.293601	0.271078
C168	C	0.262372	0.773246	-0.208628
C169	C	0.211341	0.824280	-0.259655
C170	C	0.217063	0.849794	-0.316412
C171	C	0.273819	0.824276	-0.322141
C172	C	0.324849	0.773246	-0.271115
C173	C	0.324868	0.773266	0.031157
C174	C	0.273847	0.824304	0.031140
C175	C	0.217086	0.849828	-0.000110
C176	C	0.211346	0.824315	-0.031350
C177	C	0.262365	0.773281	-0.031336
C178	C	0.564675	0.773204	-0.208590
C179	C	0.564684	0.824217	-0.259611
C180	C	0.533441	0.849733	-0.316372
C181	C	0.502193	0.824228	-0.322112
C182	C	0.502188	0.773213	-0.271092
H183	H	0.657813	-0.137222	0.124338
H184	H	0.476745	0.646789	-0.368292
H185	H	0.788344	0.221786	-0.056638
H186	H	0.590116	0.752437	-0.162377
C187	C	0.905910	0.160893	0.000060
C188	C	0.899587	0.132838	-0.034303
C189	C	0.955703	0.076700	-0.034295
C190	C	1.018143	0.048618	0.000077
C191	C	1.024468	0.076673	0.034444
C192	C	0.968352	0.132811	0.034435
H193	H	0.853363	0.153626	-0.059750
H194	H	0.951020	0.055932	-0.059735
H195	H	1.059683	0.007062	0.000084
H196	H	1.070692	0.055885	0.059890
H197	H	0.973035	0.153579	0.059875
C198	C	0.256068	0.745191	-0.146200
C199	C	0.193637	0.773274	-0.139909
C200	C	0.187327	0.745227	-0.077483
C201	C	0.243449	0.689098	-0.021347
C202	C	0.305885	0.661012	-0.027635
C203	C	0.312195	0.689059	-0.090062
H204	H	0.152088	0.814827	-0.181466
H205	H	0.141108	0.766018	-0.072828
H206	H	0.238778	0.668336	0.024865
H207	H	0.347434	0.619459	0.013921
H208	H	0.358414	0.668268	-0.094717
C209	C	0.467820	0.664675	-0.746770
C210	C	0.484134	0.716223	-0.779561
C211	C	0.449761	0.784969	-0.785883
C212	C	0.399074	0.802166	-0.759414
C213	C	0.382758	0.750616	-0.726621
C214	C	0.417131	0.681871	-0.720299
H215	H	0.521657	0.703494	-0.799157
H216	H	0.461840	0.823129	-0.810159
H217	H	0.373630	0.853055	-0.764094
H218	H	0.345234	0.763345	-0.707025
H219	H	0.405052	0.643710	-0.696023
H220	H	0.613614	0.234188	0.080193
H221	H	0.409081	0.204074	-0.124398
C222	C	0.148904	0.852389	-0.065715
C223	C	0.105226	0.929562	-0.116404
C224	C	0.042783	0.957634	-0.150764
C225	C	0.024018	0.908532	-0.134435
C226	C	0.067697	0.831355	-0.083743
C227	C	0.130140	0.803283	-0.049384
H228	H	0.119116	0.965914	-0.128495
H229	H	0.010449	1.014766	-0.188289
H230	H	-0.022206	0.929312	-0.159870
H231	H	0.053807	0.795003	-0.071653
H232	H	0.162474	0.746151	-0.011858
C233	C	0.917973	0.214452	0.065673
C234	C	0.961646	0.221446	0.032185
C235	C	1.024090	0.193351	0.066568
C236	C	1.042859	0.158262	0.134438
C237	C	0.999184	0.151267	0.167930
C238	C	0.936741	0.179362	0.133547
H239	H	0.947753	0.247422	-0.018060
H240	H	1.056420	0.198530	0.041775
H241	H	1.089083	0.137465	0.159890
H242	H	1.013078	0.125291	0.218175
H243	H	0.904410	0.174183	0.158340
H244	H	0.590124	0.420020	-0.162343
C245	C	0.810833	0.321609	0.065665
C246	C	0.873272	0.293526	0.100041
C247	C	0.879599	0.321565	0.134421
C248	C	0.823487	0.377689	0.134426
C249	C	0.761044	0.405776	0.100050
C250	C	0.754717	0.377736	0.065669
H251	H	0.914813	0.251977	0.100038
H252	H	0.925824	0.300773	0.159869
H253	H	0.828171	0.398445	0.159877
H254	H	0.719503	0.447324	0.100052
H255	H	0.708492	0.398528	0.040221
C256	C	0.148914	0.852336	-0.253343
C257	C	0.130164	0.887397	-0.220544
C258	C	0.067739	0.915450	-0.214231
C259	C	0.024065	0.908442	-0.240716
C260	C	0.042815	0.873379	-0.273517
C261	C	0.105239	0.845326	-0.279831
H262	H	0.162494	0.892586	-0.200936
H263	H	0.053859	0.941406	-0.189949
H264	H	-0.022146	0.929208	-0.236042
H265	H	0.010484	0.868190	-0.293126
H266	H	0.119119	0.819371	-0.304113
H267	H	0.901745	0.221808	0.254943
H268	H	0.695795	0.314354	-0.056652
C269	C	0.630326	0.339691	-0.349568
C270	C	0.596832	0.322500	-0.305907
C271	C	0.631207	0.253751	-0.243474
C272	C	0.699077	0.202195	-0.224702
C273	C	0.732576	0.219385	-0.268365
C274	C	0.698200	0.288133	-0.330798
H275	H	0.546587	0.360666	-0.319801
H276	H	0.606409	0.241026	-0.211152
H277	H	0.724524	0.151303	-0.178486
H278	H	0.782821	0.181218	-0.254470
H279	H	0.722998	0.300858	-0.363120
C280	C	0.440646	0.414469	-0.092794
C281	C	0.398726	0.461699	-0.075192
C282	C	0.350116	0.538372	-0.123806
C283	C	0.343426	0.567815	-0.190021
C284	C	0.385348	0.520585	-0.207626
C285	C	0.433957	0.443912	-0.159012
H286	H	0.403677	0.439903	-0.026173
H287	H	0.319083	0.573335	-0.110773
H288	H	0.307442	0.624574	-0.226008
H289	H	0.380397	0.542381	-0.256646
H290	H	0.464990	0.408949	-0.172045
H291	H	0.278556	0.420045	0.056681
H292	H	0.257682	0.752512	-0.056771
C293	C	0.467829	0.664679	-0.853914
C294	C	0.467840	0.664676	-0.910032
C295	C	0.433483	0.733415	-0.972472
C296	C	0.399115	0.802157	-0.978794
C297	C	0.399102	0.802163	-0.922674
C298	C	0.433459	0.733424	-0.860234
H299	H	0.493283	0.613786	-0.905354
H300	H	0.433492	0.733410	-1.014015
H301	H	0.373681	0.853042	-1.025015
H302	H	0.373659	0.853053	-0.927352
H303	H	0.433450	0.733429	-0.818691
C304	C	0.599060	0.321694	0.277351
C305	C	0.633421	0.293641	0.339783
C306	C	0.667785	0.321704	0.346094
C307	C	0.667789	0.377819	0.289973
C308	C	0.633428	0.405875	0.227536
C309	C	0.599063	0.377812	0.221225
H310	H	0.633419	0.252098	0.381331
H311	H	0.693222	0.300935	0.392314
H312	H	0.693228	0.398592	0.294644
H313	H	0.633429	0.447417	0.185988
H314	H	0.573626	0.398581	0.175005
C315	C	0.599076	0.214567	0.384504
C316	C	0.666946	0.179482	0.403267
C317	C	0.701327	0.151432	0.465692
C318	C	0.667838	0.158466	0.509354
C319	C	0.599965	0.193552	0.490593
C320	C	0.565583	0.221603	0.428168
H321	H	0.691740	0.174273	0.370944
H322	H	0.751572	0.125459	0.479580
H323	H	0.693289	0.137702	0.555565
H324	H	0.575171	0.198761	0.522915
H325	H	0.515339	0.247576	0.414279
H326	H	0.476739	0.752457	-0.275775
H327	H	0.278533	0.845068	0.056582
C328	C	0.905951	0.160938	0.372502
C329	C	0.951197	0.090784	0.383383
C330	C	1.007336	0.034654	0.439507
C331	C	1.018228	0.048678	0.484750
C332	C	0.972980	0.118835	0.473870
C333	C	0.916842	0.174965	0.417746
H334	H	0.943135	0.080400	0.349890
H335	H	1.040831	-0.017281	0.447560
H336	H	1.059785	0.007128	0.526296
H337	H	0.981042	0.129219	0.507363
H338	H	0.883347	0.226900	0.409693
H339	H	0.613613	0.141625	0.080188
C340	C	-0.320434	0.664627	-0.065633
C341	C	-0.376558	0.664637	-0.065634
C342	C	-0.438993	0.733383	-0.100015
C343	C	-0.445304	0.802119	-0.134394
C344	C	-0.389177	0.802112	-0.134394
C345	C	-0.326743	0.733366	-0.100013
H346	H	-0.371888	0.613752	-0.040184
H347	H	-0.480541	0.733388	-0.100015
H348	H	-0.491522	0.853008	-0.159845
H349	H	-0.393847	0.852996	-0.159844
H350	H	-0.285195	0.733361	-0.100013
H351	H	0.371081	0.752488	0.056608
C352	C	0.467822	0.852306	-0.384553
C353	C	0.467827	0.908427	-0.440668
C354	C	0.433452	0.936510	-0.503109
C355	C	0.399072	0.908472	-0.509436
C356	C	0.399067	0.852348	-0.453320
C357	C	0.433441	0.824264	-0.390878
H358	H	0.493277	0.929185	-0.435986
H359	H	0.433456	0.978057	-0.544651
H360	H	0.373626	0.929261	-0.555659
H361	H	0.373616	0.831589	-0.458001
H362	H	0.433437	0.782717	-0.349337
H363	H	0.533461	0.175563	0.357910
C364	C	0.599062	0.402196	-0.615523
C365	C	0.666931	0.350633	-0.596752
C366	C	0.701303	0.281882	-0.534321
C367	C	0.667806	0.264695	-0.490661
C368	C	0.599933	0.316260	-0.509431
C369	C	0.565561	0.385010	-0.571862
H370	H	0.691731	0.363355	-0.629073
H371	H	0.751547	0.243711	-0.520427
H372	H	0.693250	0.213801	-0.444445
H373	H	0.575134	0.303538	-0.477110
H374	H	0.515318	0.423182	-0.585756
H375	H	0.175547	0.891383	-0.000116
C376	C	0.436572	0.727147	-0.543327
C377	C	0.452890	0.778691	-0.576118
C378	C	0.418516	0.847441	-0.582448
C379	C	0.367823	0.864646	-0.555987
C380	C	0.351503	0.813101	-0.523194
C381	C	0.385877	0.744351	-0.516864
H382	H	0.490418	0.765956	-0.595708
H383	H	0.430597	0.885599	-0.606723
H384	H	0.342377	0.915539	-0.560672
H385	H	0.313975	0.825836	-0.503604
H386	H	0.373796	0.706193	-0.492588
C387	C	0.467846	0.214530	0.253309
C388	C	0.433476	0.242568	0.190887
C389	C	0.399122	0.214485	0.184600
C390	C	0.399137	0.158364	0.240735
C391	C	0.433508	0.130323	0.303162
C392	C	0.467862	0.158406	0.309448
H393	H	0.433463	0.284115	0.149328
H394	H	0.373678	0.235243	0.138388
H395	H	0.373706	0.137575	0.236082
H396	H	0.433521	0.088776	0.344720
H397	H	0.493306	0.137648	0.355661
C398	C	0.280105	0.852343	-0.384577
C399	C	0.253605	0.845330	-0.428237
C400	C	0.259888	0.873396	-0.490675
C401	C	0.292672	0.908475	-0.509452
C402	C	0.319174	0.915490	-0.465791
C403	C	0.312891	0.887424	-0.403354
H404	H	0.229335	0.819361	-0.414338
H405	H	0.240269	0.868203	-0.522995
H406	H	0.297323	0.929252	-0.555672
H407	H	0.343444	0.941459	-0.479691
H408	H	0.332510	0.892617	-0.371033
H409	H	0.590129	0.844977	-0.254925
C410	C	0.533447	0.905854	-0.372491
C411	C	0.592726	0.891813	-0.383349
C412	C	0.592732	0.947936	-0.439465
C413	C	0.533458	1.018101	-0.484724
C414	C	0.474174	1.032146	-0.473868
C415	C	0.474168	0.976022	-0.417752
H416	H	0.636609	0.839870	-0.349844
H417	H	0.636619	0.937539	-0.447501
H418	H	0.533463	1.059647	-0.526264
H419	H	0.430292	1.084089	-0.507372
H420	H	0.430282	0.986420	-0.409716
H421	H	0.788408	0.221801	0.368322
H422	H	0.409078	0.111535	-0.124408
H423	H	0.453270	0.302012	-0.080189
H424	H	0.695820	0.314364	0.275752
H425	H	0.445504	0.709297	-0.634235
C426	C	0.183892	0.339688	0.096880
C427	C	0.202651	0.288123	0.080585
C428	C	0.265083	0.219373	0.114976
C429	C	0.308755	0.202188	0.165661
C430	C	0.289996	0.253755	0.181958
C431	C	0.227565	0.322504	0.147568
H432	H	0.170322	0.300843	0.043063
H433	H	0.278969	0.181200	0.102911
H434	H	0.354971	0.151296	0.191119
H435	H	0.322326	0.241035	0.219481
H436	H	0.213679	0.360677	0.159632
H437	H	-0.100779	0.709285	-0.087956
H438	H	0.453253	-0.074788	-0.080223
H439	H	0.453260	-0.167350	-0.080234
H440	H	0.175506	0.891345	-0.357956
H441	H	0.476759	0.314377	0.162360
C442	C	0.626225	-0.347625	0.092760
C443	C	0.692443	-0.377066	0.099464
C444	C	0.741055	-0.453737	0.148079
C445	C	0.723451	-0.500968	0.189991
C446	C	0.657230	-0.471528	0.183289
C447	C	0.608618	-0.394857	0.134673
H448	H	0.705477	-0.342102	0.068437
H449	H	0.790076	-0.475531	0.153040
H450	H	0.759437	-0.557725	0.225978
H451	H	0.644196	-0.506492	0.214315
H452	H	0.559597	-0.373063	0.129712
H453	H	0.613609	-0.235166	0.080139
H454	H	0.371057	0.752472	-0.275787
C455	C	0.076774	0.339679	0.096885
C456	C	0.050301	0.322476	0.063398
C457	C	0.056641	0.253721	0.097781
C458	C	0.089453	0.202168	0.165650
C459	C	0.115928	0.219370	0.199141
C460	C	0.109588	0.288126	0.164758
H461	H	0.026010	0.360640	0.013154
H462	H	0.037042	0.240987	0.072988
H463	H	0.094146	0.151271	0.191102
H464	H	0.140220	0.181207	0.249385
H465	H	0.129187	0.300859	0.189550
C466	C	0.670439	-0.050012	0.136971
C467	C	0.736656	-0.093488	0.143671
C468	C	0.785269	-0.114051	0.192289
C469	C	0.767664	-0.091138	0.234207
C470	C	0.701444	-0.047660	0.227508
C471	C	0.652832	-0.027097	0.178890
H472	H	0.749691	-0.110452	0.112639
H473	H	0.834289	-0.146237	0.197247
H474	H	0.803650	-0.106360	0.270197
H475	H	0.688410	-0.030696	0.258540
H476	H	0.603811	0.005089	0.173932
C477	C	-0.213309	0.664638	-0.065638
C478	C	-0.246114	0.716182	-0.133509
C479	C	-0.252445	0.784932	-0.167899
C480	C	-0.225972	0.802140	-0.134418
C481	C	-0.193165	0.750595	-0.066543
C482	C	-0.186834	0.681845	-0.032153
H483	H	-0.265713	0.703445	-0.158297
H484	H	-0.276731	0.823089	-0.218144
H485	H	-0.230659	0.853033	-0.159875
H486	H	-0.173565	0.763332	-0.041755
H487	H	-0.162547	0.643688	0.018092
H488	H	0.809174	0.314359	0.162382
H489	H	-0.098255	0.420015	0.056713
C490	C	0.148908	0.664663	-0.065678
C491	C	0.130136	0.716203	-0.133552
C492	C	0.067694	0.784939	-0.167939
C493	C	0.024024	0.802135	-0.134451
C494	C	0.042796	0.750593	-0.066574
C495	C	0.105238	0.681858	-0.032187
H496	H	0.162463	0.703475	-0.158344
H497	H	0.053798	0.823093	-0.218186
H498	H	-0.022199	0.853017	-0.159907
H499	H	0.010469	0.763321	-0.041781
H500	H	0.119134	0.643703	0.018060
H501	H	0.371098	0.420060	0.056661
H502	H	-0.008232	0.709288	-0.087950
H503	H	-0.190818	0.420015	0.056710
H504	H	0.476737	0.646775	-0.275736
H505	H	0.590126	0.420063	-0.724296
H506	H	0.257697	0.646815	-0.056748
H507	H	0.590125	0.420022	-0.254909
H508	H	0.621399	0.357550	-0.458339
