data_functionalizedCrystal
_audit_creation_method	'MofGen! by Chris Wilmer'
_symmetry_space_group_name_H-M	'P1'
_symmetry_Int_Tables_number	1
_symmetry_cell_setting	triclinic
loop_
_symmetry_equiv_pos_as_xyz
  x,y,z
_cell_length_a	19.188930
_cell_length_b	19.188930
_cell_length_c	17.666332
_cell_angle_alpha	90.011603
_cell_angle_beta	89.976766
_cell_angle_gamma	96.855221
loop_
_atom_site_label
_atom_site_type_symbol
_atom_site_fract_x
_atom_site_fract_y
_atom_site_fract_z
O1	O	0.926150	-0.087169	-0.063200
O2	O	0.722838	-0.098903	-0.063149
O3	O	0.830361	0.008620	-0.063161
O4	O	0.818627	-0.194692	-0.063188
O5	O	0.830342	0.008625	0.062735
O6	O	0.722820	-0.098897	0.062747
O7	O	0.926131	-0.087163	0.062697
Cu8	Cu	0.824473	-0.093030	0.074217
Cu9	Cu	0.824496	-0.093036	-0.074670
O10	O	0.818608	-0.194686	0.062709
C11	C	0.696818	-0.098520	-0.000194
C12	C	0.619313	-0.097380	-0.000174
C13	C	0.574389	-0.160470	-0.000194
C14	C	0.501566	-0.159399	-0.000203
C15	C	0.473669	-0.095233	-0.000206
C16	C	0.518603	-0.032133	-0.000181
C17	C	0.591425	-0.033207	-0.000166
N18	N	0.365695	-0.046188	-0.043078
N19	N	0.296517	-0.045172	-0.043095
C20	C	0.254260	-0.091994	-0.000252
N21	N	0.283795	-0.139881	0.042599
N22	N	0.352979	-0.140899	0.042612
C23	C	0.394707	-0.094062	-0.000222
C24	C	0.130372	-0.153928	-0.000280
C25	C	0.057547	-0.152853	-0.000283
C26	C	0.074586	-0.025586	-0.000270
C27	C	0.147409	-0.026662	-0.000258
C28	C	0.175298	-0.090835	-0.000267
C29	C	0.829972	0.034634	-0.000211
C30	C	0.828831	0.112138	-0.000204
C31	C	0.952151	-0.087546	-0.000260
C32	C	1.029656	-0.088687	-0.000285
C33	C	0.818997	-0.220700	-0.000244
C34	C	0.820138	-0.298204	-0.000255
N35	N	0.824463	-0.093025	0.178937
C36	C	0.891922	0.157062	-0.000216
C37	C	0.890850	0.229886	-0.000228
C38	C	0.826684	0.257782	-0.000212
C39	C	0.763585	0.212849	-0.000205
C40	C	0.764658	0.140026	-0.000200
N41	N	0.777630	0.365789	0.042645
N42	N	0.776615	0.434968	0.042642
C43	C	0.823446	0.477191	-0.000227
N44	N	0.871341	0.447624	-0.043084
N45	N	0.872359	0.378439	-0.043079
C46	C	0.825513	0.336745	-0.000218
C47	C	0.885379	0.601079	-0.000253
C48	C	0.884305	0.673904	-0.000270
C49	C	0.757038	0.656865	-0.000239
C50	C	0.758114	0.584042	-0.000230
C51	C	0.822287	0.556154	-0.000233
N52	N	0.824512	-0.093036	-0.179390
C53	C	0.872089	-0.045437	0.218541
C54	C	0.872093	-0.045433	0.297789
C55	C	0.824478	-0.093030	0.337429
C56	C	0.776842	-0.140621	0.297815
C57	C	0.776835	-0.140619	0.218569
N58	N	0.815401	-0.154837	0.461841
N59	N	0.815413	-0.154837	0.537121
C60	C	0.824496	-0.093040	0.576193
N61	N	0.833582	-0.031239	0.537140
N62	N	0.833574	-0.031240	0.461853
C63	C	0.824480	-0.093038	0.423358
C64	C	0.872130	-0.045444	0.701727
C65	C	0.872129	-0.045440	0.780976
C66	C	0.776881	-0.140634	0.781000
C67	C	0.776878	-0.140632	0.701753
C68	C	0.824506	-0.093038	0.662121
H69	H	0.020970	-0.204232	-0.000295
H70	H	0.628003	0.018171	-0.000150
C71	C	0.725065	-0.192329	0.340712
C72	C	0.683340	-0.233993	0.289062
C73	C	0.635624	-0.281625	0.328550
H74	H	0.750008	-0.221402	0.371607
H75	H	0.696047	-0.167300	0.371633
H76	H	0.712354	-0.259021	0.258154
H77	H	0.658381	-0.204940	0.258166
H78	H	0.606606	-0.256596	0.359471
H79	H	0.660572	-0.310693	0.359444
H80	H	0.607303	-0.309896	0.293512
C81	C	0.452812	-0.227922	-0.000388
C82	C	0.465411	-0.266559	-0.065175
C83	C	0.420509	-0.329681	-0.065379
H84	H	0.461175	-0.254332	0.043459
H85	H	0.405438	-0.218118	-0.000439
H86	H	0.512774	-0.276365	-0.065116
H87	H	0.457044	-0.240170	-0.109032
H88	H	0.373134	-0.319877	-0.065430
H89	H	0.428875	-0.356085	-0.021529
H90	H	0.429046	-0.355901	-0.109339
C91	C	0.196305	0.041763	-0.000211
C92	C	0.266049	0.027090	-0.000180
C93	C	0.311111	0.090109	-0.000125
H94	H	0.187984	0.068131	-0.044103
H95	H	0.187889	0.068094	0.043709
H96	H	0.274462	0.000771	-0.044095
H97	H	0.274392	0.000732	0.043709
H98	H	0.302695	0.116439	0.043795
H99	H	0.302784	0.116472	-0.044017
H100	H	0.358438	0.080162	-0.000096
H101	H	0.597091	-0.212725	-0.000203
C102	C	0.923921	0.006261	0.823841
C103	C	0.965640	0.047925	0.772167
C104	C	1.013366	0.095552	0.811628
H105	H	0.898986	0.035334	0.854779
H106	H	0.952942	-0.018773	0.854717
H107	H	0.936623	0.072956	0.741305
H108	H	0.990591	0.018871	0.741228
H109	H	1.042387	0.070519	0.842504
H110	H	0.988425	0.124621	0.842564
H111	H	1.041683	0.123822	0.776574
H112	H	0.937632	0.578372	-0.000259
H113	H	0.935683	0.710481	-0.000284
H114	H	0.910869	-0.006681	0.186275
H115	H	0.153080	-0.206181	-0.000276
C116	C	0.488415	0.037584	-0.000306
C117	C	0.511321	0.075717	-0.065057
C118	C	0.483534	0.139950	-0.065189
H119	H	0.438613	0.029287	-0.000359
H120	H	0.503843	0.063593	0.043581
H121	H	0.495888	0.049714	-0.108933
H122	H	0.561119	0.084032	-0.065017
H123	H	0.498962	0.165959	-0.021302
H124	H	0.433733	0.131646	-0.065241
H125	H	0.499077	0.165834	-0.109119
C126	C	0.923849	0.006106	0.658554
C127	C	0.913687	-0.004115	0.580676
C128	C	0.961346	0.043332	0.540885
H129	H	0.916509	0.052738	0.671434
H130	H	0.970415	-0.001418	0.671503
H131	H	0.867132	0.003415	0.567733
H132	H	0.921033	-0.050737	0.567774
H133	H	1.007912	0.035808	0.553834
H134	H	0.954002	0.089961	0.553771
H135	H	0.954462	0.036400	0.488041
H136	H	0.944176	0.134360	-0.000222
C137	C	0.959427	0.278556	-0.000200
C138	C	1.015856	0.238546	-0.000185
C139	C	1.079039	0.283354	-0.000149
H140	H	0.961763	0.307327	-0.044092
H141	H	0.961679	0.307316	0.043720
H142	H	1.013605	0.209798	-0.044101
H143	H	1.013543	0.209777	0.043703
H144	H	1.081290	0.312114	0.043771
H145	H	1.081367	0.312122	-0.044041
H146	H	1.117332	0.256214	-0.000132
C147	C	0.044443	0.044153	-0.000233
C148	C	0.099378	0.099178	-0.000197
C149	C	0.071634	0.163433	-0.000150
H150	H	0.016423	0.047316	-0.044128
H151	H	0.016387	0.047256	0.043683
H152	H	0.127422	0.096076	-0.044109
H153	H	0.127403	0.096038	0.043695
H154	H	0.043578	0.166537	0.043767
H155	H	0.043614	0.166589	-0.044046
H156	H	0.108902	0.200775	-0.000119
C157	C	0.693989	0.243268	-0.000149
C158	C	0.706552	0.316659	-0.000133
C159	C	0.642455	0.344704	-0.000075
H160	H	0.667974	0.227903	-0.044034
H161	H	0.668006	0.227881	0.043778
H162	H	0.732524	0.332039	-0.044055
H163	H	0.732556	0.332043	0.043749
H164	H	0.616472	0.329317	0.043851
H165	H	0.616445	0.329334	-0.043961
H166	H	0.650970	0.394502	-0.000058
C167	C	0.687348	0.687103	-0.000379
C168	C	0.649239	0.664247	-0.065150
C169	C	0.585040	0.692098	-0.065314
H170	H	0.661288	0.671698	0.043479
H171	H	0.695713	0.736911	-0.000427
H172	H	0.640872	0.614450	-0.065096
H173	H	0.675279	0.679651	-0.109019
H174	H	0.593405	0.741905	-0.065361
H175	H	0.558986	0.676690	-0.021453
H176	H	0.559178	0.676600	-0.109263
C177	C	0.923880	0.006271	0.340663
C178	C	0.965595	0.047944	0.288993
C179	C	1.013312	0.095577	0.328459
H180	H	0.898937	0.035339	0.371600
H181	H	0.952904	-0.018757	0.371540
H182	H	0.936575	0.072971	0.258130
H183	H	0.990553	0.018896	0.258055
H184	H	1.042336	0.070548	0.359336
H185	H	0.988363	0.124639	0.359394
H186	H	1.041626	0.123853	0.293407
H187	H	0.738051	-0.179371	0.186322
H188	H	0.713281	0.103448	-0.000190
H189	H	0.706738	0.547464	-0.000216
H190	H	0.738109	-0.179385	0.813275
C191	C	0.725143	-0.192385	0.658885
C192	C	0.683455	-0.234081	0.710559
C193	C	0.635791	-0.281770	0.671098
H194	H	0.696089	-0.167422	0.627991
H195	H	0.750148	-0.221425	0.627967
H196	H	0.658451	-0.205044	0.741464
H197	H	0.712490	-0.259060	0.741455
H198	H	0.660796	-0.310810	0.640179
H199	H	0.606742	-0.256801	0.640204
H200	H	0.607504	-0.310071	0.706152
