data_functionalizedCrystal
_audit_creation_method	'MofGen! by Chris Wilmer'
_symmetry_space_group_name_H-M	'P1'
_symmetry_Int_Tables_number	1
_symmetry_cell_setting	triclinic
loop_
_symmetry_equiv_pos_as_xyz
  x,y,z
_cell_length_a	15.944499
_cell_length_b	11.792254
_cell_length_c	10.868271
_cell_angle_alpha	90.004259
_cell_angle_beta	90.001889
_cell_angle_gamma	83.838104
loop_
_atom_site_label
_atom_site_type_symbol
_atom_site_fract_x
_atom_site_fract_y
_atom_site_fract_z
O1	O	0.115181	1.505922	0.102312
O2	O	0.127036	1.175482	0.102313
O3	O	-0.001128	1.349756	0.102315
O4	O	0.243345	1.331648	0.102311
O5	O	-0.001133	1.349742	-0.102330
O6	O	0.127031	1.175468	-0.102331
O7	O	0.115176	1.505908	-0.102333
Zn8	Zn	0.121103	1.340685	-0.134824
Zn9	Zn	0.121109	1.340704	0.134804
O10	O	0.243340	1.331634	-0.102334
C11	C	0.126286	1.133191	-0.000009
C12	C	0.124051	1.007197	-0.000008
C13	C	0.122235	0.904875	-0.000002
C14	C	0.119965	0.776508	-0.000001
C15	C	-0.032429	1.349008	-0.000005
C16	C	-0.125687	1.346785	0.000005
C17	C	-0.416763	1.448034	-0.000003
C18	C	-0.355979	1.395395	-0.100907
C19	C	-0.461360	1.338710	-0.000010
C20	C	-0.355981	1.395380	0.100856
C21	C	-0.296433	1.342683	-0.000001
C22	C	-0.401805	1.286041	-0.100998
C23	C	-0.401813	1.286041	0.100857
C24	C	-0.341047	1.233323	-0.000073
C25	C	-0.556371	1.336424	-0.000016
C26	C	-0.201424	1.344961	-0.000003
C27	C	0.274641	1.332382	-0.000012
C28	C	0.367899	1.334605	-0.000014
C29	C	0.115926	1.548199	-0.000008
C30	C	0.118161	1.674193	-0.000001
N31	N	0.121098	1.340681	-0.318838
C32	C	0.121108	1.340698	-0.569844
C33	C	0.121105	1.340685	-0.430166
N34	N	0.121108	1.340718	0.318818
H35	H	-0.449680	1.538762	-0.000100
O36	O	-0.425741	1.230845	-0.202920
C37	C	-0.354007	1.194387	-0.274218
H38	H	-0.295550	1.186925	-0.213136
H39	H	-0.346693	1.259002	-0.350444
C40	C	-0.436293	1.086522	-0.406663
C41	C	-0.364496	1.077347	-0.331638
H42	H	-0.442764	1.014329	-0.442088
H43	H	-0.484623	1.111088	-0.358631
H44	H	-0.430189	1.140372	-0.470175
H45	H	-0.370605	1.023508	-0.268119
H46	H	-0.316167	1.052769	-0.379661
H47	H	-0.335688	1.441645	0.186155
O48	O	-0.301983	1.124977	-0.000355
C49	C	-0.325366	1.067765	-0.106862
H50	H	-0.346998	1.132918	-0.180880
H51	H	-0.379077	1.014905	-0.083750
C52	C	-0.222564	0.908646	-0.063527
C53	C	-0.249126	0.988667	-0.154442
H54	H	-0.175537	0.859850	-0.092875
H55	H	-0.206812	0.947188	0.008231
H56	H	-0.267330	0.864607	-0.044276
H57	H	-0.204364	1.032713	-0.173681
H58	H	-0.264869	0.950131	-0.226205
O59	O	-0.331810	1.450731	-0.202582
C60	C	-0.370744	1.563882	-0.202239
H61	H	-0.388873	1.590222	-0.104049
H62	H	-0.429798	1.569813	-0.262040
C63	C	-0.286747	1.611535	-0.374322
C64	C	-0.309007	1.643890	-0.253721
H65	H	-0.248667	1.660889	-0.406083
H66	H	-0.260518	1.535303	-0.374557
H67	H	-0.335964	1.616478	-0.424141
H68	H	-0.259792	1.638933	-0.203901
H69	H	-0.335227	1.720124	-0.253479
O70	O	-0.426087	1.230761	0.202497
C71	C	-0.465881	1.134932	0.166330
H72	H	-0.444263	1.107775	0.069743
H73	H	-0.537200	1.157714	0.166700
C74	C	-0.468764	1.069518	0.375422
C75	C	-0.442206	1.036157	0.256797
H76	H	-0.454164	1.008590	0.431229
H77	H	-0.441957	1.134082	0.399791
H78	H	-0.528195	1.088504	0.375714
H79	H	-0.382776	1.017187	0.256504
H80	H	-0.469003	0.971588	0.232431
