data_functionalizedCrystal
_audit_creation_method	'MofGen! by Chris Wilmer'
_symmetry_space_group_name_H-M	'P1'
_symmetry_Int_Tables_number	1
_symmetry_cell_setting	triclinic
loop_
_symmetry_equiv_pos_as_xyz
  x,y,z
_cell_length_a	19.288840
_cell_length_b	10.908878
_cell_length_c	17.766277
_cell_angle_alpha	89.993001
_cell_angle_beta	89.983415
_cell_angle_gamma	71.605404
loop_
_atom_site_label
_atom_site_type_symbol
_atom_site_fract_x
_atom_site_fract_y
_atom_site_fract_z
O1	O	0.903136	0.160148	-0.062716
O2	O	0.698408	0.181806	-0.062689
O3	O	0.827911	-0.016116	-0.062703
O4	O	0.773633	0.358071	-0.062702
O5	O	0.827894	-0.016126	0.062485
O6	O	0.698390	0.181796	0.062499
O7	O	0.903119	0.160138	0.062473
Cu8	Cu	0.800753	0.170966	0.073917
Cu9	Cu	0.800774	0.170978	-0.074133
O10	O	0.773615	0.358061	0.062487
C11	C	0.672601	0.181110	-0.000091
C12	C	0.595733	0.179034	-0.000081
C13	C	0.559653	0.178042	-0.068324
C14	C	0.487429	0.176077	-0.068333
C15	C	0.451294	0.175078	-0.000096
C16	C	0.487382	0.176078	0.068155
C17	C	0.559601	0.178055	0.068162
C18	C	0.350882	0.096675	0.052172
C19	C	0.278666	0.094689	0.052162
C20	C	0.228544	0.168984	-0.000116
C21	C	0.250651	0.245249	-0.052396
C22	C	0.322870	0.247226	-0.052389
C23	C	0.372984	0.172935	-0.000096
C24	C	0.114150	0.165864	-0.068373
C25	C	0.041924	0.163907	-0.068379
C26	C	0.041881	0.163894	0.068111
C27	C	0.114103	0.165864	0.068115
C28	C	0.150235	0.166843	-0.000128
C29	C	0.832975	-0.063993	-0.000110
C30	C	0.848082	-0.206636	-0.000115
C31	C	0.792961	-0.255316	-0.000109
C32	C	0.808573	-0.402745	-0.000114
C33	C	0.928925	0.160835	-0.000127
C34	C	1.005794	0.162910	-0.000141
C35	C	0.768551	0.405937	-0.000108
C36	C	0.753445	0.548580	-0.000108
N37	N	0.800743	0.170957	0.178047
N38	N	0.800790	0.170977	-0.178263
C39	C	0.858098	0.083360	0.217428
C40	C	0.858103	0.083354	0.296230
C41	C	0.800757	0.170967	0.335648
C42	C	0.743393	0.258571	0.296257
C43	C	0.743386	0.258566	0.217457
C44	C	0.778132	0.288052	0.460487
C45	C	0.778143	0.288059	0.539286
C46	C	0.800774	0.170983	0.578694
C47	C	0.823408	0.053895	0.539294
C48	C	0.823402	0.053890	0.460494
C49	C	0.800758	0.170982	0.421093
C50	C	0.858137	0.083372	0.703521
C51	C	0.858137	0.083364	0.782324
C52	C	0.743429	0.258593	0.782350
C53	C	0.743427	0.258589	0.703549
C54	C	0.800784	0.170980	0.664138
H55	H	0.143568	0.166674	-0.123941
Cl56	Cl	0.442062	0.174829	-0.154130
Cl57	Cl	0.749743	0.435251	0.410953
Cl58	Cl	0.671333	0.368726	0.831899
H59	H	0.696726	0.329924	0.671483
Cl60	Cl	0.662734	-0.347271	-0.000087
H61	H	0.906830	-0.274104	-0.000120
Cl62	Cl	0.702255	-0.151161	-0.000092
Cl63	Cl	0.671278	0.368699	0.167947
H64	H	0.841830	-0.041447	0.428417
H65	H	0.904800	0.012020	0.185342
H66	H	0.012547	0.163107	-0.123952
Cl67	Cl	0.749693	0.435253	0.588809
Cl68	Cl	0.671298	0.368709	0.345810
Cl69	Cl	0.250875	-0.001153	0.117900
H70	H	0.143482	0.166663	0.123686
H71	H	0.457955	0.175267	0.123714
Cl72	Cl	0.604962	0.179301	0.153960
H73	H	0.841836	-0.041440	0.571378
H74	H	0.589066	0.178839	-0.123893
Cl75	Cl	0.899284	-0.506896	-0.000121
H76	H	0.904809	0.012019	0.328299
H77	H	0.012459	0.163089	0.123671
H78	H	0.340866	0.309326	-0.094955
H79	H	0.209841	0.305752	-0.094963
H80	H	0.391688	0.036171	0.094747
H81	H	0.904839	0.012031	0.671432
Cl82	Cl	0.930242	-0.026775	0.831834
