data_functionalizedCrystal
_audit_creation_method	'MofGen! by Chris Wilmer'
_symmetry_space_group_name_H-M	'P1'
_symmetry_Int_Tables_number	1
_symmetry_cell_setting	triclinic
loop_
_symmetry_equiv_pos_as_xyz
  x,y,z
_cell_length_a	13.930277
_cell_length_b	10.654550
_cell_length_c	10.654551
_cell_angle_alpha	95.514868
_cell_angle_beta	89.998304
_cell_angle_gamma	90.010740
loop_
_atom_site_label
_atom_site_type_symbol
_atom_site_fract_x
_atom_site_fract_y
_atom_site_fract_z
O1	O	-0.079903	-1.667847	0.176398
O2	O	-0.079887	-1.302369	0.193204
O3	O	-0.079896	-1.493510	0.002062
O4	O	-0.079894	-1.476705	0.367540
O5	O	0.079766	-1.493483	0.002057
O6	O	0.079775	-1.302342	0.193199
O7	O	0.079759	-1.667820	0.176393
Zn8	Zn	0.105116	-1.485077	0.184796
Zn9	Zn	-0.105245	-1.485112	0.184801
O10	O	0.079767	-1.476679	0.367536
C11	C	-0.000054	-1.255557	0.191968
C12	C	-0.000049	-1.116114	0.188276
N13	N	0.248682	-1.485062	0.184791
N14	N	-0.248811	-1.485137	0.184796
C15	C	0.700956	-1.400471	0.269406
C16	C	0.700917	-1.569788	0.100188
C17	C	0.600421	-1.569773	0.100184
C18	C	0.550188	-1.485107	0.184793
C19	C	0.600451	-1.400456	0.269407
C20	C	0.550151	-1.654431	0.015580
C21	C	0.449650	-1.654420	0.015574
C22	C	0.399414	-1.569747	0.100178
C23	C	0.449683	-1.485092	0.184794
C24	C	0.399450	-1.400426	0.269404
C25	C	0.449717	-1.315764	0.354015
C26	C	0.550215	-1.315783	0.354011
C27	C	0.298916	-1.569728	0.100182
C28	C	0.298945	-1.400411	0.269405
C29	C	-0.000067	-1.492263	-0.044739
C30	C	-0.000074	-1.488570	-0.184182
C31	C	-0.000076	-1.714632	0.177629
C32	C	-0.000089	-1.854075	0.181321
C33	C	-0.000062	-1.036629	0.300817
C34	C	-0.000079	-0.905608	0.297341
C35	C	-0.000072	-0.933570	0.068771
C36	C	-0.000049	-1.064589	0.072249
C37	C	-0.000062	-1.088154	0.416844
C38	C	-0.000076	-1.008667	0.529395
C39	C	-0.000093	-0.877647	0.525918
C40	C	-0.000095	-0.826112	0.409891
C41	C	-0.087104	-1.486853	-0.249691
C42	C	-0.087099	-1.483372	-0.380712
C43	C	0.086973	-1.483333	-0.380702
C44	C	0.086968	-1.486804	-0.249683
C45	C	-0.174145	-1.488619	-0.184190
C46	C	-0.261182	-1.486903	-0.249700
C47	C	-0.261177	-1.483422	-0.380720
C48	C	-0.174136	-1.481658	-0.446231
C49	C	-0.000064	-1.477926	0.414336
C50	C	-0.000064	-1.481619	0.553779
H51	H	0.408805	-1.246833	0.422910
H52	H	-0.000053	-1.194836	0.419687
H53	H	-0.000066	-1.050636	0.623860
H54	H	0.741885	-1.331537	0.338292
H55	H	0.408729	-1.723355	-0.053322
H56	H	-0.174158	-1.491456	-0.077507
H57	H	-0.332047	-1.482012	-0.434054
H58	H	0.257993	-1.638664	0.031298
H59	H	0.157838	-1.481897	-0.434051
H60	H	-0.332048	-1.488327	-0.196351
O61	O	-0.000145	-0.800613	0.635360
C62	C	-0.000114	-0.874192	0.738506
H63	H	-0.030326	-0.971700	0.707478
H64	H	0.076485	-0.883790	0.774020
C65	C	-0.025633	-0.690123	0.883228
C66	C	-0.062748	-0.809880	0.845121
H67	H	-0.064265	-0.650451	0.948997
H68	H	-0.025650	-0.640550	0.813738
H69	H	0.038198	-0.698138	0.912815
H70	H	-0.126573	-0.801863	0.815521
H71	H	-0.062742	-0.859451	0.914609
O72	O	-0.000086	-1.141628	-0.037189
C73	C	-0.000079	-1.068059	-0.140343
H74	H	-0.030321	-0.970580	-0.109323
H75	H	0.076516	-1.058387	-0.175858
C76	C	-0.025544	-1.252166	-0.285049
C77	C	-0.062695	-1.132443	-0.246952
H78	H	-0.064165	-1.291882	-0.350814
H79	H	-0.025546	-1.301732	-0.215554
H80	H	0.038284	-1.244089	-0.314637
H81	H	-0.126517	-1.140523	-0.217351
H82	H	-0.062706	-1.082880	-0.316446
O83	O	0.171593	-1.488499	-0.186236
C84	C	0.248419	-1.486160	-0.272137
H85	H	0.222921	-1.523410	-0.370385
H86	H	0.275159	-1.385197	-0.273786
C87	C	0.361978	-1.523918	-0.110354
C88	C	0.330663	-1.569680	-0.231023
H89	H	0.412712	-1.575432	-0.084992
H90	H	0.310220	-1.525489	-0.052480
H91	H	0.384254	-1.439783	-0.111744
H92	H	0.308376	-1.653807	-0.229627
H93	H	0.382420	-1.568125	-0.288896
H94	H	-0.000094	-0.719425	0.407069
H95	H	-0.000090	-0.891600	-0.025693
O96	O	0.598797	-1.736772	-0.066668
C97	C	0.532884	-1.811461	-0.141375
H98	H	0.461248	-1.813349	-0.089860
H99	H	0.522191	-1.769849	-0.235037
C100	C	0.660081	-1.944389	-0.229316
C101	C	0.572099	-1.946716	-0.166040
H102	H	0.684271	-2.027819	-0.244536
H103	H	0.704489	-1.894067	-0.178989
H104	H	0.651158	-1.909707	-0.307361
H105	H	0.581024	-1.981382	-0.087990
H106	H	0.527693	-1.997047	-0.216355
O107	O	0.250195	-1.318290	0.351772
C108	C	0.274770	-1.339761	0.476288
H109	H	0.302377	-1.440317	0.477837
H110	H	0.333121	-1.270477	0.512522
C111	C	0.151593	-1.197466	0.559360
C112	C	0.185492	-1.320974	0.561264
H113	H	0.096524	-1.185872	0.611780
H114	H	0.135038	-1.182996	0.475472
H115	H	0.200227	-1.139744	0.589552
H116	H	0.136863	-1.378693	0.531057
H117	H	0.202037	-1.335453	0.645149
O118	O	0.599153	-1.233504	0.436028
C119	C	0.657294	-1.155439	0.368045
H120	H	0.672333	-1.204608	0.270229
H121	H	0.618592	-1.062535	0.358655
C122	C	0.734294	-1.068854	0.558739
C123	C	0.752773	-1.129249	0.438604
H124	H	0.793189	-1.052692	0.602265
H125	H	0.695122	-1.121443	0.604542
H126	H	0.702041	-0.991441	0.550897
H127	H	0.785015	-1.206667	0.446447
H128	H	0.791954	-1.076671	0.392804
H129	H	0.741820	-1.638726	0.031307
H130	H	-0.174139	-1.478806	-0.552914
