data_functionalizedCrystal
_audit_creation_method	'MofGen! by Chris Wilmer'
_symmetry_space_group_name_H-M	'P1'
_symmetry_Int_Tables_number	1
_symmetry_cell_setting	triclinic
loop_
_symmetry_equiv_pos_as_xyz
  x,y,z
_cell_length_a	12.827893
_cell_length_b	12.759394
_cell_length_c	12.827885
_cell_angle_alpha	90.031224
_cell_angle_beta	90.019272
_cell_angle_gamma	90.014808
loop_
_atom_site_label
_atom_site_type_symbol
_atom_site_fract_x
_atom_site_fract_y
_atom_site_fract_z
Zn1	Zn	1.597674	-0.418216	0.590838
Zn2	Zn	1.597569	-0.593932	0.416094
Zn3	Zn	1.422915	-0.418268	0.416112
Zn4	Zn	1.422902	-0.593854	0.590794
O5	O	1.510265	-0.506068	0.503460
O6	O	1.743896	-0.441537	0.567669
O7	O	1.574363	-0.570684	0.269860
O8	O	1.446146	-0.271240	0.439316
O9	O	1.743819	-0.570634	0.439285
O10	O	1.574541	-0.271202	0.567686
O11	O	1.446045	-0.441624	0.269873
O12	O	1.276677	-0.441548	0.439273
O13	O	1.446124	-0.570501	0.737036
O14	O	1.276668	-0.570551	0.567611
O15	O	1.574528	-0.441461	0.737069
O16	O	1.574350	-0.740943	0.439243
O17	O	1.446023	-0.740885	0.567594
C18	C	1.238755	-0.506047	0.503440
C19	C	1.122602	-0.506064	0.503456
C20	C	1.070840	-0.569998	0.566864
C21	C	0.950790	-0.570017	0.566882
C22	C	1.510202	-0.779035	0.503434
C23	C	1.510271	-0.895812	0.503458
C24	C	1.643999	-0.895818	0.369906
C25	C	1.710890	-0.950682	0.303143
C26	C	1.710951	-1.060404	0.303171
C27	C	1.644116	-1.115264	0.369973
C28	C	1.577225	-1.060400	0.436736
C29	C	1.577169	-0.950676	0.436698
C30	C	1.443504	-1.060393	0.570292
C31	C	1.443436	-0.950672	0.570260
C32	C	1.376670	-1.115253	0.637094
C33	C	1.309772	-1.060389	0.703854
C34	C	1.309712	-0.950661	0.703822
C35	C	1.376545	-0.895808	0.637024
C36	C	1.782835	-0.506089	0.503480
C37	C	1.898988	-0.506098	0.503489
C38	C	1.510336	-0.505967	0.776030
C39	C	1.510366	-0.505924	0.892183
C40	C	1.510356	-0.232034	0.503508
C41	C	1.510395	-0.115257	0.503528
C42	C	1.510254	-0.506092	0.231950
C43	C	1.510426	-0.505839	0.115797
C44	C	1.573912	-0.442058	0.943984
C45	C	1.573944	-0.442012	1.064034
H46	H	0.943496	-0.451362	0.449197
O47	O	1.445341	-0.571006	0.945250
C48	C	1.267611	-0.621996	0.978787
C49	C	1.341133	-0.548207	0.918646
H50	H	1.183345	-0.603605	0.957283
H51	H	1.279108	-0.610338	1.066157
H52	H	1.285966	-0.706735	0.957390
H53	H	1.322824	-0.463441	0.939955
H54	H	1.329623	-0.559956	0.831291
O55	O	0.897533	-0.635222	0.631615
C56	C	0.729318	-0.694769	0.690580
C57	C	0.789504	-0.620852	0.617232
H58	H	0.641966	-0.683193	0.678960
H59	H	0.750680	-0.676433	0.774914
H60	H	0.750763	-0.779468	0.672112
H61	H	0.768091	-0.536128	0.635605
H62	H	0.768137	-0.639278	0.532919
H63	H	1.078041	-0.451337	0.449188
H64	H	1.643942	-0.806477	0.369863
H65	H	1.765308	-0.906006	0.248755
H66	H	1.115402	-0.624717	0.621140
O67	O	1.244891	-1.113841	0.768640
C68	C	1.185778	-1.282876	0.827930
C69	C	1.259294	-1.222469	0.754490
H70	H	1.197413	-1.370713	0.816531
H71	H	1.101486	-1.261475	0.809502
H72	H	1.204064	-1.261150	0.912191
H73	H	1.241102	-1.244163	0.670205
H74	H	1.343564	-1.243875	0.773008
O75	O	1.775961	-1.113542	0.238220
C76	C	1.908639	-1.101982	0.105790
C77	C	1.835053	-1.041673	0.179274
H78	H	1.956450	-1.043902	0.058128
H79	H	1.860761	-1.153405	0.051056
H80	H	1.963238	-1.153297	0.153846
H81	H	1.780440	-0.990300	0.131302
H82	H	1.882996	-0.990316	0.234010
H83	H	1.644181	-1.204605	0.369999
H84	H	1.376729	-1.204595	0.637117
O85	O	1.244639	-0.897532	0.768715
C86	C	1.112067	-0.909119	0.901250
C87	C	1.185690	-0.969413	0.827791
H88	H	1.064404	-0.967208	0.949048
H89	H	1.057341	-0.857863	0.853273
H90	H	1.160014	-0.857638	0.955867
H91	H	1.137828	-1.020951	0.773160
H92	H	1.240419	-1.020602	0.875833
O93	O	1.638759	-0.376967	0.890711
C94	C	1.697782	-0.317594	0.722487
C95	C	1.624302	-0.391379	0.782684
H96	H	1.686103	-0.329204	0.635137
H97	H	1.782086	-0.336030	0.743810
H98	H	1.679502	-0.232858	0.743959
H99	H	1.642488	-0.476140	0.761244
H100	H	1.540019	-0.372853	0.761355
O101	O	1.638750	-0.376809	1.117331
C102	C	1.697943	-0.317385	1.285582
C103	C	1.624481	-0.391267	1.225351
H104	H	1.686448	-0.329065	1.372927
H105	H	1.679627	-0.232634	1.264274
H106	H	1.782204	-0.335814	1.264124
H107	H	1.540195	-0.372934	1.246777
H108	H	1.642886	-0.475996	1.246665
H109	H	1.376497	-0.806467	0.636984
O110	O	1.445665	-0.571128	1.062550
C111	C	1.431651	-0.712949	0.939213
C112	C	1.505107	-0.639060	0.999443
H113	H	1.479681	-0.767906	0.888194
H114	H	1.377076	-0.664741	0.888043
H115	H	1.383807	-0.760952	0.996881
H116	H	1.553019	-0.591042	0.941851
H117	H	1.559613	-0.687329	1.050629
