data_functionalizedCrystal
_audit_creation_method	'MofGen! by Chris Wilmer'
_symmetry_space_group_name_H-M	'P1'
_symmetry_Int_Tables_number	1
_symmetry_cell_setting	triclinic
loop_
_symmetry_equiv_pos_as_xyz
  x,y,z
_cell_length_a	23.532355
_cell_length_b	23.532357
_cell_length_c	22.010155
_cell_angle_alpha	89.998697
_cell_angle_beta	89.997414
_cell_angle_gamma	82.827896
loop_
_atom_site_label
_atom_site_type_symbol
_atom_site_fract_x
_atom_site_fract_y
_atom_site_fract_z
O1	O	0.755271	0.068988	-0.050450
O2	O	0.589401	0.079022	-0.050470
O3	O	0.677352	-0.008930	-0.050447
O4	O	0.667319	0.156940	-0.050473
O5	O	0.677336	-0.008916	0.050604
O6	O	0.589385	0.079035	0.050580
O7	O	0.755255	0.069001	0.050601
Cu8	Cu	0.672318	0.074019	0.059817
Cu9	Cu	0.672337	0.074004	-0.059687
O10	O	0.667303	0.156953	0.050577
C11	C	0.568177	0.078778	0.000053
C12	C	0.504958	0.078024	0.000045
C13	C	0.112936	0.073293	0.055154
C14	C	0.053537	0.072575	0.055157
O15	O	0.022811	0.072191	0.102002
N16	N	0.023837	0.072212	0.000074
C17	C	0.053541	0.072561	-0.055014
O18	O	0.022825	0.072186	-0.101866
C19	C	0.112940	0.073275	-0.055016
C20	C	0.142636	0.073643	0.000070
C21	C	0.142632	0.073661	0.110236
C22	C	0.202027	0.074379	0.110233
C23	C	0.231727	0.074730	0.055149
C24	C	0.202031	0.074362	0.000067
C25	C	0.142643	0.073619	-0.110104
C26	C	0.202045	0.074332	-0.110101
C27	C	0.231741	0.074701	-0.055015
C28	C	0.291125	0.075431	-0.055019
N29	N	0.320824	0.075794	0.000063
C30	C	0.291125	0.075443	0.055147
C31	C	-0.071200	0.071062	-0.055006
C32	C	-0.130599	0.070353	-0.055005
C33	C	-0.130598	0.070366	0.055166
C34	C	-0.071199	0.071079	0.055164
C35	C	-0.041501	0.071425	0.000076
C36	C	0.415859	0.076953	0.055137
C37	C	0.475259	0.077674	0.055130
C38	C	0.475254	0.077657	-0.055041
C39	C	0.415859	0.076939	-0.055034
C40	C	0.386163	0.076585	0.000060
O41	O	0.321889	0.075813	-0.101841
O42	O	0.321850	0.075811	0.101991
C43	C	0.677094	-0.030140	0.000080
C44	C	0.676339	-0.093358	0.000086
C45	C	0.671611	-0.485376	-0.055030
C46	C	0.670894	-0.544775	-0.055034
O47	O	0.670511	-0.575497	-0.101879
N48	N	0.670529	-0.574479	0.000048
C49	C	0.670876	-0.544780	0.055137
O50	O	0.670500	-0.575499	0.101988
C51	C	0.671589	-0.485381	0.055140
C52	C	0.671960	-0.455681	0.000055
C53	C	0.671980	-0.455675	-0.110111
C54	C	0.672699	-0.396280	-0.110107
C55	C	0.673047	-0.366585	-0.055023
C56	C	0.672678	-0.396286	0.000058
C57	C	0.671932	-0.455682	0.110228
C58	C	0.672645	-0.396279	0.110226
C59	C	0.673015	-0.366579	0.055141
C60	C	0.673745	-0.307196	0.055147
N61	N	0.674109	-0.277492	0.000065
C62	C	0.673761	-0.307187	-0.055020
C63	C	0.669378	-0.669521	0.055127
C64	C	0.668669	-0.728919	0.055124
C65	C	0.668685	-0.728910	-0.055046
C66	C	0.669398	-0.669511	-0.055044
C67	C	0.669742	-0.639817	0.000045
C68	C	0.675269	-0.182453	-0.055008
C69	C	0.675990	-0.123053	-0.054999
C70	C	0.675971	-0.123067	0.055172
C71	C	0.675253	-0.182462	0.055163
C72	C	0.674901	-0.212153	0.000069
O73	O	0.674126	-0.276435	0.101968
O74	O	0.674129	-0.276459	-0.101863
C75	C	0.776479	0.069245	0.000077
C76	C	0.839698	0.069999	0.000080
C77	C	0.667562	0.178163	0.000049
C78	C	0.668317	0.241381	0.000039
N79	N	0.672309	0.074030	0.143870
N80	N	0.672351	0.073989	-0.143739
C81	C	0.711284	0.035064	0.563659
C82	C	0.711287	0.035060	0.627267
O83	O	0.744402	0.001938	0.660167
N84	N	0.672337	0.073992	0.659077
C85	C	0.633378	0.112926	0.627276
O86	O	0.600248	0.146040	0.660173
C87	C	0.633373	0.112927	0.563669
C88	C	0.672329	0.073997	0.531863
C89	C	0.750237	-0.003863	0.531853
C90	C	0.750235	-0.003858	0.468249
C91	C	0.711280	0.035074	0.436453
C92	C	0.672327	0.074001	0.468259
C93	C	0.594412	0.151858	0.531869
C94	C	0.594410	0.151855	0.468258
C95	C	0.633366	0.112925	0.436452
C96	C	0.633370	0.112938	0.372860
N97	N	0.672320	0.074007	0.341050
C98	C	0.711275	0.035075	0.372846
C99	C	0.633391	0.112921	0.760853
C100	C	0.633398	0.112923	0.824459
C101	C	0.711306	0.035057	0.824446
C102	C	0.711301	0.035057	0.760839
C103	C	0.672341	0.073989	0.729044
C104	C	0.711268	0.035088	0.239275
C105	C	0.711264	0.035098	0.175666
C106	C	0.633354	0.112962	0.175685
C107	C	0.633360	0.112955	0.239288
C108	C	0.672319	0.074013	0.271082
O109	O	0.600271	0.146043	0.339919
O110	O	0.744395	0.001962	0.339941
H111	H	0.226201	0.074676	0.155090
H112	H	0.742992	0.003377	0.265154
O113	O	0.674944	-0.211204	-0.108580
C114	C	0.675404	-0.172240	-0.157188
H115	H	0.693955	-0.132372	-0.141031
H116	H	0.629783	-0.159664	-0.174119
C117	C	0.689687	-0.249488	-0.229085
C118	C	0.712477	-0.200523	-0.209242
H119	H	0.712553	-0.266934	-0.261196
H120	H	0.689375	-0.275739	-0.196337
H121	H	0.651670	-0.239001	-0.243190
H122	H	0.750490	-0.211011	-0.195130
H123	H	0.712796	-0.174274	-0.241989
O124	O	0.788016	-0.041828	0.437469
C125	C	0.779001	-0.098101	0.453154
H126	H	0.733375	-0.098037	0.470586
H127	H	0.810598	-0.114949	0.490154
C128	C	0.844142	-0.136977	0.375348
C129	C	0.788102	-0.136899	0.396754
H130	H	0.849758	-0.160910	0.340559
H131	H	0.850218	-0.099065	0.364782
H132	H	0.870467	-0.151015	0.406187
H133	H	0.761779	-0.122854	0.365918
H134	H	0.782022	-0.174810	0.407313
O135	O	0.671542	-0.484527	-0.163609
C136	C	0.621808	-0.512159	-0.166922
H137	H	0.587533	-0.489556	-0.135666
H138	H	0.632419	-0.558703	-0.152133
C139	C	0.641542	-0.537761	-0.271126
C140	C	0.599444	-0.509997	-0.232742
H141	H	0.627748	-0.536430	-0.311727
H142	H	0.675051	-0.519147	-0.268894
H143	H	0.650382	-0.576545	-0.258795
H144	H	0.590611	-0.471211	-0.245068
H145	H	0.565933	-0.528604	-0.234977
O146	O	0.113778	0.073218	0.163734
C147	C	0.086149	0.023482	0.167046
H148	H	0.108754	-0.010789	0.135788
H149	H	0.039605	0.034093	0.152259
C150	C	0.060544	0.043206	0.271252
C151	C	0.088311	0.001112	0.232865
H152	H	0.061875	0.029408	0.311852
H153	H	0.079156	0.076716	0.269021
H154	H	0.021760	0.052044	0.258922
H155	H	0.127096	-0.007721	0.245190
H156	H	0.069705	-0.032400	0.235100
O157	O	0.668240	-0.757772	-0.108542
C158	C	0.618500	-0.785398	-0.111833
H159	H	0.584233	-0.762782	-0.080578
H160	H	0.629109	-0.831939	-0.097030
C161	C	0.638215	-0.811033	-0.216033
C162	C	0.596126	-0.783253	-0.177649
H163	H	0.624414	-0.809713	-0.256631
H164	H	0.671727	-0.792423	-0.213816
H165	H	0.647052	-0.849815	-0.203690
H166	H	0.587295	-0.744471	-0.189988
H167	H	0.562612	-0.801856	-0.179870
O168	O	0.671653	-0.484568	0.163718
C169	C	0.720552	-0.525691	0.167040
H170	H	0.755274	-0.512514	0.135808
H171	H	0.708854	-0.569179	0.152229
C172	C	0.700219	-0.545853	0.271227
C173	C	0.742867	-0.529666	0.232870
H174	H	0.713983	-0.548307	0.311834
H175	H	0.667274	-0.518149	0.268989
H176	H	0.690474	-0.582091	0.258877
H177	H	0.752606	-0.493425	0.245216
H178	H	0.775815	-0.557364	0.235112
O179	O	0.387057	0.076667	-0.108580
C180	C	0.394812	0.126180	-0.142090
H181	H	0.435689	0.143151	-0.126432
H182	H	0.356657	0.160319	-0.134455
C183	C	0.349398	0.090378	-0.229391
C184	C	0.399607	0.111220	-0.210164
H185	H	0.352354	0.081152	-0.271383
H186	H	0.344172	0.057021	-0.206815
H187	H	0.317608	0.118831	-0.223023
H188	H	0.431396	0.082765	-0.216525
H189	H	0.404839	0.144572	-0.232743
O190	O	0.676319	-0.094304	0.108733
C191	C	0.675817	-0.133248	0.157355
H192	H	0.693358	-0.178054	0.141221
H193	H	0.630035	-0.133325	0.174266
C194	C	0.691873	-0.060125	0.229233
C195	C	0.713421	-0.115156	0.209418
H196	H	0.715067	-0.048964	0.261350
H197	H	0.692209	-0.033887	0.196476
H198	H	0.653722	-0.060197	0.243322
H199	H	0.751569	-0.115082	0.195324
H200	H	0.713092	-0.141393	0.242174
H201	H	-0.047025	0.071380	0.100020
H202	H	0.781959	-0.035569	0.557736
O203	O	0.595499	0.150694	0.270258
C204	C	0.560536	0.120370	0.307035
H205	H	0.583482	0.075683	0.316557
H206	H	0.518469	0.116724	0.282522
C207	C	0.519991	0.207421	0.355766
C208	C	0.548176	0.152537	0.367464
H209	H	0.512364	0.227264	0.393041
H210	H	0.543544	0.227852	0.330987
H211	H	0.484938	0.204376	0.335337
H212	H	0.583231	0.155584	0.387886
H213	H	0.524628	0.132108	0.392248
O214	O	0.749162	-0.002817	0.730039
C215	C	0.783554	-0.037165	0.771751
H216	H	0.760210	-0.037682	0.817094
H217	H	0.825751	-0.018894	0.778510
C218	C	0.824326	-0.098036	0.691243
C219	C	0.795652	-0.098675	0.746933
H220	H	0.831791	-0.135978	0.675934
H221	H	0.801157	-0.074894	0.663140
H222	H	0.859487	-0.082807	0.696883
H223	H	0.760488	-0.113897	0.741291
H224	H	0.818815	-0.121821	0.775035
O225	O	0.504178	0.077953	0.108604
C226	C	0.545271	0.029029	0.111915
H227	H	0.556423	0.012685	0.064092
H228	H	0.527100	-0.005789	0.139102
C229	C	0.585945	0.064773	0.202147
C230	C	0.599645	0.044702	0.143409
H231	H	0.619484	0.074439	0.221576
H232	H	0.558258	0.097733	0.199918
H233	H	0.570801	0.035754	0.224795
H234	H	0.614782	0.073723	0.120760
H235	H	0.627335	0.011747	0.145635
H236	H	0.743025	0.003355	0.850346
H237	H	0.668376	-0.753097	0.099980
O238	O	-0.159462	0.069916	0.108662
C239	C	-0.187085	0.020174	0.111951
H240	H	-0.164467	-0.014089	0.080693
H241	H	-0.233626	0.030782	0.097149
C242	C	-0.212725	0.039876	0.216152
C243	C	-0.184941	-0.002208	0.177765
H244	H	-0.211405	0.026071	0.256750
H245	H	-0.194117	0.073389	0.213936
H246	H	-0.251506	0.048712	0.203810
H247	H	-0.146159	-0.011038	0.190103
H248	H	-0.203543	-0.035723	0.179985
O249	O	0.230802	0.074696	-0.163669
C250	C	0.191851	0.074204	-0.212283
H251	H	0.147044	0.091726	-0.196132
H252	H	0.191783	0.028428	-0.229212
C253	C	0.264954	0.090312	-0.284171
C254	C	0.209922	0.111837	-0.264336
H255	H	0.276101	0.113524	-0.316281
H256	H	0.291196	0.090641	-0.251420
H257	H	0.264890	0.052165	-0.298275
H258	H	0.209988	0.149980	-0.250226
H259	H	0.183680	0.111515	-0.297086
O260	O	0.556644	0.189727	0.562785
C261	C	0.586925	0.224702	0.599589
H262	H	0.631833	0.225436	0.580424
H263	H	0.590013	0.206864	0.647796
C264	C	0.500011	0.285113	0.624100
C265	C	0.555167	0.286018	0.600558
H266	H	0.480420	0.322935	0.624701
H267	H	0.479610	0.261549	0.599307
H268	H	0.502592	0.270245	0.664271
H269	H	0.552585	0.300879	0.560386
H270	H	0.575567	0.309586	0.625345
H271	H	0.601682	0.144630	0.850351
O272	O	-0.159482	0.070103	-0.108500
C273	C	-0.200594	0.119012	-0.111800
H274	H	-0.187413	0.153712	-0.080545
H275	H	-0.244088	0.107316	-0.097004
C276	C	-0.220745	0.098742	-0.216003
C277	C	-0.204553	0.141363	-0.177618
H278	H	-0.223190	0.112528	-0.256602
H279	H	-0.193048	0.065789	-0.213779
H280	H	-0.256988	0.088999	-0.203665
H281	H	-0.168308	0.151100	-0.189951
H282	H	-0.232244	0.174318	-0.179846
H283	H	-0.047024	0.071349	-0.099868
H284	H	0.601665	0.144629	0.734969
O285	O	0.113768	0.073358	-0.163600
C286	C	0.072655	0.122266	-0.166915
H287	H	0.085831	0.156972	-0.135663
H288	H	0.029159	0.110572	-0.152123
C289	C	0.052520	0.101979	-0.271117
C290	C	0.068706	0.144607	-0.232737
H291	H	0.050082	0.115759	-0.311719
H292	H	0.080217	0.069028	-0.268883
H293	H	0.016275	0.092238	-0.258783
H294	H	0.104953	0.154342	-0.245066
H295	H	0.041015	0.177561	-0.234974
O296	O	0.595591	0.150800	0.144723
C297	C	0.625879	0.185788	0.107937
H298	H	0.670580	0.162875	0.098410
H299	H	0.629493	0.227865	0.132445
C300	C	0.538798	0.226261	0.059217
C301	C	0.593698	0.198117	0.047512
H302	H	0.518946	0.233868	0.021945
H303	H	0.518391	0.202691	0.084002
H304	H	0.541817	0.261322	0.079642
H305	H	0.590678	0.163054	0.027095
H306	H	0.614103	0.221681	0.022722
H307	H	0.499445	0.077945	-0.099889
O308	O	0.748997	-0.002809	0.144741
C309	C	0.718646	-0.037786	0.108016
H310	H	0.673980	-0.014810	0.098451
H311	H	0.714946	-0.079810	0.132596
C312	C	0.805684	-0.078485	0.059363
C313	C	0.750826	-0.050262	0.047612
H314	H	0.825535	-0.086184	0.022104
H315	H	0.826133	-0.054922	0.084107
H316	H	0.802593	-0.113502	0.079848
H317	H	0.753917	-0.015244	0.027134
H318	H	0.730378	-0.073820	0.022863
H319	H	0.562682	0.183558	0.442374
H320	H	0.669659	-0.645348	0.099989
O321	O	0.676247	-0.094139	-0.108481
C322	C	0.627309	-0.053061	-0.111774
H323	H	0.610987	-0.041904	-0.063943
H324	H	0.592484	-0.071251	-0.138929
C325	C	0.662991	-0.012393	-0.202046
C326	C	0.642946	0.001314	-0.143299
H327	H	0.672635	0.021147	-0.221495
H328	H	0.695960	-0.040069	-0.199829
H329	H	0.633967	-0.027552	-0.224668
H330	H	0.671973	0.016465	-0.120676
H331	H	0.609982	0.028994	-0.145513
H332	H	0.672998	-0.372103	-0.154963
H333	H	0.391687	0.076669	0.100000
O334	O	0.672998	-0.367526	0.163796
C335	C	0.672499	-0.406479	0.212408
H336	H	0.690031	-0.451283	0.196261
H337	H	0.626719	-0.406555	0.229328
C338	C	0.688579	-0.333377	0.284301
C339	C	0.710116	-0.388405	0.264470
H340	H	0.711780	-0.322227	0.316417
H341	H	0.688913	-0.307132	0.251551
H342	H	0.650429	-0.333446	0.298397
H343	H	0.748262	-0.388333	0.250368
H344	H	0.709790	-0.414649	0.297219
H345	H	0.674957	-0.206645	0.100018
H346	H	0.669699	-0.645333	-0.099899
