data_functionalizedCrystal
_audit_creation_method	'MofGen! by Chris Wilmer'
_symmetry_space_group_name_H-M	'P1'
_symmetry_Int_Tables_number	1
_symmetry_cell_setting	triclinic
loop_
_symmetry_equiv_pos_as_xyz
  x,y,z
_cell_length_a	15.995350
_cell_length_b	15.944551
_cell_length_c	15.072220
_cell_angle_alpha	89.997918
_cell_angle_beta	89.991149
_cell_angle_gamma	83.495557
loop_
_atom_site_label
_atom_site_type_symbol
_atom_site_fract_x
_atom_site_fract_y
_atom_site_fract_z
O1	O	1.111002	0.108264	-0.073709
O2	O	1.611002	0.608264	0.426291
O3	O	0.867227	0.121634	-0.073728
O4	O	1.367227	0.621634	0.426272
O5	O	0.995772	-0.007326	-0.073710
O6	O	1.495772	0.492674	0.426290
O7	O	0.982458	0.237224	-0.073727
O8	O	1.482458	0.737224	0.426273
O9	O	0.995740	-0.007319	0.073855
O10	O	1.495740	0.492681	0.573855
O11	O	0.867196	0.121641	0.073837
O12	O	1.367196	0.621641	0.573837
O13	O	1.110970	0.108271	0.073856
O14	O	1.610970	0.608271	0.573856
Zn15	Zn	0.989078	0.114957	0.097276
Zn16	Zn	1.489078	0.614957	0.597276
Zn17	Zn	0.989120	0.114948	-0.097148
Zn18	Zn	1.489120	0.614948	0.402852
O19	O	0.982426	0.237232	0.073838
O20	O	1.482426	0.737232	0.573838
C21	C	0.836017	0.121085	0.000053
C22	C	1.336017	0.621085	0.500053
C23	C	0.743066	0.119428	0.000046
C24	C	1.243066	0.619428	0.500046
C25	C	0.405318	0.113477	0.000065
C26	C	0.905318	0.613477	0.500065
C27	C	0.452747	0.021634	0.000400
C28	C	0.952747	0.521634	0.500400
C29	C	0.549438	0.023291	0.000061
C30	C	1.049438	0.523291	0.500061
C31	C	0.572879	0.116429	0.000056
C32	C	1.072879	0.616429	0.500056
C33	C	0.531813	0.161725	-0.084211
C34	C	1.031813	0.661725	0.415789
C35	C	0.435177	0.159417	-0.084275
C36	C	0.935177	0.659417	0.415725
C37	C	0.434802	0.161323	0.083534
C38	C	0.934802	0.661323	0.583534
C39	C	0.531747	0.161301	0.084642
C40	C	1.031747	0.661301	0.584642
C41	C	0.667577	0.118102	0.000048
C42	C	1.167577	0.618102	0.500048
C43	C	0.310620	0.111806	0.000067
C44	C	0.810620	0.611806	0.500067
C45	C	0.995203	-0.038616	0.000073
C46	C	1.495203	0.461384	0.500073
C47	C	0.993546	-0.131862	0.000073
C48	C	1.493546	0.368138	0.500073
C49	C	0.909908	-0.346714	0.000054
C50	C	1.409908	0.153286	0.500054
C51	C	0.948731	-0.407730	0.072816
C52	C	1.448731	0.092270	0.572816
C53	C	0.990548	-0.302588	0.000066
C54	C	1.490548	0.197412	0.500066
C55	C	0.948781	-0.407721	-0.072672
C56	C	1.448781	0.092279	0.427328
C57	C	0.987647	-0.467501	0.000055
C58	C	1.487647	0.032499	0.500055
C59	C	1.029394	-0.362376	0.072888
C60	C	1.529394	0.137624	0.572888
C61	C	1.029433	-0.362360	-0.072665
C62	C	1.529433	0.137640	0.427335
C63	C	1.068315	-0.423358	0.000114
C64	C	1.568315	0.076642	0.500114
C65	C	0.992217	-0.207586	0.000073
C66	C	1.492217	0.292414	0.500073
C67	C	0.985984	-0.562502	0.000055
C68	C	1.485984	-0.062502	0.500055
C69	C	1.142181	0.108821	0.000074
C70	C	1.642181	0.608821	0.500074
C71	C	1.235131	0.110478	0.000075
C72	C	1.735131	0.610478	0.500075
C73	C	0.982995	0.268522	0.000053
C74	C	1.482995	0.768522	0.500053
C75	C	0.984652	0.361768	0.000047
C76	C	1.484652	0.861768	0.500047
N77	N	0.989055	0.114963	0.229965
N78	N	1.489055	0.614963	0.729965
N79	N	0.989149	0.114935	-0.229836
N80	N	1.489149	0.614935	0.270164
C81	C	0.989118	0.114945	0.589166
C82	C	1.489118	0.614945	1.089166
C83	C	0.920105	0.183717	0.551550
C84	C	1.420105	0.683717	1.051550
C85	C	0.920264	0.183968	0.448724
C86	C	1.420264	0.683968	0.948724
C87	C	0.989086	0.114954	0.410962
C88	C	1.489086	0.614954	0.910962
C89	C	1.076452	0.134096	0.448258
C90	C	1.576452	0.634096	0.948258
C91	C	1.076065	0.134585	0.551116
C92	C	1.576065	0.634585	1.051116
C93	C	0.971544	0.026826	0.551271
C94	C	1.471544	0.526826	1.051271
C95	C	0.969539	0.027414	0.448407
C96	C	1.469539	0.527414	0.948407
C97	C	0.989074	0.114958	0.310249
C98	C	1.489074	0.614958	0.810249
C99	C	0.989136	0.114943	0.689879
C100	C	1.489136	0.614943	1.189879
H101	H	0.577307	-0.012561	-0.060445
H102	H	1.077307	0.487439	0.439555
H103	H	0.914676	-0.427799	-0.134190
H104	H	1.414676	0.072201	0.365810
N105	N	0.410928	0.115651	-0.167700
N106	N	0.910928	0.615651	0.332300
H107	H	0.428038	0.147686	-0.221303
H108	H	0.928038	0.647686	0.278697
H109	H	0.440473	0.056227	-0.169038
H110	H	0.940473	0.556227	0.330962
N111	N	0.821249	-0.302582	0.000136
N112	N	1.321249	0.197418	0.500136
H113	H	0.790473	-0.319763	-0.054254
H114	H	1.290473	0.180237	0.445746
H115	H	0.790954	-0.318972	0.055182
H116	H	1.290954	0.181028	0.555182
H117	H	0.403044	0.229038	0.084100
H118	H	0.903044	0.729038	0.584100
N119	N	1.097453	0.218253	0.414126
N120	N	1.597453	0.718253	0.914126
H121	H	1.104290	0.257188	0.465830
H122	H	1.604290	0.757188	0.965830
H123	H	1.151617	0.209794	0.379155
H124	H	1.651617	0.709794	0.879155
N125	N	0.428189	-0.026986	0.080452
N126	N	0.928189	0.473014	0.580452
H127	H	0.365589	-0.030738	0.079295
H128	H	0.865589	0.469262	0.579295
H129	H	0.459378	-0.085709	0.079342
H130	H	0.959378	0.414291	0.579342
H131	H	0.402933	0.226847	-0.088103
H132	H	0.902933	0.726847	0.411897
H133	H	0.545942	0.230150	-0.087348
H134	H	1.045942	0.730150	0.412652
N135	N	0.569393	0.120035	-0.167279
N136	N	1.069393	0.620035	0.332721
H137	H	0.542559	0.149624	-0.221141
H138	H	1.042559	0.649624	0.278859
H139	H	0.631999	0.123764	-0.168167
H140	H	1.131999	0.623764	0.331833
H141	H	0.433164	-0.014912	-0.059693
H142	H	0.933164	0.485088	0.440307
H143	H	0.414251	0.131301	0.147406
H144	H	0.914251	0.631301	0.647406
N145	N	1.074594	-0.335687	-0.154138
N146	N	1.574594	0.164313	0.345862
H147	H	1.134094	-0.364699	-0.154716
H148	H	1.634094	0.135301	0.345284
H149	H	1.044026	-0.351987	-0.209029
H150	H	1.544026	0.148013	0.290971
H151	H	1.016539	-0.026161	0.422706
H152	H	1.516539	0.473839	0.922706
H153	H	0.914610	-0.427834	0.134325
H154	H	1.414610	0.072166	0.634325
N155	N	0.934786	0.269847	0.585756
N156	N	1.434786	0.769847	1.085756
H157	H	0.883994	0.294754	0.620582
H158	H	1.383994	0.794754	1.120582
H159	H	0.985964	0.264428	0.625470
H160	H	1.485964	0.764428	1.125470
H161	H	1.021871	-0.024352	0.575596
H162	H	1.521871	0.475648	1.075596
N163	N	1.146108	0.070750	0.584108
N164	N	1.646108	0.570750	1.084108
H165	H	1.136998	0.012778	0.561715
H166	H	1.636998	0.512778	1.061715
H167	H	1.201834	0.086196	0.561589
H168	H	1.701834	0.586196	1.061589
H169	H	0.855323	0.172563	0.423509
H170	H	1.355323	0.672563	0.923509
N171	N	0.567904	0.117508	0.167223
N172	N	1.067904	0.617508	0.667223
H173	H	0.610750	0.068804	0.149926
H174	H	1.110750	0.568804	0.649926
H175	H	0.595900	0.158882	0.204595
H176	H	1.095900	0.658882	0.704595
N177	N	0.833802	0.168869	0.584342
N178	N	1.333802	0.668869	1.084342
H179	H	0.838598	0.117420	0.623903
H180	H	1.338598	0.617420	1.123903
H181	H	0.808555	0.219751	0.619008
H182	H	1.308555	0.719751	1.119008
H183	H	0.931487	0.249360	0.424107
H184	H	1.431487	0.749360	0.924107
N185	N	0.552096	0.251270	0.091385
N186	N	1.052096	0.751270	0.591385
H187	H	0.588425	0.264276	0.039470
H188	H	1.088425	0.764276	0.539470
H189	H	0.498161	0.290893	0.090664
H190	H	0.998161	0.790893	0.590664
N191	N	1.096571	0.219707	0.582896
N192	N	1.596571	0.719707	1.082896
H193	H	1.153962	0.230053	0.560303
H194	H	1.653962	0.730053	1.060303
H195	H	1.052916	0.265175	0.559771
H196	H	1.552916	0.765175	1.059771
H197	H	1.063459	-0.342384	0.134469
H198	H	1.563459	0.157616	0.634469
N199	N	1.157053	-0.467291	0.000166
N200	N	1.657053	0.032709	0.500166
H201	H	1.187382	-0.450817	0.055147
H202	H	1.687382	0.049183	0.555147
H203	H	1.155386	-0.530419	-0.000390
H204	H	1.655386	-0.030419	0.499610
N205	N	0.888976	0.002451	0.585664
N206	N	1.388976	0.502451	1.085664
H207	H	0.862125	0.048289	0.626164
H208	H	1.362125	0.548289	1.126164
H209	H	0.850194	-0.004987	0.534087
H210	H	1.350194	0.495013	1.034087
N211	N	1.146102	0.069510	0.415859
N212	N	1.646102	0.569510	0.915859
H213	H	1.148254	0.070747	0.348905
H214	H	1.648254	0.570747	0.848905
H215	H	1.201642	0.083086	0.440706
H216	H	1.701642	0.583086	0.940706
N217	N	0.587083	-0.023865	0.080076
N218	N	1.087083	0.476135	0.580076
H219	H	0.540871	-0.045921	0.115885
H220	H	1.040871	0.454079	0.615885
H221	H	0.628441	-0.072711	0.059888
H222	H	1.128441	0.427289	0.559888
N223	N	0.884381	0.008194	0.416183
N224	N	1.384381	0.508194	0.916183
H225	H	0.858569	0.055983	0.377481
H226	H	1.358569	0.555983	0.877481
H227	H	0.891051	-0.045916	0.380757
H228	H	1.391051	0.454084	0.880757
