data_functionalizedCrystal
_audit_creation_method	'MofGen! by Chris Wilmer'
_symmetry_space_group_name_H-M	'P1'
_symmetry_Int_Tables_number	1
_symmetry_cell_setting	triclinic
loop_
_symmetry_equiv_pos_as_xyz
  x,y,z
_cell_length_a	13.033291
_cell_length_b	12.645330
_cell_length_c	13.033109
_cell_angle_alpha	97.153658
_cell_angle_beta	74.800064
_cell_angle_gamma	97.182602
loop_
_atom_site_label
_atom_site_type_symbol
_atom_site_fract_x
_atom_site_fract_y
_atom_site_fract_z
Zn1	Zn	1.700312	-0.307157	-0.807184
Zn2	Zn	1.677655	-0.464483	-0.629560
Zn3	Zn	1.500116	-0.307177	-0.606987
Zn4	Zn	1.522658	-0.504327	-0.784535
O5	O	1.600185	-0.395786	-0.707067
O6	O	1.845956	-0.311344	-0.802548
O7	O	1.635188	-0.426950	-0.477925
O8	O	1.526720	-0.158825	-0.633575
O9	O	1.829310	-0.426931	-0.672048
O10	O	1.673803	-0.158811	-0.780659
O11	O	1.504751	-0.311378	-0.461341
O12	O	1.354456	-0.350012	-0.611613
O13	O	1.565140	-0.494838	-0.936180
O14	O	1.371018	-0.494857	-0.742057
O15	O	1.695661	-0.349979	-0.952820
O16	O	1.657047	-0.618118	-0.650086
O17	O	1.543171	-0.647391	-0.763946
C18	C	1.324194	-0.426761	-0.671929
C19	C	1.206127	-0.440041	-0.656922
C20	C	1.039713	-0.402598	-0.699397
C21	C	1.161742	-0.388875	-0.714907
C22	C	1.600129	-0.671219	-0.707035
C23	C	1.600206	-0.789043	-0.707069
C24	C	1.671693	-0.938144	-0.635257
C25	C	1.671985	-0.815576	-0.635492
C26	C	1.644785	-0.842606	-0.822893
C27	C	1.645379	-0.965082	-0.822539
C28	C	1.484250	-0.965768	-0.664157
C29	C	1.484469	-0.842821	-0.661714
C30	C	1.877254	-0.364691	-0.742343
C31	C	1.995324	-0.351440	-0.757375
C32	C	1.635443	-0.426851	-0.984119
C33	C	1.650467	-0.440088	-1.102182
C34	C	1.600274	-0.119277	-0.707126
C35	C	1.600311	-0.001445	-0.707151
C36	C	1.592628	-0.388807	-1.146613
C37	C	1.608155	-0.402488	-1.268637
C38	C	1.565126	-0.364759	-0.431100
C39	C	1.550307	-0.351200	-0.313064
H40	H	1.047661	-0.297476	-0.818489
C41	C	1.165127	-0.617475	-0.600524
C42	C	1.135495	-0.512892	-0.574403
H43	H	1.121525	-0.662446	-0.549577
H44	H	1.156081	-0.643114	-0.669568
H45	H	1.237868	-0.617793	-0.600125
H46	H	1.062756	-0.512573	-0.574810
H47	H	1.144532	-0.487247	-0.505341
C48	C	1.459735	-0.271074	-1.140434
C49	C	1.510250	-0.315871	-1.076021
H50	H	1.408872	-0.226052	-1.096853
H51	H	1.511495	-0.230141	-1.189595
H52	H	1.424563	-0.326651	-1.178526
H53	H	1.545429	-0.260293	-1.037935
H54	H	1.458482	-0.356805	-1.026841
C55	C	1.792358	-0.437769	-1.325879
C56	C	1.690532	-0.475436	-1.339220
H57	H	1.843210	-0.482808	-1.369450
H58	H	1.810209	-0.366825	-1.346008
H59	H	1.792713	-0.438146	-1.253133
H60	H	1.690174	-0.475052	-1.411965
H61	H	1.672676	-0.546398	-1.319098
C62	C	1.607768	-0.845636	-0.450226
C63	C	1.632130	-0.765339	-0.520159
H64	H	1.583176	-0.814621	-0.379021
H65	H	1.553641	-0.896525	-0.468192
H66	H	1.669975	-0.880207	-0.456027
H67	H	1.569921	-0.730774	-0.514363
H68	H	1.686261	-0.714432	-0.502187
C69	C	1.834666	-0.475365	-1.159428
C70	C	1.732840	-0.513033	-1.172769
H71	H	1.885518	-0.520404	-1.202999
H72	H	1.852517	-0.404422	-1.179556
H73	H	1.835021	-0.475742	-1.086682
H74	H	1.732482	-0.512648	-1.245514
H75	H	1.714984	-0.583995	-1.152647
H76	H	1.642361	-0.960440	-0.549610
H77	H	0.987375	-0.456552	-0.638274
H78	H	1.214075	-0.334908	-0.776026
H79	H	1.756893	-0.961682	-0.664558
C80	C	1.619316	-0.870402	-1.000533
C81	C	1.577551	-0.821620	-0.897971
H82	H	1.577795	-0.857459	-1.046876
H83	H	1.691057	-0.841492	-1.026588
H84	H	1.617404	-0.945343	-0.997693
H85	H	1.579471	-0.746677	-0.900810
H86	H	1.505792	-0.850526	-0.871910
H87	H	1.430890	-1.008365	-0.716345
H88	H	1.451114	-0.807130	-0.576407
C89	C	1.330074	-0.966758	-0.515080
C90	C	1.433223	-0.999624	-0.551116
H91	H	1.298581	-0.987665	-0.445295
H92	H	1.333732	-0.891096	-0.513434
H93	H	1.287950	-0.999240	-0.562066
H94	H	1.475350	-0.967135	-0.504134
H95	H	1.429571	-1.075300	-0.552755
C96	C	1.856934	-0.846921	-0.699240
C97	C	1.787639	-0.766124	-0.675428
H98	H	1.928335	-0.816391	-0.723905
H99	H	1.850758	-0.881264	-0.636804
H100	H	1.838714	-0.897895	-0.753174
H101	H	1.805855	-0.715154	-0.621488
H102	H	1.793820	-0.731764	-0.737871
H103	H	1.730638	-0.987098	-0.857297
H104	H	1.729167	-0.805471	-0.857938
C105	C	1.644274	-1.086729	-0.979242
C106	C	1.579293	-1.023420	-0.898357
H107	H	1.603477	-1.122747	-1.026045
H108	H	1.702019	-1.042505	-1.018210
H109	H	1.671382	-1.137885	-0.948322
H110	H	1.552191	-0.972260	-0.929276
H111	H	1.521528	-1.067648	-0.859383
H112	H	1.427262	-0.825671	-0.709090
H113	H	1.489287	-0.297167	-1.260769
