data_functionalizedCrystal
_audit_creation_method	'MofGen! by Chris Wilmer'
_symmetry_space_group_name_H-M	'P1'
_symmetry_Int_Tables_number	1
_symmetry_cell_setting	triclinic
loop_
_symmetry_equiv_pos_as_xyz
  x,y,z
_cell_length_a	17.019372
_cell_length_b	15.500227
_cell_length_c	8.597213
_cell_angle_alpha	79.431251
_cell_angle_beta	83.844149
_cell_angle_gamma	88.970414
loop_
_atom_site_label
_atom_site_type_symbol
_atom_site_fract_x
_atom_site_fract_y
_atom_site_fract_z
O1	O	1.047148	-0.021065	0.202025
O2	O	1.547148	0.478935	0.702025
O3	O	0.818448	-0.005826	0.225989
O4	O	1.318448	0.494174	0.725989
O5	O	0.938157	0.003312	-0.016170
O6	O	1.438157	0.503312	0.483830
O7	O	0.927439	-0.030203	0.444184
O8	O	1.427439	0.469797	0.944184
O9	O	0.930893	-0.141127	-0.001533
O10	O	1.430893	0.358873	0.498467
O11	O	0.811184	-0.150265	0.240626
O12	O	1.311184	0.349735	0.740626
O13	O	1.039884	-0.165504	0.216662
O14	O	1.539884	0.334496	0.716662
Cu15	Cu	0.924871	-0.171073	0.229980
Cu16	Cu	1.424871	0.328927	0.729980
Cu17	Cu	0.933462	-0.000257	0.212671
Cu18	Cu	1.433462	0.499743	0.712671
O19	O	0.920175	-0.174642	0.458821
O20	O	1.420175	0.325358	0.958821
C21	C	0.785534	-0.075777	0.232112
C22	C	1.285534	0.424223	0.732112
C23	C	0.698282	-0.069015	0.228532
C24	C	1.198282	0.430985	0.728532
C25	C	0.205008	-0.026757	0.207822
C26	C	0.705008	0.473243	0.707822
C27	C	0.286990	-0.033123	0.211188
C28	C	0.786990	0.466877	0.711188
C29	C	0.324012	-0.115041	0.220861
C30	C	0.824012	0.384959	0.720861
C31	C	0.279049	-0.190597	0.227153
C32	C	0.779049	0.309403	0.727153
C33	C	0.197069	-0.184230	0.223776
C34	C	0.697069	0.315770	0.723776
C35	C	0.571339	-0.138204	0.231446
C36	C	1.071339	0.361796	0.731446
C37	C	0.653325	-0.144565	0.234828
C38	C	1.153325	0.355435	0.734828
C39	C	0.661260	0.012910	0.218860
C40	C	1.161260	0.512910	0.718860
C41	C	0.579278	0.019269	0.215493
C42	C	1.079278	0.519269	0.715493
C43	C	0.534323	-0.056287	0.221777
C44	C	1.034323	0.443713	0.721777
C45	C	0.407810	-0.121550	0.224307
C46	C	0.907810	0.378450	0.724307
C47	C	0.450527	-0.049776	0.218320
C48	C	0.950527	0.450224	0.718320
N49	N	0.918834	-0.291216	0.242154
N50	N	1.418834	0.208784	0.742154
C51	C	0.969577	-0.332625	0.139581
C52	C	1.469577	0.167375	0.639581
C53	C	0.965018	-0.423545	0.148803
C54	C	1.465018	0.076455	0.648803
C55	C	0.909720	-0.473057	0.260606
C56	C	1.409720	0.026943	0.760606
C57	C	0.858972	-0.431642	0.363184
C58	C	1.358972	0.068358	0.863184
C59	C	0.863527	-0.340722	0.353954
C60	C	1.363527	0.159278	0.853954
C61	C	0.893311	-0.747779	0.293831
C62	C	1.393311	-0.247779	0.793831
C63	C	0.888762	-0.838705	0.303057
C64	C	1.388762	-0.338705	0.803057
C65	C	0.994807	-0.830602	0.088673
C66	C	1.494807	-0.330602	0.588673
C67	C	0.999361	-0.739682	0.079459
C68	C	1.499361	-0.239682	0.579459
C69	C	0.948610	-0.698274	0.182031
C70	C	1.448610	-0.198274	0.682031
C71	C	0.905062	-0.565993	0.270038
C72	C	1.405062	-0.065993	0.770038
C73	C	0.953265	-0.605338	0.172590
C74	C	1.453265	-0.105338	0.672590
C75	C	1.072799	-0.095552	0.210539
C76	C	1.572799	0.404448	0.710539
C77	C	1.160051	-0.102308	0.214119
C78	C	1.660051	0.397692	0.714119
C79	C	0.933779	-0.064459	-0.067772
C80	C	1.433779	0.435541	0.432228
C81	C	0.931546	-0.051201	-0.243336
C82	C	1.431546	0.448799	0.256664
N83	N	0.939505	0.119886	0.200484
N84	N	1.439505	0.619886	0.700484
C85	C	0.924553	-0.106870	0.510423
C86	C	1.424553	0.393130	1.010423
C87	C	0.926786	-0.120121	0.685987
C88	C	1.426786	0.379879	1.185987
H89	H	0.323591	0.028400	0.206051
H90	H	0.823591	0.528400	0.706051
H91	H	0.683465	-0.211277	0.242716
H92	H	1.183465	0.288723	0.742716
H93	H	1.044389	-0.699371	-0.011580
H94	H	1.544389	-0.199371	0.488420
H95	H	0.933915	0.017939	0.682862
H96	H	1.433915	0.517939	1.182862
H97	H	0.174870	0.039949	0.199957
H98	H	0.674870	0.539949	0.699957
H99	H	0.549140	0.085975	0.207614
H100	H	1.049140	0.585975	0.707614
H101	H	0.924426	-0.189267	0.759795
H102	H	1.424426	0.310733	1.259795
H103	H	0.843729	-0.879014	0.394108
H104	H	1.343729	-0.379014	0.894108
H105	H	0.420380	0.016922	0.210438
H106	H	0.920380	0.516922	0.710438
H107	H	0.309200	-0.257296	0.235019
H108	H	0.809200	0.242704	0.735019
H109	H	0.697871	0.074423	0.213742
H110	H	1.197871	0.574423	0.713742
H111	H	0.534748	-0.199725	0.236540
H112	H	1.034748	0.300275	0.736540
H113	H	1.014609	-0.292319	0.048546
H114	H	1.514609	0.207681	0.548546
H115	H	0.160465	-0.245753	0.228920
H116	H	0.660465	0.254247	0.728920
H117	H	0.437963	-0.188248	0.232185
H118	H	0.937963	0.311752	0.732185
H119	H	1.006337	-0.457260	0.065279
H120	H	1.506337	0.042740	0.565279
H121	H	1.036126	-0.864325	0.005162
H122	H	1.536126	-0.364325	0.505162
H123	H	0.813943	-0.471959	0.454212
H124	H	1.313943	0.028041	0.954212
H125	H	0.851989	-0.714072	0.377353
H126	H	1.351989	-0.214072	0.877353
H127	H	0.998286	-0.565023	0.081554
H128	H	1.498286	-0.065023	0.581554
H129	H	0.822206	-0.307008	0.437477
H130	H	1.322206	0.192992	0.937477
H131	H	0.860038	-0.606313	0.361074
H132	H	1.360038	-0.106313	0.861074
