data_functionalizedCrystal
_audit_creation_method	'MofGen! by Chris Wilmer'
_symmetry_space_group_name_H-M	'P1'
_symmetry_Int_Tables_number	1
_symmetry_cell_setting	triclinic
loop_
_symmetry_equiv_pos_as_xyz
  x,y,z
_cell_length_a	17.038272
_cell_length_b	9.016244
_cell_length_c	10.540539
_cell_angle_alpha	90.002288
_cell_angle_beta	92.181476
_cell_angle_gamma	89.998141
loop_
_atom_site_label
_atom_site_type_symbol
_atom_site_fract_x
_atom_site_fract_y
_atom_site_fract_z
O1	O	1.038951	0.123143	-0.275803
O2	O	0.811295	0.123187	-0.271424
O3	O	0.930317	0.123162	-0.089392
O4	O	0.919929	0.123168	-0.457836
O5	O	0.930307	-0.123519	-0.089402
O6	O	0.811286	-0.123494	-0.271435
O7	O	1.038942	-0.123538	-0.275814
Cu8	Cu	0.925113	-0.146040	-0.273626
Cu9	Cu	0.925124	0.145689	-0.273613
O10	O	0.919920	-0.123513	-0.457847
C11	C	0.782139	-0.000148	-0.267446
C12	C	0.695278	-0.000131	-0.255562
N13	N	0.925111	-0.351226	-0.273634
C14	C	0.861414	-0.414183	-0.370991
C15	C	0.861197	-0.586074	-0.370674
C16	C	0.906896	-0.586698	-0.139021
C17	C	0.906426	-0.414754	-0.139606
C18	C	1.007236	-0.414578	-0.309673
C19	C	1.006715	-0.586535	-0.312601
C20	C	0.645791	-0.000130	-0.364672
C21	C	0.564176	-0.000151	-0.353498
C22	C	0.532050	-0.000162	-0.233213
C23	C	0.581544	-0.000167	-0.124094
C24	C	0.663157	-0.000156	-0.135270
C25	C	0.286065	-0.000202	-0.193733
C26	C	0.204446	-0.000207	-0.182566
C27	C	0.187084	-0.000195	-0.411971
C28	C	0.268699	-0.000176	-0.423136
C29	C	0.318186	-0.000188	-0.314017
C30	C	0.448627	-0.000178	-0.221788
C31	C	0.401607	-0.000183	-0.325443
C32	C	1.068097	-0.000200	-0.279792
C33	C	1.154958	-0.000207	-0.291676
C34	C	0.929533	-0.000175	-0.042021
C35	C	0.927202	-0.000167	0.099144
N36	N	0.925132	0.350875	-0.273595
C37	C	0.920703	-0.000172	-0.505217
C38	C	0.923034	-0.000171	-0.646382
C39	C	0.837895	0.000404	0.290901
C40	C	0.840258	-0.000152	0.144063
C41	C	0.969039	-0.141042	0.156893
C42	C	0.966071	-0.141160	0.303714
C43	C	0.967850	0.139362	0.304079
C44	C	0.968651	0.141224	0.157023
H45	H	0.872118	-0.628284	-0.470406
Br46	Br	0.497017	-0.000145	-0.501584
H47	H	0.671941	-0.000121	-0.462621
H48	H	0.800823	-0.370992	-0.347281
Br49	Br	0.780709	-0.166499	0.347181
H50	H	1.032041	0.149718	0.126889
Br51	Br	0.980773	-0.345324	-0.014426
Br52	Br	0.405021	-0.000190	-0.058548
H53	H	0.294849	-0.000150	-0.521084
H54	H	0.178293	-0.000214	-0.084611
H55	H	1.020535	-0.627313	-0.411656
H56	H	0.807100	-0.101293	0.105395
Br57	Br	1.086251	-0.346706	-0.191526
Br58	Br	0.119920	-0.000179	-0.560052
H59	H	1.056377	-0.629454	-0.246996
Br60	Br	0.914522	-0.316654	0.355522
H61	H	0.800270	-0.627225	-0.346667
Br62	Br	1.072520	0.140925	0.373027
Br63	Br	0.982149	-0.654754	-0.014689
H64	H	1.032888	-0.146292	0.128582
H65	H	0.847684	-0.629787	-0.108174
H66	H	0.846521	-0.374665	-0.109273
H67	H	0.326348	-0.000213	-0.104880
Br68	Br	0.785391	0.168165	0.078173
Br69	Br	0.920591	-0.315760	0.090408
Br70	Br	0.780652	0.168789	0.343910
H71	H	0.555381	-0.000196	-0.026155
H72	H	0.703449	-0.000156	-0.046420
H73	H	0.427768	-0.000182	-0.423379
Br74	Br	1.070287	-0.151850	0.373950
Br75	Br	0.920949	0.317327	0.361033
H76	H	0.938040	0.245439	0.119025
Br77	Br	0.879311	-0.345293	-0.537761
H78	H	1.024648	-0.371228	-0.406223
