data_functionalizedCrystal
_audit_creation_method	'MofGen! by Chris Wilmer'
_symmetry_space_group_name_H-M	'P1'
_symmetry_Int_Tables_number	1
_symmetry_cell_setting	triclinic
loop_
_symmetry_equiv_pos_as_xyz
  x,y,z
_cell_length_a	17.019372
_cell_length_b	17.019294
_cell_length_c	9.730223
_cell_angle_alpha	86.119703
_cell_angle_beta	93.876219
_cell_angle_gamma	83.656821
loop_
_atom_site_label
_atom_site_type_symbol
_atom_site_fract_x
_atom_site_fract_y
_atom_site_fract_z
O1	O	1.046553	0.100471	-0.002424
O2	O	0.816875	0.113291	-0.031103
O3	O	0.938122	-0.007959	-0.002408
O4	O	0.925307	0.221721	-0.031119
O5	O	0.938121	-0.007956	0.226171
O6	O	0.816874	0.113294	0.197476
O7	O	1.046552	0.100474	0.226155
Zn8	Zn	0.931713	0.106885	0.248108
Zn9	Zn	0.931714	0.106881	-0.053055
O10	O	0.925305	0.221724	0.197461
C11	C	0.787486	0.112808	0.079769
C12	C	0.699918	0.111352	0.069585
C13	C	0.204656	0.103095	0.005650
C14	C	0.286935	0.104462	0.015237
C15	C	0.328065	0.105154	0.144630
C16	C	0.286913	0.104469	0.264444
C17	C	0.204636	0.103096	0.254857
C18	C	0.576489	0.109295	0.179812
C19	C	0.658771	0.110670	0.189390
C20	C	0.658788	0.110662	-0.059818
C21	C	0.576509	0.109294	-0.069394
C22	C	0.535364	0.108605	0.050420
C23	C	0.412167	0.106554	0.154432
C24	C	0.451264	0.107199	0.040618
C25	C	0.937635	-0.037346	0.115301
C26	C	0.936178	-0.124914	0.125488
C27	C	0.935496	-0.166051	0.005677
C28	C	0.934122	-0.248330	0.015253
C29	C	0.933435	-0.289472	0.144642
C30	C	0.934115	-0.248329	0.264462
C31	C	0.935483	-0.166050	0.254884
C32	C	0.929297	-0.537899	0.179794
C33	C	0.927931	-0.620184	0.189363
C34	C	0.927936	-0.620179	-0.059847
C35	C	0.929310	-0.537900	-0.069413
C36	C	0.929985	-0.496764	0.050406
C37	C	0.932033	-0.373575	0.154434
C38	C	0.931382	-0.412661	0.040613
C39	C	1.075941	0.100958	0.115281
C40	C	1.163509	0.102413	0.125455
C41	C	0.925792	0.251111	0.079748
C42	C	0.927249	0.338679	0.069552
N43	N	0.931717	0.106887	0.453644
N44	N	0.931716	0.106872	-0.258591
C45	C	0.985419	0.053215	0.538276
C46	C	0.985417	0.053206	0.682160
C47	C	0.878009	0.160546	0.656767
C48	C	0.878008	0.160551	0.512886
C49	C	1.039128	-0.000449	0.479035
C50	C	1.092835	-0.054124	0.563668
C51	C	1.092833	-0.054134	0.707552
C52	C	1.039124	-0.000468	0.766803
H53	H	0.320408	0.105027	0.369799
H54	H	0.171134	0.102549	0.352414
H55	H	0.929870	-0.504408	-0.174776
C56	C	0.932142	-0.367404	-0.101711
N57	N	0.932720	-0.333310	-0.208909
C58	C	1.039125	-0.000482	0.925081
N59	N	1.039130	-0.000489	1.044295
H60	H	0.692257	0.111239	0.294762
C61	C	0.933354	-0.293587	0.406792
N62	N	0.932782	-0.327674	0.513997
C63	C	0.406018	0.106439	-0.101710
N64	N	0.371932	0.105870	-0.208913
H65	H	0.936028	-0.132556	0.352446
C66	C	0.531274	0.108520	-0.211735
N67	N	0.497203	0.107936	-0.318947
H68	H	0.834282	0.204239	0.705019
H69	H	0.929863	-0.504418	0.277362
C70	C	0.457412	0.107367	0.296754
N71	N	0.491491	0.107996	0.403948
C72	C	0.931277	-0.418838	0.296759
N73	N	0.930705	-0.452934	0.403958
H74	H	1.039136	-0.000445	0.361879
C75	C	0.936251	-0.120803	-0.136663
N76	N	0.936816	-0.086724	-0.243878
H77	H	0.834278	0.204255	0.443977
C78	C	1.151901	-0.113163	0.498488
N79	N	1.196388	-0.157635	0.449397
C80	C	0.927184	-0.665435	-0.191641
N81	N	0.926614	-0.699521	-0.290914
H82	H	0.933570	-0.281821	-0.082310
C83	C	0.927173	-0.665437	0.331707
N84	N	0.926603	-0.699522	0.438916
H85	H	0.171173	0.102538	-0.099716
C86	C	1.151899	-0.113188	0.800644
N87	N	1.196390	-0.157669	0.870758
H88	H	0.320434	0.105013	-0.082321
C89	C	0.704055	0.111409	-0.191604
N90	N	0.738151	0.111968	-0.290870
H91	H	0.543000	0.108723	0.277376
