data_functionalizedCrystal
_audit_creation_method	'MofGen! by Chris Wilmer'
_symmetry_space_group_name_H-M	'P1'
_symmetry_Int_Tables_number	1
_symmetry_cell_setting	triclinic
loop_
_symmetry_equiv_pos_as_xyz
  x,y,z
_cell_length_a	10.723024
_cell_length_b	14.971486
_cell_length_c	14.048226
_cell_angle_alpha	90.006640
_cell_angle_beta	90.006140
_cell_angle_gamma	84.040999
loop_
_atom_site_label
_atom_site_type_symbol
_atom_site_fract_x
_atom_site_fract_y
_atom_site_fract_z
O1	O	-1.655881	-0.125456	-0.079155
O2	O	-1.292603	-0.137464	-0.079158
O3	O	-1.483979	-0.001312	-0.079150
O4	O	-1.464505	-0.261608	-0.079164
O5	O	-1.483955	-0.001304	0.079172
O6	O	-1.292580	-0.137456	0.079163
O7	O	-1.655858	-0.125447	0.079166
Zn8	Zn	-1.474215	-0.131450	0.104302
Zn9	Zn	-1.474245	-0.131461	-0.104294
O10	O	-1.464482	-0.261599	0.079158
C11	C	-1.246101	-0.136586	0.000002
C12	C	-1.107574	-0.133971	0.000001
C13	C	-1.483096	0.032022	0.000011
C14	C	-1.480486	0.131333	0.000010
C15	C	-1.702360	-0.126325	0.000004
C16	C	-1.840887	-0.128940	-0.000001
C17	C	-1.031795	-0.210155	-0.000004
C18	C	-0.888620	-0.207454	-0.000005
C19	C	-1.465364	-0.294933	-0.000005
C20	C	-1.467974	-0.394244	-0.000010
N21	N	-1.474203	-0.131442	0.246662
C22	C	-1.592914	0.187954	0.000011
C23	C	-1.590455	0.281267	0.000002
C24	C	-1.475566	0.317956	-0.000003
C25	C	-1.363129	0.261327	-0.000007
C26	C	-1.365590	0.168016	-0.000004
C27	C	-1.358008	0.455817	-0.000011
C28	C	-1.355546	0.549134	-0.000012
C29	C	-1.582872	0.569068	-0.000004
C30	C	-1.585333	0.475757	-0.000002
C31	C	-1.472896	0.419134	-0.000004
N32	N	-1.474267	-0.131462	-0.246654
C33	C	-1.558971	-0.071180	0.296484
C34	C	-1.558980	-0.071179	0.396142
C35	C	-1.474225	-0.131446	0.445976
C36	C	-1.389448	-0.191712	0.396147
C37	C	-1.389435	-0.191708	0.296491
C38	C	-1.389484	-0.191719	0.603861
C39	C	-1.389499	-0.191725	0.703524
C40	C	-1.559029	-0.071190	0.703512
C41	C	-1.559016	-0.071186	0.603856
C42	C	-1.474240	-0.131453	0.554034
H43	H	-1.072915	-0.277377	-0.000002
C44	C	-1.052030	-0.043153	0.000006
N45	N	-1.010196	0.025254	0.000008
H46	H	-1.628003	-0.022108	0.436706
C47	C	-1.719303	0.147606	0.000016
N48	N	-1.814503	0.117218	0.000016
H49	H	-0.823506	-0.272673	-0.000013
C50	C	-1.652250	-0.004889	0.549041
N51	N	-1.722472	0.045050	0.507754
H52	H	-0.905993	-0.063717	-0.000003
C53	C	-1.714135	0.343547	0.000019
N54	N	-1.807296	0.390457	0.000037
C55	C	-1.229163	0.589490	-0.000029
N56	N	-1.133968	0.619886	-0.000045
H57	H	-1.678886	0.445888	0.000009
C58	C	-1.234320	0.393534	-0.000009
N59	N	-1.141160	0.346622	-0.000001
H60	H	-1.674423	0.615175	-0.000005
C61	C	-1.241910	0.105732	-0.000004
N62	N	-1.148751	0.058821	-0.000006
C63	C	-1.652209	-0.004879	0.241676
N64	N	-1.722434	0.045064	0.200397
H65	H	-1.269584	0.291207	-0.000017
C66	C	-1.652279	-0.004892	0.758318
N67	N	-1.722514	0.045040	0.799602
H68	H	-1.320482	-0.240800	0.744094
C69	C	-1.296213	-0.258007	0.549060
N70	N	-1.225963	-0.307934	0.507783
C71	C	-1.296194	-0.258009	0.241688
N72	N	-1.225962	-0.307949	0.200411
H73	H	-1.320434	-0.240780	0.436728
