data_functionalizedCrystal
_audit_creation_method	'MofGen! by Chris Wilmer'
_symmetry_space_group_name_H-M	'P1'
_symmetry_Int_Tables_number	1
_symmetry_cell_setting	triclinic
loop_
_symmetry_equiv_pos_as_xyz
  x,y,z
_cell_length_a	21.295418
_cell_length_b	21.295417
_cell_length_c	21.295411
_cell_angle_alpha	89.978356
_cell_angle_beta	89.956262
_cell_angle_gamma	90.046319
loop_
_atom_site_label
_atom_site_type_symbol
_atom_site_fract_x
_atom_site_fract_y
_atom_site_fract_z
Zn1	Zn	0.962356	-0.250415	-0.356234
Zn2	Zn	1.462356	0.249585	0.143766
Zn3	Zn	0.962258	-0.355667	-0.250959
Zn4	Zn	1.462258	0.144333	0.249041
Zn5	Zn	0.857079	-0.250445	-0.250943
Zn6	Zn	1.357079	0.249555	0.249057
Zn7	Zn	0.857048	-0.355680	-0.356155
Zn8	Zn	1.357048	0.144320	0.143845
O9	O	0.909685	-0.303052	-0.303573
O10	O	1.409685	0.196948	0.196427
O11	O	1.050432	-0.264360	-0.342308
O12	O	1.550432	0.235640	0.157692
O13	O	0.948278	-0.341716	-0.162867
O14	O	1.448278	0.158284	0.337133
O15	O	0.871098	-0.162351	-0.264937
O16	O	1.371098	0.337649	0.235063
O17	O	1.050361	-0.341688	-0.264963
O18	O	1.550361	0.158312	0.235037
O19	O	0.948444	-0.162330	-0.342293
O20	O	1.448444	0.337670	0.157707
O21	O	0.871003	-0.264410	-0.162856
O22	O	1.371003	0.235590	0.337144
O23	O	0.768985	-0.264422	-0.264861
O24	O	1.268985	0.235578	0.235139
O25	O	0.871046	-0.341709	-0.444255
O26	O	1.371046	0.158291	0.055745
O27	O	0.768963	-0.341738	-0.342160
O28	O	1.268963	0.158262	0.157840
O29	O	0.948415	-0.264372	-0.444313
O30	O	1.448415	0.235628	0.055687
O31	O	0.948248	-0.443758	-0.264887
O32	O	1.448248	0.056242	0.235113
O33	O	0.870951	-0.443767	-0.342175
O34	O	1.370951	0.056233	0.157825
C35	C	0.746134	-0.303085	-0.303500
C36	C	1.246134	0.196915	0.196500
C37	C	0.676166	-0.303114	-0.303484
C38	C	1.176166	0.196886	0.196516
C39	C	0.643304	-0.343426	-0.343674
C40	C	1.143304	0.156574	0.156326
C41	C	0.577561	-0.343410	-0.343702
C42	C	1.077561	0.156590	0.156298
C43	C	0.544683	-0.303090	-0.303530
C44	C	1.044683	0.196910	0.196470
C45	C	0.577553	-0.262770	-0.263337
C46	C	1.077553	0.237230	0.236663
C47	C	0.643294	-0.262783	-0.263315
C48	C	1.143294	0.237217	0.236685
N49	N	0.441407	-0.298163	-0.248472
N50	N	0.941407	0.201837	0.251528
N51	N	0.378956	-0.298155	-0.248495
N52	N	0.878956	0.201845	0.251505
C53	C	0.346608	-0.303050	-0.303596
C54	C	0.846608	0.196950	0.196404
N55	N	0.379072	-0.307965	-0.358675
N56	N	0.879072	0.192035	0.141325
N57	N	0.441529	-0.307976	-0.358650
N58	N	0.941529	0.192024	0.141350
C59	C	0.473398	-0.303072	-0.303550
C60	C	0.973398	0.196928	0.196450
C61	C	0.242461	-0.343346	-0.343820
C62	C	0.742461	0.156654	0.156180
C63	C	0.176717	-0.343326	-0.343849
C64	C	0.676717	0.156674	0.156151
C65	C	0.176710	-0.262690	-0.263479
C66	C	0.676710	0.237310	0.236521
C67	C	0.242453	-0.262707	-0.263455
C68	C	0.742453	0.237293	0.236545
C69	C	0.275324	-0.303038	-0.303625
C70	C	0.775324	0.196962	0.196375
C71	C	0.909603	-0.466603	-0.303538
C72	C	1.409603	0.033397	0.196462
C73	C	0.909625	-0.536571	-0.303544
C74	C	1.409625	-0.036571	0.196456
C75	C	0.949910	-0.569412	-0.263342
C76	C	1.449910	-0.069412	0.236658
C77	C	0.949939	-0.635155	-0.263356
C78	C	1.449939	-0.135155	0.236644
C79	C	0.909673	-0.668054	-0.303566
C80	C	1.409673	-0.168054	0.196434
C81	C	0.869386	-0.635205	-0.343776
C82	C	1.369386	-0.135205	0.156224
C83	C	0.869362	-0.569464	-0.343765
C84	C	1.369362	-0.069464	0.156235
N85	N	0.854606	-0.771336	-0.308340
N86	N	1.354606	-0.271336	0.191660
N87	N	0.854630	-0.833787	-0.308347
N88	N	1.354630	-0.333787	0.191653
C89	C	0.909743	-0.866129	-0.303602
C90	C	1.409743	-0.366129	0.196398
N91	N	0.964832	-0.833659	-0.298838
N92	N	1.464832	-0.333659	0.201162
N93	N	0.964807	-0.771202	-0.298828
N94	N	1.464807	-0.271202	0.201172
C95	C	0.909695	-0.739339	-0.303582
C96	C	1.409695	-0.239339	0.196418
C97	C	0.950063	-0.970255	-0.263413
C98	C	1.450063	-0.470255	0.236587
C99	C	0.950094	-1.035999	-0.263431
C100	C	1.450094	-0.535999	0.236569
C101	C	0.869535	-1.036048	-0.343848
C102	C	1.369535	-0.536048	0.156152
C103	C	0.869510	-0.970305	-0.343833
C104	C	1.369510	-0.470305	0.156167
C105	C	0.909773	-0.937413	-0.303612
C106	C	1.409773	-0.437413	0.196388
C107	C	1.073876	-0.303019	-0.303646
C108	C	1.573876	0.196981	0.196354
C109	C	1.143844	-0.303005	-0.303677
C110	C	1.643844	0.196995	0.196323
C111	C	0.909738	-0.303038	-0.467763
C112	C	1.409738	0.196962	0.032237
C113	C	0.909760	-0.303033	-0.537731
C114	C	1.409760	0.196967	-0.037731
C115	C	0.909785	-0.138861	-0.303622
C116	C	1.409785	0.361139	0.196378
C117	C	0.909828	-0.068893	-0.303642
C118	C	1.409828	0.431107	0.196358
C119	C	0.950044	-0.262761	-0.570629
C120	C	1.450044	0.237239	-0.070629
C121	C	0.950043	-0.262734	-0.636371
C122	C	1.450043	0.237266	-0.136371
C123	C	0.909765	-0.302989	-0.669214
C124	C	1.409765	0.197011	-0.169214
C125	C	0.869473	-0.343263	-0.636308
C126	C	1.369473	0.156737	-0.136308
C127	C	0.869470	-0.343285	-0.570567
C128	C	1.369470	0.156715	-0.070567
N129	N	0.904908	-0.358058	-0.772428
N130	N	1.404908	0.141942	-0.272428
N131	N	0.904914	-0.358036	-0.834879
N132	N	1.404914	0.141964	-0.334879
C133	C	0.909769	-0.302926	-0.867289
C134	C	1.409769	0.197074	-0.367289
N135	N	0.914629	-0.247837	-0.834888
N136	N	1.414629	0.252163	-0.334888
N137	N	0.914627	-0.247860	-0.772430
N138	N	1.414627	0.252140	-0.272430
C139	C	0.909763	-0.302970	-0.740499
C140	C	1.409763	0.197030	-0.240499
C141	C	0.950054	-0.262621	-0.971472
C142	C	1.450054	0.237379	-0.471472
C143	C	0.950049	-0.262593	-1.037216
C144	C	1.450049	0.237407	-0.537216
C145	C	0.869482	-0.343128	-1.037151
C146	C	1.369482	0.156872	-0.537151
C147	C	0.869484	-0.343151	-0.971409
C148	C	1.369484	0.156849	-0.471409
C149	C	0.909773	-0.302898	-0.938573
C150	C	1.409773	0.197102	-0.438573
C151	C	0.909670	-0.303019	-0.140021
C152	C	1.409670	0.196981	0.359979
C153	C	0.909769	-0.302848	-0.070054
C154	C	1.409769	0.197152	0.429946
H155	H	0.670050	-0.229954	-0.230588
H156	H	1.170050	0.270046	0.269412
O157	O	0.830438	-0.382437	-0.668236
O158	O	1.330438	0.117563	-0.168236
C159	C	0.821921	-0.467381	-0.742475
C160	C	1.321921	0.032619	-0.242475
C161	C	0.866203	-0.423067	-0.706347
C162	C	1.366203	0.076933	-0.206347
H163	H	0.850819	-0.500233	-0.773306
H164	H	1.350819	-0.000233	-0.273306
H165	H	0.793138	-0.496215	-0.707694
H166	H	1.293138	0.003785	-0.207694
H167	H	0.789013	-0.438464	-0.773205
H168	H	1.289013	0.061536	-0.273205
H169	H	0.899149	-0.451935	-0.675616
H170	H	1.399149	0.048065	-0.175616
H171	H	0.894942	-0.394230	-0.741162
H172	H	1.394942	0.105770	-0.241162
H173	H	0.670063	-0.376266	-0.376384
H174	H	1.170063	0.123734	0.123616
O175	O	0.274281	-0.223532	-0.224351
O176	O	0.774281	0.276468	0.275649
C177	C	0.267334	-0.143524	-0.144667
C178	C	0.767334	0.356476	0.355333
C179	C	0.231211	-0.187872	-0.188910
C180	C	0.731211	0.312128	0.311090
H181	H	0.232528	-0.114672	-0.116010
H182	H	0.732528	0.385328	0.383990
H183	H	0.298030	-0.172352	-0.111645
H184	H	0.798030	0.327648	0.388355
H185	H	0.298195	-0.110685	-0.173629
H186	H	0.798195	0.389315	0.326371
H187	H	0.200317	-0.220720	-0.159999
H188	H	0.700317	0.279280	0.340001
H189	H	0.200555	-0.159005	-0.221933
H190	H	0.700555	0.340995	0.278067
H191	H	0.836557	-0.542724	-0.376503
H192	H	1.336557	-0.042724	0.123497
O193	O	0.989227	-0.223738	-0.538697
O194	O	1.489227	0.276262	-0.038697
C195	C	1.074165	-0.215242	-0.464479
C196	C	1.574165	0.284758	0.035521
C197	C	1.029853	-0.259514	-0.500621
C198	C	1.529853	0.240486	-0.000621
H199	H	1.107014	-0.244148	-0.433676
H200	H	1.607014	0.255852	0.066324
H201	H	1.103004	-0.186453	-0.499251
H202	H	1.603004	0.313547	0.000749
H203	H	1.045248	-0.182340	-0.433720
H204	H	1.545248	0.317660	0.066280
H205	H	1.058721	-0.292454	-0.531381
H206	H	1.558721	0.207546	-0.031381
H207	H	1.001012	-0.288259	-0.465815
H208	H	1.501012	0.211741	0.034185
H209	H	0.269226	-0.376183	-0.376531
H210	H	0.769226	0.123817	0.123469
O211	O	0.830321	-0.382471	-0.538705
O212	O	1.330321	0.117529	-0.038705
C213	C	0.750386	-0.462322	-0.545578
C214	C	1.250386	0.037678	-0.045578
C215	C	0.794699	-0.417985	-0.581742
C216	C	1.294699	0.082015	-0.081742
H217	H	0.721565	-0.491038	-0.580358
H218	H	1.221565	0.008962	-0.080358
H219	H	0.779240	-0.495284	-0.514841
H220	H	1.279240	0.004716	-0.014841
H221	H	0.717516	-0.433431	-0.514756
H222	H	1.217516	0.066569	-0.014756
H223	H	0.827578	-0.446826	-0.612598
H224	H	1.327578	0.053174	-0.112598
H225	H	0.765806	-0.385021	-0.612440
H226	H	1.265806	0.114979	-0.112440
H227	H	0.149962	-0.376152	-0.376580
H228	H	0.649962	0.123848	0.123420
O229	O	0.988996	-0.537533	-0.224190
O230	O	1.488996	-0.037533	0.275810
C231	C	1.019579	-0.517416	-0.117147
C232	C	1.519579	-0.017416	0.382853
C233	C	0.975282	-0.553570	-0.161413
C234	C	1.475282	-0.053570	0.338587
H235	H	1.008498	-0.530358	-0.066381
H236	H	1.508498	-0.030358	0.433619
H237	H	1.070345	-0.530293	-0.128217
H238	H	1.570345	-0.030293	0.371783
H239	H	1.012657	-0.464789	-0.124075
H240	H	1.512657	0.035211	0.375925
H241	H	0.982148	-0.606205	-0.154509
H242	H	1.482148	-0.106205	0.345491
H243	H	0.924532	-0.540640	-0.150331
H244	H	1.424532	-0.040640	0.349669
H245	H	0.836602	-0.661996	-0.376516
H246	H	1.336602	-0.161996	0.123484
O247	O	0.989235	-0.938396	-0.224327
O248	O	1.489235	-0.438396	0.275673
C249	C	1.069109	-0.945285	-0.144537
C250	C	1.569109	-0.445285	0.355463
C251	C	1.024792	-0.981440	-0.188781
C252	C	1.524792	-0.481440	0.311219
H253	H	1.097859	-0.980070	-0.115777
H254	H	1.597859	-0.480070	0.384223
H255	H	1.102040	-0.914465	-0.173440
H256	H	1.602040	-0.414465	0.326560
H257	H	1.040199	-0.914545	-0.111607
H258	H	1.540199	-0.414545	0.388393
H259	H	1.053651	-1.012214	-0.221720
H260	H	1.553651	-0.512214	0.278280
H261	H	0.991859	-1.012220	-0.159839
H262	H	1.491859	-0.512220	0.340161
H263	H	0.550800	-0.376236	-0.376431
H264	H	1.050800	0.123764	0.123569
O265	O	0.144683	-0.223597	-0.224460
O266	O	0.644683	0.276403	0.275540
C267	C	0.043402	-0.187847	-0.188869
C268	C	0.543402	0.312153	0.311131
C269	C	0.079598	-0.232155	-0.233088
C270	C	0.579598	0.267845	0.266912
H271	H	-0.009226	-0.194742	-0.195839
H272	H	0.490774	0.305258	0.304161
H273	H	0.056224	-0.198851	-0.138079
H274	H	0.556224	0.301149	0.361921
H275	H	0.056418	-0.137106	-0.199984
H276	H	0.556418	0.362894	0.300016
H277	H	0.066601	-0.282911	-0.222030
H278	H	0.566601	0.217089	0.277970
H279	H	0.066772	-0.221097	-0.283865
H280	H	0.566772	0.278903	0.216135
H281	H	0.836683	-0.375948	-0.944623
H282	H	1.336683	0.124052	-0.444623
O283	O	0.989151	-0.667003	-0.224329
O284	O	1.489151	-0.167003	0.275671
C285	C	1.096241	-0.687071	-0.193912
C286	C	1.596241	-0.187071	0.306088
C287	C	1.051909	-0.650950	-0.238140
C288	C	1.551909	-0.150950	0.261860
H289	H	1.146990	-0.674115	-0.205070
H290	H	1.646990	-0.174115	0.294930
H291	H	1.085250	-0.674176	-0.143128
H292	H	1.585250	-0.174176	0.356872
H293	H	1.089297	-0.739702	-0.200824
H294	H	1.589297	-0.239702	0.299176
H295	H	1.058828	-0.598310	-0.231284
H296	H	1.558828	-0.098310	0.268716
H297	H	1.062911	-0.663898	-0.288907
H298	H	1.562911	-0.163898	0.211093
H299	H	0.982902	-1.062737	-0.230695
H300	H	1.482902	-0.562737	0.269305
H301	H	0.982857	-0.229842	-0.944736
H302	H	1.482857	0.270158	-0.444736
H303	H	0.836752	-1.062833	-0.376591
H304	H	1.336752	-0.562833	0.123409
O305	O	0.989242	-0.223450	-1.069077
O306	O	1.489242	0.276550	-0.569077
C307	C	1.069134	-0.143557	-1.062200
C308	C	1.569134	0.356443	-0.562200
C309	C	1.024790	-0.187864	-1.026038
C310	C	1.524790	0.312136	-0.526038
H311	H	1.097876	-0.114764	-1.027419
H312	H	1.597876	0.385236	-0.527419
H313	H	1.102071	-0.172412	-1.092986
H314	H	1.602071	0.327588	-0.592986
H315	H	1.040246	-0.110660	-1.092974
H316	H	1.540246	0.389340	-0.592974
H317	H	1.053627	-0.220769	-0.995231
H318	H	1.553627	0.279231	-0.495231
H319	H	0.991851	-0.158969	-0.995292
H320	H	1.491851	0.341031	-0.495292
H321	H	0.836704	-0.943564	-0.376567
H322	H	1.336704	-0.443564	0.123433
H323	H	0.982846	-0.229937	-0.663162
H324	H	1.482846	0.270063	-0.163162
O325	O	0.830419	-0.382217	-1.069144
O326	O	1.330419	0.117783	-0.569144
C327	C	0.794698	-0.417859	-1.170394
C328	C	1.294698	0.082141	-0.670394
C329	C	0.838979	-0.373567	-1.134237
C330	C	1.338979	0.126433	-0.634237
H331	H	0.801594	-0.410871	-1.223028
H332	H	1.301594	0.089129	-0.723028
H333	H	0.805729	-0.468631	-1.157517
H334	H	1.305729	0.031369	-0.657517
H335	H	0.743950	-0.406833	-1.157396
H336	H	1.243950	0.093167	-0.657396
H337	H	0.889742	-0.384536	-1.147215
H338	H	1.389742	0.115464	-0.647215
H339	H	0.827894	-0.322807	-1.147116
H340	H	1.327894	0.177193	-0.647116
H341	H	0.550779	-0.229940	-0.230630
H342	H	1.050779	0.270060	0.269370
