data_functionalizedCrystal
_audit_creation_method	'MofGen! by Chris Wilmer'
_symmetry_space_group_name_H-M	'P1'
_symmetry_Int_Tables_number	1
_symmetry_cell_setting	triclinic
loop_
_symmetry_equiv_pos_as_xyz
  x,y,z
_cell_length_a	14.908783
_cell_length_b	21.295417
_cell_length_c	14.908308
_cell_angle_alpha	93.261727
_cell_angle_beta	89.788727
_cell_angle_gamma	93.320338
loop_
_atom_site_label
_atom_site_type_symbol
_atom_site_fract_x
_atom_site_fract_y
_atom_site_fract_z
Zn1	Zn	1.345265	-0.220173	-0.587804
Zn2	Zn	1.353823	-0.319050	-0.437432
Zn3	Zn	1.203578	-0.219492	-0.428775
Zn4	Zn	1.194846	-0.331104	-0.579053
O5	O	1.274378	-0.272455	-0.508266
O6	O	1.472229	-0.228530	-0.575142
O7	O	1.341129	-0.300514	-0.310461
O8	O	1.222446	-0.131491	-0.449910
O9	O	1.478517	-0.301174	-0.464665
O10	O	1.326543	-0.131992	-0.566748
O11	O	1.230745	-0.227369	-0.304101
O12	O	1.076591	-0.239057	-0.441424
O13	O	1.207563	-0.321719	-0.706036
O14	O	1.070176	-0.321058	-0.551833
O15	O	1.318075	-0.240218	-0.712466
O16	O	1.332662	-0.408740	-0.456179
O17	O	1.215862	-0.417596	-0.560227
C18	C	1.040757	-0.281292	-0.494740
C19	C	0.940812	-0.285089	-0.488975
C20	C	0.746445	-0.216696	-0.593357
C21	C	0.652537	-0.220261	-0.587943
C22	C	0.659088	-0.295781	-0.472729
C23	C	0.752995	-0.292216	-0.478143
C24	C	0.796670	-0.252673	-0.538460
C25	C	0.890580	-0.249111	-0.543878
C26	C	0.897129	-0.324627	-0.428660
C27	C	0.803221	-0.328192	-0.423246
C28	C	1.274266	-0.436009	-0.508214
C29	C	1.274299	-0.505976	-0.508226
C30	C	1.328467	-0.539049	-0.569103
C31	C	1.328497	-0.604791	-0.569127
C32	C	1.274370	-0.637457	-0.508259
C33	C	1.220191	-0.604376	-0.447378
C34	C	1.220156	-0.538636	-0.447361
N35	N	1.272122	-0.737628	-0.429178
N36	N	1.272161	-0.800079	-0.429197
C37	C	1.274473	-0.835530	-0.508306
N38	N	1.276762	-0.806170	-0.587398
N39	N	1.276727	-0.743713	-0.587379
C40	C	1.274402	-0.708742	-0.508270
C41	C	1.328676	-0.939888	-0.569213
C42	C	1.328700	-1.005632	-0.569238
C43	C	1.220400	-1.005215	-0.447481
C44	C	1.220371	-0.939473	-0.447464
C45	C	1.274514	-0.906813	-0.508329
C46	C	1.508911	-0.263583	-0.521845
C47	C	1.608855	-0.259803	-0.527632
C48	C	1.260891	-0.282389	-0.742787
C49	C	1.255143	-0.286622	-0.842726
C50	C	1.274514	-0.108262	-0.508339
C51	C	1.274572	-0.038293	-0.508371
C52	C	1.359416	-0.209696	-1.037219
C53	C	1.354019	-0.213671	-1.131121
C54	C	1.238946	-0.298545	-1.124433
C55	C	1.244344	-0.294569	-1.030532
C56	C	1.304582	-0.250144	-0.986928
C57	C	1.309983	-0.246172	-0.893025
C58	C	1.194907	-0.331042	-0.886339
C59	C	1.189510	-0.335018	-0.980240
C60	C	1.287865	-0.262512	-0.274660
C61	C	1.293787	-0.258095	-0.174732
H62	H	0.926138	-0.216914	-0.592992
H63	H	0.782006	-0.184501	-0.642474
Cl64	Cl	0.960275	-0.369862	-0.359648
Cl65	Cl	1.396792	-1.047211	-0.645787
H66	H	1.176119	-0.630977	-0.397820
Cl67	Cl	0.589399	-0.175030	-0.656958
H68	H	0.623512	-0.327967	-0.423612
H69	H	0.767648	-0.360385	-0.374135
Cl70	Cl	1.396525	-0.497995	-0.645625
Cl71	Cl	1.152351	-1.046274	-0.370963
H72	H	1.408469	-0.173526	-1.001717
H73	H	1.176045	-0.511707	-0.397788
H74	H	1.372599	-0.631726	-0.618710
Cl75	Cl	1.396736	-0.898827	-0.645731
H76	H	1.176266	-0.912543	-0.397889
H77	H	1.359033	-0.210000	-0.857524
H78	H	1.398668	-0.180732	-1.172065
Cl79	Cl	1.163219	-0.354384	-1.179265
Cl80	Cl	1.113785	-0.390863	-1.035065
H81	H	1.150259	-0.363980	-0.845381
