data_functionalizedCrystal
_audit_creation_method	'MofGen! by Chris Wilmer'
_symmetry_space_group_name_H-M	'P1'
_symmetry_Int_Tables_number	1
_symmetry_cell_setting	triclinic
loop_
_symmetry_equiv_pos_as_xyz
  x,y,z
_cell_length_a	16.109302
_cell_length_b	14.853559
_cell_length_c	14.586319
_cell_angle_alpha	89.998399
_cell_angle_beta	89.994552
_cell_angle_gamma	83.546617
loop_
_atom_site_label
_atom_site_type_symbol
_atom_site_fract_x
_atom_site_fract_y
_atom_site_fract_z
O1	O	1.103290	0.115884	-0.076277
O2	O	1.603290	0.615884	0.423723
O3	O	0.861248	0.130305	-0.076269
O4	O	1.361248	0.630305	0.423731
O5	O	0.988738	-0.008146	-0.076272
O6	O	1.488738	0.491854	0.423728
O7	O	0.975800	0.254336	-0.076274
O8	O	1.475800	0.754336	0.423726
O9	O	0.988729	-0.008148	0.076208
O10	O	1.488729	0.491852	0.576208
O11	O	0.861239	0.130303	0.076212
O12	O	1.361239	0.630303	0.576212
O13	O	1.103281	0.115882	0.076204
O14	O	1.603281	0.615882	0.576204
Cu15	Cu	0.982259	0.123092	0.090130
Cu16	Cu	1.482259	0.623092	0.590130
Cu17	Cu	0.982270	0.123095	-0.090196
Cu18	Cu	1.482270	0.623095	0.409804
O19	O	0.975791	0.254333	0.076207
O20	O	1.475791	0.754333	0.576207
C21	C	0.830268	0.129720	-0.000028
C22	C	1.330268	0.629720	0.499972
C23	C	0.737970	0.127968	-0.000025
C24	C	1.237970	0.627968	0.499975
C25	C	0.525619	0.123917	0.083083
C26	C	1.025619	0.623917	0.583083
C27	C	0.438896	0.122261	0.083080
C28	C	0.938896	0.622261	0.583080
C29	C	0.438917	0.122268	-0.083163
C30	C	0.938917	0.622268	0.416837
C31	C	0.525638	0.123917	-0.083159
C32	C	1.025638	0.623917	0.416841
C33	C	0.568986	0.124746	-0.000033
C34	C	1.068986	0.624746	0.499967
C35	C	0.395543	0.121441	-0.000040
C36	C	0.895543	0.621441	0.499960
C37	C	0.301514	0.119646	-0.000044
C38	C	0.801514	0.619646	0.499956
C39	C	0.663021	0.126539	-0.000029
C40	C	1.163021	0.626539	0.499971
C41	C	0.988149	-0.041735	-0.000034
C42	C	1.488149	0.458265	0.499966
C43	C	0.986396	-0.141816	-0.000039
C44	C	1.486396	0.358184	0.499961
C45	C	0.978964	-0.564978	-0.083156
C46	C	1.478964	-0.064978	0.416844
C47	C	0.978954	-0.564975	0.083085
C48	C	1.478954	-0.064975	0.583085
C49	C	0.980608	-0.470945	0.083085
C50	C	1.480608	0.029055	0.583085
C51	C	0.981439	-0.423926	-0.000036
C52	C	1.481439	0.076074	0.499964
C53	C	0.980615	-0.470939	-0.083158
C54	C	1.480615	0.029061	0.416842
C55	C	0.981423	-0.423924	0.166206
C56	C	1.481423	0.076076	0.666206
C57	C	0.983076	-0.329888	0.166210
C58	C	1.483076	0.170112	0.666210
C59	C	0.983913	-0.282868	0.083088
C60	C	1.483913	0.217132	0.583088
C61	C	0.983090	-0.329887	-0.000038
C62	C	1.483090	0.170113	0.499962
C63	C	0.983921	-0.282868	-0.083159
C64	C	1.483921	0.217132	0.416841
C65	C	0.983104	-0.329886	-0.166285
C66	C	1.483104	0.170114	0.333715
C67	C	0.981452	-0.423919	-0.166280
C68	C	1.481452	0.076081	0.333720
C69	C	0.985565	-0.188835	0.083082
C70	C	1.485565	0.311165	0.583082
C71	C	0.985572	-0.188829	-0.083161
C72	C	1.485572	0.311171	0.416839
C73	C	1.134261	0.116467	-0.000040
C74	C	1.634261	0.616467	0.499960
C75	C	1.226559	0.118219	-0.000048
C76	C	1.726559	0.618219	0.499952
C77	C	0.976380	0.287922	-0.000034
C78	C	1.476380	0.787922	0.499966
C79	C	0.978133	0.388004	-0.000035
C80	C	1.478133	0.888004	0.499965
N81	N	0.982258	0.123090	0.216962
N82	N	1.482258	0.623090	0.716962
N83	N	0.982278	0.123090	-0.217028
N84	N	1.482278	0.623090	0.282972
C85	C	1.038729	0.061804	0.451967
C86	C	1.538729	0.561804	0.951967
C87	C	1.038732	0.061802	0.547948
C88	C	1.538732	0.561802	1.047948
C89	C	0.925800	0.184378	0.547961
C90	C	1.425800	0.684378	1.047961
C91	C	0.925795	0.184376	0.451981
C92	C	1.425795	0.684376	0.951981
C93	C	0.982264	0.123090	0.403987
C94	C	1.482264	0.623090	0.903987
C95	C	0.982272	0.123090	0.595948
C96	C	1.482272	0.623090	1.095948
C97	C	0.982274	0.123088	0.700015
C98	C	1.482274	0.623088	1.200015
C99	C	0.982261	0.123090	0.299913
C100	C	1.482261	0.623090	0.799913
H101	H	0.403590	0.121586	0.150761
H102	H	0.903590	0.621586	0.650761
H103	H	0.879810	0.234282	0.412913
H104	H	1.379810	0.734282	0.912913
H105	H	1.084710	0.011897	0.587011
H106	H	1.584710	0.511897	1.087011
H107	H	0.560949	0.124590	-0.150846
H108	H	1.060949	0.624590	0.349154
H109	H	1.084709	0.011900	0.412893
H110	H	1.584709	0.511900	0.912893
H111	H	0.986253	-0.150554	-0.150849
H112	H	1.486253	0.349446	0.349151
H113	H	0.560910	0.124592	0.150770
H114	H	1.060910	0.624592	0.650770
H115	H	0.403612	0.121594	-0.150841
H116	H	0.903612	0.621594	0.349159
H117	H	0.879825	0.234277	0.587047
H118	H	1.379825	0.734277	1.087047
H119	H	0.983775	-0.291590	-0.233962
H120	H	1.483775	0.208410	0.266038
H121	H	0.980787	-0.462209	-0.233957
H122	H	1.480787	0.037791	0.266043
H123	H	0.978302	-0.603264	-0.150835
H124	H	1.478302	-0.103264	0.349165
H125	H	0.978272	-0.603262	0.150758
H126	H	1.478272	-0.103262	0.650758
H127	H	0.980742	-0.462213	0.233878
H128	H	1.480742	0.037787	0.733878
H129	H	0.983744	-0.291614	0.233896
H130	H	1.483744	0.208386	0.733896
H131	H	0.986211	-0.150555	0.150762
H132	H	1.486211	0.349445	0.650762
