data_functionalizedCrystal
_audit_creation_method	'MofGen! by Chris Wilmer'
_symmetry_space_group_name_H-M	'P1'
_symmetry_Int_Tables_number	1
_symmetry_cell_setting	triclinic
loop_
_symmetry_equiv_pos_as_xyz
  x,y,z
_cell_length_a	12.827893
_cell_length_b	15.299816
_cell_length_c	12.827885
_cell_angle_alpha	80.348750
_cell_angle_beta	90.019272
_cell_angle_gamma	80.350491
loop_
_atom_site_label
_atom_site_type_symbol
_atom_site_fract_x
_atom_site_fract_y
_atom_site_fract_z
Zn1	Zn	1.669580	-0.359013	0.662876
Zn2	Zn	1.699687	-0.509854	0.518399
Zn3	Zn	1.494830	-0.359057	0.488159
Zn4	Zn	1.525006	-0.509787	0.693086
O5	O	1.597276	-0.434428	0.590630
O6	O	1.819811	-0.379032	0.643724
O7	O	1.672483	-0.489897	0.368161
O8	O	1.492782	-0.232842	0.486037
O9	O	1.841931	-0.489854	0.537577
O10	O	1.621170	-0.232810	0.614401
O11	O	1.521976	-0.379107	0.345943
O12	O	1.352595	-0.379042	0.515330
O13	O	1.544213	-0.489740	0.835305
O14	O	1.374765	-0.489782	0.665889
O15	O	1.650430	-0.378967	0.813110
O16	O	1.701744	-0.636053	0.566870
O17	O	1.573407	-0.636004	0.695212
C18	C	1.325762	-0.434410	0.590607
C19	C	1.209612	-0.434424	0.590626
C20	C	1.644146	-0.668753	0.637623
C21	C	1.664292	-0.768999	0.657762
C22	C	1.168843	-0.489308	0.665046
C23	C	1.048796	-0.489324	0.665068
C24	C	1.453969	-1.051940	0.447049
C25	C	1.435035	-0.957754	0.428130
C26	C	1.492348	-0.910561	0.485536
C27	C	1.568598	-0.957562	0.561865
C28	C	1.587528	-1.051757	0.580792
C29	C	1.625907	-0.910378	0.619279
C30	C	1.702157	-0.957379	0.695608
C31	C	1.721084	-1.051565	0.714531
C32	C	1.663771	-1.098758	0.657125
C33	C	1.606976	-0.816183	0.600352
C34	C	1.740535	-0.816000	0.734095
C35	C	1.759470	-0.910186	0.753014
C36	C	1.869849	-0.434446	0.590654
C37	C	1.986004	-0.434453	0.590664
C38	C	1.597329	-0.434341	0.863183
C39	C	1.597352	-0.434304	0.979329
C40	C	1.550251	-0.199187	0.543476
C41	C	1.530212	-0.098941	0.523381
C42	C	1.597269	-0.434449	0.319124
C43	C	1.597398	-0.434232	0.202928
C44	C	1.649917	-0.379479	1.020129
C45	C	1.649942	-0.379440	1.140171
H46	H	1.222812	-0.536281	0.728748
H47	H	1.694948	-0.332505	1.175301
H48	H	1.552360	-0.481206	1.033268
C49	C	1.802648	-0.764819	0.796612
C50	C	1.784409	-0.787658	0.904577
C51	C	1.841590	-0.740513	0.962195
H52	H	1.875994	-0.780175	0.784605
H53	H	1.780446	-0.701984	0.774475
H54	H	1.806617	-0.850479	0.926706
H55	H	1.711075	-0.772299	0.916616
H56	H	1.819388	-0.677678	0.940059
H57	H	1.914933	-0.755873	0.950180
H58	H	1.829215	-0.755996	1.035455
H59	H	1.679187	-1.175452	0.672521
C60	C	1.803952	-1.102434	0.797407
C61	C	1.850117	-1.040949	0.843608
C62	C	1.926472	-1.087775	0.919943
H63	H	1.771463	-1.139183	0.850384
H64	H	1.856936	-1.139148	0.764862
H65	H	1.797142	-1.004251	0.876153
H66	H	1.882628	-1.004198	0.790658
H67	H	1.979457	-1.124489	0.887398
H68	H	1.893974	-1.124522	0.972913
H69	H	1.957812	-1.046065	0.951294
H70	H	1.694896	-0.332568	0.966187
H71	H	1.013693	-0.536315	0.728780
H72	H	1.155641	-0.387445	0.526931
H73	H	1.372952	-0.919489	0.365984
H74	H	1.021100	-0.387466	0.526944
C75	C	1.524053	-0.765274	0.517566
C76	C	1.425270	-0.788266	0.544836
C77	C	1.348854	-0.741395	0.468585
H78	H	1.520839	-0.702406	0.514444
H79	H	1.542434	-0.780767	0.450460
H80	H	1.406892	-0.772766	0.611923
H81	H	1.428449	-0.851126	0.547950
H82	H	1.367235	-0.756889	0.401480
H83	H	1.345650	-0.678529	0.465469
H84	H	1.281823	-0.756995	0.487073
C85	C	1.391897	-1.103341	0.384802
C86	C	1.424814	-1.195886	0.417700
C87	C	1.367663	-1.243265	0.360367
H88	H	1.318560	-1.088056	0.396895
H89	H	1.404155	-1.087996	0.311494
H90	H	1.412548	-1.211225	0.490990
H91	H	1.498143	-1.211198	0.405604
H92	H	1.379920	-1.227920	0.287059
H93	H	1.294328	-1.227973	0.372465
H94	H	1.389995	-1.306061	0.382673
C95	C	1.537569	-0.496877	1.155978
C96	C	1.608330	-0.554642	1.104882
C97	C	1.553253	-0.612354	1.061598
H98	H	1.504599	-0.531335	1.210818
H99	H	1.485186	-0.462378	1.106418
H100	H	1.660694	-0.589137	1.154438
H101	H	1.641303	-0.520209	1.050028
H102	H	1.500870	-0.577856	1.012038
H103	H	1.520285	-0.646806	1.116444
H104	H	1.601254	-0.651549	1.026916
H105	H	1.476928	-0.833871	0.470126
H106	H	1.821553	-0.948467	0.815163
