data_functionalizedCrystal
_audit_creation_method	'MofGen! by Chris Wilmer'
_symmetry_space_group_name_H-M	'P1'
_symmetry_Int_Tables_number	1
_symmetry_cell_setting	triclinic
loop_
_symmetry_equiv_pos_as_xyz
  x,y,z
_cell_length_a	16.109301
_cell_length_b	16.109301
_cell_length_c	15.186229
_cell_angle_alpha	90.000293
_cell_angle_beta	90.002891
_cell_angle_gamma	83.461532
loop_
_atom_site_label
_atom_site_type_symbol
_atom_site_fract_x
_atom_site_fract_y
_atom_site_fract_z
O1	O	1.103134	0.106862	0.073173
O2	O	0.861072	0.120161	0.073187
O3	O	0.988753	-0.007520	0.073174
O4	O	0.975453	0.234542	0.073186
O5	O	0.988738	-0.007513	-0.073284
O6	O	0.861057	0.120168	-0.073270
O7	O	1.103119	0.106869	-0.073284
Zn8	Zn	0.982086	0.113520	-0.096531
Zn9	Zn	0.982105	0.113510	0.096433
O10	O	0.975438	0.234549	-0.073271
C11	C	0.830090	0.119626	-0.000040
C12	C	0.737794	0.118011	-0.000035
C13	C	0.988206	-0.038491	-0.000055
C14	C	0.986591	-0.130786	-0.000053
C15	C	1.057074	-0.439785	-0.000042
C16	C	1.058600	-0.353064	-0.000047
C17	C	0.907111	-0.333191	-0.000050
C18	C	0.905586	-0.419910	-0.000051
C19	C	0.980571	-0.473205	-0.000043
C20	C	0.983620	-0.299766	-0.000047
C21	C	0.985274	-0.205740	-0.000052
C22	C	0.978917	-0.567237	-0.000039
C23	C	0.515522	0.190018	-0.000041
C24	C	0.428802	0.188494	-0.000047
C25	C	0.448676	0.037006	-0.000051
C26	C	0.535395	0.038530	-0.000052
C27	C	0.568815	0.115039	-0.000042
C28	C	0.395376	0.111990	-0.000047
C29	C	0.301350	0.110337	-0.000054
C30	C	0.662847	0.116693	-0.000038
C31	C	1.134101	0.107404	-0.000056
C32	C	1.226397	0.109019	-0.000055
C33	C	0.975985	0.265521	-0.000041
C34	C	0.977600	0.357816	-0.000036
N35	N	0.982078	0.113526	-0.228223
C36	C	1.032502	0.163954	-0.453946
C37	C	1.032511	0.163948	-0.546136
C38	C	0.931693	0.063064	-0.546145
C39	C	0.931689	0.063066	-0.453957
C40	C	0.982092	0.113516	-0.407860
C41	C	0.982105	0.113507	-0.592238
C42	C	0.982115	0.113501	-0.692194
C43	C	0.982084	0.113521	-0.307897
N44	N	0.982119	0.113497	0.228126
H45	H	1.120896	-0.325859	-0.000048
O46	O	0.834298	-0.281384	0.000106
C47	C	0.748132	-0.171909	0.075961
C48	C	0.830615	-0.230545	0.075900
H49	H	0.745135	-0.130779	0.137224
H50	H	0.693156	-0.210651	0.076015
H51	H	0.745066	-0.130848	0.014643
H52	H	0.833762	-0.271617	0.137207
H53	H	0.885551	-0.191753	0.075800
H54	H	1.118131	-0.483175	-0.000035
H55	H	0.890656	0.021990	-0.583688
O56	O	0.882661	0.014191	-0.409090
C57	C	0.770361	0.009381	-0.305066
C58	C	0.825838	0.064823	-0.355804
H59	H	0.724394	0.050296	-0.261987
H60	H	0.811206	-0.036514	-0.261839
H61	H	0.734372	-0.026688	-0.353869
H62	H	0.861836	0.100945	-0.307066
H63	H	0.784948	0.110666	-0.399045
H64	H	0.843284	-0.447120	-0.000056
H65	H	1.073543	0.205033	-0.416417
H66	H	0.421454	-0.025285	-0.000064
O67	O	1.081456	0.212867	-0.591041
C68	C	1.126116	0.257608	-0.733055
C69	C	1.070655	0.202153	-0.682312
H70	H	1.117389	0.248979	-0.806857
H71	H	1.194403	0.239090	-0.714983
H72	H	1.107568	0.325864	-0.714882
H73	H	1.089129	0.133882	-0.700458
H74	H	1.002381	0.220742	-0.700388
H75	H	0.542730	0.252317	-0.000040
O76	O	0.377152	0.261406	-0.000004
C77	C	0.366597	0.411823	-0.000048
C78	C	0.425185	0.329309	-0.000074
H79	H	0.405408	0.466744	-0.000124
H80	H	0.325517	0.414952	0.061257
H81	H	0.325482	0.414854	-0.061327
H82	H	0.466351	0.326223	0.061163
H83	H	0.466208	0.326214	-0.061420
H84	H	0.578788	-0.022530	-0.000055
