data_functionalizedCrystal
_audit_creation_method	'MofGen! by Chris Wilmer'
_symmetry_space_group_name_H-M	'P1'
_symmetry_Int_Tables_number	1
_symmetry_cell_setting	triclinic
loop_
_symmetry_equiv_pos_as_xyz
  x,y,z
_cell_length_a	12.759395
_cell_length_b	12.759394
_cell_length_c	12.759393
_cell_angle_alpha	90.030600
_cell_angle_beta	90.018221
_cell_angle_gamma	90.013701
loop_
_atom_site_label
_atom_site_type_symbol
_atom_site_fract_x
_atom_site_fract_y
_atom_site_fract_z
Zn1	Zn	1.606262	-0.418209	0.593981
Zn2	Zn	1.606159	-0.593928	0.418304
Zn3	Zn	1.430564	-0.418263	0.418321
Zn4	Zn	1.430555	-0.593846	0.593946
O5	O	1.518385	-0.506061	0.506138
O6	O	1.753270	-0.441530	0.570684
O7	O	1.582827	-0.570682	0.271285
O8	O	1.453918	-0.271235	0.441644
O9	O	1.753194	-0.570630	0.441615
O10	O	1.583002	-0.271195	0.570701
O11	O	1.453818	-0.441622	0.271298
O12	O	1.283542	-0.441543	0.441611
O13	O	1.453903	-0.570490	0.740972
O14	O	1.283535	-0.570543	0.570642
O15	O	1.582994	-0.441451	0.740997
O16	O	1.582818	-0.740938	0.441581
O17	O	1.453803	-0.740878	0.570625
C18	C	1.245418	-0.506041	0.506125
C19	C	1.128641	-0.506057	0.506144
C20	C	1.128701	-0.371842	0.640761
C21	C	1.073870	-0.304748	0.708078
C22	C	0.964148	-0.304767	0.708091
C23	C	0.909255	-0.371885	0.640778
C24	C	0.964086	-0.438979	0.573461
C25	C	1.073810	-0.438955	0.573457
C26	C	0.964026	-0.573187	0.438840
C27	C	1.073748	-0.573175	0.438831
C28	C	0.909133	-0.640305	0.371527
C29	C	0.963964	-0.707406	0.304214
C30	C	1.073693	-0.707386	0.304205
C31	C	1.128579	-0.640270	0.371514
C32	C	1.518327	-0.779029	0.506121
C33	C	1.518398	-0.895806	0.506148
C34	C	1.652713	-0.895606	0.640636
C35	C	1.719904	-0.950367	0.707887
C36	C	1.719966	-1.060089	0.707910
C37	C	1.652829	-1.115052	0.640676
C38	C	1.585638	-1.060291	0.573424
C39	C	1.585585	-0.950567	0.573407
C40	C	1.451319	-1.060490	0.438944
C41	C	1.451260	-0.950769	0.438914
C42	C	1.384181	-1.115453	0.371710
C43	C	1.316994	-1.060692	0.304452
C44	C	1.316935	-0.950964	0.304431
C45	C	1.384070	-0.896008	0.371663
C46	C	1.792419	-0.506083	0.506151
C47	C	1.909195	-0.506092	0.506157
C48	C	1.518459	-0.505955	0.780171
C49	C	1.518490	-0.505910	0.896948
C50	C	1.518473	-0.232028	0.506178
C51	C	1.518510	-0.115251	0.506195
C52	C	1.518372	-0.506091	0.233170
C53	C	1.518545	-0.505840	0.116394
C54	C	1.585717	-0.438713	0.951825
C55	C	1.585742	-0.438675	1.061549
C56	C	1.451310	-0.573041	1.061510
C57	C	1.451281	-0.573073	0.951788
C58	C	1.663334	-0.361141	0.951849
C59	C	1.663359	-0.361103	1.061573
H60	H	0.919262	-0.762044	0.249409
C61	C	1.134003	-0.781192	0.230153
C62	C	1.073619	-0.855012	0.156117
C63	C	1.133925	-0.928819	0.082063
C64	C	1.254615	-0.928806	0.082045
C65	C	1.315006	-0.854984	0.156083
C66	C	1.254700	-0.781176	0.230137
H67	H	0.984271	-0.855024	0.156128
H68	H	1.089218	-0.983467	0.027255
H69	H	1.299256	-0.983443	0.027226
H70	H	1.404354	-0.854972	0.156072
H71	H	1.299406	-0.726528	0.284945
C72	C	1.767723	-0.400534	0.905857
C73	C	1.857202	-0.434259	0.979493
C74	C	1.961590	-0.473656	0.933500
C75	C	1.976498	-0.479328	0.813871
C76	C	1.887016	-0.445602	0.740227
C77	C	1.782629	-0.406205	0.786220
H78	H	1.846168	-0.430061	1.068056
H79	H	2.027830	-0.498622	0.988016
H80	H	2.053772	-0.508492	0.779824
H81	H	1.898050	-0.449800	0.651664
H82	H	1.716388	-0.381239	0.731704
C83	C	1.243152	-1.121151	0.230500
C84	C	1.169249	-1.060923	0.156515
C85	C	1.095407	-1.121386	0.082559
C86	C	1.095469	-1.242076	0.082588
C87	C	1.169375	-1.302310	0.156575
C88	C	1.243216	-1.241847	0.230531
H89	H	1.169201	-0.971575	0.156492
H90	H	1.040697	-1.076796	0.027789
H91	H	1.040807	-1.286834	0.027842
H92	H	1.169423	-1.391658	0.156599
H93	H	1.297926	-1.286437	0.285301
H94	H	1.634244	-0.283794	1.095620
H95	H	1.384033	-0.806667	0.371648
H96	H	1.118576	-0.250100	0.762881
H97	H	1.652877	-1.204393	0.640709
H98	H	1.218042	-0.371816	0.640753
C99	C	0.903827	-0.230959	0.782134
C100	C	0.783137	-0.230983	0.782138
C101	C	0.722816	-0.157174	0.856178
C102	C	0.783185	-0.083342	0.930213
C103	C	0.903882	-0.083316	0.930212
C104	C	0.964203	-0.157124	0.856172
H105	H	0.738442	-0.285640	0.727330
H106	H	0.633468	-0.157194	0.856178
H107	H	0.738532	-0.028704	0.985022
H108	H	0.948577	-0.028658	0.985020
H109	H	1.053551	-0.157104	0.856172
H110	H	0.819914	-0.371885	0.640786
C111	C	1.793754	-0.889907	0.781841
C112	C	1.793697	-0.769217	0.781821
C113	C	1.867545	-0.708762	0.855777
C114	C	1.941450	-0.768997	0.929752
C115	C	1.941510	-0.889694	0.929775
C116	C	1.867663	-0.950149	0.855819
H117	H	1.738985	-0.724622	0.727057
H118	H	1.867499	-0.619414	0.855759
H119	H	1.996117	-0.724245	0.984499
H120	H	1.996222	-0.934290	0.984539
H121	H	1.867708	-1.039497	0.855837
H122	H	0.819792	-0.640313	0.371540
H123	H	1.396534	-0.627788	0.907111
C124	C	1.633917	-0.251230	0.911637
C125	C	1.702157	-0.156020	0.940820
C126	C	1.672739	-0.046113	0.900609
C127	C	1.575081	-0.031417	0.831215
C128	C	1.506835	-0.126630	0.802028
C129	C	1.536252	-0.236537	0.842240
H130	H	1.774455	-0.166896	0.992193
H131	H	1.723261	0.024370	0.922214
H132	H	1.553304	0.049943	0.801448
H133	H	1.434537	-0.115754	0.750656
H134	H	1.485731	-0.307020	0.820634
H135	H	1.217920	-0.640241	0.371508
H136	H	1.652679	-0.806265	0.640614
H137	H	1.774668	-1.104675	0.762683
H138	H	1.384233	-1.204794	0.371737
H139	H	1.262217	-0.906383	0.249671
H140	H	1.396588	-0.627720	1.106173
H141	H	1.744730	-0.382896	1.091351
