data_functionalizedCrystal
_audit_creation_method	'MofGen! by Chris Wilmer'
_symmetry_space_group_name_H-M	'P1'
_symmetry_Int_Tables_number	1
_symmetry_cell_setting	triclinic
loop_
_symmetry_equiv_pos_as_xyz
  x,y,z
_cell_length_a	15.995300
_cell_length_b	15.072220
_cell_length_c	14.853567
_cell_angle_alpha	90.002676
_cell_angle_beta	96.446631
_cell_angle_gamma	90.014083
loop_
_atom_site_label
_atom_site_type_symbol
_atom_site_fract_x
_atom_site_fract_y
_atom_site_fract_z
O1	O	1.111157	0.073807	-0.115984
O2	O	0.867393	0.073801	-0.130382
O3	O	0.995786	0.073807	0.008057
O4	O	0.982764	0.073801	-0.254423
O5	O	0.995754	-0.073758	0.008049
O6	O	0.867361	-0.073764	-0.130389
O7	O	1.111125	-0.073758	-0.115992
Zn8	Zn	0.989238	-0.097190	-0.123192
Zn9	Zn	0.989280	0.097233	-0.123182
O10	O	0.982732	-0.073764	-0.254431
C11	C	0.836181	0.000018	-0.129798
C12	C	0.743226	0.000016	-0.128038
C13	C	0.573039	0.000023	-0.124787
C14	C	0.525688	0.000019	-0.223358
C15	C	0.428998	0.000356	-0.221560
C16	C	0.405479	0.000029	-0.121587
C17	C	0.446573	0.084130	-0.072678
C18	C	0.543209	0.084199	-0.075172
C19	C	0.543450	-0.083616	-0.073722
C20	C	0.446506	-0.084719	-0.073731
C21	C	0.310781	0.000035	-0.119773
C22	C	0.667737	0.000023	-0.126597
N23	N	0.989216	-0.229879	-0.123198
C24	C	0.989278	-0.589080	-0.123178
C25	C	0.920346	-0.551477	-0.197006
C26	C	0.920505	-0.448651	-0.197275
C27	C	0.989246	-0.410876	-0.123188
C28	C	1.076637	-0.448166	-0.143717
C29	C	1.076251	-0.551024	-0.144241
C30	C	0.971598	-0.551179	-0.028603
C31	C	0.969594	-0.448316	-0.029235
C32	C	0.989234	-0.310163	-0.123192
C33	C	0.989296	-0.689794	-0.123176
C34	C	1.142337	0.000028	-0.116575
C35	C	1.235292	0.000035	-0.118336
C36	C	0.995180	0.000027	0.041641
C37	C	0.993412	0.000035	0.141722
N38	N	0.989309	0.229922	-0.123168
C39	C	0.983338	0.000018	-0.288014
C40	C	0.985106	0.000016	-0.388095
C41	C	0.909669	0.000016	0.554126
C42	C	1.062203	0.000020	0.575643
C43	C	1.063866	0.000025	0.481611
C44	C	0.988429	0.000024	0.423833
C45	C	0.911329	0.000018	0.460086
C46	C	1.140964	0.000022	0.445351
C47	C	1.142630	0.000026	0.351315
C48	C	1.067192	0.000032	0.293535
C49	C	0.990089	0.000027	0.329793
C50	C	0.914652	0.000026	0.272015
C51	C	0.837548	0.000028	0.308271
C52	C	0.835891	0.000024	0.402306
C53	C	1.068849	0.000036	0.199500
C54	C	0.916312	0.000029	0.177975
H55	H	0.418240	0.146953	-0.106203
Cl56	Cl	0.742718	0.000019	0.235625
H57	H	0.855549	-0.423441	-0.185047
H58	H	1.123621	0.000013	0.622691
H59	H	1.131626	0.000029	0.169984
H60	H	1.129153	-0.575896	-0.092588
Cl61	Cl	0.592911	0.089745	0.036576
Cl62	Cl	0.385097	-0.092697	-0.280902
H63	H	1.202381	0.000014	0.492401
Cl64	Cl	1.100277	-0.588055	-0.250729
H65	H	0.561583	0.147302	-0.110414
Cl66	Cl	1.101238	-0.408385	-0.248991
H67	H	0.544212	-0.060282	-0.262974
H68	H	0.773118	0.000024	0.431835
H69	H	0.563975	-0.147381	-0.106177
H70	H	0.431082	-0.090045	-0.000844
H71	H	0.432388	0.087023	0.000780
Cl72	Cl	1.239558	0.000040	0.305744
H73	H	0.909251	-0.577170	-0.008859
H74	H	0.401208	0.060993	-0.259818
Cl75	Cl	0.556046	0.092991	-0.283605
H76	H	0.419194	-0.146939	-0.109447
Cl77	Cl	0.592403	-0.084877	0.038475
Cl78	Cl	0.819728	-0.589687	-0.178426
Cl79	Cl	0.870341	-0.410690	-0.005177
Cl80	Cl	0.937563	-0.591350	-0.304758
Cl81	Cl	0.821471	0.000035	0.105346
Cl82	Cl	0.812744	0.000026	0.599703
Cl83	Cl	1.157734	-0.410390	-0.062905
Cl84	Cl	1.042070	-0.408635	0.059561
Cl85	Cl	0.937919	-0.410644	-0.305642
Cl86	Cl	1.049205	-0.588721	0.056220
