data_functionalizedCrystal
_audit_creation_method	'MofGen! by Chris Wilmer'
_symmetry_space_group_name_H-M	'P1'
_symmetry_Int_Tables_number	1
_symmetry_cell_setting	triclinic
loop_
_symmetry_equiv_pos_as_xyz
  x,y,z
_cell_length_a	19.188930
_cell_length_b	19.188930
_cell_length_c	13.330367
_cell_angle_alpha	89.990231
_cell_angle_beta	89.978569
_cell_angle_gamma	83.144779
loop_
_atom_site_label
_atom_site_type_symbol
_atom_site_fract_x
_atom_site_fract_y
_atom_site_fract_z
O1	O	0.926148	0.087167	-0.083757
O2	O	1.259481	0.420500	0.249576
O3	O	1.592815	0.753834	0.582909
O4	O	0.722837	0.098901	-0.083690
O5	O	1.056170	0.432235	0.249643
O6	O	1.389503	0.765568	0.582977
O7	O	0.830359	-0.008621	-0.083706
O8	O	1.163693	0.324712	0.249627
O9	O	1.497026	0.658045	0.582961
O10	O	0.818625	0.194690	-0.083741
O11	O	1.151959	0.528023	0.249592
O12	O	1.485292	0.861357	0.582925
O13	O	0.830344	-0.008624	0.083141
O14	O	1.163677	0.324710	0.416475
O15	O	1.497011	0.658043	0.749808
O16	O	0.722821	0.098899	0.083157
O17	O	1.056154	0.432232	0.416491
O18	O	1.389488	0.765566	0.749824
O19	O	0.926132	0.087165	0.083090
O20	O	1.259466	0.420498	0.416423
O21	O	1.592799	0.753831	0.749757
Cu22	Cu	0.824475	0.093032	0.098358
Cu23	Cu	1.157809	0.426365	0.431691
Cu24	Cu	1.491142	0.759698	0.765025
Cu25	Cu	0.824494	0.093034	-0.098958
Cu26	Cu	1.157827	0.426368	0.234375
Cu27	Cu	1.491160	0.759701	0.567709
O28	O	0.818610	0.194688	0.083106
O29	O	1.151943	0.528021	0.416439
O30	O	1.485276	0.861354	0.749773
C31	C	0.696818	0.098520	-0.000257
C32	C	1.030151	0.431854	0.333076
C33	C	1.363485	0.765187	0.666409
C34	C	0.619313	0.097380	-0.000231
C35	C	0.952647	0.430713	0.333102
C36	C	1.285980	0.764046	0.666436
C37	C	0.574389	0.160470	-0.000258
C38	C	0.907723	0.493804	0.333076
C39	C	1.241056	0.827137	0.666409
C40	C	0.501566	0.159399	-0.000268
C41	C	0.834899	0.492732	0.333065
C42	C	1.168232	0.826065	0.666398
C43	C	0.473669	0.095233	-0.000273
C44	C	0.807002	0.428566	0.333061
C45	C	1.140336	0.761899	0.666394
C46	C	0.518603	0.032133	-0.000240
C47	C	0.851936	0.365467	0.333093
C48	C	1.185270	0.698800	0.666426
C49	C	0.591425	0.033207	-0.000219
C50	C	0.924758	0.366540	0.333114
C51	C	1.258092	0.699874	0.666447
N52	N	0.365694	0.046186	-0.057090
N53	N	0.699028	0.379520	0.276243
N54	N	1.032361	0.712853	0.609577
N55	N	0.296516	0.045171	-0.057112
N56	N	0.629849	0.378504	0.276221
N57	N	0.963182	0.711838	0.609555
C58	C	0.254260	0.091994	-0.000334
C59	C	0.587594	0.425328	0.333000
C60	C	0.920927	0.758661	0.666333
N61	N	0.283796	0.139882	0.056455
N62	N	0.617129	0.473216	0.389788
N63	N	0.950463	0.806549	0.723122
N64	N	0.352981	0.140900	0.056473
N65	N	0.686314	0.474233	0.389806
N66	N	1.019647	0.807567	0.723139
C67	C	0.394707	0.094062	-0.000295
C68	C	0.728040	0.427395	0.333039
C69	C	1.061373	0.760728	0.666372
C70	C	0.130372	0.153928	-0.000371
C71	C	0.463705	0.487261	0.332963
C72	C	0.797039	0.820594	0.666296
C73	C	0.057547	0.152853	-0.000375
C74	C	0.390881	0.486187	0.332958
C75	C	0.724214	0.819520	0.666291
C76	C	0.074586	0.025586	-0.000357
C77	C	0.407919	0.358920	0.332976
C78	C	0.741253	0.692253	0.666309
C79	C	0.147409	0.026662	-0.000342
C80	C	0.480743	0.359996	0.332991
C81	C	0.814076	0.693329	0.666324
C82	C	0.175298	0.090835	-0.000354
C83	C	0.508631	0.424168	0.332979
C84	C	0.841964	0.757502	0.666313
C85	C	0.829972	-0.034634	-0.000279
C86	C	1.163305	0.298700	0.333054
C87	C	1.496638	0.632033	0.666387
C88	C	0.828831	-0.112138	-0.000270
C89	C	1.162164	0.221195	0.333063
C90	C	1.495498	0.554529	0.666396
C91	C	0.891922	-0.157062	-0.000286
C92	C	1.225255	0.176271	0.333047
C93	C	1.558589	0.509605	0.666380
C94	C	0.890850	-0.229886	-0.000302
C95	C	1.224184	0.103448	0.333031
C96	C	1.557517	0.436781	0.666365
C97	C	0.826684	-0.257782	-0.000282
C98	C	1.160017	0.075551	0.333052
C99	C	1.493351	0.408884	0.666385
C100	C	0.763585	-0.212849	-0.000271
C101	C	1.096918	0.120485	0.333062
C102	C	1.430252	0.453818	0.666395
C103	C	0.764658	-0.140026	-0.000266
C104	C	1.097992	0.193307	0.333068
C105	C	1.431325	0.526640	0.666401
N106	N	0.777631	-0.365788	0.056516
N107	N	1.110965	-0.032455	0.389849
N108	N	1.444298	0.300878	0.723183
N109	N	0.776616	-0.434967	0.056513
N110	N	1.109949	-0.101633	0.389846
N111	N	1.443283	0.231700	0.723179
C112	C	0.823446	-0.477191	-0.000301
C113	C	1.156779	-0.143858	0.333033
C114	C	1.490113	0.189476	0.666366
N115	N	0.871340	-0.447625	-0.057098
N116	N	1.204674	-0.114291	0.276235
N117	N	1.538007	0.219042	0.609568
N118	N	0.872358	-0.378440	-0.057091
N119	N	1.205691	-0.045107	0.276243
N120	N	1.539025	0.288227	0.609576
C121	C	0.825513	-0.336745	-0.000288
C122	C	1.158846	-0.003412	0.333045
C123	C	1.492180	0.329922	0.666378
C124	C	0.885379	-0.601079	-0.000335
C125	C	1.218712	-0.267746	0.332998
C126	C	1.552046	0.065587	0.666331
C127	C	0.884305	-0.673904	-0.000357
C128	C	1.217638	-0.340571	0.332976
C129	C	1.550971	-0.007238	0.666309
C130	C	0.757038	-0.656865	-0.000316
C131	C	1.090371	-0.323532	0.333017
C132	C	1.423704	0.009801	0.666350
C133	C	0.758114	-0.584042	-0.000304
C134	C	1.091447	-0.250709	0.333029
C135	C	1.424781	0.082624	0.666362
C136	C	0.822286	-0.556154	-0.000309
C137	C	1.155620	-0.222821	0.333024
C138	C	1.488953	0.110513	0.666357
C139	C	0.952151	0.087546	-0.000345
C140	C	1.285485	0.420879	0.332989
C141	C	1.618818	0.754213	0.666322
C142	C	1.029656	0.088687	-0.000378
C143	C	1.362989	0.422020	0.332956
C144	C	1.696322	0.755353	0.666289
C145	C	0.818997	0.220700	-0.000323
C146	C	1.152331	0.554033	0.333010
C147	C	1.485664	0.887366	0.666344
C148	C	0.820138	0.298204	-0.000338
C149	C	1.153471	0.631538	0.332995
C150	C	1.486805	0.964871	0.666328
N151	N	0.824468	0.093029	0.237140
N152	N	1.157801	0.426363	0.570473
N153	N	1.491134	0.759696	0.903806
N154	N	0.824507	0.093031	-0.237740
N155	N	1.157840	0.426365	0.095594
N156	N	1.491174	0.759698	0.428927
C157	C	0.776881	0.140627	0.709770
C158	C	1.110214	0.473960	1.043103
C159	C	1.443547	0.807294	1.376436
C160	C	0.872126	0.045436	0.709723
C161	C	1.205459	0.378770	1.043057
C162	C	1.538792	0.712103	1.376390
C163	C	0.872118	0.045434	0.604705
C164	C	1.205451	0.378768	0.938038
C165	C	1.538784	0.712101	1.271372
C166	C	0.824491	0.093030	0.552214
C167	C	1.157825	0.426363	0.885547
C168	C	1.491158	0.759697	1.218881
C169	C	0.776873	0.140628	0.604741
C170	C	1.110206	0.473961	0.938075
C171	C	1.443539	0.807294	1.271408
C172	C	0.919740	-0.002158	0.552170
C173	C	1.253074	0.331176	0.885503
C174	C	1.586407	0.664509	1.218836
C175	C	0.919735	-0.002161	0.447145
C176	C	1.253068	0.331172	0.780478
C177	C	1.586401	0.664505	1.113812
C178	C	0.872104	0.045432	0.394652
C179	C	1.205438	0.378765	0.727985
C180	C	1.538771	0.712098	1.061319
C181	C	0.824483	0.093031	0.447186
C182	C	1.157817	0.426364	0.780519
C183	C	1.491150	0.759697	1.113853
C184	C	0.776857	0.140626	0.394695
C185	C	1.110190	0.473960	0.728028
C186	C	1.443524	0.807293	1.061362
C187	C	0.729232	0.188223	0.447227
C188	C	1.062565	0.521556	0.780560
C189	C	1.395899	0.854889	1.113894
C190	C	0.729242	0.188221	0.552249
C191	C	1.062576	0.521554	0.885582
C192	C	1.395909	0.854887	1.218915
C193	C	0.872094	0.045434	0.289631
C194	C	1.205427	0.378767	0.622964
C195	C	1.538761	0.712100	0.956297
C196	C	0.776849	0.140627	0.289667
C197	C	1.110182	0.473960	0.623000
C198	C	1.443516	0.807294	0.956334
H199	H	0.464982	0.210776	-0.000287
H200	H	0.798315	0.544110	0.333046
H201	H	1.131648	0.877443	0.666379
H202	H	0.628003	-0.018171	-0.000198
H203	H	0.961336	0.315162	0.333135
H204	H	1.294670	0.648496	0.666468
Cl205	Cl	0.932001	-0.014391	0.775709
Cl206	Cl	1.265334	0.318942	1.109042
Cl207	Cl	1.598668	0.652275	1.442376
Cl208	Cl	0.966051	-0.566016	-0.000336
Cl209	Cl	1.299385	-0.232683	0.332998
Cl210	Cl	1.632718	0.100650	0.666331
H211	H	0.935683	-0.710481	-0.000376
H212	H	1.269017	-0.377148	0.332957
H213	H	1.602350	-0.043815	0.666291
H214	H	0.958513	-0.040917	0.404380
H215	H	1.291846	0.292416	0.737713
H216	H	1.625179	0.625750	1.071047
H217	H	0.020970	0.204232	-0.000391
H218	H	0.354303	0.537565	0.332942
H219	H	0.687637	0.870898	0.666275
H220	H	0.495885	-0.020111	-0.000258
H221	H	0.829218	0.313222	0.333076
H222	H	1.162552	0.646556	0.666409
H223	H	0.597091	0.212725	-0.000269
H224	H	0.930424	0.546058	0.333064
H225	H	1.263758	0.879391	0.666398
H226	H	0.944176	-0.134360	-0.000294
H227	H	1.277509	0.198973	0.333040
H228	H	1.610843	0.532306	0.666373
Cl229	Cl	0.676371	-0.691928	-0.000296
Cl230	Cl	1.009704	-0.358595	0.333037
Cl231	Cl	1.343037	-0.025262	0.666370
H232	H	0.051874	-0.026659	-0.000423
H233	H	0.385207	0.306674	0.332910
H234	H	0.718540	0.640008	0.666244
Cl235	Cl	0.970170	-0.286372	-0.000323
Cl236	Cl	1.303504	0.046961	0.333010
Cl237	Cl	1.636837	0.380295	0.666343
Cl238	Cl	0.678795	-0.527563	-0.000280
Cl239	Cl	1.012128	-0.194230	0.333054
Cl240	Cl	1.345462	0.139103	0.666387
H241	H	0.910873	0.006685	0.246864
H242	H	1.244206	0.340018	0.580197
H243	H	1.577539	0.673351	0.913530
H244	H	0.738103	0.179377	0.752544
H245	H	1.071437	0.512711	1.085877
H246	H	1.404770	0.846044	1.419210
Cl247	Cl	0.716968	0.200462	0.223687
Cl248	Cl	1.050302	0.533795	0.557020
Cl249	Cl	1.383635	0.867128	0.890353
H250	H	0.690457	0.226978	0.404477
H251	H	1.023790	0.560312	0.737810
H252	H	1.357124	0.893645	1.071143
Cl253	Cl	0.165435	0.234600	-0.000375
Cl254	Cl	0.498769	0.567933	0.332958
Cl255	Cl	0.832102	0.901267	0.666292
Cl256	Cl	0.669378	0.248053	0.618291
Cl257	Cl	1.002712	0.581387	0.951624
Cl258	Cl	1.336045	0.914720	1.284957
H259	H	0.183988	-0.024713	-0.000326
H260	H	0.517321	0.308620	0.333007
H261	H	0.850654	0.641954	0.666340
Cl262	Cl	0.682919	-0.247918	-0.000253
Cl263	Cl	1.016252	0.085416	0.333080
Cl264	Cl	1.349586	0.418749	0.666413
Cl265	Cl	0.979616	-0.061985	0.618155
Cl266	Cl	1.312949	0.271348	0.951489
Cl267	Cl	1.646282	0.604681	1.284822
H268	H	0.713281	-0.103449	-0.000252
H269	H	1.046614	0.229885	0.333081
H270	H	1.379947	0.563218	0.666415
