data_functionalizedCrystal
_audit_creation_method	'MofGen! by Chris Wilmer'
_symmetry_space_group_name_H-M	'P1'
_symmetry_Int_Tables_number	1
_symmetry_cell_setting	triclinic
loop_
_symmetry_equiv_pos_as_xyz
  x,y,z
_cell_length_a	15.297475
_cell_length_b	19.120904
_cell_length_c	15.300062
_cell_angle_alpha	102.472554
_cell_angle_beta	72.653301
_cell_angle_gamma	83.145247
loop_
_atom_site_label
_atom_site_type_symbol
_atom_site_fract_x
_atom_site_fract_y
_atom_site_fract_z
Zn1	Zn	1.454073	-0.680124	-0.648291
Zn2	Zn	1.954073	-0.180124	-0.148291
Zn3	Zn	1.485207	-0.587249	-0.799420
Zn4	Zn	1.985207	-0.087249	-0.299420
Zn5	Zn	1.305190	-0.538140	-0.614740
Zn6	Zn	1.805190	-0.038140	-0.114740
Zn7	Zn	1.325397	-0.680109	-0.776767
Zn8	Zn	1.825397	-0.180109	-0.276767
O9	O	1.392467	-0.621406	-0.709804
O10	O	1.892467	-0.121406	-0.209804
O11	O	1.587392	-0.688362	-0.691860
O12	O	2.087392	-0.188362	-0.191860
O13	O	1.465901	-0.482452	-0.770361
O14	O	1.965901	0.017548	-0.270361
O15	O	1.303454	-0.536429	-0.488134
O16	O	1.803454	-0.036429	0.011866
O17	O	1.610266	-0.620128	-0.802894
O18	O	2.110266	-0.120128	-0.302894
O19	O	1.412837	-0.640743	-0.512784
O20	O	1.912837	-0.140743	-0.012784
O21	O	1.333643	-0.446372	-0.634678
O22	O	1.833643	0.053628	-0.134678
O23	O	1.178682	-0.536414	-0.612712
O24	O	1.678682	-0.036414	-0.112712
O25	O	1.337893	-0.778393	-0.764285
O26	O	1.837893	-0.278393	-0.264285
O27	O	1.193528	-0.640718	-0.731752
O28	O	1.693528	-0.140718	-0.231752
O29	O	1.432430	-0.778404	-0.669894
O30	O	1.932430	-0.278404	-0.169894
O31	O	1.485495	-0.620113	-0.927471
O32	O	1.985495	-0.120113	-0.427471
O33	O	1.368083	-0.688337	-0.910828
O34	O	1.868083	-0.188337	-0.410828
C35	C	1.152608	-0.583236	-0.666134
C36	C	1.652608	-0.083236	-0.166134
C37	C	1.049998	-0.566927	-0.647475
C38	C	1.549998	-0.066927	-0.147475
C39	C	1.383943	-0.804595	-0.718305
C40	C	1.883943	-0.304595	-0.218305
C41	C	1.380310	-0.882659	-0.721928
C42	C	1.880310	-0.382659	-0.221928
C43	C	0.791853	-0.737970	-0.843171
C44	C	1.291853	-0.237970	-0.343171
C45	C	0.888261	-0.753292	-0.860709
C46	C	1.388261	-0.253292	-0.360709
C47	C	0.928700	-0.706703	-0.807402
C48	C	1.428700	-0.206703	-0.307402
C49	C	0.872721	-0.644788	-0.736554
C50	C	1.372721	-0.144788	-0.236554
C51	C	0.776305	-0.629461	-0.719019
C52	C	1.276305	-0.129461	-0.219019
C53	C	0.913152	-0.598193	-0.683250
C54	C	1.413152	-0.098193	-0.183250
C55	C	0.857173	-0.536278	-0.612402
C56	C	1.357173	-0.036278	-0.112402
C57	C	0.760766	-0.520955	-0.594870
C58	C	1.260766	-0.020955	-0.094870
C59	C	0.720327	-0.567545	-0.648177
C60	C	1.220327	-0.067545	-0.148177
C61	C	1.009569	-0.613520	-0.700785
C62	C	1.509569	-0.113520	-0.200785
C63	C	0.994020	-0.505011	-0.576633
C64	C	1.494020	-0.005011	-0.076633
C65	C	0.897612	-0.489689	-0.559095
C66	C	1.397612	0.010311	-0.059095
C67	C	1.427821	-0.919341	-0.674488
C68	C	1.927821	-0.419341	-0.174488
C69	C	1.424396	-0.992688	-0.677886
C70	C	1.924396	-0.492688	-0.177886
C71	C	1.373465	-1.029354	-0.728730
C72	C	1.873465	-0.529354	-0.228730
C73	C	1.325948	-0.992667	-0.776171
C74	C	1.825948	-0.492667	-0.276171
C75	C	1.329368	-0.919319	-0.772767
C76	C	1.829368	-0.419319	-0.272767
C77	C	1.360671	-1.250815	-0.741462
C78	C	1.860671	-0.750815	-0.241462
C79	C	1.357257	-1.324168	-0.744865
C80	C	1.857257	-0.824168	-0.244865
C81	C	1.455704	-1.324184	-0.646577
C82	C	1.955704	-0.824184	-0.146577
C83	C	1.459125	-1.250836	-0.643182
C84	C	1.959125	-0.750836	-0.143182
C85	C	1.411603	-1.214154	-0.690620
C86	C	1.911603	-0.714154	-0.190620
C87	C	1.369965	-1.104328	-0.732207
C88	C	1.869965	-0.604328	-0.232207
C89	C	1.415098	-1.139181	-0.687136
C90	C	1.915098	-0.639181	-0.187136
C91	C	1.633263	-0.659725	-0.753646
C92	C	2.133263	-0.159725	-0.253646
C93	C	1.735875	-0.676054	-0.772329
C94	C	2.235875	-0.176054	-0.272329
C95	C	1.432384	-0.659572	-0.953137
C96	C	1.932384	-0.159572	-0.453137
C97	C	1.449544	-0.675936	-1.057252
C98	C	1.949544	-0.175936	-0.557252
C99	C	1.401000	-0.438927	-0.701279
C100	C	1.901000	0.061073	-0.201279
C101	C	1.404768	-0.360850	-0.697425
C102	C	1.904768	0.139150	-0.197425
C103	C	1.514501	-0.737953	-1.118904
C104	C	2.014501	-0.237953	-0.618904
C105	C	1.530632	-0.753335	-1.216727
C106	C	2.030632	-0.253335	-0.716727
C107	C	1.481814	-0.706700	-1.252908
C108	C	1.981814	-0.206700	-0.752908
C109	C	1.416861	-0.644680	-1.191256
C110	C	1.916861	-0.144680	-0.691256
C111	C	1.400722	-0.629299	-1.093423
C112	C	1.900722	-0.129299	-0.593423
C113	C	1.368035	-0.598047	-1.227426
C114	C	1.868035	-0.098047	-0.727426
C115	C	1.303082	-0.536026	-1.165774
C116	C	1.803082	-0.036026	-0.665774
C117	C	1.286947	-0.520648	-1.067951
C118	C	1.786947	-0.020648	-0.567951
C119	C	1.335766	-0.567283	-1.031770
C120	C	1.835766	-0.067283	-0.531770
C121	C	1.384174	-0.613428	-1.325260
C122	C	1.884174	-0.113428	-0.825260
C123	C	1.270395	-0.504774	-1.299778
C124	C	1.770395	-0.004774	-0.799778
C125	C	1.254264	-0.489391	-1.201955
C126	C	1.754264	0.010609	-0.701955
C127	C	1.352418	-0.583110	-0.465527
C128	C	1.852418	-0.083110	0.034473
C129	C	1.335352	-0.566790	-0.361431
C130	C	1.835352	-0.066790	0.138569
H131	H	1.055137	-0.663932	-0.758469
H132	H	1.555137	-0.163932	-0.258469
H133	H	1.456562	-1.109323	-0.645735
H134	H	1.956562	-0.609323	-0.145735
Br135	Br	0.964226	-0.837314	-0.956858
Br136	Br	1.464226	-0.337314	-0.456858
H137	H	1.328502	-1.134191	-0.773610
H138	H	1.828502	-0.634191	-0.273610
H139	H	1.469299	-0.889494	-0.633088
H140	H	1.969299	-0.389494	-0.133088
Br141	Br	1.313867	-0.546413	-0.899003
Br142	Br	1.813867	-0.046413	-0.399003
Br143	Br	0.684798	-0.436922	-0.498729
Br144	Br	1.184798	0.063078	0.001271
Br145	Br	0.736973	-0.801177	-0.915531
Br146	Br	1.236973	-0.301177	-0.415531
Br147	Br	1.256819	-1.042425	-0.845169
Br148	Br	1.756819	-0.542425	-0.345169
Br149	Br	0.821631	-0.405666	-0.462945
Br150	Br	1.321631	0.094334	0.037055
Br151	Br	1.296176	-1.201041	-0.805839
Br152	Br	1.796176	-0.701041	-0.305839
H153	H	1.583522	-0.803830	-1.266919
H154	H	2.083522	-0.303830	-0.766919
H155	H	1.007201	-0.719182	-0.821685
H156	H	1.507201	-0.219182	-0.321685
H157	H	0.641824	-0.555074	-0.633900
H158	H	1.141824	-0.055074	-0.133900
Br159	Br	1.472321	-0.697596	-1.408919
Br160	Br	1.972321	-0.197596	-0.908919
Br161	Br	1.264879	-0.869534	-0.837146
Br162	Br	1.764879	-0.369534	-0.337146
H163	H	1.026945	-0.467073	-0.533227
H164	H	1.526945	0.032927	-0.033227
Br165	Br	1.488929	-1.042482	-0.613551
Br166	Br	1.988929	-0.542482	-0.113551
H167	H	1.234051	-0.470151	-1.017751
H168	H	1.734051	0.029849	-0.517751
H169	H	1.494392	-1.354058	-0.607955
H170	H	1.994392	-0.854058	-0.107955
Br171	Br	1.580728	-0.801246	-1.069795
Br172	Br	2.080728	-0.301246	-0.569795
H173	H	1.494951	-0.719229	-1.332561
H174	H	1.994951	-0.219229	-0.832561
Br175	Br	1.528252	-1.201081	-0.574180
Br176	Br	2.028252	-0.701081	-0.074180
Br177	Br	1.166117	-0.405223	-1.118274
Br178	Br	1.666117	0.094777	-0.618274
Br179	Br	1.288127	-1.373928	-0.813869
Br180	Br	1.788127	-0.873928	-0.313869
Br181	Br	1.204133	-0.441482	-1.348871
Br182	Br	1.704133	0.058518	-0.848871
