data_functionalizedCrystal
_audit_creation_method	'MofGen! by Chris Wilmer'
_symmetry_space_group_name_H-M	'P1'
_symmetry_Int_Tables_number	1
_symmetry_cell_setting	triclinic
loop_
_symmetry_equiv_pos_as_xyz
  x,y,z
_cell_length_a	16.625546
_cell_length_b	12.759401
_cell_length_c	12.759393
_cell_angle_alpha	89.979527
_cell_angle_beta	90.035675
_cell_angle_gamma	89.976007
loop_
_atom_site_label
_atom_site_type_symbol
_atom_site_fract_x
_atom_site_fract_y
_atom_site_fract_z
Zn1	Zn	-0.320925	-1.606205	0.593986
Zn2	Zn	-0.455781	-1.606074	0.418292
Zn3	Zn	-0.320970	-1.430505	0.418322
Zn4	Zn	-0.455723	-1.430472	0.593930
O5	O	-0.388350	-1.518314	0.506132
O6	O	-0.338820	-1.753208	0.570692
O7	O	-0.437941	-1.582743	0.271275
O8	O	-0.208131	-1.453881	0.441660
O9	O	-0.437898	-1.753112	0.441610
O10	O	-0.208099	-1.582967	0.570720
O11	O	-0.338895	-1.453754	0.271297
O12	O	-0.338839	-1.283480	0.441605
O13	O	-0.437799	-1.453824	0.740958
O14	O	-0.437842	-1.283455	0.570623
O15	O	-0.338764	-1.582934	0.741000
O16	O	-0.568606	-1.582711	0.441555
O17	O	-0.568563	-1.453697	0.570595
C18	C	-0.597841	-1.518214	0.506088
C19	C	-0.687462	-1.518268	0.506105
C20	C	-0.388340	-1.245346	0.506112
C21	C	-0.388355	-1.128570	0.506128
C22	C	-0.388270	-1.518390	0.780166
C23	C	-0.388237	-1.518423	0.896943
C24	C	-1.015637	-1.518451	0.506214
C25	C	-0.924329	-1.518397	0.506187
C26	C	-0.851552	-1.518359	0.506159
C27	C	-0.760238	-1.518306	0.506132
C28	C	-0.178041	-1.518442	0.506200
C29	C	-0.088420	-1.518497	0.506228
C30	C	-0.388360	-1.792347	0.506154
C31	C	-0.388365	-1.909124	0.506163
C32	C	-0.439984	-1.073723	0.573202
C33	C	-0.439988	-0.963998	0.573223
C34	C	-0.336730	-0.963979	0.439086
C35	C	-0.336723	-1.073701	0.439071
C36	C	-0.388371	-1.518298	0.233165
C37	C	-0.388177	-1.518469	0.116389
C38	C	-0.336630	-1.585677	1.061559
C39	C	-0.336661	-1.585657	0.951835
C40	C	-0.439790	-1.451212	0.951780
C41	C	-0.439762	-1.451238	1.061502
H42	H	-0.482024	-1.118394	0.627806
H43	H	-0.482028	-0.919347	0.627843
H44	H	-0.294694	-0.919291	0.384490
H45	H	-0.294675	-1.118358	0.384451
F46	F	-0.281799	-1.657191	0.893486
F47	F	-0.281728	-1.657229	1.119970
F48	F	-0.494682	-1.379658	0.893356
H49	H	-0.481742	-1.396508	1.106146
