data_functionalizedCrystal
_audit_creation_method	'MofGen! by Chris Wilmer'
_symmetry_space_group_name_H-M	'P1'
_symmetry_Int_Tables_number	1
_symmetry_cell_setting	triclinic
loop_
_symmetry_equiv_pos_as_xyz
  x,y,z
_cell_length_a	17.052832
_cell_length_b	12.477989
_cell_length_c	12.477989
_cell_angle_alpha	60.281621
_cell_angle_beta	102.261758
_cell_angle_gamma	62.745925
loop_
_atom_site_label
_atom_site_type_symbol
_atom_site_fract_x
_atom_site_fract_y
_atom_site_fract_z
Zr1	Zr	0.724317	1.157492	0.156996
O2	O	0.573365	1.410030	-0.056490
O3	O	0.777730	0.925500	0.213829
O4	O	0.754036	1.180182	-0.016017
O5	O	0.607629	1.130285	0.364458
O6	O	0.888433	1.174709	0.025704
O7	O	0.597058	1.155348	0.173356
O8	O	0.930817	0.719129	0.436857
O9	O	0.565245	1.585865	-0.046694
O10	O	0.892185	1.009228	0.279608
O11	O	0.799775	0.994608	0.391089
O12	O	0.771878	1.294463	0.120475
O13	O	0.679468	1.279844	0.231956
Zr14	Zr	0.955524	1.108792	0.528322
Zr15	Zr	0.938665	1.148763	0.223536
Zr16	Zr	0.741176	1.117520	0.461781
Zr17	Zr	0.711367	1.437929	0.172618
Zr18	Zr	0.968474	0.828355	0.512699
O19	O	0.902111	1.340784	0.471489
O20	O	0.878140	1.397618	0.038122
O21	O	0.597336	1.353195	0.376876
O22	O	1.106476	0.856254	0.741807
O23	O	1.082505	0.913089	0.308441
O24	O	0.801701	0.868665	0.647195
O25	O	1.072212	1.135998	0.320859
O26	O	0.925805	1.086102	0.701335
O27	O	0.791408	1.091575	0.659613
O28	O	1.082783	1.110936	0.511961
O29	O	0.735623	1.578926	0.006197
O30	O	0.944218	0.687357	0.679121
O31	O	1.114596	0.680419	0.732012
O32	O	1.101195	0.712191	0.489748
O33	O	0.578646	1.554092	0.195570
O34	O	0.749024	1.547154	0.248461
O35	O	0.907963	0.971820	0.564843
O36	O	1.000373	0.986440	0.453361
O37	O	0.880066	1.271675	0.294229
O38	O	0.787656	1.257056	0.405710
C39	C	0.856119	0.782358	0.323117
C40	C	0.861616	0.663306	0.316484
C41	C	0.571804	1.144060	0.259426
C42	C	0.480807	1.147766	0.231178
C43	C	0.247608	1.102965	0.572699
C44	C	0.333108	1.099473	0.599247
C45	C	0.370037	1.111546	0.507232
C46	C	0.321458	1.127111	0.388664
C47	C	0.235955	1.130591	0.362120
C48	C	0.358383	1.139172	0.296654
C49	C	0.309804	1.154738	0.178085
C50	C	0.224309	1.158218	0.151546
C51	C	0.187380	1.146144	0.243561
C52	C	0.443886	1.135693	0.323198
C53	C	0.432233	1.163319	0.112619
C54	C	0.346733	1.166811	0.086070
C55	C	1.108037	1.122224	0.425891
C56	C	1.199034	1.118518	0.454139
C57	C	0.818833	1.183140	-0.038582
C58	C	0.811676	1.200109	-0.167971
C59	C	0.823722	1.483925	0.362201
C60	C	0.818225	1.602978	0.368833
C61	C	0.861008	1.083143	0.723899
C62	C	0.868165	1.066174	0.853289
C63	C	1.124235	0.771440	0.406349
C64	C	1.220729	0.648682	0.427965
C65	C	0.877206	0.732360	0.704357
C66	C	0.889861	0.596338	0.827115
C67	C	1.145323	0.721442	0.787590
C68	C	1.248974	0.581714	0.938595
C69	C	0.534518	1.544842	-0.102272
C70	C	0.430867	1.684569	-0.253278
C71	C	0.555606	1.494844	0.278968
C72	C	0.459112	1.617602	0.257352
C73	C	0.802635	1.533924	-0.019040
C74	C	0.789980	1.669945	-0.141797
C75	C	1.209570	0.602930	0.347406
C76	C	1.300226	0.487605	0.367686
C77	C	1.402041	0.418025	0.468534
C78	C	1.413197	0.463788	0.549096
C79	C	1.322542	0.579120	0.528807
C80	C	1.345896	0.523728	0.951320
C81	C	1.443294	0.392456	1.093197
C82	C	1.443768	0.319165	1.222348
C83	C	1.346835	0.377164	1.209618
C84	C	1.249440	0.508441	1.067743
C85	C	0.333944	1.742570	-0.266001
C86	C	0.236545	1.873876	-0.407877
C87	C	0.236070	1.947173	-0.537027
C88	C	0.333003	1.889167	-0.524298
C89	C	0.430400	1.757870	-0.382424
C90	C	0.470270	1.663367	0.337900
C91	C	0.379611	1.778727	0.317588
C92	C	0.277795	1.848312	0.216735
C93	C	0.266639	1.802543	0.136179
C94	C	0.357296	1.687193	0.156484
H95	H	0.776863	0.642418	0.418714
H96	H	0.203985	1.942235	0.200216
H97	H	0.483433	1.123019	0.419738
C98	C	0.332474	1.969783	-0.666366
H99	H	0.404145	1.916449	-0.638484
H100	H	0.299336	1.959343	-0.727574
H101	H	0.293626	2.083294	-0.720680
C102	C	0.129932	1.937656	-0.421860
H103	H	0.071851	2.026363	-0.524846
H104	H	0.128940	1.851026	-0.378153
H105	H	0.123227	1.974956	-0.371220
C106	C	0.917497	0.610029	0.249094
H107	H	0.913998	0.534303	0.253340
H108	H	0.882537	0.704176	0.147583
H109	H	0.990444	0.558705	0.304812
H110	H	0.439655	1.108702	0.528853
H111	H	0.117756	1.148994	0.221943
H112	H	1.291121	0.450361	0.302079
H113	H	0.509315	1.710650	-0.372081
H114	H	0.958596	0.462919	0.888467
H115	H	1.331643	0.616353	0.594419
H116	H	0.757825	1.327767	-0.285173
C117	C	0.386537	1.082357	0.729658
H118	H	0.352295	1.075679	0.780649
H119	H	0.460307	0.985173	0.797527
H120	H	0.379952	1.175687	0.691245
H121	H	0.156756	2.054081	-0.652541
H122	H	0.183729	1.859216	0.054065
C123	C	0.206987	1.089683	0.673900
H124	H	0.149107	1.093992	0.641103
H125	H	0.263567	0.988187	0.774650
H126	H	0.183207	1.178701	0.668364
H127	H	0.553165	1.606718	0.420031
C128	C	1.525197	0.387226	0.660034
H129	H	1.577583	0.311974	0.660583
H130	H	1.526979	0.472021	0.630100
H131	H	1.540136	0.330410	0.757883
H132	H	0.184763	1.170873	0.055011
C133	C	0.728030	0.810821	0.782261
H134	H	0.686453	0.814080	0.822563
H135	H	0.756298	0.857167	0.794573
H136	H	0.684036	0.872402	0.678507
H137	H	0.307169	1.179484	-0.010469
H138	H	1.523082	0.212272	1.337863
H139	H	1.126674	0.659584	0.265270
C140	C	0.472844	1.176603	0.011396
H141	H	0.530714	1.172319	0.044176
H142	H	0.496616	1.087598	0.016924
H143	H	0.416259	1.278111	-0.089359
H144	H	0.922001	0.938525	-0.029523
H145	H	1.345530	0.583383	0.846174
C146	C	1.501753	0.291150	0.490852
H147	H	1.480517	0.273862	0.428436
H148	H	1.536545	0.331447	0.465047
H149	H	1.549706	0.189844	0.592848
C150	C	0.345012	1.636843	0.067893
H151	H	0.271390	1.694799	0.004939
H152	H	0.371440	1.663130	0.008135
H153	H	0.384610	1.521533	0.135959
C154	C	1.549909	0.328632	1.107177
H155	H	1.607989	0.239953	1.210165
H156	H	1.556600	0.291312	1.056560
H157	H	1.550916	0.415253	1.063448
C158	C	1.347365	0.296538	1.351686
H159	H	1.275694	0.349873	1.323803
H160	H	1.386225	0.183032	1.405999
H161	H	1.380491	0.306994	1.412895
H162	H	1.170526	0.555637	1.057402
H163	H	0.334311	1.682899	-0.160857
H164	H	0.388715	1.815970	0.383196
