data_functionalizedCrystal
_audit_creation_method	'MofGen! by Chris Wilmer'
_symmetry_space_group_name_H-M	'P1'
_symmetry_Int_Tables_number	1
_symmetry_cell_setting	triclinic
loop_
_symmetry_equiv_pos_as_xyz
  x,y,z
_cell_length_a	11.169417
_cell_length_b	11.169416
_cell_length_c	11.169409
_cell_angle_alpha	90.028030
_cell_angle_beta	89.981053
_cell_angle_gamma	89.984328
loop_
_atom_site_label
_atom_site_type_symbol
_atom_site_fract_x
_atom_site_fract_y
_atom_site_fract_z
Zn1	Zn	1.834939	0.477627	-0.678551
Zn2	Zn	2.168273	0.810961	-0.345217
Zn3	Zn	2.501606	1.144294	-0.011884
Zn4	Zn	1.834819	0.678368	-0.477883
Zn5	Zn	2.168152	1.011701	-0.144549
Zn6	Zn	2.501486	1.345034	0.188784
Zn7	Zn	1.634225	0.477706	-0.477888
Zn8	Zn	1.967559	0.811040	-0.144555
Zn9	Zn	2.300892	1.144373	0.188779
Zn10	Zn	1.634223	0.678276	-0.678531
Zn11	Zn	1.967556	1.011609	-0.345197
Zn12	Zn	2.300890	1.344943	-0.011864
O13	O	1.734552	0.577994	-0.578213
O14	O	2.067885	0.911328	-0.244880
O15	O	2.401218	1.244661	0.088454
O16	O	2.002873	0.504261	-0.651938
O17	O	2.336206	0.837594	-0.318604
O18	O	2.669540	1.170928	0.014729
O19	O	1.808161	0.651821	-0.309933
O20	O	2.141494	0.985154	0.023400
O21	O	2.474827	1.318488	0.356733
O22	O	1.660902	0.309746	-0.504517
O23	O	1.994235	0.643079	-0.171184
O24	O	2.327568	0.976413	0.162150
O25	O	2.002785	0.651744	-0.504508
O26	O	2.336118	0.985078	-0.171174
O27	O	2.669451	1.318411	0.162159
O28	O	1.808365	0.309688	-0.651943
O29	O	2.141699	0.643021	-0.318610
O30	O	2.475032	0.976355	0.014724
O31	O	1.660785	0.504396	-0.309937
O32	O	1.994118	0.837729	0.023396
O33	O	2.327452	1.171063	0.356729
O34	O	1.466275	0.504307	-0.504498
O35	O	1.799609	0.837640	-0.171164
O36	O	2.132942	1.170974	0.162169
O37	O	1.660898	0.651588	-0.846483
O38	O	1.994231	0.984921	-0.513150
O39	O	2.327565	1.318255	-0.179816
O40	O	1.466274	0.651665	-0.651909
O41	O	1.799607	0.984998	-0.318575
O42	O	2.132940	1.318331	0.014758
O43	O	1.808363	0.504172	-0.846498
O44	O	2.141697	0.837506	-0.513164
O45	O	2.475030	1.170839	-0.179831
O46	O	1.808158	0.846305	-0.504488
O47	O	2.141492	1.179639	-0.171155
O48	O	2.474825	1.512972	0.162178
O49	O	1.660781	0.846238	-0.651903
O50	O	1.994115	1.179571	-0.318570
O51	O	2.327448	1.512905	0.014763
C52	C	1.422727	0.577985	-0.578202
C53	C	1.756060	0.911319	-0.244869
C54	C	2.089394	1.244652	0.088464
C55	C	1.289327	0.578010	-0.578226
C56	C	1.622660	0.911344	-0.244893
C57	C	1.955994	1.244677	0.088440
C58	C	1.734489	0.889819	-0.578219
C59	C	2.067823	1.223152	-0.244886
C60	C	2.401156	1.556486	0.088447
C61	C	1.734572	1.023219	-0.578262
C62	C	2.067906	1.356552	-0.244929
C63	C	2.401239	1.689886	0.088405
C64	C	1.734644	0.577861	-0.891256
C65	C	2.067977	0.911194	-0.557922
C66	C	2.401311	1.244528	-0.224589
C67	C	1.734683	0.577804	-1.024656
C68	C	2.068016	0.911138	-0.691322
C69	C	2.401350	1.244471	-0.357989
C70	C	2.047594	0.578004	-0.578224
C71	C	2.380927	0.911337	-0.244891
C72	C	2.714261	1.244671	0.088442
C73	C	2.180994	0.578008	-0.578229
C74	C	2.514327	0.911342	-0.244896
C75	C	2.847661	1.244675	0.088437
C76	C	1.734635	1.264952	-0.578245
C77	C	2.067968	1.598285	-0.244912
C78	C	2.401302	1.931619	0.088421
C79	C	1.734640	1.131552	-0.578291
C80	C	2.067973	1.464885	-0.244958
C81	C	2.401307	1.798219	0.088376
C82	C	1.734529	0.578040	-0.266388
C83	C	2.067862	0.911374	0.066945
C84	C	2.401196	1.244707	0.400278
C85	C	1.734722	0.577759	-0.132989
C86	C	2.068056	0.911092	0.200345
C87	C	2.401389	1.244426	0.533678
