data_functionalizedCrystal
_audit_creation_method	'MofGen! by Chris Wilmer'
_symmetry_space_group_name_H-M	'P1'
_symmetry_Int_Tables_number	1
_symmetry_cell_setting	triclinic
loop_
_symmetry_equiv_pos_as_xyz
  x,y,z
_cell_length_a	18.101398
_cell_length_b	25.639239
_cell_length_c	18.101389
_cell_angle_alpha	89.979551
_cell_angle_beta	89.975673
_cell_angle_gamma	90.033952
loop_
_atom_site_label
_atom_site_type_symbol
_atom_site_fract_x
_atom_site_fract_y
_atom_site_fract_z
Zn1	Zn	1.132082	-0.208272	-0.418828
Zn2	Zn	1.465415	0.125062	-0.085495
Zn3	Zn	1.798749	0.458395	0.247838
Zn4	Zn	1.131961	-0.295693	-0.294982
Zn5	Zn	1.465295	0.037640	0.038351
Zn6	Zn	1.798628	0.370974	0.371684
Zn7	Zn	1.008241	-0.208266	-0.294989
Zn8	Zn	1.341574	0.125067	0.038344
Zn9	Zn	1.674908	0.458400	0.371677
Zn10	Zn	1.008175	-0.295671	-0.418771
Zn11	Zn	1.341509	0.037663	-0.085438
Zn12	Zn	1.674842	0.370996	0.247896
O13	O	1.070115	-0.251975	-0.356893
O14	O	1.403448	0.081358	-0.023559
O15	O	1.736782	0.414691	0.309774
O16	O	1.235699	-0.219880	-0.402421
O17	O	1.569032	0.113453	-0.069088
O18	O	1.902366	0.446787	0.264246
O19	O	1.115527	-0.284103	-0.191350
O20	O	1.448860	0.049231	0.141983
O21	O	1.782193	0.382564	0.475316
O22	O	1.024747	-0.135102	-0.311444
O23	O	1.358080	0.198232	0.021889
O24	O	1.691413	0.531565	0.355223
O25	O	1.235610	-0.284108	-0.311432
O26	O	1.568944	0.049225	0.021902
O27	O	1.902277	0.382559	0.355235
O28	O	1.115732	-0.135106	-0.402428
O29	O	1.449065	0.198228	-0.069094
O30	O	1.782399	0.531561	0.264239
O31	O	1.024630	-0.219871	-0.191356
O32	O	1.357963	0.113463	0.141978
O33	O	1.691296	0.446796	0.475311
O34	O	0.904599	-0.219849	-0.311388
O35	O	1.237933	0.113484	0.021945
O36	O	1.571266	0.446818	0.355278
O37	O	1.024635	-0.284070	-0.522411
O38	O	1.357968	0.049263	-0.189078
O39	O	1.691301	0.382597	0.144255
O40	O	0.904551	-0.284065	-0.402330
O41	O	1.237884	0.049269	-0.068997
O42	O	1.571218	0.382602	0.264337
O43	O	1.115668	-0.219858	-0.522454
O44	O	1.449002	0.113475	-0.189120
O45	O	1.782335	0.446808	0.144213
O46	O	1.115463	-0.368855	-0.311376
O47	O	1.448796	-0.035522	0.021957
O48	O	1.782130	0.297811	0.355290
O49	O	1.024518	-0.368839	-0.402323
O50	O	1.357851	-0.035505	-0.068990
O51	O	1.691185	0.297828	0.264344
C52	C	0.877704	-0.251954	-0.356854
C53	C	1.211038	0.081379	-0.023521
C54	C	1.544371	0.414713	0.309813
C55	C	0.795390	-0.251958	-0.356855
C56	C	1.128724	0.081376	-0.023522
C57	C	1.462057	0.414709	0.309812
C58	C	0.496299	-0.251990	-0.356917
C59	C	0.829633	0.081343	-0.023584
C60	C	1.162966	0.414676	0.309749
C61	C	0.527630	-0.211386	-0.299978
C62	C	0.860963	0.121948	0.033355
C63	C	1.194297	0.455281	0.366688
C64	C	0.613248	-0.211495	-0.299735
C65	C	0.946582	0.121839	0.033598
C66	C	1.279915	0.455172	0.366931
C67	C	0.644682	-0.251974	-0.356886
C68	C	0.978015	0.081360	-0.023553
C69	C	1.311348	0.414693	0.309780
C70	C	0.613553	-0.307048	-0.335559
C71	C	0.946887	0.026286	-0.002226
C72	C	1.280220	0.359619	0.331107
C73	C	0.527908	-0.306822	-0.335163
C74	C	0.861242	0.026511	-0.001830
C75	C	1.194575	0.359845	0.331503
C76	C	0.527917	-0.238000	-0.435317
C77	C	0.861250	0.095333	-0.101984
C78	C	1.194583	0.428667	0.231349
C79	C	0.613568	-0.236773	-0.434890
C80	C	0.946901	0.096560	-0.101556
C81	C	1.280234	0.429893	0.231777
C82	C	0.728541	-0.251968	-0.356870
C83	C	1.061875	0.081366	-0.023537
C84	C	1.395208	0.414699	0.309796
C85	C	0.412440	-0.252000	-0.356932
C86	C	0.745773	0.081333	-0.023598
C87	C	1.079106	0.414667	0.309735
C88	C	1.069990	-0.387818	-0.356859
C89	C	1.403324	-0.054485	-0.023525
C90	C	1.736657	0.278849	0.309808
C91	C	1.070005	-0.445932	-0.356869
C92	C	1.403338	-0.112599	-0.023536
C93	C	1.736671	0.220735	0.309798
C94	C	1.117594	-0.806291	-0.309617
C95	C	1.450927	-0.472958	0.023716
C96	C	1.784260	-0.139624	0.357049
C97	C	1.117622	-0.860895	-0.309627
C98	C	1.450956	-0.527562	0.023706
C99	C	1.784289	-0.194229	0.357039
O100	O	1.157955	-0.889129	-0.269415
O101	O	1.491288	-0.555795	0.063918
O102	O	1.824621	-0.222462	0.397252
N103	N	1.070245	-0.888214	-0.356942
N104	N	1.403578	-0.554881	-0.023608
N105	N	1.736912	-0.221548	0.309725
C106	C	1.022841	-0.860926	-0.404255
C107	C	1.356175	-0.527593	-0.070921
C108	C	1.689508	-0.194260	0.262412
O109	O	0.982546	-0.889177	-0.444501
O110	O	1.315880	-0.555844	-0.111168
O111	O	1.649213	-0.222511	0.222166
C112	C	1.022817	-0.806323	-0.404248
C113	C	1.356150	-0.472990	-0.070915
C114	C	1.689484	-0.139656	0.262419
C115	C	1.070192	-0.779007	-0.356925
C116	C	1.403525	-0.445673	-0.023592
C117	C	1.736859	-0.112340	0.309741
C118	C	1.164965	-0.778975	-0.262299
C119	C	1.498299	-0.445641	0.071034
C120	C	1.831632	-0.112308	0.404368
C121	C	1.164936	-0.724374	-0.262288
C122	C	1.498269	-0.391041	0.071045
C123	C	1.831602	-0.057707	0.404378
C124	C	1.117534	-0.697090	-0.309596
C125	C	1.450867	-0.363757	0.023737
C126	C	1.784201	-0.030423	0.357071
C127	C	1.070162	-0.724406	-0.356914
C128	C	1.403495	-0.391073	-0.023581
C129	C	1.736829	-0.057740	0.309752
C130	C	0.975417	-0.779036	-0.451564
C131	C	1.308751	-0.445703	-0.118231
C132	C	1.642084	-0.112369	0.215102
C133	C	0.975397	-0.724429	-0.451554
C134	C	1.308731	-0.391096	-0.118221
C135	C	1.642064	-0.057762	0.215113
C136	C	1.022773	-0.697113	-0.404231
C137	C	1.356106	-0.363779	-0.070898
C138	C	1.689439	-0.030446	0.262436
C139	C	1.022731	-0.642522	-0.404212
C140	C	1.356064	-0.309188	-0.070878
C141	C	1.689397	0.024145	0.262455
N142	N	1.070108	-0.615202	-0.356897
N143	N	1.403441	-0.281869	-0.023564
N144	N	1.736774	0.051464	0.309770
C145	C	1.117509	-0.642487	-0.309589
C146	C	1.450843	-0.309153	0.023744
C147	C	1.784176	0.024180	0.357077
C148	C	1.022897	-0.975597	-0.404266
C149	C	1.356230	-0.642264	-0.070933
C150	C	1.689564	-0.308930	0.262400
C151	C	1.022917	-1.030199	-0.404270
C152	C	1.356251	-0.696866	-0.070936
C153	C	1.689584	-0.363533	0.262397
C154	C	1.117699	-1.030164	-0.309643
C155	C	1.451033	-0.696831	0.023690
C156	C	1.784366	-0.363498	0.357024
C157	C	1.117675	-0.975561	-0.309636
C158	C	1.451008	-0.642228	0.023697
C159	C	1.784342	-0.308894	0.357030
C160	C	1.070274	-0.948278	-0.356952
C161	C	1.403608	-0.614945	-0.023618
C162	C	1.736941	-0.281611	0.309715
C163	C	1.117443	-0.527822	-0.309570
C164	C	1.450776	-0.194488	0.023763
C165	C	1.784109	0.138845	0.357097
C166	C	1.117406	-0.473216	-0.309561
C167	C	1.450740	-0.139883	0.023772
C168	C	1.784073	0.193450	0.357105
C169	C	1.022627	-0.473256	-0.404190
C170	C	1.355961	-0.139922	-0.070857
C171	C	1.689294	0.193411	0.262476
C172	C	1.022661	-0.527856	-0.404197
C173	C	1.355994	-0.194523	-0.070863
C174	C	1.689327	0.138810	0.262470
C175	C	1.070074	-0.555138	-0.356884
C176	C	1.403408	-0.221805	-0.023551
C177	C	1.736741	0.111529	0.309783
O178	O	0.982421	-0.614254	-0.444405
O179	O	1.315754	-0.280920	-0.111072
O180	O	1.649087	0.052413	0.222261
O181	O	1.157804	-0.614229	-0.269357
O182	O	1.491138	-0.280896	0.063977
O183	O	1.824471	0.052438	0.397310
C184	C	1.263277	-0.251997	-0.356932
C185	C	1.596610	0.081336	-0.023599
C186	C	1.929943	0.414670	0.309735
C187	C	1.345591	-0.252006	-0.356949
C188	C	1.678924	0.081327	-0.023615
C189	C	2.012257	0.414660	0.309718
C190	C	1.070158	-0.251962	-0.550055
C191	C	1.403491	0.081371	-0.216721
C192	C	1.736824	0.414705	0.116612
C193	C	1.070176	-0.251957	-0.632369
C194	C	1.403509	0.081377	-0.299036
C195	C	1.736843	0.414710	0.034298
C196	C	1.070260	-0.115602	-0.356943
C197	C	1.403593	0.217731	-0.023610
C198	C	1.736927	0.551064	0.309724
C199	C	1.070322	-0.057488	-0.356964
C200	C	1.403655	0.275845	-0.023631
C201	C	1.736989	0.609178	0.309702
C202	C	1.070219	-0.251859	-0.931460
C203	C	1.403552	0.081475	-0.598127
C204	C	1.736886	0.414808	-0.264793
C205	C	1.012746	-0.292130	-0.900108
C206	C	1.346079	0.041203	-0.566775
C207	C	1.679413	0.374536	-0.233442
C208	C	1.012901	-0.292317	-0.814490
C209	C	1.346235	0.041016	-0.481157
C210	C	1.679568	0.374350	-0.147823
C211	C	1.070197	-0.251907	-0.783077
C212	C	1.403530	0.081426	-0.449744
C213	C	1.736864	0.414760	-0.116411
C214	C	1.148220	-0.266868	-0.814182
C215	C	1.481553	0.066466	-0.480849
C216	C	1.814886	0.399799	-0.147516
C217	C	1.147899	-0.267132	-0.899827
C218	C	1.481233	0.066201	-0.566494
C219	C	1.814566	0.399535	-0.233161
C220	C	1.050348	-0.196537	-0.899887
C221	C	1.383681	0.136797	-0.566554
C222	C	1.717015	0.470130	-0.233220
C223	C	1.048612	-0.196856	-0.814236
C224	C	1.381945	0.136477	-0.480903
C225	C	1.715279	0.469811	-0.147569
C226	C	1.070189	-0.251934	-0.699218
C227	C	1.403523	0.081400	-0.365885
C228	C	1.736856	0.414733	-0.032551
C229	C	1.070232	-0.251833	-1.015320
C230	C	1.403565	0.081500	-0.681986
C231	C	1.736899	0.414833	-0.348653
C232	C	1.070115	-0.251951	-0.164482
C233	C	1.403448	0.081383	0.168851
C234	C	1.736782	0.414716	0.502184
C235	C	1.070240	-0.251809	-0.082169
C236	C	1.403574	0.081524	0.251165
C237	C	1.736907	0.414857	0.584498
H238	H	0.633700	-0.220743	-0.241642
H239	H	0.967033	0.112591	0.091692
H240	H	1.300367	0.445924	0.425025
H241	H	1.192191	-0.238457	-0.793838
H242	H	1.525524	0.094876	-0.460504
H243	H	1.858858	0.428209	-0.127171
H244	H	0.507894	-0.318688	-0.277849
H245	H	0.841228	0.014646	0.055484
H246	H	1.174561	0.347979	0.388818
O247	O	1.105791	-0.156787	-0.926742
O248	O	1.439125	0.176546	-0.593409
O249	O	1.772458	0.509879	-0.260076
H250	H	1.104795	-0.155368	-0.988020
H251	H	1.438128	0.177965	-0.654687
H252	H	1.771462	0.511298	-0.321353
H253	H	0.936799	-0.702218	-0.490086
H254	H	1.270132	-0.368884	-0.156753
H255	H	1.603466	-0.035551	0.176580
H256	H	1.156299	-1.052389	-0.271125
H257	H	1.489632	-0.719056	0.062208
H258	H	1.822966	-0.385723	0.395542
H259	H	0.507180	-0.338099	-0.374826
H260	H	0.840514	-0.004766	-0.041493
H261	H	1.173847	0.328567	0.291840
O262	O	1.168785	-0.946105	-0.258604
O263	O	1.502119	-0.612772	0.074730
O264	O	1.835452	-0.279438	0.408063
H265	H	1.206432	-0.921196	-0.291790
H266	H	1.539765	-0.587862	0.041543
H267	H	1.873098	-0.254529	0.374876
H268	H	0.984292	-0.953386	-0.442794
H269	H	1.317625	-0.620052	-0.109461
H270	H	1.650958	-0.286719	0.223873
O271	O	1.170202	-0.320701	-0.926305
O272	O	1.503535	0.012632	-0.592971
O273	O	1.836868	0.345966	-0.259638
H274	H	1.181111	-0.346175	-0.877938
H275	H	1.514444	-0.012841	-0.544604
H276	H	1.847778	0.320492	-0.211271
O277	O	0.640518	-0.348201	-0.388766
O278	O	0.973851	-0.014868	-0.055433
O279	O	1.307184	0.318466	0.277901
H280	H	0.676481	-0.329793	-0.431074
H281	H	1.009814	0.003540	-0.097741
H282	H	1.343147	0.336873	0.235593
O283	O	0.924324	-0.808491	-0.502611
O284	O	1.257658	-0.475158	-0.169277
O285	O	1.590991	-0.141825	0.164056
H286	H	0.891372	-0.780337	-0.535508
H287	H	1.224705	-0.447003	-0.202174
H288	H	1.558039	-0.113670	0.131159
H289	H	0.634966	-0.319119	-0.278864
H290	H	0.968299	0.014214	0.054470
H291	H	1.301633	0.347547	0.387803
H292	H	1.165358	-0.306879	-0.792738
H293	H	1.498691	0.026454	-0.459405
H294	H	1.832025	0.359788	-0.126071
H295	H	0.984031	-0.451032	-0.442706
H296	H	1.317364	-0.117699	-0.109372
H297	H	1.650698	0.215634	0.223961
H298	H	1.156053	-0.550028	-0.271045
H299	H	1.489386	-0.216694	0.062288
H300	H	1.822720	0.116639	0.395622
H301	H	0.984333	-1.052436	-0.442798
H302	H	1.317666	-0.719102	-0.109465
H303	H	1.650999	-0.385769	0.223869
H304	H	0.506352	-0.198540	-0.454708
H305	H	0.839685	0.134794	-0.121374
H306	H	1.173019	0.468127	0.211959
H307	H	0.984086	-0.550098	-0.442733
H308	H	1.317420	-0.216765	-0.109400
H309	H	1.650753	0.116568	0.223934
O310	O	0.936271	-0.279899	-0.786621
O311	O	1.269604	0.053434	-0.453287
O312	O	1.602938	0.386767	-0.119954
H313	H	0.898766	-0.273711	-0.834316
H314	H	1.232099	0.059623	-0.500982
H315	H	1.565433	0.392956	-0.167649
H316	H	1.155985	-0.450977	-0.271023
H317	H	1.489318	-0.117644	0.062311
H318	H	1.822651	0.215690	0.395644
O319	O	0.935870	-0.279857	-0.927364
O320	O	1.269204	0.053476	-0.594031
O321	O	1.602537	0.386809	-0.260697
H322	H	0.937800	-0.244926	-0.963552
H323	H	1.271134	0.088407	-0.630219
H324	H	1.604467	0.421741	-0.296886
O325	O	1.030182	-0.346648	-0.787345
O326	O	1.363515	-0.013315	-0.454011
O327	O	1.696848	0.320019	-0.120678
H328	H	1.038483	-0.372887	-0.835390
H329	H	1.371817	-0.039554	-0.502057
H330	H	1.705150	0.293779	-0.168724
H331	H	1.025734	-0.332886	-0.921632
H332	H	1.359067	0.000447	-0.588298
H333	H	1.692400	0.333780	-0.254965
H334	H	0.633919	-0.196245	-0.450971
H335	H	0.967253	0.137088	-0.117638
H336	H	1.300586	0.470422	0.215696
O337	O	0.641895	-0.273107	-0.494090
O338	O	0.975229	0.060226	-0.160757
O339	O	1.308562	0.393559	0.172576
H340	H	0.703117	-0.271068	-0.496042
H341	H	1.036450	0.062265	-0.162709
H342	H	1.369783	0.395599	0.170624
H343	H	1.203514	-0.702136	-0.223756
H344	H	1.536848	-0.368803	0.109577
H345	H	1.870181	-0.035470	0.442911
O346	O	0.641139	-0.157395	-0.317419
O347	O	0.974472	0.175938	0.015915
O348	O	1.307806	0.509271	0.349248
H349	H	0.593454	-0.130919	-0.326220
H350	H	0.926788	0.202414	0.007113
H351	H	1.260121	0.535748	0.340447
O352	O	1.216091	-0.808399	-0.211265
O353	O	1.549424	-0.475066	0.122068
O354	O	1.882757	-0.141732	0.455402
H355	H	1.249017	-0.780222	-0.178362
H356	H	1.582351	-0.446889	0.154972
H357	H	1.915684	-0.113556	0.488305
H358	H	0.991194	-0.185574	-0.793905
H359	H	1.324528	0.147759	-0.460571
H360	H	1.657861	0.481092	-0.127238
H361	H	0.507654	-0.267575	-0.477742
H362	H	0.840988	0.065758	-0.144409
H363	H	1.174321	0.399092	0.188924
O364	O	0.499108	-0.223501	-0.223467
O365	O	0.832442	0.109832	0.109867
O366	O	1.165775	0.443165	0.443200
H367	H	0.462713	-0.258317	-0.225816
H368	H	0.796047	0.075017	0.107517
H369	H	1.129380	0.408350	0.440851
O370	O	0.976291	-0.178488	-0.928473
O371	O	1.309624	0.154846	-0.595140
O372	O	1.642957	0.488179	-0.261806
H373	H	0.983441	-0.141537	-0.959640
H374	H	1.316775	0.191796	-0.626307
H375	H	1.650108	0.525129	-0.292973
H376	H	1.192172	-0.239073	-0.920569
H377	H	1.525505	0.094260	-0.587236
H378	H	1.858839	0.427593	-0.253902
H379	H	1.087419	-0.165258	-0.792854
H380	H	1.420752	0.168075	-0.459520
H381	H	1.754086	0.501408	-0.126187
H382	H	0.507068	-0.170421	-0.313200
H383	H	0.840401	0.162912	0.020133
H384	H	1.173734	0.496246	0.353467
