data_functionalizedCrystal
_audit_creation_method	'MofGen! by Chris Wilmer'
_symmetry_space_group_name_H-M	'P1'
_symmetry_Int_Tables_number	1
_symmetry_cell_setting	triclinic
loop_
_symmetry_equiv_pos_as_xyz
  x,y,z
_cell_length_a	10.723024
_cell_length_b	15.995350
_cell_length_c	9.198806
_cell_angle_alpha	89.999047
_cell_angle_beta	90.004274
_cell_angle_gamma	96.019878
loop_
_atom_site_label
_atom_site_type_symbol
_atom_site_fract_x
_atom_site_fract_y
_atom_site_fract_z
O1	O	-1.655690	0.117435	-0.120896
O2	O	-1.292394	0.128675	-0.120896
O3	O	-1.483973	0.001224	-0.120895
O4	O	-1.464111	0.244886	-0.120897
O5	O	-1.483957	0.001224	0.120890
O6	O	-1.292379	0.128675	0.120889
O7	O	-1.655674	0.117434	0.120889
Cu8	Cu	-1.474025	0.123055	0.142966
Cu9	Cu	-1.474043	0.123055	-0.142973
O10	O	-1.464096	0.244885	0.120888
C11	C	-1.245897	0.127857	-0.000003
C12	C	-1.107374	0.125410	-0.000003
C13	C	-1.483144	-0.029975	-0.000005
C14	C	-1.480682	-0.122940	-0.000013
C15	C	-1.031482	0.196725	-0.000004
C16	C	-0.888310	0.194197	-0.000004
C17	C	-1.471842	-0.460738	-0.000008
C18	C	-1.335403	-0.414088	-0.000550
C19	C	-1.337865	-0.317383	-0.000005
C20	C	-1.476227	-0.293152	-0.000012
C21	C	-1.543515	-0.333843	0.138057
C22	C	-1.540087	-0.430499	0.138173
C23	C	-1.542923	-0.430840	-0.136782
C24	C	-1.542891	-0.333895	-0.138607
C25	C	-1.478712	-0.198441	-0.000008
C26	C	-1.469360	-0.555450	-0.000002
C27	C	-0.702171	0.118252	-0.000004
C28	C	-0.840694	0.120700	-0.000004
C29	C	-1.464924	0.276085	-0.000005
C30	C	-1.467386	0.369049	-0.000007
N31	N	-1.474022	0.123054	0.344080
N32	N	-1.474056	0.123049	-0.344087
C33	C	-1.554463	0.069305	0.416277
C34	C	-1.554482	0.069302	0.583690
H35	H	-1.072501	0.259651	0.000003
H36	H	-1.645165	-0.319134	0.143187
C37	C	-1.265915	-0.280149	0.133935
N38	N	-1.211722	-0.252106	0.234827
H39	H	-1.066355	0.062483	-0.000039
C40	C	-1.381010	0.185220	0.572049
N41	N	-1.310926	0.232046	0.508871
H42	H	-1.405162	0.169065	0.406208
H43	H	-1.640258	-0.462172	0.144433
C44	C	-1.266398	-0.279394	-0.133707
N45	N	-1.212560	-0.250783	-0.234411
C46	C	-1.262062	-0.440953	0.132495
N47	N	-1.206830	-0.461181	0.232718
C48	C	-1.473769	-0.455605	0.277599
N49	N	-1.423812	-0.474511	0.382616
H50	H	-1.623356	0.023288	0.645776
C51	C	-0.800216	0.276678	-0.000004
N52	N	-0.733859	0.338805	-0.000001
C53	C	-0.928781	0.038216	0.000001
N54	N	-0.995138	-0.023911	0.000008
C55	C	-1.261728	-0.439555	-0.134300
N56	N	-1.206233	-0.458745	-0.235042
H57	H	-1.623314	0.023287	0.354152
H58	H	-1.496767	-0.305731	0.240807
C59	C	-1.482663	-0.458930	-0.278158
N60	N	-1.437261	-0.480086	-0.384635
C61	C	-1.476492	-0.297417	-0.276599
N62	N	-1.426468	-0.269944	-0.380531
H63	H	-1.643790	-0.317954	-0.146948
H64	H	-1.643519	-0.462023	-0.137715
