data_functionalizedCrystal
_audit_creation_method	'MofGen! by Chris Wilmer'
_symmetry_space_group_name_H-M	'P1'
_symmetry_Int_Tables_number	1
_symmetry_cell_setting	triclinic
loop_
_symmetry_equiv_pos_as_xyz
  x,y,z
_cell_length_a	19.188930
_cell_length_b	9.616153
_cell_length_c	10.540539
_cell_angle_alpha	90.000677
_cell_angle_beta	83.835136
_cell_angle_gamma	89.977442
loop_
_atom_site_label
_atom_site_type_symbol
_atom_site_fract_x
_atom_site_fract_y
_atom_site_fract_z
O1	O	0.927206	-0.116087	0.158463
O2	O	1.427206	0.383913	0.658463
O3	O	0.724037	-0.115991	0.179795
O4	O	1.224037	0.384009	0.679795
O5	O	0.830256	-0.116039	-0.015680
O6	O	1.330256	0.383961	0.484320
O7	O	0.820986	-0.116038	0.353938
O8	O	1.320986	0.383962	0.853938
O9	O	0.830238	0.115252	-0.015672
O10	O	1.330238	0.615252	0.484328
O11	O	0.724018	0.115301	0.179803
O12	O	1.224018	0.615301	0.679803
O13	O	0.927187	0.115205	0.158471
O14	O	1.427187	0.615205	0.658471
Zn15	Zn	0.825600	0.151975	0.169138
Zn16	Zn	1.325600	0.651975	0.669138
Zn17	Zn	0.825624	-0.152761	0.169128
Zn18	Zn	1.325624	0.347239	0.669128
O19	O	0.820968	0.115253	0.353946
O20	O	1.320968	0.615253	0.853946
C21	C	0.698012	-0.000333	0.179108
C22	C	1.198012	0.499667	0.679108
C23	C	0.620494	-0.000296	0.177035
C24	C	1.120494	0.499704	0.677035
N25	N	0.825588	0.359950	0.169144
N26	N	1.325588	0.859950	0.669144
C27	C	0.829552	-0.000396	-0.062963
C28	C	1.329552	0.499604	0.437037
C29	C	0.827472	-0.000402	-0.203866
C30	C	1.327472	0.499598	0.296134
C31	C	0.576334	-0.000318	0.291733
C32	C	1.076334	0.499682	0.791733
C33	C	0.503497	-0.000333	0.289785
C34	C	1.003497	0.499667	0.789785
C35	C	0.474823	-0.000355	0.173132
C36	C	0.974823	0.499645	0.673132
C37	C	0.518992	-0.000325	0.058418
C38	C	1.018992	0.499675	0.558418
C39	C	0.591827	-0.000296	0.060370
C40	C	1.091827	0.499704	0.560370
N41	N	0.366255	-0.079130	0.083962
N42	N	0.866255	0.420870	0.583962
N43	N	0.297064	-0.079160	0.082116
N44	N	0.797064	0.420840	0.582116
C45	C	0.255375	-0.000440	0.167245
C46	C	0.755375	0.499560	0.667245
N47	N	0.285490	0.078295	0.254309
N48	N	0.785490	0.578295	0.754309
N49	N	0.354687	0.078320	0.256158
N50	N	0.854687	0.578320	0.756158
C51	C	0.395846	-0.000386	0.171003
C52	C	0.895846	0.499614	0.671003
C53	C	0.132237	-0.000476	0.279838
C54	C	0.632237	0.499524	0.779838
C55	C	0.059400	-0.000483	0.277885
C56	C	0.559400	0.499517	0.777885
C57	C	0.074896	-0.000489	0.046516
C58	C	0.574896	0.499511	0.546516
C59	C	0.147732	-0.000468	0.048472
C60	C	0.647732	0.499532	0.548472
C61	C	0.176398	-0.000468	0.165137
C62	C	0.676398	0.499532	0.665137
C63	C	0.953212	-0.000456	0.159157
C64	C	1.453212	0.499544	0.659157
C65	C	1.030731	-0.000502	0.161231
C66	C	1.530731	0.499498	0.661231
C67	C	0.768590	0.580346	0.273371
C68	C	1.268590	1.080346	0.773371
C69	C	0.768719	0.419178	0.273752
C70	C	1.268719	0.919178	0.773752
C71	C	0.898582	0.418364	0.197670
C72	C	1.398582	0.918364	0.697670
C73	C	0.898269	0.579582	0.198409
C74	C	1.398269	1.079582	0.698409
C75	C	0.810310	0.579870	0.036046
C76	C	1.310310	1.079870	0.536046
C77	C	0.808638	0.418644	0.036945
C78	C	1.308638	0.918644	0.536945
N79	N	0.825624	0.639264	0.169127
N80	N	1.325624	1.139264	0.669127
C81	C	0.747771	-0.000884	-0.385536
C82	C	1.247771	0.499116	0.114464
C83	C	0.749879	-0.000364	-0.238965
C84	C	1.249879	0.499636	0.261035
C85	C	0.864803	0.131659	-0.266342
C86	C	1.364803	0.631659	0.233658
C87	C	0.862154	0.131771	-0.412828
C88	C	1.362154	0.631771	0.087172
C89	C	0.863754	-0.131251	-0.413390
C90	C	1.363754	0.368749	0.086610
C91	C	0.864468	-0.132998	-0.266424
C92	C	1.364468	0.367002	0.233576
C93	C	0.821672	-0.000393	0.401229
C94	C	1.321672	0.499607	0.901229
C95	C	0.823752	-0.000396	0.542131
C96	C	1.323752	0.499604	1.042131
H97	H	0.599669	-0.000321	0.386731
H98	H	1.099669	0.499679	0.886731
F99	F	0.742195	0.633108	0.000081
F100	F	1.242195	1.133108	0.500081
F101	F	0.711194	0.123611	-0.183523
F102	F	1.211194	0.623611	0.316477
H103	H	0.911663	0.617163	0.295452
H104	H	1.411663	1.117163	0.795452
F105	F	0.738449	0.368750	0.008634
F106	F	1.238449	0.868750	0.508634
H107	H	0.155578	-0.000456	0.374834
H108	H	0.655578	0.499544	0.874834
F109	F	0.826070	0.260834	-0.448890
F110	F	1.326070	0.760834	0.051110
H111	H	0.717237	0.093316	-0.415068
H112	H	1.217237	0.593316	0.084932
F113	F	0.012401	-0.000498	0.399970
F114	F	0.512401	0.499502	0.899970
H115	H	0.942070	0.618551	0.125455
H116	H	1.442070	1.118551	0.625455
H117	H	0.838649	-0.231346	-0.444393
H118	H	1.338649	0.268654	0.055607
H119	H	0.851895	0.617967	-0.041525
H120	H	1.351895	1.117967	0.458475
F121	F	0.194732	-0.000452	-0.073608
F122	F	0.694732	0.499548	0.426392
F123	F	0.955414	0.368216	0.101049
F124	F	1.455414	0.868216	0.601049
H125	H	0.921784	0.136543	-0.245243
H126	H	1.421784	0.636543	0.254757
H127	H	0.837154	-0.230693	-0.224967
H128	H	1.337154	0.269307	0.275033
H129	H	0.847426	0.378331	-0.044231
H130	H	1.347426	0.878331	0.455769
H131	H	0.921040	-0.141000	-0.243449
H132	H	1.421040	0.359000	0.256551
H133	H	0.627783	-0.000279	-0.033035
H134	H	1.127783	0.499721	0.466965
H135	H	0.051551	-0.000593	-0.048466
H136	H	0.551551	0.499407	0.451534
F137	F	0.711485	-0.124098	-0.182433
F138	F	1.211485	0.375902	0.317567
H139	H	0.778563	0.380593	0.372518
H140	H	1.278563	0.880593	0.872518
H141	H	0.838855	0.229960	-0.223167
H142	H	1.338855	0.729960	0.276833
F143	F	0.456491	-0.000352	0.411867
F144	F	0.956491	0.499648	0.911867
H145	H	0.717127	-0.095585	-0.413464
H146	H	1.217127	0.404415	0.086536
H147	H	0.714482	0.379689	0.256815
H148	H	1.214482	0.879689	0.756815
F149	F	0.935091	0.139584	-0.477137
F150	F	1.435091	0.639584	0.022863
H151	H	0.495641	-0.000362	-0.036562
H152	H	0.995641	0.499638	0.463438
F153	F	0.697472	0.631081	0.251591
F154	F	1.197472	1.131081	0.751591
F155	F	0.781296	0.633249	0.401744
F156	F	1.281296	1.133249	0.901744
H157	H	0.912276	0.377966	0.293606
H158	H	1.412276	0.877966	0.793606
H159	H	0.919799	-0.132166	-0.461851
H160	H	1.419799	0.367834	0.038149
