data_functionalizedCrystal
_audit_creation_method	'MofGen! by Chris Wilmer'
_symmetry_space_group_name_H-M	'P1'
_symmetry_Int_Tables_number	1
_symmetry_cell_setting	triclinic
loop_
_symmetry_equiv_pos_as_xyz
  x,y,z
_cell_length_a	18.760487
_cell_length_b	12.970454
_cell_length_c	18.760492
_cell_angle_alpha	59.998746
_cell_angle_beta	90.035544
_cell_angle_gamma	60.020386
loop_
_atom_site_label
_atom_site_type_symbol
_atom_site_fract_x
_atom_site_fract_y
_atom_site_fract_z
Zr1	Zr	0.686681	1.128524	-0.093125
O2	O	0.572862	1.343621	-0.207015
O3	O	0.721573	0.913432	-0.058212
O4	O	0.721569	1.128530	-0.206922
O5	O	0.572868	1.128517	0.059001
O6	O	0.838872	1.128530	-0.206850
O7	O	0.572865	1.128523	-0.058304
O8	O	0.838878	0.743758	0.059166
O9	O	0.572862	1.513289	-0.207015
O10	O	0.823995	1.001901	-0.043268
O11	O	0.736456	1.001896	0.044221
O12	O	0.736451	1.255147	-0.130866
O13	O	0.648912	1.255143	-0.043377
Zr14	Zr	0.873770	1.128514	0.094077
Zr15	Zr	0.873766	1.128524	-0.093010
Zr16	Zr	0.686685	1.128515	0.093962
Zr17	Zr	0.686681	1.399124	-0.093126
Zr18	Zr	0.873770	0.857914	0.094078
O19	O	0.838878	1.343607	0.059164
O20	O	0.838872	1.343621	-0.206851
O21	O	0.572868	1.343608	0.059000
O22	O	0.987589	0.913417	0.207967
O23	O	0.987583	0.913431	-0.058048
O24	O	0.721579	0.913418	0.207803
O25	O	0.987583	1.128522	-0.058049
O26	O	0.838882	1.128509	0.207874
O27	O	0.721579	1.128509	0.207802
O28	O	0.987586	1.128516	0.059256
O29	O	0.721569	1.513289	-0.206924
O30	O	0.838882	0.743750	0.207876
O31	O	0.987589	0.743750	0.207967
O32	O	0.987586	0.743758	0.059257
O33	O	0.572865	1.513281	-0.058305
O34	O	0.721573	1.513281	-0.058214
O35	O	0.823999	1.001892	0.131818
O36	O	0.911539	1.001896	0.044329
O37	O	0.823995	1.255142	-0.043269
O38	O	0.736456	1.255138	0.044220
C39	C	0.780225	0.790040	0.000477
C40	C	0.780225	0.675163	0.000478
C41	C	0.546211	1.128520	0.000332
C42	C	0.466789	1.128520	0.000283
C43	C	0.085275	1.260717	-0.045097
C44	C	0.176677	0.996323	0.046357
C45	C	0.251299	0.996321	0.046282
C46	C	0.242912	1.128518	0.000515
C47	C	0.159902	1.260719	-0.045176
C48	C	0.334313	0.864123	0.091965
C49	C	0.408941	0.864115	0.091891
C50	C	0.400555	0.996315	0.046129
C51	C	0.317539	1.128520	0.000437
C52	C	0.309152	1.260718	-0.045329
C53	C	0.226137	1.392925	-0.091017
C54	C	0.151516	1.392918	-0.090938
C55	C	0.475176	0.996322	0.046049
C56	C	0.383780	1.260720	-0.045408
C57	C	1.014240	1.128519	0.000620
C58	C	1.093662	1.128519	0.000669
C59	C	0.780220	1.128532	-0.233542
C60	C	0.780218	1.128536	-0.312966
C61	C	0.780225	1.466999	0.000475
C62	C	0.780225	1.581875	0.000474
C63	C	0.715590	1.128540	-0.350320
C64	C	0.844849	1.128523	-0.350237
C65	C	0.844852	1.128519	-0.424857
C66	C	0.780224	1.128524	-0.462211
C67	C	0.715593	1.128532	-0.424946
C68	C	0.909487	1.128496	-0.462123
C69	C	0.909493	1.128490	-0.536747
C70	C	0.844861	1.128505	-0.574106
C71	C	0.780227	1.128515	-0.536837
C72	C	0.715599	1.128520	-0.574191
C73	C	0.650960	1.128540	-0.536926
C74	C	0.650961	1.128547	-0.462305
C75	C	0.844861	1.128499	-0.648728
C76	C	0.715602	1.128512	-0.648816
C77	C	0.780231	1.128507	0.234494
C78	C	0.780233	1.128503	0.313918
C79	C	1.014240	0.790040	0.000621
C80	C	1.093662	0.675163	0.000671
C81	C	0.780231	0.790028	0.234496
C82	C	0.780233	0.675147	0.313920
C83	C	1.014245	0.790028	0.234639
C84	C	1.093669	0.675147	0.314112
C85	C	0.546206	1.467011	-0.233687
C86	C	0.466781	1.581892	-0.313160
C87	C	0.546211	1.466999	0.000331
C88	C	0.466789	1.581876	0.000282
C89	C	0.780220	1.467011	-0.233543
C90	C	0.780218	1.581892	-0.312967
C91	C	1.085263	0.621218	-0.045039
C92	C	1.159881	0.513294	-0.045010
C93	C	1.242898	0.459309	0.000734
C94	C	1.251296	0.513265	0.046445
C95	C	1.176678	0.621194	0.046410
C96	C	0.825931	0.621195	0.396951
C97	C	0.825929	0.513268	0.471585
C98	C	0.780234	0.459286	0.463187
C99	C	0.734531	0.513249	0.380147
C100	C	0.734528	0.621182	0.305514
C101	C	1.176671	0.621200	0.305765
C102	C	1.251305	0.513272	0.380431
C103	C	1.242937	0.459285	0.463444
C104	C	1.159927	0.513243	0.471789
C105	C	1.085294	0.621176	0.397124
C106	C	0.383780	1.635852	-0.304813
C107	C	0.309146	1.743814	-0.379479
C108	C	0.317514	1.797806	-0.462492
C109	C	0.400524	1.743841	-0.470837
C110	C	0.475157	1.635889	-0.396172
C111	C	0.475188	1.635832	0.045983
C112	C	0.400570	1.743786	0.045934
C113	C	0.317553	1.797775	0.000187
C114	C	0.309155	1.743814	-0.045520
C115	C	0.383773	1.635869	-0.045475
C116	C	0.825922	1.635839	-0.304541
C117	C	0.825937	1.743767	-0.379161
C118	C	0.780243	1.797754	-0.462207
C119	C	0.734538	1.743796	-0.470632
C120	C	0.734528	1.635862	-0.396012
H121	H	0.376939	1.368373	-0.082667
H122	H	1.017672	0.665171	-0.082300
Br123	Br	0.672520	1.817092	-0.583344
H124	H	0.376950	1.591898	-0.237227
H125	H	1.318899	0.469295	0.083688
Br126	Br	1.344158	0.312831	0.000772
Br127	Br	0.196501	1.817026	-0.368132
Br128	Br	0.972652	0.694371	0.408468
H129	H	0.697307	1.591951	-0.402886
H130	H	0.662960	1.128563	-0.319979
Br131	Br	0.521596	0.684697	0.153896
Br132	Br	1.188094	0.694385	0.108456
H133	H	0.407327	1.787815	-0.538435
Br134	Br	0.587845	1.562591	0.108073
Br135	Br	0.887957	0.694425	0.408373
Br136	Br	0.216217	1.944315	-0.563816
H137	H	0.863149	0.469344	0.539192
Br138	Br	0.587799	1.562663	-0.407516
Br139	Br	0.780264	1.944240	-0.563468
Br140	Br	0.216293	1.944273	0.000136
H141	H	1.183501	0.665139	0.238179
H142	H	0.241552	1.787788	-0.082766
H143	H	0.780244	0.371400	0.523964
H144	H	0.407424	1.787703	0.083158
Br145	Br	1.363950	0.440063	0.369085
H146	H	0.697318	0.665095	0.237909
Br147	Br	0.932562	1.128497	-0.299538
H148	H	0.376921	1.591941	-0.082689
H149	H	0.697327	0.469281	0.373322
Br150	Br	0.997200	1.128470	-0.411424
Br151	Br	0.997212	1.128466	-0.587317
H152	H	1.153026	0.469376	-0.082233
H153	H	0.863131	1.591900	-0.236928
H154	H	0.863154	1.787688	-0.372284
Br155	Br	1.148585	0.439961	0.584456
Br156	Br	0.214766	1.572330	-0.153130
Br157	Br	0.038855	1.572325	-0.152936
Br158	Br	-0.027381	1.440132	-0.107091
H159	H	0.183499	0.888693	0.083614
Br160	Br	0.345689	0.684723	0.154066
H161	H	0.662971	1.128523	-0.679229
Br162	Br	0.587831	0.816915	0.108039
H163	H	1.303715	0.371399	0.524234
Br164	Br	0.563245	1.128572	-0.411730
Br165	Br	0.563261	1.128526	-0.587622
Br166	Br	0.932584	1.128452	-0.699290
