data_functionalizedCrystal
_audit_creation_method	'MofGen! by Chris Wilmer'
_symmetry_space_group_name_H-M	'P1'
_symmetry_Int_Tables_number	1
_symmetry_cell_setting	triclinic
loop_
_symmetry_equiv_pos_as_xyz
  x,y,z
_cell_length_a	14.853567
_cell_length_b	23.532407
_cell_length_c	13.330367
_cell_angle_alpha	89.990692
_cell_angle_beta	89.995418
_cell_angle_gamma	83.241804
loop_
_atom_site_label
_atom_site_type_symbol
_atom_site_fract_x
_atom_site_fract_y
_atom_site_fract_z
O1	O	1.195556	0.074353	-0.083365
O2	O	0.932999	0.083210	-0.083383
O3	O	1.072195	-0.004116	-0.083355
O4	O	1.056360	0.161678	-0.083393
O5	O	1.072175	-0.004118	0.083492
O6	O	0.932979	0.083208	0.083464
O7	O	1.195536	0.074351	0.083482
Cu8	Cu	1.064255	0.078779	0.098707
Cu9	Cu	1.064279	0.078782	-0.098609
O10	O	1.056340	0.161677	0.083454
C11	C	0.899405	0.082808	0.000038
C12	C	0.799334	0.081605	0.000032
C13	C	0.387423	0.024648	0.000067
C14	C	0.365008	0.128393	0.000043
C15	C	0.459029	0.129524	0.000039
C16	C	0.517252	0.078216	0.000048
C17	C	0.481454	0.025777	0.000061
C18	C	0.494835	0.181961	0.000016
C19	C	0.588861	0.183094	0.000012
C20	C	0.647086	0.131786	0.000028
C21	C	0.611283	0.079345	0.000042
C22	C	0.669506	0.028037	0.000051
C23	C	0.633704	-0.024404	0.000072
C24	C	0.539679	-0.025531	0.000077
C25	C	0.741111	0.132913	0.000023
C26	C	0.763536	0.029166	0.000044
C27	C	1.071782	-0.025335	0.000071
C28	C	1.070569	-0.088557	0.000078
C29	C	1.145338	-0.487334	0.000029
C30	C	1.144212	-0.546739	0.000021
O31	O	1.213524	-0.583181	-0.000011
N32	N	1.061460	-0.569726	0.000016
C33	C	0.979829	-0.533305	0.000008
O34	O	0.909339	-0.558312	0.000002
C35	C	0.980957	-0.473901	0.000009
C36	C	1.063714	-0.450917	0.000024
C37	C	1.228089	-0.464349	0.000043
C38	C	1.229214	-0.404948	0.000052
C39	C	1.147590	-0.368531	0.000048
C40	C	1.064839	-0.391516	0.000034
C41	C	0.899327	-0.437481	-0.000006
C42	C	0.900461	-0.378073	-0.000006
C43	C	0.983218	-0.355089	0.000009
C44	C	0.984341	-0.295698	0.000039
N45	N	1.067092	-0.272711	0.000044
C46	C	1.148717	-0.309128	0.000048
C47	C	0.977469	-0.658058	0.000005
C48	C	0.976340	-0.717461	0.000012
C49	C	1.140723	-0.730890	0.000023
C50	C	1.141851	-0.671486	0.000023
C51	C	1.060220	-0.635070	0.000011
C52	C	1.151075	-0.184380	0.000069
C53	C	1.152194	-0.124974	0.000083
C54	C	0.987811	-0.111549	0.000067
C55	C	0.986692	-0.170951	0.000058
C56	C	1.068331	-0.207365	0.000056
O57	O	0.915065	-0.259221	0.000067
O58	O	1.219196	-0.284112	0.000041
C59	C	1.229130	0.074753	0.000058
C60	C	1.329200	0.075956	0.000058
C61	C	1.056753	0.182895	0.000026
C62	C	1.057966	0.246118	0.000011
N63	N	1.064245	0.078777	0.237489
N64	N	1.064296	0.078779	-0.237390
C65	C	1.002641	0.117434	0.710099
C66	C	1.125942	0.040124	0.710092
C67	C	1.125932	0.040123	0.605074
C68	C	1.064276	0.078778	0.552563
C69	C	1.002631	0.117435	0.605071
C70	C	1.187582	0.001470	0.552558
C71	C	1.187575	0.001467	0.447533
C72	C	1.125914	0.040120	0.395021
C73	C	1.064266	0.078778	0.447535
C74	C	1.002610	0.117434	0.395025
C75	C	0.940957	0.156089	0.447537
C76	C	0.940970	0.156088	0.552559
C77	C	1.125901	0.040122	0.289999
C78	C	1.002600	0.117434	0.289997
H79	H	1.219587	-0.106264	0.000098
H80	H	1.237785	-0.029999	0.595316
H81	H	0.447423	0.223733	-0.000001
H82	H	0.770257	0.175610	0.000007
H83	H	0.833986	-0.348425	-0.000018
H84	H	0.810936	-0.012615	0.000056
O85	O	1.247491	-0.036139	0.396683
C86	C	1.369824	-0.112800	0.407769
C87	C	1.302008	-0.070249	0.465483
H88	H	1.413931	-0.140381	0.463368
H89	H	1.331200	-0.141336	0.358650
H90	H	1.414591	-0.088151	0.358551
H91	H	1.257224	-0.094851	0.514756
H92	H	1.340689	-0.041714	0.514539
H93	H	0.317597	0.170165	0.000027
H94	H	0.919305	-0.189665	0.000074
O95	O	0.942672	0.155040	0.239147
C96	C	0.820334	0.231696	0.250238
C97	C	0.888166	0.189148	0.307949
H98	H	0.776235	0.259276	0.305839
H99	H	0.858945	0.260234	0.201085
H100	H	0.775560	0.207045	0.201054
H101	H	0.932956	0.213752	0.357187
H102	H	0.849498	0.160610	0.357039
O103	O	0.623522	0.234070	-0.000138
C104	C	0.633159	0.323075	-0.086630
C105	C	0.593832	0.265370	-0.086576
H106	H	0.609185	0.348392	-0.156519
H107	H	0.609108	0.348471	-0.016859
H108	H	0.710361	0.315063	-0.086581
H109	H	0.516629	0.273330	-0.086661
H110	H	0.617953	0.239993	-0.156342
O111	O	0.505051	-0.076518	0.000129
C112	C	0.537203	-0.179302	0.000074
C113	C	0.576544	-0.121601	0.000047
H114	H	0.594986	-0.215766	-0.000013
H115	H	0.493769	-0.182467	0.069914
H116	H	0.493718	-0.182386	-0.069737
H117	H	0.620069	-0.118477	0.069811
H118	H	0.619926	-0.118461	-0.069839
H119	H	0.358269	-0.018049	0.000088
H120	H	0.921355	-0.081888	0.000067
H121	H	1.296604	-0.386241	0.000061
O122	O	1.230461	-0.219667	0.000115
C123	C	1.393623	-0.226702	0.000080
C124	C	1.303788	-0.186676	0.000043
H125	H	1.452931	-0.200045	0.000000
H126	H	1.397264	-0.254847	0.069919
H127	H	1.397176	-0.254853	-0.069731
H128	H	1.300175	-0.158489	0.069807
H129	H	1.300185	-0.158570	-0.069842
H130	H	1.176102	0.008652	0.247249
O131	O	1.307468	-0.499638	0.000095
C132	C	1.470630	-0.506669	0.000065
C133	C	1.380793	-0.466645	0.000019
H134	H	1.529937	-0.480010	-0.000018
H135	H	1.474271	-0.534809	0.069910
H136	H	1.474187	-0.534824	-0.069741
H137	H	1.377176	-0.438453	0.069777
H138	H	1.377190	-0.438543	-0.069872
O139	O	0.942629	0.154925	0.761060
C140	C	0.785577	0.188131	0.793161
C141	C	0.853441	0.145633	0.735402
H142	H	0.713454	0.180641	0.772422
H143	H	0.796091	0.181490	0.877255
H144	H	0.796953	0.233755	0.772513
H145	H	0.842106	0.099992	0.755966
H146	H	0.842911	0.152323	0.651322
O147	O	1.222319	-0.649257	-0.000016
C148	C	1.385244	-0.668863	0.000052
C149	C	1.294174	-0.694110	0.000078
H150	H	1.443362	-0.705115	0.000149
H151	H	1.389955	-0.641406	-0.069793
H152	H	1.389830	-0.641372	0.069858
H153	H	1.289526	-0.721626	-0.069681
H154	H	1.289502	-0.721535	0.069969
H155	H	0.890760	0.187565	0.404771
H156	H	0.910991	-0.628410	0.000004
H157	H	1.207187	-0.760552	0.000023
H158	H	0.908951	-0.736168	0.000017
O159	O	0.880964	0.193578	0.603527
C160	C	0.723918	0.226787	0.635659
C161	C	0.791772	0.184289	0.577886
H162	H	0.651791	0.219299	0.614934
H163	H	0.734445	0.220145	0.719751
H164	H	0.735294	0.272411	0.615009
H165	H	0.780437	0.138648	0.598453
H166	H	0.781228	0.190980	0.493808
O167	O	1.185786	0.002497	0.760992
C168	C	1.239442	-0.096471	0.793208
C169	C	1.171637	-0.053916	0.735476
H170	H	1.228014	-0.142091	0.772617
H171	H	1.311603	-0.089023	0.772531
H172	H	1.228866	-0.089799	0.877284
H173	H	1.182130	-0.060563	0.651388
H174	H	1.099501	-0.061375	0.756237
O175	O	0.818856	-0.459703	-0.000070
C176	C	0.655933	-0.440087	-0.000044
C177	C	0.747007	-0.414847	0.000007
H178	H	0.597819	-0.403833	0.000039
H179	H	0.651240	-0.467532	-0.069890
H180	H	0.651319	-0.467589	0.069760
H181	H	0.751682	-0.387318	-0.069750
H182	H	0.751661	-0.387434	0.069900
H183	H	0.681121	-0.066179	0.000072
