data_functionalizedCrystal
_audit_creation_method	'MofGen! by Chris Wilmer'
_symmetry_space_group_name_H-M	'P1'
_symmetry_Int_Tables_number	1
_symmetry_cell_setting	triclinic
loop_
_symmetry_equiv_pos_as_xyz
  x,y,z
_cell_length_a	18.215407
_cell_length_b	16.120484
_cell_length_c	18.215399
_cell_angle_alpha	92.869346
_cell_angle_beta	89.980650
_cell_angle_gamma	92.926015
loop_
_atom_site_label
_atom_site_type_symbol
_atom_site_fract_x
_atom_site_fract_y
_atom_site_fract_z
Zn1	Zn	1.110209	-0.331903	-0.430960
Zn2	Zn	1.610209	0.168097	0.069040
Zn3	Zn	1.103877	-0.471325	-0.314129
Zn4	Zn	1.603877	0.028675	0.185871
Zn5	Zn	0.987141	-0.331931	-0.307908
Zn6	Zn	1.487141	0.168069	0.192092
Zn7	Zn	0.980868	-0.471278	-0.437152
Zn8	Zn	1.480868	0.028722	0.062848
O9	O	1.045524	-0.401609	-0.372537
O10	O	1.545524	0.098391	0.127463
O11	O	1.212353	-0.350406	-0.415474
O12	O	1.712353	0.149594	0.084526
O13	O	1.088367	-0.452866	-0.210321
O14	O	1.588367	0.047134	0.289679
O15	O	1.008742	-0.215262	-0.319037
O16	O	1.508742	0.284738	0.180963
O17	O	1.207700	-0.452839	-0.329639
O18	O	1.707700	0.047161	0.170361
O19	O	1.099160	-0.215241	-0.409442
O20	O	1.599160	0.284759	0.090558
O21	O	1.002602	-0.350454	-0.205751
O22	O	1.502602	0.149546	0.294249
O23	O	0.883325	-0.350408	-0.325041
O24	O	1.383325	0.149592	0.174959
O25	O	0.998050	-0.452758	-0.539313
O26	O	1.498050	0.047242	-0.039313
O27	O	0.878716	-0.452785	-0.419995
O28	O	1.378716	0.047215	0.080005
O29	O	1.093076	-0.350360	-0.534764
O30	O	1.593076	0.149640	-0.034764
O31	O	1.082283	-0.587985	-0.335643
O32	O	1.582283	-0.087985	0.164357
O33	O	0.991909	-0.587950	-0.426027
O34	O	1.491909	-0.087950	0.073973
C35	C	0.854318	-0.401595	-0.372515
C36	C	1.354318	0.098405	0.127485
C37	C	0.772519	-0.401609	-0.372524
C38	C	1.272519	0.098391	0.127476
C39	C	0.581940	-0.455001	-0.421912
C40	C	1.081940	0.044999	0.078088
C41	C	0.505081	-0.455003	-0.421921
C42	C	1.005081	0.044997	0.078079
C43	C	0.509859	-0.348233	-0.323179
C44	C	1.009859	0.151767	0.176821
C45	C	0.586716	-0.348227	-0.323174
C46	C	1.086716	0.151773	0.176826
C47	C	0.622755	-0.401615	-0.372539
C48	C	1.122755	0.098385	0.127461
C49	C	0.469038	-0.401624	-0.372554
C50	C	0.969038	0.098376	0.127446
C51	C	0.385705	-0.401627	-0.372564
C52	C	0.885705	0.098373	0.127436
C53	C	0.706094	-0.401612	-0.372531
C54	C	1.206094	0.098388	0.127469
C55	C	1.035748	-0.618218	-0.382198
C56	C	1.535748	-0.118218	0.117802
C57	C	1.031634	-0.710884	-0.386355
C58	C	1.531634	-0.210884	0.113645
C59	C	1.024126	-0.880546	-0.393961
C60	C	1.524126	-0.380546	0.106039
C61	C	1.067053	-0.921833	-0.351125
C62	C	1.567053	-0.421833	0.148875
C63	C	1.062876	-1.016238	-0.355357
C64	C	1.562876	-0.516238	0.144643
C65	C	1.028302	-0.786131	-0.389730
C66	C	1.528302	-0.286131	0.110270
C67	C	1.237476	-0.401624	-0.372559
C68	C	1.737476	0.098376	0.127441
C69	C	1.319274	-0.401631	-0.372569
C70	C	1.819274	0.098369	0.127431
C71	C	1.045570	-0.401550	-0.564487
C72	C	1.545570	0.098450	-0.064487
C73	C	1.045589	-0.401525	-0.646285
C74	C	1.545589	0.098475	-0.146285
C75	C	1.055357	-0.184155	-0.362855
C76	C	1.555357	0.315845	0.137145
C77	C	1.059548	-0.091489	-0.358729
C78	C	1.559548	0.408511	0.141271
C79	C	1.095100	-0.348134	-0.908972
C80	C	1.595100	0.151866	-0.408972
C81	C	1.095090	-0.348157	-0.832114
C82	C	1.595090	0.151843	-0.332114
C83	C	0.996144	-0.454795	-0.836842
C84	C	1.496144	0.045205	-0.336842
C85	C	0.996157	-0.454776	-0.913698
C86	C	1.496157	0.045224	-0.413698
C87	C	1.045635	-0.401441	-0.949761
C88	C	1.545635	0.098559	-0.449761
C89	C	1.045611	-0.401482	-0.796047
C90	C	1.545611	0.098518	-0.296047
C91	C	1.045600	-0.401507	-0.712714
C92	C	1.545600	0.098493	-0.212714
C93	C	1.045647	-0.401417	-1.033099
C94	C	1.545647	0.098583	-0.533099
C95	C	1.045523	-0.401608	-0.181331
C96	C	1.545523	0.098392	0.318669
C97	C	1.045657	-0.401398	-0.099523
C98	C	1.545657	0.098602	0.400477
H99	H	0.471853	-0.498474	-0.462126
H100	H	0.971853	0.001526	0.037874
H101	H	1.106942	-0.886278	-0.311274
H102	H	1.606942	-0.386278	0.188726
H103	H	0.955860	-0.498217	-0.807470
H104	H	1.455860	0.001783	-0.307470
N105	N	0.620808	-0.512582	-0.475156
N106	N	1.120808	-0.012582	0.024844
H107	H	0.608035	-0.499707	-0.527183
H108	H	1.108035	0.000293	-0.027183
H109	H	0.675679	-0.504455	-0.467598
H110	H	1.175679	-0.004455	0.032402
N111	N	0.971286	-0.927638	-0.446737
N112	N	1.471286	-0.427638	0.053263
H113	H	0.919364	-0.912601	-0.434591
H114	H	1.419364	-0.412601	0.065409
H115	H	0.983396	-0.912472	-0.498646
H116	H	1.483396	-0.412472	0.001354
N117	N	1.148460	-0.290610	-0.947871
N118	N	1.648460	0.209390	-0.447871
H119	H	1.179794	-0.256845	-0.910365
H120	H	1.679794	0.243155	-0.410365
H121	H	1.180991	-0.324535	-0.981276
H122	H	1.680991	0.175465	-0.481276
N123	N	0.630737	-0.290633	-0.269923
N124	N	1.130737	0.209367	0.230077
H125	H	0.616763	-0.303502	-0.217895
H126	H	1.116763	0.196498	0.282105
H127	H	0.684881	-0.298749	-0.277475
H128	H	1.184881	0.201251	0.222525
N129	N	1.148444	-0.290665	-0.788120
N130	N	1.648444	0.209335	-0.288120
H131	H	1.179788	-0.256878	-0.822630
H132	H	1.679788	0.243122	-0.322630
H133	H	1.120226	-0.252093	-0.754507
H134	H	1.620226	0.247907	-0.254507
H135	H	0.955876	-0.498189	-0.946910
H136	H	1.455876	0.001811	-0.446910
H137	H	0.480507	-0.304767	-0.282986
H138	H	0.980507	0.195233	0.217014
