data_functionalizedCrystal
_audit_creation_method	'MofGen! by Chris Wilmer'
_symmetry_space_group_name_H-M	'P1'
_symmetry_Int_Tables_number	1
_symmetry_cell_setting	triclinic
loop_
_symmetry_equiv_pos_as_xyz
  x,y,z
_cell_length_a	18.101398
_cell_length_b	29.839131
_cell_length_c	18.101389
_cell_angle_alpha	89.978713
_cell_angle_beta	89.975673
_cell_angle_gamma	90.036686
loop_
_atom_site_label
_atom_site_type_symbol
_atom_site_fract_x
_atom_site_fract_y
_atom_site_fract_z
Zn1	Zn	1.132068	-0.178957	-0.418824
Zn2	Zn	1.465401	0.154376	-0.085491
Zn3	Zn	1.798735	0.487710	0.247843
Zn4	Zn	1.131941	-0.254074	-0.294976
Zn5	Zn	1.465275	0.079259	0.038357
Zn6	Zn	1.798608	0.412593	0.371690
Zn7	Zn	1.008227	-0.178952	-0.294985
Zn8	Zn	1.341560	0.154381	0.038348
Zn9	Zn	1.674893	0.487714	0.371682
Zn10	Zn	1.008155	-0.254055	-0.418765
Zn11	Zn	1.341489	0.079279	-0.085431
Zn12	Zn	1.674822	0.412612	0.247902
O13	O	1.070098	-0.216510	-0.356887
O14	O	1.403431	0.116824	-0.023554
O15	O	1.736765	0.450157	0.309779
O16	O	1.235684	-0.188932	-0.402416
O17	O	1.569017	0.144402	-0.069083
O18	O	1.902351	0.477735	0.264250
O19	O	1.115507	-0.244115	-0.191344
O20	O	1.448841	0.089218	0.141989
O21	O	1.782174	0.422552	0.475322
O22	O	1.024737	-0.116086	-0.311441
O23	O	1.358071	0.217247	0.021892
O24	O	1.691404	0.550581	0.355226
O25	O	1.235591	-0.244119	-0.311426
O26	O	1.568924	0.089214	0.021907
O27	O	1.902258	0.422547	0.355241
O28	O	1.115723	-0.116089	-0.402425
O29	O	1.449056	0.217244	-0.069092
O30	O	1.782390	0.550577	0.264242
O31	O	1.024615	-0.188924	-0.191351
O32	O	1.357948	0.144410	0.141982
O33	O	1.691282	0.477743	0.475316
O34	O	0.904584	-0.188905	-0.311384
O35	O	1.237918	0.144428	0.021950
O36	O	1.571251	0.477762	0.355283
O37	O	1.024615	-0.244087	-0.522406
O38	O	1.357949	0.089247	-0.189072
O39	O	1.691282	0.422580	0.144261
O40	O	0.904532	-0.244082	-0.402324
O41	O	1.237865	0.089251	-0.068991
O42	O	1.571199	0.422584	0.264343
O43	O	1.115654	-0.188913	-0.522449
O44	O	1.448987	0.144420	-0.189116
O45	O	1.782320	0.477754	0.144218
O46	O	1.115438	-0.316938	-0.311369
O47	O	1.448771	0.016395	0.021965
O48	O	1.782105	0.349728	0.355298
O49	O	1.024493	-0.316924	-0.402315
O50	O	1.357826	0.016409	-0.068982
O51	O	1.691160	0.349742	0.264351
C52	C	0.877687	-0.216491	-0.356849
C53	C	1.211021	0.116842	-0.023516
C54	C	1.544354	0.450175	0.309818
C55	C	0.795373	-0.216494	-0.356850
C56	C	1.128707	0.116839	-0.023517
C57	C	1.462040	0.450172	0.309817
C58	C	1.069964	-0.333232	-0.356851
C59	C	1.403297	0.000101	-0.023517
C60	C	1.736631	0.333435	0.309816
C61	C	1.069975	-0.383167	-0.356860
C62	C	1.403308	-0.049833	-0.023526
C63	C	1.736641	0.283500	0.309807
C64	C	0.496282	-0.216522	-0.356912
C65	C	0.829616	0.116811	-0.023579
C66	C	1.162949	0.450144	0.309755
C67	C	0.527616	-0.181633	-0.299974
C68	C	0.860949	0.151700	0.033359
C69	C	1.194283	0.485034	0.366693
C70	C	0.613234	-0.181726	-0.299731
C71	C	0.946567	0.151607	0.033602
C72	C	1.279901	0.484940	0.366936
C73	C	0.644665	-0.216508	-0.356881
C74	C	0.977998	0.116825	-0.023548
C75	C	1.311331	0.450159	0.309785
C76	C	0.613533	-0.263830	-0.335553
C77	C	0.946866	0.069503	-0.002219
C78	C	1.280199	0.402836	0.331114
C79	C	0.527888	-0.263636	-0.335157
C80	C	0.861221	0.069697	-0.001824
C81	C	1.194554	0.403030	0.331510
C82	C	0.527900	-0.204501	-0.435313
C83	C	0.861234	0.128832	-0.101979
C84	C	1.194567	0.462166	0.231354
C85	C	0.613552	-0.203447	-0.434885
C86	C	0.946885	0.129886	-0.101551
C87	C	1.280218	0.463219	0.231782
C88	C	0.728524	-0.216503	-0.356865
C89	C	1.061858	0.116830	-0.023532
C90	C	1.395191	0.450164	0.309802
C91	C	0.412423	-0.216531	-0.356926
C92	C	0.745756	0.116803	-0.023593
C93	C	1.079089	0.450136	0.309740
C94	C	1.117539	-0.692805	-0.309601
C95	C	1.450872	-0.359471	0.023733
C96	C	1.784206	-0.026138	0.357066
C97	C	1.117631	-0.880478	-0.309629
C98	C	1.450964	-0.547144	0.023704
C99	C	1.784297	-0.213811	0.357037
O100	O	1.157965	-0.904738	-0.269420
O101	O	1.491299	-0.571405	0.063914
O102	O	1.824632	-0.238071	0.397247
N103	N	1.070251	-0.903952	-0.356943
N104	N	1.403585	-0.570618	-0.023610
N105	N	1.736918	-0.237285	0.309723
C106	C	1.022849	-0.880504	-0.404257
C107	C	1.356183	-0.547171	-0.070924
C108	C	1.689516	-0.213838	0.262410
O109	O	0.982558	-0.904777	-0.444506
O110	O	1.315891	-0.571443	-0.111173
O111	O	1.649225	-0.238110	0.222160
C112	C	1.022762	-0.692832	-0.404231
C113	C	1.356096	-0.359499	-0.070898
C114	C	1.689429	-0.026166	0.262435
C115	C	1.070139	-0.669361	-0.356909
C116	C	1.403473	-0.336027	-0.023576
C117	C	1.736806	-0.002694	0.309758
C118	C	1.164913	-0.669333	-0.262283
C119	C	1.498246	-0.336000	0.071051
C120	C	1.831579	-0.002666	0.404384
C121	C	1.164887	-0.622418	-0.262273
C122	C	1.498220	-0.289084	0.071060
C123	C	1.831553	0.044249	0.404394
C124	C	1.117487	-0.598974	-0.309582
C125	C	1.450820	-0.265640	0.023752
C126	C	1.784153	0.067693	0.357085
C127	C	1.070113	-0.622445	-0.356899
C128	C	1.403446	-0.289112	-0.023566
C129	C	1.736780	0.044221	0.309767
C130	C	0.975365	-0.669386	-0.451548
C131	C	1.308698	-0.336052	-0.118215
C132	C	1.642031	-0.002719	0.215119
C133	C	0.975348	-0.622465	-0.451539
C134	C	1.308682	-0.289131	-0.118206
C135	C	1.642015	0.044202	0.215128
C136	C	1.022725	-0.598993	-0.404217
C137	C	1.356059	-0.265660	-0.070883
C138	C	1.689392	0.067673	0.262450
C139	C	1.022687	-0.552086	-0.404198
C140	C	1.356020	-0.218753	-0.070865
C141	C	1.689354	0.114581	0.262468
N142	N	1.070066	-0.528612	-0.356884
N143	N	1.403400	-0.195279	-0.023551
N144	N	1.736733	0.138055	0.309782
C145	C	1.117466	-0.552056	-0.309576
C146	C	1.450799	-0.218723	0.023757
C147	C	1.784133	0.114611	0.357091
C148	C	1.022898	-0.979035	-0.404266
C149	C	1.356231	-0.645702	-0.070933
C150	C	1.689564	-0.312368	0.262401
C151	C	1.022918	-1.025953	-0.404272
C152	C	1.356252	-0.692619	-0.070938
C153	C	1.689585	-0.359286	0.262395
C154	C	1.117700	-1.025923	-0.309645
C155	C	1.451034	-0.692590	0.023689
C156	C	1.784367	-0.359256	0.357022
C157	C	1.117675	-0.979004	-0.309636
C158	C	1.451009	-0.645671	0.023697
C159	C	1.784342	-0.312338	0.357031
C160	C	1.070277	-0.955561	-0.356952
C161	C	1.403610	-0.622228	-0.023619
C162	C	1.736943	-0.288894	0.309715
C163	C	1.117407	-0.453530	-0.309559
C164	C	1.450740	-0.120197	0.023774
C165	C	1.784074	0.213137	0.357108
C166	C	1.117374	-0.406610	-0.309551
C167	C	1.450708	-0.073277	0.023782
C168	C	1.784041	0.260056	0.357115
C169	C	1.022595	-0.406645	-0.404181
C170	C	1.355929	-0.073311	-0.070847
C171	C	1.689262	0.260022	0.262486
C172	C	1.022625	-0.453560	-0.404186
C173	C	1.355958	-0.120227	-0.070852
C174	C	1.689291	0.213107	0.262481
C175	C	1.070037	-0.477002	-0.356872
C176	C	1.403370	-0.143668	-0.023539
C177	C	1.736703	0.189665	0.309794
O178	O	0.982379	-0.527797	-0.444393
O179	O	1.315713	-0.194463	-0.111059
O180	O	1.649046	0.138870	0.222274
O181	O	1.157763	-0.527776	-0.269344
O182	O	1.491096	-0.194442	0.063989
O183	O	1.824430	0.138891	0.397323
C184	C	1.117565	-0.739720	-0.309610
C185	C	1.450899	-0.406387	0.023723
C186	C	1.784232	-0.073053	0.357056
C187	C	1.070192	-0.763192	-0.356928
C188	C	1.403525	-0.429858	-0.023595
C189	C	1.736858	-0.096525	0.309739
C190	C	1.022792	-0.739748	-0.404236
C191	C	1.356125	-0.406414	-0.070903
C192	C	1.689458	-0.073081	0.262430
C193	C	1.070212	-0.810109	-0.356934
C194	C	1.403546	-0.476776	-0.023600
C195	C	1.736879	-0.143443	0.309733
C196	C	1.117612	-0.833553	-0.309625
C197	C	1.450946	-0.500220	0.023708
C198	C	1.784279	-0.166887	0.357041
C199	C	1.164991	-0.810079	-0.262311
C200	C	1.498325	-0.476746	0.071022
C201	C	1.831658	-0.143413	0.404355
C202	C	1.164965	-0.763164	-0.262302
C203	C	1.498298	-0.429831	0.071031
C204	C	1.831632	-0.096497	0.404365
C205	C	0.975413	-0.763222	-0.451550
C206	C	1.308746	-0.429888	-0.118217
C207	C	1.642079	-0.096555	0.215116
C208	C	0.975442	-0.810137	-0.451556
C209	C	1.308775	-0.476804	-0.118222
C210	C	1.642109	-0.143470	0.215111
C211	C	1.022842	-0.833581	-0.404247
C212	C	1.356175	-0.500248	-0.070914
C213	C	1.689509	-0.166914	0.262419
C214	C	1.263260	-0.216528	-0.356927
C215	C	1.596593	0.116805	-0.023593
C216	C	1.929926	0.450138	0.309740
C217	C	1.345574	-0.216536	-0.356943
C218	C	1.678907	0.116797	-0.023610
C219	C	2.012240	0.450131	0.309723
C220	C	1.070141	-0.216498	-0.550049
C221	C	1.403474	0.116835	-0.216716
C222	C	1.736807	0.450168	0.116617
C223	C	1.070159	-0.216493	-0.632364
C224	C	1.403492	0.116840	-0.299030
C225	C	1.736826	0.450173	0.034303
C226	C	1.070252	-0.099331	-0.356941
C227	C	1.403586	0.234002	-0.023607
C228	C	1.736919	0.567335	0.309726
C229	C	1.070318	-0.049397	-0.356963
C230	C	1.403651	0.283937	-0.023630
C231	C	1.736985	0.617270	0.309703
C232	C	1.070202	-0.216409	-0.931455
C233	C	1.403535	0.116924	-0.598121
C234	C	1.736869	0.450258	-0.264788
C235	C	1.012726	-0.251013	-0.900102
C236	C	1.346060	0.082321	-0.566769
C237	C	1.679393	0.415654	-0.233436
C238	C	1.012881	-0.251173	-0.814484
C239	C	1.346215	0.082160	-0.481151
C240	C	1.679548	0.415494	-0.147817
C241	C	1.070180	-0.216451	-0.783072
C242	C	1.403513	0.116882	-0.449739
C243	C	1.736847	0.450216	-0.116405
C244	C	1.148202	-0.229306	-0.814177
C245	C	1.481535	0.104028	-0.480843
C246	C	1.814868	0.437361	-0.147510
C247	C	1.147881	-0.229533	-0.899822
C248	C	1.481215	0.103800	-0.566488
C249	C	1.814548	0.437134	-0.233155
C250	C	1.050335	-0.168874	-0.899883
C251	C	1.383668	0.164459	-0.566550
C252	C	1.717001	0.497793	-0.233216
C253	C	1.048599	-0.169148	-0.814232
C254	C	1.381932	0.164185	-0.480899
C255	C	1.715265	0.497518	-0.147565
C256	C	1.070172	-0.216474	-0.699213
C257	C	1.403506	0.116860	-0.365879
C258	C	1.736839	0.450193	-0.032546
C259	C	1.070215	-0.216387	-1.015314
C260	C	1.403548	0.116946	-0.681981
C261	C	1.736882	0.450279	-0.348648
C262	C	1.070098	-0.216488	-0.164477
C263	C	1.403431	0.116845	0.168856
C264	C	1.736765	0.450178	0.502190
C265	C	1.070223	-0.216367	-0.082163
C266	C	1.403557	0.116967	0.251170
C267	C	1.736890	0.450300	0.584503
H268	H	0.634285	-0.146635	-0.313101
H269	H	0.967618	0.186699	0.020233
H270	H	1.300952	0.520032	0.353566
H271	H	1.092198	-0.143093	-0.920161
H272	H	1.425531	0.190241	-0.586828
H273	H	1.758864	0.523574	-0.253494
Br274	Br	0.647328	-0.194967	-0.202902
Br275	Br	0.980661	0.138366	0.130431
Br276	Br	1.313994	0.471700	0.463764
Br277	Br	0.911079	-0.731412	-0.515763
Br278	Br	1.244412	-0.398079	-0.182430
Br279	Br	1.577746	-0.064746	0.150904
H280	H	0.955025	-0.243128	-0.793452
H281	H	1.288358	0.090205	-0.460119
H282	H	1.621692	0.423538	-0.126785
H283	H	0.991182	-0.159454	-0.793901
H284	H	1.324515	0.173879	-0.460568
H285	H	1.657848	0.507212	-0.127234
Br286	Br	0.915998	-0.237740	-0.934404
Br287	Br	1.249331	0.095593	-0.601071
Br288	Br	1.582665	0.428927	-0.267737
H289	H	0.633889	-0.290522	-0.375726
H290	H	0.967223	0.042812	-0.042392
H291	H	1.300556	0.376145	0.290941
Br292	Br	1.176767	-0.286607	-0.778436
Br293	Br	1.510100	0.046726	-0.445102
Br294	Br	1.843434	0.380059	-0.111769
Br295	Br	1.229268	-0.731317	-0.198077
Br296	Br	1.562601	-0.397984	0.135256
Br297	Br	1.895934	-0.064650	0.468590
H298	H	1.156295	-1.045019	-0.271125
H299	H	1.489629	-0.711686	0.062209
H300	H	1.822962	-0.378352	0.395542
H301	H	0.633906	-0.168623	-0.450967
H302	H	0.967239	0.164710	-0.117634
H303	H	1.300573	0.498043	0.215700
Br304	Br	1.175956	-0.287450	-0.933128
Br305	Br	1.509289	0.045884	-0.599795
Br306	Br	1.842622	0.379217	-0.266462
Br307	Br	0.957157	-0.149355	-0.935859
Br308	Br	1.290490	0.183979	-0.602526
Br309	Br	1.623824	0.517312	-0.269193
Br310	Br	0.911136	-0.841985	-0.515783
Br311	Br	1.244470	-0.508652	-0.182450
Br312	Br	1.577803	-0.175319	0.150884
H313	H	1.156016	-0.472611	-0.271034
H314	H	1.489349	-0.139277	0.062300
H315	H	1.822683	0.194056	0.395633
Br316	Br	0.494524	-0.280629	-0.239629
Br317	Br	0.827857	0.052704	0.093704
Br318	Br	1.161190	0.386038	0.427038
H319	H	0.984332	-1.045059	-0.442799
H320	H	1.317666	-0.711726	-0.109466
H321	H	1.650999	-0.378393	0.223867
H322	H	1.203584	-0.829176	-0.223789
H323	H	1.536917	-0.495842	0.109544
H324	H	1.870251	-0.162509	0.442878
H325	H	1.087408	-0.141998	-0.792850
H326	H	1.420741	0.191335	-0.459517
H327	H	1.754074	0.524669	-0.126183
Br328	Br	0.649216	-0.281121	-0.241056
Br329	Br	0.982549	0.052212	0.092278
Br330	Br	1.315883	0.385546	0.425611
H331	H	0.984298	-0.959951	-0.442797
H332	H	1.317631	-0.626617	-0.109464
H333	H	1.650965	-0.293284	0.223869
Br334	Br	0.493331	-0.308431	-0.401257
Br335	Br	0.826665	0.024903	-0.067924
Br336	Br	1.159998	0.358236	0.265409
H337	H	0.634950	-0.227008	-0.479581
H338	H	0.968283	0.106326	-0.146248
H339	H	1.301616	0.439659	0.187085
H340	H	0.936782	-0.688488	-0.490080
H341	H	1.270115	-0.355155	-0.156746
H342	H	1.603448	-0.021822	0.176587
Br343	Br	0.911021	-0.590652	-0.515760
Br344	Br	1.244354	-0.257319	-0.182427
Br345	Br	1.577687	0.076015	0.150907
Br346	Br	0.491966	-0.147987	-0.467632
Br347	Br	0.825299	0.185346	-0.134299
Br348	Br	1.158633	0.518679	0.199035
Br349	Br	0.493351	-0.122963	-0.322009
Br350	Br	0.826684	0.210371	0.011324
Br351	Br	1.160017	0.543704	0.344657
Br352	Br	1.034317	-0.309374	-0.936035
Br353	Br	1.367650	0.023959	-0.602702
Br354	Br	1.700984	0.357292	-0.269369
H355	H	0.507636	-0.229913	-0.477737
H356	H	0.840970	0.103420	-0.144403
H357	H	1.174303	0.436753	0.188930
Br358	Br	1.181675	-0.374759	-0.245322
Br359	Br	1.515008	-0.041426	0.088011
Br360	Br	1.848341	0.291908	0.421344
H361	H	1.203467	-0.603310	-0.223741
H362	H	1.536800	-0.269977	0.109592
H363	H	1.870134	0.063357	0.442925
Br364	Br	0.491679	-0.194716	-0.203712
Br365	Br	0.825012	0.138617	0.129621
Br366	Br	1.158345	0.471950	0.462955
H367	H	1.203515	-0.688416	-0.223758
H368	H	1.536849	-0.355083	0.109575
H369	H	1.870182	-0.021750	0.442908
Br370	Br	1.181974	-0.947155	-0.245410
Br371	Br	1.515307	-0.613822	0.087923
Br372	Br	1.848641	-0.280488	0.421256
Br373	Br	0.958309	-0.485415	-0.468391
Br374	Br	1.291643	-0.152082	-0.135058
Br375	Br	1.624976	0.181251	0.198275
H376	H	0.984001	-0.387549	-0.442696
H377	H	1.317334	-0.054216	-0.109363
H378	H	1.650667	0.279118	0.223970
H379	H	1.025997	-0.286408	-0.793999
H380	H	1.359330	0.046926	-0.460665
H381	H	1.692663	0.380259	-0.127332
Br382	Br	1.221629	-0.189321	-0.934399
Br383	Br	1.554962	0.144012	-0.601065
Br384	Br	1.888296	0.477346	-0.267732
Br385	Br	1.221497	-0.188619	-0.780275
Br386	Br	1.554831	0.144714	-0.446942
Br387	Br	1.888164	0.478048	-0.113608
