data_functionalizedCrystal
_audit_creation_method	'MofGen! by Chris Wilmer'
_symmetry_space_group_name_H-M	'P1'
_symmetry_Int_Tables_number	1
_symmetry_cell_setting	triclinic
loop_
_symmetry_equiv_pos_as_xyz
  x,y,z
_cell_length_a	16.959455
_cell_length_b	18.101395
_cell_length_c	16.959447
_cell_angle_alpha	89.970532
_cell_angle_beta	89.985678
_cell_angle_gamma	90.028051
loop_
_atom_site_label
_atom_site_type_symbol
_atom_site_fract_x
_atom_site_fract_y
_atom_site_fract_z
Zn1	Zn	1.208323	-0.294875	-0.446913
Zn2	Zn	1.708323	0.205125	0.053087
Zn3	Zn	1.208220	-0.418728	-0.314737
Zn4	Zn	1.708220	0.081272	0.185263
Zn5	Zn	1.076152	-0.294899	-0.314751
Zn6	Zn	1.576152	0.205101	0.185249
Zn7	Zn	1.076091	-0.418673	-0.446875
Zn8	Zn	1.576091	0.081327	0.053125
O9	O	1.142196	-0.356794	-0.380819
O10	O	1.642196	0.143206	0.119181
O11	O	1.318920	-0.311318	-0.429390
O12	O	1.818920	0.188682	0.070610
O13	O	1.190683	-0.402335	-0.204128
O14	O	1.690683	0.097665	0.295872
O15	O	1.093753	-0.191263	-0.332304
O16	O	1.593753	0.308737	0.167696
O17	O	1.318845	-0.402312	-0.332280
O18	O	1.818845	0.097688	0.167720
O19	O	1.190859	-0.191246	-0.429404
O20	O	1.690859	0.308754	0.070596
O21	O	1.093653	-0.311358	-0.204138
O22	O	1.593653	0.188642	0.295862
O23	O	0.965533	-0.311304	-0.332267
O24	O	1.465533	0.188696	0.167733
O25	O	1.093649	-0.402218	-0.557491
O26	O	1.593649	0.097782	-0.057491
O27	O	0.965488	-0.402241	-0.429339
O28	O	1.465488	0.097759	0.070661
O29	O	1.190800	-0.311264	-0.557519
O30	O	1.690800	0.188736	-0.057519
O31	O	1.190624	-0.522354	-0.332243
O32	O	1.690624	-0.022354	0.167757
O33	O	1.093550	-0.522313	-0.429325
O34	O	1.593550	-0.022313	0.070675
C35	C	0.936830	-0.356769	-0.380801
C36	C	1.436830	0.143231	0.119199
C37	C	0.848974	-0.356777	-0.380812
C38	C	1.348974	0.143223	0.119188
C39	C	1.142091	-0.549204	-0.380796
C40	C	1.642091	-0.049204	0.119204
C41	C	1.142118	-0.631518	-0.380812
C42	C	1.642118	-0.131518	0.119188
C43	C	0.477497	-0.309404	-0.330380
C44	C	0.977497	0.190596	0.169620
C45	C	0.477499	-0.404244	-0.431304
C46	C	0.977499	0.095756	0.068696
C47	C	0.560045	-0.404234	-0.431299
C48	C	1.060045	0.095766	0.068701
C49	C	0.601321	-0.356808	-0.380833
C50	C	1.101321	0.143192	0.119167
C51	C	0.560050	-0.309394	-0.330372
C52	C	1.060050	0.190606	0.169628
C53	C	0.601321	-0.451653	-0.481754
C54	C	1.101321	0.048347	0.018246
C55	C	0.683872	-0.451644	-0.481750
C56	C	1.183872	0.048356	0.018250
C57	C	0.725150	-0.404215	-0.431287
C58	C	1.225150	0.095785	0.068713
C59	C	0.683874	-0.356798	-0.380825
C60	C	1.183874	0.143202	0.119175
C61	C	0.725150	-0.309373	-0.330359
C62	C	1.225150	0.190627	0.169641
C63	C	0.683876	-0.261951	-0.279899
C64	C	1.183876	0.238049	0.220101
C65	C	0.601327	-0.261964	-0.279909
C66	C	1.101327	0.238036	0.220091
C67	C	0.807698	-0.404202	-0.431278
C68	C	1.307698	0.095798	0.068722
C69	C	0.807703	-0.309362	-0.330351
C70	C	1.307703	0.190638	0.169649
C71	C	1.142291	-0.930609	-0.380855
C72	C	1.642291	-0.430609	0.119145
C73	C	1.081356	-0.899289	-0.442088
C74	C	1.581356	-0.399289	0.057912
C75	C	1.081066	-0.813671	-0.441896
C76	C	1.581066	-0.313671	0.058104
C77	C	1.142205	-0.782227	-0.380834
C78	C	1.642205	-0.282227	0.119166
C79	C	1.119658	-0.813380	-0.297530
C80	C	1.619658	-0.313380	0.202470
C81	C	1.119266	-0.899025	-0.297896
C82	C	1.619266	-0.399025	0.202104
C83	C	1.225907	-0.898956	-0.402193
C84	C	1.725907	-0.398956	0.097807
C85	C	1.225415	-0.813305	-0.404020
C86	C	1.725415	-0.313305	0.095980
C87	C	1.142158	-0.698367	-0.380818
C88	C	1.642158	-0.198367	0.119182
C89	C	1.142337	-1.014469	-0.380866
C90	C	1.642337	-0.514469	0.119134
C91	C	1.348365	-0.356819	-0.380838
C92	C	1.848365	0.143181	0.119162
C93	C	1.436221	-0.356830	-0.380846
C94	C	1.936221	0.143170	0.119154
C95	C	1.142229	-0.356732	-0.586987
C96	C	1.642229	0.143268	-0.086987
C97	C	1.142243	-0.356706	-0.674844
C98	C	1.642243	0.143294	-0.174844
C99	C	1.142324	-0.163632	-0.380860
C100	C	1.642324	0.336368	0.119140
C101	C	1.142379	-0.081318	-0.380877
C102	C	1.642379	0.418682	0.119123
C103	C	1.091756	-0.403984	-1.046308
C104	C	1.591756	0.096016	-0.546308
C105	C	1.192920	-0.309273	-1.046332
C106	C	1.692920	0.190727	-0.546332
C107	C	1.192899	-0.309289	-0.963786
C108	C	1.692899	0.190711	-0.463786
C109	C	1.142306	-0.356653	-0.922497
C110	C	1.642306	0.143347	-0.422497
C111	C	1.091735	-0.404002	-0.963754
C112	C	1.591735	0.095998	-0.463754
C113	C	1.243475	-0.261946	-0.922523
C114	C	1.743475	0.238054	-0.422523
C115	C	1.243456	-0.261960	-0.839972
C116	C	1.743456	0.238040	-0.339972
C117	C	1.192859	-0.309322	-0.798681
C118	C	1.692859	0.190678	-0.298681
C119	C	1.142285	-0.356672	-0.839944
C120	C	1.642285	0.143328	-0.339944
C121	C	1.091693	-0.404037	-0.798655
C122	C	1.591693	0.095963	-0.298655
C123	C	1.041115	-0.451384	-0.839915
C124	C	1.541115	0.048616	-0.339915
C125	C	1.041138	-0.451364	-0.922464
C126	C	1.541138	0.048636	-0.422464
C127	C	1.192836	-0.309342	-0.716133
C128	C	1.692836	0.190658	-0.216133
C129	C	1.091672	-0.404055	-0.716101
C130	C	1.591672	0.095945	-0.216101
C131	C	1.142209	-0.356801	-0.175453
C132	C	1.642209	0.143199	0.324547
C133	C	1.142348	-0.356619	-0.087597
C134	C	1.642348	0.143381	0.412403
H135	H	0.841304	-0.270738	-0.289259
H136	H	1.341304	0.229262	0.210741
Br137	Br	1.261479	-0.245098	-0.660139
Br138	Br	1.761479	0.254902	-0.160139
H139	H	0.999962	-0.489914	-0.956066
H140	H	1.499962	0.010086	-0.456066
Br141	Br	0.863710	-0.468560	-0.499745
Br142	Br	1.363710	0.031440	0.000255
Br143	Br	1.104575	-0.778556	-0.544850
Br144	Br	1.604575	-0.278556	-0.044850
Br145	Br	1.104627	-0.933535	-0.545379
Br146	Br	1.604627	-0.433535	-0.045379
Br147	Br	1.023001	-0.468333	-0.660072
Br148	Br	1.523001	0.031667	-0.160072
H149	H	0.999926	-0.489951	-0.806287
H150	H	1.499926	0.010049	-0.306287
H151	H	1.019755	-0.920873	-0.428131
H152	H	1.519755	-0.420873	0.071869
Br153	Br	0.977764	-0.779620	-0.418344
Br154	Br	1.477764	-0.279620	0.081656
H155	H	1.234114	-0.270715	-1.079954
H156	H	1.734114	0.229285	-0.579954
H157	H	0.717493	-0.223341	-0.238806
H158	H	1.217493	0.276659	0.261194
H159	H	0.443888	-0.270793	-0.289299
H160	H	0.943888	0.229207	0.210701
Br161	Br	0.545309	-0.197612	-0.211436
Br162	Br	1.045309	0.302388	0.288564
H163	H	0.567709	-0.490269	-0.522835
H164	H	1.067709	0.009731	-0.022835
H165	H	1.284669	-0.223389	-0.956146
H166	H	1.784669	0.276611	-0.456146
Br167	Br	1.191304	-0.779440	-0.219411
Br168	Br	1.691304	-0.279440	0.280589
H169	H	1.271306	-0.919210	-0.357595
H170	H	1.771306	-0.419210	0.142405
Br171	Br	0.421482	-0.468623	-0.499770
Br172	Br	0.921482	0.031377	0.000230
Br173	Br	1.312095	-0.197704	-0.783982
Br174	Br	1.812095	0.302296	-0.283982
H175	H	0.717471	-0.490257	-0.522838
H176	H	1.217471	0.009743	-0.022838
H177	H	1.058143	-0.919066	-0.279821
H178	H	1.558143	-0.419066	0.220179
Br179	Br	1.253758	-0.779367	-0.506205
Br180	Br	1.753758	-0.279367	-0.006205
Br181	Br	1.190021	-0.933567	-0.219258
Br182	Br	1.690021	-0.433567	0.280742
H183	H	1.059184	-0.791993	-0.279130
H184	H	1.559184	-0.291993	0.220870
Br185	Br	1.260172	-0.934869	-0.501714
Br186	Br	1.760172	-0.434869	-0.001714
H187	H	1.273216	-0.791897	-0.362672
H188	H	1.773216	-0.291897	0.137328
H189	H	1.050574	-0.442530	-1.079906
H190	H	1.550574	0.057470	-0.579906
