data_functionalizedCrystal
_audit_creation_method	'MofGen! by Chris Wilmer'
_symmetry_space_group_name_H-M	'P1'
_symmetry_Int_Tables_number	1
_symmetry_cell_setting	triclinic
loop_
_symmetry_equiv_pos_as_xyz
  x,y,z
_cell_length_a	14.853566
_cell_length_b	11.792240
_cell_length_c	13.930277
_cell_angle_alpha	89.986115
_cell_angle_beta	90.004369
_cell_angle_gamma	96.086084
loop_
_atom_site_label
_atom_site_type_symbol
_atom_site_fract_x
_atom_site_fract_y
_atom_site_fract_z
O1	O	1.196946	-0.148174	0.079788
O2	O	0.934555	-0.165828	0.079806
O3	O	1.072118	0.008209	0.079767
O4	O	1.059383	-0.322211	0.079827
O5	O	1.072099	0.008213	-0.079894
O6	O	0.934536	-0.165824	-0.079856
O7	O	1.196927	-0.148171	-0.079874
Zn8	Zn	1.065728	-0.156997	-0.105215
Zn9	Zn	1.065754	-0.157002	0.105147
O10	O	1.059364	-0.322207	-0.079835
C11	C	0.900954	-0.165026	-0.000023
C12	C	0.800861	-0.162630	-0.000017
C13	C	0.377647	-0.152497	0.086996
C14	C	0.377647	-0.152494	-0.087074
C15	C	0.471690	-0.154744	-0.087070
C16	C	0.518715	-0.155872	-0.000033
C17	C	0.471698	-0.154751	0.087002
C18	C	0.518713	-0.155877	-0.174103
C19	C	0.612762	-0.158129	-0.174103
C20	C	0.659790	-0.159249	-0.087065
C21	C	0.612766	-0.158126	-0.000027
C22	C	0.659792	-0.159255	0.087011
C23	C	0.612771	-0.158124	0.174050
C24	C	0.518726	-0.155871	0.174041
C25	C	0.753835	-0.161502	-0.087055
C26	C	0.753843	-0.161509	0.087017
C27	C	1.071308	0.050497	-0.000069
C28	C	1.068914	0.176496	-0.000085
C29	C	1.064511	0.407181	-0.000100
C30	C	1.066958	0.278811	-0.000091
C31	C	1.230528	-0.148972	-0.000043
C32	C	1.330621	-0.151368	-0.000042
N33	N	1.065718	-0.156993	-0.248781
C34	C	1.060173	0.635505	-0.000031
C35	C	1.062568	0.509506	-0.000110
C36	C	1.004838	-0.234035	-0.701033
C37	C	1.126694	-0.079960	-0.701036
C38	C	1.126683	-0.079956	-0.600541
C39	C	1.065750	-0.156994	-0.550286
C40	C	1.004827	-0.234036	-0.600528
C41	C	1.187610	-0.002924	-0.550292
C42	C	1.187603	-0.002918	-0.449790
C43	C	1.126665	-0.079951	-0.399534
C44	C	1.065739	-0.156995	-0.449781
C45	C	1.004806	-0.234033	-0.399527
C46	C	0.943875	-0.311073	-0.449773
C47	C	0.943889	-0.311069	-0.550272
C48	C	1.126651	-0.079955	-0.299035
C49	C	1.004795	-0.234034	-0.299022
N50	N	1.065771	-0.156997	0.248713
H51	H	0.651071	-0.159050	0.244916
H52	H	0.792114	-0.162434	-0.157921
H53	H	1.176308	-0.017243	-0.741957
H54	H	0.955172	-0.296764	-0.258111
Cl55	Cl	0.459591	-0.154472	-0.283514
Cl56	Cl	0.928240	-0.330876	-0.764193
Cl57	Cl	0.867282	-0.407924	-0.386585
Cl58	Cl	0.318542	-0.151042	0.196410
Cl59	Cl	1.264215	0.093913	-0.613466
H60	H	1.237215	0.059812	-0.408886
Cl61	Cl	0.812954	-0.162918	0.196443
H62	H	0.339353	-0.151583	-0.157936
H63	H	0.894282	-0.373793	-0.591188
Cl64	Cl	0.459613	-0.154406	0.283450
Cl65	Cl	1.203249	0.016881	-0.235875
Cl66	Cl	0.671865	-0.159547	-0.283521
