data_functionalizedCrystal
_audit_creation_method	'MofGen! by Chris Wilmer'
_symmetry_space_group_name_H-M	'P1'
_symmetry_Int_Tables_number	1
_symmetry_cell_setting	triclinic
loop_
_symmetry_equiv_pos_as_xyz
  x,y,z
_cell_length_a	13.034570
_cell_length_b	13.033409
_cell_length_c	19.076919
_cell_angle_alpha	99.740970
_cell_angle_beta	99.729175
_cell_angle_gamma	74.859526
loop_
_atom_site_label
_atom_site_type_symbol
_atom_site_fract_x
_atom_site_fract_y
_atom_site_fract_z
Zn1	Zn	-0.645161	1.660849	-0.310860
Zn2	Zn	-0.817154	1.688872	-0.205501
Zn3	Zn	-0.617092	1.488837	-0.205519
Zn4	Zn	-0.801576	1.504348	-0.337639
O5	O	-0.720246	1.585727	-0.264879
O6	O	-0.686243	1.813778	-0.285669
O7	O	-0.785388	1.667574	-0.106117
O8	O	-0.471628	1.493436	-0.208293
O9	O	-0.812606	1.834366	-0.208262
O10	O	-0.492250	1.619812	-0.285687
O11	O	-0.638403	1.520609	-0.106131
O12	O	-0.623297	1.341683	-0.234259
O13	O	-0.786055	1.519872	-0.433472
O14	O	-0.758837	1.353079	-0.331327
O15	O	-0.671137	1.634852	-0.413798
O16	O	-0.964275	1.682614	-0.234228
O17	O	-0.952830	1.547045	-0.331310
C18	C	-0.686332	1.308693	-0.285702
C19	C	-0.671849	1.190178	-0.294628
C20	C	-0.712844	1.025025	-0.269461
C21	C	-0.727816	1.147516	-0.260232
C22	C	-0.997239	1.619581	-0.285686
C23	C	-1.115751	1.634161	-0.294604
C24	C	-1.280957	1.593260	-0.269461
C25	C	-1.158469	1.578190	-0.260248
C26	C	-0.442175	1.551768	-0.244005
C27	C	-0.323678	1.537297	-0.235109
C28	C	-0.729989	1.575966	-0.450125
C29	C	-0.734142	1.571807	-0.529066
C30	C	-0.754293	1.863843	-0.243977
C31	C	-0.768802	1.982359	-0.235069
C32	C	-0.676264	1.629714	-0.555911
C33	C	-0.680159	1.625793	-0.630085
C34	C	-0.741940	1.563969	-0.677412
C35	C	-0.799819	1.506055	-0.650563
C36	C	-0.795917	1.509972	-0.576391
C37	C	-0.760021	1.545832	-0.900344
C38	C	-0.763921	1.541923	-0.974521
C39	C	-0.644259	1.661659	-0.954037
C40	C	-0.640367	1.665575	-0.879864
C41	C	-0.698243	1.607656	-0.853021
N42	N	-0.745926	1.559962	-0.753230
N43	N	-0.694250	1.611658	-0.777205
C44	C	-0.710471	1.595501	-0.080344
C45	C	-0.706043	1.599830	-0.001366
H46	H	-0.827800	1.036516	-0.198796
H47	H	-1.335064	1.652331	-0.305688
H48	H	-1.104367	1.519123	-0.224012
C49	C	-1.188826	1.713967	-0.343553
C50	C	-1.188044	1.833619	-0.327567
C51	C	-1.261117	1.913425	-0.376516
C52	C	-1.334973	1.873578	-0.441450
C53	C	-1.335759	1.753920	-0.457439
C54	C	-1.262686	1.674115	-0.408491
H55	H	-1.133368	1.863121	-0.279496
H56	H	-1.260535	2.002003	-0.364680
H57	H	-1.389067	1.932655	-0.477685
H58	H	-1.390434	1.724418	-0.505510
H59	H	-1.263268	1.585536	-0.420327
C60	C	-0.572393	1.733567	-0.827805
C61	C	-0.568094	1.737871	-0.746218
C62	C	-0.500118	1.805863	-0.694159
C63	C	-0.436441	1.869551	-0.723687
C64	C	-0.440737	1.865249	-0.805278
C65	C	-0.508713	1.797257	-0.857337
H66	H	-0.615234	1.690724	-0.724356
H67	H	-0.496938	1.809047	-0.633760
H68	H	-0.386121	1.919883	-0.685150
H69	H	-0.393597	1.912397	-0.827140
H70	H	-0.511893	1.794073	-0.917737
C71	C	-1.250595	1.457497	-0.186163
C72	C	-1.176738	1.497348	-0.121231
C73	C	-1.103657	1.417545	-0.072283
C74	C	-1.104434	1.297892	-0.088267
C75	C	-1.178294	1.258035	-0.153202
C76	C	-1.251374	1.337837	-0.202150
H77	H	-1.176160	1.585928	-0.109395
H78	H	-1.048981	1.447051	-0.024213
H79	H	-1.050335	1.238817	-0.052033
H80	H	-1.178871	1.169455	-0.165038
H81	H	-1.306050	1.308332	-0.250220
C82	C	-0.580591	1.725356	-0.983566
C83	C	-0.639712	1.812019	-1.031739
C84	C	-0.576036	1.875715	-1.061268
C85	C	-0.453239	1.852749	-1.042624
C86	C	-0.394111	1.766082	-0.994448
C87	C	-0.457787	1.702386	-0.964920
H88	H	-0.730620	1.829023	-1.045543
H89	H	-0.619808	1.939871	-1.096930
H90	H	-0.406103	1.899901	-1.064482
H91	H	-0.303203	1.749078	-0.980644
H92	H	-0.414015	1.638230	-0.929257
C93	C	-0.831883	1.473925	-1.026596
C94	C	-0.923913	1.527688	-1.080393
C95	C	-0.991874	1.459704	-1.132474
C96	C	-0.967807	1.337959	-1.130757
C97	C	-0.875774	1.284189	-1.076957
C98	C	-0.807812	1.352173	-1.024877
H99	H	-0.941733	1.617817	-1.081666
H100	H	-1.060004	1.499508	-1.172300
H101	H	-1.018117	1.287633	-1.169310
H102	H	-0.857954	1.194060	-1.075685
H103	H	-0.739682	1.312369	-0.985051
C104	C	-0.608304	1.697722	-0.503853
C105	C	-0.516267	1.643990	-0.450048
C106	C	-0.448302	1.711997	-0.397992
C107	C	-0.472375	1.833736	-0.399741
C108	C	-0.564416	1.887474	-0.453548
C109	C	-0.632381	1.819467	-0.505604
H110	H	-0.498443	1.553866	-0.448751
H111	H	-0.380167	1.672216	-0.358160
H112	H	-0.422063	1.884078	-0.361206
H113	H	-0.582240	1.977598	-0.454845
H114	H	-0.700516	1.859248	-0.545436
H115	H	-0.633032	1.672950	-0.651937
C116	C	-0.823689	1.482113	-0.870839
C117	C	-0.800674	1.359300	-0.889516
C118	C	-0.864346	1.295569	-0.860017
C119	C	-0.951034	1.354650	-0.811841
C120	C	-0.974054	1.477470	-0.793161
C121	C	-0.910382	1.541201	-0.822661
H122	H	-0.736498	1.315558	-0.925182
H123	H	-0.847305	1.204649	-0.873845
H124	H	-0.998169	1.307473	-0.790004
H125	H	-1.038230	1.521212	-0.757496
H126	H	-0.927423	1.632121	-0.808832
H127	H	-0.850118	1.455713	-0.689104
C128	C	-0.859587	1.446279	-0.546855
C129	C	-0.836586	1.323463	-0.565503
C130	C	-0.900253	1.259766	-0.535968
C131	C	-0.986921	1.318884	-0.487784
C132	C	-1.009926	1.441708	-0.469134
C133	C	-0.946258	1.505405	-0.498669
H134	H	-0.772426	1.279694	-0.601174
H135	H	-0.883223	1.168844	-0.549775
H136	H	-1.034051	1.271732	-0.465920
H137	H	-1.074086	1.485477	-0.433463
H138	H	-0.963288	1.596327	-0.484862
H139	H	-0.653857	0.970870	-0.305741
H140	H	-0.612856	1.136027	-0.330910
H141	H	-0.786817	1.201670	-0.223957
