data_functionalizedCrystal
_audit_creation_method	'MofGen! by Chris Wilmer'
_symmetry_space_group_name_H-M	'P1'
_symmetry_Int_Tables_number	1
_symmetry_cell_setting	triclinic
loop_
_symmetry_equiv_pos_as_xyz
  x,y,z
_cell_length_a	19.288864
_cell_length_b	15.944551
_cell_length_c	17.766277
_cell_angle_alpha	89.992686
_cell_angle_beta	89.976791
_cell_angle_gamma	83.317492
loop_
_atom_site_label
_atom_site_type_symbol
_atom_site_fract_x
_atom_site_fract_y
_atom_site_fract_z
O1	O	0.921629	0.104784	-0.062837
O2	O	1.421629	0.604784	0.437163
O3	O	0.719406	0.118919	-0.062786
O4	O	1.219406	0.618919	0.437214
O5	O	0.826040	-0.010445	-0.062806
O6	O	1.326040	0.489555	0.437194
O7	O	0.814995	0.234147	-0.062817
O8	O	1.314995	0.734147	0.437183
O9	O	0.826021	-0.010451	0.062382
O10	O	1.326021	0.489549	0.562382
O11	O	0.719387	0.118912	0.062403
O12	O	1.219387	0.618912	0.562403
O13	O	0.921610	0.104777	0.062351
O14	O	1.421610	0.604777	0.562351
Cu15	Cu	0.820497	0.111844	0.073808
Cu16	Cu	1.320497	0.611844	0.573808
Cu17	Cu	0.820519	0.111852	-0.074242
Cu18	Cu	1.320519	0.611852	0.425758
O19	O	0.814976	0.234141	0.062372
O20	O	1.314976	0.734141	0.562372
C21	C	0.693519	0.118461	-0.000185
C22	C	1.193519	0.618461	0.499815
C23	C	0.616411	0.117095	-0.000165
C24	C	1.116411	0.617095	0.499835
C25	C	0.571915	0.193000	-0.000181
C26	C	1.071915	0.693000	0.499819
C27	C	0.499465	0.191717	-0.000189
C28	C	0.999465	0.691717	0.499811
C29	C	0.471514	0.114526	-0.000197
C30	C	0.971514	0.614526	0.499803
C31	C	0.516020	0.038611	-0.000178
C32	C	1.016020	0.538611	0.499822
C33	C	0.588469	0.039896	-0.000162
C34	C	1.088469	0.539896	0.499838
C35	C	0.363099	0.053847	-0.044079
C36	C	0.863099	0.553847	0.455921
C37	C	0.290651	0.052565	-0.044099
C38	C	0.790651	0.552565	0.455901
C39	C	0.248058	0.110560	-0.000242
C40	C	0.748058	0.610560	0.499758
C41	C	0.277920	0.169850	0.043625
C42	C	0.777920	0.669850	0.543625
C43	C	0.350369	0.171135	0.043641
C44	C	0.850369	0.671135	0.543641
C45	C	0.392956	0.113124	-0.000214
C46	C	0.892956	0.613124	0.499786
C47	C	0.125002	0.185079	-0.000265
C48	C	0.625002	0.685079	0.499735
C49	C	0.052550	0.183793	-0.000269
C50	C	0.552550	0.683793	0.499731
C51	C	0.069107	0.030684	-0.000265
C52	C	0.569107	0.530684	0.499735
C53	C	0.141557	0.031972	-0.000254
C54	C	0.641557	0.531972	0.499746
C55	C	0.169500	0.109172	-0.000258
C56	C	0.669500	0.609172	0.499742
C57	C	0.825572	-0.041740	-0.000212
C58	C	1.325572	0.458260	0.499788
C59	C	0.824197	-0.134981	-0.000211
C60	C	1.324197	0.365019	0.499789
C61	C	0.754815	-0.349571	-0.000204
C62	C	1.254815	0.150429	0.499796
C63	C	0.787024	-0.410715	0.061514
C64	C	1.287024	0.089285	0.561514
C65	C	0.821710	-0.305697	-0.000216
C66	C	1.321710	0.194303	0.499784
C67	C	0.787059	-0.410692	-0.061912
C68	C	1.287059	0.089308	0.438088
C69	C	0.819303	-0.470601	-0.000224
C70	C	1.319303	0.029399	0.499776
C71	C	0.853938	-0.365614	0.061552
C72	C	1.353938	0.134386	0.561552
C73	C	0.853963	-0.365585	-0.061929
C74	C	1.353963	0.134415	0.438071
C75	C	0.886222	-0.426712	-0.000197
C76	C	1.386222	0.073288	0.499803
C77	C	0.823095	-0.210700	-0.000211
C78	C	1.323095	0.289300	0.499789
C79	C	0.817924	-0.565597	-0.000224
C80	C	1.317924	-0.065597	0.499776
C81	C	0.947497	0.105235	-0.000251
C82	C	1.447497	0.605235	0.499749
C83	C	1.024605	0.106600	-0.000276
C84	C	1.524605	0.606600	0.499724
C85	C	0.815444	0.265436	-0.000225
C86	C	1.315444	0.765436	0.499775
C87	C	0.816819	0.358677	-0.000230
C88	C	1.316819	0.858677	0.499770
N89	N	0.820486	0.111838	0.177938
N90	N	1.320486	0.611838	0.677938
N91	N	0.820535	0.111851	-0.178373
N92	N	1.320535	0.611851	0.321627
C93	C	0.867719	0.054584	0.217316
C94	C	1.367719	0.554584	0.717316
C95	C	0.867723	0.054580	0.296118
C96	C	1.367723	0.554580	0.796118
C97	C	0.820501	0.111845	0.335539
C98	C	1.320501	0.611845	0.835539
C99	C	0.773259	0.169103	0.296151
C100	C	1.273259	0.669103	0.796151
C101	C	0.773252	0.169100	0.217351
C102	C	1.273252	0.669100	0.717351
C103	C	0.811404	0.188378	0.460375
C104	C	1.311404	0.688378	0.960375
C105	C	0.811416	0.188382	0.539173
C106	C	1.311416	0.688382	1.039173
C107	C	0.820520	0.111855	0.578585
C108	C	1.320520	0.611855	1.078585
C109	C	0.829626	0.035319	0.539188
C110	C	1.329626	0.535319	1.039188
C111	C	0.829618	0.035316	0.460387
C112	C	1.329618	0.535316	0.960387
C113	C	0.820503	0.111854	0.420984
C114	C	1.320503	0.611854	0.920984
C115	C	0.867759	0.054592	0.703409
C116	C	1.367759	0.554592	1.203409
C117	C	0.867759	0.054587	0.782212
C118	C	1.367759	0.554587	1.282212
C119	C	0.773298	0.169117	0.782244
C120	C	1.273298	0.669117	1.282244
C121	C	0.773295	0.169115	0.703442
C122	C	1.273295	0.669115	1.203442
C123	C	0.820530	0.111853	0.664029
C124	C	1.320530	0.611853	1.164029
H125	H	0.594661	0.255862	-0.000185
H126	H	1.094661	0.755862	0.499815
C127	C	0.801389	0.272570	0.417030
C128	C	1.301389	0.772570	0.917030
N129	N	0.793846	0.335981	0.384384
N130	N	1.293846	0.835981	0.884384
H131	H	0.177787	-0.029838	-0.000246
H132	H	0.677787	0.470162	0.499754
H133	H	0.804006	0.250702	0.571244
H134	H	1.304006	0.750702	1.071244
H135	H	0.734788	0.215724	0.185289
H136	H	1.234788	0.715724	0.685289
H137	H	0.734846	0.215740	0.814340
H138	H	1.234846	0.715740	1.314340
C139	C	0.231073	0.233647	0.091875
C140	C	0.731073	0.733647	0.591875
N141	N	0.195785	0.281698	0.128214
N142	N	0.695785	0.781698	0.628214
H143	H	0.941797	-0.460084	-0.000176
H144	H	1.441797	0.039916	0.499824
H145	H	0.758722	-0.430717	0.113705
H146	H	1.258722	0.069283	0.613705
C147	C	0.892165	-0.338529	-0.132442
C148	C	1.392165	0.161471	0.367558
N149	N	0.920933	-0.318148	-0.185558
N150	N	1.420933	0.181852	0.314442
H151	H	0.882201	-0.345735	0.113786
H152	H	1.382201	0.154265	0.613786
H153	H	0.758764	-0.430657	-0.114093
H154	H	1.258764	0.069343	0.385907
C155	C	0.485273	-0.046300	-0.000187
C156	C	0.985273	0.453700	0.499813
N157	N	0.462114	-0.110258	-0.000193
N158	N	0.962114	0.389742	0.499807
C159	C	0.721312	0.232091	0.339516
C160	C	1.221312	0.732091	0.839516
N161	N	0.682181	0.279533	0.372178
N162	N	1.182181	0.779533	0.872178
C163	C	0.919672	-0.008414	0.173966
C164	C	1.419672	0.491586	0.673966
N165	N	0.958801	-0.055868	0.141314
N166	N	1.458801	0.444132	0.641314
C167	C	0.257810	-0.012660	-0.092349
C168	C	0.757810	0.487340	0.407651
N169	N	0.233076	-0.061792	-0.128689
N170	N	0.733076	0.438208	0.371311
C171	C	0.839639	-0.048868	0.582534
C172	C	1.339639	0.451132	1.082534
N173	N	0.847181	-0.112276	0.615186
N174	N	1.347181	0.387724	1.115186
H175	H	0.906187	0.007955	0.328185
H176	H	1.406187	0.507955	0.828185
C177	C	0.839626	-0.048871	0.417054
C178	C	1.339626	0.451129	0.917054
N179	N	0.847159	-0.112282	0.384415
N180	N	1.347159	0.387718	0.884415
C181	C	0.409944	-0.009953	-0.092331
C182	C	0.909944	0.490047	0.407669
N183	N	0.445227	-0.058004	-0.128675
N184	N	0.945227	0.441996	0.371325
H185	H	0.734837	0.215740	0.671378
H186	H	1.234837	0.715740	1.171378
H187	H	0.463229	0.253530	-0.000199
H188	H	0.963229	0.753530	0.499801
H189	H	0.906219	0.007963	0.671318
H190	H	1.406219	0.507963	1.171318
C191	C	0.383216	0.236345	0.091902
C192	C	0.883216	0.736345	0.591902
N193	N	0.407956	0.285459	0.128257
N194	N	0.907956	0.785459	0.628257
C195	C	0.919710	-0.008415	0.825528
C196	C	1.419710	0.491585	1.325528
N197	N	0.958837	-0.055873	0.858153
N198	N	1.458837	0.444127	1.358153
H199	H	0.147754	0.247939	-0.000257
H200	H	0.647754	0.747939	0.499743
H201	H	0.016321	0.245606	-0.000277
H202	H	0.516321	0.745606	0.499723
H203	H	0.624699	-0.021917	-0.000150
H204	H	1.124699	0.478083	0.499850
C205	C	0.038366	-0.054228	-0.000273
C206	C	0.538366	0.445772	0.499727
N207	N	0.015208	-0.118186	-0.000278
N208	N	0.515208	0.381814	0.499722
H209	H	0.699288	-0.316049	-0.000128
H210	H	1.199288	0.183951	0.499872
