data_functionalizedCrystal
_audit_creation_method	'MofGen! by Chris Wilmer'
_symmetry_space_group_name_H-M	'P1'
_symmetry_Int_Tables_number	1
_symmetry_cell_setting	triclinic
loop_
_symmetry_equiv_pos_as_xyz
  x,y,z
_cell_length_a	10.489741
_cell_length_b	10.489711
_cell_length_c	16.053802
_cell_angle_alpha	87.391283
_cell_angle_beta	87.404587
_cell_angle_gamma	95.466909
loop_
_atom_site_label
_atom_site_type_symbol
_atom_site_fract_x
_atom_site_fract_y
_atom_site_fract_z
O1	O	-0.174464	1.699410	-0.069453
O2	O	-0.191397	1.328209	-0.069447
O3	O	0.002669	1.522256	-0.069452
O4	O	-0.368529	1.505363	-0.069448
O5	O	-0.007969	1.511575	0.069407
O6	O	-0.202034	1.317527	0.069412
O7	O	-0.185101	1.688728	0.069407
Zn8	Zn	-0.195257	1.501432	0.091456
Zn9	Zn	-0.181241	1.515505	-0.091497
O10	O	-0.379166	1.494681	0.069412
C11	C	-0.195444	1.275336	-0.000017
C12	C	-0.191643	1.133704	-0.000015
C13	C	-0.308347	0.951318	-0.000023
C14	C	-0.244806	1.048730	-0.068487
C15	C	-0.255263	1.038172	0.068417
C16	C	-0.121258	0.978784	-0.068554
C17	C	-0.131737	0.968212	0.068412
C18	C	-0.068105	1.065598	-0.000069
C19	C	-0.421379	1.501298	-0.000018
C20	C	-0.563008	1.505115	-0.000016
C21	C	-0.631135	1.628582	-0.000025
C22	C	-0.728507	1.564991	0.068440
C23	C	-0.717997	1.575493	-0.068464
C24	C	-0.658519	1.441469	0.068505
C25	C	-0.647995	1.451993	-0.068461
C26	C	-0.745341	1.388311	0.000021
C27	C	0.044882	1.515639	-0.000024
C28	C	0.186511	1.511823	-0.000031
C29	C	-0.181053	1.741601	-0.000025
C30	C	-0.184855	1.883233	-0.000033
N31	N	-0.204821	1.491837	0.216317
N32	N	-0.171667	1.525110	-0.216357
C33	C	-0.122276	1.574435	0.260009
C34	C	-0.128978	1.567735	0.347416
C35	C	-0.218233	1.478442	0.391129
C36	C	-0.300782	1.395835	0.347431
C37	C	-0.294072	1.402530	0.260026
C38	C	-0.247506	1.449198	0.652540
C39	C	-0.254212	1.442512	0.739951
C40	C	-0.082406	1.614411	0.739929
C41	C	-0.075709	1.621103	0.652522
C42	C	-0.158253	1.538492	0.608832
N43	N	-0.225089	1.471594	0.480473
N44	N	-0.151390	1.545334	0.519490
H45	H	-0.083962	0.932737	0.126296
N46	N	-0.810848	1.253730	0.000074
H47	H	-0.861578	1.244051	-0.051639
H48	H	-0.744163	1.190352	0.000622
H49	H	-0.361288	1.335268	0.224453
N50	N	-0.753139	1.650617	-0.145137
H51	H	-0.722467	1.608873	-0.196845
H52	H	-0.849307	1.651935	-0.144789
H53	H	-0.311970	1.064676	0.126299
H54	H	-0.612524	1.404247	-0.126345
N55	N	-0.046231	0.943899	-0.145318
H56	H	0.044261	0.986587	-0.145555
H57	H	-0.044215	0.847800	-0.144821
H58	H	-0.581481	1.730091	0.000042
N59	N	-0.442777	0.885482	-0.000114
H60	H	-0.460309	0.826822	0.051612
H61	H	-0.506260	0.952070	-0.000712
N62	N	-0.775469	1.628286	0.145106
H63	H	-0.733528	1.719049	0.145054
H64	H	-0.871596	1.629550	0.144756
H65	H	-0.049600	1.647152	0.224423
H66	H	-0.061763	1.634992	0.382989
H67	H	-0.003031	1.693812	0.616933
N68	N	-0.308126	1.095661	-0.145168
H69	H	-0.398873	1.053680	-0.145122
H70	H	-0.309433	1.191785	-0.144843
H71	H	-0.632131	1.384812	0.126451
H72	H	-0.015201	1.681668	0.775510
H73	H	-0.326899	1.369796	0.775539
N74	N	0.066466	1.131127	-0.000129
H75	H	0.063102	1.226997	0.000363
H76	H	0.109506	1.100510	0.051080
H77	H	-0.314719	1.381935	0.616974
H78	H	-0.373451	1.323125	0.383028
