data_functionalizedCrystal
_audit_creation_method	'MofGen! by Chris Wilmer'
_symmetry_space_group_name_H-M	'P1'
_symmetry_Int_Tables_number	1
_symmetry_cell_setting	triclinic
loop_
_symmetry_equiv_pos_as_xyz
  x,y,z
_cell_length_a	29.999520
_cell_length_b	29.998686
_cell_length_c	29.995014
_cell_angle_alpha	60.005185
_cell_angle_beta	60.010401
_cell_angle_gamma	59.993433
loop_
_atom_site_label
_atom_site_type_symbol
_atom_site_fract_x
_atom_site_fract_y
_atom_site_fract_z
O1	O	0.061772	-0.651300	0.544623
O2	O	0.023267	-0.507084	0.438819
O3	O	0.114589	-0.598332	0.438743
O4	O	-0.029550	-0.560051	0.544699
O5	O	0.144886	-0.568039	0.468961
O6	O	0.053564	-0.476791	0.469038
O7	O	0.092069	-0.621007	0.574841
Zn8	Zn	0.077627	-0.544089	0.526737
Zn9	Zn	0.037709	-0.584002	0.486923
O10	O	0.000748	-0.529758	0.574918
N11	N	0.104871	-0.516854	0.553912
N12	N	0.010470	-0.611242	0.459748
C13	C	0.143162	-0.478782	0.827124
C14	C	0.378203	-0.478734	0.591892
C15	C	0.143005	-0.478752	0.591997
C16	C	0.142986	-0.243586	0.592008
C17	C	0.180857	-0.357087	0.629814
C18	C	0.180866	-0.440920	0.629807
C19	C	0.201840	-0.419964	0.650755
C20	C	0.293272	-0.404201	0.602606
C21	C	0.350426	-0.423248	0.583534
C22	C	0.350451	-0.515727	0.618798
C23	C	0.293297	-0.496678	0.637872
C24	C	0.194628	-0.328499	0.573626
C25	C	0.175551	-0.271340	0.554591
C26	C	0.128936	-0.271362	0.647935
C27	C	0.148014	-0.328521	0.666970
C28	C	0.124672	-0.427119	0.643641
C29	C	0.105611	-0.446170	0.624592
C30	C	0.198934	-0.492820	0.577889
C31	C	0.217998	-0.473770	0.596931
C32	C	0.124740	-0.427136	0.742229
C33	C	0.105728	-0.446202	0.799386
C34	C	0.199085	-0.492863	0.799337
C35	C	0.218096	-0.473798	0.742178
C36	C	0.180923	-0.440933	0.713626
C37	C	0.264710	-0.440915	0.629773
C38	C	0.121509	-0.499370	0.889991
C39	C	0.441068	-0.498953	0.570621
C40	C	0.121297	-0.499349	0.571429
C41	C	0.121653	-0.180715	0.571802
C42	C	-0.111071	-0.648912	0.421584
C43	C	-0.027286	-0.649018	0.421777
C44	C	-0.048200	-0.669944	0.400740
C45	C	-0.064036	-0.761340	0.448814
C46	C	-0.045033	-0.818500	0.467893
C47	C	0.047447	-0.818609	0.432797
C48	C	0.028444	-0.761451	0.413717
C49	C	-0.139731	-0.662677	0.477755
C50	C	-0.196885	-0.643554	0.496701
C51	C	-0.196717	-0.596907	0.403303
C52	C	-0.139562	-0.616030	0.384357
C53	C	-0.041053	-0.592827	0.407952
C54	C	-0.022041	-0.573809	0.427083
C55	C	0.024504	-0.667167	0.473848
C56	C	0.005492	-0.686188	0.454725
C57	C	-0.040886	-0.592836	0.309259
C58	C	-0.021740	-0.573821	0.252102
C59	C	0.024886	-0.667185	0.252163
C60	C	0.005743	-0.686199	0.309322
C61	C	-0.027145	-0.649023	0.337868
C62	C	-0.027299	-0.732818	0.421728
N63	N	0.492511	-0.516826	0.553742
O64	O	0.679283	-0.525926	0.419277
O65	O	0.679465	-0.632059	0.563349
O66	O	0.679393	-0.631817	0.471975
O67	O	0.679355	-0.526168	0.510650
O68	O	0.588593	-0.601610	0.502313
O69	O	0.588665	-0.601852	0.593686
O70	O	0.588483	-0.495720	0.449614
Zn71	Zn	0.574158	-0.543990	0.526467
Zn72	Zn	0.693790	-0.583788	0.486496
O73	O	0.588555	-0.495962	0.540987
N74	N	0.775436	-0.610952	0.459215
N75	N	0.104844	-0.129269	0.553931
O76	O	-0.029548	0.057600	0.544709
O77	O	0.114530	0.057617	0.438578
O78	O	0.023130	0.057594	0.438850
O79	O	0.061852	0.057623	0.544437
O80	O	0.053431	-0.033213	0.469115
O81	O	0.144831	-0.033190	0.468843
O82	O	0.000753	-0.033207	0.574974
Zn83	Zn	0.077603	-0.047616	0.526714
Zn84	Zn	0.037680	0.072026	0.486838
O85	O	0.092153	-0.033184	0.574702
N86	N	0.010432	0.153679	0.459622
N87	N	0.105130	-0.516904	0.941437
O88	O	0.095923	-0.651280	1.128292
O89	O	-0.010184	-0.507155	1.128318
O90	O	-0.009938	-0.598539	1.128284
O91	O	0.095677	-0.559897	1.128326
O92	O	0.020315	-0.568257	1.037481
O93	O	0.020068	-0.476874	1.037515
O94	O	0.126176	-0.620999	1.037489
Zn95	Zn	0.077925	-0.544128	1.023085
Zn96	Zn	0.038066	-0.584026	1.142722
O97	O	0.125929	-0.529616	1.037523
N98	N	0.010860	-0.611256	1.224371
C99	C	0.034807	-0.473765	0.439352
C100	C	0.147897	-0.586765	0.439257
C101	C	0.080529	-0.654326	0.574308
C102	C	-0.032561	-0.541326	0.574403
C103	C	0.634087	-0.631571	0.596668
C104	C	0.633999	-0.631272	0.483513
C105	C	0.633858	-0.496206	0.416295
C106	C	0.633949	-0.496507	0.529449
C107	C	0.147793	0.012327	0.439058
C108	C	0.034644	0.012187	0.439432
C109	C	-0.032548	0.012195	0.574457
C110	C	0.080639	0.012222	0.574120
C111	C	-0.009670	-0.473857	1.082920
C112	C	-0.009359	-0.587018	1.082860
C113	C	0.125662	-0.654297	1.082887
C114	C	0.125358	-0.541129	1.082927
H115	H	0.059977	-0.434960	0.822668
C116	C	-0.088445	0.012191	0.619472
C117	C	-0.109189	-0.034970	0.640996
C118	C	-0.165086	-0.034974	0.686011
C119	C	-0.200238	0.012182	0.709501
C120	C	-0.179494	0.059347	0.687976
C121	C	-0.123597	0.059351	0.642961
H122	H	-0.083167	-0.069881	0.623608
H123	H	-0.180442	-0.069889	0.701945
H124	H	-0.241616	0.012179	0.742823
H125	H	-0.205516	0.094258	0.705364
H126	H	-0.108241	0.094266	0.627028
H127	H	0.026351	0.012184	0.406260
H128	H	0.634015	-0.664461	0.475235
H129	H	0.088756	-0.695753	0.607538
C130	C	-0.054166	-0.598162	1.082790
C131	C	-0.077627	-0.562796	1.035609
C132	C	-0.122434	-0.573939	1.035538
C133	C	-0.143781	-0.620450	1.082650
C134	C	-0.120321	-0.655819	1.129835
C135	C	-0.075513	-0.644675	1.129905
H136	H	-0.061824	-0.528363	1.000731
H137	H	-0.139801	-0.547756	1.000609
H138	H	-0.176950	-0.628699	1.082598
H139	H	-0.136123	-0.690251	1.164712
H140	H	-0.058147	-0.670859	1.164834
H141	H	0.088930	0.012231	0.607291
C142	C	0.170669	-0.710215	1.082878
C143	C	0.225585	-0.713932	1.035729
C144	C	0.270592	-0.769849	1.035720
C145	C	0.260682	-0.822049	1.082859
C146	C	0.205763	-0.818334	1.130011
C147	C	0.160756	-0.762417	1.130021
H148	H	0.232923	-0.675288	1.000831
H149	H	0.311246	-0.772599	1.000814
H150	H	0.293998	-0.863443	1.082852
H151	H	0.198425	-0.856977	1.164909
H152	H	0.120102	-0.759667	1.164926
C153	C	0.170186	-0.529965	1.082935
C154	C	0.159009	-0.473969	1.082949
C155	C	0.203837	-0.462804	1.082957
C156	C	0.259842	-0.507636	1.082951
C157	C	0.271020	-0.563635	1.082937
C158	C	0.226192	-0.574800	1.082929
H159	H	0.117550	-0.440779	1.082954
H160	H	0.195562	-0.421350	1.082968
H161	H	0.293026	-0.499371	1.082957
H162	H	0.312480	-0.596825	1.082933
H163	H	0.234468	-0.616255	1.082919
H164	H	-0.220220	-0.654760	0.542443
H165	H	0.094465	-0.400370	0.718985
C166	C	0.633932	-0.451668	0.540625
C167	C	0.681042	-0.428137	0.505261
C168	C	0.681025	-0.383298	0.516436
C169	C	0.633897	-0.361991	0.562976
C170	C	0.586783	-0.385522	0.598343
C171	C	0.586801	-0.430361	0.587167
H172	H	0.715932	-0.443910	0.470806
H173	H	0.715902	-0.365879	0.490254
H174	H	0.633885	-0.328799	0.571248
H175	H	0.551893	-0.369749	0.632797
H176	H	0.551924	-0.447780	0.613349
H177	H	-0.073962	-0.533167	0.607674
C178	C	0.203573	0.012678	0.393929
C179	C	0.214404	0.012843	0.337966
C180	C	0.270184	0.013193	0.292837
C181	C	0.315134	0.013379	0.303670
C182	C	0.304305	0.013214	0.359635
C183	C	0.248524	0.012863	0.404765
H184	H	0.181128	0.012705	0.329944
H185	H	0.278200	0.013315	0.251407
H186	H	0.356426	0.013638	0.270263
H187	H	0.337581	0.013351	0.367657
H188	H	0.240508	0.012741	0.446194
H189	H	-0.042983	-0.432464	1.082928
H190	H	0.229358	-0.519614	0.822579
H191	H	0.263847	-0.485039	0.718893
H192	H	0.016937	-0.731954	0.332612
H193	H	0.094434	-0.400372	0.670409
H194	H	0.059853	-0.434921	0.635844
H195	H	-0.067739	-0.562558	0.381123
H196	H	0.634133	-0.664888	0.638048
C197	C	0.239780	-0.528953	0.541724
C198	C	0.301591	-0.544129	0.526511
C199	C	0.342439	-0.580259	0.490342
C200	C	0.321476	-0.601214	0.469386
C201	C	0.259662	-0.586039	0.484599
C202	C	0.218814	-0.549908	0.520768
H203	H	0.317112	-0.528616	0.542024
H204	H	0.388198	-0.591492	0.479081
H205	H	0.351714	-0.627959	0.442612
H206	H	0.244142	-0.601551	0.469086
H207	H	0.173055	-0.538675	0.532030
C208	C	0.633782	-0.451188	0.360401
C209	C	0.633752	-0.462098	0.315410
C210	C	0.633676	-0.417080	0.259515
C211	C	0.633630	-0.361152	0.248611
C212	C	0.633660	-0.350239	0.293604
C213	C	0.633736	-0.395257	0.349498
H214	H	0.633787	-0.503502	0.323480
H215	H	0.633654	-0.425159	0.226209
H216	H	0.633574	-0.327826	0.207235
H217	H	0.633625	-0.308835	0.285533
H218	H	0.633758	-0.387179	0.382805
H219	H	0.263756	-0.485001	0.585661
H220	H	0.270043	-0.526578	0.659994
H221	H	0.373680	-0.393351	0.561411
C222	C	0.381904	-0.577068	0.627700
C223	C	0.374088	-0.618634	0.686021
C224	C	0.405541	-0.679973	0.694924
C225	C	0.444811	-0.699747	0.645506
C226	C	0.452629	-0.658180	0.587181
C227	C	0.421175	-0.596841	0.578278
H228	H	0.345016	-0.603997	0.722607
H229	H	0.399753	-0.710743	0.738100
H230	H	0.468094	-0.745154	0.652096
H231	H	0.481700	-0.672817	0.550595
H232	H	0.426963	-0.566070	0.535102
C233	C	0.261828	-0.342861	0.593699
C234	C	0.222559	-0.323082	0.643114
C235	C	0.191115	-0.261741	0.634206
C236	C	0.198939	-0.220178	0.575884
C237	C	0.238209	-0.239956	0.526465
C238	C	0.269654	-0.301297	0.535373
H239	H	0.216766	-0.353850	0.686291
H240	H	0.162044	-0.247100	0.670790
H241	H	0.175661	-0.174770	0.569290
H242	H	0.244002	-0.209188	0.483288
H243	H	0.298724	-0.315938	0.498789
C244	C	0.230752	-0.359926	0.532757
C245	C	0.288782	-0.399213	0.532986
C246	C	0.324906	-0.430640	0.492116
C247	C	0.303000	-0.422779	0.451018
C248	C	0.244968	-0.383491	0.450787
C249	C	0.208844	-0.352064	0.491657
H250	H	0.305000	-0.405033	0.563411
H251	H	0.367866	-0.459724	0.492287
H252	H	0.329742	-0.446043	0.420764
H253	H	0.228749	-0.377671	0.420362
H254	H	0.165884	-0.322980	0.491486
H255	H	0.102202	-0.248101	0.678192
C256	C	0.190698	-0.239889	0.492780
C257	C	0.226827	-0.271311	0.451909
C258	C	0.241976	-0.239860	0.390099
C259	C	0.220996	-0.176988	0.369160
C260	C	0.184865	-0.145562	0.410032
C261	C	0.169716	-0.177013	0.471842
H262	H	0.242360	-0.317856	0.467409
H263	H	0.268724	-0.263124	0.359843
H264	H	0.232211	-0.153706	0.323404
H265	H	0.169332	-0.099017	0.394532
H266	H	0.142969	-0.153749	0.502097
H267	H	0.136793	-0.351798	0.712725
H268	H	-0.067667	-0.562559	0.332499
C269	C	-0.036867	-0.512010	0.220639
C270	C	-0.020262	-0.476155	0.228563
C271	C	-0.035388	-0.414345	0.197099
C272	C	-0.067119	-0.388390	0.157711
C273	C	-0.083725	-0.424246	0.149785
C274	C	-0.068599	-0.486055	0.181249
H275	H	0.003228	-0.495368	0.257722
H276	H	-0.023095	-0.387803	0.202966
H277	H	-0.078316	-0.342635	0.134419
H278	H	-0.107216	-0.405032	0.120626
H279	H	-0.080893	-0.512598	0.175382
H280	H	0.026581	-0.432337	0.406123
H281	H	-0.033252	-0.528055	0.415829
C282	C	0.060576	-0.708064	0.510072
C283	C	0.118595	-0.707876	0.491188
C284	C	0.154673	-0.748778	0.527406
C285	C	0.132733	-0.789868	0.582509
C286	C	0.074711	-0.790058	0.601396
C287	C	0.038633	-0.749156	0.565178
H288	H	0.134839	-0.677457	0.450395
H289	H	0.197625	-0.748637	0.513425
H290	H	0.159440	-0.820147	0.609321
H291	H	0.058467	-0.820477	0.642189
H292	H	-0.004319	-0.749297	0.579159
C293	C	0.068856	-0.730075	0.383923
C294	C	0.103518	-0.737969	0.413255
C295	C	0.143931	-0.706593	0.383460
C296	C	0.149682	-0.667323	0.324332
C297	C	0.115020	-0.659428	0.294997
C298	C	0.074607	-0.690804	0.324792
H299	H	0.099261	-0.767040	0.457028
H300	H	0.169590	-0.712438	0.405177
H301	H	0.179598	-0.644097	0.302276
H302	H	0.119277	-0.630357	0.251224
H303	H	0.048948	-0.684959	0.303075
C304	C	0.108765	-0.850112	0.423990
C305	C	0.128449	-0.889414	0.473465
C306	C	0.189765	-0.920916	0.464658
C307	C	0.231397	-0.913116	0.406375
C308	C	0.211714	-0.873812	0.356895
C309	C	0.150397	-0.842309	0.365703
H310	H	0.097630	-0.895190	0.516614
H311	H	0.204336	-0.950012	0.501286
H312	H	0.276787	-0.936436	0.399855
H313	H	0.242533	-0.868036	0.313747
H314	H	0.135827	-0.813214	0.329075
C315	C	-0.085439	-0.849884	0.497707
C316	C	-0.079003	-0.889184	0.474484
C317	C	-0.119407	-0.920574	0.504307
C318	C	-0.166247	-0.912664	0.557353
C319	C	-0.172686	-0.873362	0.580579
C320	C	-0.132281	-0.841972	0.550756
H321	H	-0.044327	-0.895041	0.435214
H322	H	-0.114641	-0.949668	0.487113
H323	H	-0.196157	-0.935901	0.579429
H324	H	-0.207362	-0.867505	0.619849
H325	H	-0.137048	-0.812878	0.567949
C326	C	-0.108389	-0.698843	0.518702
C327	C	-0.139915	-0.713976	0.580491
C328	C	-0.108574	-0.750142	0.621440
C329	C	-0.045706	-0.771177	0.600601
C330	C	-0.014177	-0.756045	0.538810
C331	C	-0.045518	-0.719878	0.497860
H332	H	-0.186456	-0.698405	0.595920
H333	H	-0.131914	-0.761344	0.667183
H334	H	-0.022506	-0.797950	0.630915
H335	H	0.032365	-0.771616	0.523381
H336	H	-0.022177	-0.708677	0.452118
H337	H	0.016700	-0.731943	0.465981
C338	C	-0.228066	-0.560748	0.362359
C339	C	-0.220152	-0.582634	0.321221
C340	C	-0.251502	-0.546476	0.280278
C341	C	-0.290765	-0.488431	0.280475
C342	C	-0.298681	-0.466541	0.321615
C343	C	-0.267331	-0.502699	0.362557
H344	H	-0.191085	-0.625606	0.321074
H345	H	-0.245642	-0.562681	0.249824
H346	H	-0.313972	-0.461664	0.250167
H347	H	-0.327748	-0.423570	0.321762
H348	H	-0.273191	-0.486495	0.393012
H349	H	0.051655	-0.697459	0.228927
H350	H	-0.116227	-0.604815	0.338615
C351	C	0.203823	-0.597783	0.394304
C352	C	0.248773	-0.653727	0.405304
C353	C	0.304698	-0.664745	0.360351
C354	C	0.315673	-0.619819	0.304397
C355	C	0.270722	-0.563871	0.293395
C356	C	0.214796	-0.552853	0.338348
H357	H	0.240649	-0.686987	0.446726
H358	H	0.337974	-0.706161	0.368496
H359	H	0.357073	-0.627975	0.271120
H360	H	0.278845	-0.530611	0.251972
H361	H	0.181520	-0.511437	0.330202
H362	H	-0.109425	-0.738032	0.455342
