data_functionalizedCrystal
_audit_creation_method	'MofGen! by Chris Wilmer'
_symmetry_space_group_name_H-M	'P1'
_symmetry_Int_Tables_number	1
_symmetry_cell_setting	triclinic
loop_
_symmetry_equiv_pos_as_xyz
  x,y,z
_cell_length_a	21.295418
_cell_length_b	16.994747
_cell_length_c	21.295411
_cell_angle_alpha	89.994024
_cell_angle_beta	90.043738
_cell_angle_gamma	90.026880
loop_
_atom_site_label
_atom_site_type_symbol
_atom_site_fract_x
_atom_site_fract_y
_atom_site_fract_z
Zn1	Zn	0.962441	-0.313785	0.356354
Zn2	Zn	0.962379	-0.445672	0.251131
Zn3	Zn	0.857164	-0.313822	0.251064
Zn4	Zn	0.857169	-0.445687	0.356327
O5	O	0.909788	-0.379741	0.303719
O6	O	1.050522	-0.331258	0.342435
O7	O	0.948394	-0.428190	0.163032
O8	O	0.871153	-0.203436	0.265015
O9	O	1.050477	-0.428155	0.265128
O10	O	0.948499	-0.203409	0.342371
O11	O	0.871093	-0.331321	0.162984
O12	O	0.769075	-0.331336	0.264988
O13	O	0.871162	-0.428181	0.444420
O14	O	0.769079	-0.428217	0.342324
O15	O	0.948504	-0.331273	0.444440
O16	O	0.948399	-0.556055	0.265101
O17	O	0.871102	-0.556066	0.342389
C18	C	0.746237	-0.379783	0.303647
C19	C	0.676268	-0.379820	0.303631
C20	C	0.909752	-0.584681	0.303747
C21	C	0.909756	-0.674003	0.303746
Zn22	Zn	0.857182	-0.944908	0.251047
Zn23	Zn	0.962469	-0.944850	0.356327
Zn24	Zn	0.857191	-0.813080	0.356316
Zn25	Zn	0.962390	-0.812927	0.251110
O26	O	0.909808	-0.878941	0.303700
O27	O	0.871178	-1.055282	0.264990
O28	O	0.948540	-0.927410	0.444415
O29	O	0.769100	-0.830655	0.342321
O30	O	0.948532	-1.055239	0.342339
O31	O	0.769094	-0.927510	0.264980
O32	O	0.871192	-0.830599	0.444407
O33	O	0.871116	-0.702678	0.342383
O34	O	0.948398	-0.830395	0.163012
O35	O	0.948406	-0.702566	0.265088
O36	O	0.871102	-0.927361	0.162966
O37	O	1.050548	-0.927262	0.342400
O38	O	1.050490	-0.830338	0.265098
C39	C	0.643420	-0.430332	0.343839
C40	C	0.577678	-0.430313	0.343868
C41	C	0.544786	-0.379789	0.303676
C42	C	0.577642	-0.329267	0.263464
C43	C	0.643383	-0.329282	0.263442
N44	N	0.441508	-0.373615	0.248616
N45	N	0.379057	-0.373605	0.248639
C46	C	0.346711	-0.379739	0.303743
N47	N	0.379176	-0.385898	0.358823
N48	N	0.441634	-0.385912	0.358799
C49	C	0.473501	-0.379767	0.303696
C50	C	0.242578	-0.430233	0.343985
C51	C	0.176834	-0.430208	0.344015
C52	C	0.176800	-0.329166	0.263606
C53	C	0.242542	-0.329187	0.263582
C54	C	0.275427	-0.379725	0.303771
C55	C	1.073979	-0.379700	0.303792
C56	C	1.143947	-0.379683	0.303823
C57	C	0.909840	-0.379725	0.467909
C58	C	0.909863	-0.379718	0.537878
C59	C	0.909828	-0.174001	0.303687
C60	C	0.909847	-0.084679	0.303674
C61	C	0.909772	-0.379701	0.140167
C62	C	0.909872	-0.379486	0.070200
C63	C	0.950133	-0.329255	0.570756
C64	C	0.950132	-0.329221	0.636498
C65	C	0.909868	-0.379663	0.669360
C66	C	0.869589	-0.430129	0.636474
C67	C	0.869587	-0.430156	0.570733
N68	N	0.905030	-0.448668	0.772600
N69	N	0.905036	-0.448640	0.835052
C70	C	0.909872	-0.379583	0.867435
N71	N	0.914714	-0.310554	0.835007
N72	N	0.914711	-0.310583	0.772550
C73	C	0.909866	-0.379639	0.740645
C74	C	0.950143	-0.329080	0.971599
C75	C	0.950138	-0.329044	1.037342
C76	C	0.869598	-0.429959	1.037317
C77	C	0.869600	-0.429988	0.971574
C78	C	0.909876	-0.379549	0.938719
C79	C	1.073360	-0.878779	0.303759
C80	C	1.143328	-0.878733	0.303802
C81	C	0.909740	-0.878868	0.139510
C82	C	0.909711	-0.878836	0.069541
C83	C	0.745618	-0.879106	0.303642
C84	C	0.675650	-0.879176	0.303618
C85	C	0.909831	-0.879059	0.467251
C86	C	0.909684	-0.879241	0.537219
C87	C	1.176197	-0.929221	0.344037
C88	C	1.241940	-0.929193	0.344079
C89	C	1.274812	-0.878672	0.303887
C90	C	1.241938	-0.828182	0.263648
C91	C	1.176196	-0.828214	0.263604
C92	C	0.869449	-0.929307	0.036656
C93	C	0.869409	-0.929278	-0.029087
C94	C	0.909636	-0.878781	-0.061942
C95	C	0.949900	-0.828305	-0.029052
C96	C	0.949936	-0.828331	0.036689
C97	C	0.642792	-0.828777	0.343874
C98	C	0.577049	-0.828827	0.343851
C99	C	0.544166	-0.879282	0.303575
C100	C	0.577028	-0.929684	0.263314
C101	C	0.642770	-0.929629	0.263334
C102	C	0.869633	-0.828557	0.570046
C103	C	0.869483	-0.828727	0.635788
C104	C	0.909387	-0.879579	0.668702
C105	C	0.949440	-0.930269	0.635871
C106	C	0.949587	-0.930102	0.570130
H107	H	0.670191	-0.471483	0.376565
H108	H	0.909601	-0.878769	-0.115473
H109	H	0.982928	-0.288183	0.544009
O110	O	1.144243	-0.978188	0.383147
C111	C	1.106209	-0.933370	0.423813
H112	H	1.126020	-0.871239	0.427772
H113	H	1.056382	-0.930652	0.404323
C114	C	1.080878	-1.048323	0.484353
C115	C	1.105213	-0.972014	0.489220
H116	H	1.080261	-1.072161	0.524699
H117	H	1.106500	-1.078519	0.456955
H118	H	1.039357	-1.046048	0.468109
H119	H	1.146736	-0.974291	0.505457
H120	H	1.079598	-0.941819	0.516624
O121	O	0.988226	-0.979733	0.667751
C122	C	1.023626	-1.024423	0.624687
H123	H	0.997936	-1.026844	0.577742
H124	H	1.071606	-0.995899	0.617881
C125	C	1.063742	-1.105530	0.707912
C126	C	1.032185	-1.108509	0.650256
H127	H	1.069024	-1.157397	0.723685
H128	H	1.039894	-1.075420	0.736926
H129	H	1.103721	-1.081757	0.702233
H130	H	0.992204	-1.132273	0.655938
H131	H	1.056027	-1.138625	0.621243
O132	O	0.830568	-0.479215	0.668421
C133	C	0.866398	-0.530126	0.706501
H134	H	0.915974	-0.534993	0.686725
H135	H	0.868574	-0.505719	0.756319
C136	C	0.774736	-0.606156	0.731804
C137	C	0.835625	-0.612139	0.707512
H138	H	0.755753	-0.656744	0.732430
H139	H	0.750596	-0.571855	0.706150
H140	H	0.776558	-0.585813	0.773317
H141	H	0.833801	-0.632471	0.665997
H142	H	0.859764	-0.646445	0.733158
H143	H	0.550245	-0.970762	0.230522
H144	H	0.550928	-0.471446	0.376613
O145	O	0.830538	-0.479296	0.538819
C146	C	0.844269	-0.557900	0.554935
H147	H	0.894555	-0.561860	0.573051
H148	H	0.810513	-0.578511	0.593075
C149	C	0.775174	-0.605707	0.474299
C150	C	0.836939	-0.610572	0.496544
H151	H	0.770650	-0.638199	0.438282
H152	H	0.765921	-0.552750	0.463442
H153	H	0.747051	-0.622881	0.506088
H154	H	0.865059	-0.593388	0.464758
H155	H	0.846196	-0.663527	0.507394
H156	H	1.328342	-0.878653	0.303930
O157	O	0.989166	-0.279932	1.069308
C158	C	0.953339	-0.228985	1.107297
H159	H	0.903762	-0.224137	1.087445
H160	H	0.951166	-0.253345	1.157130
C161	C	1.045003	-0.152932	1.132674
C162	C	0.984112	-0.146972	1.108289
H163	H	1.063986	-0.102343	1.133290
H164	H	1.069141	-0.187257	1.107083
H165	H	1.043184	-0.173235	1.174200
H166	H	0.985933	-0.126679	1.066762
H167	H	0.959975	-0.112641	1.133874
O168	O	0.674587	-0.978672	0.224212
C169	C	0.631460	-1.023199	0.188654
H170	H	0.584611	-1.025967	0.214426
H171	H	0.624443	-0.994304	0.140846
C172	C	0.714656	-1.103730	0.147925
C173	C	0.657117	-1.107136	0.179581
H174	H	0.730483	-1.155506	0.142325
H175	H	0.743713	-1.073730	0.171879
H176	H	0.708801	-1.079647	0.108089
H177	H	0.662974	-1.131209	0.219419
H178	H	0.628062	-1.137143	0.155633
H179	H	0.670128	-0.288146	0.230699
H180	H	1.268696	-0.970308	0.376849
O181	O	0.989193	-0.279969	0.939704
C182	C	0.975462	-0.201349	0.955738
H183	H	0.925175	-0.197370	0.973771
H184	H	1.009217	-0.180701	0.993914
C185	C	1.044561	-0.153622	0.875172
C186	C	0.982795	-0.148734	0.897316
H187	H	1.049087	-0.121165	0.839136
H188	H	1.053814	-0.206589	0.864371
H189	H	1.072683	-0.136417	0.906991
H190	H	0.954675	-0.165948	0.865500
H191	H	0.973538	-0.095768	0.908110
H192	H	1.268712	-0.787049	0.230925
O193	O	0.830773	-0.779244	0.538108
C194	C	0.767909	-0.796018	0.553979
H195	H	0.764354	-0.859053	0.571941
H196	H	0.751604	-0.753699	0.592160
C197	C	0.730436	-0.708933	0.473413
C198	C	0.726069	-0.786357	0.495470
H199	H	0.704626	-0.702971	0.437324
H200	H	0.772788	-0.697630	0.462722
H201	H	0.716849	-0.673676	0.505236
H202	H	0.739663	-0.821612	0.463650
H203	H	0.683718	-0.797666	0.506155
O204	O	0.274357	-0.280099	0.224459
C205	C	0.231231	-0.235485	0.189001
H206	H	0.184349	-0.267778	0.186802
H207	H	0.224297	-0.175618	0.212121
C208	C	0.314403	-0.184335	0.124709
C209	C	0.256822	-0.224001	0.122004
H210	H	0.330189	-0.177247	0.083383
H211	H	0.343458	-0.214389	0.148599
H212	H	0.308616	-0.134451	0.143979
H213	H	0.262611	-0.273887	0.102742
H214	H	0.227769	-0.193954	0.098109
H215	H	0.550857	-0.288128	0.230741
H216	H	1.149439	-0.787096	0.230842
H217	H	0.836691	-0.970430	0.063399
O218	O	0.830548	-0.478940	1.069328
C219	C	0.839174	-0.468084	1.134404
H220	H	0.887757	-0.442226	1.143409
H221	H	0.801841	-0.426089	1.153021
C222	C	0.773731	-0.579644	1.157118
C223	C	0.833403	-0.547891	1.168178
H224	H	0.770168	-0.628871	1.177952
H225	H	0.767917	-0.586957	1.113275
H226	H	0.742626	-0.544640	1.172632
H227	H	0.864506	-0.582890	1.152656
H228	H	0.839222	-0.540586	1.212019
O229	O	0.989114	-0.779282	0.068533
C230	C	1.024597	-0.734700	0.025430
H231	H	1.026749	-0.766992	-0.021436
H232	H	1.001530	-0.674811	0.018444
C233	C	1.088967	-0.683621	0.108655
C234	C	1.091614	-0.723285	0.051094
H235	H	1.130305	-0.676576	0.124486
H236	H	1.065060	-0.713654	0.137695
H237	H	1.069741	-0.633717	0.102826
H238	H	1.110832	-0.773191	0.056926
H239	H	1.115526	-0.693260	0.022056
H240	H	0.982924	-0.288124	0.663273
H241	H	0.269354	-0.471380	0.376713
O242	O	0.545066	-0.779980	0.382999
C243	C	0.507076	-0.824943	0.423643
H244	H	0.497220	-0.884713	0.401420
H245	H	0.532439	-0.833623	0.470296
C246	C	0.456738	-0.708186	0.462339
C247	C	0.444627	-0.781593	0.435041
H248	H	0.418217	-0.681445	0.469372
H249	H	0.482333	-0.677892	0.434957
H250	H	0.477875	-0.715429	0.501212
H251	H	0.423498	-0.774349	0.396164
H252	H	0.419026	-0.811885	0.462416
H253	H	0.982205	-0.971373	0.543408
O254	O	0.830281	-0.978395	-0.060930
C255	C	0.794784	-1.022961	-0.017829
H256	H	0.820598	-1.025672	0.029037
H257	H	0.746967	-0.994137	-0.010841
C258	C	0.754024	-1.103586	-0.101056
C259	C	0.785733	-1.106922	-0.043496
H260	H	0.748438	-1.155376	-0.116889
H261	H	0.777937	-1.073560	-0.130095
H262	H	0.714181	-1.079563	-0.095225
H263	H	0.825578	-1.130936	-0.049329
H264	H	0.761826	-1.136955	-0.014458
H265	H	0.836868	-0.787446	0.662510
H266	H	0.150090	-0.471340	0.376761
H267	H	0.150020	-0.288025	0.230884
H268	H	0.982651	-0.787192	-0.055813
H269	H	0.836811	-0.471084	0.944805
H270	H	0.490635	-0.879316	0.303562
H271	H	0.669557	-0.787687	0.376673
H272	H	0.909263	-0.879706	0.722233
