data_functionalizedCrystal
_audit_creation_method	'MofGen! by Chris Wilmer'
_symmetry_space_group_name_H-M	'P1'
_symmetry_Int_Tables_number	1
_symmetry_cell_setting	triclinic
loop_
_symmetry_equiv_pos_as_xyz
  x,y,z
_cell_length_a	27.440280
_cell_length_b	14.809374
_cell_length_c	14.809374
_cell_angle_alpha	60.797835
_cell_angle_beta	90.004513
_cell_angle_gamma	67.424940
loop_
_atom_site_label
_atom_site_type_symbol
_atom_site_fract_x
_atom_site_fract_y
_atom_site_fract_z
Zr1	Zr	0.538312	0.955110	-0.203550
O2	O	0.478612	1.113041	-0.350723
O3	O	0.548161	0.777342	-0.145471
O4	O	0.568096	0.926486	-0.332007
O5	O	0.452566	0.993394	-0.031791
O6	O	0.648297	0.926473	-0.331988
O7	O	0.458677	0.963897	-0.164188
O8	O	0.612637	0.659681	0.001689
O9	O	0.488227	1.260185	-0.365469
O10	O	0.622426	0.857798	-0.136349
O11	O	0.558012	0.879821	-0.037556
O12	O	0.581484	1.055419	-0.257178
O13	O	0.517070	1.077442	-0.158385
Zr14	Zr	0.656477	1.002133	0.007636
Zr15	Zr	0.666223	0.955089	-0.203521
Zr16	Zr	0.528566	1.002154	0.007607
Zr17	Zr	0.553646	1.189788	-0.227068
Zr18	Zr	0.641143	0.767454	0.031154
O19	O	0.646627	1.179901	-0.050443
O20	O	0.660486	1.113010	-0.350682
O21	O	0.464754	1.179932	-0.050485
O22	O	0.716176	0.844202	0.154809
O23	O	0.730034	0.777311	-0.145430
O24	O	0.534303	0.844232	0.154767
O25	O	0.742223	0.963849	-0.164123
O26	O	0.626692	1.030757	0.136092
O27	O	0.546491	1.030770	0.136074
O28	O	0.736112	0.993346	-0.031726
O29	O	0.589899	1.260168	-0.365446
O30	O	0.604890	0.697074	0.169531
O31	O	0.706562	0.697057	0.169555
O32	O	0.714309	0.659664	0.001713
O33	O	0.480480	1.297579	-0.197627
O34	O	0.582152	1.297562	-0.197604
O35	O	0.613305	0.901824	0.061263
O36	O	0.677718	0.879801	-0.037529
O37	O	0.636776	1.077422	-0.158358
O38	O	0.572363	1.099445	-0.059565
C39	C	0.578214	0.685075	-0.068540
C40	C	0.571705	0.585448	-0.058556
C41	C	0.600756	0.530106	-0.103113
C42	C	0.594029	0.427136	-0.092795
C43	C	0.437397	0.978648	-0.097994
C44	C	0.383095	0.978658	-0.098006
C45	C	0.067761	0.875450	-0.034856
C46	C	0.016742	0.875445	-0.034847
O47	O	0.008528	0.787721	0.018823
N48	N	-0.030146	0.978600	-0.097919
C49	C	-0.026014	1.081768	-0.160997
O50	O	-0.070581	1.169509	-0.214643
C51	C	0.025004	1.081774	-0.161000
C52	C	0.071892	0.978610	-0.097932
C53	C	0.114647	0.772296	0.028208
C54	C	0.165663	0.772301	0.028196
C55	C	0.169793	0.875461	-0.034879
C56	C	0.122907	0.978615	-0.097943
C57	C	0.029135	1.184942	-0.224071
C58	C	0.080159	1.184938	-0.224068
C59	C	0.127046	1.081775	-0.161000
C60	C	0.178053	1.081780	-0.161029
N61	N	0.224941	0.978626	-0.097957
C62	C	0.220811	0.875466	-0.034882
C63	C	-0.133155	1.081750	-0.160984
C64	C	-0.184172	1.081745	-0.160988
C65	C	-0.141412	0.875422	-0.034836
C66	C	-0.090394	0.875427	-0.034839
C67	C	-0.086266	0.978595	-0.097912
C68	C	0.327947	0.875484	-0.034911
C69	C	0.378965	0.875498	-0.034931
C70	C	0.336201	1.081821	-0.161078
C71	C	0.285187	1.081807	-0.161062
C72	C	0.281063	0.978630	-0.097970
O73	O	0.186308	1.169460	-0.214668
O74	O	0.265381	0.787742	0.018766
C75	C	0.757392	0.978594	-0.097921
C76	C	0.811693	0.978585	-0.097908
C77	C	0.609585	0.919777	-0.362083
C78	C	0.613723	0.899805	-0.451725
C79	C	0.616574	1.272168	-0.127374
C80	C	0.623084	1.371795	-0.137358
C81	C	0.595258	0.988935	-0.551629
C82	C	0.599534	0.968296	-0.644280
C83	C	0.585203	1.037466	0.166169
C84	C	0.581065	1.057437	0.255810
C85	C	0.738211	0.685048	-0.068504
C86	C	0.786004	0.585411	-0.058507
C87	C	0.566023	0.743919	0.195586
C88	C	0.555376	0.664264	0.295211
C89	C	0.726020	0.743892	0.195622
C90	C	0.769675	0.664228	0.295260
C91	C	0.468768	1.213350	-0.391536
C92	C	0.425114	1.293015	-0.491174
C93	C	0.456577	1.272195	-0.127411
C94	C	0.408785	1.371831	-0.137407
C95	C	0.628766	1.213323	-0.391500
C96	C	0.639413	1.292979	-0.491125
C97	C	0.779586	0.527134	-0.105405
C98	C	0.824488	0.433524	-0.096033
C99	C	0.875808	0.398188	-0.039757
C100	C	0.882225	0.456475	0.007141
C101	C	0.837324	0.550088	-0.002238
C102	C	0.579237	0.638344	0.393588
C103	C	0.569232	0.563514	0.487204
C104	C	0.535367	0.514599	0.482441
C105	C	0.511502	0.540525	0.384053
C106	C	0.521505	0.615361	0.290439
C107	C	0.823804	0.615320	0.290483
C108	C	0.864828	0.540478	0.384094
C109	C	0.851722	0.514538	0.482482
C110	C	0.797587	0.563454	0.487257
C111	C	0.756564	0.638301	0.393646
C112	C	0.370985	1.341934	-0.486398
C113	C	0.329963	1.416805	-0.580012
C114	C	0.343070	1.442750	-0.678401
C115	C	0.397204	1.393828	-0.683175
C116	C	0.438226	1.318964	-0.589563
C117	C	0.415204	1.430117	-0.090519
C118	C	0.370304	1.523747	-0.099917
C119	C	0.318985	1.559086	-0.156196
C120	C	0.312567	1.500795	-0.203089
C121	C	0.357467	1.407171	-0.193698
C122	C	0.673280	1.341872	-0.486328
C123	C	0.683295	1.416706	-0.579927
C124	C	0.659438	1.442652	-0.678324
C125	C	0.625569	1.393751	-0.683119
C126	C	0.615558	1.318912	-0.589520
H127	H	0.541853	0.556594	-0.012769
C128	C	0.697022	0.692090	0.398920
N129	N	0.652174	0.732603	0.402899
C130	C	0.783178	0.534898	0.595496
N131	N	0.772326	0.513380	0.677025
H132	H	0.483929	0.500688	0.380191
H133	H	0.456986	1.401354	-0.044685
C134	C	0.356555	1.313418	-0.378180
N135	N	0.345682	1.291953	-0.296674
H136	H	0.924015	0.427690	0.052960
H137	H	0.502075	0.636452	0.210341
C138	C	0.270419	1.470605	-0.574737
N139	N	0.225572	1.511125	-0.570760
C140	C	0.844391	0.614175	0.049370
N141	N	0.849718	0.662440	0.088247
H142	H	-0.052220	0.791424	0.016525
C143	C	0.641076	0.569096	-0.164991
N144	N	0.671443	0.598469	-0.211608
H145	H	0.417142	0.791486	0.016430
C146	C	0.569629	1.112668	-0.574521
N147	N	0.550326	1.205868	-0.591765
H148	H	0.482299	1.279133	-0.593464
H149	H	0.834486	0.636427	0.210379
C150	C	0.924372	0.486671	0.378819
N151	N	0.969219	0.446143	0.374843
C152	C	0.699532	1.313340	-0.378100
N153	N	0.719310	1.291848	-0.296585
H154	H	0.618511	0.876702	-0.627333
C155	C	0.377375	1.587843	-0.048316
N156	N	0.382702	1.636115	-0.009447
H157	H	-0.222345	1.165748	-0.212357
C158	C	0.555428	1.181179	-0.767091
N159	N	0.536116	1.274379	-0.784339
C160	C	0.639357	0.776072	-0.428833
N161	N	0.658664	0.682872	-0.411588
H162	H	0.912365	0.321959	-0.032128
C163	C	0.110116	0.658799	0.097591
N164	N	0.106709	0.573303	0.149846
H165	H	0.606148	1.414888	-0.763246
C166	C	0.720549	1.470491	-0.574630
N167	N	0.748609	1.511001	-0.570637
H168	H	0.606812	0.678165	0.397487
C169	C	0.817416	0.369415	-0.147618
N170	N	0.812087	0.321128	-0.186468
H171	H	0.309662	1.503710	-0.754618
C172	C	0.595494	0.534998	0.595421
N173	N	0.615277	0.513518	0.676927
C174	C	0.670455	1.524982	-0.781277
N175	N	0.678754	1.586996	-0.858819
H176	H	0.737804	0.555899	-0.151243
H177	H	-0.009034	1.268949	-0.275427
H178	H	0.564175	0.398286	-0.047004
C179	C	-0.128621	1.195247	-0.230391
N180	N	-0.125209	1.280733	-0.282670
C181	C	0.896854	0.432192	0.585449
N182	N	0.930849	0.370164	0.663000
C183	C	0.411612	1.422367	-0.791413
N184	N	0.422463	1.443857	-0.872939
H185	H	0.527226	0.453665	0.558676
H186	H	0.282429	1.635322	-0.163835
H187	H	0.587979	1.279110	-0.593441
H188	H	0.324597	0.791468	0.016466
H189	H	0.652941	0.400637	-0.183142
C190	C	0.256109	1.539669	-0.264976
N191	N	0.213583	1.568943	-0.311579
H192	H	0.203836	0.688293	0.079549
C193	C	0.084694	1.298434	-0.293459
N194	N	0.088109	1.383918	-0.345728
H195	H	0.247009	1.165808	-0.212431
H196	H	0.339574	1.165811	-0.212436
H197	H	-0.144783	0.791422	0.016520
H198	H	0.352233	1.359717	-0.231877
