data_functionalizedCrystal
_audit_creation_method	'MofGen! by Chris Wilmer'
_symmetry_space_group_name_H-M	'P1'
_symmetry_Int_Tables_number	1
_symmetry_cell_setting	triclinic
loop_
_symmetry_equiv_pos_as_xyz
  x,y,z
_cell_length_a	10.489741
_cell_length_b	9.565339
_cell_length_c	14.519709
_cell_angle_alpha	89.999284
_cell_angle_beta	95.890341
_cell_angle_gamma	90.000900
loop_
_atom_site_label
_atom_site_type_symbol
_atom_site_fract_x
_atom_site_fract_y
_atom_site_fract_z
O1	O	1.692697	0.116177	-0.130108
O2	O	1.321374	0.116199	-0.142321
O3	O	1.516880	0.116175	-0.002030
O4	O	1.497190	0.116201	-0.270399
O5	O	1.516865	-0.116345	-0.002038
O6	O	1.321358	-0.116321	-0.142330
O7	O	1.692681	-0.116343	-0.130117
Zn8	Zn	1.507017	-0.153250	-0.136225
Zn9	Zn	1.507038	0.153106	-0.136213
O10	O	1.497175	-0.116319	-0.270408
C11	C	1.273844	-0.000058	-0.141403
C12	C	1.132243	-0.000050	-0.138643
N13	N	1.507013	-0.362329	-0.136232
C14	C	1.065034	-0.000072	-0.049380
C15	C	0.972475	0.114573	-0.091543
C16	C	0.972493	-0.114673	-0.091573
C17	C	1.041549	0.114690	-0.180843
C18	C	1.041578	-0.114659	-0.180860
C19	C	0.949046	0.000014	-0.223088
C20	C	1.416570	-0.453521	-0.201090
C21	C	1.531873	-0.546705	-0.219751
C22	C	1.391760	-0.546701	-0.117579
C23	C	1.622373	-0.453461	-0.154934
C24	C	1.482185	-0.453449	-0.052726
C25	C	1.597571	-0.546591	-0.071351
C26	C	1.740211	-0.000083	-0.131035
C27	C	1.881812	-0.000082	-0.133794
C28	C	1.515955	-0.000085	0.032331
C29	C	1.513205	-0.000086	0.134727
N30	N	1.507052	0.362185	-0.136199
C31	C	1.498100	-0.000056	-0.304768
C32	C	1.500850	-0.000046	-0.407165
C33	C	1.503082	-0.000049	0.509678
C34	C	1.505893	-0.000060	0.405355
C35	C	1.508143	-0.000069	0.322206
C36	C	1.510955	-0.000077	0.217876
H37	H	1.115488	0.000064	0.024000
F38	F	0.932461	0.241257	-0.042174
F39	F	1.081333	0.241522	-0.230167
H40	H	0.898856	0.000084	-0.296546
H41	H	0.941903	-0.211598	-0.053791
H42	H	1.072224	-0.211583	-0.218602
F43	F	1.559358	-0.600247	-0.312035
H44	H	1.340155	-0.412657	-0.255990
F45	F	1.749822	-0.400159	-0.175645
F46	F	1.697670	-0.599676	0.000361
F47	F	1.264344	-0.600237	-0.096974
F48	F	1.454656	-0.399863	0.039532
