data_functionalizedCrystal
_audit_creation_method	'MofGen! by Chris Wilmer'
_symmetry_space_group_name_H-M	'P1'
_symmetry_Int_Tables_number	1
_symmetry_cell_setting	triclinic
loop_
_symmetry_equiv_pos_as_xyz
  x,y,z
_cell_length_a	11.026607
_cell_length_b	15.500215
_cell_length_c	11.026607
_cell_angle_alpha	87.511965
_cell_angle_beta	71.413983
_cell_angle_gamma	92.489775
loop_
_atom_site_label
_atom_site_type_symbol
_atom_site_fract_x
_atom_site_fract_y
_atom_site_fract_z
O1	O	1.733172	0.071943	-0.540061
O2	O	1.366592	0.071944	-0.479298
O3	O	1.519500	0.071940	-0.326389
O4	O	1.580264	0.071946	-0.692970
O5	O	1.506604	-0.071949	-0.313504
O6	O	1.353696	-0.071945	-0.466412
O7	O	1.720276	-0.071947	-0.527176
Cu8	Cu	1.535809	-0.085084	-0.495617
Cu9	Cu	1.551059	0.085081	-0.510856
O10	O	1.567368	-0.071943	-0.680084
C11	C	1.312485	-0.000001	-0.461645
C12	C	1.170471	-0.000000	-0.428228
N13	N	1.525092	-0.204770	-0.484900
C14	C	1.116822	0.000002	-0.520498
C15	C	0.970043	0.000003	-0.485963
C16	C	1.615216	-0.250042	-0.575067
C17	C	1.607126	-0.340615	-0.566957
C18	C	1.508905	-0.385915	-0.468686
C19	C	1.418776	-0.340636	-0.378511
C20	C	1.426873	-0.250065	-0.386616
C21	C	1.479752	-0.659383	-0.439495
C22	C	1.471660	-0.749961	-0.431399
C23	C	1.660012	-0.749934	-0.619845
C24	C	1.668096	-0.659360	-0.627946
C25	C	1.577971	-0.614090	-0.537767
C26	C	1.500631	-0.478495	-0.460397
C27	C	1.586251	-0.521511	-0.546052
C28	C	1.774384	-0.000000	-0.544828
C29	C	1.916398	0.000005	-0.578246
C30	C	1.501842	-0.000003	-0.272287
C31	C	1.468426	-0.000000	-0.130273
N32	N	1.561785	0.204767	-0.521565
C33	C	1.585026	0.000002	-0.734187
C34	C	1.618443	0.000005	-0.876201
C35	C	1.560695	0.000001	-0.076624
C36	C	1.526160	0.000004	0.070154
H37	H	0.907316	0.000023	-0.381395
N38	N	1.400292	-0.524753	-0.360008
N39	N	1.390507	-0.514640	-0.245493
H40	H	1.319643	-0.547311	-0.174590
N41	N	1.371314	-0.796239	-0.331027
N42	N	1.256781	-0.786140	-0.321172
H43	H	1.185912	-0.818826	-0.250292
H44	H	1.363863	0.000006	-0.067541
N45	N	1.394975	-0.000014	0.148839
N46	N	1.317500	-0.060672	0.146288
H47	H	1.224851	-0.060688	0.201861
N48	N	1.387658	-0.613162	-0.347399
N49	N	1.299949	-0.653621	-0.259686
H50	H	1.234891	-0.620975	-0.194649
N51	N	1.195507	0.000019	-0.651677
N52	N	1.192956	0.060676	-0.729152
H53	H	1.248525	0.060689	-0.821802
N54	N	0.995095	-0.000006	-0.709423
N55	N	1.114217	-0.000012	-0.737295
H56	H	1.169798	-0.000022	-0.829938
H57	H	1.107739	0.000020	-0.323667
N58	N	1.318463	-0.386919	-0.278126
N59	N	1.311246	-0.467786	-0.270900
H60	H	1.240397	-0.500473	-0.200002
N61	N	1.715558	-0.203787	-0.675455
N62	N	1.796025	-0.244224	-0.755944
H63	H	1.866901	-0.211559	-0.826842
H64	H	1.723019	0.000069	0.061066
H65	H	1.680516	-0.377472	-0.640378
H66	H	1.665258	-0.000005	-0.139357
H67	H	1.353483	-0.213205	-0.313193
H68	H	1.748080	-0.622483	-0.707966
N69	N	1.752054	-0.796190	-0.711946
N70	N	1.744816	-0.877057	-0.704704
H71	H	1.809826	-0.909727	-0.769752
N72	N	1.686593	-0.475239	-0.646410
N73	N	1.764495	-0.424693	-0.619610
H74	H	1.835362	-0.392005	-0.690488
