data_functionalizedCrystal
_audit_creation_method	'MofGen! by Chris Wilmer'
_symmetry_space_group_name_H-M	'P1'
_symmetry_Int_Tables_number	1
_symmetry_cell_setting	triclinic
loop_
_symmetry_equiv_pos_as_xyz
  x,y,z
_cell_length_a	16.109302
_cell_length_b	10.723024
_cell_length_c	14.586319
_cell_angle_alpha	90.004820
_cell_angle_beta	90.002485
_cell_angle_gamma	83.964825
loop_
_atom_site_label
_atom_site_type_symbol
_atom_site_fract_x
_atom_site_fract_y
_atom_site_fract_z
O1	O	1.104070	0.160400	0.076279
O2	O	0.862126	0.180359	0.076272
O3	O	0.988679	-0.011271	0.076272
O4	O	0.977517	0.352029	0.076279
O5	O	0.988678	-0.011283	-0.076209
O6	O	0.862125	0.180347	-0.076209
O7	O	1.104069	0.160388	-0.076202
Cu8	Cu	0.983097	0.170366	-0.090128
Cu9	Cu	0.983098	0.170380	0.090198
O10	O	0.977516	0.352017	-0.076202
C11	C	0.831146	0.179544	0.000030
C12	C	0.738836	0.177120	0.000028
C13	C	0.526462	0.171508	-0.083081
C14	C	0.439728	0.169216	-0.083078
C15	C	0.439740	0.169236	0.083165
C16	C	0.526472	0.171518	0.083161
C17	C	0.569831	0.172660	0.000035
C18	C	0.396364	0.168086	0.000043
C19	C	0.302324	0.165602	0.000047
C20	C	0.663877	0.175142	0.000031
C21	C	0.987866	-0.057766	0.000033
C22	C	0.985436	-0.196288	0.000036
C23	C	1.056248	-0.272209	0.000040
C24	C	1.053738	-0.415379	0.000043
C25	C	1.135049	0.161202	0.000042
C26	C	1.227359	0.163627	0.000051
C27	C	0.978329	0.398512	0.000039
C28	C	0.980759	0.537034	0.000042
N29	N	0.983100	0.170381	0.217030
N30	N	0.983102	0.170355	-0.216960
C31	C	1.039247	0.085692	0.452037
C32	C	1.039250	0.085689	0.548018
C33	C	0.926952	0.255054	0.548027
C34	C	0.926954	0.255062	0.452047
C35	C	0.983101	0.170374	0.404055
C36	C	0.983101	0.170363	0.596015
C37	C	0.983103	0.170360	0.700083
C38	C	0.983100	0.170378	0.299981
H39	H	0.404421	0.168278	-0.150759
C40	C	0.813956	0.281774	0.344094
C41	C	0.865232	0.348148	0.399296
H42	H	0.775860	0.339244	0.311524
H43	H	0.783828	0.229732	0.381528
H44	H	0.847409	0.231349	0.301781
H45	H	0.831781	0.398567	0.441613
H46	H	0.895363	0.400212	0.361858
C47	C	1.088917	0.010184	0.695141
C48	C	1.100829	-0.007601	0.600761
H49	H	1.126899	-0.047468	0.727699
H50	H	1.033335	-0.003350	0.710778
H51	H	1.098452	0.093430	0.710952
H52	H	1.091288	-0.090845	0.584948
H53	H	1.156425	0.005923	0.585116
C54	C	0.421776	0.061355	0.224869
C55	C	0.392077	0.167998	0.174535
H56	H	0.392348	0.060595	0.281275
H57	H	0.479630	0.062884	0.236757
H58	H	0.413476	-0.011740	0.190713
H59	H	0.400383	0.241094	0.208689
H60	H	0.334209	0.166480	0.162649
C61	C	0.544461	0.279451	0.224858
C62	C	0.574152	0.172791	0.174529
H63	H	0.573901	0.280234	0.281259
H64	H	0.486609	0.277922	0.236759
H65	H	0.552750	0.352534	0.190693
H66	H	0.565857	0.099707	0.208691
H67	H	0.632017	0.174309	0.162631
C68	C	0.659411	0.175004	-0.156906
C69	C	0.574124	0.172751	-0.174450
H70	H	0.688832	0.175776	-0.213317
H71	H	0.679550	0.102666	-0.122758
H72	H	0.667692	0.248112	-0.122757
H73	H	0.565842	0.099638	-0.208594
H74	H	0.553979	0.245096	-0.208612
H75	H	0.881237	0.324003	0.587112
H76	H	0.922953	-0.237282	0.000040
H77	H	1.084967	0.016736	0.412963
C78	C	1.146466	-0.142915	0.078423
C79	C	1.140602	-0.216876	0.000041
H80	H	1.198542	-0.108751	0.078420
H81	H	1.142482	-0.193080	0.131587
H82	H	1.102358	-0.076739	0.078412
H83	H	1.184707	-0.283058	0.000056
H84	H	1.144595	-0.166708	-0.053136
H85	H	1.114359	-0.480615	0.000042
H86	H	0.920135	-0.397737	0.000033
