data_functionalizedCrystal
_audit_creation_method	'MofGen! by Chris Wilmer'
_symmetry_space_group_name_H-M	'P1'
_symmetry_Int_Tables_number	1
_symmetry_cell_setting	triclinic
loop_
_symmetry_equiv_pos_as_xyz
  x,y,z
_cell_length_a	16.109301
_cell_length_b	13.596369
_cell_length_c	16.109301
_cell_angle_alpha	89.992589
_cell_angle_beta	96.538519
_cell_angle_gamma	90.002607
loop_
_atom_site_label
_atom_site_type_symbol
_atom_site_fract_x
_atom_site_fract_y
_atom_site_fract_z
O1	O	1.103133	0.081732	-0.106869
O2	O	1.603133	0.581732	0.393131
O3	O	0.861071	0.081748	-0.120168
O4	O	1.361071	0.581748	0.379832
O5	O	0.988751	0.081730	0.007513
O6	O	1.488751	0.581730	0.507513
O7	O	0.975452	0.081751	-0.234549
O8	O	1.475452	0.581751	0.265451
O9	O	0.988739	-0.081853	0.007520
O10	O	1.488739	0.418147	0.507520
O11	O	0.861058	-0.081835	-0.120161
O12	O	1.361058	0.418165	0.379839
O13	O	1.103120	-0.081851	-0.106862
O14	O	1.603120	0.418149	0.393138
Zn15	Zn	0.982087	-0.107815	-0.113510
Zn16	Zn	1.482087	0.392185	0.386490
Zn17	Zn	0.982104	0.107713	-0.113519
Zn18	Zn	1.482104	0.607713	0.386481
O19	O	0.975439	-0.081832	-0.234542
O20	O	1.475439	0.418168	0.265458
C21	C	0.830090	-0.000041	-0.119626
C22	C	1.330090	0.499959	0.380374
C23	C	0.737794	-0.000035	-0.118011
C24	C	1.237794	0.499965	0.381989
N25	N	0.982082	-0.254907	-0.113504
N26	N	1.482082	0.245093	0.386496
C27	C	0.515522	-0.000041	-0.190018
C28	C	1.015522	0.499959	0.309982
C29	C	0.428801	-0.000047	-0.188494
C30	C	0.928801	0.499953	0.311506
C31	C	0.448676	-0.000056	-0.037006
C32	C	0.948676	0.499944	0.462994
C33	C	0.535394	-0.000057	-0.038530
C34	C	1.035394	0.499943	0.461470
C35	C	0.568815	-0.000044	-0.115039
C36	C	1.068815	0.499956	0.384961
C37	C	0.395376	-0.000050	-0.111990
C38	C	0.895376	0.499950	0.388010
C39	C	0.301350	-0.000057	-0.110337
C40	C	0.801350	0.499943	0.389663
C41	C	0.662847	-0.000039	-0.116693
C42	C	1.162847	0.499961	0.383307
C43	C	0.982103	-0.656198	-0.113520
C44	C	1.482103	-0.156198	0.386480
C45	C	0.982094	-0.544546	-0.113518
C46	C	1.482094	-0.044546	0.386482
C47	C	0.982093	-0.455556	-0.113513
C48	C	1.482093	0.044444	0.386487
C49	C	0.982083	-0.343897	-0.113510
C50	C	1.482083	0.156103	0.386490
C51	C	1.134101	-0.000059	-0.107404
C52	C	1.634101	0.499941	0.392596
C53	C	1.226397	-0.000058	-0.109019
C54	C	1.726397	0.499942	0.390981
C55	C	0.988206	-0.000062	0.038491
C56	C	1.488206	0.499938	0.538491
C57	C	0.986591	-0.000063	0.130786
C58	C	1.486591	0.499937	0.630786
N59	N	0.982116	0.254805	-0.113519
N60	N	1.482116	0.754805	0.386481
C61	C	0.975984	-0.000038	-0.265521
C62	C	1.475984	0.499962	0.234479
C63	C	0.977600	-0.000030	-0.357816
C64	C	1.477600	0.499970	0.142184
C65	C	1.058599	-0.000052	0.353059
C66	C	1.558599	0.499948	0.853059
C67	C	1.057075	-0.000044	0.439779
C68	C	1.557075	0.499956	0.939779
C69	C	0.905586	-0.000038	0.419905
C70	C	1.405586	0.499962	0.919905
C71	C	0.907111	-0.000039	0.333186
C72	C	1.407111	0.499961	0.833186
C73	C	0.983620	-0.000051	0.299766
C74	C	1.483620	0.499949	0.799766
C75	C	0.980571	-0.000042	0.473205
C76	C	1.480571	0.499958	0.973205
C77	C	0.978918	-0.000033	0.567231
C78	C	1.478918	0.499967	1.067231
C79	C	0.985273	-0.000058	0.205734
C80	C	1.485273	0.499942	0.705734
H81	H	0.542730	-0.000038	-0.252317
H82	H	1.042730	0.499962	0.247683
H83	H	0.385413	-0.000046	-0.249550
H84	H	0.885413	0.499954	0.250450
O85	O	0.834349	0.000005	0.281292
O86	O	1.334349	0.500005	0.781292
C87	C	0.852103	-0.000018	0.197587
C88	C	1.352103	0.499982	0.697587
H89	H	0.917410	0.030947	0.194285
H90	H	1.417410	0.530947	0.694285
H91	H	0.804316	0.047479	0.158276
H92	H	1.304316	0.547479	0.658276
H93	H	0.848941	-0.078496	0.172513
H94	H	1.348941	0.421504	0.672513
O95	O	0.416347	-0.000099	0.037384
O96	O	0.916347	0.499901	0.537384
C97	C	0.481984	-0.000077	0.103236
C98	C	0.981984	0.499923	0.603236
H99	H	0.540885	-0.031052	0.079947
H100	H	1.040885	0.468948	0.579947
H101	H	0.463875	-0.047565	0.156657
H102	H	0.963875	0.452435	0.656657
H103	H	0.494268	0.078402	0.126352
H104	H	0.994268	0.578402	0.626352
H105	H	0.578788	-0.000062	0.022530
H106	H	1.078788	0.499938	0.522530
H107	H	1.118130	-0.000043	0.483168
H108	H	1.618130	0.499957	0.983168
H109	H	1.120897	-0.000060	0.325851
H110	H	1.620897	0.499940	0.825851
H111	H	0.843295	-0.000030	0.447127
H112	H	1.343295	0.499970	0.947127
