data_functionalizedCrystal
_audit_creation_method	'MofGen! by Chris Wilmer'
_symmetry_space_group_name_H-M	'P1'
_symmetry_Int_Tables_number	1
_symmetry_cell_setting	triclinic
loop_
_symmetry_equiv_pos_as_xyz
  x,y,z
_cell_length_a	14.519731
_cell_length_b	10.967926
_cell_length_c	9.483335
_cell_angle_alpha	111.309036
_cell_angle_beta	80.663270
_cell_angle_gamma	84.211611
loop_
_atom_site_label
_atom_site_type_symbol
_atom_site_fract_x
_atom_site_fract_y
_atom_site_fract_z
O1	O	0.093143	1.705249	0.306306
O2	O	0.116732	1.326729	0.211476
O3	O	-0.029549	1.526013	0.261416
O4	O	0.239424	1.505965	0.256367
O5	O	-0.059321	1.566537	0.513347
O6	O	0.086959	1.367254	0.463407
O7	O	0.063371	1.745773	0.558237
Cu8	Cu	0.072446	1.560214	0.533825
Cu9	Cu	0.107656	1.512289	0.235888
O10	O	0.209651	1.546490	0.508298
C11	C	0.102379	1.298548	0.325305
C12	C	0.103957	1.154202	0.289143
C13	C	0.089238	1.110841	0.403528
C14	C	0.090869	0.961653	0.366156
C15	C	-0.078771	1.545336	0.387146
C16	C	-0.181082	1.542522	0.386442
C17	C	-0.264169	1.540234	0.385866
C18	C	-0.368406	1.537375	0.385138
C19	C	-0.451488	1.535106	0.384560
C20	C	-0.555732	1.532248	0.383836
C21	C	0.258874	1.527166	0.382564
C22	C	0.361186	1.529978	0.383258
C23	C	0.077724	1.773954	0.444405
C24	C	0.076147	1.918298	0.480557
N25	N	0.047681	1.593931	0.743381
N26	N	0.132414	1.478582	0.026335
C27	C	0.079744	1.550294	0.972077
C28	C	0.100359	1.522208	0.797633
H29	H	0.117764	1.080878	0.163546
O30	O	0.072592	1.198287	0.553401
C31	C	-0.017079	1.193191	0.632376
H32	H	-0.063208	1.153055	0.545264
H33	H	-0.008228	1.125073	0.697606
C34	C	-0.008015	1.383158	0.855193
C35	C	-0.064675	1.333872	0.748202
H36	H	-0.037373	1.469934	0.926645
H37	H	0.052400	1.386589	0.801989
H38	H	-0.000644	1.326380	0.909535
H39	H	-0.072035	1.390640	0.693849
H40	H	-0.125092	1.330454	0.801399
H41	H	0.062333	0.991619	0.606164
H42	H	0.160722	1.440018	0.714947
H43	H	0.019391	1.632489	1.054768
O44	O	-0.024425	1.691822	0.842034
C45	C	-0.090450	1.636713	0.916320
H46	H	-0.083963	1.526496	0.842776
H47	H	-0.075558	1.649242	1.034753
C48	C	-0.199421	1.843845	1.027157
C49	C	-0.191459	1.708477	0.936822
H50	H	-0.261728	1.888114	1.039811
H51	H	-0.154937	1.880975	0.977114
H52	H	-0.187006	1.854267	1.125841
H53	H	-0.203862	1.698056	0.838134
H54	H	-0.235947	1.671346	0.986849
O55	O	0.204537	1.380669	0.927798
C56	C	0.290773	1.408270	0.971815
H57	H	0.283636	1.519370	1.041563
H58	H	0.308741	1.351016	1.045716
C59	C	0.379109	1.229230	0.740181
C60	C	0.370345	1.365687	0.825837
H61	H	0.428194	1.202958	0.650138
H62	H	0.321010	1.210631	0.710529
H63	H	0.394078	1.181535	0.801783
H64	H	0.355364	1.413380	0.764242
H65	H	0.428443	1.384294	0.855476
O66	O	0.107506	0.874109	0.216323
C67	C	0.189470	0.779793	0.184934
H68	H	0.235848	0.823120	0.270516
H69	H	0.168089	0.686293	0.197071
C70	C	0.188272	0.691329	-0.086471
C71	C	0.245238	0.744548	0.018635
H72	H	0.222671	0.669582	-0.189054
H73	H	0.133049	0.754867	-0.065323
H74	H	0.170458	0.613418	-0.076337
H75	H	0.263041	0.822466	0.008513
H76	H	0.300465	0.681022	-0.002518
