data_functionalizedCrystal
_audit_creation_method	'MofGen! by Chris Wilmer'
_symmetry_space_group_name_H-M	'P1'
_symmetry_Int_Tables_number	1
_symmetry_cell_setting	triclinic
loop_
_symmetry_equiv_pos_as_xyz
  x,y,z
_cell_length_a	6.394989
_cell_length_b	11.026607
_cell_length_c	9.482900
_cell_angle_alpha	101.363848
_cell_angle_beta	80.390180
_cell_angle_gamma	97.541864
loop_
_atom_site_label
_atom_site_type_symbol
_atom_site_fract_x
_atom_site_fract_y
_atom_site_fract_z
O1	O	-0.853991	-1.642135	-0.120875
O2	O	-0.753816	-1.287297	-0.120879
O3	O	-0.501733	-1.469753	-0.120878
O4	O	-1.106074	-1.459679	-0.120876
O5	O	-0.553199	-1.432696	0.120914
O6	O	-0.805282	-1.250240	0.120913
O7	O	-0.905458	-1.605078	0.120917
Cu8	Cu	-0.860069	-1.424275	0.142993
Cu9	Cu	-0.799204	-1.468099	-0.142955
O10	O	-1.157541	-1.422622	0.120916
C11	C	-0.761068	-1.223275	0.000016
C12	C	-0.705977	-1.087719	0.000014
C13	C	-0.898204	-1.669100	0.000019
C14	C	-0.953293	-1.804658	0.000011
N15	N	-0.902881	-1.393461	0.344113
C16	C	-0.448894	-1.449233	0.000013
C17	C	-0.210371	-1.443147	0.000011
N18	N	-0.756380	-1.498923	-0.344074
C19	C	-0.858092	-1.016240	0.000014
C20	C	-0.801156	-0.876135	0.000012
C21	C	-0.811817	-1.459002	0.416312
C22	C	-0.847457	-1.433373	0.583730
H23	H	-1.030475	-1.058766	0.000023
H24	H	-0.951802	-1.358277	0.645854
H25	H	-1.007219	-1.318370	0.406242
H26	H	-0.628755	-0.833619	-0.000026
O27	O	-0.631309	-1.588221	0.581815
C28	C	-0.458661	-1.533821	0.494027
H29	H	-0.502364	-1.443292	0.471249
H30	H	-0.421093	-1.600499	0.386977
H31	H	-0.312922	-1.513682	0.552863
O32	O	-1.158877	-0.855464	-0.000264
C33	C	-1.173103	-0.947668	-0.125479
H34	H	-1.033396	-0.929210	-0.212989
H35	H	-1.329201	-0.945390	-0.167534
H36	H	-1.168219	-1.042960	-0.097168
O37	O	-0.500227	-1.037187	0.000075
C38	C	-0.369836	-1.130857	0.000035
H39	H	-0.470797	-1.211281	0.045813
H40	H	-0.239830	-1.091321	0.070229
H41	H	-0.293443	-1.165711	-0.115967
O42	O	-0.687228	-1.548467	0.342013
C43	C	-0.514569	-1.494354	0.253965
H44	H	-0.557837	-1.403656	0.231365
H45	H	-0.477733	-1.561065	0.146843
H46	H	-0.368522	-1.474583	0.312484
