data_functionalizedCrystal
_audit_creation_method	'MofGen! by Chris Wilmer'
_symmetry_space_group_name_H-M	'P1'
_symmetry_Int_Tables_number	1
_symmetry_cell_setting	triclinic
loop_
_symmetry_equiv_pos_as_xyz
  x,y,z
_cell_length_a	16.120490
_cell_length_b	18.050590
_cell_length_c	18.050582
_cell_angle_alpha	89.976663
_cell_angle_beta	87.089789
_cell_angle_gamma	87.110849
loop_
_atom_site_label
_atom_site_type_symbol
_atom_site_fract_x
_atom_site_fract_y
_atom_site_fract_z
Zn1	Zn	1.274541	-0.353423	-0.477380
Zn2	Zn	1.607874	-0.020090	-0.144047
Zn3	Zn	1.941208	0.313243	0.189287
Zn4	Zn	1.274464	-0.477603	-0.353185
Zn5	Zn	1.607798	-0.144270	-0.019851
Zn6	Zn	1.941131	0.189063	0.313482
Zn7	Zn	1.135135	-0.347122	-0.346918
Zn8	Zn	1.468468	-0.013789	-0.013585
Zn9	Zn	1.801802	0.319545	0.319749
Zn10	Zn	1.135100	-0.471262	-0.471049
Zn11	Zn	1.468434	-0.137928	-0.137716
Zn12	Zn	1.801767	0.195405	0.195618
O13	O	1.204810	-0.412353	-0.412133
O14	O	1.538143	-0.079019	-0.078800
O15	O	1.871477	0.254314	0.254534
O16	O	1.391197	-0.375187	-0.466177
O17	O	1.724530	-0.041854	-0.132844
O18	O	2.057864	0.291479	0.200489
O19	O	1.255964	-0.460311	-0.248428
O20	O	1.589298	-0.126978	0.084905
O21	O	1.922631	0.206355	0.418239
O22	O	1.153674	-0.244036	-0.364251
O23	O	1.487008	0.089298	-0.030917
O24	O	1.820341	0.422631	0.302416
O25	O	1.391141	-0.466422	-0.374932
O26	O	1.724474	-0.133088	-0.041598
O27	O	2.057807	0.200245	0.291735
O28	O	1.256095	-0.248665	-0.460101
O29	O	1.589429	0.084668	-0.126767
O30	O	1.922762	0.418002	0.206566
O31	O	1.153600	-0.364448	-0.243824
O32	O	1.486933	-0.031114	0.089510
O33	O	1.820267	0.302219	0.422843
O34	O	1.018464	-0.358298	-0.358112
O35	O	1.351798	-0.024965	-0.024779
O36	O	1.685131	0.308368	0.308555
O37	O	1.153615	-0.455613	-0.575814
O38	O	1.486948	-0.122280	-0.242481
O39	O	1.820282	0.211053	0.090852
O40	O	1.018439	-0.449503	-0.449311
O41	O	1.351772	-0.116170	-0.115977
O42	O	1.685105	0.217164	0.217356
O43	O	1.256061	-0.369038	-0.580465
O44	O	1.589395	-0.035705	-0.247132
O45	O	1.922728	0.297629	0.086201
O46	O	1.255931	-0.580684	-0.368793
O47	O	1.589264	-0.247351	-0.035460
O48	O	1.922597	0.085982	0.297874
O49	O	1.153540	-0.576025	-0.455387
O50	O	1.486874	-0.242692	-0.122054
O51	O	1.820207	0.090641	0.211279
C52	C	0.988201	-0.402529	-0.402345
C53	C	1.321534	-0.069196	-0.069011
C54	C	1.654868	0.264137	0.264322
C55	C	0.895535	-0.398345	-0.398175
C56	C	1.228868	-0.065011	-0.064842
C57	C	1.562201	0.268322	0.268492
C58	C	0.684594	-0.434053	-0.433763
C59	C	1.017927	-0.100719	-0.100430
C60	C	1.351260	0.232614	0.232903
C61	C	0.725878	-0.390712	-0.390561
C62	C	1.059211	-0.057378	-0.057228
C63	C	1.392544	0.275955	0.276106
C64	C	0.820284	-0.394960	-0.394799
C65	C	1.153617	-0.061627	-0.061465
C66	C	1.486950	0.271707	0.271868
C67	C	0.590179	-0.429805	-0.429527
C68	C	0.923513	-0.096472	-0.096193
C69	C	1.256846	0.236861	0.237140
C70	C	1.204746	-0.605302	-0.412100
C71	C	1.538079	-0.271968	-0.078767
C72	C	1.871413	0.061365	0.254566
C73	C	1.204795	-0.687850	-0.412115
C74	C	1.538128	-0.354516	-0.078781
C75	C	1.871462	-0.021183	0.254552
C76	C	1.260591	-0.889812	-0.365099
C77	C	1.593924	-0.556479	-0.031766
C78	C	1.927257	-0.223146	0.301568
C79	C	1.280950	-0.940073	-0.433797
C80	C	1.614283	-0.606740	-0.100464
C81	C	1.947616	-0.273406	0.232869
C82	C	1.204842	-0.838982	-0.412147
C83	C	1.538176	-0.505649	-0.078813
C84	C	1.871509	-0.172316	0.254520
C85	C	1.184568	-0.935807	-0.343483
C86	C	1.517901	-0.602474	-0.010149
C87	C	1.851235	-0.269141	0.323184
C88	C	1.204890	-0.984969	-0.412171
C89	C	1.538223	-0.651636	-0.078838
C90	C	1.871556	-0.318303	0.254495
C91	C	1.225240	-0.888157	-0.480882
C92	C	1.558574	-0.554824	-0.147549
C93	C	1.891907	-0.221491	0.185785
C94	C	1.128823	-0.883886	-0.390520
C95	C	1.462157	-0.550552	-0.057187
C96	C	1.795490	-0.217219	0.276147
C97	C	1.149154	-0.934123	-0.459264
C98	C	1.482487	-0.600789	-0.125930
C99	C	1.815820	-0.267456	0.207403
C100	C	1.204817	-0.754883	-0.412131
C101	C	1.538150	-0.421550	-0.078798
C102	C	1.871484	-0.088216	0.254535
C103	C	1.204915	-1.069067	-0.412194
C104	C	1.538248	-0.735734	-0.078861
C105	C	1.871581	-0.402400	0.254473
C106	C	1.422265	-0.422215	-0.421960
C107	C	1.755598	-0.088881	-0.088626
C108	C	2.088932	0.244452	0.244707
C109	C	1.514931	-0.426417	-0.426147
C110	C	1.848265	-0.093084	-0.092814
C111	C	2.181598	0.240249	0.240519
C112	C	1.204843	-0.412321	-0.605840
C113	C	1.538176	-0.078988	-0.272507
C114	C	1.871509	0.254346	0.060827
C115	C	1.204857	-0.412308	-0.688386
C116	C	1.538190	-0.078974	-0.355053
C117	C	1.871523	0.254359	-0.021720
C118	C	1.204897	-0.218651	-0.412183
C119	C	1.538231	0.114682	-0.078849
C120	C	1.871564	0.448016	0.254484
C121	C	1.204934	-0.136107	-0.412204
C122	C	1.538268	0.197227	-0.078871
C123	C	1.871601	0.530560	0.254463
C124	C	1.149189	-0.459321	-0.885310
C125	C	1.482522	-0.125988	-0.551977
C126	C	1.815856	0.207345	-0.218643
C127	C	1.225255	-0.480920	-0.938131
C128	C	1.558588	-0.147586	-0.604798
C129	C	1.891921	0.185747	-0.271464
C130	C	1.204898	-0.412253	-0.839519
C131	C	1.538231	-0.078920	-0.506185
C132	C	1.871564	0.254414	-0.172852
C133	C	1.128874	-0.390636	-0.933781
C134	C	1.462207	-0.057303	-0.600448
C135	C	1.795540	0.276031	-0.267115
C136	C	1.204931	-0.412201	-0.985505
C137	C	1.538264	-0.078868	-0.652172
C138	C	1.871598	0.254466	-0.318839
C139	C	1.281004	-0.433888	-0.891254
C140	C	1.614337	-0.100555	-0.557921
C141	C	1.947670	0.232778	-0.224588
C142	C	1.184571	-0.343571	-0.886898
C143	C	1.517905	-0.010238	-0.553565
C144	C	1.851238	0.323096	-0.220232
C145	C	1.260690	-0.365146	-0.939699
C146	C	1.594023	-0.031812	-0.606366
C147	C	1.927356	0.301521	-0.273033
C148	C	1.204878	-0.412285	-0.755420
C149	C	1.538211	-0.078951	-0.422086
C150	C	1.871544	0.254382	-0.088753
C151	C	1.204960	-0.412170	-1.069603
C152	C	1.538293	-0.078836	-0.736270
C153	C	1.871626	0.254497	-0.402937
C154	C	1.204826	-0.412333	-0.219181
C155	C	1.538159	-0.078999	0.114152
C156	C	1.871492	0.254334	0.447485
C157	C	1.204973	-0.412144	-0.136643
C158	C	1.538307	-0.078811	0.196691
C159	C	1.871640	0.254523	0.530024
H160	H	0.720148	-0.474346	-0.473929
H161	H	1.053482	-0.141013	-0.140596
H162	H	1.386815	0.192321	0.192737
H163	H	1.307751	-0.870276	-0.325357
H164	H	1.641084	-0.536942	0.007977
H165	H	1.974418	-0.203609	0.341310
Cl166	Cl	1.251874	-0.855947	-0.570580
Cl167	Cl	1.585207	-0.522613	-0.237247
Cl168	Cl	1.918540	-0.189280	0.096086
Cl169	Cl	0.670985	-0.328501	-0.328538
Cl170	Cl	1.004318	0.004832	0.004795
Cl171	Cl	1.337651	0.338166	0.338129
Cl172	Cl	1.157963	-0.253952	-0.852169
Cl173	Cl	1.491296	0.079381	-0.518836
Cl174	Cl	1.824629	0.412714	-0.185502
H175	H	1.345257	-0.964642	-0.452104
H176	H	1.678591	-0.631308	-0.118771
H177	H	2.011924	-0.297975	0.214563
Cl178	Cl	1.076397	-0.964081	-0.520779
Cl179	Cl	1.409731	-0.630748	-0.187445
Cl180	Cl	1.743064	-0.297415	0.145888
Cl181	Cl	1.029562	-0.845932	-0.362229
Cl182	Cl	1.362895	-0.512599	-0.028895
Cl183	Cl	1.696228	-0.179266	0.304438
H184	H	1.167401	-0.956769	-0.285404
H185	H	1.500734	-0.623435	0.047929
H186	H	1.834067	-0.290102	0.381263
H187	H	1.102122	-0.499183	-0.861514
H188	H	1.435455	-0.165849	-0.528181
H189	H	1.768789	0.167484	-0.194848
H190	H	1.242467	-0.538981	-0.960605
H191	H	1.575800	-0.205647	-0.627272
H192	H	1.909134	0.127686	-0.293939
H193	H	1.307869	-0.325322	-0.963364
H194	H	1.641203	0.008012	-0.630030
H195	H	1.974536	0.341345	-0.296697
Cl196	Cl	1.380315	-0.462193	-0.862384
Cl197	Cl	1.713648	-0.128860	-0.529051
Cl198	Cl	2.046982	0.204473	-0.195718
H199	H	1.064567	-0.372375	-0.952576
H200	H	1.397901	-0.039041	-0.619243
H201	H	1.731234	0.294292	-0.285909
