data_functionalizedCrystal
_audit_creation_method	'MofGen! by Chris Wilmer'
_symmetry_space_group_name_H-M	'P1'
_symmetry_Int_Tables_number	1
_symmetry_cell_setting	triclinic
loop_
_symmetry_equiv_pos_as_xyz
  x,y,z
_cell_length_a	8.497374
_cell_length_b	10.686220
_cell_length_c	10.686285
_cell_angle_alpha	89.654569
_cell_angle_beta	85.626860
_cell_angle_gamma	85.634072
loop_
_atom_site_label
_atom_site_type_symbol
_atom_site_fract_x
_atom_site_fract_y
_atom_site_fract_z
Zn1	Zn	0.670936	1.956019	0.352260
Zn2	Zn	0.385530	1.972080	0.561976
Zn3	Zn	0.425706	1.746303	0.368352
Zn4	Zn	0.667804	1.762345	0.578080
O5	O	0.537494	1.859187	0.465167
O6	O	0.617574	2.133691	0.366604
O7	O	0.170096	1.942138	0.536286
O8	O	0.476361	1.760688	0.190679
O9	O	0.407887	2.145490	0.520682
O10	O	0.656531	1.914765	0.178855
O11	O	0.199614	1.776261	0.394032
O12	O	0.473323	1.572890	0.409648
O13	O	0.888982	1.788028	0.548130
O14	O	0.651192	1.584676	0.563734
O15	O	0.891283	1.930319	0.382220
O16	O	0.404849	1.957693	0.739651
O17	O	0.612235	1.803601	0.751483
C18	C	0.566278	1.533267	0.490185
C19	C	0.578626	1.393839	0.500919
C20	C	0.503874	1.884165	0.791080
C21	C	0.489534	1.894965	0.930498
C22	C	0.948975	1.859177	0.465170
C23	C	1.127617	1.859181	0.465183
C24	C	0.508598	2.186379	0.440052
C25	C	0.496284	2.325809	0.429349
C26	C	0.571276	1.834145	0.137979
C27	C	0.585673	1.823474	-0.001449
H28	H	0.658565	1.345411	0.570415
O29	O	0.696926	1.740705	0.940622
C30	C	0.813040	1.654030	0.744182
C31	C	0.686999	1.747838	0.809634
H32	H	0.805035	1.659746	0.638270
H33	H	0.935769	1.677929	0.768040
H34	H	0.791552	1.554891	0.777803
H35	H	0.708339	1.847010	0.776050
H36	H	0.564313	1.723831	0.785778
O37	O	0.378465	1.978015	0.988252
C38	C	0.327487	2.158723	1.123173
C39	C	0.453418	2.064752	1.057831
H40	H	0.388036	2.228858	1.179465
H41	H	0.257466	2.210904	1.049542
H42	H	0.243707	2.105909	1.188961
H43	H	0.537302	2.117470	0.992050
H44	H	0.523322	2.012572	1.131531
O45	O	0.401040	1.383763	0.346473
C46	C	0.301359	1.580249	0.259940
C47	C	0.409312	1.514766	0.353828
H48	H	0.307984	1.686177	0.265873
H49	H	0.341946	1.546894	0.160747
H50	H	0.174125	1.556147	0.283756
H51	H	0.536574	1.538838	0.330127
H52	H	0.368591	1.548126	0.452994
