data_functionalizedCrystal
_audit_creation_method	'MofGen! by Chris Wilmer'
_symmetry_space_group_name_H-M	'P1'
_symmetry_Int_Tables_number	1
_symmetry_cell_setting	triclinic
loop_
_symmetry_equiv_pos_as_xyz
  x,y,z
_cell_length_a	19.377625
_cell_length_b	19.377372
_cell_length_c	20.875641
_cell_angle_alpha	45.922737
_cell_angle_beta	75.529509
_cell_angle_gamma	62.432966
loop_
_atom_site_label
_atom_site_type_symbol
_atom_site_fract_x
_atom_site_fract_y
_atom_site_fract_z
Zr1	Zr	0.818306	0.814733	-0.424022
O2	O	0.728784	0.972546	-0.535677
O3	O	0.827479	0.661418	-0.367468
O4	O	0.850205	0.824162	-0.539656
O5	O	0.708915	0.800797	-0.253061
O6	O	0.966767	0.826482	-0.568191
O7	O	0.706058	0.809803	-0.363489
O8	O	0.926114	0.535365	-0.260178
O9	O	0.749568	1.091914	-0.561073
O10	O	0.940454	0.724545	-0.391617
O11	O	0.855597	0.716092	-0.287910
O12	O	0.882354	0.907701	-0.490639
O13	O	0.797497	0.899248	-0.386932
Zr14	Zr	1.008765	0.804071	-0.293411
Zr15	Zr	1.004209	0.818434	-0.469532
Zr16	Zr	0.822862	0.800370	-0.247901
Zr17	Zr	0.851453	1.005113	-0.464526
Zr18	Zr	0.975618	0.613692	-0.252907
O19	O	0.999593	0.957386	-0.349965
O20	O	0.993114	0.977809	-0.600386
O21	O	0.735262	0.952123	-0.285256
O22	O	1.098287	0.646259	-0.181757
O23	O	1.091809	0.666681	-0.432177
O24	O	0.833957	0.640996	-0.117047
O25	O	1.118156	0.818008	-0.464373
O26	O	0.976866	0.794643	-0.177778
O27	O	0.860304	0.792322	-0.149243
O28	O	1.121013	0.809002	-0.353944
O29	O	0.897336	1.094857	-0.597247
O30	O	0.929735	0.523948	-0.120186
O31	O	1.077503	0.526890	-0.156361
O32	O	1.073882	0.538307	-0.296353
O33	O	0.753189	1.080498	-0.421081
O34	O	0.900957	1.083440	-0.457255
O35	O	0.944717	0.711103	-0.226794
O36	O	1.029574	0.719556	-0.330501
O37	O	0.971475	0.902712	-0.429523
O38	O	0.886618	0.894259	-0.325816
C39	C	0.872074	0.571267	-0.308052
C40	C	0.858002	0.490446	-0.290857
C41	C	1.033200	0.246682	-0.504956
C42	C	1.019966	0.170736	-0.488783
C43	C	0.931382	0.161921	-0.380521
C44	C	0.944605	0.237872	-0.396688
C45	C	0.995515	0.280246	-0.458905
C46	C	0.906921	0.271436	-0.350638
C47	C	0.920146	0.347376	-0.366800
C48	C	0.971055	0.389752	-0.429013
C49	C	1.008740	0.356186	-0.475068
C50	C	0.856015	0.229055	-0.288416
C51	C	0.818331	0.262618	-0.242365
C52	C	0.831551	0.338565	-0.258532
C53	C	0.882461	0.380942	-0.320745
C54	C	0.793866	0.372132	-0.212477
C55	C	0.807091	0.448072	-0.228640
C56	C	0.895686	0.456882	-0.336907
C57	C	0.680999	0.804772	-0.301791
C58	C	0.602079	0.803201	-0.282470
C59	C	0.334636	0.822796	-0.523054
C60	C	0.260481	0.821309	-0.504873
C61	C	0.263649	0.811387	-0.383209
C62	C	0.337804	0.812878	-0.401382
C63	C	0.373292	0.818581	-0.471305
C64	C	0.376460	0.808663	-0.349634
C65	C	0.450610	0.810148	-0.367803
C66	C	0.486104	0.815848	-0.437721
C67	C	0.447442	0.820066	-0.489474
C68	C	0.340973	0.802953	-0.279707
C69	C	0.379629	0.798738	-0.227959
C70	C	0.453778	0.800231	-0.246132
C71	C	0.489272	0.805930	-0.316050
C72	C	0.492441	0.796013	-0.194378
C73	C	0.566591	0.797498	-0.212548
C74	C	0.563423	0.807416	-0.334219
C75	C	1.146072	0.814032	-0.415643
C76	C	1.224993	0.815603	-0.434963
C77	C	0.907837	0.827368	-0.579016
C78	C	0.905902	0.833466	-0.653784
C79	C	0.954998	1.047538	-0.409381
C80	C	0.969070	1.128359	-0.426576
C81	C	0.935322	0.740728	-0.637225
C82	C	0.933499	0.746463	-0.707479
C83	C	0.902260	0.844938	-0.794294
C84	C	0.872836	0.937684	-0.810852
C85	C	0.874655	0.931947	-0.740597
C86	C	0.893563	0.872347	-1.009952
C87	C	0.891749	0.878077	-1.080209
C88	C	0.952411	0.686855	-0.976831
C89	C	0.954231	0.681128	-0.906580
C90	C	0.924803	0.773873	-0.923143
N91	N	0.900398	0.850803	-0.866107
N92	N	0.926661	0.768007	-0.851329
C93	C	0.919235	0.791436	-0.138417
C94	C	0.921169	0.785338	-0.063649
C95	C	1.104610	0.575896	-0.364978
C96	C	1.169459	0.496647	-0.367104
C97	C	0.877773	0.553300	-0.087752
C98	C	0.865635	0.466382	0.004210
C99	C	1.110309	0.557930	-0.144679
C100	C	1.177092	0.472583	-0.072036
C101	C	0.716762	1.060874	-0.572755
C102	C	0.649979	1.146221	-0.645397
C103	C	0.722461	1.042908	-0.352455
C104	C	0.657613	1.122158	-0.350330
C105	C	0.949299	1.065504	-0.629681
C106	C	0.961436	1.152423	-0.721644
C107	C	1.153392	0.462035	-0.400011
C108	C	1.214319	0.387583	-0.402025
C109	C	1.291311	0.347739	-0.371125
C110	C	1.307377	0.382358	-0.338217
C111	C	1.246452	0.456814	-0.336210
C112	C	0.906455	0.422959	0.079306
C113	C	0.895049	0.341300	0.165720
C114	C	0.842827	0.303060	0.177036
C115	C	0.802002	0.346490	0.101932
C116	C	0.813404	0.428153	0.015520
C117	C	1.252756	0.436915	-0.092058
C118	C	1.315515	0.356734	-0.023813
C119	C	1.302606	0.312216	0.064454
C120	C	1.226934	0.347891	0.084475
C121	C	1.164179	0.428076	0.016230
C122	C	0.574317	1.181898	-0.625377
C123	C	0.511562	1.262103	-0.693627
C124	C	0.524471	1.306625	-0.781895
C125	C	0.600142	1.270945	-0.801915
C126	C	0.662896	1.190747	-0.733667
C127	C	0.673680	1.156778	-0.317432
C128	C	0.612757	1.231252	-0.315442
C129	C	0.535765	1.271099	-0.346345
C130	C	0.519699	1.236477	-0.379248
C131	C	0.580622	1.162009	-0.381243
C132	C	1.013664	1.190637	-0.732930
C133	C	1.025084	1.272296	-0.819334
C134	C	0.984271	1.315744	-0.894450
C135	C	0.932041	1.277522	-0.883160
C136	C	0.920626	1.195860	-0.796758
H137	H	1.050191	0.390697	-0.525739
C138	C	0.562932	1.123923	-0.417423
N139	N	0.549602	1.095238	-0.444673
C140	C	0.567672	0.817484	-0.457709
N141	N	0.629108	0.818720	-0.472765
H142	H	0.776882	0.228104	-0.191705
H143	H	0.960763	0.660538	-0.566540
C144	C	0.614328	1.319922	-0.899015
N145	N	0.625009	1.356806	-0.972151
C146	C	0.373675	0.829077	-0.599976
N147	N	0.403079	0.833805	-0.657911
H148	H	0.473366	1.371927	-0.837458
C149	C	1.061430	0.133815	-0.539443
N150	N	1.092662	0.106003	-0.577597
C151	C	0.863159	1.153847	-0.784356
N152	N	0.819870	1.122210	-0.775021
H153	H	0.476334	0.824722	-0.546419
C154	C	0.737871	0.325506	-0.144036
N155	N	0.695694	0.290388	-0.092486
H156	H	0.724502	1.161700	-0.749978
H157	H	0.928299	0.305948	0.226863
H158	H	0.889934	0.127407	-0.329861
H159	H	0.833550	0.236564	0.247404
C160	C	0.630446	1.269315	-0.279235
N161	N	0.643772	1.297979	-0.251962
H162	H	1.102570	0.457106	0.032546
C163	C	1.082537	1.314329	-0.831733
N164	N	1.125810	1.345987	-0.841069
C165	C	1.068706	0.505856	-0.434013
N166	N	1.004922	0.538864	-0.459631
H167	H	0.563790	1.145652	-0.553509
H168	H	1.370072	0.349906	-0.313060
C169	C	0.217956	0.825964	-0.561816
N170	N	0.185925	0.829474	-0.604707
H171	H	0.850695	1.007464	-0.754085
H172	H	1.353713	0.246924	0.120015
H173	H	0.598065	0.794064	-0.170408
C174	C	0.224617	0.805073	-0.306274
N175	N	0.195222	0.800305	-0.248319
H176	H	1.216435	0.311633	0.156351
H177	H	1.201222	0.359406	-0.428821
C178	C	0.965858	0.644443	-0.689255
N179	N	0.990231	0.567596	-0.675525
H180	H	0.845249	0.167220	-0.275259
H181	H	0.736366	1.124339	-0.292260
H182	H	0.979672	0.600939	-0.835895
C183	C	1.264137	0.494868	-0.299996
N184	N	1.277463	0.523524	-0.272716
C185	C	0.434999	1.280304	-0.413222
N186	N	0.371201	1.313308	-0.438801
C187	C	0.744563	0.304408	0.114395
N188	N	0.701303	0.272705	0.123785
C189	C	1.089200	0.293302	-0.573402
N190	N	1.131379	0.328415	-0.624952
C191	C	0.996836	1.405577	-0.989491
N192	N	1.006301	1.473241	-1.061073
H193	H	0.898814	1.312911	-0.944332
H194	H	0.976368	0.611348	-0.963355
H195	H	1.340913	0.287111	-0.372763
C196	C	1.398745	0.317497	-0.045854
N197	N	1.461433	0.287944	-0.062457
H198	H	0.780164	0.463498	-0.045622
H199	H	0.937136	0.491393	-0.387578
C200	C	0.468755	1.353011	-0.344138
N201	N	0.418285	1.414703	-0.342470
C202	C	0.963901	0.465013	0.066880
N203	N	1.007166	0.496688	0.057528
H204	H	1.263281	0.473151	-0.163925
C205	C	0.453409	0.789691	-0.117440
N206	N	0.424015	0.784916	-0.059482
H207	H	0.449953	1.291140	-0.677309
C208	C	0.340597	0.792424	-0.151024
N209	N	0.311202	0.787656	-0.093069
C210	C	0.765627	0.485006	-0.177992
N211	N	0.734394	0.512826	-0.139844
C212	C	0.857396	0.986412	-1.175714
N213	N	0.831529	1.068006	-1.247647
H214	H	1.046901	1.155273	-0.671777
C215	C	0.838473	1.046008	-0.906351
N216	N	0.812593	1.127599	-0.978283
H217	H	0.981820	0.451591	-0.442174
H218	H	0.592315	0.812071	-0.391163
H219	H	0.280597	0.801739	-0.264915
C220	C	0.861202	0.974371	-1.028185
N221	N	0.836829	1.051220	-1.041919
