data_functionalizedCrystal
_audit_creation_method	'MofGen! by Chris Wilmer'
_symmetry_space_group_name_H-M	'P1'
_symmetry_Int_Tables_number	1
_symmetry_cell_setting	triclinic
loop_
_symmetry_equiv_pos_as_xyz
  x,y,z
_cell_length_a	17.666332
_cell_length_b	9.065218
_cell_length_c	9.065218
_cell_angle_alpha	94.984115
_cell_angle_beta	89.995443
_cell_angle_gamma	90.009401
loop_
_atom_site_label
_atom_site_type_symbol
_atom_site_fract_x
_atom_site_fract_y
_atom_site_fract_z
O1	O	-0.062947	-1.960412	0.216360
O2	O	-0.062948	-1.531127	0.234106
O3	O	-0.062946	-1.754642	0.010590
O4	O	-0.062949	-1.736896	0.439875
O5	O	0.062951	-1.754603	0.010578
O6	O	0.062949	-1.531087	0.234093
O7	O	0.062950	-1.960372	0.216347
Cu8	Cu	0.074445	-1.745726	0.225219
Cu9	Cu	-0.074443	-1.745773	0.225234
O10	O	0.062948	-1.736856	0.439863
C11	C	0.000001	-1.476120	0.232394
C12	C	0.000000	-1.312277	0.227294
N13	N	0.179164	-1.745703	0.225208
N14	N	-0.179162	-1.745807	0.225234
C15	C	0.218775	-1.844709	0.126285
C16	C	0.298022	-1.844718	0.126278
C17	C	0.337656	-1.745735	0.225219
C18	C	0.298036	-1.646710	0.324150
C19	C	0.218790	-1.646694	0.324144
N20	N	0.462074	-1.728697	0.355532
N21	N	0.537355	-1.728720	0.355533
C22	C	0.576420	-1.745774	0.225241
N23	N	0.537362	-1.762832	0.094943
N24	N	0.462075	-1.762816	0.094943
C25	C	0.423586	-1.745740	0.225236
C26	C	0.701960	-1.844794	0.126302
C27	C	0.781209	-1.844793	0.126292
C28	C	0.781222	-1.646792	0.324178
C29	C	0.701974	-1.646787	0.324174
C30	C	0.662348	-1.745796	0.225238
C31	C	0.000001	-1.752917	-0.044403
C32	C	-0.000002	-1.747817	-0.208245
C33	C	-0.000000	-2.015378	0.218059
C34	C	-0.000005	-2.179221	0.223158
C35	C	-0.000001	-1.738582	0.494855
C36	C	-0.000002	-1.743681	0.658698
H37	H	0.186514	-1.925324	0.045721
H38	H	0.813491	-1.566193	0.404732
H39	H	0.669721	-1.566173	0.404733
Br40	Br	0.351789	-1.979092	-0.007989
Br41	Br	0.834971	-1.979155	-0.007984
Br42	Br	0.351822	-1.512363	0.458419
H43	H	0.186538	-1.566070	0.404701
Br44	Br	0.648180	-1.979157	-0.007972
