data_functionalizedCrystal
_audit_creation_method	'MofGen! by Chris Wilmer'
_symmetry_space_group_name_H-M	'P1'
_symmetry_Int_Tables_number	1
_symmetry_cell_setting	triclinic
loop_
_symmetry_equiv_pos_as_xyz
  x,y,z
_cell_length_a	6.817900
_cell_length_b	14.858329
_cell_length_c	10.992743
_cell_angle_alpha	93.418789
_cell_angle_beta	108.770538
_cell_angle_gamma	104.519616
loop_
_atom_site_label
_atom_site_type_symbol
_atom_site_fract_x
_atom_site_fract_y
_atom_site_fract_z
V1	V	-4.092607	-0.128642	-0.400955
V2	V	-3.592607	0.371358	0.099045
O3	O	-4.073469	0.006211	-0.392946
O4	O	-3.573469	0.506211	0.107054
O5	O	-4.048864	-0.255103	-0.398575
O6	O	-3.548864	0.244897	0.101425
O7	O	-4.070555	-0.126650	-0.575660
O8	O	-3.570555	0.373350	-0.075660
O9	O	-4.051628	-0.123131	-0.214635
O10	O	-3.551628	0.376869	0.285365
V11	V	-4.572217	-0.112513	-0.378626
V12	V	-4.072217	0.387487	0.121374
O13	O	-4.362448	-0.164021	-0.449936
O14	O	-3.862448	0.335979	0.050064
O15	O	-4.752573	-0.077134	-0.329644
O16	O	-4.252573	0.422866	0.170356
O17	O	-4.392752	0.013948	-0.381006
O18	O	-3.892752	0.513948	0.118994
O19	O	-4.708751	-0.247366	-0.386635
O20	O	-4.208751	0.252634	0.113365
O21	O	-4.730592	-0.118024	-0.564946
O22	O	-4.230592	0.381976	-0.064946
O23	O	-4.371062	-0.114505	-0.203921
O24	O	-3.871062	0.385495	0.296079
C25	C	-3.894146	-0.285932	-0.392344
C26	C	-3.394146	0.214068	0.107656
C27	C	-3.939844	-0.389316	-0.391562
C28	C	-3.439844	0.110684	0.108438
C29	C	-3.976948	-0.473274	-0.390916
C30	C	-3.476948	0.026726	0.109084
C31	C	-4.023517	-0.578604	-0.390111
C32	C	-3.523517	-0.078604	0.109889
C33	C	-4.060650	-0.662556	-0.389471
C34	C	-3.560650	-0.162556	0.110529
C35	C	-4.107221	-0.767892	-0.388664
C36	C	-3.607221	-0.267892	0.111336
C37	C	-3.921813	-0.122076	-0.618231
C38	C	-3.421813	0.377924	-0.118231
C39	C	-3.985097	-0.121285	-0.761056
C40	C	-3.485097	0.378715	-0.261056
C41	C	-4.296719	-0.126129	-0.972163
C42	C	-3.796719	0.373871	-0.472163
C43	C	-4.230856	-0.126595	-0.823532
C44	C	-3.730856	0.373405	-0.323532
C45	C	-3.850325	-0.028986	-0.791568
C46	C	-3.350325	0.471014	-0.291568
C47	C	-3.917531	-0.028132	-0.940208
C48	C	-3.417531	0.471868	-0.440208
C49	C	-4.009942	-0.205685	-0.978984
C50	C	-3.509942	0.294315	-0.478984
C51	C	-3.948913	-0.207785	-0.830776
C52	C	-3.448913	0.292215	-0.330776
C53	C	-4.210813	0.044772	-0.387234
C54	C	-3.710813	0.544772	0.112766
C55	C	-4.144354	0.148155	-0.388023
C56	C	-3.644354	0.648155	0.111977
C57	C	-4.183145	-0.119082	-0.161343
C58	C	-3.683145	0.380918	0.338657
C59	C	-4.099099	-0.119869	-0.018517
C60	C	-3.599099	0.380131	0.481483
H61	H	-4.335895	-0.192934	-0.804123
H62	H	-3.835895	0.307066	-0.304123
F63	F	-3.992246	0.056700	-0.970149
F64	F	-3.492246	0.556700	-0.470149
F65	F	-3.881307	0.055002	-0.727559
F66	F	-3.381307	0.555002	-0.227559
F67	F	-3.723044	-0.017192	-0.978452
F68	F	-3.223044	0.482808	-0.478452
H69	H	-4.134314	-0.274895	-1.033771
H70	H	-3.634314	0.225105	-0.533771
H71	H	-4.434392	-0.192111	-1.024988
H72	H	-3.934392	0.307889	-0.524988
H73	H	-3.669932	-0.021738	-0.749680
H74	H	-3.169932	0.478262	-0.249680
H75	H	-4.365078	-0.064492	-0.998718
H76	H	-3.865078	0.435508	-0.498718
H77	H	-4.049507	-0.276011	-0.812813
H78	H	-3.549507	0.223989	-0.312813
F79	F	-3.719944	-0.209750	-0.776217
F80	F	-3.219944	0.290250	-0.276217
H81	H	-3.862356	-0.201840	-1.008154
H82	H	-3.362356	0.298160	-0.508154
H83	H	-4.267025	-0.064926	-0.777110
H84	H	-3.767025	0.435074	-0.277110
