data_functionalizedCrystal
_audit_creation_method	'MofGen! by Chris Wilmer'
_symmetry_space_group_name_H-M	'P1'
_symmetry_Int_Tables_number	1
_symmetry_cell_setting	triclinic
loop_
_symmetry_equiv_pos_as_xyz
  x,y,z
_cell_length_a	16.109301
_cell_length_b	19.288840
_cell_length_c	18.366186
_cell_angle_alpha	90.016305
_cell_angle_beta	90.006550
_cell_angle_gamma	83.293748
loop_
_atom_site_label
_atom_site_type_symbol
_atom_site_fract_x
_atom_site_fract_y
_atom_site_fract_z
O1	O	0.103615	0.921611	0.060674
O2	O	0.603615	1.421611	0.560674
O3	O	0.117628	0.719382	0.060649
O4	O	0.617628	1.219382	0.560649
O5	O	-0.010429	0.826052	0.060654
O6	O	0.489571	1.326052	0.560654
O7	O	0.231672	0.814941	0.060668
O8	O	0.731672	1.314941	0.560668
O9	O	-0.010432	0.826034	-0.060445
O10	O	0.489568	1.326034	0.439555
O11	O	0.117625	0.719363	-0.060451
O12	O	0.617625	1.219363	0.439549
O13	O	0.103612	0.921593	-0.060426
O14	O	0.603612	1.421593	0.439574
Zn15	Zn	0.110618	0.820475	-0.079665
Zn16	Zn	0.610618	1.320475	0.420335
Zn17	Zn	0.110622	0.820500	0.079888
Zn18	Zn	0.610622	1.320500	0.579888
O19	O	0.231669	0.814923	-0.060432
O20	O	0.731669	1.314923	0.439568
C21	C	0.117179	0.693495	0.000096
C22	C	0.617179	1.193495	0.500096
C23	C	0.115836	0.616387	0.000086
C24	C	0.615836	1.116387	0.500086
C25	C	0.115193	0.580192	0.066099
C26	C	0.615193	1.080192	0.566099
C27	C	0.113921	0.507742	0.066108
C28	C	0.613921	1.007742	0.566108
C29	C	0.113277	0.471492	0.000100
C30	C	0.613277	0.971492	0.500100
C31	C	0.113925	0.507695	-0.065922
C32	C	0.613925	1.007695	0.434078
C33	C	0.115204	0.580143	-0.065929
C34	C	0.615204	1.080143	0.434071
C35	C	0.062550	0.362035	-0.050464
C36	C	0.562550	0.862035	0.449536
C37	C	0.061266	0.289589	-0.050455
C38	C	0.561266	0.789589	0.449545
C39	C	0.109334	0.248039	0.000119
C40	C	0.609334	0.748039	0.500119
C41	C	0.158676	0.278944	0.050694
C42	C	0.658676	0.778944	0.550694
C43	C	0.159956	0.351391	0.050687
C44	C	0.659956	0.851391	0.550687
C45	C	0.111890	0.392934	0.000100
C46	C	0.611890	0.892934	0.500100
C47	C	0.107313	0.133285	0.066146
C48	C	0.607313	0.633285	0.566146
C49	C	0.106047	0.060833	0.066152
C50	C	0.606047	0.560833	0.566152
C51	C	0.106042	0.060788	-0.065880
C52	C	0.606042	0.560788	0.434120
C53	C	0.107317	0.133238	-0.065884
C54	C	0.607317	0.633238	0.434116
C55	C	0.107948	0.169482	0.000131
C56	C	0.607948	0.669482	0.500131
C57	C	-0.041404	0.825593	0.000104
C58	C	0.458596	1.325593	0.500104
C59	C	-0.133694	0.824243	0.000103
C60	C	0.366306	1.324243	0.500103
C61	C	-0.356179	0.884402	0.000122
C62	C	0.143821	1.384402	0.500122
C63	C	-0.442895	0.883129	0.000128
C64	C	0.057105	1.383129	0.500128
C65	C	-0.422574	0.756568	0.000109
C66	C	0.077426	1.256568	0.500109
C67	C	-0.335860	0.757842	0.000109
C68	C	0.164140	1.257842	0.500109
C69	C	-0.302665	0.821761	0.000111
C70	C	0.197335	1.321761	0.500111
C71	C	-0.476095	0.819214	0.000118
C72	C	0.023905	1.319214	0.500118
C73	C	-0.570116	0.817833	0.000124
C74	C	-0.070116	1.317833	0.500124
C75	C	-0.208638	0.823142	0.000106
C76	C	0.291362	1.323142	0.500106
C77	C	0.262644	0.815382	0.000120
C78	C	0.762644	1.315382	0.500120
C79	C	0.354934	0.816731	0.000126
C80	C	0.854934	1.316731	0.500126
C81	C	0.104061	0.947480	0.000129
C82	C	0.604061	1.447480	0.500129
C83	C	0.105404	1.024588	0.000143
C84	C	0.605404	1.524588	0.500143
N85	N	0.110614	0.820464	-0.188557
N86	N	0.610614	1.320464	0.311443
C87	C	0.160911	0.862572	-0.226642
C88	C	0.660911	1.362572	0.273358
C89	C	0.160908	0.862583	-0.302870
C90	C	0.660908	1.362583	0.197130
C91	C	0.110619	0.820473	-0.341009
C92	C	0.610619	1.320473	0.158991
C93	C	0.060312	0.778363	-0.302914
C94	C	0.560312	1.278363	0.197086
C95	C	0.060309	0.778358	-0.226688
C96	C	0.560309	1.278358	0.273312
C97	C	0.108523	0.757856	-0.461798
C98	C	0.608523	1.257856	0.038202
C99	C	0.108531	0.757859	-0.538023
C100	C	0.608531	1.257859	-0.038023
C101	C	0.110622	0.820489	-0.576117
C102	C	0.610622	1.320489	-0.076117
C103	C	0.112721	0.883116	-0.537976
C104	C	0.612721	1.383116	-0.037976
C105	C	0.112719	0.883112	-0.461750
C106	C	0.612719	1.383112	0.038250
C107	C	0.110616	0.820474	-0.423664
C108	C	0.610616	1.320474	0.076336
C109	C	0.160919	0.862613	-0.696858
C110	C	0.660919	1.362613	-0.196858
C111	C	0.160910	0.862626	-0.773087
C112	C	0.660910	1.362626	-0.273087
C113	C	0.060319	0.778399	-0.773129
C114	C	0.560319	1.278399	-0.273129
C115	C	0.060322	0.778392	-0.696902
C116	C	0.560322	1.278392	-0.196902
C117	C	0.110627	0.820498	-0.658770
C118	C	0.610627	1.320498	-0.158770
N119	N	0.110619	0.820517	0.188779
N120	N	0.610619	1.320517	0.688779
H121	H	0.200134	0.376551	0.091866
H122	H	0.700134	0.876551	0.591866
C123	C	-0.459088	0.686261	0.000104
C124	C	0.040912	1.186261	0.500104
H125	H	-0.414795	0.649137	0.000106
H126	H	0.085205	1.149137	0.500106
H127	H	-0.492499	0.683125	-0.042125
H128	H	0.007501	1.183125	0.457875
H129	H	-0.492485	0.683142	0.042341
H130	H	0.007515	1.183142	0.542341
C131	C	0.105608	0.020892	-0.138487
C132	C	0.605608	0.520892	0.361513
H133	H	0.104833	-0.027449	-0.129029
H134	H	0.604833	0.472551	0.370971
H135	H	0.154373	0.027517	-0.165456
H136	H	0.654373	0.527517	0.334544
H137	H	0.057419	0.037977	-0.165767
H138	H	0.557419	0.537977	0.334233
C139	C	0.105335	0.021019	0.138770
C140	C	0.605335	0.521019	0.638770
H141	H	0.105886	0.052985	0.178082
H142	H	0.605886	0.552985	0.678082
H143	H	0.153308	-0.012558	0.141528
H144	H	0.653308	0.487442	0.641528
H145	H	0.056357	-0.001925	0.141507
H146	H	0.556357	0.498075	0.641507
C147	C	0.211557	0.233247	0.106326
C148	C	0.711557	0.733247	0.606326
H149	H	0.203739	0.185673	0.099083
H150	H	0.703739	0.685673	0.599083
H151	H	0.194648	0.247012	0.154247
H152	H	0.694648	0.747012	0.654247
H153	H	0.268914	0.238856	0.099956
H154	H	0.768914	0.738856	0.599956
H155	H	-0.292286	0.706829	0.000102
H156	H	0.207714	1.206829	0.500102
H157	H	0.115729	0.609612	-0.119686
H158	H	0.615729	1.109612	0.380314
C159	C	0.108023	0.173155	0.138757
C160	C	0.608023	0.673155	0.638757
H161	H	0.107472	0.141218	0.178075
H162	H	0.607472	0.641218	0.678075
H163	H	0.060050	0.206733	0.141501
H164	H	0.560050	0.706733	0.641501
H165	H	0.157002	0.196101	0.141496
H166	H	0.657002	0.696101	0.641496
H167	H	0.115707	0.609698	0.119854
H168	H	0.615707	1.109698	0.619854
H169	H	0.113399	0.478266	0.119865
H170	H	0.613399	0.978266	0.619865
C171	C	0.108014	0.173056	-0.138499
C172	C	0.608014	0.673056	0.361501
H173	H	0.107441	0.141093	-0.177811
H174	H	0.607441	0.641093	0.322189
H175	H	0.156984	0.196002	-0.141245
H176	H	0.656984	0.696002	0.358755
H177	H	0.060032	0.206631	-0.141247
H178	H	0.560032	0.706631	0.358753
C179	C	0.115016	0.951996	-0.419797
C180	C	0.615016	1.451996	0.080203
H181	H	0.116255	0.989301	-0.453396
H182	H	0.616255	1.489301	0.046604
H183	H	0.163558	0.948763	-0.390053
H184	H	0.663558	1.448763	0.109947
H185	H	0.066633	0.960429	-0.390068
H186	H	0.566633	1.460429	0.109932
H187	H	-0.486463	0.934137	0.000138
H188	H	0.013537	1.434137	0.500138
H189	H	0.201869	0.896861	-0.195601
H190	H	0.701869	1.396861	0.304399
H191	H	0.201879	0.896899	-0.665809
H192	H	0.701879	1.396899	-0.165809
C193	C	0.216238	0.908900	-0.344777
C194	C	0.716238	1.408900	0.155223
H195	H	0.209030	0.902875	-0.395636
H196	H	0.709030	1.402875	0.104364
H197	H	0.273164	0.895976	-0.332283
H198	H	0.773164	1.395976	0.167717
H199	H	0.200640	0.956431	-0.332272
H200	H	0.700640	1.456431	0.167728
H201	H	0.021084	0.264433	-0.091633
H202	H	0.521084	0.764433	0.408367
H203	H	0.023405	0.395861	-0.091650
H204	H	0.523405	0.895861	0.408350
H205	H	0.113402	0.478175	-0.119666
H206	H	0.613402	0.978175	0.380334
H207	H	0.114428	0.934115	-0.568990
H208	H	0.614428	1.434115	-0.068990
C209	C	0.216241	0.908944	-0.814985
C210	C	0.716241	1.408944	-0.314985
H211	H	0.209033	0.902923	-0.865844
H212	H	0.709033	1.402923	-0.365844
H213	H	0.273167	0.896017	-0.802491
H214	H	0.773167	1.396017	-0.302491
H215	H	0.200646	0.956474	-0.802476
H216	H	0.700646	1.456474	-0.302476
C217	C	0.005002	0.732078	-0.815073
C218	C	0.505002	1.232078	-0.315073
H219	H	0.012209	0.738108	-0.865926
H220	H	0.512209	1.238108	-0.365926
H221	H	-0.051926	0.744996	-0.802583
H222	H	0.448074	1.244996	-0.302583
H223	H	0.020606	0.684548	-0.802597
H224	H	0.520606	1.184548	-0.302597
C225	C	-0.319667	0.954709	0.000133
C226	C	0.180333	1.454709	0.500133
H227	H	-0.363961	0.991833	0.000147
H228	H	0.136039	1.491833	0.500147
H229	H	-0.286267	0.957835	-0.042096
H230	H	0.213733	1.457835	0.457904
H231	H	-0.286258	0.957840	0.042369
H232	H	0.213742	1.457840	0.542369
C233	C	0.005005	0.732064	-0.655005
C234	C	0.505005	1.232064	-0.155005
H235	H	-0.024941	0.706982	-0.688635
H236	H	0.475059	1.206982	-0.188635
H237	H	-0.033349	0.760532	-0.625261
H238	H	0.466651	1.260532	-0.125261
H239	H	0.039184	0.700085	-0.625279
H240	H	0.539184	1.200085	-0.125279
C241	C	0.106225	0.688975	-0.579975
C242	C	0.606225	1.188975	-0.079975
H243	H	0.106537	0.697945	-0.630827
H244	H	0.606537	1.197945	-0.130827
H245	H	0.056903	0.669081	-0.567498
H246	H	0.556903	1.169081	-0.067498
H247	H	0.153828	0.657403	-0.567485
H248	H	0.653828	1.157403	-0.067485
C249	C	0.106228	0.688958	-0.419903
C250	C	0.606228	1.188958	0.080097
H251	H	0.104992	0.651661	-0.453533
H252	H	0.604992	1.151661	0.046467
H253	H	0.057683	0.692185	-0.390169
H254	H	0.557683	1.192185	0.109831
H255	H	0.154608	0.680519	-0.390166
H256	H	0.654608	1.180519	0.109834
C257	C	0.004998	0.732041	-0.344864
C258	C	0.504998	1.232041	0.155136
H259	H	0.012210	0.738068	-0.395717
H260	H	0.512210	1.238068	0.104283
H261	H	-0.051931	0.744959	-0.332377
H262	H	0.448069	1.244959	0.167623
H263	H	0.020601	0.684511	-0.332385
H264	H	0.520601	1.184511	0.167615
H265	H	0.019351	0.744067	-0.195679
H266	H	0.519351	1.244067	0.304321
