data_functionalizedCrystal
_audit_creation_method	'MofGen! by Chris Wilmer'
_symmetry_space_group_name_H-M	'P1'
_symmetry_Int_Tables_number	1
_symmetry_cell_setting	triclinic
loop_
_symmetry_equiv_pos_as_xyz
  x,y,z
_cell_length_a	14.044220
_cell_length_b	14.044202
_cell_length_c	12.503572
_cell_angle_alpha	86.143857
_cell_angle_beta	93.847148
_cell_angle_gamma	93.190790
loop_
_atom_site_label
_atom_site_type_symbol
_atom_site_fract_x
_atom_site_fract_y
_atom_site_fract_z
O1	O	-1.272126	-0.235213	0.089243
O2	O	-1.022126	0.014787	0.339243
O3	O	-0.772126	0.264787	0.589243
O4	O	-0.522126	0.514787	0.839243
O5	O	-0.995453	-0.226909	0.089269
O6	O	-0.745453	0.023091	0.339269
O7	O	-0.495453	0.273091	0.589269
O8	O	-0.245453	0.523091	0.839269
O9	O	-1.129634	-0.092723	0.089228
O10	O	-0.879634	0.157277	0.339228
O11	O	-0.629634	0.407277	0.589228
O12	O	-0.379634	0.657277	0.839228
O13	O	-1.137945	-0.369399	0.089285
O14	O	-0.887945	-0.119399	0.339285
O15	O	-0.637945	0.130601	0.589285
O16	O	-0.387945	0.380601	0.839285
O17	O	-1.139729	-0.082619	-0.089417
O18	O	-0.889729	0.167381	0.160583
O19	O	-0.639729	0.417381	0.410583
O20	O	-0.389729	0.667381	0.660583
O21	O	-1.005548	-0.216804	-0.089376
O22	O	-0.755548	0.033196	0.160624
O23	O	-0.505548	0.283196	0.410624
O24	O	-0.255548	0.533196	0.660624
O25	O	-1.282221	-0.225109	-0.089402
O26	O	-1.032221	0.024891	0.160598
O27	O	-0.782221	0.274891	0.410598
O28	O	-0.532221	0.524891	0.660598
Cu29	Cu	-1.144806	-0.220034	-0.105700
Cu30	Cu	-0.894806	0.029966	0.144300
Cu31	Cu	-0.644806	0.279966	0.394300
Cu32	Cu	-0.394806	0.529966	0.644300
Cu33	Cu	-1.132868	-0.231984	0.105568
Cu34	Cu	-0.882868	0.018016	0.355568
Cu35	Cu	-0.632868	0.268016	0.605568
Cu36	Cu	-0.382868	0.518016	0.855568
O37	O	-1.148040	-0.359294	-0.089360
O38	O	-0.898040	-0.109294	0.160640
O39	O	-0.648040	0.140706	0.410640
O40	O	-0.398040	0.390706	0.660640
C41	C	-0.964878	-0.218221	-0.000050
C42	C	-0.714878	0.031779	0.249950
C43	C	-0.464878	0.281779	0.499950
C44	C	-0.214878	0.531779	0.749950
C45	C	-0.858735	-0.207377	-0.000042
C46	C	-0.608735	0.042623	0.249958
C47	C	-0.358735	0.292623	0.499958
C48	C	-0.108735	0.542623	0.749958
C49	C	-1.131045	-0.052049	-0.000100
C50	C	-0.881045	0.197951	0.249900
C51	C	-0.631045	0.447951	0.499900
C52	C	-0.381045	0.697951	0.749900
C53	C	-1.120197	0.054095	-0.000114
C54	C	-0.870197	0.304095	0.249886
C55	C	-0.620197	0.554095	0.499886
C56	C	-0.370197	0.804095	0.749886
C57	C	-1.312796	-0.233797	-0.000080
C58	C	-1.062796	0.016203	0.249920
C59	C	-0.812796	0.266203	0.499920
C60	C	-0.562796	0.516203	0.749920
C61	C	-1.418939	-0.244641	-0.000081
C62	C	-1.168939	0.005359	0.249919
C63	C	-0.918939	0.255359	0.499919
C64	C	-0.668939	0.505359	0.749919
C65	C	-0.664398	-0.187549	-0.000067
C66	C	-0.414398	0.062451	0.249933
C67	C	-0.164398	0.312451	0.499933
C68	C	0.085602	0.562451	0.749933
C69	C	-0.613270	-0.264465	-0.000056
C70	C	-0.363270	-0.014465	0.249944
C71	C	-0.113270	0.235535	0.499944
C72	C	0.136730	0.485535	0.749944
C73	C	-0.505134	-0.253432	-0.000070
C74	C	-0.255134	-0.003432	0.249930
C75	C	-0.005134	0.246568	0.499930
C76	C	0.244866	0.496568	0.749930
C77	C	-0.772543	-0.198580	-0.000053
C78	C	-0.522543	0.051420	0.249947
C79	C	-0.272543	0.301420	0.499947
C80	C	-0.022543	0.551420	0.749947
C81	C	-1.177294	0.299552	-0.000092
C82	C	-0.927294	0.549552	0.249908
C83	C	-0.677294	0.799552	0.499908
C84	C	-0.427294	1.049552	0.749908
C85	C	-1.100378	0.248427	-0.000089
C86	C	-0.850378	0.498427	0.249911
C87	C	-0.600378	0.748427	0.499911
C88	C	-0.350378	0.998427	0.749911
C89	C	-1.111408	0.140291	-0.000103
C90	C	-0.861408	0.390291	0.249897
C91	C	-0.611408	0.640291	0.499897
C92	C	-0.361408	0.890291	0.749897
C93	C	-1.166266	0.407698	-0.000078
C94	C	-0.916266	0.657698	0.249922
C95	C	-0.666266	0.907698	0.499922
C96	C	-0.416266	1.157698	0.749922
C97	C	-1.146628	0.600032	-0.000045
C98	C	-0.896628	0.850032	0.249955
C99	C	-0.646628	1.100032	0.499955
C100	C	-0.396628	1.350032	0.749955
C101	C	-1.157471	0.493890	-0.000067
C102	C	-0.907471	0.743890	0.249933
C103	C	-0.657471	0.993890	0.499933
C104	C	-0.407471	1.243890	0.749933
N105	N	-1.124471	-0.240382	0.254163
N106	N	-0.874471	0.009618	0.504163
N107	N	-0.624471	0.259618	0.754163
N108	N	-0.374471	0.509618	1.004163
N109	N	-1.153210	-0.211629	-0.254295
N110	N	-0.903210	0.038371	-0.004295
N111	N	-0.653210	0.288371	0.245705
N112	N	-0.403210	0.538371	0.495705
C113	C	-1.112111	-0.252735	0.473282
C114	C	-0.862111	-0.002735	0.723282
C115	C	-0.612111	0.247265	0.973282
C116	C	-0.362111	0.497265	1.223282
C117	C	-1.165567	-0.199279	0.526593
C118	C	-0.915567	0.050721	0.776593
C119	C	-0.665567	0.300721	1.026593
C120	C	-0.415567	0.550721	1.276593
C121	C	-1.158690	-0.206152	0.648518
C122	C	-0.908690	0.043848	0.898518
C123	C	-0.658690	0.293848	1.148518
C124	C	-0.408690	0.543848	1.398518
C125	C	-1.118987	-0.245863	0.351346
C126	C	-0.868987	0.004137	0.601346
C127	C	-0.618987	0.254137	0.851346
C128	C	-0.368987	0.504137	1.101346
H129	H	-0.650710	-0.338600	-0.000035
H130	H	-0.400710	-0.088600	0.249965
H131	H	-0.150710	0.161400	0.499965
H132	H	0.099290	0.411400	0.749965
Br133	Br	-0.976816	0.310829	-0.000076
Br134	Br	-0.726816	0.560829	0.249924
Br135	Br	-0.476816	0.810829	0.499924
Br136	Br	-0.226816	1.060829	0.749924
H137	H	-1.061184	-0.303659	0.519205
H138	H	-0.811184	-0.053659	0.769205
H139	H	-0.561184	0.196341	1.019205
H140	H	-0.311184	0.446341	1.269205
H141	H	-0.626960	-0.113420	-0.000088
H142	H	-0.376960	0.136580	0.249912
H143	H	-0.126960	0.386580	0.499912
H144	H	0.123040	0.636580	0.749912
Br145	Br	-1.300849	0.237149	-0.000115
Br146	Br	-1.050849	0.487149	0.249885
Br147	Br	-0.800849	0.737149	0.499885
Br148	Br	-0.550849	0.987149	0.749885
Br149	Br	-1.250452	-0.114394	0.450045
Br150	Br	-1.000452	0.135606	0.700045
Br151	Br	-0.750452	0.385606	0.950045
Br152	Br	-0.500452	0.635606	1.200045
