data_functionalizedCrystal
_audit_creation_method	'MofGen! by Chris Wilmer'
_symmetry_space_group_name_H-M	'P1'
_symmetry_Int_Tables_number	1
_symmetry_cell_setting	triclinic
loop_
_symmetry_equiv_pos_as_xyz
  x,y,z
_cell_length_a	11.169417
_cell_length_b	16.120256
_cell_length_c	11.169416
_cell_angle_alpha	92.880283
_cell_angle_beta	90.011219
_cell_angle_gamma	92.881592
loop_
_atom_site_label
_atom_site_type_symbol
_atom_site_fract_x
_atom_site_fract_y
_atom_site_fract_z
Zn1	Zn	1.800522	-0.471350	-0.512238
Zn2	Zn	2.300522	0.028650	-0.012238
Zn3	Zn	1.810597	-0.331951	-0.702758
Zn4	Zn	2.310597	0.168049	-0.202758
Zn5	Zn	1.609993	-0.331960	-0.502092
Zn6	Zn	2.109993	0.168040	-0.002092
Zn7	Zn	1.599817	-0.471327	-0.712879
Zn8	Zn	2.099817	0.028673	-0.212879
O9	O	1.705232	-0.401647	-0.607492
O10	O	2.205232	0.098353	-0.107492
O11	O	1.969808	-0.452864	-0.537521
O12	O	2.469808	0.047136	-0.037521
O13	O	1.792461	-0.215288	-0.667658
O14	O	2.292461	0.284712	-0.167658
O15	O	1.635309	-0.350463	-0.335489
O16	O	2.135309	0.149537	0.164511
O17	O	1.977210	-0.350449	-0.677496
O18	O	2.477210	0.149551	-0.177496
O19	O	1.775290	-0.452873	-0.342943
O20	O	2.275290	0.047127	0.157057
O21	O	1.645078	-0.215294	-0.520229
O22	O	2.145078	0.284706	-0.020229
O23	O	1.440694	-0.350441	-0.530042
O24	O	1.940694	0.149559	-0.030042
O25	O	1.617966	-0.587994	-0.694745
O26	O	2.117966	-0.087994	-0.194745
O27	O	1.433218	-0.452833	-0.684907
O28	O	1.933218	0.047167	-0.184907
O29	O	1.765423	-0.588011	-0.547334
O30	O	2.265423	-0.088011	-0.047334
O31	O	1.782594	-0.350427	-0.872050
O32	O	2.282594	0.149573	-0.372050
O33	O	1.627735	-0.452825	-0.879485
O34	O	2.127735	0.047175	-0.379485
C35	C	1.393408	-0.401636	-0.607473
C36	C	1.893408	0.098364	-0.107473
C37	C	1.260007	-0.401651	-0.607495
C38	C	1.760007	0.098349	-0.107495
C39	C	1.689436	-0.619098	-0.623300
C40	C	2.189436	-0.119098	-0.123300
C41	C	1.682704	-0.711763	-0.630037
C42	C	2.182704	-0.211763	-0.130037
C43	C	1.740334	-0.922718	-0.572330
C44	C	2.240334	-0.422718	-0.072330
C45	C	1.670374	-0.881417	-0.642286
C46	C	2.170374	-0.381417	-0.142286
C47	C	1.677236	-0.787013	-0.635469
C48	C	2.177236	-0.287013	-0.135469
C49	C	1.733473	-1.017131	-0.579146
C50	C	2.233473	-0.517131	-0.079146
C51	C	2.018274	-0.401658	-0.607512
C52	C	2.518274	0.098342	-0.107512
C53	C	2.151673	-0.401663	-0.607520
C54	C	2.651673	0.098337	-0.107520
C55	C	1.705185	-0.401641	-0.919316
C56	C	2.205185	0.098359	-0.419316
C57	C	1.705273	-0.401666	-1.052718
C58	C	2.205273	0.098334	-0.552718
C59	C	1.721036	-0.185042	-0.591658
C60	C	2.221036	0.314958	-0.091658
C61	C	1.728000	-0.092377	-0.584583
C62	C	2.228000	0.407623	-0.084583
C63	C	1.705311	-0.401672	-0.294451
C64	C	2.205311	0.098328	0.205549
C65	C	1.705344	-0.401682	-0.161052
C66	C	2.205344	0.098318	0.338948
H67	H	1.805378	-0.887179	-0.507324
H68	H	2.305378	-0.387179	-0.007324
H69	H	1.605318	-0.916958	-0.707292
H70	H	2.105318	-0.416958	-0.207292
