data_functionalizedCrystal
_audit_creation_method	'MofGen! by Chris Wilmer'
_symmetry_space_group_name_H-M	'P1'
_symmetry_Int_Tables_number	1
_symmetry_cell_setting	triclinic
loop_
_symmetry_equiv_pos_as_xyz
  x,y,z
_cell_length_a	13.032831
_cell_length_b	16.625546
_cell_length_c	13.033429
_cell_angle_alpha	82.778950
_cell_angle_beta	89.091437
_cell_angle_gamma	82.826778
loop_
_atom_site_label
_atom_site_type_symbol
_atom_site_fract_x
_atom_site_fract_y
_atom_site_fract_z
Zn1	Zn	1.498517	-0.391465	-0.780838
Zn2	Zn	1.831850	-0.058132	-0.447505
Zn3	Zn	2.165184	0.275201	-0.114172
Zn4	Zn	1.520229	-0.545312	-0.608832
Zn5	Zn	1.853562	-0.211978	-0.275498
Zn6	Zn	2.186895	0.121355	0.057835
Zn7	Zn	1.348357	-0.395765	-0.587067
Zn8	Zn	1.681690	-0.062431	-0.253734
Zn9	Zn	2.015023	0.270902	0.079599
Zn10	Zn	1.326494	-0.511523	-0.758969
Zn11	Zn	1.659827	-0.178190	-0.425636
Zn12	Zn	1.993161	0.155143	-0.092303
O13	O	1.423399	-0.461016	-0.683927
O14	O	1.756732	-0.127683	-0.350593
O15	O	2.090066	0.205650	-0.017260
O16	O	1.645318	-0.424215	-0.776282
O17	O	1.978652	-0.090881	-0.442948
O18	O	2.311985	0.242452	-0.109615
O19	O	1.515666	-0.541414	-0.462018
O20	O	1.848999	-0.208081	-0.128685
O21	O	2.182332	0.125253	0.204649
O22	O	1.368339	-0.282364	-0.612815
O23	O	1.701672	0.050969	-0.279482
O24	O	2.035005	0.384303	0.053851
O25	O	1.661270	-0.537245	-0.649909
O26	O	1.994603	-0.203912	-0.316576
O27	O	2.327937	0.129422	0.016757
O28	O	1.478661	-0.279205	-0.755178
O29	O	1.811994	0.054128	-0.421845
O30	O	2.145327	0.387461	-0.088511
O31	O	1.389392	-0.431542	-0.446028
O32	O	1.722725	-0.098209	-0.112694
O33	O	2.056059	0.235124	0.220639
O34	O	1.201535	-0.398779	-0.591610
O35	O	1.534869	-0.065446	-0.258277
O36	O	1.868202	0.267888	0.075057
O37	O	1.331077	-0.479657	-0.905797
O38	O	1.664411	-0.146324	-0.572464
O39	O	1.997744	0.187009	-0.239130
O40	O	1.185473	-0.483826	-0.717905
O41	O	1.518806	-0.150493	-0.384572
O42	O	1.852140	0.182840	-0.051239
O43	O	1.457462	-0.391452	-0.921864
O44	O	1.790795	-0.058118	-0.588531
O45	O	2.124128	0.275215	-0.255197
O46	O	1.494467	-0.653660	-0.628704
O47	O	1.827800	-0.320327	-0.295371
O48	O	2.161133	0.013007	0.037963
O49	O	1.352130	-0.628836	-0.739009
O50	O	1.685464	-0.295503	-0.405676
O51	O	2.018797	0.037831	-0.072343
C52	C	1.156187	-0.438103	-0.650024
C53	C	1.489520	-0.104770	-0.316690
C54	C	1.822854	0.228563	0.016643
C55	C	1.041869	-0.428318	-0.635544
C56	C	1.375203	-0.094984	-0.302211
C57	C	1.708536	0.238349	0.031123
C58	C	1.423307	-0.670504	-0.683871
C59	C	1.756641	-0.337170	-0.350538
C60	C	2.089974	-0.003837	-0.017205
C61	C	1.423358	-0.760127	-0.683894
C62	C	1.756691	-0.426794	-0.350561
C63	C	2.090024	-0.093461	-0.017227
C64	C	0.982995	-0.466124	-0.691484
C65	C	1.316328	-0.132790	-0.358150
C66	C	1.649662	0.200543	-0.024817
C67	C	0.864842	-0.456011	-0.676520
C68	C	1.198175	-0.122677	-0.343186
C69	C	1.531508	0.210656	-0.009853
C70	C	1.423523	-1.088307	-0.684024
C71	C	1.756857	-0.754973	-0.350690
C72	C	2.090190	-0.421640	-0.017357
C73	C	1.423474	-0.996996	-0.683990
C74	C	1.756807	-0.663663	-0.350657
C75	C	2.090140	-0.330330	-0.017323
C76	C	1.423440	-0.924220	-0.683958
C77	C	1.756773	-0.590887	-0.350625
C78	C	2.090106	-0.257553	-0.017291
C79	C	1.423392	-0.832904	-0.683926
C80	C	1.756725	-0.499571	-0.350592
C81	C	2.090058	-0.166237	-0.017259
C82	C	1.691655	-0.484019	-0.717963
C83	C	2.024988	-0.150686	-0.384629
C84	C	2.358321	0.182647	-0.051296
C85	C	1.805969	-0.493822	-0.732467
C86	C	2.139302	-0.160489	-0.399134
C87	C	2.472636	0.172845	-0.065800
C88	C	1.389409	-0.431306	-0.952193
C89	C	1.722742	-0.097973	-0.618859
C90	C	2.056076	0.235361	-0.285526
C91	C	1.374924	-0.418645	-1.066512
C92	C	1.708258	-0.085312	-0.733178
C93	C	2.041591	0.248022	-0.399845
C94	C	1.423516	-0.250711	-0.684008
C95	C	1.756850	0.082622	-0.350675
C96	C	2.090183	0.415956	-0.017342
C97	C	1.423567	-0.161091	-0.684043
C98	C	1.756900	0.172242	-0.350710
C99	C	2.090233	0.505575	-0.017376
C100	C	1.415981	-0.454290	-1.243542
C101	C	1.749314	-0.120956	-0.910208
C102	C	2.082647	0.212377	-0.576875
C103	C	1.430951	-0.467371	-1.125387
C104	C	1.764285	-0.134038	-0.792054
C105	C	2.097618	0.199296	-0.458720
C106	C	1.457316	-0.490558	-0.416712
C107	C	1.790650	-0.157225	-0.083379
C108	C	2.123983	0.176109	0.249955
C109	C	1.472000	-0.503009	-0.302419
C110	C	1.805333	-0.169675	0.030915
C111	C	2.138667	0.163658	0.364248
H112	H	0.827778	-0.416150	-0.617550
H113	H	1.161111	-0.082817	-0.284216
H114	H	1.494444	0.250516	0.049117
H115	H	1.490003	-0.518766	-1.088326
H116	H	1.823337	-0.185433	-0.754992
H117	H	2.156670	0.147900	-0.421659
N118	N	1.032087	-0.518922	-0.769592
N119	N	1.365420	-0.185589	-0.436258
N120	N	1.698753	0.147745	-0.102925
H121	H	0.976564	-0.542764	-0.804866
H122	H	1.309898	-0.209430	-0.471533
H123	H	1.643231	0.123903	-0.138200
H124	H	1.070643	-0.484670	-0.822873
H125	H	1.403976	-0.151336	-0.489539
H126	H	1.737310	0.181997	-0.156206
H127	H	1.531048	-0.554401	-1.265353
H128	H	1.864381	-0.221067	-0.932020
H129	H	2.197714	0.112266	-0.598686
N130	N	0.855061	-0.546619	-0.810581
N131	N	1.188394	-0.213286	-0.477248
N132	N	1.521727	0.120048	-0.143915
H133	H	0.838437	-0.604408	-0.792127
H134	H	1.171771	-0.271074	-0.458794
H135	H	1.505104	0.062259	-0.125460
H136	H	0.827106	-0.524397	-0.881726
H137	H	1.160439	-0.191063	-0.548393
H138	H	1.493773	0.142270	-0.215059
N139	N	0.992784	-0.375530	-0.557422
N140	N	1.326117	-0.042197	-0.224089
N141	N	1.659450	0.291137	0.109245
H142	H	0.915337	-0.375792	-0.557802
H143	H	1.248670	-0.042459	-0.224468
H144	H	1.582003	0.290875	0.108865
H145	H	1.020804	-0.397728	-0.486295
H146	H	1.354137	-0.064395	-0.152961
H147	H	1.687470	0.268939	0.180372
N148	N	1.337748	-0.386222	-1.292623
N149	N	1.671081	-0.052889	-0.959290
N150	N	2.004415	0.280445	-0.625957
H151	H	1.338132	-0.386533	-1.370071
H152	H	1.671466	-0.053200	-1.036737
H153	H	2.004799	0.280134	-0.703404
H154	H	1.266655	-0.394554	-1.264561
H155	H	1.599988	-0.061220	-0.931228
H156	H	1.933321	0.272113	-0.597894
H157	H	1.315881	-0.367243	-1.103573
H158	H	1.649214	-0.033910	-0.770239
H159	H	1.982548	0.299424	-0.436906
