data_functionalizedCrystal
_audit_creation_method	'MofGen! by Chris Wilmer'
_symmetry_space_group_name_H-M	'P1'
_symmetry_Int_Tables_number	1
_symmetry_cell_setting	triclinic
loop_
_symmetry_equiv_pos_as_xyz
  x,y,z
_cell_length_a	15.995292
_cell_length_b	15.944545
_cell_length_c	14.472310
_cell_angle_alpha	89.996829
_cell_angle_beta	89.985801
_cell_angle_gamma	83.482394
loop_
_atom_site_label
_atom_site_type_symbol
_atom_site_fract_x
_atom_site_fract_y
_atom_site_fract_z
O1	O	1.111030	0.108032	-0.076870
O2	O	0.867249	0.121453	-0.076867
O3	O	0.995800	-0.007535	-0.076858
O4	O	0.982480	0.237019	-0.076880
O5	O	0.995767	-0.007527	0.076824
O6	O	0.867216	0.121460	0.076815
O7	O	1.110997	0.108039	0.076812
Cu8	Cu	0.989104	0.114750	0.090846
Cu9	Cu	0.989143	0.114742	-0.090901
O10	O	0.982447	0.237027	0.076802
C11	C	0.836037	0.120910	-0.000026
C12	C	0.743084	0.119273	-0.000024
C13	C	0.405345	0.113252	-0.000034
C14	C	0.428661	0.206352	-0.000385
C15	C	0.525336	0.208122	-0.000035
C16	C	0.572901	0.116240	-0.000030
C17	C	0.543779	0.069698	0.087731
C18	C	0.446988	0.068578	0.087801
C19	C	0.447170	0.066668	-0.086964
C20	C	0.543663	0.070118	-0.088120
C21	C	0.667597	0.117923	-0.000024
C22	C	0.310649	0.111566	-0.000033
C23	C	0.995231	-0.038825	-0.000016
C24	C	0.993576	-0.132071	-0.000013
C25	C	0.908949	-0.402681	-0.000031
C26	C	0.949766	-0.352110	-0.075805
C27	C	0.987674	-0.467713	-0.000040
C28	C	0.949754	-0.352130	0.075713
C29	C	0.990570	-0.302800	-0.000025
C30	C	1.028470	-0.418370	-0.075876
C31	C	1.028446	-0.418393	0.075710
C32	C	1.069321	-0.367855	-0.000083
C33	C	0.986004	-0.562715	-0.000049
C34	C	0.992246	-0.207801	-0.000023
C35	C	1.142210	0.108582	-0.000032
C36	C	1.235163	0.110219	-0.000040
C37	C	0.983015	0.268317	-0.000042
C38	C	0.984670	0.361563	-0.000050
N39	N	0.989082	0.114756	0.218677
N40	N	0.989171	0.114729	-0.218732
C41	C	0.989142	0.114738	0.592768
C42	C	0.920126	0.183525	0.553597
C43	C	0.920285	0.183776	0.446509
C44	C	0.989111	0.114747	0.407177
C45	C	1.076479	0.133871	0.446011
C46	C	1.076091	0.134360	0.553132
C47	C	0.971569	0.026623	0.553305
C48	C	0.969565	0.027211	0.446178
C49	C	0.989100	0.114750	0.302289
C50	C	0.989159	0.114737	0.697656
H51	H	0.418859	0.095765	-0.153481
H52	H	0.399630	0.242041	0.062192
H53	H	0.562248	0.104005	-0.153045
H54	H	1.092334	0.197400	0.419167
H55	H	1.129052	0.086233	0.579041
N56	N	0.838699	0.169896	0.413583
N57	N	0.781246	0.159944	0.469719
H58	H	0.723579	0.150297	0.446471
H59	H	1.016568	-0.026374	0.419408
H60	H	0.916479	-0.323204	0.139772
H61	H	0.576632	0.003054	-0.093417
H62	H	0.420158	0.100816	0.153400
N63	N	0.893362	0.003575	0.587233
N64	N	0.849622	0.051818	0.640917
H65	H	0.794382	0.035552	0.664876
H66	H	0.931507	0.249165	0.420868
H67	H	1.091576	0.198622	0.578102
N68	N	0.429634	-0.019305	-0.087678
N69	N	0.386534	-0.046249	-0.024511
H70	H	0.374152	-0.106967	-0.025002
N71	N	0.888938	0.008993	0.414360
N72	N	0.832239	-0.001560	0.471228
H73	H	0.775294	-0.014424	0.448754
H74	H	0.854974	0.172322	0.579387
N75	N	0.908079	-0.315787	-0.156162
N76	N	0.903223	-0.237910	-0.169358
H77	H	0.873779	-0.212258	-0.226109
H78	H	1.061706	-0.447188	-0.140008
H79	H	1.021899	-0.024566	0.578635
H80	H	1.137172	-0.352382	-0.000126
N81	N	0.933997	0.265094	0.587355
N82	N	0.933004	0.279225	0.672325
H83	H	0.942803	0.336832	0.696170
N84	N	0.549216	0.253845	-0.078960
N85	N	0.494430	0.284671	-0.134685
H86	H	0.511290	0.316967	-0.190428
N87	N	0.823895	-0.422289	-0.000128
N88	N	0.775849	-0.398028	-0.065291
H89	H	0.715781	-0.411875	-0.065363
H90	H	0.400679	0.242234	-0.063323
H91	H	0.432435	0.000317	0.091792
N92	N	0.548394	0.254193	0.078972
N93	N	0.493052	0.285131	0.134031
H94	H	0.509331	0.317694	0.189819
N95	N	1.142462	0.072709	0.414050
N96	N	1.216798	0.077771	0.438001
H97	H	1.263399	0.034574	0.415429
H98	H	0.575644	0.002086	0.090999
H99	H	1.061651	-0.447349	0.139774
N100	N	0.568931	0.110254	0.169654
N101	N	0.608296	0.173423	0.163632
H102	H	0.626059	0.202070	0.221488
