data_functionalizedCrystal
_audit_creation_method	'MofGen! by Chris Wilmer'
_symmetry_space_group_name_H-M	'P1'
_symmetry_Int_Tables_number	1
_symmetry_cell_setting	triclinic
loop_
_symmetry_equiv_pos_as_xyz
  x,y,z
_cell_length_a	12.759401
_cell_length_b	18.215404
_cell_length_c	12.759393
_cell_angle_alpha	89.966542
_cell_angle_beta	90.020938
_cell_angle_gamma	89.974652
loop_
_atom_site_label
_atom_site_type_symbol
_atom_site_fract_x
_atom_site_fract_y
_atom_site_fract_z
Zn1	Zn	1.606200	0.292919	0.593998
Zn2	Zn	1.606063	0.416003	0.418310
Zn3	Zn	1.430498	0.292958	0.418334
Zn4	Zn	1.430462	0.415951	0.593947
O5	O	1.518306	0.354458	0.506147
O6	O	1.753203	0.309251	0.570705
O7	O	1.582732	0.399719	0.271292
O8	O	1.453878	0.189968	0.441668
O9	O	1.753102	0.399681	0.441627
O10	O	1.582965	0.189940	0.570728
O11	O	1.453745	0.309318	0.271309
O12	O	1.283473	0.309268	0.441618
O13	O	1.453817	0.399593	0.740975
O14	O	1.283446	0.399631	0.570640
O15	O	1.582930	0.309201	0.741013
O16	O	1.582697	0.518980	0.441576
O17	O	1.453684	0.518942	0.570616
C18	C	1.245339	0.354449	0.506126
C19	C	1.128562	0.354463	0.506142
C20	C	1.073714	0.401586	0.573218
C21	C	0.963990	0.401589	0.573239
C22	C	0.963972	0.307343	0.439099
C23	C	1.073694	0.307337	0.439084
C24	C	1.518200	0.545664	0.506111
C25	C	1.518251	0.627463	0.506131
C26	C	1.585591	0.815652	0.439078
C27	C	1.585640	0.892511	0.439109
C28	C	1.451182	0.892511	0.573368
C29	C	1.451139	0.815654	0.573341
C30	C	1.518342	0.777226	0.506190
C31	C	1.518434	0.930942	0.506248
C32	C	1.518486	1.014276	0.506282
C33	C	1.518291	0.693887	0.506157
C34	C	1.792339	0.354467	0.506169
C35	C	1.909116	0.354471	0.506178
C36	C	1.518385	0.354387	0.780181
C37	C	1.518418	0.354357	0.896957
C38	C	1.518447	1.162505	0.506225
C39	C	1.518525	1.080706	0.506307
C40	C	1.518288	0.354475	0.233180
C41	C	1.518458	0.354298	0.116404
C42	C	1.585652	0.307283	0.951841
C43	C	1.585670	0.307251	1.061565
C44	C	1.451216	0.401374	1.061512
C45	C	1.451194	0.401402	0.951790
H46	H	1.118352	0.268958	0.384462
Cl47	Cl	1.142687	0.460827	0.657524
Cl48	Cl	0.895042	0.460831	0.657569
Cl49	Cl	1.670076	0.767345	0.354662
H50	H	1.640402	0.923793	0.384461
Cl51	Cl	0.894987	0.248104	0.354799
Cl52	Cl	1.366700	0.940826	0.657778
Cl53	Cl	1.366596	0.767344	0.657724
Cl54	Cl	1.670158	0.248138	0.882911
H55	H	1.640417	0.268917	1.106246
H56	H	1.396487	0.439678	1.106171
H57	H	1.396436	0.439735	0.907103
