data_functionalizedCrystal
_audit_creation_method	'MofGen! by Chris Wilmer'
_symmetry_space_group_name_H-M	'P1'
_symmetry_Int_Tables_number	1
_symmetry_cell_setting	triclinic
loop_
_symmetry_equiv_pos_as_xyz
  x,y,z
_cell_length_a	16.109301
_cell_length_b	16.109301
_cell_length_c	15.186229
_cell_angle_alpha	90.005167
_cell_angle_beta	89.999362
_cell_angle_gamma	96.538519
loop_
_atom_site_label
_atom_site_type_symbol
_atom_site_fract_x
_atom_site_fract_y
_atom_site_fract_z
O1	O	1.103131	-0.106866	-0.073176
O2	O	1.436464	0.226467	0.260158
O3	O	1.769797	0.559801	0.593491
O4	O	0.861069	-0.120165	-0.073190
O5	O	1.194402	0.213168	0.260143
O6	O	1.527735	0.546501	0.593477
O7	O	0.988749	0.007515	-0.073174
O8	O	1.322083	0.340849	0.260160
O9	O	1.655416	0.674182	0.593493
O10	O	0.975450	-0.234547	-0.073192
O11	O	1.308783	0.098787	0.260141
O12	O	1.642117	0.432120	0.593474
O13	O	0.988741	0.007517	0.073284
O14	O	1.322074	0.340850	0.406617
O15	O	1.655407	0.674184	0.739950
O16	O	0.861060	-0.120164	0.073267
O17	O	1.194393	0.213170	0.406601
O18	O	1.527727	0.546503	0.739934
O19	O	1.103122	-0.106864	0.073282
O20	O	1.436455	0.226469	0.406615
O21	O	1.769789	0.559802	0.739948
Zn22	Zn	0.982090	-0.113514	0.096528
Zn23	Zn	1.315423	0.219820	0.429861
Zn24	Zn	1.648756	0.553153	0.763194
Zn25	Zn	0.982101	-0.113516	-0.096436
Zn26	Zn	1.315434	0.219817	0.236897
Zn27	Zn	1.648768	0.553151	0.570231
O28	O	0.975441	-0.234545	0.073265
O29	O	1.308775	0.098788	0.406598
O30	O	1.642108	0.432122	0.739932
C31	C	0.830090	-0.119626	0.000037
C32	C	1.163423	0.213708	0.333370
C33	C	1.496756	0.547041	0.666704
C34	C	0.737794	-0.118011	0.000032
C35	C	1.071128	0.215323	0.333365
C36	C	1.404461	0.548656	0.666698
N37	N	0.982088	-0.113511	0.228220
N38	N	1.315422	0.219822	0.561554
N39	N	1.648755	0.553155	0.894887
C40	C	0.988206	0.038491	0.000056
C41	C	1.321540	0.371824	0.333389
C42	C	1.654873	0.705158	0.666722
C43	C	0.986591	0.130786	0.000057
C44	C	1.319925	0.464120	0.333390
C45	C	1.653258	0.797453	0.666723
C46	C	0.515522	-0.190018	0.000036
C47	C	0.848855	0.143315	0.333370
C48	C	1.182188	0.476648	0.666703
C49	C	0.428801	-0.188494	0.000042
C50	C	0.762135	0.144839	0.333375
C51	C	1.095468	0.478172	0.666709
C52	C	0.448676	-0.037006	0.000050
C53	C	0.782009	0.296328	0.333383
C54	C	1.115342	0.629661	0.666717
C55	C	0.535394	-0.038530	0.000051
C56	C	0.868728	0.294803	0.333384
C57	C	1.202061	0.628136	0.666717
C58	C	0.568815	-0.115039	0.000039
C59	C	0.902148	0.218294	0.333373
C60	C	1.235482	0.551627	0.666706
C61	C	0.395376	-0.111990	0.000045
C62	C	0.728709	0.221343	0.333378
C63	C	1.062042	0.554676	0.666711
C64	C	0.301350	-0.110337	0.000051
C65	C	0.634683	0.222996	0.333384
C66	C	0.968016	0.556329	0.666717
C67	C	0.662847	-0.116693	0.000035
C68	C	0.996180	0.216641	0.333368
C69	C	1.329514	0.549974	0.666701
C70	C	1.134101	-0.107404	0.000053
C71	C	1.467435	0.225929	0.333386
C72	C	1.800768	0.559263	0.666719
C73	C	1.226397	-0.109019	0.000052
C74	C	1.559730	0.224314	0.333385
C75	C	1.893063	0.557648	0.666719
C76	C	0.975984	-0.265521	0.000034
C77	C	1.309318	0.067813	0.333367
C78	C	1.642651	0.401146	0.666701
C79	C	0.977600	-0.357816	0.000027
C80	C	1.310933	-0.024483	0.333360
C81	C	1.644266	0.308851	0.666694
C82	C	1.058599	0.353059	0.000047
C83	C	1.391932	0.686392	0.333380
C84	C	1.725266	1.019725	0.666714
C85	C	1.057075	0.439779	0.000040
C86	C	1.390408	0.773112	0.333373
C87	C	1.723742	1.106446	0.666706
C88	C	0.905586	0.419905	0.000034
C89	C	1.238919	0.753238	0.333367
C90	C	1.572253	1.086571	0.666701
C91	C	0.907111	0.333186	0.000035
C92	C	1.240444	0.666519	0.333369
C93	C	1.573778	0.999853	0.666702
C94	C	0.983620	0.299766	0.000046
C95	C	1.316953	0.633099	0.333379
C96	C	1.650287	0.966432	0.666713
C97	C	0.980571	0.473205	0.000038
C98	C	1.313904	0.806538	0.333371
C99	C	1.647238	1.139871	0.666704
C100	C	0.978918	0.567231	0.000030
C101	C	1.312251	0.900564	0.333363
C102	C	1.645585	1.233897	0.666696
C103	C	0.985273	0.205734	0.000052
C104	C	1.318607	0.539067	0.333386
C105	C	1.651940	0.872400	0.666719
N106	N	0.982109	-0.113512	-0.228129
N107	N	1.315442	0.219822	0.105205
N108	N	1.648776	0.553155	0.438538
C109	C	1.038644	-0.056994	0.453950
C110	C	1.371978	0.276340	0.787284
C111	C	1.705311	0.609673	1.120617
C112	C	1.038647	-0.056992	0.546140
C113	C	1.371980	0.276342	0.879473
C114	C	1.705314	0.609675	1.212807
C115	C	0.925547	-0.170032	0.546135
C116	C	1.258880	0.163301	0.879468
C117	C	1.592214	0.496634	1.212801
C118	C	0.925541	-0.170030	0.453947
C119	C	1.258874	0.163304	0.787280
C120	C	1.592208	0.496637	1.120613
C121	C	0.982094	-0.113511	0.407857
C122	C	1.315428	0.219822	0.741190
C123	C	1.648761	0.553155	1.074524
C124	C	0.982103	-0.113512	0.592235
C125	C	1.315436	0.219821	0.925568
C126	C	1.648770	0.553155	1.258901
C127	C	0.982105	-0.113510	0.692191
C128	C	1.315439	0.219823	1.025524
C129	C	1.648772	0.553157	1.358857
C130	C	0.982091	-0.113512	0.307894
C131	C	1.315424	0.219822	0.641228
C132	C	1.648758	0.553155	0.974561
H133	H	0.542730	-0.252317	0.000034
H134	H	0.876063	0.081017	0.333367
H135	H	1.209396	0.414350	0.666700
H136	H	0.578788	0.022530	0.000056
H137	H	0.912122	0.355864	0.333389
H138	H	1.245455	0.689197	0.666722
N139	N	1.141116	0.317013	0.000058
N140	N	1.474450	0.650346	0.333391
N141	N	1.807783	0.983680	0.666724
H142	H	1.173966	0.336441	-0.054234
H143	H	1.507300	0.669774	0.279099
H144	H	1.840633	1.003108	0.612432
H145	H	1.130637	0.253996	0.000095
H146	H	1.463971	0.587329	0.333428
H147	H	1.797304	0.920663	0.666762
H148	H	1.084692	-0.010972	0.416426
H149	H	1.418026	0.322362	0.749760
H150	H	1.751359	0.655695	1.083093
H151	H	0.846050	0.289792	0.000032
H152	H	1.179384	0.623126	0.333365
H153	H	1.512717	0.956459	0.666698
H154	H	1.084694	-0.010969	0.583667
H155	H	1.418027	0.322364	0.917000
H156	H	1.751361	0.655698	1.250334
N157	N	0.371341	-0.269377	0.000074
N158	N	0.704674	0.063956	0.333408
N159	N	1.038007	0.397289	0.666741
H160	H	0.382082	-0.302774	-0.054210
H161	H	0.715415	0.030559	0.279124
H162	H	1.048748	0.363892	0.612457
H163	H	0.311350	-0.256758	0.000124
H164	H	0.644683	0.076576	0.333458
H165	H	0.978017	0.409909	0.666791
N166	N	0.864560	-0.231000	0.595842
N167	N	1.197894	0.102333	0.929175
N168	N	1.531227	0.435667	1.262508
H169	H	0.805557	-0.221408	0.579806
H170	H	1.138890	0.111925	0.913140
H171	H	1.472224	0.445258	1.246473
H172	H	0.873217	-0.222401	0.661222
H173	H	1.206550	0.110932	0.994555
H174	H	1.539883	0.444265	1.327888
H175	H	0.879487	-0.216053	0.416415
H176	H	1.212820	0.117280	0.749748
H177	H	1.546154	0.450613	1.083081
H178	H	1.118130	0.483168	0.000039
H179	H	1.451464	0.816501	0.333372
H180	H	1.784797	1.149834	0.666705
N181	N	0.412629	0.045511	0.000067
N182	N	0.745962	0.378845	0.333400
N183	N	1.079296	0.712178	0.666734
H184	H	0.349606	0.035102	0.000066
H185	H	0.682939	0.368435	0.333399
H186	H	1.016273	0.701768	0.666732
H187	H	0.432126	0.078322	-0.054223
H188	H	0.765460	0.411656	0.279111
H189	H	1.098793	0.744989	0.612444
H190	H	0.843295	0.447127	0.000027
H191	H	1.176628	0.780460	0.333360
H192	H	1.509962	1.113793	0.666694
