data_functionalizedCrystal
_audit_creation_method	'MofGen! by Chris Wilmer'
_symmetry_space_group_name_H-M	'P1'
_symmetry_Int_Tables_number	1
_symmetry_cell_setting	triclinic
loop_
_symmetry_equiv_pos_as_xyz
  x,y,z
_cell_length_a	23.204084
_cell_length_b	23.204045
_cell_length_c	23.204063
_cell_angle_alpha	59.996525
_cell_angle_beta	89.997340
_cell_angle_gamma	59.999904
loop_
_atom_site_label
_atom_site_type_symbol
_atom_site_fract_x
_atom_site_fract_y
_atom_site_fract_z
O1	O	0.395338	0.508352	-0.017165
O2	O	0.311535	0.390337	0.017047
O3	O	0.311531	0.508348	-0.100968
O4	O	0.395341	0.390340	0.100849
O5	O	0.407382	0.412497	-0.100967
O6	O	0.407386	0.294485	0.017047
O7	O	0.491189	0.412500	-0.017165
Zn8	Zn	0.464506	0.338274	-0.000059
Zn9	Zn	0.338218	0.464563	-0.000059
O10	O	0.491192	0.294488	0.100850
C11	C	0.492067	0.621388	-0.024964
C12	C	0.456503	0.692515	-0.020072
C13	C	0.561423	0.586876	-0.025454
C14	C	0.492070	0.517023	-0.024956
C15	C	0.456509	0.476563	-0.020056
C16	C	0.561426	0.482669	-0.025446
C17	C	0.596426	0.517029	-0.024963
C18	C	0.672444	0.476574	-0.020072
C19	C	0.457225	0.586870	-0.025446
C20	C	0.144181	0.212794	0.035745
C21	C	0.068162	0.253252	0.030850
C22	C	0.179183	0.142950	0.036231
C23	C	0.248542	0.212791	0.035749
C24	C	0.284106	0.253246	0.030858
C25	C	0.283385	0.142947	0.036235
C26	C	0.248540	0.108435	0.035745
C27	C	0.284102	0.037312	0.030849
C28	C	0.179184	0.247148	0.036235
C29	C	0.312832	-0.020148	0.026892
C30	C	0.006746	0.285940	0.026893
C31	C	0.312837	0.285930	0.026905
C32	C	0.348876	-0.092234	0.021929
C33	C	-0.070303	0.326946	0.021930
C34	C	0.348883	0.326934	0.021946
C35	C	0.144184	0.694408	-0.445870
C36	C	0.068165	0.765533	-0.481433
C37	C	0.179186	0.659894	-0.376512
C38	C	0.248544	0.590047	-0.445867
C39	C	0.284108	0.549589	-0.481429
C40	C	0.283387	0.555691	-0.376510
C41	C	0.248544	0.590048	-0.341509
C42	C	0.284106	0.549591	-0.265489
C43	C	0.179187	0.659893	-0.480712
C44	C	0.312836	0.516905	-0.204072
C45	C	0.006749	0.822994	-0.510164
C46	C	0.312839	0.516902	-0.510158
C47	C	0.348880	0.475900	-0.127023
C48	C	-0.070300	0.895083	-0.546209
C49	C	0.348883	0.475896	-0.546201
O50	O	0.903643	0.294496	0.017034
O51	O	0.701828	0.412510	-0.017180
O52	O	0.819825	0.294504	0.100835
O53	O	0.785646	0.412502	-0.100981
O54	O	0.819822	0.390361	0.100827
O55	O	0.701825	0.508367	-0.017188
O56	O	0.903640	0.390353	0.017026
Zn57	Zn	0.802732	0.464579	-0.000082
Zn58	Zn	0.802736	0.338284	-0.000072
O59	O	0.785643	0.508358	-0.100989
O60	O	0.407380	0.886608	0.017032
O61	O	0.491183	0.719006	-0.017180
O62	O	0.491181	0.718987	0.100834
O63	O	0.407382	0.886627	-0.100982
O64	O	0.395326	0.718994	0.100826
O65	O	0.395329	0.719013	-0.017189
O66	O	0.311526	0.886615	0.017024
Zn67	Zn	0.338208	0.802815	-0.000084
Zn68	Zn	0.464501	0.802806	-0.000073
O69	O	0.311528	0.886634	-0.100991
O70	O	0.395350	0.390330	-0.688503
O71	O	0.311536	0.508343	-0.604704
O72	O	0.311541	0.390330	-0.604692
O73	O	0.395345	0.508344	-0.688515
O74	O	0.407391	0.294479	-0.508839
O75	O	0.407386	0.412493	-0.508850
O76	O	0.491200	0.294480	-0.592650
Zn77	Zn	0.464511	0.338268	-0.535531
Zn78	Zn	0.338225	0.464555	-0.661822
O79	O	0.491195	0.412494	-0.592661
O80	O	-0.298167	1.083853	-0.592666
O81	O	-0.096354	0.916236	-0.508861
O82	O	-0.214356	0.916231	-0.508851
O83	O	-0.180164	1.083858	-0.592675
O84	O	-0.214358	0.916233	-0.604703
O85	O	-0.096355	0.916238	-0.604712
O86	O	-0.298168	1.083854	-0.688517
Zn87	Zn	-0.197262	1.000046	-0.661833
Zn88	Zn	-0.197260	1.000044	-0.535545
O89	O	-0.180166	1.083859	-0.688527
C90	C	0.596440	0.181456	0.310611
C91	C	0.672460	0.110331	0.346172
C92	C	0.561440	0.215969	0.345455
C93	C	0.492079	0.285818	0.206252
C94	C	0.456515	0.326277	0.130232
C95	C	0.457237	0.320173	0.241255
C96	C	0.492082	0.285815	0.310613
C97	C	0.456521	0.326270	0.346176
C98	C	0.561437	0.215973	0.241253
C99	C	0.827564	0.285867	0.310582
C100	C	0.822664	0.326331	0.346139
C101	C	0.828044	0.216025	0.345428
C102	C	0.827585	0.285853	0.206231
C103	C	0.822707	0.326300	0.130213
C104	C	0.828064	0.216011	0.241235
C105	C	0.827562	0.181505	0.310590
C106	C	0.822659	0.110384	0.346154
C107	C	0.828066	0.320214	0.241228
C108	C	0.492055	0.516992	0.310589
C109	C	0.456490	0.476534	0.346148
C110	C	0.561412	0.482630	0.345436
C111	C	0.492060	0.621360	0.206233
C112	C	0.456499	0.692494	0.130213
C113	C	0.561417	0.586839	0.241238
C114	C	0.596416	0.516987	0.310596
C115	C	0.672435	0.476524	0.346161
C116	C	0.457214	0.586844	0.241231
C117	C	0.767001	0.694378	-0.445880
C118	C	0.771899	0.765503	-0.481445
C119	C	0.766525	0.659856	-0.480717
C120	C	0.766983	0.590028	-0.341519
C121	C	0.771862	0.549580	-0.265502
C122	C	0.766506	0.555664	-0.376515
C123	C	0.767008	0.590011	-0.445870
C124	C	0.771914	0.549545	-0.481425
C125	C	0.766499	0.659873	-0.376525
C126	C	0.775879	0.516852	-0.510150
C127	C	0.775858	0.822963	-0.510178
C128	C	0.775805	0.516901	-0.204087
C129	C	0.780851	0.475837	-0.546186
C130	C	0.780823	0.895051	-0.546225
C131	C	0.780750	0.475905	-0.127040
O132	O	0.785548	0.412570	0.491100
O133	O	0.819762	0.294548	0.407308
O134	O	0.701750	0.412573	0.407283
O135	O	0.903559	0.294545	0.491125
O136	O	0.701771	0.508414	0.311433
O137	O	0.819783	0.390390	0.311458
O138	O	0.785569	0.508411	0.395250
Zn139	Zn	0.802679	0.464617	0.338136
Zn140	Zn	0.802652	0.338342	0.464422
O141	O	0.903580	0.390387	0.395275
C142	C	0.144194	1.212860	-0.445892
C143	C	0.068175	1.253323	-0.481458
C144	C	0.179199	1.247217	-0.480731
C145	C	0.248550	1.108486	-0.341528
C146	C	0.284110	1.037353	-0.265508
C147	C	0.283397	1.143001	-0.376526
C148	C	0.248556	1.212854	-0.445884
C149	C	0.284122	1.253311	-0.481442
C150	C	0.179193	1.143007	-0.376534
C151	C	0.312855	1.285997	-0.510169
C152	C	0.006759	1.286015	-0.510191
C153	C	0.312838	0.979885	-0.204092
C154	C	0.348902	1.327003	-0.546209
C155	C	-0.070290	1.327027	-0.546239
C156	C	0.348879	0.907788	-0.127042
H157	H	0.589521	0.615766	-0.026241
H158	H	0.828822	0.187146	0.402416
H159	H	0.151080	0.114065	0.037019
C160	C	0.141234	1.103979	-0.338572
H161	H	0.172032	1.057349	-0.292166
H162	H	0.128020	1.088225	-0.363965
H163	H	0.100237	1.142287	-0.336154
H164	H	0.151082	0.303348	0.037024
C165	C	0.141247	1.323145	-0.557715
H166	H	0.172052	1.338744	-0.573541
H167	H	0.100249	1.366556	-0.560409
H168	H	0.128040	1.310967	-0.586692
C169	C	0.380233	0.625875	0.203260
H170	H	0.364410	0.672504	0.156854
H171	H	0.351256	0.641632	0.228648
H172	H	0.377546	0.587567	0.200841
C173	C	0.380252	0.625872	-0.026480
H174	H	0.364422	0.672494	-0.026692
H175	H	0.377581	0.587542	0.014243
H176	H	0.351264	0.641649	-0.067633
H177	H	0.340372	0.114064	0.037019
H178	H	0.589541	0.187070	0.402447
C179	C	0.599439	0.406649	-0.026362
H180	H	0.568661	0.391004	-0.026533
H181	H	0.640409	0.363315	0.014395
H182	H	0.612700	0.418712	-0.067483
C183	C	0.829130	0.176982	0.203281
H184	H	0.829356	0.207553	0.156874
H185	H	0.788414	0.176696	0.200877
H186	H	0.870287	0.122618	0.228676
C187	C	0.765441	0.698892	-0.338564
H188	H	0.765232	0.745513	-0.369358
H189	H	0.806151	0.660572	-0.297556
H190	H	0.724278	0.714675	-0.325368
H191	H	0.340387	1.114100	-0.348422
H192	H	0.828840	0.376426	0.213121
C193	C	0.141227	0.698916	-0.338551
H194	H	0.094816	0.745536	-0.369342
H195	H	0.166613	0.714685	-0.325350
H196	H	0.138825	0.660598	-0.297543
C197	C	0.380254	0.396094	0.203298
H198	H	0.364421	0.411710	0.156890
H199	H	0.377562	0.439500	0.200897
H200	H	0.351284	0.383902	0.228689
C201	C	0.599393	0.176952	0.203290
H202	H	0.645800	0.130325	0.234083
H203	H	0.601790	0.215266	0.162281
H204	H	0.574004	0.161177	0.190096
H205	H	0.589508	0.426422	0.402424
H206	H	0.340368	0.499473	-0.348403
C207	C	0.599386	0.625856	0.203285
H208	H	0.645792	0.595270	0.234087
H209	H	0.574000	0.680218	0.190073
H210	H	0.601802	0.626134	0.162285
H211	H	0.151080	0.688775	-0.537697
H212	H	0.765725	0.499457	-0.348406
H213	H	0.765744	0.688743	-0.537705
