data_functionalizedCrystal
_audit_creation_method	'MofGen! by Chris Wilmer'
_symmetry_space_group_name_H-M	'P1'
_symmetry_Int_Tables_number	1
_symmetry_cell_setting	triclinic
loop_
_symmetry_equiv_pos_as_xyz
  x,y,z
_cell_length_a	12.594517
_cell_length_b	21.295417
_cell_length_c	12.594509
_cell_angle_alpha	90.036245
_cell_angle_beta	90.011478
_cell_angle_gamma	90.026394
loop_
_atom_site_label
_atom_site_type_symbol
_atom_site_fract_x
_atom_site_fract_y
_atom_site_fract_z
Zn1	Zn	1.627160	-0.250659	0.601521
Zn2	Zn	1.627006	-0.355938	0.423518
Zn3	Zn	1.449164	-0.250679	0.423580
Zn4	Zn	1.449101	-0.355887	0.601478
O5	O	1.538108	-0.303291	0.512524
O6	O	1.776085	-0.264638	0.577900
O7	O	1.603377	-0.342005	0.274580
O8	O	1.472866	-0.162587	0.447229
O9	O	1.775972	-0.341986	0.447122
O10	O	1.603639	-0.162573	0.577961
O11	O	1.472717	-0.264672	0.274626
O12	O	1.300210	-0.264622	0.447187
O13	O	1.472759	-0.341899	0.750430
O14	O	1.300164	-0.341918	0.577888
O15	O	1.603578	-0.264589	0.750461
O16	O	1.603316	-0.444021	0.447080
O17	O	1.472610	-0.443983	0.577827
C18	C	1.261567	-0.303267	0.512540
C19	C	1.143261	-0.303272	0.512573
C20	C	1.074014	-0.345396	0.583523
C21	C	1.003230	-0.288001	0.609715
C22	C	1.003246	-0.360714	0.486357
C23	C	1.074036	-0.245847	0.538815
C24	C	1.074058	-0.318599	0.415412
C25	C	1.003306	-0.261165	0.441567
C26	C	1.537968	-0.466843	0.512465
C27	C	1.538006	-0.536811	0.512476
C28	C	1.606125	-0.569676	0.444466
C29	C	1.606175	-0.635418	0.444489
C30	C	1.538087	-0.668293	0.512512
C31	C	1.469963	-0.635420	0.580536
C32	C	1.469922	-0.569679	0.580517
N33	N	1.444976	-0.771555	0.520632
N34	N	1.445018	-0.834006	0.520643
C35	C	1.538206	-0.866368	0.512573
N36	N	1.631353	-0.833919	0.504471
N37	N	1.631311	-0.771462	0.504454
C38	C	1.538123	-0.739579	0.512540
C39	C	1.606385	-0.970519	0.444586
C40	C	1.606436	-1.036262	0.444617
C41	C	1.470215	-1.036263	0.580658
C42	C	1.470173	-0.970520	0.580632
C43	C	1.538256	-0.937652	0.512590
C44	C	1.815728	-0.303315	0.512509
C45	C	1.934034	-0.303326	0.512502
C46	C	1.538179	-0.303236	0.790145
C47	C	1.538209	-0.303212	0.908451
C48	C	1.538277	-0.139101	0.512607
C49	C	1.538349	-0.069133	0.512642
C50	C	1.538098	-0.303300	0.235983
C51	C	1.538274	-0.303147	0.117678
C52	C	1.467079	-0.345238	0.977687
C53	C	1.564193	-0.360622	1.048457
C54	C	1.441171	-0.287790	1.048480
C55	C	1.635374	-0.318627	0.977663
C56	C	1.512287	-0.245768	0.977679
C57	C	1.609468	-0.261131	1.048417
H58	H	1.105000	-0.197277	0.561051
H59	H	1.661565	-0.542917	0.389065
H60	H	1.414781	-1.063029	0.636048
H61	H	1.717489	-0.331699	0.946686
H62	H	1.661649	-0.662182	0.389108
N63	N	1.593282	-0.424933	1.089639
H64	H	1.533476	-0.441705	1.134905
H65	H	1.660091	-0.421871	1.133708
H66	H	0.972455	-0.225524	0.381536
H67	H	1.105193	-0.331561	0.333300
H68	H	1.406974	-0.380832	0.946631
H69	H	0.972147	-0.409270	0.464217
H70	H	1.414699	-0.943760	0.636008
N71	N	1.689268	-0.214024	1.089325
H72	H	1.762529	-0.225732	1.063431
H73	H	1.688318	-0.214027	1.169510
H74	H	1.414527	-0.662191	0.635922
N75	N	1.679830	-0.935069	0.371211
H76	H	1.729110	-0.907746	0.414497
H77	H	1.636515	-0.907876	0.321852
N78	N	1.679907	-1.071711	0.371252
H79	H	1.669607	-1.118346	0.381590
H80	H	1.755909	-1.060173	0.387863
N81	N	1.483163	-0.181478	0.936449
H82	H	1.409782	-0.169891	0.962159
H83	H	1.484105	-0.181937	0.856267
N84	N	1.396433	-0.534229	0.653862
H85	H	1.406736	-0.487594	0.643524
H86	H	1.412962	-0.545672	0.729897
N87	N	1.332439	-0.270543	1.089692
H88	H	1.278748	-0.302344	1.063962
H89	H	1.312374	-0.227475	1.062831
H90	H	1.105064	-0.380949	0.643601
H91	H	0.972119	-0.275056	0.691851
