data_functionalizedCrystal
_audit_creation_method	'MofGen! by Chris Wilmer'
_symmetry_space_group_name_H-M	'P1'
_symmetry_Int_Tables_number	1
_symmetry_cell_setting	triclinic
loop_
_symmetry_equiv_pos_as_xyz
  x,y,z
_cell_length_a	16.793024
_cell_length_b	16.793047
_cell_length_c	33.586455
_cell_angle_alpha	113.253857
_cell_angle_beta	66.219990
_cell_angle_gamma	112.758327
loop_
_atom_site_label
_atom_site_type_symbol
_atom_site_fract_x
_atom_site_fract_y
_atom_site_fract_z
O1	O	0.005016	-0.570216	-0.583573
O2	O	-0.034529	-0.474528	-0.453458
O3	O	0.114723	-0.474535	-0.528082
O4	O	-0.144235	-0.570209	-0.508949
O5	O	0.108729	-0.346329	-0.530229
O6	O	-0.040523	-0.346322	-0.455605
O7	O	-0.000977	-0.442010	-0.585721
Cu8	Cu	-0.021297	-0.382459	-0.520859
Cu9	Cu	-0.014209	-0.534079	-0.518320
O10	O	-0.150229	-0.442003	-0.511097
C11	C	0.005100	-0.790970	-0.238461
C12	C	0.009223	-0.693065	-0.217557
C13	C	0.003804	-0.645758	-0.241627
C14	C	-0.075059	-0.538459	-0.266316
C15	C	0.049838	-0.422849	-0.250165
C16	C	-0.040584	-0.395375	-0.435637
C17	C	-0.044693	-0.353446	-0.386631
C18	C	-0.039275	-0.401741	-0.363054
C19	C	-0.040566	-0.125547	-0.300731
C20	C	-0.044689	-0.223451	-0.321635
C21	C	-0.039266	-0.270752	-0.297563
C22	C	0.039597	-0.378051	-0.272874
C23	C	-0.085304	-0.493667	-0.289026
C24	C	0.005118	-0.521142	-0.103554
C25	C	0.009231	-0.563064	-0.152559
C26	C	0.003809	-0.514775	-0.176138
C27	C	0.010758	-0.652581	-0.172822
C28	C	0.001010	-0.556371	-0.220792
C29	C	-0.008251	-0.506059	-0.245823
C30	C	-0.046224	-0.263935	-0.366370
C31	C	-0.036476	-0.360146	-0.318399
C32	C	-0.027211	-0.410451	-0.293367
C33	C	0.815184	-0.521162	-0.508596
C34	C	0.415541	-0.125553	-0.528781
C35	C	0.375032	-0.223457	-0.531493
C36	C	0.423813	-0.270761	-0.529101
C37	C	0.149318	-0.395376	-0.530584
C38	C	0.246774	-0.353455	-0.532364
C39	C	0.294574	-0.401748	-0.529976
C40	C	0.548961	-0.790984	-0.510398
C41	C	0.286104	-0.263940	-0.532530
C42	C	0.383336	-0.360149	-0.528302
C43	C	0.432207	-0.407971	-0.525810
C44	C	0.392316	-0.497392	-0.524993
C45	C	0.303554	-0.538991	-0.526667
C46	C	0.254683	-0.491169	-0.529159
C47	C	0.263666	-0.628421	-0.525851
C48	C	0.312537	-0.676243	-0.523359
C49	C	0.401299	-0.634644	-0.521685
C50	C	0.441190	-0.545223	-0.522502
C51	C	0.529952	-0.503624	-0.520828
C52	C	0.578823	-0.551446	-0.518336
C53	C	0.538939	-0.640864	-0.517520
C54	C	0.450177	-0.682463	-0.519194
C55	C	0.587810	-0.688687	-0.515028
C56	C	0.676572	-0.647088	-0.513354
C57	C	0.716463	-0.557666	-0.514172
C58	C	0.667586	-0.509847	-0.516662
C59	C	0.569840	-0.414195	-0.521644
C60	C	0.658602	-0.372596	-0.519970
C61	C	0.707476	-0.420426	-0.517480
C62	C	0.698493	-0.283174	-0.520788
C63	C	0.649622	-0.235352	-0.523280
C64	C	0.560860	-0.276951	-0.524954
C65	C	0.520969	-0.366372	-0.524136
C66	C	0.511989	-0.229129	-0.527446
C67	C	-0.040530	-0.395407	-0.935652
C68	C	0.005063	-0.791004	-0.738448
C69	C	0.009186	-0.693099	-0.717543
C70	C	0.003779	-0.645796	-0.741620
C71	C	0.005077	-0.521171	-0.603544
C72	C	0.009198	-0.563096	-0.652550
C73	C	0.003786	-0.514804	-0.676131
C74	C	-0.040516	-0.125574	-0.800747
C75	C	0.010719	-0.652613	-0.672809
C76	C	0.000994	-0.556406	-0.720789
C77	C	-0.004621	-0.508585	-0.744908
C78	C	-0.007444	-0.419162	-0.724369
C79	C	-0.004651	-0.377560	-0.679711
C80	C	0.000964	-0.425381	-0.655592
C81	C	-0.007471	-0.288129	-0.659174
C82	C	-0.013086	-0.240308	-0.683293
C83	C	-0.015878	-0.281910	-0.727951
C84	C	-0.013056	-0.371333	-0.748490
C85	C	-0.015848	-0.412935	-0.793148
C86	C	-0.021463	-0.365114	-0.817267
C87	C	-0.024282	-0.275694	-0.796731
C88	C	-0.021490	-0.234092	-0.752073
C89	C	-0.029897	-0.227873	-0.820850
C90	C	-0.032690	-0.269476	-0.865508
C91	C	-0.029867	-0.358899	-0.886047
C92	C	-0.024255	-0.406717	-0.861925
C93	C	-0.013028	-0.502367	-0.813685
C94	C	-0.015821	-0.543969	-0.858343
C95	C	-0.021433	-0.496140	-0.882464
C96	C	-0.012998	-0.633392	-0.878882
C97	C	-0.007383	-0.681213	-0.854763
C98	C	-0.004591	-0.639611	-0.810105
C99	C	-0.007414	-0.550188	-0.789566
C100	C	0.001024	-0.687432	-0.785986
O101	O	-0.000965	0.173549	-0.277957
O102	O	-0.040516	-0.085616	-0.325254
O103	O	0.108737	0.059592	-0.327284
O104	O	-0.150219	0.028341	-0.275927
O105	O	0.114753	0.055151	-0.263265
O106	O	-0.034500	-0.090057	-0.261234
O107	O	0.005051	0.169108	-0.213937
Cu108	Cu	-0.014175	0.039120	-0.231740
Cu109	Cu	-0.021290	0.044372	-0.307451
O110	O	-0.144202	0.023900	-0.211907
O111	O	-0.034458	-0.474571	0.046517
O112	O	0.005076	-0.570190	-0.083599
O113	O	-0.144170	-0.570237	-0.008972
O114	O	0.114787	-0.474523	-0.028110
O115	O	-0.150200	-0.442024	-0.011093
O116	O	-0.000954	-0.441976	-0.085720
O117	O	-0.040488	-0.346357	0.044396
Cu118	Cu	-0.021272	-0.382460	-0.020856
Cu119	Cu	-0.014141	-0.534087	-0.018347
O120	O	0.108757	-0.346309	-0.030231
C121	C	-0.850734	0.086244	-0.289716
C122	C	-0.753280	0.087165	-0.312001
C123	C	-0.705462	0.081107	-0.288506
C124	C	-0.599592	0.000085	-0.264184
C125	C	-0.481080	0.121287	-0.283645
C126	C	-0.450996	0.035117	-0.097351
C127	C	-0.410501	0.028587	-0.146852
C128	C	-0.459292	0.034683	-0.169840
C129	C	-0.184802	0.024283	-0.235878
C130	C	-0.282257	0.023363	-0.213592
C131	C	-0.330068	0.029423	-0.237088
C132	C	-0.435938	0.110445	-0.261411
C133	C	-0.554456	-0.010759	-0.241948
C134	C	-0.584541	0.075410	-0.428242
C135	C	-0.625029	0.081943	-0.378743
C136	C	-0.576244	0.075844	-0.355753
C137	C	-0.713963	0.086424	-0.357292
C138	C	-0.616708	0.075351	-0.310510
C139	C	-0.565963	0.065400	-0.286043
C140	C	-0.321573	0.024104	-0.168302
C141	C	-0.418828	0.035176	-0.215083
C142	C	-0.469568	0.045131	-0.239552
O143	O	0.585213	0.169090	-0.504004
O144	O	0.494056	-0.090076	-0.525516
O145	O	0.488081	0.055124	-0.449918
O146	O	0.591189	0.023889	-0.579602
O147	O	0.359978	0.059584	-0.452885
O148	O	0.365953	-0.085616	-0.528483
O149	O	0.457110	0.173550	-0.506971
Cu150	Cu	0.399835	0.044374	-0.517998
Cu151	Cu	0.551332	0.039099	-0.514489
O152	O	0.463086	0.028349	-0.582569
C153	C	0.815354	-0.521094	-0.008709
C154	C	0.717898	-0.563028	-0.006927
C155	C	0.670072	-0.514739	-0.009298
C156	C	0.564182	-0.463204	-0.048354
C157	C	0.445681	-0.498945	0.013847
C158	C	0.415547	-0.125494	-0.028771
C159	C	0.375059	-0.223405	-0.031498
C160	C	0.423859	-0.270708	-0.029121
C161	C	0.149365	-0.395355	-0.030599
C162	C	0.246820	-0.353421	-0.032381
C163	C	0.294640	-0.401713	-0.030008
C164	C	0.400530	-0.453248	0.009048
C165	C	0.519038	-0.417504	-0.053155
C166	C	0.549171	-0.790955	-0.010537
C167	C	0.589653	-0.693047	-0.007809
C168	C	0.540859	-0.645741	-0.010187
C169	C	0.678588	-0.652551	-0.006775
C170	C	0.581317	-0.556344	-0.010973
C171	C	0.530562	-0.506029	-0.015250
C172	C	0.286131	-0.263897	-0.032533
C173	C	0.383402	-0.360104	-0.028335
C174	C	0.434150	-0.410423	-0.024057
O175	O	-0.620614	0.089309	0.052274
O176	O	-0.529507	0.043784	-0.078544
O177	O	-0.523494	0.194833	-0.006033
O178	O	-0.626628	-0.061740	-0.020236
O179	O	-0.395386	0.185419	-0.005549
O180	O	-0.401400	0.034370	-0.078059
O181	O	-0.492507	0.079895	0.052758
Cu182	Cu	-0.435256	0.056273	-0.012607
Cu183	Cu	-0.586758	0.067406	-0.013179
O184	O	-0.498521	-0.071154	-0.019752
C185	C	-0.437537	0.048335	0.402491
C186	C	-0.397043	0.041789	0.352989
C187	C	-0.445822	0.047883	0.329994
C188	C	-0.496646	0.126653	0.277022
C189	C	-0.465894	-0.000633	0.218811
C190	C	-0.837226	0.099430	0.210091
C191	C	-0.739773	0.100339	0.187806
C192	C	-0.691967	0.094287	0.211308
C193	C	-0.571027	0.088563	0.071568
C194	C	-0.611521	0.095108	0.121070
C195	C	-0.562739	0.089011	0.144061
C196	C	-0.511915	0.010241	0.197033
C197	C	-0.542670	0.137531	0.255247
C198	C	-0.171338	0.037467	0.263967
C199	C	-0.268788	0.036555	0.286249
C200	C	-0.316597	0.042611	0.262750
C201	C	-0.308112	0.037305	0.331542
C202	C	-0.405351	0.048369	0.284750
C203	C	-0.456092	0.058317	0.260279
C204	C	-0.700452	0.099593	0.142516
C205	C	-0.603213	0.088528	0.189308
C206	C	-0.552469	0.078578	0.213776
O207	O	-0.040608	-1.085661	-0.825229
O208	O	-0.001018	-0.826491	-0.777938
O209	O	-0.150287	-0.971682	-0.775894
O210	O	0.108661	-0.940470	-0.827272
O211	O	-0.144253	-0.976123	-0.711878
O212	O	0.005016	-0.830932	-0.713922
O213	O	-0.034575	-1.090102	-0.761213
Cu214	Cu	-0.014228	-0.960923	-0.731722
Cu215	Cu	-0.021364	-0.955670	-0.807428
O216	O	0.114695	-0.944911	-0.763256
C217	C	-0.036587	-0.225633	-0.248813
C218	C	-0.115212	-0.197561	-0.222306
C219	C	-0.112787	-0.156006	-0.177394
H220	H	0.014756	-0.174936	-0.247781
H221	H	-0.032968	-0.267195	-0.237357
H222	H	-0.118822	-0.156002	-0.233759
H223	H	-0.166568	-0.248241	-0.223325
H224	H	-0.109167	-0.197567	-0.165938
H225	H	-0.061440	-0.105312	-0.176366
H226	H	-0.166135	-0.136961	-0.159403
C227	C	0.001090	-0.690952	-0.290369
C228	C	0.079696	-0.719060	-0.316870
C229	C	0.077231	-0.760704	-0.361773
H230	H	-0.002530	-0.649458	-0.301861
H231	H	-0.050283	-0.741644	-0.291360
H232	H	0.131055	-0.668375	-0.315881
H233	H	0.083332	-0.760564	-0.305392
H234	H	0.025858	-0.811395	-0.362764
H235	H	0.073609	-0.719204	-0.373260
H236	H	0.130560	-0.779787	-0.379758
C237	C	-0.004483	-0.242632	-0.610486
C238	C	-0.008191	-0.153725	-0.597608
C239	C	-0.005450	-0.111785	-0.552758
H240	H	0.050038	-0.242774	-0.608213
H241	H	-0.054644	-0.274344	-0.591069
H242	H	0.041965	-0.122021	-0.617019
H243	H	-0.062708	-0.153557	-0.599870
H244	H	-0.055611	-0.143497	-0.533340
H245	H	0.049071	-0.111933	-0.550489
H246	H	-0.007974	-0.051460	-0.544012
H247	H	0.261721	-0.474856	-0.029430
C248	C	0.104370	-0.286545	-0.276661
C249	C	0.168063	-0.263164	-0.254184
C250	C	0.227753	-0.178876	-0.257666
H251	H	0.071518	-0.242656	-0.263199
H252	H	0.134521	-0.289125	-0.307735
H253	H	0.137915	-0.260578	-0.223115
H254	H	0.200936	-0.307030	-0.267640
H255	H	0.257904	-0.181456	-0.288740
H256	H	0.194894	-0.134994	-0.244205
H257	H	0.270981	-0.163005	-0.242420
H258	H	-0.015393	-0.167196	-0.666497
H259	H	-0.738384	0.080845	-0.251490
H260	H	-0.037138	-0.474881	-0.380005
C261	C	0.126482	-0.381978	-0.228872
C262	C	0.182434	-0.439641	-0.247856
C263	C	0.253059	-0.402018	-0.228260
H264	H	0.102231	-0.374003	-0.197084
H265	H	0.160700	-0.325318	-0.234497
H266	H	0.148222	-0.496285	-0.242227
H267	H	0.206708	-0.447622	-0.279642
H268	H	0.287276	-0.345358	-0.233885
H269	H	0.228800	-0.394044	-0.196472
H270	H	0.291035	-0.441132	-0.241140
H271	H	-0.503619	0.071273	-0.373665
H272	H	0.710767	-0.684484	-0.506030
H273	H	0.496488	-0.236853	-0.027824
C274	C	-0.024514	-0.136594	-0.729607
C275	C	-0.020830	-0.110282	-0.685157
C276	C	-0.023604	-0.020473	-0.664452
H277	H	-0.079036	-0.130781	-0.729057
H278	H	0.025645	-0.099331	-0.746262
H279	H	-0.070984	-0.147534	-0.668505
H280	H	0.033689	-0.116073	-0.685694
H281	H	0.026555	0.016790	-0.681107
H282	H	-0.078127	-0.014668	-0.663905
H283	H	-0.021097	-0.002606	-0.634292
H284	H	0.634201	-0.467612	-0.072637
H285	H	-0.365918	0.157102	-0.260160
C286	C	-0.015853	-0.678637	-0.927601
C287	C	0.058135	-0.631668	-0.956089
C288	C	0.055538	-0.673327	-1.000972
H289	H	-0.070332	-0.678413	-0.929883
H290	H	-0.013309	-0.738983	-0.936444
H291	H	0.055583	-0.571338	-0.947250
H292	H	0.112625	-0.631889	-0.953822
H293	H	0.058082	-0.733673	-1.009814
H294	H	0.001056	-0.673101	-1.003248
H295	H	0.105742	-0.641470	-1.020307
H296	H	-0.574318	0.196197	0.271049
C297	C	-0.052687	-0.219494	-0.887991
C298	C	0.013665	-0.137391	-0.888858
C299	C	-0.004718	-0.091331	-0.909571
H300	H	-0.110271	-0.208526	-0.871315
H301	H	-0.052567	-0.254911	-0.918136
H302	H	0.013536	-0.101981	-0.858719
H303	H	0.071256	-0.148333	-0.905537
H304	H	-0.004598	-0.126747	-0.939716
H305	H	-0.062303	-0.080369	-0.892893
H306	H	0.040303	-0.035622	-0.910167
H307	H	0.013347	-0.692513	-0.652885
C308	C	0.232166	-0.210681	-0.033820
C309	C	0.155818	-0.208081	0.004301
C310	C	0.106087	-0.159059	0.003137
H311	H	0.213685	-0.238798	-0.060558
H312	H	0.268703	-0.151062	-0.033722
H313	H	0.119287	-0.267690	0.004199
H314	H	0.174273	-0.179958	0.031044
H315	H	0.142624	-0.099439	0.003234
H316	H	0.087612	-0.187180	-0.023603
H317	H	0.054283	-0.157281	0.029003
C318	C	-0.004276	-0.778685	-0.877238
C319	C	-0.007919	-0.804985	-0.921695
C320	C	-0.005046	-0.894764	-0.942416
H321	H	-0.054398	-0.816009	-0.860613
H322	H	0.050280	-0.784416	-0.877770
H323	H	-0.062469	-0.799262	-0.921161
H324	H	0.042199	-0.767685	-0.938333
H325	H	0.049510	-0.900495	-0.942948
H326	H	-0.055169	-0.932080	-0.925787
H327	H	-0.007509	-0.912618	-0.972584
C328	C	0.268891	-0.773683	-0.522404
C329	C	0.192316	-0.778439	-0.484518
C330	C	0.152080	-0.868188	-0.483625
H331	H	0.310773	-0.796397	-0.520651
H332	H	0.251644	-0.808624	-0.549251
H333	H	0.209566	-0.743512	-0.457677
H334	H	0.150414	-0.755744	-0.486262
H335	H	0.134833	-0.903128	-0.510473
H336	H	0.193969	-0.890893	-0.481874
H337	H	0.100116	-0.871428	-0.457923
H338	H	0.417564	-0.755580	-0.518528
C339	C	0.795222	-0.237892	-0.518889
C340	C	0.801508	-0.238381	-0.478669
C341	C	0.890598	-0.196682	-0.476903
H342	H	0.812146	-0.177517	-0.519709
H343	H	0.834470	-0.269664	-0.544151
H344	H	0.762274	-0.206607	-0.453414
H345	H	0.784603	-0.298744	-0.477840
H346	H	0.929846	-0.228454	-0.502165
H347	H	0.907514	-0.136310	-0.477725
H348	H	0.894877	-0.197015	-0.449617
H349	H	0.001660	-0.441639	-0.159184
H350	H	0.003321	-0.760550	-0.802778
C351	C	-0.465954	0.082781	0.120109
C352	C	-0.464354	0.005915	0.082785
C353	C	-0.375210	0.000157	0.060707
H354	H	-0.442442	0.078994	0.140524
H355	H	-0.430083	0.134801	0.110028
H356	H	-0.500212	-0.046093	0.092867
H357	H	-0.487849	0.009684	0.062360
H358	H	-0.339338	0.052178	0.050626
H359	H	-0.351705	-0.003627	0.081126
H360	H	-0.374111	-0.051991	0.035378
H361	H	-0.489994	0.175891	0.311254
C362	C	0.403056	-0.543775	0.051817
C363	C	0.317971	-0.528520	0.077021
C364	C	0.278676	-0.569815	0.111998
H365	H	0.440612	-0.519217	0.071054
H366	H	0.396547	-0.606703	0.039205
H367	H	0.324484	-0.465605	0.089633
H368	H	0.280393	-0.553080	0.057797
H369	H	0.272167	-0.632743	0.099386
H370	H	0.316238	-0.545254	0.131232
H371	H	0.220938	-0.559478	0.129101
C372	C	0.014084	-0.705805	-0.146212
C373	C	-0.062113	-0.708442	-0.108052
C374	C	-0.059088	-0.757475	-0.083531
H375	H	0.067191	-0.677680	-0.136789
H376	H	0.014700	-0.765416	-0.164888
H377	H	-0.062720	-0.648843	-0.089379
H378	H	-0.115231	-0.736575	-0.117462
H379	H	-0.058472	-0.817085	-0.102207
H380	H	-0.005979	-0.729344	-0.074111
H381	H	-0.110790	-0.759277	-0.057639
C382	C	0.166960	-0.673942	-0.527748
C383	C	0.165610	-0.748573	-0.566156
C384	C	0.076540	-0.790549	-0.567919
H385	H	0.143362	-0.632607	-0.529381
H386	H	0.131055	-0.693141	-0.501257
H387	H	0.201502	-0.729372	-0.592641
H388	H	0.189191	-0.789928	-0.564532
H389	H	0.040635	-0.809749	-0.541428
H390	H	0.052949	-0.749208	-0.569551
H391	H	0.075612	-0.841196	-0.593976
C392	C	-0.767656	0.090830	-0.383194
C393	C	-0.724185	0.167670	-0.398617
C394	C	-0.773615	0.171760	-0.422482
H395	H	-0.826724	0.093653	-0.363743
H396	H	-0.771593	0.038658	-0.408380
H397	H	-0.720259	0.219829	-0.373434
H398	H	-0.665121	0.164864	-0.418074
H399	H	-0.777552	0.119589	-0.447668
H400	H	-0.832681	0.174581	-0.403028
H401	H	-0.744123	0.223891	-0.432953
C402	C	-0.438444	0.196085	-0.306629
C403	C	-0.353359	0.244179	-0.300150
C404	C	-0.314053	0.313079	-0.321323
H405	H	-0.475994	0.235583	-0.293840
H406	H	-0.431933	0.170696	-0.338181
H407	H	-0.359875	0.269568	-0.268605
H408	H	-0.315787	0.204706	-0.312942
H409	H	-0.307542	0.287689	-0.352875
H410	H	-0.351610	0.352570	-0.308532
H411	H	-0.256316	0.345713	-0.316934
C412	C	0.693263	-0.137867	-0.524161
C413	C	0.781818	-0.111563	-0.522151
C414	C	0.822045	-0.021765	-0.522956
H415	H	0.659493	-0.100571	-0.498844
H416	H	0.694264	-0.132097	-0.551394
H417	H	0.780811	-0.117325	-0.494921
H418	H	0.815611	-0.148835	-0.547465
H419	H	0.823046	-0.015995	-0.550190
H420	H	0.788268	0.015523	-0.497639
H421	H	0.882136	-0.003909	-0.521597
C422	C	-0.161756	-0.534539	-0.310450
C423	C	-0.158187	-0.476033	-0.331817
C424	C	-0.228590	-0.513658	-0.351563
H425	H	-0.218090	-0.543661	-0.287611
H426	H	-0.155588	-0.590625	-0.332199
H427	H	-0.164362	-0.419963	-0.310070
H428	H	-0.101868	-0.466906	-0.354662
H429	H	-0.222423	-0.569745	-0.373312
H430	H	-0.284920	-0.522779	-0.328721
H431	H	-0.226173	-0.473972	-0.366066
C432	C	-0.286202	0.029587	-0.286472
C433	C	-0.260949	-0.050407	-0.312252
C434	C	-0.220553	-0.050303	-0.357748
H435	H	-0.234160	0.079471	-0.288915
H436	H	-0.327986	0.034022	-0.297407
H437	H	-0.219168	-0.054833	-0.301320
H438	H	-0.312975	-0.100305	-0.309823
H439	H	-0.262337	-0.045868	-0.368683
H440	H	-0.168514	-0.000415	-0.360186
H441	H	-0.203421	-0.104581	-0.375246
H442	H	-0.048864	-0.224020	-0.386283
C443	C	0.561641	-0.372723	-0.091143
C444	C	0.646713	-0.388006	-0.116356
C445	C	0.685984	-0.346765	-0.151352
H446	H	0.568178	-0.309799	-0.078563
H447	H	0.524037	-0.397321	-0.110366
H448	H	0.684307	-0.363405	-0.097136
H449	H	0.640200	-0.450922	-0.128946
H450	H	0.648381	-0.371363	-0.170574
H451	H	0.692516	-0.283843	-0.138768
H452	H	0.743706	-0.357136	-0.168465
C453	C	-0.735788	0.093789	0.260647
C454	C	-0.737244	0.013601	0.264954
C455	C	-0.777594	0.013116	0.310399
H456	H	-0.795881	0.098082	0.270349
H457	H	-0.702064	0.143558	0.278851
H458	H	-0.770969	-0.036155	0.246757
H459	H	-0.677164	0.009290	0.255262
H460	H	-0.743870	0.062885	0.328603
H461	H	-0.837684	0.017412	0.320098
H462	H	-0.778580	-0.041287	0.313328
C463	C	-0.692948	-0.062062	-0.265934
C464	C	-0.725358	-0.037601	-0.290647
C465	C	-0.811349	-0.094837	-0.292271
H466	H	-0.732921	-0.057092	-0.235976
H467	H	-0.689317	-0.122456	-0.280239
H468	H	-0.728994	0.022778	-0.276341
H469	H	-0.685409	-0.042576	-0.320607
H470	H	-0.807718	-0.155231	-0.306576
H471	H	-0.851315	-0.089863	-0.262312
H472	H	-0.833346	-0.078254	-0.309042
C473	C	0.732292	-0.705805	-0.005303
C474	C	0.688825	-0.735480	0.033703
C475	C	0.738266	-0.784539	0.035078
H476	H	0.791356	-0.668493	-0.004689
H477	H	0.736237	-0.756281	-0.031443
H478	H	0.684890	-0.685012	0.059837
H479	H	0.629764	-0.772804	0.033098
H480	H	0.742211	-0.835015	0.008938
H481	H	0.797328	-0.747221	0.035691
H482	H	0.708776	-0.804687	0.061542
C483	C	0.713836	-0.417148	-0.009969
C484	C	0.663991	-0.362396	0.027455
C485	C	0.704280	-0.272488	0.026858
H486	H	0.714913	-0.411028	-0.037129
H487	H	0.773902	-0.399412	-0.008592
H488	H	0.603942	-0.380126	0.026074
H489	H	0.662911	-0.368488	0.054621
H490	H	0.764346	-0.254752	0.028236
H491	H	0.705355	-0.266378	-0.000303
H492	H	0.670471	-0.235327	0.052252
H493	H	-0.740818	0.102779	0.123104
C494	C	-0.596866	-0.085676	-0.219051
C495	C	-0.613299	-0.168929	-0.251521
C496	C	-0.652345	-0.237966	-0.230449
H497	H	-0.652255	-0.077575	-0.196657
H498	H	-0.556804	-0.084143	-0.205131
H499	H	-0.653359	-0.170460	-0.265434
H500	H	-0.557925	-0.177059	-0.273916
H501	H	-0.612282	-0.236432	-0.216529
H502	H	-0.707730	-0.229856	-0.208056
H503	H	-0.663491	-0.294461	-0.252477
C504	C	0.307219	-0.447202	0.041434
C505	C	0.308869	-0.356733	0.064162
C506	C	0.222921	-0.351131	0.093997
H507	H	0.290386	-0.478794	0.062891
H508	H	0.264629	-0.473167	0.024795
H509	H	0.351444	-0.330779	0.080800
H510	H	0.325685	-0.325123	0.042717
H511	H	0.180332	-0.377096	0.077357
H512	H	0.206096	-0.382727	0.115450
H513	H	0.224027	-0.289748	0.109418
C514	C	-0.520721	-0.055533	0.151405
C515	C	-0.476078	-0.120744	0.139116
C516	C	-0.484178	-0.181357	0.097087
H517	H	-0.494388	-0.023993	0.129099
H518	H	-0.582837	-0.083968	0.153540
H519	H	-0.413974	-0.092311	0.136978
H520	H	-0.502401	-0.152306	0.161411
H521	H	-0.546295	-0.209792	0.099222
H522	H	-0.457846	-0.149809	0.074785
H523	H	-0.453897	-0.225614	0.088746
C524	C	-0.254331	0.033208	0.357494
C525	C	-0.248503	0.110326	0.394495
C526	C	-0.198973	0.106582	0.418414
H527	H	-0.195272	0.030352	0.338042
H528	H	-0.283760	-0.018786	0.368080
H529	H	-0.219072	0.162306	0.383908
H530	H	-0.307548	0.113198	0.413958
H531	H	-0.228402	0.054587	0.429001
H532	H	-0.139917	0.103723	0.398959
H533	H	-0.195019	0.158900	0.443525
H534	H	-0.434254	-0.059305	0.203012
H535	H	-0.531920	0.039247	-0.151930
H536	H	-0.281187	0.020914	-0.148901
C537	C	0.444070	-0.691023	-0.011984
C538	C	0.442460	-0.765628	-0.050395
C539	C	0.353312	-0.807370	-0.052061
H540	H	0.420554	-0.649555	-0.013555
H541	H	0.408205	-0.710216	0.014512
H542	H	0.478311	-0.746434	-0.076884
H543	H	0.465958	-0.807117	-0.048832
H544	H	0.317447	-0.826562	-0.025565
H545	H	0.329803	-0.765894	-0.053631
H546	H	0.352206	-0.857998	-0.078120
C547	C	-0.272569	0.042882	0.213385
C548	C	-0.184081	0.036439	0.199272
C549	C	-0.143500	0.036665	0.153797
H550	H	-0.271385	0.097218	0.210314
H551	H	-0.306245	-0.006947	0.195180
H552	H	-0.150414	0.086264	0.217471
H553	H	-0.185239	-0.017895	0.202332
H554	H	-0.177176	-0.013163	0.135592
H555	H	-0.142323	0.091003	0.150730
H556	H	-0.083461	0.032286	0.144214
H557	H	-0.123560	-0.607102	-0.263443
H558	H	0.544602	-0.156012	-0.528109
H559	H	0.245727	-0.224039	-0.533582
C560	C	-0.542586	0.054195	0.353920
C561	C	-0.544148	0.131098	0.391224
C562	C	-0.633265	0.136960	0.413271
H563	H	-0.578549	0.002226	0.364023
H564	H	-0.566011	0.057991	0.333467
H565	H	-0.520734	0.127296	0.411673
H566	H	-0.508203	0.183081	0.381133
H567	H	-0.656690	0.140755	0.392817
H568	H	-0.669220	0.084987	0.423371
H569	H	-0.634335	0.189142	0.438581
H570	H	0.780052	-0.386407	-0.516111
H571	H	0.003251	-0.391359	-0.619081
H572	H	0.182115	-0.525189	-0.530531
H573	H	-0.023718	-0.530163	-0.918978
