data_functionalizedCrystal
_audit_creation_method	'MofGen! by Chris Wilmer'
_symmetry_space_group_name_H-M	'P1'
_symmetry_Int_Tables_number	1
_symmetry_cell_setting	triclinic
loop_
_symmetry_equiv_pos_as_xyz
  x,y,z
_cell_length_a	17.077404
_cell_length_b	19.077432
_cell_length_c	17.077396
_cell_angle_alpha	92.327207
_cell_angle_beta	90.019501
_cell_angle_gamma	87.727210
loop_
_atom_site_label
_atom_site_type_symbol
_atom_site_fract_x
_atom_site_fract_y
_atom_site_fract_z
Zn1	Zn	1.212589	-0.280193	0.431292
Zn2	Zn	1.462589	-0.030193	0.681292
Zn3	Zn	1.712589	0.219807	0.931292
Zn4	Zn	1.962589	0.469807	1.181292
Zn5	Zn	1.217762	-0.397895	0.294754
Zn6	Zn	1.467762	-0.147895	0.544754
Zn7	Zn	1.717762	0.102105	0.794754
Zn8	Zn	1.967762	0.352105	1.044754
Zn9	Zn	1.081322	-0.280218	0.300039
Zn10	Zn	1.331322	-0.030218	0.550039
Zn11	Zn	1.581322	0.219782	0.800039
Zn12	Zn	1.831322	0.469782	1.050039
Zn13	Zn	1.086553	-0.397853	0.425980
Zn14	Zn	1.336553	-0.147853	0.675980
Zn15	Zn	1.586553	0.102147	0.925980
Zn16	Zn	1.836553	0.352147	1.175980
O17	O	1.149557	-0.339040	0.363016
O18	O	1.399557	-0.089040	0.613016
O19	O	1.649557	0.160960	0.863016
O20	O	1.899557	0.410960	1.113016
O21	O	1.323123	-0.295813	0.413192
O22	O	1.573123	-0.045813	0.663192
O23	O	1.823123	0.204187	0.913192
O24	O	2.073123	0.454187	1.163192
O25	O	1.199639	-0.382312	0.185607
O26	O	1.449639	-0.132312	0.435607
O27	O	1.699639	0.117688	0.685607
O28	O	1.949639	0.367688	0.935607
O29	O	1.094381	-0.181725	0.321885
O30	O	1.344381	0.068275	0.571885
O31	O	1.594381	0.318275	0.821885
O32	O	1.844381	0.568275	1.071885
O33	O	1.326923	-0.382289	0.312878
O34	O	1.576923	-0.132289	0.562878
O35	O	1.826923	0.117711	0.812878
O36	O	2.076923	0.367711	1.062878
O37	O	1.190823	-0.181707	0.418316
O38	O	1.440823	0.068293	0.668316
O39	O	1.690823	0.318293	0.918316
O40	O	1.940823	0.568293	1.168316
O41	O	1.099397	-0.295855	0.189490
O42	O	1.349397	-0.045855	0.439490
O43	O	1.599397	0.204145	0.689490
O44	O	1.849397	0.454145	0.939490
O45	O	0.972169	-0.295815	0.316734
O46	O	1.222169	-0.045815	0.566734
O47	O	1.472169	0.204185	0.816734
O48	O	1.722169	0.454185	1.066734
O49	O	1.103296	-0.382217	0.536533
O50	O	1.353296	-0.132217	0.786533
O51	O	1.603296	0.117783	1.036533
O52	O	1.853296	0.367783	1.286533
O53	O	0.976012	-0.382241	0.409262
O54	O	1.226012	-0.132241	0.659262
O55	O	1.476012	0.117759	0.909262
O56	O	1.726012	0.367759	1.159262
O57	O	1.195895	-0.295773	0.540436
O58	O	1.445895	-0.045773	0.790436
O59	O	1.695895	0.204227	1.040436
O60	O	1.945895	0.454227	1.290436
O61	O	1.204711	-0.496379	0.307726
O62	O	1.454711	-0.246379	0.557726
O63	O	1.704711	0.003621	0.807726
O64	O	1.954711	0.253621	1.057726
O65	O	1.108312	-0.496348	0.404137
O66	O	1.358312	-0.246348	0.654137
O67	O	1.608312	0.003652	0.904137
O68	O	1.858312	0.253652	1.154137
C69	C	0.945608	-0.339027	0.362995
C70	C	1.195608	-0.089027	0.612995
C71	C	1.445608	0.160973	0.862995
C72	C	1.695608	0.410973	1.112995
C73	C	0.858359	-0.339038	0.363004
C74	C	1.108359	-0.089038	0.613004
C75	C	1.358359	0.160962	0.863004
C76	C	1.608359	0.410962	1.113004
C77	C	0.819393	-0.384108	0.411100
C78	C	1.069393	-0.134108	0.661100
C79	C	1.319393	0.115892	0.911100
C80	C	1.569393	0.365892	1.161100
C81	C	0.737413	-0.384110	0.411112
C82	C	0.987413	-0.134110	0.661112
C83	C	1.237413	0.115890	0.911112
C84	C	1.487413	0.365890	1.161112
C85	C	0.694400	-0.339044	0.363024
C86	C	0.944400	-0.089044	0.613024
C87	C	1.194400	0.160956	0.863024
C88	C	1.444400	0.410956	1.113024
C89	C	0.733371	-0.293969	0.314927
C90	C	0.983371	-0.043969	0.564927
C91	C	1.233371	0.206031	0.814927
C92	C	1.483371	0.456031	1.064927
C93	C	0.815350	-0.293965	0.314919
C94	C	1.065350	-0.043965	0.564919
C95	C	1.315350	0.206035	0.814919
C96	C	1.565350	0.456035	1.064919
C97	C	0.562502	-0.293983	0.314945
C98	C	0.812502	-0.043983	0.564945
C99	C	1.062502	0.206017	0.814945
C100	C	1.312502	0.456017	1.064945
C101	C	0.480517	-0.293988	0.314951
C102	C	0.730517	-0.043988	0.564951
C103	C	0.980517	0.206012	0.814951
C104	C	1.230517	0.456012	1.064951
C105	C	0.484565	-0.384128	0.411138
C106	C	0.734565	-0.134128	0.661138
C107	C	0.984565	0.115872	0.911138
C108	C	1.234565	0.365872	1.161138
C109	C	0.566544	-0.384124	0.411130
C110	C	0.816544	-0.134124	0.661130
C111	C	1.066544	0.115876	0.911130
C112	C	1.316544	0.365876	1.161130
C113	C	0.605509	-0.339049	0.363031
C114	C	0.855509	-0.089049	0.613031
C115	C	1.105509	0.160951	0.863031
C116	C	1.355509	0.410951	1.113031
C117	C	1.157661	-0.521901	0.354799
C118	C	1.407661	-0.271901	0.604799
C119	C	1.657661	-0.021901	0.854799
C120	C	1.907661	0.228099	1.104799
C121	C	1.161201	-0.600130	0.351310
C122	C	1.411201	-0.350130	0.601310
C123	C	1.661201	-0.100130	0.851310
C124	C	1.911201	0.149870	1.101310
C125	C	1.112639	-0.636891	0.399825
C126	C	1.362639	-0.386891	0.649825
C127	C	1.612639	-0.136891	0.899825
C128	C	1.862639	0.113109	1.149825
C129	C	1.115968	-0.710395	0.396543
C130	C	1.365968	-0.460395	0.646543
C131	C	1.615968	-0.210395	0.896543
C132	C	1.865968	0.039605	1.146543
C133	C	1.167862	-0.747137	0.344750
C134	C	1.417862	-0.497137	0.594750
C135	C	1.667862	-0.247137	0.844750
C136	C	1.917862	0.002863	1.094750
C137	C	1.216426	-0.710370	0.296229
C138	C	1.466426	-0.460370	0.546229
C139	C	1.716426	-0.210370	0.796229
C140	C	1.966426	0.039630	1.046229
C141	C	1.213093	-0.636867	0.299507
C142	C	1.463093	-0.386867	0.549507
C143	C	1.713093	-0.136867	0.799507
C144	C	1.963093	0.113133	1.049507
C145	C	1.183214	-0.966966	0.329563
C146	C	1.433214	-0.716966	0.579563
C147	C	1.683214	-0.466966	0.829563
C148	C	1.933214	-0.216966	1.079563
C149	C	1.186545	-1.040474	0.326291
C150	C	1.436545	-0.790474	0.576291
C151	C	1.686545	-0.540474	0.826291
C152	C	1.936545	-0.290474	1.076291
C153	C	1.086085	-1.040494	0.426604
C154	C	1.336085	-0.790494	0.676604
C155	C	1.586085	-0.540494	0.926604
C156	C	1.836085	-0.290494	1.176604
C157	C	1.082760	-0.966990	0.429881
C158	C	1.332760	-0.716990	0.679881
C159	C	1.582760	-0.466990	0.929881
C160	C	1.832760	-0.216990	1.179881
C161	C	1.131321	-0.930230	0.381358
C162	C	1.381321	-0.680230	0.631358
C163	C	1.631321	-0.430230	0.881358
C164	C	1.881321	-0.180230	1.131358
N165	N	1.171268	-0.822270	0.341396
N166	N	1.421268	-0.572270	0.591396
N167	N	1.671268	-0.322270	0.841396
N168	N	1.921268	-0.072270	1.091396
N169	N	1.127911	-0.855098	0.384708
N170	N	1.377911	-0.605098	0.634708
N171	N	1.627911	-0.355098	0.884708
N172	N	1.877911	-0.105098	1.134708
C173	C	1.354302	-0.339053	0.363038
C174	C	1.604302	-0.089053	0.613038
C175	C	1.854302	0.160947	0.863038
C176	C	2.104302	0.410947	1.113038
C177	C	1.441552	-0.339059	0.363047
C178	C	1.691552	-0.089059	0.613047
C179	C	1.941552	0.160941	0.863047
C180	C	2.191552	0.410941	1.113047
C181	C	1.149602	-0.338988	0.567763
C182	C	1.399602	-0.088988	0.817763
C183	C	1.649602	0.161012	1.067763
C184	C	1.899602	0.411012	1.317763
C185	C	1.149621	-0.338966	0.655014
C186	C	1.399621	-0.088966	0.905014
C187	C	1.649621	0.161034	1.155014
C188	C	1.899621	0.411034	1.405014
C189	C	1.141442	-0.155464	0.371283
C190	C	1.391442	0.094536	0.621283
C191	C	1.641442	0.344536	0.871283
C192	C	1.891442	0.594536	1.121283
C193	C	1.137984	-0.077236	0.374806
C194	C	1.387984	0.172764	0.624806
C195	C	1.637984	0.422764	0.874806
C196	C	1.887984	0.672764	1.124806
C197	C	1.149555	-0.339040	0.159068
C198	C	1.399555	-0.089040	0.409068
C199	C	1.649555	0.160960	0.659068
C200	C	1.899555	0.410960	0.909068
C201	C	1.149679	-0.338864	0.071827
C202	C	1.399679	-0.088864	0.321827
C203	C	1.649679	0.161136	0.571827
C204	C	1.899679	0.411136	0.821827
C205	C	1.197839	-0.293950	0.698038
C206	C	1.447839	-0.043950	0.948038
C207	C	1.697839	0.206050	1.198038
C208	C	1.947839	0.456050	1.448038
C209	C	1.197847	-0.293927	0.780019
C210	C	1.447847	-0.043927	1.030019
C211	C	1.697847	0.206073	1.280019
C212	C	1.947847	0.456073	1.530019
C213	C	1.149641	-0.338923	0.818975
C214	C	1.399641	-0.088923	1.068975
C215	C	1.649641	0.161077	1.318975
C216	C	1.899641	0.411077	1.568975
C217	C	1.101418	-0.383940	0.775945
C218	C	1.351418	-0.133940	1.025945
C219	C	1.601418	0.116060	1.275945
C220	C	1.851418	0.366060	1.525945
C221	C	1.101406	-0.383960	0.693966
C222	C	1.351406	-0.133960	0.943966
C223	C	1.601406	0.116040	1.193966
C224	C	1.851406	0.366040	1.443966
C225	C	1.101448	-0.383898	0.946817
C226	C	1.351448	-0.133898	1.196817
C227	C	1.601448	0.116102	1.446817
C228	C	1.851448	0.366102	1.696817
C229	C	1.101461	-0.383880	1.028803
C230	C	1.351461	-0.133880	1.278803
C231	C	1.601461	0.116120	1.528803
C232	C	1.851461	0.366120	1.778803
C233	C	1.197889	-0.293865	1.032871
C234	C	1.447889	-0.043865	1.282871
C235	C	1.697889	0.206135	1.532871
C236	C	1.947889	0.456135	1.782871
C237	C	1.197877	-0.293884	0.950891
C238	C	1.447877	-0.043884	1.200891
C239	C	1.697877	0.206116	1.450891
C240	C	1.947877	0.456116	1.700891
C241	C	1.149655	-0.338903	0.907867
C242	C	1.399655	-0.088903	1.157867
C243	C	1.649655	0.161097	1.407867
C244	C	1.899655	0.411097	1.657867
H245	H	0.601563	-0.420824	0.450283
H246	H	0.851563	-0.170824	0.700283
H247	H	1.101563	0.079176	0.950283
H248	H	1.351563	0.329176	1.200283
H249	H	1.258676	-0.740290	0.254054
H250	H	1.508676	-0.490290	0.504054
H251	H	1.758676	-0.240290	0.754054
H252	H	2.008676	0.009710	1.004054
H253	H	1.062165	-0.420574	0.807670
H254	H	1.312165	-0.170574	1.057670
H255	H	1.562165	0.079426	1.307670
H256	H	1.812165	0.329426	1.557670
H257	H	0.452835	-0.420827	0.450305
H258	H	0.702835	-0.170827	0.700305
H259	H	0.952835	0.079173	0.950305
H260	H	1.202835	0.329173	1.200305
H261	H	0.445497	-0.257284	0.275804
H262	H	0.695497	-0.007284	0.525804
H263	H	0.945497	0.242716	0.775804
H264	H	1.195497	0.492716	1.025804
H265	H	1.237096	-0.257311	0.666326
H266	H	1.487096	-0.007311	0.916326
H267	H	1.737096	0.242689	1.166326
H268	H	1.987096	0.492689	1.416326
H269	H	1.046549	-1.070433	0.466108
H270	H	1.296549	-0.820433	0.716108
H271	H	1.546549	-0.570433	0.966108
H272	H	1.796549	-0.320433	1.216108
H273	H	0.594224	-0.257273	0.275785
H274	H	0.844224	-0.007273	0.525785
H275	H	1.094224	0.242727	0.775785
H276	H	1.344224	0.492727	1.025785
H277	H	1.228809	-1.070387	0.284114
H278	H	1.478809	-0.820387	0.534114
H279	H	1.728809	-0.570387	0.784114
H280	H	1.978809	-0.320387	1.034114
H281	H	1.237135	-0.257249	0.919176
H282	H	1.487135	-0.007249	1.169176
H283	H	1.737135	0.242751	1.419176
H284	H	1.987135	0.492751	1.669176
H285	H	1.252635	-0.606936	0.260000
H286	H	1.502635	-0.356936	0.510000
H287	H	1.752635	-0.106936	0.760000
H288	H	2.002635	0.143064	1.010000
H289	H	1.062134	-0.420609	0.658937
H290	H	1.312134	-0.170609	0.908937
H291	H	1.562134	0.079391	1.158937
H292	H	1.812134	0.329391	1.408937
H293	H	0.705691	-0.420811	0.450276
H294	H	0.955691	-0.170811	0.700276
H295	H	1.205691	0.079189	0.950276
H296	H	1.455691	0.329189	1.200276
H297	H	0.698343	-0.257273	0.275776
H298	H	0.948343	-0.007273	0.525776
H299	H	1.198343	0.242727	0.775776
H300	H	1.448343	0.492727	1.025776
H301	H	1.237113	-0.257272	0.815046
H302	H	1.487113	-0.007272	1.065046
H303	H	1.737113	0.242728	1.315046
H304	H	1.987113	0.492728	1.565046
H305	H	1.222755	-0.937041	0.290055
H306	H	1.472755	-0.687041	0.540055
H307	H	1.722755	-0.437041	0.790055
H308	H	1.972755	-0.187041	1.040055
H309	H	0.854409	-0.420808	0.450256
H310	H	1.104409	-0.170808	0.700256
H311	H	1.354409	0.079192	0.950256
H312	H	1.604409	0.329192	1.200256
H313	H	1.237152	-0.257208	1.067906
H314	H	1.487152	-0.007208	1.317906
H315	H	1.737152	0.242792	1.567906
H316	H	1.987152	0.492792	1.817906
H317	H	1.062168	-0.420546	0.911790
H318	H	1.312168	-0.170546	1.161790
H319	H	1.562168	0.079454	1.411790
H320	H	1.812168	0.329454	1.661790
H321	H	0.847074	-0.257260	0.275759
H322	H	1.097074	-0.007260	0.525759
H323	H	1.347074	0.242740	0.775759
H324	H	1.597074	0.492740	1.025759
H325	H	1.070384	-0.606981	0.442004
H326	H	1.320384	-0.356981	0.692004
H327	H	1.570384	-0.106981	0.942004
H328	H	1.820384	0.143019	1.192004
H329	H	1.076417	-0.740324	0.436042
H330	H	1.326417	-0.490324	0.686042
H331	H	1.576417	-0.240324	0.936042
H332	H	1.826417	0.009676	1.186042
H333	H	1.040503	-0.937077	0.472055
H334	H	1.290503	-0.687077	0.722055
H335	H	1.540503	-0.437077	0.972055
H336	H	1.790503	-0.187077	1.222055
H337	H	1.062206	-0.420518	1.060518
H338	H	1.312206	-0.170518	1.310518
H339	H	1.562206	0.079482	1.560518
H340	H	1.812206	0.329482	1.810518
