data_functionalizedCrystal
_audit_creation_method	'MofGen! by Chris Wilmer'
_symmetry_space_group_name_H-M	'P1'
_symmetry_Int_Tables_number	1
_symmetry_cell_setting	triclinic
loop_
_symmetry_equiv_pos_as_xyz
  x,y,z
_cell_length_a	10.489716
_cell_length_b	8.965430
_cell_length_c	16.992695
_cell_angle_alpha	90.000158
_cell_angle_beta	92.401321
_cell_angle_gamma	90.003477
loop_
_atom_site_label
_atom_site_type_symbol
_atom_site_fract_x
_atom_site_fract_y
_atom_site_fract_z
O1	O	1.703693	0.124029	-0.110590
O2	O	1.333399	0.124035	-0.121000
O3	O	1.517061	0.124020	-0.001644
O4	O	1.520030	0.124044	-0.229946
O5	O	1.517046	-0.124059	-0.001652
O6	O	1.333383	-0.124044	-0.121008
O7	O	1.703677	-0.124050	-0.110598
Cu8	Cu	1.518529	-0.146698	-0.115804
Cu9	Cu	1.518547	0.146684	-0.115795
O10	O	1.520014	-0.124035	-0.229954
C11	C	1.285791	-0.000004	-0.120222
C12	C	1.143956	-0.000002	-0.117882
C13	C	1.052650	0.000009	-0.191075
C14	C	0.971931	-0.122317	-0.152402
C15	C	0.971952	0.122269	-0.152377
C16	C	1.065106	-0.122429	-0.079240
C17	C	1.065133	0.122267	-0.079225
C18	C	0.984458	-0.000090	-0.040499
N19	N	1.518525	-0.353047	-0.115810
C20	C	1.433557	-0.450347	-0.170990
C21	C	1.550436	-0.549760	-0.186858
C22	C	1.401696	-0.549761	-0.099948
C23	C	1.635465	-0.450272	-0.131714
C24	C	1.486646	-0.450264	-0.044773
C25	C	1.603605	-0.549633	-0.060612
C26	C	1.751285	-0.000008	-0.111376
C27	C	1.893120	0.000000	-0.113716
C28	C	1.513234	-0.000019	0.027586
C29	C	1.501839	-0.000018	0.114694
N30	N	1.518560	0.353033	-0.115782
C31	C	1.523842	0.000008	-0.259184
C32	C	1.535237	0.000017	-0.346292
C33	C	1.611789	-0.000022	0.164319
C34	C	1.601074	-0.000007	0.246166
C35	C	1.480408	-0.000000	0.278385
C36	C	1.370450	0.000007	0.228753
C37	C	1.381166	0.000004	0.146908
C38	C	1.435995	0.000021	0.522231
C39	C	1.425287	0.000020	0.604082
C40	C	1.655912	0.000008	0.621489
C41	C	1.666618	-0.000004	0.539642
C42	C	1.556659	0.000011	0.490017
N43	N	1.469453	0.000010	0.362045
N44	N	1.567616	0.000012	0.406359
H45	H	0.931164	0.225671	-0.183286
H46	H	1.710048	-0.000036	0.138093
N47	N	1.796757	0.000027	0.504882
H48	H	1.806342	-0.091931	0.471310
H49	H	1.864719	0.000094	0.548777
N50	N	1.317402	0.000031	0.468714
H51	H	1.239339	0.000029	0.501546
H52	H	1.316817	-0.091934	0.434376
N53	N	1.338464	-0.392603	-0.232850
H54	H	1.362729	-0.428804	-0.286481
H55	H	1.338572	-0.279964	-0.232022
N56	N	1.295132	0.000030	0.638832
H57	H	1.246596	0.092001	0.620789
H58	H	1.305141	-0.000034	0.698205
H59	H	0.931130	-0.225727	-0.183303
H60	H	1.745434	-0.000002	0.661902
N61	N	1.092698	-0.000121	-0.275400
H62	H	1.057335	0.091315	-0.303326
H63	H	1.058688	-0.092664	-0.302901
H64	H	1.105949	0.225682	-0.048348
H65	H	1.291632	0.000007	0.106503
N66	N	1.586196	-0.607653	-0.266413
H67	H	1.521952	-0.571547	-0.308071
H68	H	1.586778	-0.720291	-0.265588
H69	H	1.459624	-0.406527	0.015270
H70	H	1.105729	-0.225949	-0.048363
H71	H	1.272201	0.000022	0.254992
H72	H	0.954485	-0.000167	0.023214
N73	N	1.766400	-0.392647	-0.149560
H74	H	1.765570	-0.279997	-0.149483
H75	H	1.790609	-0.429826	-0.203015
H76	H	1.675557	-0.592954	-0.013934
H77	H	1.302881	-0.593466	-0.086545
H78	H	1.690607	-0.000013	0.286568
