data_functionalizedCrystal
_audit_creation_method	'MofGen! by Chris Wilmer'
_symmetry_space_group_name_H-M	'P1'
_symmetry_Int_Tables_number	1
_symmetry_cell_setting	triclinic
loop_
_symmetry_equiv_pos_as_xyz
  x,y,z
_cell_length_a	16.109302
_cell_length_b	9.016244
_cell_length_c	16.109301
_cell_angle_alpha	89.996338
_cell_angle_beta	96.538369
_cell_angle_gamma	90.009280
loop_
_atom_site_label
_atom_site_type_symbol
_atom_site_fract_x
_atom_site_fract_y
_atom_site_fract_z
O1	O	1.103135	0.123412	-0.106867
O2	O	0.861073	0.123401	-0.120165
O3	O	0.988754	0.123391	0.007515
O4	O	0.975455	0.123421	-0.234547
O5	O	0.988735	-0.123289	0.007512
O6	O	0.861055	-0.123280	-0.120168
O7	O	1.103117	-0.123269	-0.106870
Cu8	Cu	0.982084	-0.145799	-0.113519
Cu9	Cu	0.982106	0.145930	-0.113516
O10	O	0.975436	-0.123260	-0.234550
C11	C	0.830089	0.000059	-0.119628
C12	C	0.737794	0.000054	-0.118013
C13	C	0.525443	-0.134398	-0.114279
C14	C	0.438723	-0.134393	-0.112752
C15	C	0.438754	0.134552	-0.112753
C16	C	0.525473	0.134546	-0.114274
C17	C	0.568815	0.000066	-0.115041
C18	C	0.395375	0.000078	-0.111994
C19	C	0.301350	0.000084	-0.110338
C20	C	0.662847	0.000059	-0.116695
N21	N	0.982075	-0.350985	-0.113521
C22	C	0.913568	-0.586012	-0.181597
C23	C	0.913716	-0.414121	-0.181848
C24	C	1.068821	-0.413316	-0.132447
C25	C	1.068446	-0.585261	-0.132928
C26	C	0.964699	-0.585540	-0.026291
C27	C	0.962699	-0.413586	-0.026876
C28	C	1.134101	0.000076	-0.107407
C29	C	1.226396	0.000091	-0.109022
C30	C	0.988206	0.000050	0.038488
C31	C	0.986591	0.000048	0.130784
N32	N	0.982122	0.351116	-0.113507
C33	C	0.975984	0.000085	-0.265523
C34	C	0.977599	0.000096	-0.357819
C35	C	1.058599	0.000075	0.353056
C36	C	1.057074	0.000087	0.439776
C37	C	0.905586	0.000074	0.419902
C38	C	0.907111	0.000073	0.333184
C39	C	0.983620	0.000065	0.299763
C40	C	0.980571	0.000079	0.473202
C41	C	0.978918	0.000092	0.567228
C42	C	0.985273	0.000055	0.205731
H43	H	0.849235	-0.371982	-0.170575
H44	H	0.560729	-0.243899	-0.114904
H45	H	0.403454	0.244041	-0.112130
H46	H	0.843295	0.000077	0.447124
H47	H	0.846050	0.000069	0.289790
H48	H	0.924835	-0.372966	-0.246571
H49	H	0.403413	-0.243887	-0.112132
H50	H	0.848883	-0.627411	-0.170508
H51	H	1.121047	-0.372415	-0.084174
H52	H	1.121051	-0.626847	-0.085289
H53	H	0.560787	0.244049	-0.114892
H54	H	1.084541	-0.370230	-0.195328
H55	H	0.924538	-0.629197	-0.245954
H56	H	1.083803	-0.625341	-0.196533
H57	H	0.902823	-0.628993	-0.008086
H58	H	1.120897	0.000072	0.325848
H59	H	0.898888	-0.372849	-0.012513
H60	H	1.009384	-0.370614	0.026164
H61	H	1.014692	-0.626196	0.024378
H62	H	1.118130	0.000098	0.483165
