data_functionalizedCrystal
_audit_creation_method	'MofGen! by Chris Wilmer'
_symmetry_space_group_name_H-M	'P1'
_symmetry_Int_Tables_number	1
_symmetry_cell_setting	triclinic
loop_
_symmetry_equiv_pos_as_xyz
  x,y,z
_cell_length_a	14.908520
_cell_length_b	19.805407
_cell_length_c	19.805399
_cell_angle_alpha	90.019573
_cell_angle_beta	93.270609
_cell_angle_gamma	86.679227
loop_
_atom_site_label
_atom_site_type_symbol
_atom_site_fract_x
_atom_site_fract_y
_atom_site_fract_z
Zn1	Zn	-0.359181	-1.019204	-0.398269
Zn2	Zn	-0.510047	-1.012594	-0.291612
Zn3	Zn	-0.359206	-0.906017	-0.285095
Zn4	Zn	-0.509999	-0.899460	-0.404757
O5	O	-0.434608	-0.959319	-0.344934
O6	O	-0.379203	-1.113043	-0.384134
O7	O	-0.490068	-0.998435	-0.196033
O8	O	-0.232958	-0.926542	-0.294665
O9	O	-0.490044	-1.108187	-0.305773
O10	O	-0.232939	-1.009699	-0.377814
O11	O	-0.379246	-0.920133	-0.191244
O12	O	-0.379199	-0.810431	-0.300956
O13	O	-0.489962	-0.915366	-0.498612
O14	O	-0.489986	-0.805614	-0.388871
O15	O	-0.379157	-1.003341	-0.493845
O16	O	-0.636286	-0.992077	-0.312064
O17	O	-0.636250	-0.908957	-0.395191
C18	C	-0.434591	-0.783463	-0.344911
C19	C	-0.434605	-0.708231	-0.344918
C20	C	-0.669002	-0.949107	-0.355053
C21	C	-0.769277	-0.944800	-0.359405
C22	C	-0.434551	-0.959359	-0.521474
C23	C	-0.434527	-0.959376	-0.596705
C24	C	-0.957679	-1.023348	-0.281093
C25	C	-1.051896	-1.019304	-0.285180
C26	C	-1.051929	-0.932671	-0.371669
C27	C	-0.957712	-0.936715	-0.367582
C28	C	-0.910590	-0.982055	-0.322292
C29	C	-0.816372	-0.986095	-0.318202
C30	C	-0.816407	-0.899466	-0.404694
C31	C	-0.910624	-0.895421	-0.408781
C32	C	-0.199299	-0.969589	-0.334789
C33	C	-0.099024	-0.973966	-0.330466
C34	C	-0.434626	-1.135861	-0.344957
C35	C	-0.434634	-1.211092	-0.344967
C36	C	-0.492379	-0.670392	-0.390629
C37	C	-0.492380	-0.599704	-0.390639
C38	C	-0.434612	-0.566855	-0.344934
C39	C	-0.376832	-0.604699	-0.299220
C40	C	-0.376827	-0.675386	-0.299214
C41	C	-0.376852	-0.319625	-0.299244
C42	C	-0.376864	-0.248932	-0.299252
C43	C	-0.492406	-0.243942	-0.390668
C44	C	-0.492400	-0.314629	-0.390662
C45	C	-0.434618	-0.352467	-0.344952
C46	C	-0.434615	-0.429116	-0.344943
C47	C	-0.434618	-0.490208	-0.344939
C48	C	-0.376828	-1.005186	-0.629568
C49	C	-0.376802	-1.005194	-0.700255
C50	C	-0.434480	-0.959395	-0.738078
C51	C	-0.492182	-0.913581	-0.705210
C52	C	-0.492203	-0.913570	-0.634524
C53	C	-0.492098	-0.913622	-0.990280
C54	C	-0.492074	-0.913638	-1.060971
C55	C	-0.376697	-1.005247	-1.056011
C56	C	-0.376718	-1.005236	-0.985325
C57	C	-0.434416	-0.959419	-0.952463
C58	C	-0.434442	-0.959410	-0.875816
C59	C	-0.434459	-0.959407	-0.814725
C60	C	-0.434600	-0.959320	-0.169077
C61	C	-0.434370	-0.959445	-0.093836
H62	H	-0.778006	-1.023011	-0.281323
C63	C	-0.962469	-0.845547	-0.458594
N64	N	-1.001517	-0.807977	-0.496111
H65	H	-0.778057	-0.865840	-0.438239
H66	H	-0.539444	-0.341371	-0.427878
H67	H	-0.329809	-0.350424	-0.262018
C68	C	-0.313330	-1.055590	-0.736402
N69	N	-0.265520	-1.093550	-0.763626
C70	C	-0.555678	-0.863177	-0.598375
N71	N	-0.603488	-0.825218	-0.571149
H72	H	-0.919312	-1.060261	-0.244211
H73	H	-0.329777	-0.706194	-0.261995
C74	C	-1.103780	-0.882800	-0.421483
N75	N	-1.142834	-0.845235	-0.459002
C76	C	-1.103690	-1.064728	-0.239855
N77	N	-1.142701	-1.098942	-0.205714
C78	C	-0.555930	-0.706519	-0.440909
N79	N	-0.603796	-0.733728	-0.478784
C80	C	-0.555953	-0.558083	-0.440913
N81	N	-0.603845	-0.526735	-0.478777
H82	H	-0.539452	-0.213126	-0.427890
C83	C	-0.313305	-0.212801	-0.248975
N84	N	-0.265433	-0.185586	-0.211109
H85	H	-0.329793	-0.577948	-0.262009
H86	H	-0.329753	-1.042533	-0.954533
H87	H	-0.539092	-0.876325	-0.963533
C88	C	-0.313376	-1.055569	-0.587969
N89	N	-0.265578	-1.093517	-0.556638
C90	C	-0.555522	-0.863249	-1.102575
N91	N	-0.603307	-0.825297	-1.133911
C92	C	-0.313216	-1.055639	-1.092165
N93	N	-0.265403	-1.093593	-1.119396
H94	H	-0.539141	-0.876288	-0.736011
