data_functionalizedCrystal
_audit_creation_method	'MofGen! by Chris Wilmer'
_symmetry_space_group_name_H-M	'P1'
_symmetry_Int_Tables_number	1
_symmetry_cell_setting	triclinic
loop_
_symmetry_equiv_pos_as_xyz
  x,y,z
_cell_length_a	18.050589
_cell_length_b	19.077241
_cell_length_c	19.076919
_cell_angle_alpha	90.113904
_cell_angle_beta	92.270055
_cell_angle_gamma	87.687629
loop_
_atom_site_label
_atom_site_type_symbol
_atom_site_fract_x
_atom_site_fract_y
_atom_site_fract_z
Zn1	Zn	-0.269601	-1.058308	-0.440558
Zn2	Zn	0.063732	-0.724975	-0.107225
Zn3	Zn	0.397066	-0.391642	0.226108
Zn4	Zn	-0.388616	-1.062956	-0.323049
Zn5	Zn	-0.055282	-0.729623	0.010285
Zn6	Zn	0.278051	-0.396289	0.343618
Zn7	Zn	-0.269210	-0.945524	-0.318336
Zn8	Zn	0.064124	-0.612191	0.014997
Zn9	Zn	0.397457	-0.278857	0.348331
Zn10	Zn	-0.398521	-0.940776	-0.435784
Zn11	Zn	-0.065188	-0.607443	-0.102451
Zn12	Zn	0.268145	-0.274109	0.230883
O13	O	-0.331487	-1.001891	-0.379432
O14	O	0.001846	-0.668558	-0.046098
O15	O	0.335180	-0.335224	0.287235
O16	O	-0.281407	-1.157258	-0.428941
O17	O	0.051926	-0.823925	-0.095608
O18	O	0.385260	-0.490591	0.237726
O19	O	-0.368467	-1.051311	-0.224093
O20	O	-0.035134	-0.717977	0.109240
O21	O	0.298200	-0.384644	0.442574
O22	O	-0.165336	-0.960527	-0.334575
O23	O	0.167997	-0.627193	-0.001241
O24	O	0.501330	-0.293860	0.332092
O25	O	-0.368846	-1.160673	-0.342607
O26	O	-0.035513	-0.827340	-0.009274
O27	O	0.297820	-0.494006	0.324060
O28	O	-0.165624	-1.043389	-0.424371
O29	O	0.167709	-0.710056	-0.091038
O30	O	0.501043	-0.376722	0.242296
O31	O	-0.280740	-0.965034	-0.220630
O32	O	0.052593	-0.631700	0.112703
O33	O	0.385927	-0.298367	0.446036
O34	O	-0.290345	-0.846561	-0.329945
O35	O	0.042988	-0.513227	0.003388
O36	O	0.376322	-0.179894	0.336721
O37	O	-0.385729	-0.952435	-0.534748
O38	O	-0.052396	-0.619102	-0.201415
O39	O	0.280938	-0.285768	0.131919
O40	O	-0.385350	-0.843073	-0.416234
O41	O	-0.052016	-0.509739	-0.082901
O42	O	0.281317	-0.176406	0.250433
O43	O	-0.291012	-1.038785	-0.538256
O44	O	0.042321	-0.705452	-0.204922
O45	O	0.375655	-0.372119	0.128411
O46	O	-0.493855	-1.046707	-0.337978
O47	O	-0.160522	-0.713373	-0.004644
O48	O	0.172812	-0.380040	0.328689
O49	O	-0.501133	-0.956942	-0.420804
O50	O	-0.167799	-0.623608	-0.087470
O51	O	0.165534	-0.290275	0.245863
C52	C	-0.338880	-0.819320	-0.372060
C53	C	-0.005547	-0.485986	-0.038727
C54	C	0.327786	-0.152653	0.294606
C55	C	-0.342062	-0.741214	-0.368924
C56	C	-0.008728	-0.407881	-0.035590
C57	C	0.324605	-0.074548	0.297743
C58	C	-0.298110	-0.702740	-0.412468
C59	C	0.035224	-0.369407	-0.079135
C60	C	0.368557	-0.036074	0.254199
C61	C	-0.301095	-0.629352	-0.409514
C62	C	0.032238	-0.296019	-0.076181
C63	C	0.365571	0.037314	0.257152
C64	C	-0.348037	-0.594439	-0.363020
C65	C	-0.014704	-0.261106	-0.029686
C66	C	0.318629	0.072227	0.303647
C67	C	-0.391991	-0.632919	-0.319471
C68	C	-0.058657	-0.299585	0.013863
C69	C	0.274676	0.033748	0.347196
C70	C	-0.389001	-0.706306	-0.322421
C71	C	-0.055668	-0.372972	0.010912
C72	C	0.277666	-0.039639	0.344246
C73	C	-0.361849	-0.375147	-0.349365
C74	C	-0.028516	-0.041814	-0.016032
C75	C	0.304818	0.291520	0.317301
C76	C	-0.364837	-0.301755	-0.346420
C77	C	-0.031504	0.031578	-0.013086
C78	C	0.301829	0.364912	0.320247
C79	C	-0.273940	-0.298193	-0.436463
C80	C	0.059393	0.035140	-0.103129
C81	C	0.392726	0.368473	0.230204
C82	C	-0.270958	-0.371582	-0.439412
C83	C	0.062375	-0.038248	-0.106079
C84	C	0.395709	0.295085	0.227255
C85	C	-0.314909	-0.410055	-0.395860
C86	C	0.018425	-0.076722	-0.062527
C87	C	0.351758	0.256612	0.270806
N88	N	-0.351092	-0.519425	-0.360001
N89	N	-0.017758	-0.186092	-0.026668
N90	N	0.315575	0.147242	0.306665
N91	N	-0.311850	-0.485068	-0.398876
N92	N	0.021484	-0.151735	-0.065542
N93	N	0.354817	0.181599	0.267791
C94	C	-0.524440	-1.001832	-0.379400
C95	C	-0.191107	-0.668499	-0.046067
C96	C	0.142226	-0.335165	0.287267
C97	C	-0.606985	-1.001870	-0.379413
C98	C	-0.273652	-0.668537	-0.046079
C99	C	0.059682	-0.335203	0.287254
C100	C	-0.851824	-1.050803	-0.334454
C101	C	-0.518491	-0.717470	-0.001121
C102	C	-0.185158	-0.384137	0.332212
C103	C	-0.804334	-0.987384	-0.314614
C104	C	-0.471000	-0.654050	0.018719
C105	C	-0.137667	-0.320717	0.352052
C106	C	-0.904104	-1.001956	-0.379470
C107	C	-0.570771	-0.668623	-0.046137
C108	C	-0.237437	-0.335289	0.287196
C109	C	-0.804512	-1.065331	-0.399249
C110	C	-0.471179	-0.731997	-0.065915
C111	C	-0.137846	-0.398664	0.267418
C112	C	-0.758119	-1.001917	-0.379440
C113	C	-0.424786	-0.668584	-0.046107
C114	C	-0.091453	-0.335251	0.287226
C115	C	-0.857701	-0.938504	-0.359596
C116	C	-0.524367	-0.605171	-0.026262
C117	C	-0.191034	-0.271838	0.307071
C118	C	-0.857883	-1.016493	-0.444262
C119	C	-0.524550	-0.683160	-0.110928
C120	C	-0.191216	-0.349826	0.222405
C121	C	-0.810418	-0.953028	-0.424444
C122	C	-0.477084	-0.619695	-0.091111
C123	C	-0.143751	-0.286362	0.242223
C124	C	-0.988202	-1.001979	-0.379486
C125	C	-0.654869	-0.668646	-0.046152
C126	C	-0.321535	-0.335313	0.287181
C127	C	-0.674023	-1.001887	-0.379425
C128	C	-0.340690	-0.668553	-0.046091
C129	C	-0.007357	-0.335220	0.287242
C130	C	-0.137780	-1.001969	-0.379480
C131	C	0.195553	-0.668636	-0.046146
C132	C	0.528887	-0.335302	0.287187
C133	C	-0.055234	-1.002002	-0.379500
C134	C	0.278100	-0.668669	-0.046167
C135	C	0.611433	-0.335335	0.287167
C136	C	-0.339519	-0.994562	-0.562711
C137	C	-0.006186	-0.661229	-0.229377
C138	C	0.327148	-0.327895	0.103956
C139	C	-0.342942	-0.991439	-0.640813
C140	C	-0.009609	-0.658105	-0.307480
C141	C	0.323725	-0.324772	0.025853
C142	C	-0.324061	-0.185175	-0.386827
C143	C	0.009272	0.148158	-0.053493
C144	C	0.342606	0.481491	0.279840
C145	C	-0.320885	-0.263281	-0.389964
C146	C	0.012448	0.070053	-0.056631
C147	C	0.345781	0.403386	0.276703
C148	C	-0.295238	-1.034927	-0.679333
C149	C	0.038095	-0.701594	-0.346000
C150	C	0.371429	-0.368261	-0.012667
C151	C	-0.298452	-1.031984	-0.752719
C152	C	0.034882	-0.698651	-0.419385
C153	C	0.368215	-0.365317	-0.086052
C154	C	-0.349373	-0.985556	-0.787583
C155	C	-0.016040	-0.652222	-0.454249
C156	C	0.317293	-0.318889	-0.120916
C157	C	-0.397079	-0.942062	-0.749057
C158	C	-0.063746	-0.608729	-0.415724
C159	C	0.269588	-0.275396	-0.082391
C160	C	-0.393861	-0.945002	-0.675673
C161	C	-0.060528	-0.611669	-0.342340
C162	C	0.272805	-0.278336	-0.009006
C163	C	-0.364281	-0.971938	-1.006861
C164	C	-0.030948	-0.638605	-0.673528
C165	C	0.302385	-0.305272	-0.340195
C166	C	-0.367497	-0.969003	-1.080251
C167	C	-0.034164	-0.635670	-0.746917
C168	C	0.299170	-0.302336	-0.413584
C169	C	-0.268868	-1.058924	-1.083907
C170	C	0.064465	-0.725591	-0.750574
C171	C	0.397798	-0.392257	-0.417240
C172	C	-0.265658	-1.061863	-1.010521
C173	C	0.067675	-0.728530	-0.677188
C174	C	0.401009	-0.395196	-0.343855
C175	C	-0.313361	-1.018367	-0.972002
C176	C	0.019972	-0.685034	-0.638669
C177	C	0.353305	-0.351701	-0.305336
N178	N	-0.352661	-0.982548	-0.862594
N179	N	-0.019328	-0.649214	-0.529261
N180	N	0.314006	-0.315881	-0.195928
N181	N	-0.310069	-1.021372	-0.896992
N182	N	0.023264	-0.688039	-0.563659
N183	N	0.356597	-0.354705	-0.230325
C184	C	-0.323431	-1.009232	-0.196867
C185	C	0.009903	-0.675899	0.136466
C186	C	0.343236	-0.342565	0.469799
C187	C	-0.319793	-1.012491	-0.118771
C188	C	0.013540	-0.679158	0.214562
C189	C	0.346873	-0.345825	0.547896
H190	H	-0.403067	-0.273331	-0.308558
H191	H	-0.069733	0.060002	0.024776
H192	H	0.263600	0.393336	0.358109
O193	O	-0.225313	-0.405578	-0.484480
O194	O	0.108020	-0.072245	-0.151146
O195	O	0.441353	0.261088	0.182187
C196	C	-0.173793	-0.449616	-0.446259
C197	C	0.159540	-0.116282	-0.112926
C198	C	0.492873	0.217051	0.220408
H199	H	-0.197115	-0.462721	-0.393403
H200	H	0.136218	-0.129387	-0.060070
H201	H	0.469551	0.203946	0.273263
H202	H	-0.163045	-0.500086	-0.476969
H203	H	0.170288	-0.166753	-0.143636
H204	H	0.503621	0.166581	0.189697
H205	H	-0.119560	-0.421651	-0.437499
H206	H	0.213773	-0.088318	-0.104166
H207	H	0.547107	0.245015	0.229168
H208	H	-0.780881	-0.975066	-0.259808
H209	H	-0.447548	-0.641733	0.073525
H210	H	-0.114214	-0.308400	0.406858
O211	O	-0.776633	-1.129229	-0.419308
O212	O	-0.443299	-0.795895	-0.085974
O213	O	-0.109966	-0.462562	0.247359
C214	C	-0.736569	-1.121871	-0.480649
C215	C	-0.403236	-0.788538	-0.147315
C216	C	-0.069902	-0.455205	0.186018
H217	H	-0.717850	-1.065701	-0.484565
H218	H	-0.384516	-0.732368	-0.151232
H219	H	-0.051183	-0.399034	0.182101
H220	H	-0.685902	-1.159577	-0.478485
H221	H	-0.352569	-0.826244	-0.145151
H222	H	-0.019235	-0.492910	0.188182
H223	H	-0.773557	-1.134387	-0.528497
H224	H	-0.440224	-0.801053	-0.195164
H225	H	-0.106891	-0.467720	0.138169
O226	O	-0.416935	-0.923953	-1.114230
O227	O	-0.083601	-0.590619	-0.780897
O228	O	0.249732	-0.257286	-0.447563
C229	C	-0.409529	-0.930674	-1.187259
C230	C	-0.076196	-0.597341	-0.853926
C231	C	0.257137	-0.264008	-0.520593
H232	H	-0.383463	-0.984518	-1.199479
H233	H	-0.050130	-0.651185	-0.866146
H234	H	0.283204	-0.317851	-0.532812
H235	H	-0.466570	-0.924756	-1.214946
H236	H	-0.133237	-0.591423	-0.881613
H237	H	0.200096	-0.258090	-0.548280
H238	H	-0.372568	-0.888185	-1.206407
H239	H	-0.039235	-0.554852	-0.873074
H240	H	0.294098	-0.221519	-0.539741
H241	H	-0.792246	-0.911657	-0.462498
H242	H	-0.458913	-0.578324	-0.129165
H243	H	-0.125579	-0.244991	0.204169
H244	H	-0.870136	-1.092080	-0.296367
H245	H	-0.536802	-0.758747	0.036967
H246	H	-0.203469	-0.425413	0.370300
H247	H	-0.432700	-0.909582	-0.644311
H248	H	-0.099366	-0.576249	-0.310977
H249	H	0.233967	-0.242916	0.022356
O250	O	-0.252619	-0.736681	-0.457710
O251	O	0.080714	-0.403347	-0.124377
O252	O	0.414048	-0.070014	0.208957
C253	C	-0.295229	-0.777331	-0.504719
C254	C	0.038104	-0.443998	-0.171385
C255	C	0.371438	-0.110665	0.161948
H256	H	-0.354814	-0.755035	-0.508071
H257	H	-0.021481	-0.421702	-0.174737
H258	H	0.311852	-0.088369	0.158596
H259	H	-0.270794	-0.776014	-0.558875
H260	H	0.062539	-0.442681	-0.225541
H261	H	0.395872	-0.109347	0.107792
H262	H	-0.294533	-0.833815	-0.485225
H263	H	0.038800	-0.500481	-0.151892
H264	H	0.372133	-0.167148	0.181442
O265	O	-0.216229	-1.106917	-0.976546
O266	O	0.117105	-0.773583	-0.643213
O267	O	0.450438	-0.440250	-0.309879
C268	C	-0.223592	-1.100159	-0.903514
C269	C	0.109742	-0.766826	-0.570181
C270	C	0.443075	-0.433493	-0.236848
H271	H	-0.281410	-1.077560	-0.892539
H272	H	0.051923	-0.744227	-0.559206
H273	H	0.385257	-0.410893	-0.225873
H274	H	-0.215152	-1.153902	-0.877739
H275	H	0.118181	-0.820569	-0.544406
H276	H	0.451515	-0.487235	-0.211073
H277	H	-0.180168	-1.063553	-0.881209
H278	H	0.153166	-0.730220	-0.547876
H279	H	0.486499	-0.396887	-0.214542
H280	H	-0.259608	-1.067399	-0.784079
H281	H	0.073725	-0.734065	-0.450745
H282	H	0.407059	-0.400732	-0.117412
H283	H	-0.438538	-0.904257	-0.777449
H284	H	-0.105205	-0.570923	-0.444116
H285	H	0.228129	-0.237590	-0.110783
H286	H	-0.265306	-0.598030	-0.444974
H287	H	0.068027	-0.264696	-0.111641
H288	H	0.401360	0.068637	0.221692
H289	H	-0.238157	-0.266861	-0.471919
H290	H	0.095176	0.066473	-0.138586
H291	H	0.428509	0.399806	0.194748
O292	O	-0.885761	-1.031246	-0.509661
O293	O	-0.552428	-0.697913	-0.176328
O294	O	-0.219095	-0.364580	0.157005
C295	C	-0.826921	-1.042180	-0.555406
C296	C	-0.493588	-0.708846	-0.222072
C297	C	-0.160255	-0.375513	0.111261
H298	H	-0.774040	-1.058021	-0.523721
H299	H	-0.440706	-0.724687	-0.190388
H300	H	-0.107373	-0.391354	0.142945
H301	H	-0.840998	-1.085667	-0.594179
H302	H	-0.507664	-0.752333	-0.260845
H303	H	-0.174331	-0.419000	0.072488
H304	H	-0.818147	-0.991695	-0.585307
H305	H	-0.484814	-0.658362	-0.251974
H306	H	-0.151480	-0.325029	0.081360
H307	H	-0.397638	-0.406463	-0.313903
H308	H	-0.064304	-0.073130	0.019430
H309	H	0.269029	0.260203	0.352764
H310	H	-0.424791	-0.737631	-0.286962
H311	H	-0.091457	-0.404297	0.046371
H312	H	0.241876	-0.070964	0.379704
O313	O	-0.437573	-0.598896	-0.274367
O314	O	-0.104240	-0.265562	0.058967
O315	O	0.229093	0.067771	0.392300
C316	C	-0.430777	-0.525872	-0.281087
C317	C	-0.097443	-0.192539	0.052246
C318	C	0.235890	0.140795	0.385579
H319	H	-0.409330	-0.513693	-0.334955
H320	H	-0.075997	-0.180360	-0.001621
H321	H	0.257336	0.152973	0.331712
H322	H	-0.487321	-0.498165	-0.275105
H323	H	-0.153988	-0.164832	0.058229
H324	H	0.179346	0.168502	0.391562
H325	H	-0.390185	-0.506709	-0.238639
H326	H	-0.056852	-0.173376	0.094695
H327	H	0.276482	0.159957	0.428028
H328	H	-0.253774	-1.072737	-0.650953
H329	H	0.079559	-0.739403	-0.317619
H330	H	0.412892	-0.406070	0.015714
H331	H	-0.230030	-1.094335	-1.115277
H332	H	0.103303	-0.761002	-0.781944
H333	H	0.436636	-0.427668	-0.448610
H334	H	-0.880909	-0.884880	-0.342793
H335	H	-0.547576	-0.551546	-0.009460
H336	H	-0.214242	-0.218213	0.323874
O337	O	-0.410686	-0.929653	-0.969558
O338	O	-0.077352	-0.596320	-0.636224
O339	O	0.255981	-0.262986	-0.302891
C340	C	-0.456301	-0.888029	-1.016068
C341	C	-0.122967	-0.554696	-0.682735
C342	C	0.210366	-0.221363	-0.349401
H343	H	-0.460016	-0.914725	-1.069536
H344	H	-0.126682	-0.581392	-0.736203
H345	H	0.206651	-0.248059	-0.402870
H346	H	-0.514184	-0.881337	-0.994541
H347	H	-0.180850	-0.548003	-0.661208
H348	H	0.152483	-0.214670	-0.327874
H349	H	-0.431590	-0.834369	-1.021735
H350	H	-0.098257	-0.501035	-0.688402
H351	H	0.235076	-0.167702	-0.355069
