data_functionalizedCrystal
_audit_creation_method	'MofGen! by Chris Wilmer'
_symmetry_space_group_name_H-M	'P1'
_symmetry_Int_Tables_number	1
_symmetry_cell_setting	triclinic
loop_
_symmetry_equiv_pos_as_xyz
  x,y,z
_cell_length_a	29.839134
_cell_length_b	25.639240
_cell_length_c	25.639233
_cell_angle_alpha	90.021550
_cell_angle_beta	89.974540
_cell_angle_gamma	89.963303
loop_
_atom_site_label
_atom_site_type_symbol
_atom_site_fract_x
_atom_site_fract_y
_atom_site_fract_z
Zn1	Zn	0.686717	0.208316	-0.295778
Zn2	Zn	1.186717	0.708316	0.204222
Zn3	Zn	0.686644	0.295734	-0.208338
Zn4	Zn	1.186644	0.795734	0.291662
Zn5	Zn	0.611598	0.208304	-0.208337
Zn6	Zn	1.111598	0.708304	0.291663
Zn7	Zn	0.611544	0.295711	-0.295723
Zn8	Zn	1.111544	0.795711	0.204277
O9	O	0.649126	0.252016	-0.252044
O10	O	1.149126	0.752016	0.247956
O11	O	0.749574	0.219927	-0.284202
O12	O	1.249574	0.719927	0.215798
O13	O	0.676681	0.284141	-0.135173
O14	O	1.176681	0.784141	0.364827
O15	O	0.621616	0.135140	-0.219959
O16	O	1.121616	0.635140	0.280041
O17	O	0.749521	0.284153	-0.219961
O18	O	1.249521	0.784153	0.280039
O19	O	0.676805	0.135149	-0.284201
O20	O	1.176805	0.635149	0.215799
O21	O	0.621545	0.219906	-0.135172
O22	O	1.121545	0.719906	0.364828
O23	O	0.548724	0.219884	-0.219905
O24	O	1.048724	0.719884	0.280095
O25	O	0.621524	0.284113	-0.368895
O26	O	1.121524	0.784113	0.131105
O27	O	0.548684	0.284101	-0.284108
O28	O	1.048684	0.784101	0.215892
O29	O	0.676753	0.219904	-0.368936
O30	O	1.176753	0.719904	0.131064
O31	O	0.676629	0.368896	-0.219907
O32	O	1.176629	0.868896	0.280093
O33	O	0.621453	0.368879	-0.284108
O34	O	1.121453	0.868879	0.215892
C35	C	0.532403	0.251989	-0.252001
C36	C	1.032403	0.751989	0.247999
C37	C	0.482469	0.251990	-0.251995
C38	C	0.982469	0.751990	0.248005
C39	C	0.125890	0.218529	-0.218682
C40	C	0.625890	0.718529	0.281318
C41	C	0.313563	0.218514	-0.218651
C42	C	0.813563	0.718514	0.281349
O43	O	0.337834	0.190020	-0.190278
O44	O	0.837834	0.690020	0.309722
N45	N	0.337024	0.251998	-0.252021
N46	N	0.837024	0.751998	0.247979
C47	C	0.313563	0.285487	-0.285404
C48	C	0.813563	0.785487	0.214596
O49	O	0.337824	0.313963	-0.313791
O50	O	0.837824	0.813963	0.186209
C51	C	0.125891	0.285498	-0.285438
C52	C	0.625891	0.785498	0.214562
C53	C	0.102433	0.252015	-0.252062
C54	C	0.602433	0.752015	0.247938
C55	C	0.102431	0.185048	-0.185309
C56	C	0.602431	0.685048	0.314691
C57	C	0.055516	0.185054	-0.185315
C58	C	0.555516	0.685054	0.314685
C59	C	0.032059	0.218541	-0.218695
C60	C	0.532059	0.718541	0.281305
C61	C	0.055517	0.252021	-0.252068
C62	C	0.555517	0.752021	0.247932
C63	C	0.102432	0.318983	-0.318823
C64	C	0.602432	0.818983	0.181177
C65	C	0.055510	0.318982	-0.318830
C66	C	0.555510	0.818982	0.181170
C67	C	0.032052	0.285499	-0.285454
C68	C	0.532052	0.785499	0.214546
C69	C	-0.014855	0.285514	-0.285454
C70	C	0.485145	0.785514	0.214546
N71	N	-0.038316	0.252030	-0.252083
N72	N	0.461684	0.752030	0.247917
C73	C	-0.014859	0.218543	-0.218704
C74	C	0.485141	0.718543	0.281296
C75	C	0.412094	0.285479	-0.285383
C76	C	0.912094	0.785479	0.214617
C77	C	0.459012	0.285477	-0.285374
C78	C	0.959012	0.785477	0.214626
C79	C	0.459008	0.218503	-0.218621
C80	C	0.959008	0.718503	0.281379
C81	C	0.412089	0.218508	-0.218628
C82	C	0.912089	0.718508	0.281372
C83	C	0.388633	0.251994	-0.252013
C84	C	0.888633	0.751994	0.247987
C85	C	-0.113385	0.218558	-0.218719
C86	C	0.386615	0.718558	0.281281
C87	C	-0.160304	0.218569	-0.218727
C88	C	0.339696	0.718569	0.281273
C89	C	-0.160297	0.285540	-0.285482
C90	C	0.339703	0.785540	0.214518
C91	C	-0.113381	0.285532	-0.285472
C92	C	0.386619	0.785532	0.214528
C93	C	-0.089926	0.252037	-0.252089
C94	C	0.410074	0.752037	0.247911
O95	O	-0.039156	0.313989	-0.313815
O96	O	0.460844	0.813989	0.186185
O97	O	-0.039128	0.190062	-0.190330
O98	O	0.460872	0.690062	0.309670
C99	C	0.172805	0.218523	-0.218676
C100	C	0.672805	0.718523	0.281324
C101	C	0.196264	0.252003	-0.252049
C102	C	0.696264	0.752003	0.247951
C103	C	0.172807	0.285490	-0.285429
C104	C	0.672807	0.785490	0.214571
C105	C	0.243181	0.252001	-0.252040
C106	C	0.743181	0.752001	0.247960
C107	C	0.266639	0.218514	-0.218661
C108	C	0.766639	0.718514	0.281339
C109	C	0.243178	0.185030	-0.185290
C110	C	0.743178	0.685030	0.314710
C111	C	0.196262	0.185036	-0.185297
C112	C	0.696262	0.685036	0.314703
C113	C	0.196267	0.318974	-0.318799
C114	C	0.696267	0.818974	0.181201
C115	C	0.243183	0.318966	-0.318790
C116	C	0.743183	0.818966	0.181210
C117	C	0.266640	0.285479	-0.285410
C118	C	0.766640	0.785479	0.214590
C119	C	0.649039	0.387859	-0.252013
C120	C	1.149039	0.887859	0.247987
C121	C	0.649044	0.445973	-0.252018
C122	C	1.149044	0.945973	0.247982
C123	C	0.620359	0.697170	-0.285445
C124	C	1.120359	1.197170	0.214555
C125	C	0.620346	0.642565	-0.285442
C126	C	1.120346	1.142565	0.214558
O127	O	0.595901	0.614332	-0.313855
O128	O	1.095901	1.114332	0.186145
N129	N	0.649088	0.615247	-0.252038
N130	N	1.149088	1.115247	0.247962
C131	C	0.677848	0.642535	-0.218641
C132	C	1.177848	1.142535	0.281359
O133	O	0.702295	0.614284	-0.190229
O134	O	1.202295	1.114284	0.309771
C135	C	0.677863	0.697138	-0.218648
C136	C	1.177863	1.197138	0.281352
C137	C	0.649116	0.724454	-0.252049
C138	C	1.149116	1.224454	0.247951
C139	C	0.591615	0.724485	-0.318845
C140	C	1.091615	1.224485	0.181155
C141	C	0.591627	0.779086	-0.318848
C142	C	1.091627	1.279086	0.181152
C143	C	0.620384	0.806371	-0.285452
C144	C	1.120384	1.306371	0.214548
C145	C	0.649128	0.779055	-0.252052
C146	C	1.149128	1.279055	0.247948
C147	C	0.706625	0.724426	-0.185253
C148	C	1.206625	1.224426	0.314747
C149	C	0.706637	0.779033	-0.185263
C150	C	1.206637	1.279033	0.314737
C151	C	0.677890	0.806349	-0.218665
C152	C	1.177890	1.306349	0.281335
C153	C	0.677897	0.860940	-0.218659
C154	C	1.177897	1.360940	0.281341
N155	N	0.649155	0.888259	-0.252063
N156	N	1.149155	1.388259	0.247937
C157	C	0.620399	0.860974	-0.285459
C158	C	1.120399	1.360974	0.214541
C159	C	0.677816	0.527864	-0.218629
C160	C	1.177816	1.027864	0.281371
C161	C	0.677799	0.473262	-0.218619
C162	C	1.177799	0.973262	0.281381
C163	C	0.620297	0.473296	-0.285421
C164	C	1.120297	0.973296	0.214579
C165	C	0.620312	0.527899	-0.285428
C166	C	1.120312	1.027899	0.214572
C167	C	0.649074	0.555183	-0.252033
C168	C	1.149074	1.055183	0.247967
C169	C	0.620426	0.975639	-0.285462
C170	C	1.120426	1.475639	0.214538
C171	C	0.620440	1.030244	-0.285461
C172	C	1.120440	1.530244	0.214539
C173	C	0.677943	1.030206	-0.218662
C174	C	1.177943	1.530206	0.281338
C175	C	0.677928	0.975605	-0.218661
C176	C	1.177928	1.475605	0.281339
C177	C	0.649168	0.948323	-0.252065
C178	C	1.149168	1.448323	0.247935
O179	O	0.702332	0.889208	-0.190262
O180	O	1.202332	1.389208	0.309738
O181	O	0.595960	0.889231	-0.313871
O182	O	1.095960	1.389231	0.186129
C183	C	0.766304	0.252044	-0.252088
C184	C	1.266304	0.752044	0.247912
C185	C	0.816238	0.252056	-0.252106
C186	C	1.316238	0.752056	0.247894
C187	C	0.649140	0.252007	-0.388417
C188	C	1.149140	0.752007	0.111583
C189	C	0.649146	0.252003	-0.446531
C190	C	1.149146	0.752003	0.053469
C191	C	0.649207	1.115643	-0.252076
C192	C	1.149207	1.615643	0.247924
C193	C	0.649197	1.057529	-0.252065
C194	C	1.149197	1.557529	0.247935
C195	C	0.677941	0.218470	-0.806921
C196	C	1.177941	0.718470	-0.306921
C197	C	0.677946	0.218456	-0.861525
C198	C	1.177946	0.718456	-0.361525
O199	O	0.702392	0.190006	-0.889785
O200	O	1.202392	0.690006	-0.389785
N201	N	0.649196	0.251880	-0.888814
N202	N	1.149196	0.751880	-0.388814
C203	C	0.620435	0.285318	-0.861495
C204	C	1.120435	0.785318	-0.361495
O205	O	0.595981	0.313747	-0.889720
O206	O	1.095981	0.813747	-0.389720
C207	C	0.620428	0.285330	-0.806892
C208	C	1.120428	0.785330	-0.306892
C209	C	0.649183	0.251906	-0.779606
C210	C	1.149183	0.751906	-0.279606
C211	C	0.706693	0.185049	-0.779635
C212	C	1.206693	0.685049	-0.279635
C213	C	0.706688	0.185065	-0.725035
C214	C	1.206688	0.685065	-0.225035
C215	C	0.677931	0.218501	-0.697720
C216	C	1.177931	0.718501	-0.197720
C217	C	0.649178	0.251922	-0.725006
C218	C	1.149178	0.751922	-0.225006
C219	C	0.591665	0.318764	-0.779574
C220	C	1.091665	0.818764	-0.279574
C221	C	0.591659	0.318772	-0.724967
C222	C	1.091659	0.818772	-0.224967
C223	C	0.620415	0.285349	-0.697681
C224	C	1.120415	0.785349	-0.197681
C225	C	0.620415	0.285373	-0.643090
C226	C	1.120415	0.785373	-0.143090
N227	N	0.649165	0.251948	-0.615802
N228	N	1.149165	0.751948	-0.115802
C229	C	0.677923	0.218512	-0.643117
C230	C	1.177923	0.718512	-0.143117
C231	C	0.620452	0.285291	-0.976166
C232	C	1.120452	0.785291	-0.476166
C233	C	0.620462	0.285283	-1.030768
C234	C	1.120462	0.785283	-0.530768
C235	C	0.677972	0.218419	-1.030795
C236	C	1.177972	0.718419	-0.530795
C237	C	0.677965	0.218431	-0.976191
C238	C	1.177965	0.718431	-0.476191
C239	C	0.649203	0.251866	-0.948877
C240	C	1.149203	0.751866	-0.448877
C241	C	0.677910	0.218547	-0.528451
C242	C	1.177910	0.718547	-0.028451
C243	C	0.677904	0.218567	-0.473846
C244	C	1.177904	0.718567	0.026154
C245	C	0.620392	0.285428	-0.473824
C246	C	1.120392	0.785428	0.026176
C247	C	0.620400	0.285410	-0.528425
C248	C	1.120400	0.785410	-0.028425
C249	C	0.649161	0.251966	-0.555737
C250	C	1.149161	0.751966	-0.055737
O251	O	0.595981	0.313806	-0.614796
O252	O	1.095981	0.813806	-0.114796
O253	O	0.702369	0.190083	-0.614885
O254	O	1.202369	0.690083	-0.114885
C255	C	0.649137	0.251988	-0.116201
C256	C	1.149137	0.751988	0.383799
C257	C	0.649218	0.251844	-0.058088
C258	C	1.149218	0.751844	0.441912
H259	H	0.478115	0.191237	-0.191442
H260	H	0.978115	0.691237	0.308558
H261	H	0.701332	0.953364	-0.191457
H262	H	1.201332	1.453364	0.308543
H263	H	0.036415	0.346250	-0.346018
H264	H	0.536415	0.846250	0.153982
H265	H	0.596906	0.550136	-0.312629
H266	H	1.096906	1.050136	0.187371
H267	H	0.177173	0.346243	-0.345982
H268	H	0.677173	0.846243	0.154018
O269	O	0.265988	0.351549	-0.351140
O270	O	0.765988	0.851549	0.148860
C271	C	0.293109	0.385268	-0.321318
C272	C	0.793109	0.885268	0.178682
H273	H	0.278954	0.388446	-0.280133
H274	H	0.778954	0.888446	0.219867
H275	H	0.293629	0.425529	-0.340161
H276	H	0.793629	0.925529	0.159839
H277	H	0.328674	0.369096	-0.319545
H278	H	0.828674	0.869096	0.180455
O279	O	0.705914	1.056745	-0.186291
O280	O	1.205914	1.556745	0.313709
C281	C	0.734909	1.088303	-0.216096
C282	C	1.234909	1.588303	0.283904
H283	H	0.737669	1.071821	-0.257274
H284	H	1.237669	1.571821	0.242726
H285	H	0.769490	1.088913	-0.197222
H286	H	1.269490	1.588913	0.302778
H287	H	0.721014	1.129694	-0.217892
H288	H	1.221014	1.629694	0.282108
H289	H	0.568198	0.702275	-0.346042
H290	H	1.068198	1.202275	0.153958
O291	O	0.592429	0.317897	-0.554852
O292	O	1.092429	0.817897	-0.054852
C293	C	0.567056	0.347424	-0.519032
C294	C	1.067056	0.847424	-0.019032
H295	H	0.565515	0.326020	-0.480109
H296	H	1.065515	0.826020	0.019891
H297	H	0.531656	0.352988	-0.534791
H298	H	1.031656	0.852988	-0.034791
H299	H	0.583479	0.387138	-0.513230
H300	H	1.083479	0.887138	-0.013230
H301	H	0.701388	0.191192	-1.053044
H302	H	1.201388	0.691192	-0.553044
H303	H	-0.094280	0.312800	-0.312646
H304	H	0.405720	0.812800	0.187354
H305	H	0.597030	0.312521	-0.953930
H306	H	1.097030	0.812521	-0.453930
O307	O	0.389253	0.185959	-0.186280
O308	O	0.889253	0.685959	0.313720
C309	C	0.362154	0.152221	-0.216109
C310	C	0.862154	0.652221	0.283891
H311	H	0.355135	0.170714	-0.255701
H312	H	0.855135	0.670714	0.244299
H313	H	0.329155	0.145187	-0.194829
H314	H	0.829155	0.645187	0.305171
H315	H	0.380260	0.113482	-0.221917
H316	H	0.880260	0.613482	0.278083
H317	H	0.730033	0.702193	-0.158055
H318	H	1.230033	1.202193	0.341945
O319	O	0.734652	0.152639	-0.806223
O320	O	1.234652	0.652639	-0.306223
C321	C	0.763661	0.182404	-0.837802
C322	C	1.263661	0.682404	-0.337802
H323	H	0.747789	0.222020	-0.845977
H324	H	1.247789	0.722020	-0.345977
H325	H	0.769707	0.161096	-0.876201
H326	H	1.269707	0.661096	-0.376201
H327	H	0.796945	0.188164	-0.816764
H328	H	1.296945	0.688164	-0.316764
O329	O	0.592523	0.317931	-0.447223
O330	O	1.092523	0.817931	0.052777
C331	C	0.618078	0.351718	-0.415652
C332	C	1.118078	0.851718	0.084348
H333	H	0.652138	0.333288	-0.407500
H334	H	1.152138	0.833288	0.092500
H335	H	0.599777	0.358720	-0.377241
H336	H	1.099777	0.858720	0.122759
H337	H	0.622982	0.390465	-0.436686
H338	H	1.122982	0.890465	0.063314
O339	O	0.563686	0.351246	-0.805990
O340	O	1.063686	0.851246	-0.305990
C341	C	0.538312	0.380761	-0.770161
C342	C	1.038312	0.880761	-0.270161
H343	H	0.536777	0.359350	-0.731242
H344	H	1.036777	0.859350	-0.231242
H345	H	0.502910	0.386321	-0.785916
H346	H	1.002910	0.886321	-0.285916
H347	H	0.554729	0.420478	-0.764354
H348	H	1.054729	0.920478	-0.264354
O349	O	0.734569	0.152512	-0.698563
O350	O	1.234569	0.652512	-0.198563
C351	C	0.724787	0.100404	-0.711936
C352	C	1.224787	0.600404	-0.211936
H353	H	0.688897	0.097766	-0.726927
H354	H	1.188897	0.597766	-0.226927
H355	H	0.728673	0.074569	-0.676043
H356	H	1.228673	0.574569	-0.176043
H357	H	0.748878	0.086742	-0.743653
H358	H	1.248878	0.586742	-0.243653
O359	O	0.032801	0.152475	-0.152881
O360	O	0.532801	0.652475	0.347119
C361	C	0.063574	0.122929	-0.123414
C362	C	0.563574	0.622929	0.376586
H363	H	0.097029	0.121156	-0.144831
H364	H	0.597029	0.621156	0.355169
H365	H	0.050042	0.081725	-0.117917
H366	H	0.550042	0.581725	0.382083
H367	H	0.068535	0.142015	-0.083668
H368	H	0.568535	0.642015	0.416332
H369	H	0.597051	0.312505	-1.052979
H370	H	1.097051	0.812505	-0.552979
O371	O	0.705852	0.186047	-0.447422
O372	O	1.205852	0.686047	0.052578
C373	C	0.731241	0.156542	-0.483245
C374	C	1.231241	0.656542	0.016755
H375	H	0.712843	0.154719	-0.522160
H376	H	1.212843	0.654719	-0.022160
H377	H	0.736062	0.115352	-0.467476
H378	H	1.236062	0.615352	0.032524
H379	H	0.765347	0.175694	-0.489064
H380	H	1.265347	0.675694	0.010936
H381	H	0.701202	0.451025	-0.191415
H382	H	1.201202	0.951025	0.308585
H383	H	0.568232	0.345995	-0.702731
H384	H	1.068232	0.845995	-0.202731
O385	O	0.173463	0.152588	-0.152812
O386	O	0.673463	0.652588	0.347188
C387	C	0.146290	0.182311	-0.118997
C388	C	0.646290	0.682311	0.381003
H389	H	0.160402	0.223487	-0.115706
H390	H	0.660402	0.723487	0.384294
H391	H	0.145761	0.163352	-0.078790
H392	H	0.645761	0.663352	0.421210
H393	H	0.110734	0.184127	-0.135151
H394	H	0.610734	0.684127	0.364849
O395	O	0.592447	0.949223	-0.317928
O396	O	1.092447	1.449223	0.182072
C397	C	0.567091	0.985051	-0.347413
C398	C	1.067091	1.485051	0.152587
H399	H	0.565561	1.023982	-0.325993
H400	H	1.065561	1.523982	0.174007
H401	H	0.531687	0.969315	-0.352945
H402	H	1.031687	1.469315	0.147055
H403	H	0.583521	0.990826	-0.387144
H404	H	1.083521	1.490826	0.112856
O405	O	0.705871	0.186134	-0.555035
O406	O	1.205871	0.686134	-0.055035
C407	C	0.734879	0.215898	-0.586617
C408	C	1.234879	0.715898	-0.086617
H409	H	0.719005	0.255513	-0.594793
H410	H	1.219005	0.755513	-0.094793
H411	H	0.740924	0.194589	-0.625015
H412	H	1.240924	0.694589	-0.125015
H413	H	0.768162	0.221661	-0.565581
H414	H	1.268162	0.721661	-0.065581
H415	H	0.597030	1.052483	-0.312662
H416	H	1.097030	1.552483	0.187338
H417	H	0.701379	0.191214	-0.953979
H418	H	1.201379	0.691214	-0.453979
H419	H	-0.179402	0.191302	-0.191546
H420	H	0.320598	0.691302	0.308454
H421	H	0.596883	0.451071	-0.312615
H422	H	1.096883	0.951071	0.187385
H423	H	0.730060	0.801244	-0.158070
H424	H	1.230060	1.301244	0.341930
H425	H	0.478108	0.312747	-0.312547
H426	H	0.978108	0.812747	0.187453
O427	O	-0.090675	0.186009	-0.186238
O428	O	0.409325	0.686009	0.313762
C429	C	-0.121448	0.156455	-0.156795
C430	C	0.378552	0.656455	0.343205
H431	H	-0.154903	0.177875	-0.154961
H432	H	0.345097	0.677875	0.345039
H433	H	-0.107916	0.150822	-0.115606
H434	H	0.392084	0.650822	0.384394
H435	H	-0.126410	0.116772	-0.176010
H436	H	0.373590	0.616772	0.323990
O437	O	0.563691	0.805536	-0.351347
O438	O	1.063691	1.305536	0.148653
C439	C	0.538303	0.769736	-0.380810
C440	C	1.038303	1.269736	0.119190
H441	H	0.556697	0.730793	-0.382633
H442	H	1.056697	1.230793	0.117367
H443	H	0.533491	0.785491	-0.422003
H444	H	1.033491	1.285491	0.077997
H445	H	0.504192	0.763973	-0.361620
H446	H	1.004192	1.263973	0.138380
O447	O	-0.183157	0.318018	-0.317889
O448	O	0.316843	0.818018	0.182111
C449	C	-0.229597	0.310846	-0.310726
C450	C	0.270403	0.810846	0.189274
H451	H	-0.235989	0.270473	-0.293672
H452	H	0.264011	0.770473	0.206328
H453	H	-0.247414	0.314443	-0.349885
H454	H	0.252586	0.814443	0.150115
H455	H	-0.242942	0.341821	-0.282831
H456	H	0.257058	0.841821	0.217169
H457	H	0.393000	0.312749	-0.312570
H458	H	0.893000	0.812749	0.187430
O459	O	0.705700	0.554436	-0.186177
O460	O	1.205700	1.054436	0.313823
C461	C	0.680168	0.586071	-0.152366
C462	C	1.180168	1.086071	0.347634
H463	H	0.646105	0.594274	-0.170744
H464	H	1.146105	1.094274	0.329256
H465	H	0.698486	0.624454	-0.145416
H466	H	1.198486	1.124454	0.354584
H467	H	0.675267	0.565069	-0.113599
H468	H	1.175267	1.065069	0.386401
H469	H	0.262285	0.157766	-0.158110
H470	H	0.762285	0.657766	0.341890
O471	O	0.125234	0.152462	-0.152954
O472	O	0.625234	0.652462	0.347046
C473	C	0.152416	0.118736	-0.182767
C474	C	0.652416	0.618736	0.317233
H475	H	0.138307	0.115564	-0.223957
H476	H	0.638307	0.615564	0.276043
H477	H	0.152952	0.078474	-0.163925
H478	H	0.652952	0.578474	0.336075
H479	H	0.187969	0.134898	-0.184525
H480	H	0.687969	0.634898	0.315475
O481	O	0.125142	0.351524	-0.351297
O482	O	0.625142	0.851524	0.148703
C483	C	0.094368	0.381082	-0.380749
C484	C	0.594368	0.881082	0.119251
H485	H	0.060937	0.359667	-0.382594
H486	H	0.560937	0.859667	0.117406
H487	H	0.107935	0.386715	-0.421935
H488	H	0.607935	0.886715	0.078065
H489	H	0.089348	0.420766	-0.361535
H490	H	0.589348	0.920766	0.138465
