data_functionalizedCrystal
_audit_creation_method	'MofGen! by Chris Wilmer'
_symmetry_space_group_name_H-M	'P1'
_symmetry_Int_Tables_number	1
_symmetry_cell_setting	triclinic
loop_
_symmetry_equiv_pos_as_xyz
  x,y,z
_cell_length_a	19.805407
_cell_length_b	18.050589
_cell_length_c	18.050591
_cell_angle_alpha	90.013707
_cell_angle_beta	90.009790
_cell_angle_gamma	90.028221
loop_
_atom_site_label
_atom_site_type_symbol
_atom_site_fract_x
_atom_site_fract_y
_atom_site_fract_z
Zn1	Zn	1.034662	-0.295740	0.419953
Zn2	Zn	1.534662	0.204260	0.919953
Zn3	Zn	1.034592	-0.419913	0.295773
Zn4	Zn	1.534592	0.080087	0.795773
Zn5	Zn	0.921496	-0.295741	0.295776
Zn6	Zn	1.421496	0.204259	0.795776
Zn7	Zn	0.921436	-0.419892	0.419919
Zn8	Zn	1.421436	0.080108	0.919919
O9	O	0.978047	-0.357822	0.357855
O10	O	1.478047	0.142178	0.857855
O11	O	1.129369	-0.312219	0.403494
O12	O	1.629369	0.187781	0.903494
O13	O	1.019586	-0.403451	0.191849
O14	O	1.519586	0.096549	0.691849
O15	O	0.936561	-0.191817	0.312263
O16	O	1.436561	0.308183	0.812263
O17	O	1.129318	-0.403449	0.312259
O18	O	1.629318	0.096551	0.812259
O19	O	1.019704	-0.191815	0.403496
O20	O	1.519704	0.308185	0.903496
O21	O	0.936494	-0.312223	0.191851
O22	O	1.436494	0.187777	0.691851
O23	O	0.826771	-0.312202	0.312230
O24	O	1.326771	0.187798	0.812230
O25	O	0.936460	-0.403414	0.523848
O26	O	1.436460	0.096586	1.023848
O27	O	0.826728	-0.403415	0.403438
O28	O	1.326728	0.096585	0.903438
O29	O	1.019646	-0.312199	0.523873
O30	O	1.519646	0.187801	1.023873
O31	O	1.019528	-0.523835	0.312226
O32	O	1.519528	-0.023835	0.812226
O33	O	0.936393	-0.523820	0.403436
O34	O	1.436393	-0.023820	0.903436
C35	C	0.802191	-0.357807	0.357831
C36	C	1.302191	0.142193	0.857831
C37	C	0.726959	-0.357819	0.357839
C38	C	1.226959	0.142181	0.857839
C39	C	0.977965	-0.550774	0.357843
C40	C	1.477965	-0.050774	0.857843
C41	C	0.977992	-0.633320	0.357863
C42	C	1.477992	-0.133320	0.857863
C43	C	0.691609	-0.405385	0.405254
C44	C	1.191609	0.094615	0.905254
C45	C	0.620921	-0.405387	0.405264
C46	C	1.120921	0.094613	0.905264
C47	C	0.585583	-0.357825	0.357855
C48	C	1.085583	0.142175	0.857855
C49	C	0.620937	-0.310254	0.310438
C50	C	1.120937	0.189746	0.810438
C51	C	0.691624	-0.310249	0.310432
C52	C	1.191624	0.189751	0.810432
C53	C	0.335864	-0.310270	0.310463
C54	C	0.835864	0.189730	0.810463
C55	C	0.265172	-0.310280	0.310471
C56	C	0.765172	0.189720	0.810471
C57	C	0.265161	-0.405408	0.405295
C58	C	0.765161	0.094592	0.905295
C59	C	0.335848	-0.405403	0.405289
C60	C	0.835848	0.094597	0.905289
C61	C	0.371196	-0.357829	0.357875
C62	C	0.871196	0.142171	0.857875
C63	C	0.447844	-0.357827	0.357865
C64	C	0.947844	0.142173	0.857865
C65	C	0.508936	-0.357830	0.357861
C66	C	1.008936	0.142170	0.857861
C67	C	0.932827	-0.832789	0.407445
C68	C	1.432827	-0.332789	0.907445
C69	C	0.916340	-0.882217	0.339678
C70	C	1.416340	-0.382217	0.839678
C71	C	0.978058	-0.784450	0.357872
C72	C	1.478058	-0.284450	0.857872
C73	C	0.994579	-0.882103	0.425648
C74	C	1.494579	-0.382103	0.925648
C75	C	0.978121	-0.930435	0.357888
C76	C	1.478121	-0.430435	0.857888
C77	C	0.961538	-0.832791	0.290069
C78	C	1.461538	-0.332791	0.790069
C79	C	1.039807	-0.832672	0.376084
C80	C	1.539807	-0.332672	0.876084
C81	C	1.023342	-0.882079	0.308270
C82	C	1.523342	-0.382079	0.808270
C83	C	0.978020	-0.700352	0.357864
C84	C	1.478020	-0.200352	0.857864
C85	C	0.978159	-1.014531	0.357888
C86	C	1.478159	-0.514531	0.857888
C87	C	1.154589	-0.357836	0.357880
C88	C	1.654589	0.142164	0.857880
C89	C	1.229821	-0.357843	0.357890
C90	C	1.729821	0.142157	0.857890
C91	C	0.978054	-0.357804	0.551561
C92	C	1.478054	0.142196	1.051561
C93	C	0.978058	-0.357796	0.634107
C94	C	1.478058	0.142204	1.134107
C95	C	0.978147	-0.164116	0.357884
C96	C	1.478147	0.335884	0.857884
C97	C	0.978190	-0.081570	0.357896
C98	C	1.478190	0.418430	0.857896
C99	C	1.023299	-0.308206	0.882946
C100	C	1.523299	0.191794	1.382946
C101	C	1.039823	-0.375957	0.833537
C102	C	1.539823	0.124043	1.333537
C103	C	0.978057	-0.357824	0.931227
C104	C	1.478057	0.142176	1.431227
C105	C	0.961566	-0.290063	0.833554
C106	C	1.461566	0.209937	1.333554
C107	C	0.978059	-0.357807	0.785242
C108	C	1.478059	0.142193	1.285242
C109	C	0.994613	-0.425611	0.882906
C110	C	1.494613	0.074389	1.382906
C111	C	0.916327	-0.339671	0.882927
C112	C	1.416327	0.160329	1.382927
C113	C	0.932827	-0.407469	0.833540
C114	C	1.432827	0.092531	1.333540
C115	C	0.978058	-0.357833	1.015325
C116	C	1.478058	0.142167	1.515325
C117	C	0.978058	-0.357806	0.701145
C118	C	1.478058	0.142194	1.201145
C119	C	0.978040	-0.357849	1.164903
C120	C	1.478040	0.142151	1.664903
C121	C	0.978056	-0.357835	1.082357
C122	C	1.478056	0.142165	1.582357
H123	H	0.592143	-0.444120	0.443874
H124	H	1.092143	0.055880	0.943874
C125	C	0.798343	-0.370148	0.886226
C126	C	1.298343	0.129852	1.386226
C127	C	0.845875	-0.318922	0.912250
C128	C	1.345875	0.181078	1.412250
H129	H	0.754850	-0.357328	0.904329
H130	H	1.254850	0.142672	1.404329
H131	H	0.810003	-0.418312	0.903093
H132	H	1.310003	0.081688	1.403093
H133	H	0.797933	-0.369534	0.833604
H134	H	1.297933	0.130466	1.333604
H135	H	0.846288	-0.319540	0.964871
H136	H	1.346288	0.180460	1.464871
H137	H	0.834212	-0.270746	0.895387
H138	H	1.334212	0.229254	1.395387
H139	H	0.864151	-0.903996	0.324287
H140	H	1.364151	-0.403996	0.824287
H141	H	0.947529	-0.811220	0.232742
H142	H	1.447529	-0.311220	0.732742
H143	H	1.061620	-0.903585	0.266306
H144	H	1.561620	-0.403585	0.766306
H145	H	1.091984	-0.810896	0.391507
H146	H	1.591984	-0.310896	0.891507
C147	C	0.965945	-0.886457	0.554819
C148	C	1.465945	-0.386457	1.054819
C149	C	1.013415	-0.911342	0.503013
C150	C	1.513415	-0.411342	1.003013
H151	H	0.977574	-0.904503	0.602582
H152	H	1.477574	-0.404503	1.102582
H153	H	0.922420	-0.904153	0.541548
H154	H	1.422420	-0.404153	1.041548
H155	H	0.965658	-0.833835	0.555468
H156	H	1.465658	-0.333835	1.055468
H157	H	1.013699	-0.963964	0.502360
H158	H	1.513699	-0.463964	1.002360
H159	H	1.056952	-0.893649	0.516288
H160	H	1.556952	-0.393649	1.016288
C161	C	0.966452	-0.554958	0.886531
C162	C	1.466452	-0.054958	1.386531
C163	C	1.013532	-0.502979	0.912049
C164	C	1.513532	-0.002979	1.412049
H165	H	0.978133	-0.602717	0.904530
H166	H	1.478133	-0.102717	1.404530
H167	H	0.966555	-0.555429	0.833913
H168	H	1.466555	-0.055429	1.333913
H169	H	0.922741	-0.541982	0.903855
H170	H	1.422741	-0.041982	1.403855
H171	H	1.057243	-0.515952	0.894719
H172	H	1.557243	-0.015952	1.394719
H173	H	1.013436	-0.502510	0.964677
H174	H	1.513436	-0.002510	1.464677
H175	H	0.894521	-0.811145	0.449308
H176	H	1.394521	-0.311145	0.949308
C177	C	0.328735	-0.499430	0.499029
C178	C	0.828735	0.000570	0.999029
C179	C	0.374690	-0.457682	0.457405
C180	C	0.874690	0.042318	0.957405
H181	H	0.352715	-0.531700	0.531208
H182	H	0.852715	-0.031700	1.031208
H183	H	0.301148	-0.527794	0.466628
H184	H	0.801148	-0.027794	0.966628
H185	H	0.301181	-0.467108	0.527490
H186	H	0.801181	0.032892	1.027490
H187	H	0.402241	-0.490004	0.428939
H188	H	0.902241	0.009996	0.928939
H189	H	0.402288	-0.429316	0.489810
H190	H	0.902288	0.070684	0.989810
C191	C	0.156797	-0.447655	0.447425
C192	C	0.656797	0.052345	0.947425
C193	C	0.226304	-0.457695	0.457423
C194	C	0.726304	0.042305	0.957423
H195	H	0.132811	-0.479933	0.479609
H196	H	0.632811	0.020067	0.979609
H197	H	0.145197	-0.458452	0.397516
H198	H	0.645197	0.041548	0.897516
H199	H	0.145242	-0.397772	0.458384
H200	H	0.645242	0.102228	0.958384
H201	H	0.237859	-0.507578	0.446459
H202	H	0.737859	-0.007578	0.946459
H203	H	0.237908	-0.446903	0.507343
H204	H	0.737908	0.053097	1.007343
C205	C	1.139597	-0.270830	0.887306
C206	C	1.639597	0.229170	1.387306
C207	C	1.074983	-0.251645	0.912240
C208	C	1.574983	0.248355	1.412240
H209	H	1.171504	-0.235916	0.905396
H210	H	1.671504	0.264084	1.405396
H211	H	1.140235	-0.270745	0.834691
H212	H	1.640235	0.229255	1.334691
H213	H	1.150875	-0.318839	0.904933
H214	H	1.650875	0.181161	1.404933
H215	H	1.063703	-0.203638	0.894608
H216	H	1.563703	0.296362	1.394608
H217	H	1.074344	-0.251722	0.964866
H218	H	1.574344	0.248278	1.464866
H219	H	0.236401	-0.271545	0.271865
H220	H	0.736401	0.228455	0.771865
C221	C	1.128012	-0.467125	0.830245
C222	C	1.628012	0.032875	1.330245
C223	C	1.110298	-0.396683	0.804252
C224	C	1.610298	0.103317	1.304252
H225	H	1.171523	-0.479914	0.812173
H226	H	1.671523	0.020086	1.312173
H227	H	1.095922	-0.502404	0.813326
H228	H	1.595922	-0.002404	1.313326
H229	H	1.128614	-0.466826	0.882868
H230	H	1.628614	0.033174	1.382868
H231	H	1.109690	-0.396984	0.751630
H232	H	1.609690	0.103016	1.251630
H233	H	1.142396	-0.361395	0.821167
H234	H	1.642396	0.138605	1.321167
C235	C	0.771062	-0.505298	0.415398
C236	C	1.271062	-0.005298	0.915398
C237	C	0.730449	-0.457668	0.457368
C238	C	1.230449	0.042332	0.957368
H239	H	0.795034	-0.537577	0.447575
H240	H	1.295034	-0.037577	0.947575
H241	H	0.802231	-0.476971	0.387166
H242	H	1.302231	0.023029	0.887166
H243	H	0.743460	-0.533657	0.382998
H244	H	1.243460	-0.033657	0.882998
H245	H	0.758051	-0.429305	0.489765
H246	H	1.258051	0.070695	0.989765
H247	H	0.699276	-0.485999	0.485613
H248	H	1.199276	0.014001	0.985613
C249	C	0.771149	-0.210330	0.300275
C250	C	1.271149	0.289670	0.800275
C251	C	0.730480	-0.257963	0.258309
C252	C	1.230480	0.242037	0.758309
H253	H	0.795132	-0.178046	0.268095
H254	H	1.295132	0.321954	0.768095
H255	H	0.802309	-0.238654	0.328501
H256	H	1.302309	0.261346	0.828501
H257	H	0.743584	-0.181976	0.332681
H258	H	1.243584	0.318024	0.832681
H259	H	0.758046	-0.286321	0.225907
H260	H	1.258046	0.213679	0.725907
H261	H	0.699317	-0.229636	0.230071
H262	H	1.199317	0.270364	0.730071
C263	C	0.328765	-0.216238	0.216734
C264	C	0.828765	0.283762	0.716734
C265	C	0.374712	-0.257979	0.258345
C266	C	0.874712	0.242021	0.758345
H267	H	0.352752	-0.183957	0.184555
H268	H	0.852752	0.316043	0.684555
H269	H	0.301211	-0.187887	0.249143
H270	H	0.801211	0.312113	0.749143
H271	H	0.301177	-0.248565	0.188273
H272	H	0.801177	0.251435	0.688273
H273	H	0.402297	-0.225652	0.286810
H274	H	0.902297	0.274348	0.786810
H275	H	0.402277	-0.286332	0.225931
H276	H	0.902277	0.213668	0.725931
H277	H	0.592159	-0.271525	0.271840
H278	H	1.092159	0.228475	0.771840
C279	C	0.881207	-0.463270	0.726864
C280	C	1.381207	0.036730	1.226864
C281	C	0.881176	-0.464161	0.804432
C282	C	1.381176	0.035839	1.304432
H283	H	0.849319	-0.498267	0.708895
H284	H	1.349319	0.001733	1.208895
H285	H	0.924922	-0.475754	0.709211
H286	H	1.424922	0.024246	1.209211
H287	H	0.869390	-0.415184	0.709884
H288	H	1.369390	0.084816	1.209884
H289	H	0.892998	-0.512245	0.821413
H290	H	1.392998	-0.012245	1.321413
H291	H	0.837452	-0.451682	0.822093
H292	H	1.337452	0.048318	1.322093
H293	H	0.947617	-0.232767	0.811873
H294	H	1.447617	0.267233	1.311873
