data_functionalizedCrystal
_audit_creation_method	'MofGen! by Chris Wilmer'
_symmetry_space_group_name_H-M	'P1'
_symmetry_Int_Tables_number	1
_symmetry_cell_setting	triclinic
loop_
_symmetry_equiv_pos_as_xyz
  x,y,z
_cell_length_a	29.839135
_cell_length_b	29.839132
_cell_length_c	29.839125
_cell_angle_alpha	90.019925
_cell_angle_beta	89.984512
_cell_angle_gamma	89.952207
loop_
_atom_site_label
_atom_site_type_symbol
_atom_site_fract_x
_atom_site_fract_y
_atom_site_fract_z
Zn1	Zn	0.686708	0.178886	-0.254040
Zn2	Zn	0.686635	0.253998	-0.178907
Zn3	Zn	0.611590	0.178886	-0.178918
Zn4	Zn	0.611533	0.253993	-0.254004
O5	O	0.649116	0.216441	-0.216468
O6	O	0.749565	0.188852	-0.244084
O7	O	0.676673	0.244036	-0.116042
O8	O	0.621609	0.116019	-0.188903
O9	O	0.749512	0.244036	-0.188884
O10	O	0.676798	0.116019	-0.244095
O11	O	0.621539	0.188852	-0.116050
O12	O	0.548716	0.188847	-0.188868
O13	O	0.621512	0.244028	-0.316876
O14	O	0.548674	0.244028	-0.244033
O15	O	0.676742	0.188847	-0.316903
O16	O	0.676618	0.316865	-0.188849
O17	O	0.621441	0.316861	-0.244023
C18	C	0.532394	0.216437	-0.216448
C19	C	0.482459	0.216447	-0.216451
C20	C	0.172841	0.187750	-0.245252
C21	C	-0.014832	0.187753	-0.245265
O22	O	-0.039076	0.163344	-0.269732
N23	N	-0.038326	0.216441	-0.216484
C24	C	-0.014898	0.245129	-0.187696
O25	O	-0.039187	0.269527	-0.163212
C26	C	0.172774	0.245123	-0.187681
C27	C	0.196265	0.216436	-0.216467
C28	C	0.196332	0.159065	-0.274036
C29	C	0.243248	0.159066	-0.274034
C30	C	0.266672	0.187752	-0.245249
C31	C	0.243181	0.216437	-0.216465
C32	C	0.196201	0.273808	-0.158890
C33	C	0.243122	0.273803	-0.158888
C34	C	0.266613	0.245116	-0.187675
C35	C	0.313521	0.245125	-0.187678
N36	N	0.337014	0.216437	-0.216459
C37	C	0.313590	0.187750	-0.245245
C38	C	-0.113429	0.245130	-0.187706
C39	C	-0.160346	0.245133	-0.187710
C40	C	-0.160277	0.187756	-0.245279
C41	C	-0.113359	0.187756	-0.245277
C42	C	-0.089935	0.216442	-0.216487
C43	C	0.412116	0.187755	-0.245239
C44	C	0.459035	0.187760	-0.245236
C45	C	0.458962	0.245135	-0.187665
C46	C	0.412046	0.245132	-0.187670
C47	C	0.388624	0.216438	-0.216458
O48	O	0.337793	0.269518	-0.163221
O49	O	0.337887	0.163349	-0.269717
C50	C	0.125926	0.187749	-0.245254
C51	C	0.102434	0.216434	-0.216471
C52	C	0.125859	0.245120	-0.187685
C53	C	0.055517	0.216436	-0.216475
C54	C	0.032092	0.187749	-0.245260
C55	C	0.055586	0.159061	-0.274041
C56	C	0.102501	0.159062	-0.274040
C57	C	0.102365	0.273808	-0.158904
C58	C	0.055450	0.273805	-0.158909
C59	C	0.032025	0.245119	-0.187694
C60	C	0.649028	0.333163	-0.216441
C61	C	0.649031	0.383098	-0.216444
C62	C	0.677867	0.692730	-0.187762
C63	C	0.677910	0.880404	-0.187773
O64	O	0.702380	0.904659	-0.163378
N65	N	0.649164	0.903883	-0.216475
C66	C	0.620406	0.880441	-0.245179
O67	O	0.595960	0.904718	-0.269595
C68	C	0.620366	0.692769	-0.245171
C69	C	0.649111	0.669292	-0.216463
C70	C	0.706611	0.669254	-0.159058
C71	C	0.706598	0.622338	-0.159054
C72	C	0.677842	0.598900	-0.187754
C73	C	0.649098	0.622377	-0.216459
C74	C	0.591611	0.669328	-0.273876
C75	C	0.591604	0.622407	-0.273873
C76	C	0.620350	0.598930	-0.245165
C77	C	0.620330	0.552023	-0.245156
N78	N	0.649076	0.528543	-0.216454
C79	C	0.677832	0.551982	-0.187753
C80	C	0.620429	0.978972	-0.245180
C81	C	0.620438	1.025890	-0.245182
C82	C	0.677943	1.025849	-0.187776
C83	C	0.677931	0.978930	-0.187773
C84	C	0.649175	0.955492	-0.216478
C85	C	0.677803	0.453456	-0.187746
C86	C	0.677787	0.406536	-0.187744
C87	C	0.620284	0.406581	-0.245151
C88	C	0.620298	0.453497	-0.245152
C89	C	0.649062	0.476933	-0.216448
O90	O	0.595876	0.527738	-0.269541
O91	O	0.702282	0.527697	-0.163347
C92	C	0.677880	0.739646	-0.187766
C93	C	0.649137	0.763123	-0.216471
C94	C	0.620381	0.739684	-0.245172
C95	C	0.649146	0.810041	-0.216473
C96	C	0.677902	0.833479	-0.187772
C97	C	0.706649	0.810000	-0.159070
C98	C	0.706636	0.763084	-0.159066
C99	C	0.591634	0.763164	-0.273874
C100	C	0.591649	0.810079	-0.273875
C101	C	0.620405	0.833518	-0.245175
C102	C	0.766295	0.216445	-0.216487
C103	C	0.816229	0.216446	-0.216495
C104	C	0.649129	0.216437	-0.333646
C105	C	0.649134	0.216435	-0.383580
C106	C	0.649201	1.099262	-0.216495
C107	C	0.649194	1.049328	-0.216481
C108	C	0.677923	0.187627	-0.693241
C109	C	0.677945	0.187589	-0.880914
O110	O	0.702389	0.163138	-0.905193
N111	N	0.649193	0.216315	-0.904366
C112	C	0.620432	0.245050	-0.880896
O113	O	0.595975	0.269479	-0.905150
C114	C	0.620408	0.245086	-0.693224
C115	C	0.649165	0.216361	-0.669775
C116	C	0.706676	0.158905	-0.669791
C117	C	0.706672	0.158916	-0.622876
C118	C	0.677914	0.187650	-0.599410
C119	C	0.649160	0.216373	-0.622859
C120	C	0.591645	0.273819	-0.669756
C121	C	0.591641	0.273824	-0.622835
C122	C	0.620397	0.245100	-0.599385
C123	C	0.620398	0.245119	-0.552478
N124	N	0.649150	0.216393	-0.529026
C125	C	0.677908	0.187659	-0.552492
C126	C	0.620448	0.245030	-0.979427
C127	C	0.620454	0.245022	-1.026345
C128	C	0.677966	0.187560	-1.026359
C129	C	0.677962	0.187571	-0.979440
C130	C	0.649199	0.216304	-0.955975
C131	C	0.677897	0.187685	-0.453966
C132	C	0.677892	0.187701	-0.407046
C133	C	0.620378	0.245161	-0.407036
C134	C	0.620385	0.245147	-0.453952
C135	C	0.649146	0.216406	-0.477416
O136	O	0.595964	0.269553	-0.528170
O137	O	0.702355	0.163226	-0.528230
C138	C	0.677927	0.187616	-0.740156
C139	C	0.649173	0.216338	-0.763606
C140	C	0.620415	0.245072	-0.740140
C141	C	0.649179	0.216330	-0.810524
C142	C	0.677937	0.187596	-0.833990
C143	C	0.706689	0.158870	-0.810538
C144	C	0.706685	0.158881	-0.763622
C145	C	0.591664	0.273798	-0.763592
C146	C	0.591670	0.273785	-0.810507
C147	C	0.620428	0.245050	-0.833973
C148	C	0.649130	0.216412	-0.099745
C149	C	0.649212	0.216288	-0.049811
H150	H	0.392919	0.268496	-0.164235
O151	O	0.125046	0.301719	-0.130927
C152	C	0.094244	0.327028	-0.105520
H153	H	0.060805	0.328605	-0.123922
H154	H	0.107763	0.362420	-0.100662
H155	H	0.089257	0.310527	-0.071430
H156	H	0.701226	0.472532	-0.164374
O157	O	0.734559	0.130908	-0.833357
C158	C	0.709004	0.101896	-0.860502
H159	H	0.673624	0.099126	-0.846353
H160	H	0.725279	0.067322	-0.861047
H161	H	0.707445	0.115782	-0.896057
O162	O	0.563692	0.301660	-0.692580
C163	C	0.534692	0.276080	-0.719712
H164	H	0.550566	0.242033	-0.726751
H165	H	0.528660	0.294375	-0.752699
H166	H	0.501402	0.271146	-0.701625
H167	H	0.730101	0.135491	-0.744534
O168	O	0.563786	0.832931	-0.301787
C169	C	0.589353	0.860017	-0.330839
H170	H	0.623409	0.867019	-0.315025
H171	H	0.571058	0.893026	-0.336852
H172	H	0.594266	0.841910	-0.364131
O173	O	0.734569	0.599605	-0.131157
C174	C	0.759942	0.630362	-0.105824
H175	H	0.761484	0.663796	-0.124231
H176	H	0.795342	0.616777	-0.101069
H177	H	0.743520	0.635382	-0.071686
O178	O	0.734498	0.692081	-0.131179
C179	C	0.708970	0.719268	-0.102126
H180	H	0.674903	0.726319	-0.117915
H181	H	0.727287	0.752246	-0.096158
H182	H	0.704079	0.701223	-0.068814
H183	H	0.478160	0.164399	-0.268679
O184	O	0.389437	0.159871	-0.273248
C185	C	0.420240	0.134549	-0.298643
H186	H	0.453668	0.152956	-0.300155
H187	H	0.406705	0.129813	-0.334051
H188	H	0.425254	0.100403	-0.282257
H189	H	0.597011	0.959892	-0.268556
O190	O	0.563718	0.740449	-0.301816
C191	C	0.573511	0.751878	-0.346603
H192	H	0.590796	0.785921	-0.347553
H193	H	0.541072	0.753518	-0.366711
H194	H	0.596584	0.725437	-0.361760
O195	O	0.705898	0.956196	-0.159874
C196	C	0.731268	0.986950	-0.134535
H197	H	0.732815	1.020385	-0.152941
H198	H	0.766666	0.973363	-0.129774
H199	H	0.714840	0.991971	-0.100400
H200	H	0.701316	0.164280	-0.473065
H201	H	0.478042	0.268492	-0.164230
O202	O	0.705907	0.159623	-0.956733
C203	C	0.731298	0.134272	-0.987512
H204	H	0.712901	0.132713	-1.020953
H205	H	0.736120	0.098876	-0.973966
H206	H	0.765404	0.150724	-0.992503
H207	H	0.036505	0.135705	-0.297481
O208	O	0.563715	0.301630	-0.833334
C209	C	0.534715	0.276045	-0.860462
H210	H	0.550590	0.241998	-0.867499
H211	H	0.528680	0.294337	-0.893451
H212	H	0.501426	0.271111	-0.842373
O213	O	0.592418	0.383786	-0.273078
C214	C	0.617977	0.356601	-0.302104
H215	H	0.653360	0.370707	-0.304911
H216	H	0.601710	0.356065	-0.336664
H217	H	0.619531	0.321049	-0.288208
O218	O	0.592437	0.273121	-0.384306
C219	C	0.567051	0.298469	-0.415060
H220	H	0.585447	0.300014	-0.448512
H221	H	0.562236	0.333870	-0.401498
H222	H	0.532941	0.282023	-0.420039
O223	O	0.563712	0.301754	-0.740870
C224	C	0.538330	0.327093	-0.771635
H225	H	0.556737	0.328637	-0.805081
H226	H	0.533504	0.362494	-0.758079
H227	H	0.504225	0.310639	-0.776623
H228	H	0.262370	0.135705	-0.297474
H229	H	0.701357	1.044940	-0.164407
O230	O	0.734604	0.740352	-0.131167
C231	C	0.759976	0.771108	-0.105831
H232	H	0.761521	0.804542	-0.124240
H233	H	0.795374	0.757521	-0.101072
H234	H	0.743550	0.776131	-0.071696
O235	O	0.705841	0.159753	-0.384338
C236	C	0.731230	0.134397	-0.415114
H237	H	0.712831	0.132835	-0.448555
H238	H	0.736052	0.099004	-0.401565
H239	H	0.765336	0.150848	-0.420109
O240	O	0.125248	0.131151	-0.302015
C241	C	0.094504	0.105843	-0.327427
H242	H	0.061056	0.104265	-0.309027
H243	H	0.108085	0.070452	-0.332285
H244	H	0.089510	0.122346	-0.361516
H245	H	0.597027	1.045000	-0.268554
O246	O	0.032614	0.301723	-0.131008
C247	C	0.005447	0.330774	-0.156526
H248	H	0.019590	0.333606	-0.191905
H249	H	0.004885	0.365322	-0.140210
H250	H	-0.030100	0.316888	-0.158096
H251	H	0.177265	0.135702	-0.297477
H252	H	0.701195	0.387423	-0.164365
H253	H	0.597043	0.268417	-1.045434
O254	O	-0.090611	0.159846	-0.273253
C255	C	-0.121352	0.134540	-0.298668
H256	H	-0.154801	0.132960	-0.280271
H257	H	-0.107770	0.099149	-0.303528
H258	H	-0.126344	0.151045	-0.332757
O259	O	0.173440	0.301736	-0.130946
C260	C	0.184867	0.346526	-0.140682
H261	H	0.218934	0.347481	-0.157956
H262	H	0.186455	0.366616	-0.108219
H263	H	0.158453	0.361701	-0.163744
H264	H	0.730088	0.135525	-0.603787
O265	O	0.563675	0.692057	-0.301807
C266	C	0.538290	0.661299	-0.327129
H267	H	0.556687	0.627836	-0.328692
H268	H	0.533479	0.674839	-0.362524
H269	H	0.504180	0.656351	-0.310647
O270	O	0.563734	0.599619	-0.301805
C271	C	0.589285	0.572432	-0.330836
H272	H	0.624670	0.586530	-0.333644
H273	H	0.573014	0.571903	-0.365394
H274	H	0.590831	0.536877	-0.316945
H275	H	0.730062	0.829092	-0.135699
H276	H	0.730095	0.135503	-0.688892
O277	O	-0.183085	0.159950	-0.273263
C278	C	-0.210227	0.185571	-0.302242
H279	H	-0.217284	0.219596	-0.286338
H280	H	-0.243205	0.167284	-0.308293
H281	H	-0.192141	0.190551	-0.335526
O282	O	0.592554	0.273010	-0.956658
C283	C	0.602330	0.317781	-0.968130
H284	H	0.638222	0.320046	-0.981025
H285	H	0.598431	0.339986	-0.937274
H286	H	0.578242	0.329514	-0.995364
O287	O	-0.183094	0.273017	-0.159708
C288	C	-0.152352	0.298341	-0.134311
H289	H	-0.118894	0.279934	-0.132790
H290	H	-0.165921	0.303081	-0.098905
H291	H	-0.147382	0.332486	-0.150698
H292	H	0.596893	0.472613	-0.268529
O293	O	0.265925	0.301693	-0.130985
C294	C	0.293038	0.330758	-0.156505
H295	H	0.300093	0.314967	-0.190581
H296	H	0.326019	0.336752	-0.138192
H297	H	0.274928	0.364057	-0.161380
O298	O	0.705856	0.159657	-1.049228
C299	C	0.699698	0.165820	-1.095666
H300	H	0.665019	0.180540	-1.102060
H301	H	0.702765	0.132166	-1.113505
H302	H	0.726331	0.189736	-1.108983
H303	H	-0.094361	0.268491	-0.164260
H304	H	0.568213	0.297218	-0.603732
O305	O	0.592430	0.272989	-0.476781
C306	C	0.563428	0.247400	-0.503903
H307	H	0.579305	0.213354	-0.510941
H308	H	0.557387	0.265689	-0.536893
H309	H	0.530142	0.242464	-0.485810
