data_functionalizedCrystal
_audit_creation_method	'MofGen! by Chris Wilmer'
_symmetry_space_group_name_H-M	'P1'
_symmetry_Int_Tables_number	1
_symmetry_cell_setting	triclinic
loop_
_symmetry_equiv_pos_as_xyz
  x,y,z
_cell_length_a	16.109301
_cell_length_b	10.868271
_cell_length_c	16.109301
_cell_angle_alpha	89.993442
_cell_angle_beta	96.538519
_cell_angle_gamma	90.001598
loop_
_atom_site_label
_atom_site_type_symbol
_atom_site_fract_x
_atom_site_fract_y
_atom_site_fract_z
O1	O	1.103132	0.102248	-0.106868
O2	O	1.603132	0.602248	0.393132
O3	O	0.861070	0.102268	-0.120167
O4	O	1.361070	0.602268	0.379833
O5	O	0.988750	0.102245	0.007514
O6	O	1.488750	0.602245	0.507514
O7	O	0.975451	0.102271	-0.234548
O8	O	1.475451	0.602271	0.265452
O9	O	0.988740	-0.102399	0.007519
O10	O	1.488740	0.397601	0.507519
O11	O	0.861059	-0.102376	-0.120162
O12	O	1.361059	0.397624	0.379838
O13	O	1.103121	-0.102396	-0.106863
O14	O	1.603121	0.397604	0.393137
Zn15	Zn	0.982088	-0.134878	-0.113512
Zn16	Zn	1.482088	0.365122	0.386488
Zn17	Zn	0.982102	0.134750	-0.113518
Zn18	Zn	1.482102	0.634750	0.386482
O19	O	0.975440	-0.102373	-0.234543
O20	O	1.475440	0.397627	0.265457
C21	C	0.830090	-0.000051	-0.119626
C22	C	1.330090	0.499949	0.380374
C23	C	0.737794	-0.000044	-0.118011
C24	C	1.237794	0.499956	0.381989
C25	C	0.515522	-0.000051	-0.190018
C26	C	1.015522	0.499949	0.309982
C27	C	0.428801	-0.000059	-0.188494
C28	C	0.928801	0.499941	0.311506
C29	C	0.448676	-0.000070	-0.037006
C30	C	0.948676	0.499930	0.462994
C31	C	0.535394	-0.000071	-0.038530
C32	C	1.035394	0.499929	0.461470
C33	C	0.568815	-0.000055	-0.115039
C34	C	1.068815	0.499945	0.384961
C35	C	0.395376	-0.000062	-0.111990
C36	C	0.895376	0.499938	0.388010
C37	C	0.301350	-0.000071	-0.110337
C38	C	0.801350	0.499929	0.389663
C39	C	0.662847	-0.000048	-0.116693
C40	C	1.162847	0.499952	0.383307
N41	N	0.982085	-0.318892	-0.113507
N42	N	1.482085	0.181108	0.386493
C43	C	0.982098	-0.569898	-0.113516
C44	C	1.482098	-0.069898	0.386484
C45	C	0.982088	-0.430221	-0.113513
C46	C	1.482088	0.069779	0.386487
C47	C	1.134101	-0.000074	-0.107404
C48	C	1.634101	0.499926	0.392596
C49	C	1.226397	-0.000073	-0.109019
C50	C	1.726397	0.499927	0.390981
C51	C	0.988206	-0.000078	0.038491
C52	C	1.488206	0.499922	0.538491
C53	C	0.986591	-0.000079	0.130786
C54	C	1.486591	0.499921	0.630786
N55	N	0.982112	0.318764	-0.113516
N56	N	1.482112	0.818764	0.386484
C57	C	0.975984	-0.000048	-0.265521
C58	C	1.475984	0.499952	0.234479
C59	C	0.977600	-0.000038	-0.357816
C60	C	1.477600	0.499962	0.142184
C61	C	1.058599	-0.000066	0.353059
C62	C	1.558599	0.499934	0.853059
C63	C	1.057075	-0.000055	0.439779
C64	C	1.557075	0.499945	0.939779
C65	C	0.905586	-0.000048	0.419905
C66	C	1.405586	0.499952	0.919905
C67	C	0.907111	-0.000049	0.333186
C68	C	1.407111	0.499951	0.833186
C69	C	0.983620	-0.000064	0.299766
C70	C	1.483620	0.499936	0.799766
C71	C	0.980571	-0.000053	0.473205
C72	C	1.480571	0.499947	0.973205
C73	C	0.978918	-0.000042	0.567231
C74	C	1.478918	0.499958	1.067231
C75	C	0.985273	-0.000073	0.205734
C76	C	1.485273	0.499927	0.705734
H77	H	0.421454	-0.000090	0.025285
H78	H	0.921454	0.499910	0.525285
H79	H	1.120897	-0.000075	0.325851
H80	H	1.620897	0.499925	0.825851
O81	O	0.587288	-0.000124	0.034232
O82	O	1.087288	0.499876	0.534232
C83	C	0.729694	-0.000054	0.099013
C84	C	1.229694	0.499946	0.599013
C85	C	0.671021	-0.000018	0.016554
C86	C	1.171021	0.499982	0.516554
H87	H	0.797404	0.000058	0.084749
H88	H	1.297404	0.500058	0.584749
H89	H	0.717608	-0.085719	0.136681
H90	H	1.217608	0.414281	0.636681
H91	H	0.717498	0.085568	0.136660
H92	H	1.217498	0.585568	0.636660
H93	H	0.683182	-0.085582	-0.021160
H94	H	1.183182	0.414418	0.478840
H95	H	0.683119	0.085703	-0.021051
H96	H	1.183119	0.585703	0.478949
H97	H	1.118130	-0.000054	0.483168
H98	H	1.618130	0.499946	0.983168
O99	O	0.376998	-0.000265	-0.261306
O100	O	0.876998	0.499735	0.238694
C101	C	0.267520	-0.106234	-0.347481
C102	C	0.767520	0.393766	0.152519
C103	C	0.326154	-0.106168	-0.264996
C104	C	0.826154	0.393832	0.235004
H105	H	0.226386	-0.191835	-0.350483
H106	H	0.726386	0.308165	0.149517
H107	H	0.306264	-0.106301	-0.402455
H108	H	0.806264	0.393699	0.097545
H109	H	0.226463	-0.020552	-0.350543
H110	H	0.726463	0.479448	0.149457
H111	H	0.367223	-0.191836	-0.261853
H112	H	0.867223	0.308164	0.238147
H113	H	0.287360	-0.106037	-0.210061
H114	H	0.787360	0.393963	0.289939
O115	O	0.831342	-0.000099	0.452510
O116	O	1.331342	0.499901	0.952510
C117	C	0.761853	-0.000030	0.577296
C118	C	1.261853	0.499970	1.077296
C119	C	0.845994	0.000005	0.540485
C120	C	1.345994	0.500005	1.040485
H121	H	0.773671	0.000080	0.648428
H122	H	1.273671	0.500080	1.148428
H123	H	0.724788	-0.085693	0.555411
H124	H	1.224788	0.414307	1.055411
H125	H	0.724804	0.085594	0.555290
H126	H	1.224804	0.585594	1.055290
H127	H	0.883111	-0.085561	0.562474
H128	H	1.383111	0.414439	1.062474
H129	H	0.882996	0.085724	0.562366
H130	H	1.382996	0.585724	1.062366
H131	H	0.542730	-0.000047	-0.252317
H132	H	1.042730	0.499953	0.247683
O133	O	0.834195	-0.000103	0.281530
O134	O	1.334195	0.499897	0.781530
C135	C	0.683777	-0.000018	0.270961
C136	C	1.183777	0.499982	0.770961
C137	C	0.766287	0.000007	0.329556
C138	C	1.266287	0.500007	0.829556
H139	H	0.628852	0.000098	0.309766
H140	H	1.128852	0.500098	0.809766
H141	H	0.680645	-0.085680	0.229885
H142	H	1.180645	0.414320	0.729885
H143	H	0.680757	0.085607	0.229843
H144	H	1.180757	0.585607	0.729843
H145	H	0.769362	-0.085559	0.370726
H146	H	1.269362	0.414441	0.870726
H147	H	0.769385	0.085726	0.370575
H148	H	1.269385	0.585726	0.870575
