data_functionalizedCrystal
_audit_creation_method	'MofGen! by Chris Wilmer'
_symmetry_space_group_name_H-M	'P1'
_symmetry_Int_Tables_number	1
_symmetry_cell_setting	triclinic
loop_
_symmetry_equiv_pos_as_xyz
  x,y,z
_cell_length_a	10.654562
_cell_length_b	10.654541
_cell_length_c	9.730223
_cell_angle_alpha	89.998868
_cell_angle_beta	89.996961
_cell_angle_gamma	84.487016
loop_
_atom_site_label
_atom_site_type_symbol
_atom_site_fract_x
_atom_site_fract_y
_atom_site_fract_z
O1	O	1.667823	0.176470	-0.114380
O2	O	1.302347	0.193259	-0.114363
O3	O	1.493489	0.002125	-0.114363
O4	O	1.476680	0.367603	-0.114379
O5	O	1.493487	0.002130	0.114217
O6	O	1.302344	0.193264	0.114217
O7	O	1.667821	0.176474	0.114200
Zn8	Zn	1.485082	0.184870	0.150501
Zn9	Zn	1.485085	0.184863	-0.150663
O10	O	1.476678	0.367608	0.114201
C11	C	1.255548	0.192025	-0.000070
C12	C	1.116105	0.188327	-0.000064
C13	C	1.050573	0.186605	0.124525
C14	C	0.919551	0.183140	0.124502
C15	C	0.919604	0.183125	-0.124709
C16	C	1.050625	0.186581	-0.124684
C17	C	1.050541	0.186619	0.268404
C18	C	0.919519	0.183154	0.268382
C19	C	1.492255	-0.044671	-0.000074
C20	C	1.488564	-0.184114	-0.000076
C21	C	1.717127	-0.212075	-0.000069
C22	C	1.829670	-0.291564	-0.000063
C23	C	1.826194	-0.422582	-0.000067
C24	C	1.710164	-0.474113	-0.000082
C25	C	1.597621	-0.394623	-0.000088
C26	C	1.601109	-0.263604	-0.000080
C27	C	1.369061	-0.366663	-0.000105
C28	C	1.372534	-0.235645	-0.000091
C29	C	1.253031	-0.418194	-0.000119
C30	C	1.140485	-0.338704	-0.000115
C31	C	1.143966	-0.207679	-0.000110
C32	C	1.259991	-0.156156	-0.000097
C33	C	1.714620	0.177708	-0.000095
C34	C	1.854062	0.181406	-0.000111
C35	C	1.477913	0.414404	-0.000091
C36	C	1.481603	0.553848	-0.000098
N37	N	1.485089	0.184873	0.356037
N38	N	1.485088	0.184850	-0.356200
C39	C	1.569750	0.100268	0.427963
C40	C	1.569746	0.100253	0.571846
C41	C	1.400419	0.269459	0.571865
C42	C	1.400417	0.269467	0.427984
C43	C	1.667513	0.002582	0.427953
C44	C	1.667510	0.002567	0.571836
H45	H	1.719969	-0.105394	-0.000047
Cl46	Cl	1.808282	0.049830	0.359033
Cl47	Cl	1.634408	-0.146453	0.367654
H48	H	1.924140	-0.249593	-0.000039
Cl49	Cl	1.293968	0.375813	0.337562
H50	H	1.707344	-0.580796	-0.000102
H51	H	1.917836	-0.487303	-0.000073
H52	H	1.331480	0.338332	0.630459
H53	H	1.636998	-0.088657	0.616457
Cl54	Cl	1.121973	0.052622	0.353714
Cl55	Cl	0.848046	0.317157	0.353651
Cl56	Cl	1.816512	0.035785	0.632130
Cl57	Cl	1.248661	-0.582903	-0.000211
H58	H	1.052319	-0.142965	-0.000121
Cl59	Cl	1.133007	0.188718	-0.281316
H60	H	1.046022	-0.380672	-0.000136
H61	H	0.866273	0.181704	-0.226170
H62	H	1.080115	0.278215	0.313044
Cl63	Cl	1.264376	0.008552	-0.000080
H64	H	0.889931	0.091560	0.313032
