data_functionalizedCrystal
_audit_creation_method	'MofGen! by Chris Wilmer'
_symmetry_space_group_name_H-M	'P1'
_symmetry_Int_Tables_number	1
_symmetry_cell_setting	triclinic
loop_
_symmetry_equiv_pos_as_xyz
  x,y,z
_cell_length_a	16.994737
_cell_length_b	12.827893
_cell_length_c	12.827892
_cell_angle_alpha	90.015362
_cell_angle_beta	89.973112
_cell_angle_gamma	89.989826
loop_
_atom_site_label
_atom_site_type_symbol
_atom_site_fract_x
_atom_site_fract_y
_atom_site_fract_z
Zn1	Zn	0.445982	-1.597576	0.416013
Zn2	Zn	0.314085	-1.597498	0.590782
Zn3	Zn	0.314095	-1.422845	0.416055
Zn4	Zn	0.445952	-1.422802	0.590713
O5	O	0.380028	-1.510180	0.503391
O6	O	0.428494	-1.743801	0.439208
O7	O	0.203705	-1.574315	0.567650
O8	O	0.331607	-1.446074	0.269814
O9	O	0.331590	-1.743744	0.567610
O10	O	0.428503	-1.574448	0.269783
O11	O	0.203713	-1.445998	0.439279
O12	O	0.331578	-1.276603	0.439213
O13	O	0.556337	-1.446001	0.567492
O14	O	0.428452	-1.276572	0.567533
O15	O	0.556359	-1.574407	0.439141
O16	O	0.331561	-1.574273	0.737009
O17	O	0.428442	-1.445926	0.736958
C18	C	0.380013	-1.238670	0.503371
C19	C	0.380026	-1.122517	0.503387
C20	C	0.380015	-1.510115	0.774901
C21	C	0.380035	-1.510182	0.891054
C22	C	0.675089	-1.510242	0.503280
C23	C	0.585767	-1.510215	0.503313
C24	C	0.175089	-1.510210	0.503394
C25	C	0.085767	-1.510405	0.503131
Zn26	Zn	0.945949	-1.597887	0.590312
Zn27	Zn	0.945985	-1.422904	0.415916
Zn28	Zn	0.814109	-1.423096	0.590711
Zn29	Zn	0.814073	-1.597538	0.415681
O30	O	0.880029	-1.510356	0.503155
O31	O	1.056335	-1.574741	0.567109
O32	O	0.928521	-1.276693	0.439369
O33	O	0.831597	-1.446509	0.736894
O34	O	1.056361	-1.446181	0.438982
O35	O	0.928460	-1.574927	0.736600
O36	O	0.831632	-1.276834	0.567790
O37	O	0.703723	-1.446170	0.567561
O38	O	0.831536	-1.743820	0.438580
O39	O	0.703696	-1.574332	0.438967
O40	O	0.928425	-1.744077	0.566881
O41	O	0.928487	-1.445842	0.269649
O42	O	0.831572	-1.574145	0.269476
C43	C	0.380044	-1.782750	0.503412
C44	C	0.380051	-1.898903	0.503421
C45	C	0.427888	-1.070745	0.566983
C46	C	0.427902	-0.950694	0.567002
C47	C	0.380060	-1.510274	0.230821
C48	C	0.380073	-1.510314	0.114667
C49	C	0.332148	-1.573768	0.942829
C50	C	0.332168	-1.573840	1.062879
C51	C	0.880030	-1.509931	0.231645
C52	C	0.880051	-1.509715	0.115492
C53	C	0.879973	-1.782926	0.502659
C54	C	0.879949	-1.899079	0.502448
C55	C	0.879981	-1.510840	0.775724
C56	C	0.879841	-1.511206	0.891877
C57	C	0.880129	-1.238847	0.503722
C58	C	0.880300	-1.122695	0.504221
C59	C	0.928051	-1.446189	0.063828
C60	C	0.928073	-1.445964	-0.056222
C61	C	0.927877	-1.950990	0.565835
C62	C	0.927853	-2.071041	0.565618
H63	H	0.468858	-1.115297	0.621413
C64	C	0.435444	-1.436706	0.951226
C65	C	0.428935	-1.317892	0.936430
C66	C	0.484346	-1.244413	0.996599
C67	C	0.546266	-1.289749	1.071565
C68	C	0.552777	-1.408569	1.086365
C69	C	0.497366	-1.482048	1.026196
H70	H	0.383096	-1.284326	0.880932
H71	H	0.479526	-1.156453	0.985643
H72	H	0.587284	-1.235355	1.116106
H73	H	0.598616	-1.442135	1.141863
H74	H	0.502187	-1.570008	1.037152
H75	H	0.291138	-1.628159	0.898281
C76	C	0.324679	-1.062341	0.429846
C77	C	0.359023	-0.987304	0.347938
C78	C	0.303674	-0.927131	0.274395
C79	C	0.213981	-0.941996	0.282760
C80	C	0.179631	-1.017037	0.364671
C81	C	0.234980	-1.077210	0.438215
H82	H	0.425424	-0.976297	0.341743
H83	H	0.329102	-0.871581	0.213758
H84	H	0.173008	-0.897453	0.228318
H85	H	0.113231	-1.028044	0.370866
H86	H	0.209552	-1.132760	0.498851
C87	C	0.824489	-1.959093	0.428915
C88	C	0.858705	-2.034049	0.346782
C89	C	0.803243	-2.094061	0.273246
C90	C	0.713564	-2.079116	0.281842
C91	C	0.679344	-2.004157	0.363978
C92	C	0.734806	-1.944146	0.437514
H93	H	0.925094	-2.045115	0.340416
H94	H	0.828576	-2.149550	0.212443
H95	H	0.672508	-2.123540	0.227406
H96	H	0.612954	-1.993092	0.370344
H97	H	0.709473	-1.888656	0.498316
C98	C	0.276779	-1.647388	1.123021
C99	C	0.221289	-1.720972	1.063119
C100	C	0.165898	-1.794522	1.123262
C101	C	0.165997	-1.794489	1.243308
C102	C	0.221489	-1.720902	1.303216
C103	C	0.276880	-1.647351	1.243073
H104	H	0.221214	-1.720999	0.974248
H105	H	0.124819	-1.848996	1.078913
H106	H	0.124993	-1.848935	1.287830
H107	H	0.221564	-1.720875	1.392087
H108	H	0.317959	-1.592878	1.287422
H109	H	0.838976	-1.563940	0.070849
C110	C	0.983594	-1.372485	-0.116235
C111	C	0.983537	-1.372365	-0.236281
C112	C	1.039059	-1.298883	-0.296296
C113	C	1.094638	-1.225521	-0.236266
C114	C	1.094697	-1.225639	-0.116214
C115	C	1.039174	-1.299121	-0.056199
H116	H	0.942392	-1.426674	-0.280724
H117	H	1.039015	-1.298796	-0.385167
H118	H	1.135739	-1.171126	-0.280693
H119	H	1.135841	-1.171330	-0.071770
H120	H	1.039218	-1.299207	0.032672
H121	H	0.468877	-0.906171	0.621452
C122	C	0.983337	-1.890978	0.639370
C123	C	1.073015	-1.905924	0.630774
C124	C	1.128478	-1.845915	0.704313
C125	C	1.094262	-1.770961	0.786447
C126	C	1.004579	-1.756011	0.795045
C127	C	0.949117	-1.816020	0.721507
H128	H	1.098348	-1.961412	0.569971
H129	H	1.194867	-1.856982	0.697947
H130	H	1.135319	-1.726539	0.840884
H131	H	0.979247	-1.700523	0.855849
H132	H	0.882728	-1.804953	0.727873
H133	H	0.421070	-1.455869	1.070150
H134	H	0.968890	-2.115683	0.619880
H135	H	0.969132	-1.391972	0.108473
H136	H	0.339069	-0.943420	0.448975
H137	H	0.838993	-1.563685	-0.063697
H138	H	0.838872	-2.078057	0.447769
