data_functionalizedCrystal
_audit_creation_method	'MofGen! by Chris Wilmer'
_symmetry_space_group_name_H-M	'P1'
_symmetry_Int_Tables_number	1
_symmetry_cell_setting	triclinic
loop_
_symmetry_equiv_pos_as_xyz
  x,y,z
_cell_length_a	12.827893
_cell_length_b	16.625546
_cell_length_c	16.625539
_cell_angle_alpha	90.030397
_cell_angle_beta	90.018604
_cell_angle_gamma	90.022439
loop_
_atom_site_label
_atom_site_type_symbol
_atom_site_fract_x
_atom_site_fract_y
_atom_site_fract_z
Zn1	Zn	1.597611	-0.321001	0.455855
Zn2	Zn	1.597486	-0.455844	0.321018
Zn3	Zn	1.422855	-0.321029	0.321040
Zn4	Zn	1.422816	-0.455795	0.455812
O5	O	1.510192	-0.388417	0.388431
O6	O	1.743831	-0.338897	0.437977
O7	O	1.574284	-0.437993	0.208188
O8	O	1.446105	-0.208193	0.338952
O9	O	1.743739	-0.437965	0.338913
O10	O	1.574498	-0.208172	0.438000
O11	O	1.445983	-0.338945	0.208205
O12	O	1.276614	-0.338897	0.338910
O13	O	1.446040	-0.437882	0.568650
O14	O	1.276585	-0.437909	0.437926
O15	O	1.574461	-0.338849	0.568682
O16	O	1.574247	-0.568670	0.338871
O17	O	1.445918	-0.568634	0.437904
C18	C	1.238682	-0.388402	0.388416
C19	C	1.122529	-0.388414	0.388429
C20	C	1.070758	-0.437485	0.437349
C21	C	0.950708	-0.437500	0.437363
C22	C	1.510093	-0.597908	0.388398
C23	C	1.510146	-0.687529	0.388410
C24	C	1.510329	-1.015705	0.388494
C25	C	1.510275	-0.924396	0.388473
C26	C	1.510237	-0.851620	0.388452
C27	C	1.510184	-0.760306	0.388431
C28	C	1.782762	-0.388433	0.388447
C29	C	1.898915	-0.388440	0.388454
C30	C	1.510260	-0.388357	0.598740
C31	C	1.510289	-0.388332	0.688362
C32	C	1.510320	-0.178108	0.388483
C33	C	1.510374	-0.088487	0.388505
C34	C	1.510185	-0.388419	0.178941
C35	C	1.510358	-0.388217	0.089320
C36	C	1.510337	-0.388241	1.016537
C37	C	1.510321	-0.388269	0.925229
C38	C	1.510314	-0.388287	0.852452
C39	C	1.510296	-0.388313	0.761138
H40	H	1.115312	-0.479483	0.479225
O41	O	0.897441	-0.487546	0.487307
C42	C	0.729218	-0.533250	0.532799
C43	C	0.789414	-0.476517	0.476209
H44	H	0.641868	-0.524364	0.523834
H45	H	0.750581	-0.519183	0.597871
H46	H	0.750652	-0.598251	0.518545
H47	H	0.768013	-0.411496	0.490390
H48	H	0.768046	-0.490653	0.411154
H49	H	1.077975	-0.346410	0.346560
O50	O	0.951968	-0.338403	0.338366
C51	C	0.985446	-0.299080	0.201303
C52	C	0.925308	-0.355808	0.257935
H53	H	0.963897	-0.313120	0.136264
H54	H	1.072816	-0.308004	0.210124
H55	H	0.964092	-0.234074	0.215608
H56	H	0.946574	-0.420836	0.243665
H57	H	0.837952	-0.346815	0.249104
