data_functionalizedCrystal
_audit_creation_method	'MofGen! by Chris Wilmer'
_symmetry_space_group_name_H-M	'P1'
_symmetry_Int_Tables_number	1
_symmetry_cell_setting	triclinic
loop_
_symmetry_equiv_pos_as_xyz
  x,y,z
_cell_length_a	10.654547
_cell_length_b	10.654541
_cell_length_c	7.681481
_cell_angle_alpha	95.797494
_cell_angle_beta	84.221424
_cell_angle_gamma	84.484992
loop_
_atom_site_label
_atom_site_type_symbol
_atom_site_fract_x
_atom_site_fract_y
_atom_site_fract_z
O1	O	1.656065	0.188205	0.146459
O2	O	1.290587	0.205007	0.146456
O3	O	1.481731	0.013866	0.146447
O4	O	1.464920	0.379347	0.146468
O5	O	1.505257	-0.009714	-0.146412
O6	O	1.314113	0.181427	-0.146403
O7	O	1.679591	0.164625	-0.146400
Zn8	Zn	1.500587	0.169282	-0.192899
Zn9	Zn	1.469590	0.200350	0.192955
O10	O	1.488446	0.355767	-0.146391
C11	C	1.255552	0.191983	0.000026
C12	C	1.116109	0.188289	0.000024
C13	C	1.492261	-0.044722	0.000018
C14	C	1.488570	-0.184165	0.000021
C15	C	0.828438	0.207037	0.319331
C16	C	0.881132	0.221627	0.478968
C17	C	1.012150	0.225107	0.478964
C18	C	1.090479	0.213991	0.319304
C19	C	1.037785	0.199400	0.159667
C20	C	0.906762	0.195926	0.159688
C21	C	1.063415	0.173699	-0.159613
C22	C	0.932396	0.170228	-0.159613
C23	C	1.141744	0.162583	-0.319273
C24	C	1.089049	0.148001	-0.478915
C25	C	0.958023	0.144523	-0.478903
C26	C	0.879702	0.155638	-0.319251
C27	C	1.717136	-0.212136	0.000001
C28	C	1.829680	-0.291630	-0.000013
C29	C	1.826204	-0.422647	-0.000007
C30	C	1.710171	-0.474172	0.000017
C31	C	1.597627	-0.394678	0.000031
C32	C	1.601116	-0.263659	0.000020
C33	C	1.369063	-0.366707	0.000064
C34	C	1.372537	-0.235690	0.000046
C35	C	1.253030	-0.418231	0.000088
C36	C	1.140484	-0.338737	0.000089
C37	C	1.143965	-0.207713	0.000082
C38	C	1.259993	-0.156195	0.000059
C39	C	1.714625	0.177650	0.000034
C40	C	1.854068	0.181344	0.000047
C41	C	1.477917	0.414355	0.000041
C42	C	1.481607	0.553799	0.000050
N43	N	1.521751	0.148079	-0.456234
N44	N	1.448437	0.221544	0.456290
H45	H	0.721753	0.204222	0.319350
H46	H	1.152835	0.138944	-0.608896
H47	H	1.046018	-0.380699	0.000121
Br48	Br	1.083670	0.244894	0.695615
H49	H	0.817343	0.230673	0.608960
Br50	Br	1.268293	0.218686	0.319301
Br51	Br	0.886524	0.124703	-0.695568
Br52	Br	1.264727	0.021612	0.000030
Br53	Br	1.646516	0.023105	-0.581576
H54	H	1.373597	0.296529	-0.468509
Br55	Br	0.991215	-0.099836	0.000121
H56	H	0.773018	0.152815	-0.319226
Br57	Br	1.319557	0.167295	-0.319283
H58	H	1.719979	-0.105457	-0.000027
H59	H	1.924153	-0.249665	-0.000048
Br60	Br	1.705444	-0.651972	0.000162
Br61	Br	1.978940	-0.530536	-0.000003
Br62	Br	1.248299	-0.596031	0.000225
