data_functionalizedCrystal
_audit_creation_method	'MofGen! by Chris Wilmer'
_symmetry_space_group_name_H-M	'P1'
_symmetry_Int_Tables_number	1
_symmetry_cell_setting	triclinic
loop_
_symmetry_equiv_pos_as_xyz
  x,y,z
_cell_length_a	20.875790
_cell_length_b	14.560438
_cell_length_c	20.875641
_cell_angle_alpha	90.002779
_cell_angle_beta	64.262324
_cell_angle_gamma	61.736246
loop_
_atom_site_label
_atom_site_type_symbol
_atom_site_fract_x
_atom_site_fract_y
_atom_site_fract_z
Zr1	Zr	0.664200	0.936445	-0.047956
O2	O	0.784955	0.803609	-0.140712
O3	O	0.538646	0.970844	-0.023951
O4	O	0.657283	0.986093	-0.147098
O5	O	0.673448	0.783523	0.084614
O6	O	0.657284	1.137231	-0.147096
O7	O	0.666319	0.788360	-0.017565
O8	O	0.445065	1.109953	0.073191
O9	O	0.885668	0.810800	-0.135673
O10	O	0.592067	1.105946	-0.008360
O11	O	0.597386	0.989543	0.067894
O12	O	0.737065	1.007497	-0.077096
O13	O	0.742385	0.891094	-0.000841
Zr14	Zr	0.675574	1.169778	0.115011
Zr15	Zr	0.664203	1.177493	-0.047953
Zr16	Zr	0.675571	0.928730	0.115009
Zr17	Zr	0.824824	0.947914	-0.039919
Zr18	Zr	0.514949	1.158308	0.106975
O19	O	0.801127	1.135379	0.091006
O20	O	0.784959	1.146348	-0.140708
O21	O	0.801123	0.792640	0.091002
O22	O	0.554818	1.302614	0.207768
O23	O	0.538650	1.313583	-0.023947
O24	O	0.554814	0.959875	0.207764
O25	O	0.666325	1.322700	-0.017559
O26	O	0.682491	1.120130	0.214154
O27	O	0.682489	0.968992	0.214152
O28	O	0.673455	1.317863	0.084621
O29	O	0.885670	1.002401	-0.135671
O30	O	0.454104	1.103821	0.202727
O31	O	0.454106	1.295422	0.202729
O32	O	0.445068	1.301554	0.073194
O33	O	0.894706	0.804668	-0.006138
O34	O	0.894708	0.996269	-0.006136
O35	O	0.602708	1.098726	0.144151
O36	O	0.597389	1.215129	0.067897
O37	O	0.742387	1.116680	-0.000839
O38	O	0.747707	1.000277	0.075415
C39	C	0.468970	1.038764	0.023475
C40	C	0.400781	1.033895	0.020063
C41	C	0.317185	1.108224	0.071973
C42	C	0.253133	1.103600	0.068763
C43	C	0.272678	1.024651	0.013640
C44	C	0.356283	0.950315	-0.038272
C45	C	0.420333	0.954935	-0.035059
C46	C	0.086648	1.002611	-0.001707
C47	C	0.022589	0.997999	-0.004917
C48	C	-0.080557	1.151283	0.102119
C49	C	-0.016501	1.155900	0.105325
C50	C	0.067098	1.081561	0.053415
N51	N	0.207208	1.019925	0.010356
N52	N	0.132567	1.086283	0.056703
C53	C	0.669883	0.751597	0.033524
C54	C	0.669882	0.649266	0.033523
C55	C	0.594195	0.652577	0.069402
C56	C	0.594200	0.556422	0.069409
C57	C	0.745584	0.453649	-0.002348
C58	C	0.745579	0.549802	-0.002350
C59	C	0.518499	0.752040	0.105275
C60	C	0.442806	0.755355	0.141157
C61	C	0.442811	0.659200	0.141164
C62	C	0.518508	0.559730	0.105289
C63	C	0.870803	1.067458	0.043580
C64	C	0.938993	1.072328	0.046992
C65	C	0.655663	1.062761	-0.170316
C66	C	0.650836	1.066036	-0.239499
C67	C	0.669890	1.354626	0.033531
C68	C	0.669892	1.456957	0.033532
C69	C	0.724254	1.016187	-0.307881
C70	C	0.719713	1.019278	-0.372883
C71	C	0.641754	1.072213	-0.369502
C72	C	0.568330	1.122068	-0.301113
C73	C	0.572872	1.118983	-0.236112
C74	C	0.620055	1.086957	-0.560056
C75	C	0.615519	1.090036	-0.625064
C76	C	0.766903	0.987247	-0.696830
C77	C	0.771438	0.984161	-0.631824
C78	C	0.698014	1.034021	-0.563441
N79	N	0.637111	1.075371	-0.435944
N80	N	0.702658	1.030869	-0.497001
C81	C	0.684110	1.043462	0.237372
C82	C	0.688937	1.040187	0.306554
C83	C	0.468974	1.340279	0.023479
C84	C	0.400786	1.437741	0.020068
C85	C	0.483193	1.029115	0.227319
C86	C	0.419831	1.020970	0.293090
C87	C	0.483197	1.330629	0.227323
C88	C	0.419836	1.424816	0.293095
C89	C	0.856576	0.775594	-0.160267
C90	C	0.919937	0.681407	-0.226039
C91	C	0.870800	0.765944	0.043577
C92	C	0.938988	0.668482	0.046987
C93	C	0.856580	1.077108	-0.160264
C94	C	0.919942	1.085252	-0.226035
C95	C	0.365985	1.426518	-0.021346
C96	C	0.301923	1.518086	-0.024565
C97	C	0.272659	1.620875	0.013634
C98	C	0.307466	1.632096	0.055049
C99	C	0.371530	1.540530	0.058264
C100	C	0.392855	1.074138	0.363789
C101	C	0.333329	1.066481	0.425594
C102	C	0.300776	1.005663	0.416699
C103	C	0.327759	0.952490	0.345993
C104	C	0.387288	0.960140	0.284189
C105	C	0.387305	1.529818	0.284178
C106	C	0.327779	1.618327	0.345972
C107	C	0.300782	1.601831	0.416682
C108	C	0.333319	1.496818	0.425598
C109	C	0.392848	1.408312	0.363804
C110	C	0.952477	0.576405	-0.217122
C111	C	1.012022	0.487898	-0.278916
C112	C	1.039023	0.504394	-0.349625
C113	C	1.006481	0.609407	-0.358541
C114	C	0.946941	0.697912	-0.296748
C115	C	0.973794	0.679706	0.088395
C116	C	1.037873	0.588140	0.091597
C117	C	1.067140	0.485351	0.053396
C118	C	1.032330	0.474129	0.011983
C119	C	0.968257	0.565695	0.008777
C120	C	0.952476	1.146079	-0.217116
C121	C	1.012003	1.153753	-0.278909
C122	C	1.039000	1.100592	-0.349620
C123	C	1.006460	1.039763	-0.358537
C124	C	0.946929	1.032097	-0.296745
H125	H	-0.032425	1.220191	0.150210
Cl126	Cl	0.258176	1.503954	-0.076630
Cl127	Cl	0.299417	1.133340	0.514473
Cl128	Cl	0.924502	0.551565	-0.043277
H129	H	1.119313	0.410801	0.056013
H130	H	0.920447	0.982561	-0.304017
Cl131	Cl	0.415267	1.554657	0.110338
H132	H	0.930505	1.189370	-0.159545
Cl133	Cl	0.192116	1.735978	0.009587
H134	H	0.949971	0.763393	0.119508
H135	H	0.419353	1.123662	0.371046
H136	H	0.389811	1.342831	-0.052462
Cl137	Cl	1.040430	0.630127	-0.447439
H138	H	0.252309	1.673908	0.466992
H139	H	0.283629	1.715800	0.086149
H140	H	0.560269	1.127557	-0.504384
Cl141	Cl	0.292603	1.207484	0.141271
H142	H	0.252304	0.999443	0.467030
Cl143	Cl	1.081617	0.602271	0.143665
H144	H	1.056169	0.390426	-0.019118
H145	H	1.087504	0.432318	-0.399935
Cl146	Cl	0.148040	1.197040	0.134028
Cl147	Cl	1.052904	1.230220	-0.267682
H148	H	0.920447	0.783407	-0.304017
Cl149	Cl	1.040416	0.972927	-0.447436
H150	H	0.154709	0.942094	-0.043985
Cl151	Cl	0.517506	1.156588	-0.620809
Cl152	Cl	0.286826	0.876039	0.334823
H153	H	0.301292	1.703826	0.338700
H154	H	-0.148628	1.211805	0.144382
Cl155	Cl	0.421237	1.550585	0.195293
H156	H	0.038513	0.933709	-0.049809
Cl157	Cl	0.299370	1.476098	0.514496
Cl158	Cl	0.380855	0.851058	-0.107566
Cl159	Cl	1.113843	1.110237	-0.427295
Cl160	Cl	0.433733	1.276311	0.375027
H161	H	0.409244	0.916847	0.226625
H162	H	0.488402	0.894398	-0.077322
H163	H	0.518486	0.830340	0.105272
Cl164	Cl	0.822266	0.949636	-0.312140
Cl165	Cl	1.052916	0.355894	-0.267691
Cl166	Cl	0.347657	0.663368	0.186280
Cl167	Cl	0.347650	0.880396	0.186265
Cl168	Cl	0.518511	0.438850	0.105306
H169	H	0.807213	0.372655	-0.031557
H170	H	0.807210	0.547102	-0.031551
Cl171	Cl	0.918545	0.555638	-0.128237
H172	H	0.779498	0.978688	-0.428560
H173	H	0.834921	0.941060	-0.634586
H174	H	0.826680	0.946655	-0.752512
Cl175	Cl	0.480571	1.181666	-0.150145
Cl176	Cl	0.470323	1.188617	-0.296862
