data_functionalizedCrystal
_audit_creation_method	'MofGen! by Chris Wilmer'
_symmetry_space_group_name_H-M	'P1'
_symmetry_Int_Tables_number	1
_symmetry_cell_setting	triclinic
loop_
_symmetry_equiv_pos_as_xyz
  x,y,z
_cell_length_a	18.101398
_cell_length_b	29.839131
_cell_length_c	29.839125
_cell_angle_alpha	89.982291
_cell_angle_beta	89.982423
_cell_angle_gamma	90.036686
loop_
_atom_site_label
_atom_site_type_symbol
_atom_site_fract_x
_atom_site_fract_y
_atom_site_fract_z
Zn1	Zn	1.132019	-0.178973	-0.254072
Zn2	Zn	1.382019	0.071027	-0.004072
Zn3	Zn	1.632019	0.321027	0.245928
Zn4	Zn	1.882019	0.571027	0.495928
Zn5	Zn	1.131907	-0.254085	-0.178942
Zn6	Zn	1.381907	-0.004085	0.071058
Zn7	Zn	1.631907	0.245915	0.321058
Zn8	Zn	1.881907	0.495915	0.571058
Zn9	Zn	1.008192	-0.178964	-0.178948
Zn10	Zn	1.258192	0.071036	0.071052
Zn11	Zn	1.508192	0.321036	0.321052
Zn12	Zn	1.758192	0.571036	0.571052
Zn13	Zn	1.008106	-0.254071	-0.254036
Zn14	Zn	1.258106	-0.004071	-0.004036
Zn15	Zn	1.508106	0.245929	0.245964
Zn16	Zn	1.758106	0.495929	0.495964
O17	O	1.070056	-0.216523	-0.216500
O18	O	1.320056	0.033477	0.033500
O19	O	1.570056	0.283477	0.283500
O20	O	1.820056	0.533477	0.533500
O21	O	1.235637	-0.188947	-0.244119
O22	O	1.485637	0.061053	0.005881
O23	O	1.735637	0.311053	0.255881
O24	O	1.985637	0.561053	0.505881
O25	O	1.115485	-0.244122	-0.116076
O26	O	1.365485	0.005878	0.133924
O27	O	1.615485	0.255878	0.383924
O28	O	1.865485	0.505878	0.633924
O29	O	1.024701	-0.116098	-0.188930
O30	O	1.274701	0.133902	0.061070
O31	O	1.524701	0.383902	0.311070
O32	O	1.774701	0.633902	0.561070
O33	O	1.235554	-0.244131	-0.188921
O34	O	1.485554	0.005869	0.061079
O35	O	1.735554	0.255869	0.311079
O36	O	1.985554	0.505869	0.561079
O37	O	1.115676	-0.116105	-0.244124
O38	O	1.365676	0.133895	0.005876
O39	O	1.615676	0.383895	0.255876
O40	O	1.865676	0.633895	0.505876
O41	O	1.024592	-0.188931	-0.116080
O42	O	1.274592	0.061069	0.133920
O43	O	1.524592	0.311069	0.383920
O44	O	1.774592	0.561069	0.633920
O45	O	0.904548	-0.188917	-0.188896
O46	O	1.154548	0.061083	0.061104
O47	O	1.404548	0.311083	0.311104
O48	O	1.654548	0.561083	0.561104
O49	O	1.024554	-0.244107	-0.316908
O50	O	1.274554	0.005893	-0.066908
O51	O	1.524554	0.255893	0.183092
O52	O	1.774554	0.505893	0.433092
O53	O	0.904484	-0.244097	-0.244063
O54	O	1.154484	0.005903	0.005937
O55	O	1.404484	0.255903	0.255937
O56	O	1.654484	0.505903	0.505937
O57	O	1.115592	-0.188933	-0.316935
O58	O	1.365592	0.061067	-0.066935
O59	O	1.615592	0.311067	0.183065
O60	O	1.865592	0.561067	0.433065
O61	O	1.115401	-0.316950	-0.188886
O62	O	1.365401	-0.066950	0.061114
O63	O	1.615401	0.183050	0.311114
O64	O	1.865401	0.433050	0.561114
O65	O	1.024445	-0.316940	-0.244058
O66	O	1.274445	-0.066940	0.005942
O67	O	1.524445	0.183060	0.255942
O68	O	1.774445	0.433060	0.505942
C69	C	0.877645	-0.216505	-0.216476
C70	C	1.127645	0.033495	0.033524
C71	C	1.377645	0.283495	0.283524
C72	C	1.627645	0.533495	0.533524
C73	C	0.795331	-0.216508	-0.216477
C74	C	1.045331	0.033492	0.033523
C75	C	1.295331	0.283492	0.283523
C76	C	1.545331	0.533492	0.533523
C77	C	0.496240	-0.216536	-0.216515
C78	C	0.746240	0.033464	0.033485
C79	C	0.996240	0.283464	0.283485
C80	C	1.246240	0.533464	0.533485
C81	C	0.527581	-0.181644	-0.181974
C82	C	0.777581	0.068356	0.068026
C83	C	1.027581	0.318356	0.318026
C84	C	1.277581	0.568356	0.568026
C85	C	0.613199	-0.181738	-0.181827
C86	C	0.863199	0.068262	0.068173
C87	C	1.113199	0.318262	0.318173
C88	C	1.363199	0.568262	0.568173
C89	C	0.644623	-0.216522	-0.216496
C90	C	0.894623	0.033478	0.033504
C91	C	1.144623	0.283478	0.283504
C92	C	1.394623	0.533478	0.533504
C93	C	0.613493	-0.263843	-0.203557
C94	C	0.863493	-0.013843	0.046443
C95	C	1.113493	0.236157	0.296443
C96	C	1.363493	0.486157	0.546443
C97	C	0.527848	-0.263649	-0.203317
C98	C	0.777848	-0.013649	0.046683
C99	C	1.027848	0.236351	0.296683
C100	C	1.277848	0.486351	0.546683
C101	C	0.527849	-0.204518	-0.264075
C102	C	0.777849	0.045482	-0.014075
C103	C	1.027849	0.295482	0.235925
C104	C	1.277849	0.545482	0.485925
C105	C	0.613500	-0.203464	-0.263815
C106	C	0.863500	0.046536	-0.013815
C107	C	1.113500	0.296536	0.236185
C108	C	1.363500	0.546536	0.486185
C109	C	0.728482	-0.216516	-0.216486
C110	C	0.978482	0.033484	0.033514
C111	C	1.228482	0.283484	0.283514
C112	C	1.478482	0.533484	0.533514
C113	C	0.412381	-0.216544	-0.216523
C114	C	0.662381	0.033456	0.033477
C115	C	0.912381	0.283456	0.283477
C116	C	1.162381	0.533456	0.533477
C117	C	1.069922	-0.333246	-0.216477
C118	C	1.319922	-0.083246	0.033523
C119	C	1.569922	0.166754	0.283523
C120	C	1.819922	0.416754	0.533523
C121	C	1.069933	-0.383180	-0.216483
C122	C	1.319933	-0.133180	0.033517
C123	C	1.569933	0.116820	0.283517
C124	C	1.819933	0.366820	0.533517
C125	C	1.117503	-0.692816	-0.187814
C126	C	1.367503	-0.442816	0.062186
C127	C	1.617503	-0.192816	0.312186
C128	C	1.867503	0.057184	0.562186
C129	C	1.117594	-0.880489	-0.187831
C130	C	1.367594	-0.630489	0.062169
C131	C	1.617594	-0.380489	0.312169
C132	C	1.867594	-0.130489	0.562169
O133	O	1.157934	-0.904748	-0.163439
O134	O	1.407934	-0.654748	0.086561
O135	O	1.657934	-0.404748	0.336561
O136	O	1.907934	-0.154748	0.586561
N137	N	1.070209	-0.903965	-0.216533
N138	N	1.320209	-0.653965	0.033467
N139	N	1.570209	-0.403965	0.283467
N140	N	1.820209	-0.153965	0.533467
C141	C	1.022802	-0.880520	-0.245235
C142	C	1.272802	-0.630520	0.004765
C143	C	1.522802	-0.380520	0.254765
C144	C	1.772802	-0.130520	0.504765
O145	O	0.982506	-0.904793	-0.269652
O146	O	1.232506	-0.654793	-0.019652
O147	O	1.482506	-0.404793	0.230348
O148	O	1.732506	-0.154793	0.480348
C149	C	1.022715	-0.692848	-0.245220
C150	C	1.272715	-0.442848	0.004780
C151	C	1.522715	-0.192848	0.254780
C152	C	1.772715	0.057152	0.504780
C153	C	1.070097	-0.669374	-0.216513
C154	C	1.320097	-0.419374	0.033487
C155	C	1.570097	-0.169374	0.283487
C156	C	1.820097	0.080626	0.533487
C157	C	1.164882	-0.669343	-0.159109
C158	C	1.414882	-0.419343	0.090891
C159	C	1.664882	-0.169343	0.340891
C160	C	1.914882	0.080657	0.590891
C161	C	1.164856	-0.622428	-0.159103
C162	C	1.414856	-0.372428	0.090897
C163	C	1.664856	-0.122428	0.340897
C164	C	1.914856	0.127572	0.590897
C165	C	1.117450	-0.598985	-0.187802
C166	C	1.367450	-0.348985	0.062198
C167	C	1.617450	-0.098985	0.312198
C168	C	1.867450	0.151015	0.562198
C169	C	1.070071	-0.622459	-0.216507
C170	C	1.320071	-0.372459	0.033493
C171	C	1.570071	-0.122459	0.283493
C172	C	1.820071	0.127541	0.533493
C173	C	0.975312	-0.669403	-0.273924
C174	C	1.225312	-0.419403	-0.023924
C175	C	1.475312	-0.169403	0.226076
C176	C	1.725312	0.080597	0.476076
C177	C	0.975295	-0.622482	-0.273918
C178	C	1.225295	-0.372482	-0.023918
C179	C	1.475295	-0.122482	0.226082
C180	C	1.725295	0.127518	0.476082
C181	C	1.022678	-0.599009	-0.245211
C182	C	1.272678	-0.349009	0.004789
C183	C	1.522678	-0.099009	0.254789
C184	C	1.772678	0.150991	0.504789
C185	C	1.022639	-0.552101	-0.245200
C186	C	1.272639	-0.302101	0.004800
C187	C	1.522639	-0.052101	0.254800
C188	C	1.772639	0.197899	0.504800
N189	N	1.070024	-0.528626	-0.216498
N190	N	1.320024	-0.278626	0.033502
N191	N	1.570024	-0.028626	0.283502
N192	N	1.820024	0.221374	0.533502
C193	C	1.117430	-0.552068	-0.187799
C194	C	1.367430	-0.302068	0.062201
C195	C	1.617430	-0.052068	0.312201
C196	C	1.867430	0.197932	0.562201
C197	C	1.022850	-0.979050	-0.245241
C198	C	1.272850	-0.729050	0.004759
C199	C	1.522850	-0.479050	0.254759
C200	C	1.772850	-0.229050	0.504759
C201	C	1.022871	-1.025968	-0.245244
C202	C	1.272871	-0.775968	0.004756
C203	C	1.522871	-0.525968	0.254756
C204	C	1.772871	-0.275968	0.504756
C205	C	1.117664	-1.025935	-0.187841
C206	C	1.367664	-0.775935	0.062159
C207	C	1.617664	-0.525935	0.312159
C208	C	1.867664	-0.275935	0.562159
C209	C	1.117639	-0.979016	-0.187835
C210	C	1.367639	-0.729016	0.062165
C211	C	1.617639	-0.479016	0.312165
C212	C	1.867639	-0.229016	0.562165
C213	C	1.070235	-0.955575	-0.216539
C214	C	1.320235	-0.705575	0.033461
C215	C	1.570235	-0.455575	0.283461
C216	C	1.820235	-0.205575	0.533461
C217	C	1.117371	-0.453542	-0.187789
C218	C	1.367371	-0.203542	0.062211
C219	C	1.617371	0.046458	0.312211
C220	C	1.867371	0.296458	0.562211
C221	C	1.117338	-0.406622	-0.187784
C222	C	1.367338	-0.156622	0.062216
C223	C	1.617338	0.093378	0.312216
C224	C	1.867338	0.343378	0.562216
C225	C	1.022548	-0.406660	-0.245189
C226	C	1.272548	-0.156660	0.004811
C227	C	1.522548	0.093340	0.254811
C228	C	1.772548	0.343340	0.504811
C229	C	1.022577	-0.453575	-0.245192
C230	C	1.272577	-0.203575	0.004808
C231	C	1.522577	0.046425	0.254808
C232	C	1.772577	0.296425	0.504808
C233	C	1.069995	-0.477015	-0.216490
C234	C	1.319995	-0.227015	0.033510
C235	C	1.569995	0.022985	0.283510
C236	C	1.819995	0.272985	0.533510
O237	O	0.982327	-0.527813	-0.269583
O238	O	1.232327	-0.277813	-0.019583
O239	O	1.482327	-0.027813	0.230417
O240	O	1.732327	0.222187	0.480417
O241	O	1.157731	-0.527786	-0.163393
O242	O	1.407731	-0.277786	0.086607
O243	O	1.657731	-0.027786	0.336607
O244	O	1.907731	0.222214	0.586607
C245	C	1.117529	-0.739732	-0.187820
C246	C	1.367529	-0.489732	0.062180
C247	C	1.617529	-0.239732	0.312180
C248	C	1.867529	0.010268	0.562180
C249	C	1.070150	-0.763205	-0.216524
C250	C	1.320150	-0.513205	0.033476
C251	C	1.570150	-0.263205	0.283476
C252	C	1.820150	-0.013205	0.533476
C253	C	1.022744	-0.739763	-0.245223
C254	C	1.272744	-0.489763	0.004777
C255	C	1.522744	-0.239763	0.254777
C256	C	1.772744	0.010237	0.504777
C257	C	1.070170	-0.810123	-0.216528
C258	C	1.320170	-0.560123	0.033472
C259	C	1.570170	-0.310123	0.283472
C260	C	1.820170	-0.060123	0.533472
C261	C	1.117576	-0.833565	-0.187829
C262	C	1.367576	-0.583565	0.062171
C263	C	1.617576	-0.333565	0.312171
C264	C	1.867576	-0.083565	0.562171
C265	C	1.164960	-0.810089	-0.159127
C266	C	1.414960	-0.560089	0.090873
C267	C	1.664960	-0.310089	0.340873
C268	C	1.914960	-0.060089	0.590873
C269	C	1.164934	-0.763174	-0.159121
C270	C	1.414934	-0.513174	0.090879
C271	C	1.664934	-0.263174	0.340879
C272	C	1.914934	-0.013174	0.590879
C273	C	0.975359	-0.763239	-0.273925
C274	C	1.225359	-0.513239	-0.023925
C275	C	1.475359	-0.263239	0.226075
C276	C	1.725359	-0.013239	0.476075
C277	C	0.975389	-0.810154	-0.273928
C278	C	1.225389	-0.560154	-0.023928
C279	C	1.475389	-0.310154	0.226072
C280	C	1.725389	-0.060154	0.476072
C281	C	1.022794	-0.833596	-0.245230
C282	C	1.272794	-0.583596	0.004770
C283	C	1.522794	-0.333596	0.254770
C284	C	1.772794	-0.083596	0.504770
C285	C	1.263218	-0.216542	-0.216523
C286	C	1.513218	0.033458	0.033477
C287	C	1.763218	0.283458	0.283477
C288	C	2.013218	0.533458	0.533477
C289	C	1.345532	-0.216550	-0.216534
C290	C	1.595532	0.033450	0.033466
C291	C	1.845532	0.283450	0.283466
C292	C	2.095532	0.533450	0.533466
C293	C	1.070076	-0.216519	-0.333678
C294	C	1.320076	0.033481	-0.083678
C295	C	1.570076	0.283481	0.166322
C296	C	1.820076	0.533481	0.416322
C297	C	1.070084	-0.216517	-0.383612
C298	C	1.320084	0.033483	-0.133612
C299	C	1.570084	0.283483	0.116388
C300	C	1.820084	0.533483	0.366388
C301	C	1.070210	-0.099345	-0.216532
C302	C	1.320210	0.150655	0.033468
C303	C	1.570210	0.400655	0.283468
C304	C	1.820210	0.650655	0.533468
C305	C	1.070276	-0.049410	-0.216546
C306	C	1.320276	0.200590	0.033454
C307	C	1.570276	0.450590	0.283454
C308	C	1.820276	0.700590	0.533454
C309	C	1.117538	-0.187713	-0.693273
C310	C	1.367538	0.062287	-0.443273
C311	C	1.617538	0.312287	-0.193273
C312	C	1.867538	0.562287	0.056727
C313	C	1.117574	-0.187675	-0.880946
C314	C	1.367574	0.062325	-0.630946
C315	C	1.617574	0.312325	-0.380946
C316	C	1.867574	0.562325	-0.130946
O317	O	1.157866	-0.163227	-0.905225
O318	O	1.407866	0.086773	-0.655225
O319	O	1.657866	0.336773	-0.405225
O320	O	1.907866	0.586773	-0.155225
N321	N	1.070183	-0.216397	-0.904398
N322	N	1.320183	0.033603	-0.654398
N323	N	1.570183	0.283603	-0.404398
N324	N	1.820183	0.533603	-0.154398
C325	C	1.022775	-0.245129	-0.880929
C326	C	1.272775	0.004871	-0.630929
C327	C	1.522775	0.254871	-0.380929
C328	C	1.772775	0.504871	-0.130929
O329	O	0.982460	-0.269555	-0.905182
O330	O	1.232460	-0.019555	-0.655182
O331	O	1.482460	0.230445	-0.405182
O332	O	1.732460	0.480445	-0.155182
C333	C	1.022735	-0.245165	-0.693256
C334	C	1.272735	0.004835	-0.443256
C335	C	1.522735	0.254835	-0.193256
C336	C	1.772735	0.504835	0.056744
C337	C	1.070135	-0.216444	-0.669807
C338	C	1.320135	0.033556	-0.419807
C339	C	1.570135	0.283556	-0.169807
C340	C	1.820135	0.533556	0.080193
C341	C	1.164934	-0.158994	-0.669823
C342	C	1.414934	0.091006	-0.419823
C343	C	1.664934	0.341006	-0.169823
C344	C	1.914934	0.591006	0.080177
C345	C	1.164927	-0.159006	-0.622908
C346	C	1.414927	0.090994	-0.372908
C347	C	1.664927	0.340994	-0.122908
C348	C	1.914927	0.590994	0.127092
C349	C	1.117524	-0.187736	-0.599442
C350	C	1.367524	0.062264	-0.349442
C351	C	1.617524	0.312264	-0.099442
C352	C	1.867524	0.562264	0.150558
C353	C	1.070128	-0.216455	-0.622891
C354	C	1.320128	0.033545	-0.372891
C355	C	1.570128	0.283545	-0.122891
C356	C	1.820128	0.533545	0.127109
C357	C	0.975324	-0.273894	-0.669788
C358	C	1.225324	-0.023894	-0.419788
C359	C	1.475324	0.226106	-0.169788
C360	C	1.725324	0.476106	0.080212
C361	C	0.975317	-0.273899	-0.622867
C362	C	1.225317	-0.023899	-0.372867
C363	C	1.475317	0.226101	-0.122867
C364	C	1.725317	0.476101	0.127133
C365	C	1.022717	-0.245178	-0.599417
C366	C	1.272717	0.004822	-0.349417
C367	C	1.522717	0.254822	-0.099417
C368	C	1.772717	0.504822	0.150583
C369	C	1.022719	-0.245197	-0.552510
C370	C	1.272719	0.004803	-0.302510
C371	C	1.522719	0.254803	-0.052510
C372	C	1.772719	0.504803	0.197490
N373	N	1.070111	-0.216475	-0.529058
N374	N	1.320111	0.033525	-0.279058
N375	N	1.570111	0.283525	-0.029058
N376	N	1.820111	0.533525	0.220942
C377	C	1.117513	-0.187745	-0.552524
C378	C	1.367513	0.062255	-0.302524
C379	C	1.617513	0.312255	-0.052524
C380	C	1.867513	0.562255	0.197476
C381	C	1.022800	-0.245109	-0.979459
C382	C	1.272800	0.004891	-0.729459
C383	C	1.522800	0.254891	-0.479459
C384	C	1.772800	0.504891	-0.229459
C385	C	1.022811	-0.245100	-1.026377
C386	C	1.272811	0.004900	-0.776377
C387	C	1.522811	0.254900	-0.526377
C388	C	1.772811	0.504900	-0.276377
C389	C	1.117610	-0.187646	-1.026391
C390	C	1.367610	0.062354	-0.776391
C391	C	1.617610	0.312354	-0.526391
C392	C	1.867610	0.562354	-0.276391
C393	C	1.117602	-0.187657	-0.979472
C394	C	1.367602	0.062343	-0.729472
C395	C	1.617602	0.312343	-0.479472
C396	C	1.867602	0.562343	-0.229472
C397	C	1.070192	-0.216386	-0.956007
C398	C	1.320192	0.033614	-0.706007
C399	C	1.570192	0.283614	-0.456007
C400	C	1.820192	0.533614	-0.206007
C401	C	1.117496	-0.187771	-0.453998
C402	C	1.367496	0.062229	-0.203998
C403	C	1.617496	0.312229	0.046002
C404	C	1.867496	0.562229	0.296002
C405	C	1.117487	-0.187787	-0.407078
C406	C	1.367487	0.062213	-0.157078
C407	C	1.617487	0.312213	0.092922
C408	C	1.867487	0.562213	0.342922
C409	C	1.022686	-0.245240	-0.407068
C410	C	1.272686	0.004760	-0.157068
C411	C	1.522686	0.254760	0.092932
C412	C	1.772686	0.504760	0.342932
C413	C	1.022697	-0.245226	-0.453984
C414	C	1.272697	0.004774	-0.203984
C415	C	1.522697	0.254774	0.046016
C416	C	1.772697	0.504774	0.296016
C417	C	1.070105	-0.216488	-0.477448
C418	C	1.320105	0.033512	-0.227448
C419	C	1.570105	0.283512	0.022552
C420	C	1.820105	0.533512	0.272552
O421	O	0.982443	-0.269629	-0.528202
O422	O	1.232443	-0.019629	-0.278202
O423	O	1.482443	0.230371	-0.028202
O424	O	1.732443	0.480371	0.221798
O425	O	1.157810	-0.163315	-0.528262
O426	O	1.407810	0.086685	-0.278262
O427	O	1.657810	0.336685	-0.028262
O428	O	1.907810	0.586685	0.221738
C429	C	1.117545	-0.187702	-0.740188
C430	C	1.367545	0.062298	-0.490188
C431	C	1.617545	0.312298	-0.240188
C432	C	1.867545	0.562298	0.009812
C433	C	1.070149	-0.216420	-0.763638
C434	C	1.320149	0.033580	-0.513638
C435	C	1.570149	0.283580	-0.263638
C436	C	1.820149	0.533580	-0.013638
C437	C	1.022746	-0.245151	-0.740172
C438	C	1.272746	0.004849	-0.490172
C439	C	1.522746	0.254849	-0.240172
C440	C	1.772746	0.504849	0.009828
C441	C	1.070159	-0.216412	-0.810556
C442	C	1.320159	0.033588	-0.560556
C443	C	1.570159	0.283588	-0.310556
C444	C	1.820159	0.533588	-0.060556
C445	C	1.117562	-0.187682	-0.834021
C446	C	1.367562	0.062318	-0.584021
C447	C	1.617562	0.312318	-0.334021
C448	C	1.867562	0.562318	-0.084021
C449	C	1.164954	-0.158959	-0.810570
C450	C	1.414954	0.091041	-0.560570
C451	C	1.664954	0.341041	-0.310570
C452	C	1.914954	0.591041	-0.060570
C453	C	1.164947	-0.158971	-0.763654
C454	C	1.414947	0.091029	-0.513654
C455	C	1.664947	0.341029	-0.263654
C456	C	1.914947	0.591029	-0.013654
C457	C	0.975354	-0.273873	-0.763624
C458	C	1.225354	-0.023873	-0.513624
C459	C	1.475354	0.226127	-0.263624
C460	C	1.725354	0.476127	-0.013624
C461	C	0.975365	-0.273860	-0.810539
C462	C	1.225365	-0.023860	-0.560539
C463	C	1.475365	0.226140	-0.310539
C464	C	1.725365	0.476140	-0.060539
C465	C	1.022768	-0.245129	-0.834005
C466	C	1.272768	0.004871	-0.584005
C467	C	1.522768	0.254871	-0.334005
C468	C	1.772768	0.504871	-0.084005
C469	C	1.070078	-0.216495	-0.099777
C470	C	1.320078	0.033505	0.150223
C471	C	1.570078	0.283505	0.400223
C472	C	1.820078	0.533505	0.650223
C473	C	1.070213	-0.216370	-0.049843
C474	C	1.320213	0.033630	0.200157
C475	C	1.570213	0.283630	0.450157
C476	C	1.820213	0.533630	0.700157
H477	H	0.633853	-0.168641	-0.273571
H478	H	0.883853	0.081359	-0.023571
H479	H	1.133853	0.331359	0.226429
H480	H	1.383853	0.581359	0.476429
Br481	Br	0.958254	-0.485433	-0.284141
Br482	Br	1.208254	-0.235433	-0.034141
Br483	Br	1.458254	0.014567	0.215859
Br484	Br	1.708254	0.264567	0.465859
H485	H	0.984193	-0.268507	-0.960358
H486	H	1.234193	-0.018507	-0.710358
H487	H	1.484193	0.231493	-0.460358
H488	H	1.734193	0.481493	-0.210358
H489	H	0.984094	-0.268633	-0.387954
H490	H	1.234094	-0.018633	-0.137954
H491	H	1.484094	0.231367	0.112046
H492	H	1.734094	0.481367	0.362046
Br493	Br	0.958373	-0.284208	-0.485809
Br494	Br	1.208373	-0.034208	-0.235809
Br495	Br	1.458373	0.215792	0.014191
Br496	Br	1.708373	0.465792	0.264191
Br497	Br	1.229289	-0.119971	-0.842426
Br498	Br	1.479289	0.130029	-0.592426
Br499	Br	1.729289	0.380029	-0.342426
Br500	Br	1.979289	0.630029	-0.092426
Br501	Br	1.181823	-0.148808	-0.375257
Br502	Br	1.431823	0.101192	-0.125257
Br503	Br	1.681823	0.351192	0.124743
Br504	Br	1.931823	0.601192	0.374743
H505	H	0.506036	-0.189499	-0.146937
H506	H	0.756036	0.060501	0.103063
H507	H	1.006036	0.310501	0.353063
H508	H	1.256036	0.560501	0.603063
Br509	Br	1.229175	-0.590578	-0.120148
Br510	Br	1.479175	-0.340578	0.129852
Br511	Br	1.729175	-0.090578	0.379852
Br512	Br	1.979175	0.159422	0.629852
Br513	Br	0.910995	-0.312877	-0.701600
Br514	Br	1.160995	-0.062877	-0.451600
Br515	Br	1.410995	0.187123	-0.201600
Br516	Br	1.660995	0.437123	0.048400
Br517	Br	0.910968	-0.312890	-0.591024
Br518	Br	1.160968	-0.062890	-0.341024
Br519	Br	1.410968	0.187110	-0.091024
Br520	Br	1.660968	0.437110	0.158976
Br521	Br	0.958552	-1.057819	-0.284199
Br522	Br	1.208552	-0.807819	-0.034199
Br523	Br	1.458552	-0.557819	0.215801
Br524	Br	1.708552	-0.307819	0.465801
Br525	Br	0.958493	-0.284089	-1.058195
Br526	Br	1.208493	-0.034089	-0.808195
Br527	Br	1.458493	0.215911	-0.558195
Br528	Br	1.708493	0.465911	-0.308195
Br529	Br	1.229255	-0.120023	-0.591091
Br530	Br	1.479255	0.129977	-0.341091
Br531	Br	1.729255	0.379977	-0.091091
Br532	Br	1.979255	0.629977	0.158909
H533	H	1.156097	-0.164369	-0.473097
H534	H	1.406097	0.085631	-0.223097
H535	H	1.656097	0.335631	0.026903
H536	H	1.906097	0.585631	0.276903
H537	H	1.155984	-0.472621	-0.164418
H538	H	1.405984	-0.222621	0.085582
H539	H	1.655984	0.027379	0.335582
H540	H	1.905984	0.277379	0.585582
Br541	Br	0.647304	-0.194975	-0.123087
Br542	Br	0.897304	0.055025	0.126913
Br543	Br	1.147304	0.305025	0.376913
Br544	Br	1.397304	0.555025	0.626913
H545	H	0.936757	-0.744156	-0.297296
H546	H	1.186757	-0.494156	-0.047296
H547	H	1.436757	-0.244156	0.202704
H548	H	1.686757	0.005844	0.452704
H549	H	0.507019	-0.146446	-0.189995
H550	H	0.757019	0.103554	0.060005
H551	H	1.007019	0.353554	0.310005
H552	H	1.257019	0.603554	0.560005
Br553	Br	0.494068	-0.246875	-0.306970
Br554	Br	0.744068	0.003125	-0.056970
Br555	Br	0.994068	0.253125	0.193030
Br556	Br	1.244068	0.503125	0.443030
H557	H	1.156207	-0.164252	-1.045505
H558	H	1.406207	0.085748	-0.795505
H559	H	1.656207	0.335748	-0.545505
H560	H	1.906207	0.585748	-0.295505
Br561	Br	1.229244	-0.731325	-0.120160
Br562	Br	1.479244	-0.481325	0.129840
Br563	Br	1.729244	-0.231325	0.379840
Br564	Br	1.979244	0.018675	0.629840
H565	H	1.203545	-0.135583	-0.744566
H566	H	1.453545	0.114417	-0.494566
H567	H	1.703545	0.364417	-0.244566
H568	H	1.953545	0.614417	0.005434
H569	H	1.203558	-0.829184	-0.135758
H570	H	1.453558	-0.579184	0.114242
H571	H	1.703558	-0.329184	0.364242
H572	H	1.953558	-0.079184	0.614242
Br573	Br	0.494495	-0.280638	-0.145367
Br574	Br	0.744495	-0.030638	0.104633
Br575	Br	0.994495	0.219362	0.354633
Br576	Br	1.244495	0.469362	0.604633
H577	H	0.507113	-0.290526	-0.227378
H578	H	0.757113	-0.040526	0.022622
H579	H	1.007113	0.209474	0.272622
H580	H	1.257113	0.459474	0.522622
Br581	Br	1.181945	-0.947164	-0.148874
Br582	Br	1.431945	-0.697164	0.101126
Br583	Br	1.681945	-0.447164	0.351126
Br584	Br	1.931945	-0.197164	0.601126
Br585	Br	0.649150	-0.242737	-0.309010
Br586	Br	0.899150	0.007263	-0.059010
Br587	Br	1.149150	0.257263	0.190990
Br588	Br	1.399150	0.507263	0.440990
H589	H	1.155922	-0.387512	-0.164406
H590	H	1.405922	-0.137512	0.085594
H591	H	1.655922	0.112488	0.335594
H592	H	1.905922	0.362488	0.585594
H593	H	1.203489	-0.688425	-0.135739
H594	H	1.453489	-0.438425	0.114261
H595	H	1.703489	-0.188425	0.364261
H596	H	1.953489	0.061575	0.614261
H597	H	1.156264	-1.045029	-0.164473
H598	H	1.406264	-0.795029	0.085527
H599	H	1.656264	-0.545029	0.335527
H600	H	1.906264	-0.295029	0.585527
H601	H	0.984246	-0.959967	-0.268615
H602	H	1.234246	-0.709967	-0.018615
H603	H	1.484246	-0.459967	0.231385
H604	H	1.734246	-0.209967	0.481385
H605	H	0.936724	-0.688507	-0.297298
H606	H	1.186724	-0.438507	-0.047298
H607	H	1.436724	-0.188507	0.202702
H608	H	1.686724	0.061493	0.452702
Br609	Br	0.910960	-0.590671	-0.312877
Br610	Br	1.160960	-0.340671	-0.062877
Br611	Br	1.410960	-0.090671	0.187123
Br612	Br	1.660960	0.159329	0.437123
Br613	Br	0.911036	-0.312846	-0.842358
Br614	Br	1.161036	-0.062846	-0.592358
Br615	Br	1.411036	0.187154	-0.342358
Br616	Br	1.661036	0.437154	-0.092358
H617	H	0.983948	-0.387566	-0.268554
H618	H	1.233948	-0.137566	-0.018554
H619	H	1.483948	0.112434	0.231446
H620	H	1.733948	0.362434	0.481446
Br621	Br	0.649188	-0.281130	-0.146232
Br622	Br	0.899188	-0.031130	0.103768
Br623	Br	1.149188	0.218870	0.353768
Br624	Br	1.399188	0.468870	0.603768
H625	H	0.936753	-0.297270	-0.744522
H626	H	1.186753	-0.047270	-0.494522
H627	H	1.436753	0.202730	-0.244522
H628	H	1.686753	0.452730	0.005478
H629	H	1.203535	-0.135596	-0.688924
H630	H	1.453535	0.114404	-0.438924
H631	H	1.703535	0.364404	-0.188924
H632	H	1.953535	0.614404	0.061076
Br633	Br	0.648287	-0.123250	-0.195344
Br634	Br	0.898287	0.126750	0.054656
Br635	Br	1.148287	0.376750	0.304656
Br636	Br	1.398287	0.626750	0.554656
H637	H	0.936798	-0.829262	-0.297305
H638	H	1.186798	-0.579262	-0.047305
H639	H	1.436798	-0.329262	0.202695
H640	H	1.686798	-0.079262	0.452695
H641	H	0.633845	-0.290536	-0.227927
H642	H	0.883845	-0.040536	0.022073
H643	H	1.133845	0.209464	0.272073
H644	H	1.383845	0.459464	0.522073
Br645	Br	0.491911	-0.148005	-0.283681
Br646	Br	0.741911	0.101995	-0.033681
Br647	Br	0.991911	0.351995	0.216319
Br648	Br	1.241911	0.601995	0.466319
H649	H	1.156199	-0.164269	-0.960383
H650	H	1.406199	0.085731	-0.710383
H651	H	1.656199	0.335731	-0.460383
H652	H	1.906199	0.585731	-0.210383
