data_functionalizedCrystal
_audit_creation_method	'MofGen! by Chris Wilmer'
_symmetry_space_group_name_H-M	'P1'
_symmetry_Int_Tables_number	1
_symmetry_cell_setting	triclinic
loop_
_symmetry_equiv_pos_as_xyz
  x,y,z
_cell_length_a	14.809436
_cell_length_b	19.851628
_cell_length_c	19.851628
_cell_angle_alpha	90.001870
_cell_angle_beta	127.162109
_cell_angle_gamma	67.423559
loop_
_atom_site_label
_atom_site_type_symbol
_atom_site_fract_x
_atom_site_fract_y
_atom_site_fract_z
Zr1	Zr	1.000521	0.731087	0.170472
O2	O	1.191274	0.639176	0.293715
O3	O	0.809798	0.748410	0.121834
O4	O	1.000541	0.764065	0.278039
O5	O	1.000505	0.623518	0.026643
O6	O	1.000523	0.874925	0.278024
O7	O	1.000531	0.623521	0.137510
O8	O	0.659319	0.846921	-0.001399
O9	O	1.341709	0.651522	0.306066
O10	O	0.888221	0.851644	0.114197
O11	O	0.888215	0.768908	0.031469
O12	O	1.112791	0.787340	0.215381
O13	O	1.112785	0.704603	0.132653
Zr14	Zr	1.000453	0.907892	-0.006372
Zr15	Zr	1.000493	0.907897	0.170448
Zr16	Zr	1.000481	0.731082	-0.006348
Zr17	Zr	1.240449	0.750777	0.190170
Zr18	Zr	0.760525	0.888201	-0.026070
O19	O	1.191176	0.890569	0.042267
O20	O	1.191234	0.890576	0.293681
O21	O	1.191216	0.639169	0.042300
O22	O	0.809700	0.999803	-0.129615
O23	O	0.809758	0.999810	0.121800
O24	O	0.809740	0.748402	-0.129581
O25	O	1.000468	1.015461	0.137457
O26	O	1.000433	0.874914	-0.113939
O27	O	1.000451	0.764053	-0.113924
O28	O	1.000443	1.015458	0.026590
O29	O	1.341687	0.792062	0.306047
O30	O	0.659287	0.846917	-0.141947
O31	O	0.659264	0.987457	-0.141966
O32	O	0.659297	0.987461	-0.001418
O33	O	1.341677	0.651518	0.165518
O34	O	1.341655	0.792058	0.165499
O35	O	0.888183	0.851639	-0.051281
O36	O	0.888189	0.934375	0.031447
O37	O	1.112758	0.870071	0.132631
O38	O	1.112753	0.787335	0.049904
C39	C	0.700374	0.794860	0.057411
C40	C	0.598518	0.786501	0.049049
C41	C	0.447859	0.815167	0.077737
C42	C	0.553117	0.823817	0.086368
C43	C	1.000522	0.598328	0.082080
C44	C	1.000534	0.523268	0.082090
C45	C	1.122950	0.306859	0.137230
C46	C	1.061756	0.279476	0.164897
C47	C	1.000501	0.385858	0.082064
C48	C	1.061702	0.279501	0.054412
C49	C	1.000477	0.253124	0.082039
C50	C	0.939306	0.359464	0.109776
C51	C	0.939270	0.359488	-0.000750
C52	C	0.877987	0.332151	0.026890
C53	C	1.000518	0.462322	0.082080
C54	C	1.000451	0.176665	0.082024
C55	C	1.300600	0.844119	0.106689
C56	C	1.402456	0.852478	0.115052
C57	C	1.000538	0.819496	0.303224
C58	C	1.000555	0.819498	0.378289
C59	C	1.000452	1.040651	0.082020
C60	C	1.000440	1.115711	0.082010
C61	C	1.122983	0.784421	0.614807
C62	C	1.061771	0.857187	0.632137
C63	C	1.000531	0.819491	0.515697
C64	C	1.061760	0.746730	0.632113
C65	C	1.000517	0.819479	0.648432
C66	C	0.939318	0.892303	0.532038
C67	C	0.939325	0.781791	0.532018
C68	C	0.878023	0.854596	0.549288
C69	C	1.000543	0.819498	0.439234
C70	C	1.000496	0.819480	0.724889
C71	C	1.000454	0.819481	0.860884
C72	C	1.000489	0.819472	0.785843
C73	C	0.700339	1.016022	0.057381
C74	C	0.598471	1.082723	0.049009
C75	C	0.700323	0.794854	-0.163764
C76	C	0.598450	0.786492	-0.247190
C77	C	0.700288	1.016015	-0.163793
C78	C	0.598403	1.082714	-0.247230
C79	C	1.300686	0.622964	0.327893
C80	C	1.402571	0.556265	0.411330
C81	C	1.300635	0.622957	0.106719
C82	C	1.402503	0.556256	0.115091
C83	C	1.300651	0.844125	0.327864
C84	C	1.402523	0.852486	0.411291
C85	C	0.550650	1.070862	0.088279
C86	C	0.454948	1.133529	0.080430
C87	C	0.407062	1.208057	0.033305
C88	C	0.454893	1.219917	-0.005966
C89	C	0.550600	1.157251	0.001889
C90	C	0.550593	0.825751	-0.329571
C91	C	0.454886	0.817893	-0.407965
C92	C	0.407032	0.770780	-0.403977
C93	C	0.454898	0.731517	-0.321588
C94	C	0.550610	0.739371	-0.243195
C95	C	0.550560	1.157232	-0.243230
C96	C	0.454842	1.219911	-0.321620
C97	C	0.406962	1.208070	-0.404010
C98	C	0.454814	1.133545	-0.408008
C99	C	0.550537	1.070868	-0.329618
C100	C	1.450425	0.481748	0.407331
C101	C	1.546173	0.419072	0.485724
C102	C	1.594058	0.430913	0.568114
C103	C	1.546200	0.505438	0.572111
C104	C	1.450460	0.568113	0.493720
C105	C	1.450334	0.568118	0.075829
C106	C	1.546063	0.505453	0.083700
C107	C	1.593952	0.430926	0.130828
C108	C	1.546116	0.419065	0.170095
C109	C	1.450396	0.481730	0.162229
C110	C	1.450348	0.899605	0.407274
C111	C	1.546055	0.907476	0.485655
C112	C	1.593944	0.868224	0.568051
C113	C	1.546110	0.821103	0.572065
C114	C	1.450398	0.813237	0.493685
H115	H	0.592161	0.862170	0.124704
C116	C	1.575482	0.478684	-0.021607
C117	C	1.598613	0.518501	0.040520
H118	H	1.607927	0.486738	-0.048262
H119	H	1.485126	0.496975	-0.066290
H120	H	1.617725	0.425331	0.007603
H121	H	1.556361	0.571855	0.011309
H122	H	1.688985	0.500214	0.085210
C123	C	0.496311	0.687983	0.065586
C124	C	0.395107	0.763444	0.025901
H125	H	0.463731	0.656067	0.033555
H126	H	0.533669	0.669685	0.125463
H127	H	0.560159	0.687021	0.064639
H128	H	0.331263	0.764407	0.026853
H129	H	0.357729	0.781747	-0.033992
C130	C	0.308157	1.354347	-0.403408
C131	C	0.402270	1.301825	-0.317212
H132	H	0.275718	1.404916	-0.400682
H133	H	0.239432	1.342542	-0.438357
H134	H	0.345505	1.351211	-0.429637
H135	H	0.364920	1.304957	-0.290985
H136	H	0.471007	1.313633	-0.282250
H137	H	1.411455	0.472060	0.194199
H138	H	1.113545	0.685201	0.675172
H139	H	1.585200	0.515070	0.639202
H140	H	1.671893	0.379906	0.137226
C141	C	1.129827	0.162804	0.258246
C142	C	1.131616	0.232820	0.259422
H143	H	1.172952	0.134006	0.316602
H144	H	1.172481	0.134554	0.238245
H145	H	1.042831	0.172371	0.219101
H146	H	1.218613	0.223253	0.298562
H147	H	1.088965	0.261076	0.279434
C148	C	1.499183	0.667421	0.549663
C149	C	1.397870	0.650017	0.498138
H150	H	1.466723	0.717982	0.552402
H151	H	1.536475	0.664320	0.523406
H152	H	1.563051	0.631769	0.608129
H153	H	1.334005	0.685665	0.439670
H154	H	1.360558	0.653124	0.524393
H155	H	0.589523	1.166919	-0.030096
H156	H	1.113519	0.889069	0.675198
C157	C	0.490714	0.761613	-0.090997
C158	C	0.545837	0.734716	-0.002698
H159	H	0.458192	0.729641	-0.122938
H160	H	0.554531	0.760639	-0.091978
H161	H	0.422017	0.812799	-0.117961
H162	H	0.614540	0.683532	0.024269
H163	H	0.482014	0.735682	-0.001713
H164	H	1.584991	0.945845	0.482370
C165	C	1.261307	0.744298	0.580006
C166	C	1.262743	0.744474	0.651182
H167	H	1.347587	0.719636	0.602462
H168	H	1.217381	0.795719	0.544186
H169	H	1.217996	0.717406	0.545108
H170	H	1.306046	0.771371	0.686077
H171	H	1.306688	0.693044	0.687017
H172	H	0.415890	1.280605	-0.044335
C173	C	1.692861	0.284650	0.220486
C174	C	1.598755	0.337139	0.221888
H175	H	1.725347	0.234072	0.252452
H176	H	1.761556	0.296480	0.247459
H177	H	1.655491	0.287793	0.160591
H178	H	1.636127	0.334001	0.281782
H179	H	1.530048	0.325305	0.194917
H180	H	0.329018	1.259112	-0.467833
C181	C	0.308034	1.191291	-0.566529
C182	C	0.402164	1.120536	-0.498577
H183	H	0.275519	1.183259	-0.622443
H184	H	0.345383	1.223643	-0.557274
H185	H	0.239350	1.214950	-0.565960
H186	H	0.470852	1.096880	-0.499141
H187	H	0.364815	1.088172	-0.507835
H188	H	0.415921	0.693158	-0.318355
C189	C	1.459912	0.985783	0.329754
C190	C	1.397716	0.942762	0.316710
H191	H	1.427412	1.012433	0.273844
H192	H	1.550267	0.952335	0.366479
H193	H	1.444216	1.021766	0.357775
H194	H	1.413419	0.906775	0.288695
H195	H	1.307339	0.976213	0.279971
H196	H	0.589545	0.864115	-0.332834
C197	C	0.540961	0.653222	-0.165713
C198	C	0.603193	0.696224	-0.152645
H199	H	0.573415	0.626587	-0.109812
H200	H	0.556667	0.617233	-0.193717
H201	H	0.450594	0.686685	-0.202462
H202	H	0.693559	0.662760	-0.115901
H203	H	0.587496	0.732216	-0.124628
C204	C	0.541083	0.991785	0.172897
C205	C	0.603277	0.988946	0.140087
H206	H	0.573580	0.941215	0.204889
H207	H	0.450727	1.013671	0.124611
H208	H	0.556786	1.022386	0.211455
H209	H	0.587567	0.958350	0.101523
H210	H	0.693655	0.967049	0.188379
C211	C	0.540802	1.248897	-0.165748
C212	C	0.603069	1.170253	-0.152683
H213	H	0.573192	1.256936	-0.109851
H214	H	0.450441	1.267188	-0.202541
H215	H	0.556566	1.275901	-0.193701
H216	H	0.587297	1.143250	-0.124736
H217	H	0.693451	1.151953	-0.115875
C218	C	0.353908	0.979700	0.127049
C219	C	0.455164	0.904249	0.166804
H220	H	0.386451	1.011662	0.158997
H221	H	0.290105	0.980673	0.128045
H222	H	0.316513	0.997939	0.067144
H223	H	0.492554	0.886009	0.226707
H224	H	0.518990	0.903274	0.165816
C225	C	1.731019	0.926518	0.633268
C226	C	1.699160	0.876872	0.654204
H227	H	1.795982	0.931853	0.686455
H228	H	1.656331	0.975401	0.595228
H229	H	1.762373	0.905960	0.603934
H230	H	1.667797	0.897432	0.683532
H231	H	1.773863	0.827979	0.692259
H232	H	0.329130	1.259077	0.026915
C233	C	0.540848	0.991810	-0.422899
C234	C	0.603105	0.988957	-0.334026
H235	H	0.573294	0.941240	-0.425623
H236	H	0.556545	1.022395	-0.447316
H237	H	0.450484	1.013718	-0.456027
H238	H	0.693469	0.967054	-0.300898
H239	H	0.587419	0.958360	-0.309597
H240	H	1.411443	0.472091	0.340252
H241	H	1.585124	0.358396	0.482452
H242	H	1.672015	0.379872	0.631938
H243	H	1.226487	0.296905	0.183935
H244	H	0.887602	0.393916	0.133233
H245	H	0.774403	0.884297	0.522169
H246	H	1.585116	0.789146	0.639163
C247	C	0.673547	0.387979	-0.122483
C248	C	0.738099	0.345793	-0.036101
H249	H	0.587184	0.396407	-0.161366
H250	H	0.716823	0.360116	-0.142245
H251	H	0.672837	0.436032	-0.122422
H252	H	0.738817	0.297738	-0.036161
H253	H	0.694811	0.373656	-0.016334
H254	H	1.411470	0.774865	0.496968
H255	H	1.411350	0.628796	0.037448
H256	H	0.887551	0.394051	-0.070757
H257	H	1.113468	0.244948	0.031036
H258	H	0.887587	0.953867	0.489087
C259	C	0.933866	0.662513	0.525504
C260	C	0.869533	0.738730	0.473890
H261	H	0.890790	0.635923	0.489617
H262	H	0.934033	0.661785	0.573420
H263	H	1.020402	0.638139	0.548466
H264	H	0.782999	0.763106	0.450933
H265	H	0.869352	0.739462	0.425957
H266	H	0.415924	0.849869	-0.475041
H267	H	0.329097	0.764391	-0.467816
C268	C	0.269166	1.147467	0.057689
C269	C	0.402371	1.120480	0.123589
H270	H	0.236710	1.139413	0.084335
H271	H	0.253480	1.120472	0.015534
H272	H	0.226968	1.200823	0.028516
H273	H	0.444570	1.067122	0.152758
H274	H	0.418067	1.147473	0.165760
