data_functionalizedCrystal
_audit_creation_method	'MofGen! by Chris Wilmer'
_symmetry_space_group_name_H-M	'P1'
_symmetry_Int_Tables_number	1
_symmetry_cell_setting	triclinic
loop_
_symmetry_equiv_pos_as_xyz
  x,y,z
_cell_length_a	27.440280
_cell_length_b	18.426585
_cell_length_c	18.426585
_cell_angle_alpha	90.001096
_cell_angle_beta	60.007464
_cell_angle_gamma	60.000626
loop_
_atom_site_label
_atom_site_type_symbol
_atom_site_fract_x
_atom_site_fract_y
_atom_site_fract_z
Zr1	Zr	0.533407	-0.095244	0.699213
O2	O	0.635062	-0.211115	0.583356
O3	O	0.431747	-0.059724	0.734716
O4	O	0.533405	-0.211121	0.734735
O5	O	0.533408	0.059707	0.583337
O6	O	0.533408	-0.211124	0.854161
O7	O	0.533405	-0.059718	0.583337
O8	O	0.351562	0.059697	0.854127
O9	O	0.715254	-0.211114	0.583371
O10	O	0.473566	-0.044576	0.839000
O11	O	0.473566	0.044552	0.749874
O12	O	0.593254	-0.133698	0.749896
O13	O	0.593254	-0.044569	0.660770
Zr14	Zr	0.533418	0.095222	0.889684
Zr15	Zr	0.533412	-0.095249	0.889683
Zr16	Zr	0.533412	0.095227	0.699213
Zr17	Zr	0.661305	-0.095241	0.699237
Zr18	Zr	0.405520	0.095220	0.889659
O19	O	0.635077	0.059702	0.854181
O20	O	0.635070	-0.211122	0.854180
O21	O	0.635070	0.059709	0.583356
O22	O	0.431763	0.211094	1.005541
O23	O	0.431755	-0.059731	1.005540
O24	O	0.431755	0.211100	0.734716
O25	O	0.533417	-0.059729	1.005560
O26	O	0.533420	0.211099	0.854162
O27	O	0.533417	0.211102	0.734736
O28	O	0.533420	0.059697	1.005560
O29	O	0.715259	-0.211118	0.734770
O30	O	0.351566	0.211096	0.854127
O31	O	0.351570	0.211092	1.005526
O32	O	0.351566	0.059694	1.005525
O33	O	0.715259	-0.059715	0.583372
O34	O	0.715263	-0.059719	0.734770
O35	O	0.473571	0.133676	0.839000
O36	O	0.473571	0.044548	0.928126
O37	O	0.593259	-0.044574	0.839023
O38	O	0.593259	0.044554	0.749897
C39	C	0.373432	-0.000014	0.794418
C40	C	0.319136	-0.000015	0.794407
C41	C	0.533406	-0.000005	0.556199
C42	C	0.533403	-0.000003	0.475339
C43	C	0.533419	0.238239	0.794449
C44	C	0.533421	0.319098	0.794449
C45	C	-0.017606	-0.046527	0.840996
C46	C	-0.068630	-0.046525	0.841004
O47	O	-0.095036	-0.086065	0.880597
N48	N	-0.094146	-0.000002	0.794480
C49	C	-0.068641	0.046528	0.747953
O50	O	-0.095030	0.086100	0.708382
C51	C	-0.017621	0.046530	0.747951
C52	C	0.007897	-0.000003	0.794470
C53	C	0.007912	-0.093055	0.887512
C54	C	0.058933	-0.093059	0.887503
C55	C	0.084436	-0.046534	0.840977
C56	C	0.058919	-0.000006	0.794460
C57	C	0.007880	0.093065	0.701429
C58	C	0.058902	0.093064	0.701431
C59	C	0.084421	0.046531	0.747951
C60	C	0.135443	0.046515	0.747925
N61	N	0.160959	-0.000008	0.794448
C62	C	0.135456	-0.046532	0.840974
C63	C	-0.175786	0.046521	0.747963
C64	C	-0.226801	0.046514	0.747959
C65	C	-0.226788	-0.046538	0.841012
C66	C	-0.175768	-0.046535	0.841010
C67	C	-0.150270	-0.000001	0.794486
C68	C	0.242605	-0.046537	0.840950
C69	C	0.293633	-0.046539	0.840933
C70	C	0.293612	0.046516	0.747885
C71	C	0.242591	0.046515	0.747897
C72	C	0.217087	-0.000013	0.794437
O73	O	0.161880	0.086037	0.708355
O74	O	0.161845	-0.086088	0.880548
C75	C	0.693393	-0.000008	0.794479
C76	C	0.747689	-0.000007	0.794490
C77	C	0.533406	-0.238260	0.794448
C78	C	0.533403	-0.319120	0.794448
C79	C	0.533401	0.615213	0.794450
C80	C	0.533404	0.532827	0.794452
C81	C	0.533411	0.467159	0.794450
C82	C	0.533414	0.384767	0.794451
C83	C	0.533424	-0.000018	0.179224
C84	C	0.533421	-0.000016	0.261610
C85	C	0.533414	-0.000011	0.327279
C86	C	0.533411	-0.000008	0.409670
C87	C	0.533419	-0.000017	1.032698
C88	C	0.533421	-0.000019	1.113558
C89	C	0.373439	-0.000020	1.032667
C90	C	0.319145	-0.000023	1.113517
C91	C	0.373439	0.238236	0.794418
C92	C	0.319145	0.319095	0.794408
C93	C	0.373445	0.238230	1.032668
C94	C	0.319154	0.319087	1.113517
C95	C	0.693379	-0.238252	0.556229
C96	C	0.747671	-0.319108	0.475380
C97	C	0.693386	-0.000002	0.556230
C98	C	0.747680	0.000001	0.475380
C99	C	0.693386	-0.238258	0.794479
C100	C	0.747680	-0.319116	0.794489
C101	C	0.293645	-0.046554	1.104961
C102	C	0.242638	-0.046575	1.180920
C103	C	0.217127	-0.000058	1.265434
C104	C	0.242632	0.046474	1.273988
C105	C	0.293642	0.046489	1.198029
C106	C	0.293651	0.403597	0.840926
C107	C	0.242643	0.479579	0.840913
C108	C	0.217127	0.471058	0.794387
C109	C	0.242627	0.386547	0.747863
C110	C	0.293637	0.310567	0.747871
C111	C	0.293658	0.310534	1.198016
C112	C	0.242653	0.386500	1.273990
C113	C	0.217141	0.471018	1.265463
C114	C	0.242642	0.479569	1.180956
C115	C	0.293649	0.403604	1.104984
C116	C	0.773173	-0.310555	0.390881
C117	C	0.824194	-0.386521	0.314907
C118	C	0.849709	-0.471040	0.323434
C119	C	0.824204	-0.479591	0.407941
C120	C	0.773188	-0.403626	0.483913
C121	C	0.773185	0.046524	0.483936
C122	C	0.824206	0.046524	0.407976
C123	C	0.849719	0.000005	0.323463
C124	C	0.824212	-0.046524	0.314909
C125	C	0.773194	-0.046528	0.390867
C126	C	0.773179	-0.310567	0.841024
C127	C	0.824187	-0.386535	0.841051
C128	C	0.849698	-0.471052	0.794537
C129	C	0.824193	-0.479600	0.748000
C130	C	0.773183	-0.403632	0.747979
H131	H	0.314409	-0.084435	0.878814
Br132	Br	0.147915	0.574107	1.368578
H133	H	0.752424	-0.410600	0.552714
Br134	Br	0.738555	-0.195861	0.379284
H135	H	0.221862	0.548394	1.174026
H136	H	-0.012850	-0.130940	0.925403
H137	H	0.314416	-0.084444	1.036153
Br138	Br	0.328242	0.415228	0.990310
H139	H	0.844972	-0.548423	0.710129
H140	H	0.175592	0.532934	0.794387
H141	H	0.221844	-0.084423	0.878848
H142	H	0.844992	-0.084398	0.246088
H143	H	0.844951	-0.379542	0.246105
Br144	Br	-0.141142	-0.109688	0.904145
H145	H	0.079705	-0.130947	0.925386
H146	H	0.844965	0.084417	0.414958
Br147	Br	0.738588	-0.415252	0.684809
H148	H	0.175591	-0.000077	1.327277
H149	H	0.752416	-0.241756	0.878902
Br150	Br	-0.261409	-0.109678	0.904156
Br151	Br	0.738584	-0.109669	0.379240
H152	H	-0.247566	0.084394	0.710067
Br153	Br	-0.141182	0.109674	0.684812
Br154	Br	0.328239	0.109650	1.209657
Br155	Br	0.093502	0.156224	0.638292
Br156	Br	0.328227	0.195888	0.684736
Br157	Br	0.918947	-0.574128	0.220318
H158	H	0.844985	-0.548415	0.414873
Br159	Br	0.328274	0.195840	1.209612
Br160	Br	0.918957	0.000020	0.220384
Br161	Br	0.738574	0.109662	0.598623
H162	H	0.221895	0.379521	1.342793
Br163	Br	0.858792	-0.374913	0.904209
H164	H	-0.012889	0.130958	0.663549
Br165	Br	0.207968	0.109651	0.684748
Br166	Br	0.207990	0.374998	0.684724
H167	H	0.891234	-0.532902	0.794561
H168	H	0.221878	-0.084467	1.173938
Br169	Br	0.328234	0.109652	0.684745
H170	H	0.221854	0.084346	1.342809
H171	H	0.314420	0.410552	0.878814
Br172	Br	0.208047	0.594261	0.904059
