data_functionalizedCrystal
_audit_creation_method	'MofGen! by Chris Wilmer'
_symmetry_space_group_name_H-M	'P1'
_symmetry_Int_Tables_number	1
_symmetry_cell_setting	triclinic
loop_
_symmetry_equiv_pos_as_xyz
  x,y,z
_cell_length_a	14.853567
_cell_length_b	9.730217
_cell_length_c	10.654541
_cell_angle_alpha	90.009278
_cell_angle_beta	84.059430
_cell_angle_gamma	90.000459
loop_
_atom_site_label
_atom_site_type_symbol
_atom_site_fract_x
_atom_site_fract_y
_atom_site_fract_z
O1	O	1.197239	0.114195	0.163970
O2	O	0.934884	0.114218	0.183502
O3	O	1.072095	0.114197	-0.009066
O4	O	1.060029	0.114215	0.356538
O5	O	1.072087	-0.114383	-0.009090
O6	O	0.934877	-0.114362	0.183478
O7	O	1.197232	-0.114386	0.163946
Zn8	Zn	1.066053	-0.150666	0.173708
Zn9	Zn	1.066063	0.150498	0.173740
O10	O	1.060021	-0.114365	0.356514
C11	C	0.901287	-0.000069	0.182605
C12	C	0.801189	-0.000060	0.179953
N13	N	1.066052	-0.356202	0.173686
C14	C	1.071206	-0.000092	-0.055867
C15	C	1.068556	-0.000089	-0.195283
C16	C	0.387984	-0.000097	0.054353
C17	C	0.367926	-0.000085	0.283128
C18	C	0.461973	-0.000080	0.285622
C19	C	0.519030	-0.000082	0.172479
C20	C	0.482040	-0.000089	0.056843
C21	C	0.498971	-0.000060	0.401256
C22	C	0.593023	-0.000054	0.403754
C23	C	0.650082	-0.000065	0.290610
C24	C	0.613086	-0.000073	0.174969
C25	C	0.670143	-0.000075	0.061827
C26	C	0.633149	-0.000093	-0.053816
C27	C	0.539098	-0.000100	-0.056301
C28	C	0.744132	-0.000058	0.293095
C29	C	0.764199	-0.000067	0.064317
C30	C	1.230829	-0.000095	0.164843
C31	C	1.330927	-0.000095	0.167495
N32	N	1.066071	0.356035	0.173752
C33	C	1.187795	0.643741	0.003483
C34	C	1.248675	0.571773	-0.081598
C35	C	1.248690	0.427893	-0.081564
C36	C	1.187816	0.355978	0.003557
C37	C	1.126936	0.427946	0.088638
C38	C	1.126929	0.571829	0.088597
C39	C	1.005191	0.428003	0.258833
C40	C	1.005179	0.571883	0.258807
C41	C	0.944317	0.356088	0.343954
C42	C	0.883440	0.428056	0.429043
C43	C	0.883428	0.571945	0.429006
C44	C	0.944299	0.643851	0.343888
C45	C	1.232629	-0.000121	-0.224958
C46	C	1.313417	-0.000140	-0.305292
C47	C	1.310922	-0.000136	-0.436284
C48	C	1.227630	-0.000108	-0.486944
C49	C	1.146842	-0.000089	-0.406610
C50	C	1.149346	-0.000098	-0.275617
C51	C	0.982772	-0.000048	-0.376935
C52	C	0.985265	-0.000062	-0.245943
C53	C	0.899480	-0.000020	-0.427595
C54	C	0.818690	-0.000011	-0.347261
C55	C	0.821189	-0.000017	-0.216262
C56	C	0.904477	-0.000043	-0.165609
C57	C	1.060910	-0.000073	0.403315
C58	C	1.063560	-0.000066	0.542731
H59	H	0.810649	-0.000074	-0.027819
Br60	Br	0.800793	0.669603	0.544470
H61	H	0.906519	-0.000057	-0.058951
Br62	Br	1.426450	-0.000163	-0.236535
H63	H	0.623135	-0.000039	0.497916
H64	H	1.187796	0.760895	0.003457
Br65	Br	0.337782	-0.000133	-0.102583
Br66	Br	1.420562	-0.000143	-0.545314
H67	H	1.225606	-0.000088	-0.593606
H68	H	0.774249	-0.000046	0.387249
H69	H	1.187824	0.238824	0.003569
Br70	Br	0.944327	0.160821	0.343996
Br71	Br	1.331306	0.330218	-0.197042
Br72	Br	0.710594	-0.000080	-0.207360
Br73	Br	0.896092	0.000087	-0.605371
Br74	Br	1.331281	0.669371	-0.197124
H75	H	0.944298	0.761005	0.343855
Br76	Br	0.290492	-0.000057	0.436671
Br77	Br	0.800826	0.330455	0.544542
Br78	Br	0.705664	0.000048	-0.416020
H79	H	0.508969	-0.000147	-0.150451
Br80	Br	0.421534	-0.000028	0.554796
Br81	Br	0.711541	0.000024	-0.107247
Br82	Br	1.236021	-0.000166	-0.047183
