data_functionalizedCrystal
_audit_creation_method	'MofGen! by Chris Wilmer'
_symmetry_space_group_name_H-M	'P1'
_symmetry_Int_Tables_number	1
_symmetry_cell_setting	triclinic
loop_
_symmetry_equiv_pos_as_xyz
  x,y,z
_cell_length_a	17.699083
_cell_length_b	16.053802
_cell_length_c	17.699083
_cell_angle_alpha	87.440590
_cell_angle_beta	83.283015
_cell_angle_gamma	92.569971
loop_
_atom_site_label
_atom_site_type_symbol
_atom_site_fract_x
_atom_site_fract_y
_atom_site_fract_z
O1	O	1.007269	0.069313	0.092524
O2	O	0.786892	0.069341	0.104975
O3	O	0.903307	0.069319	-0.011439
O4	O	0.890855	0.069335	0.208938
O5	O	0.896899	-0.069539	-0.005058
O6	O	0.780484	-0.069517	0.111357
O7	O	1.000862	-0.069544	0.098905
Zn8	Zn	0.889656	-0.091577	0.106144
Zn9	Zn	0.898098	0.091374	0.097736
O10	O	0.884447	-0.069522	0.215320
C11	C	0.755492	-0.000084	0.107720
C12	C	0.671474	-0.000074	0.106380
N13	N	0.883899	-0.216436	0.111882
C14	C	0.622853	-0.000069	0.174714
C15	C	0.543909	-0.000080	0.173452
C16	C	0.513588	-0.000090	0.103856
C17	C	0.562215	-0.000097	0.035518
C18	C	0.641157	-0.000092	0.036780
C19	C	0.243851	-0.000118	0.030423
C20	C	0.164903	-0.000121	0.029166
C21	C	0.146603	-0.000106	0.167095
C22	C	0.225545	-0.000101	0.168358
C23	C	0.274165	-0.000113	0.100020
C24	C	0.359765	-0.000103	0.101389
C25	C	0.427990	-0.000094	0.102486
C26	C	0.933452	-0.260140	0.062365
C27	C	0.929432	-0.347546	0.066386
C28	C	0.875864	-0.391247	0.119927
C29	C	0.826306	-0.347537	0.169447
C30	C	0.830322	-0.260133	0.165422
C31	C	0.858319	-0.652653	0.137487
C32	C	0.854308	-0.740064	0.141510
C33	C	0.957434	-0.740066	0.038447
C34	C	0.961449	-0.652660	0.034430
C35	C	0.911888	-0.608958	0.083947
N36	N	0.871755	-0.480590	0.124040
N37	N	0.915994	-0.519617	0.079830
C38	C	1.032262	-0.000117	0.096161
C39	C	1.116280	-0.000122	0.097500
C40	C	0.899657	-0.000110	-0.036445
C41	C	0.898318	-0.000110	-0.120464
N42	N	0.903860	0.216233	0.091993
C43	C	0.966651	-0.000120	-0.169084
C44	C	0.965389	-0.000112	-0.248028
C45	C	0.895793	-0.000101	-0.278349
C46	C	0.827455	-0.000089	-0.229722
C47	C	0.828718	-0.000090	-0.150781
C48	C	0.822360	-0.000081	-0.548086
C49	C	0.821102	-0.000082	-0.627034
C50	C	0.959031	-0.000103	-0.645333
C51	C	0.960294	-0.000105	-0.566391
C52	C	0.891957	-0.000088	-0.517772
C53	C	0.893326	-0.000095	-0.432172
C54	C	0.894423	-0.000100	-0.363947
C55	C	0.888097	-0.000092	0.240326
C56	C	0.889436	-0.000086	0.324344
H57	H	0.647534	-0.000061	0.231387
H58	H	0.770789	-0.000074	-0.254416
F59	F	0.769289	-0.394048	0.226427
H60	H	1.014675	-0.000113	-0.684929
F61	F	0.747025	-0.000069	-0.659301
H62	H	0.969781	-0.383128	0.026065
H63	H	0.537521	-0.000117	-0.021148
F64	F	0.492167	-0.000071	0.246182
F65	F	0.990472	-0.213638	0.005381
H66	H	1.005069	-0.617080	-0.009168
F67	F	0.777579	-0.213622	0.218123
F68	F	1.040725	-0.000140	-0.136821
F69	F	1.010175	-0.786582	-0.014250
H70	H	0.250228	-0.000090	0.225030
F71	F	0.755989	-0.000077	-0.099035
F72	F	1.038118	-0.000124	-0.299770
H73	H	0.680744	-0.000096	-0.018864
F74	F	1.034367	-0.000116	-0.534126
F75	F	0.749629	-0.000061	-0.496351
F76	F	0.094852	-0.000097	0.239827
H77	H	0.140219	-0.000130	-0.027511
F78	F	0.797290	-0.786568	0.198501
F79	F	0.805576	-0.606149	0.190188
F80	F	0.295586	-0.000131	-0.042308
