data_functionalizedCrystal
_audit_creation_method	'MofGen! by Chris Wilmer'
_symmetry_space_group_name_H-M	'P1'
_symmetry_Int_Tables_number	1
_symmetry_cell_setting	triclinic
loop_
_symmetry_equiv_pos_as_xyz
  x,y,z
_cell_length_a	19.121102
_cell_length_b	29.839131
_cell_length_c	19.120904
_cell_angle_alpha	92.409150
_cell_angle_beta	90.088173
_cell_angle_gamma	87.595578
loop_
_atom_site_label
_atom_site_type_symbol
_atom_site_fract_x
_atom_site_fract_y
_atom_site_fract_z
Zn1	Zn	1.054749	-0.219753	-0.442036
Zn2	Zn	1.059636	-0.291816	-0.324791
Zn3	Zn	0.942520	-0.213364	-0.319821
Zn4	Zn	0.937448	-0.291514	-0.436994
O5	O	0.998588	-0.254112	-0.380911
O6	O	1.153501	-0.232113	-0.430674
O7	O	1.048269	-0.278861	-0.226027
O8	O	0.957485	-0.151347	-0.336063
O9	O	1.157092	-0.285057	-0.344535
O10	O	1.039939	-0.156042	-0.425855
O11	O	0.962224	-0.221223	-0.222376
O12	O	0.843743	-0.220930	-0.331174
O13	O	0.948840	-0.284542	-0.535767
O14	O	0.840017	-0.278346	-0.417260
O15	O	1.035020	-0.231820	-0.539472
O16	O	1.043351	-0.354640	-0.339645
O17	O	0.953579	-0.354418	-0.422080
C18	C	0.816443	-0.248912	-0.373131
C19	C	0.738519	-0.246699	-0.369819
C20	C	0.998463	-0.370830	-0.380870
C21	C	0.998473	-0.420765	-0.380879
C22	C	0.699992	-0.275595	-0.413013
C23	C	0.626774	-0.273510	-0.409905
C24	C	0.592086	-0.242531	-0.363599
C25	C	0.630619	-0.213632	-0.320403
C26	C	0.703835	-0.215716	-0.323515
C27	C	0.371117	-0.234741	-0.351966
C28	C	0.297896	-0.232660	-0.348855
C29	C	0.294056	-0.292537	-0.438359
C30	C	0.367274	-0.294620	-0.441464
C31	C	0.405800	-0.265720	-0.398271
C32	C	0.517246	-0.240400	-0.360419
C33	C	0.480639	-0.267849	-0.401455
C34	C	1.045411	-0.730519	-0.338056
C35	C	1.045496	-0.918195	-0.338087
O36	O	1.085306	-0.942551	-0.301646
N37	N	0.998731	-0.941559	-0.380970
C38	C	0.951945	-0.918001	-0.423851
O39	O	0.912175	-0.942181	-0.460332
C40	C	0.951864	-0.730326	-0.423824
C41	C	0.998627	-0.706964	-0.380933
C42	C	1.092171	-0.707157	-0.295169
C43	C	1.092146	-0.660241	-0.295159
C44	C	1.045362	-0.636686	-0.338036
C45	C	0.998602	-0.660048	-0.380923
C46	C	0.905081	-0.706770	-0.466708
C47	C	0.905066	-0.659848	-0.466699
C48	C	0.951829	-0.636486	-0.423808
C49	C	0.951794	-0.589577	-0.423789
N50	N	0.998559	-0.566213	-0.380906
C51	C	1.045343	-0.589768	-0.338030
C52	C	0.951990	-1.016534	-0.423862
C53	C	0.952010	-1.063452	-0.423868
C54	C	1.045562	-1.063642	-0.338104
C55	C	1.045539	-1.016723	-0.338095
C56	C	0.998755	-0.993169	-0.380979
C57	C	1.045288	-0.491240	-0.338011
C58	C	1.045257	-0.444319	-0.338003
C59	C	0.951708	-0.444133	-0.423769
C60	C	0.951735	-0.491049	-0.423775
C61	C	0.998531	-0.514602	-0.380894
O62	O	0.912011	-0.565193	-0.460217
O63	O	1.085117	-0.565581	-0.301566
C64	C	1.045435	-0.777435	-0.338066
C65	C	0.998676	-0.800797	-0.380953
C66	C	0.951891	-0.777243	-0.423830
C67	C	0.998695	-0.847716	-0.380959
C68	C	1.045479	-0.871270	-0.338082
C69	C	1.092244	-0.847906	-0.295199
C70	C	1.092220	-0.800990	-0.295189
C71	C	0.905126	-0.800607	-0.466712
C72	C	0.905154	-0.847523	-0.466718
C73	C	0.951938	-0.871078	-0.423842
C74	C	1.181445	-0.259331	-0.388721
C75	C	1.259368	-0.261556	-0.392050
C76	C	0.990819	-0.258860	-0.563768
C77	C	0.987508	-0.260884	-0.641691
C78	C	0.998732	-0.136939	-0.380967
C79	C	0.998794	-0.087007	-0.380991
C80	C	1.030820	-0.234387	-0.680230
C81	C	1.027700	-0.236286	-0.753446
C82	C	0.981272	-0.264686	-0.788123
C83	C	0.937956	-0.291184	-0.749580
C84	C	0.941072	-0.289282	-0.676364
C85	C	0.969615	-0.271800	-1.009090
C86	C	0.966503	-0.273701	-1.082311
C87	C	1.056247	-0.218802	-1.086172
C88	C	1.059362	-0.216905	-1.012955
C89	C	1.016043	-0.243401	-0.974418
C90	C	0.978084	-0.266629	-0.862963
C91	C	1.019228	-0.241455	-0.899580
C92	C	1.006368	-0.249350	-0.198766
C93	C	1.009815	-0.247204	-0.120849
H94	H	0.595408	-0.297040	-0.445078
C95	C	0.479542	-0.206836	-0.310061
C96	C	0.439390	-0.229862	-0.263261
C97	C	0.404650	-0.198957	-0.216862
H98	H	0.449815	-0.187166	-0.335650
H99	H	0.512946	-0.189927	-0.284734
H100	H	0.405990	-0.246764	-0.288586
H101	H	0.469101	-0.249531	-0.237656
H102	H	0.438054	-0.182048	-0.191535
H103	H	0.374927	-0.179288	-0.242457
H104	H	0.377408	-0.214576	-0.185099
C105	C	1.096111	-0.419038	-0.291411
C106	C	1.137100	-0.449713	-0.253881
C107	C	1.183958	-0.426443	-0.210963
H108	H	1.070690	-0.399202	-0.259635
H109	H	1.125525	-0.402285	-0.319539
H110	H	1.107689	-0.466458	-0.225755
H111	H	1.162535	-0.469549	-0.285639
H112	H	1.213372	-0.409690	-0.239091
H113	H	1.158532	-0.406608	-0.179191
H114	H	1.211779	-0.447252	-0.185498
H115	H	1.083395	-0.510411	-0.303095
C116	C	0.901202	-1.088733	-0.470505
C117	C	0.860243	-1.058058	-0.508065
C118	C	0.813440	-1.081329	-0.551046
H119	H	0.871758	-1.105497	-0.442441
H120	H	0.926686	-1.108560	-0.502259
H121	H	0.834761	-1.038239	-0.476315
H122	H	0.889669	-1.041293	-0.536143
H123	H	0.838924	-1.101155	-0.582800
H124	H	0.784001	-1.098092	-0.522976
H125	H	0.785649	-1.060520	-0.576540
C126	C	1.143005	-0.634963	-0.248577
C127	C	1.183991	-0.665642	-0.211051
C128	C	1.230862	-0.642377	-0.168140
H129	H	1.117594	-0.615125	-0.216797
H130	H	1.172420	-0.618214	-0.276709
H131	H	1.154580	-0.682384	-0.182920
H132	H	1.209418	-0.685481	-0.242812
H133	H	1.260277	-0.625628	-0.196272
H134	H	1.205445	-0.622539	-0.136365
H135	H	1.258681	-0.663189	-0.142678
H136	H	0.867030	-0.781432	-0.501629
C137	C	0.404979	-0.328303	-0.491631
C138	C	0.448654	-0.357227	-0.453639
C139	C	0.483394	-0.388265	-0.499827
H140	H	0.432321	-0.312807	-0.523453
H141	H	0.371572	-0.345241	-0.516904
H142	H	0.482056	-0.340291	-0.428378
H143	H	0.421330	-0.372734	-0.421819
H144	H	0.449987	-0.405203	-0.525100
H145	H	0.510731	-0.372765	-0.531647
H146	H	0.513026	-0.407896	-0.474056
C147	C	0.737780	-0.309214	-0.463220
C148	C	0.810147	-0.304863	-0.456690
C149	C	0.844977	-0.335829	-0.502925
H150	H	0.723878	-0.303599	-0.509865
H151	H	0.726227	-0.338788	-0.452358
H152	H	0.821694	-0.275296	-0.467557
H153	H	0.824069	-0.310482	-0.410055
H154	H	0.833424	-0.365404	-0.492063
H155	H	0.831069	-0.330212	-0.549567
H156	H	0.894081	-0.332885	-0.498496
H157	H	0.866998	-0.725783	-0.501631
H158	H	0.900150	-0.314306	-0.777819
C159	C	0.518386	-0.301414	-0.451774
C160	C	0.558556	-0.278387	-0.498557
C161	C	0.593352	-0.309293	-0.544913
H162	H	0.485035	-0.318342	-0.477125
H163	H	0.548104	-0.321067	-0.426129
H164	H	0.528840	-0.258742	-0.524200
H165	H	0.591919	-0.261461	-0.473226
H166	H	0.623071	-0.328946	-0.519268
H167	H	0.559996	-0.326220	-0.570259
H168	H	0.620617	-0.293675	-0.576656
C169	C	1.109715	-0.186092	-0.975179
C170	C	1.103173	-0.190098	-0.902811
C171	C	1.149542	-0.161716	-0.867990
H172	H	1.099000	-0.155915	-0.986686
H173	H	1.156329	-0.194308	-0.989134
H174	H	1.056570	-0.181879	-0.888862
H175	H	1.113895	-0.220269	-0.891284
H176	H	1.196156	-0.169932	-0.881944
H177	H	1.138822	-0.131540	-0.879502
H178	H	1.145114	-0.164433	-0.818885
H179	H	0.913659	-0.510072	-0.458702
C180	C	0.260104	-0.199056	-0.298620
C181	C	0.187739	-0.203423	-0.305136
C182	C	0.152902	-0.172476	-0.258875
H183	H	0.271619	-0.169476	-0.309452
H184	H	0.274038	-0.204689	-0.251982
H185	H	0.173809	-0.197788	-0.351764
H186	H	0.176203	-0.232997	-0.294298
H187	H	0.166837	-0.178109	-0.212236
H188	H	0.164423	-0.142898	-0.269711
H189	H	0.103800	-0.175438	-0.263285
C190	C	1.143098	-0.732739	-0.248759
C191	C	1.186341	-0.761922	-0.290438
C192	C	1.233289	-0.785480	-0.247716
H193	H	1.117744	-0.749558	-0.217013
H194	H	1.170977	-0.712101	-0.223260
H195	H	1.158465	-0.782557	-0.315925
H196	H	1.211710	-0.745114	-0.322183
H197	H	1.261168	-0.764842	-0.222217
H198	H	1.207930	-0.802296	-0.215972
H199	H	1.262639	-0.805280	-0.275989
H200	H	0.262680	-0.316066	-0.473526
C201	C	1.103234	-0.189956	-1.127922
C202	C	1.088791	-0.144611	-1.109466
C203	C	1.132068	-0.118022	-1.147904
H204	H	1.094775	-0.195095	-1.176506
H205	H	1.150853	-0.197535	-1.117920
H206	H	1.041183	-0.137034	-1.119473
H207	H	1.097254	-0.139458	-1.060889
H208	H	1.179687	-0.125602	-1.137902
H209	H	1.123605	-0.123165	-1.196486
H210	H	1.122279	-0.087253	-1.135382
C211	C	0.592924	-0.180068	-0.270041
C212	C	0.552781	-0.203093	-0.223233
C213	C	0.518055	-0.172189	-0.176823
H214	H	0.563192	-0.160395	-0.295621
H215	H	0.626335	-0.163161	-0.244720
H216	H	0.519373	-0.219992	-0.248551
H217	H	0.582496	-0.222764	-0.197637
H218	H	0.551467	-0.155282	-0.151503
H219	H	0.488327	-0.152518	-0.202409
H220	H	0.490819	-0.187808	-0.145055
C221	C	0.900959	-0.418613	-0.470440
C222	C	0.913225	-0.432242	-0.540465
C223	C	0.866489	-0.408746	-0.583484
H224	H	0.907603	-0.387320	-0.464383
H225	H	0.854285	-0.424731	-0.458184
H226	H	0.959887	-0.426121	-0.552717
H227	H	0.906575	-0.463532	-0.546545
H228	H	0.819816	-0.414864	-0.571228
H229	H	0.873138	-0.377453	-0.577421
H230	H	0.874801	-0.417992	-0.631000
C231	C	1.096391	-0.991443	-0.291507
C232	C	1.137372	-1.022120	-0.253973
C233	C	1.184234	-0.998852	-0.211055
H234	H	1.070972	-0.971605	-0.259733
H235	H	1.125809	-0.974693	-0.319635
H236	H	1.107958	-1.038863	-0.225847
H237	H	1.162806	-1.041959	-0.285729
H238	H	1.213652	-0.982102	-0.239183
H239	H	1.158809	-0.979015	-0.179285
H240	H	1.212050	-1.019663	-0.185588
H241	H	1.130299	-0.781972	-0.260264
H242	H	0.735203	-0.192183	-0.288345
H243	H	0.905796	-0.310854	-0.644987
C244	C	0.916019	-0.304547	-1.119832
C245	C	0.878736	-0.327337	-1.070412
C246	C	0.832222	-0.355751	-1.104951
H247	H	0.941520	-0.325667	-1.149528
H248	H	0.884246	-0.287240	-1.147082
H249	H	0.910504	-0.344643	-1.043175
H250	H	0.853220	-0.306229	-1.040715
H251	H	0.800449	-0.338443	-1.132201
H252	H	0.857729	-0.376867	-1.134646
H253	H	0.806915	-0.371214	-1.071425
H254	H	1.083656	-1.082829	-0.303192
C255	C	0.901300	-0.990947	-0.470513
C256	C	0.939026	-0.966283	-0.517190
C257	C	0.892351	-0.942715	-0.560179
H258	H	0.871889	-0.971069	-0.442446
H259	H	0.873465	-1.011574	-0.496089
H260	H	0.966848	-0.945659	-0.491617
H261	H	0.968435	-0.986151	-0.545272
H262	H	0.864516	-0.963341	-0.585755
H263	H	0.862942	-0.922839	-0.532107
H264	H	0.917941	-0.925981	-0.591859
H265	H	0.402476	-0.211211	-0.316789
C266	C	1.143141	-0.873508	-0.248780
C267	C	1.186371	-0.902699	-0.290459
C268	C	1.233280	-0.926287	-0.247734
H269	H	1.117757	-0.890324	-0.217054
H270	H	1.171032	-0.852889	-0.223259
H271	H	1.158483	-0.923316	-0.315969
H272	H	1.211771	-0.885895	-0.322184
H273	H	1.261171	-0.905667	-0.222213
H274	H	1.207890	-0.943100	-0.216010
H275	H	1.262621	-0.946092	-0.276007
C276	C	0.854194	-0.634356	-0.513286
C277	C	0.813240	-0.664861	-0.550834
C278	C	0.766365	-0.641395	-0.593749
H279	H	0.879601	-0.617584	-0.545052
H280	H	0.824759	-0.614521	-0.485155
H281	H	0.842672	-0.684688	-0.578962
H282	H	0.787818	-0.681635	-0.519085
H283	H	0.736929	-0.621561	-0.565618
H284	H	0.791778	-0.624624	-0.625511
H285	H	0.738568	-0.662089	-0.619225
C286	C	0.927611	-0.297478	-0.900485
C287	C	0.890335	-0.320273	-0.851067
C288	C	0.843827	-0.348690	-0.885608
H289	H	0.953116	-0.318594	-0.930184
H290	H	0.895834	-0.280171	-0.927731
H291	H	0.922108	-0.337579	-0.823833
H292	H	0.864816	-0.299169	-0.821366
H293	H	0.812049	-0.331384	-0.912854
H294	H	0.869337	-0.369803	-0.915307
H295	H	0.818524	-0.364157	-0.852084
H296	H	0.867068	-0.866540	-0.501645
H297	H	1.068629	-0.211262	-0.652001
H298	H	1.062971	-0.214710	-0.784821
H299	H	0.934351	-0.293382	-0.977722
H300	H	1.057027	-0.218330	-0.871343
