data_functionalizedCrystal
_audit_creation_method	'MofGen! by Chris Wilmer'
_symmetry_space_group_name_H-M	'P1'
_symmetry_Int_Tables_number	1
_symmetry_cell_setting	triclinic
loop_
_symmetry_equiv_pos_as_xyz
  x,y,z
_cell_length_a	9.065215
_cell_length_b	10.723024
_cell_length_c	7.540329
_cell_angle_alpha	89.997572
_cell_angle_beta	89.997574
_cell_angle_gamma	84.741283
loop_
_atom_site_label
_atom_site_type_symbol
_atom_site_fract_x
_atom_site_fract_y
_atom_site_fract_z
O1	O	1.959362	0.182967	-0.147457
O2	O	1.529991	0.197980	-0.147465
O3	O	1.754581	0.008937	-0.147454
O4	O	1.734773	0.372009	-0.147467
O5	O	1.754567	0.008935	0.147511
O6	O	1.529978	0.197977	0.147501
O7	O	1.959348	0.182964	0.147508
Cu8	Cu	1.744662	0.190471	0.174437
Cu9	Cu	1.744678	0.190474	-0.174393
O10	O	1.734759	0.372007	0.147498
C11	C	1.475006	0.196537	0.000017
C12	C	1.311187	0.192225	0.000014
C13	C	1.753132	-0.037569	0.000026
C14	C	1.748820	-0.176141	0.000020
C15	C	1.614852	-0.368441	0.000008
C16	C	1.619306	-0.225220	0.000015
C17	C	2.014334	0.184408	0.000023
C18	C	2.178152	0.188719	0.000014
C19	C	1.736207	0.418514	0.000013
C20	C	1.740520	0.557085	0.000008
N21	N	1.744661	0.190468	0.419785
N22	N	1.744690	0.190467	-0.419742
H23	H	1.503965	-0.410713	-0.000006
H24	H	1.511724	-0.161223	0.000027
N25	N	1.891334	-0.260900	0.000035
H26	H	1.895564	-0.315511	-0.109308
H27	H	1.978297	-0.208379	0.000109
N28	N	1.887407	-0.386930	0.000024
H29	H	1.945427	-0.415375	0.109370
H30	H	1.945328	-0.415378	-0.109389
