data_functionalizedCrystal
_audit_creation_method	'MofGen! by Chris Wilmer'
_symmetry_space_group_name_H-M	'P1'
_symmetry_Int_Tables_number	1
_symmetry_cell_setting	triclinic
loop_
_symmetry_equiv_pos_as_xyz
  x,y,z
_cell_length_a	6.817900
_cell_length_b	12.840933
_cell_length_c	16.418038
_cell_angle_alpha	81.888328
_cell_angle_beta	75.793466
_cell_angle_gamma	88.345099
loop_
_atom_site_label
_atom_site_type_symbol
_atom_site_fract_x
_atom_site_fract_y
_atom_site_fract_z
V1	V	-3.899279	0.281760	0.117864
O2	O	-3.888274	0.320363	-0.003633
O3	O	-3.852577	0.237549	0.231752
O4	O	-3.794864	0.423937	0.116942
O5	O	-3.946387	0.132684	0.111971
V6	V	-4.389945	0.269066	0.103226
O7	O	-4.144869	0.309606	0.149973
O8	O	-4.594553	0.241221	0.071117
O9	O	-4.213441	0.313278	-0.010662
O10	O	-4.518348	0.230464	0.224724
O11	O	-4.460235	0.418143	0.109119
O12	O	-4.271154	0.126890	0.104149
C13	C	-3.699804	0.222193	0.259488
C14	C	-3.742533	0.186993	0.352598
C15	C	-3.942708	0.174087	0.400627
C16	C	-3.982885	0.141028	0.488117
C17	C	-3.822884	0.120867	0.527576
C18	C	-3.622693	0.133777	0.479541
C19	C	-3.582519	0.166844	0.392054
C20	C	-3.626197	0.459950	0.113032
C21	C	-3.622044	0.578083	0.113031
C22	C	-4.103163	0.090872	0.108057
C23	C	-4.086167	-0.027260	0.108056
V24	V	-3.882228	0.767923	0.117870
O25	O	-3.918716	0.921301	0.111976
O26	O	-3.787960	0.621079	0.116948
O27	O	-3.833987	0.767340	0.231756
O28	O	-3.872371	0.774028	-0.003627
V29	V	-4.370948	0.810763	0.103237
O30	O	-4.129755	0.740557	0.149982
O31	O	-4.572824	0.860812	0.071130
O32	O	-4.242403	0.946360	0.104156
O33	O	-4.451649	0.663299	0.109132
O34	O	-4.497995	0.810573	0.224735
O35	O	-4.196376	0.800099	-0.010652
C36	C	-4.029558	0.328629	-0.038393
C37	C	-3.966064	0.363836	-0.131502
C38	C	-3.680764	0.764651	0.259486
C39	C	-3.722158	0.767316	0.352595
C40	C	-4.013533	0.785822	-0.038389
C41	C	-3.951415	0.782121	-0.131500
C42	C	-3.997434	0.777327	0.571107
C43	C	-4.036312	0.779841	0.658591
C44	C	-3.676121	0.772112	0.649981
C45	C	-3.637246	0.769607	0.562498
C46	C	-3.797910	0.772209	0.523063
C47	C	-3.875663	0.777228	0.698032
C48	C	-3.917814	0.779953	0.792886
C49	C	-3.755756	0.769486	0.428203
C50	C	-4.110876	0.376744	-0.179530
C51	C	-4.051240	0.409809	-0.267020
C52	C	-3.846794	0.429972	-0.306478
C53	C	-3.701972	0.417059	-0.258445
C54	C	-3.761607	0.383988	-0.170958
H55	H	-4.145901	0.130519	0.527214
Cl56	Cl	-4.233332	0.426038	-0.327387
Cl57	Cl	-3.330850	0.183053	0.331684
H58	H	-3.545320	0.769991	0.682099
Cl59	Cl	-4.199412	0.780607	0.521535
H60	H	-4.198781	0.784010	0.697705
H61	H	-3.535508	0.433479	-0.290586
Cl62	Cl	-3.579527	0.367769	-0.110590
H63	H	-3.798263	0.456899	-0.377717
Cl64	Cl	-4.367908	0.351402	-0.129944
Cl65	Cl	-4.143888	0.199436	0.351042
Cl66	Cl	-3.421570	0.108422	0.529159
Cl67	Cl	-3.873424	0.079295	0.637562
Cl68	Cl	-3.386393	0.763178	0.502094
