data_functionalizedCrystal
_audit_creation_method	'MofGen! by Chris Wilmer'
_symmetry_space_group_name_H-M	'P1'
_symmetry_Int_Tables_number	1
_symmetry_cell_setting	triclinic
loop_
_symmetry_equiv_pos_as_xyz
  x,y,z
_cell_length_a	10.654556
_cell_length_b	9.130313
_cell_length_c	10.654550
_cell_angle_alpha	90.001126
_cell_angle_beta	84.486170
_cell_angle_gamma	90.000668
loop_
_atom_site_label
_atom_site_type_symbol
_atom_site_fract_x
_atom_site_fract_y
_atom_site_fract_z
O1	O	1.667830	0.121814	0.176430
O2	O	1.302352	0.121813	0.193228
O3	O	1.493494	0.121804	0.002090
O4	O	1.476688	0.121823	0.367568
O5	O	1.493491	-0.121794	0.002095
O6	O	1.302350	-0.121785	0.193233
O7	O	1.667827	-0.121785	0.176435
Cu8	Cu	1.485088	-0.144028	0.184834
Cu9	Cu	1.485091	0.144056	0.184828
O10	O	1.476685	-0.121776	0.367573
C11	C	1.255553	0.000014	0.191995
C12	C	1.116110	0.000014	0.188300
N13	N	1.485095	-0.346650	0.184838
C14	C	0.919581	0.132811	0.183098
C15	C	1.050604	0.132805	0.186562
C16	C	1.050589	-0.132780	0.186561
C17	C	0.919571	-0.132772	0.183087
C18	C	0.919590	0.286145	0.183104
C19	C	1.050612	0.286138	0.186569
C20	C	1.569755	-0.423306	0.100231
C21	C	1.569752	-0.576643	0.100216
C22	C	1.400425	-0.576655	0.269426
C23	C	1.400424	-0.423321	0.269434
C24	C	1.667518	-0.423301	0.002543
C25	C	1.667515	-0.576638	0.002527
C26	C	1.714626	0.000018	0.177667
C27	C	1.854069	0.000028	0.181362
C28	C	1.492259	0.000006	-0.044706
C29	C	1.488567	0.000008	-0.184149
N30	N	1.485094	0.346679	0.184815
C31	C	1.601108	0.000009	-0.263632
C32	C	1.597632	0.000027	-0.394653
C33	C	1.369063	0.000037	-0.366695
C34	C	1.372540	0.000030	-0.235677
C35	C	1.477921	0.000026	0.414368
C36	C	1.481613	0.000033	0.553812
H37	H	1.103937	-0.240901	0.187965
O38	O	1.795338	-0.631783	0.031060
H39	H	1.837035	-0.699294	-0.048994
H40	H	1.758702	-0.375741	0.033133
H41	H	1.331476	-0.360909	0.338316
H42	H	1.331487	-0.639096	0.338301
H43	H	1.689274	0.000030	-0.459364
H44	H	1.280890	0.000033	-0.170958
H45	H	1.102319	0.333713	0.097121
O46	O	1.627144	-0.639615	-0.118330
H47	H	1.530152	-0.602010	-0.131221
O48	O	0.848905	-0.275986	0.181209
H49	H	0.916466	-0.368326	0.183005
H50	H	1.075446	0.345000	0.275251
H51	H	1.695584	-0.000006	-0.221683
H52	H	1.646075	-0.381686	-0.093990
O53	O	1.243922	0.000029	-0.422269
H54	H	1.260408	0.000013	-0.526728
O55	O	0.886699	0.364102	0.065636
H56	H	0.921370	0.478695	0.066617
O57	O	0.851082	0.349162	0.301576
H58	H	0.920719	0.382575	0.367192
