data_functionalizedCrystal
_audit_creation_method	'MofGen! by Chris Wilmer'
_symmetry_space_group_name_H-M	'P1'
_symmetry_Int_Tables_number	1
_symmetry_cell_setting	triclinic
loop_
_symmetry_equiv_pos_as_xyz
  x,y,z
_cell_length_a	17.699077
_cell_length_b	16.992700
_cell_length_c	16.176319
_cell_angle_alpha	89.986229
_cell_angle_beta	89.993140
_cell_angle_gamma	86.973874
loop_
_atom_site_label
_atom_site_type_symbol
_atom_site_fract_x
_atom_site_fract_y
_atom_site_fract_z
O1	O	1.010252	0.099123	-0.068749
O2	O	0.790677	0.112027	-0.068755
O3	O	0.899585	-0.008566	-0.068731
O4	O	0.901344	0.219716	-0.068773
O5	O	0.899569	-0.008573	0.068762
O6	O	0.790660	0.112020	0.068738
O7	O	1.010236	0.099116	0.068744
Cu8	Cu	0.900446	0.105567	0.081296
Cu9	Cu	0.900466	0.105576	-0.081306
O10	O	0.901327	0.219709	0.068720
C11	C	0.762442	0.111562	-0.000009
C12	C	0.678338	0.110177	-0.000010
C13	C	0.638821	0.109520	0.074939
C14	C	0.559797	0.108207	0.074940
C15	C	0.520290	0.107555	-0.000008
C16	C	0.559813	0.108210	-0.074963
C17	C	0.638836	0.109518	-0.074963
C18	C	0.241121	0.102934	-0.074963
C19	C	0.162092	0.101628	-0.074957
C20	C	0.162082	0.101623	0.074939
C21	C	0.241105	0.102931	0.074939
C22	C	0.280621	0.103581	-0.000015
C23	C	0.366308	0.105004	-0.000015
C24	C	0.434604	0.106138	-0.000009
C25	C	0.897312	-0.037778	0.000019
C26	C	0.890556	-0.124809	0.000030
C27	C	0.845159	-0.613681	-0.000047
C28	C	0.851513	-0.531907	-0.000038
C29	C	0.923065	-0.500501	-0.000025
C30	C	0.988268	-0.550875	-0.000029
C31	C	0.981913	-0.632648	-0.000043
C32	C	0.949403	-0.256955	0.000012
C33	C	0.955753	-0.175176	0.000029
C34	C	0.818998	-0.156213	0.000018
C35	C	0.812649	-0.237988	0.000009
C36	C	0.877852	-0.288355	0.000001
N37	N	0.929562	-0.416915	-0.000014
N38	N	0.871354	-0.371939	-0.000016
C39	C	1.038470	0.099581	-0.000004
C40	C	1.122574	0.100966	-0.000008
C41	C	0.903600	0.248921	-0.000032
C42	C	0.910356	0.335952	-0.000048
N43	N	0.900438	0.105560	0.195661
N44	N	0.900480	0.105577	-0.195671
C45	C	0.948680	0.052183	0.238936
C46	C	0.948684	0.052182	0.325483
C47	C	0.900449	0.105563	0.368753
C48	C	0.852202	0.158942	0.325473
C49	C	0.852195	0.158939	0.238927
C50	C	0.852229	0.158957	0.674501
C51	C	0.852241	0.158958	0.761052
C52	C	0.948717	0.052201	0.761056
C53	C	0.948710	0.052197	0.674511
C54	C	0.900461	0.105573	0.631238
C55	C	0.900456	0.105573	0.537393
C56	C	0.900457	0.105568	0.462596
H57	H	0.273267	0.103465	0.135970
H58	H	0.754384	-0.263552	-0.000012
N59	N	1.032930	-0.141299	0.000055
H60	H	1.038626	-0.107765	-0.050899
H61	H	1.038542	-0.107859	0.051072
N62	N	1.019725	-0.311273	0.000014
H63	H	1.066016	-0.278967	0.000031
H64	H	1.020054	-0.345630	0.050980
N65	N	0.517172	0.107496	0.155775
H66	H	0.554222	0.107555	0.203255
H67	H	0.481563	0.155817	0.159282
H68	H	0.129898	0.101090	0.135971
H69	H	0.129929	0.101097	-0.135993
N70	N	0.283737	0.103629	-0.155802
H71	H	0.246716	0.103019	-0.203279
H72	H	0.313328	0.152751	-0.159085
N73	N	1.000731	-0.005375	0.627834
H74	H	1.054990	0.003581	0.642877
H75	H	0.988589	-0.060982	0.642931
H76	H	0.527641	0.107674	-0.135987
H77	H	0.671010	0.110054	-0.135994
N78	N	0.767984	-0.647551	-0.000051
H79	H	0.727647	-0.603232	-0.000049
H80	H	0.762376	-0.681049	-0.051026
H81	H	0.812944	0.202419	0.639274
N82	N	0.781193	-0.477581	-0.000039
H83	H	0.734902	-0.509885	-0.000044
H84	H	0.780844	-0.443257	0.050936
N85	N	0.800204	0.216526	0.807723
H86	H	0.807533	0.208428	0.869115
H87	H	0.812296	0.272136	0.792578
N88	N	0.748676	-0.101891	0.000038
H89	H	0.763556	-0.045322	0.000053
H90	H	0.717710	-0.112020	-0.050934
N91	N	1.065444	-0.517007	-0.000007
H92	H	1.059578	-0.457561	0.000010
H93	H	1.094172	-0.535467	0.050968
N94	N	0.800171	0.216513	0.372138
H95	H	0.807496	0.208418	0.433532
H96	H	0.812270	0.272120	0.356990
H97	H	1.035004	-0.673657	-0.000047
N98	N	1.000709	-0.005387	0.192268
H99	H	1.031269	-0.039202	0.232818
H100	H	0.969642	-0.040012	0.156376
H101	H	0.987965	0.008719	0.360717
H102	H	0.812911	0.202402	0.203694
N103	N	0.681428	0.110231	0.155777
H104	H	0.644400	0.109615	0.203256
H105	H	0.717417	0.062191	0.159053
N106	N	1.000759	-0.005373	0.807729
H107	H	0.993446	0.002724	0.869122
H108	H	0.988659	-0.060982	0.792618
