data_functionalizedCrystal
_audit_creation_method	'MofGen! by Chris Wilmer'
_symmetry_space_group_name_H-M	'P1'
_symmetry_Int_Tables_number	1
_symmetry_cell_setting	triclinic
loop_
_symmetry_equiv_pos_as_xyz
  x,y,z
_cell_length_a	12.759401
_cell_length_b	25.639239
_cell_length_c	25.639233
_cell_angle_alpha	89.981253
_cell_angle_beta	89.989669
_cell_angle_gamma	90.039113
loop_
_atom_site_label
_atom_site_type_symbol
_atom_site_fract_x
_atom_site_fract_y
_atom_site_fract_z
Zn1	Zn	1.605994	-0.208208	-0.295577
Zn2	Zn	1.939328	0.125125	0.037756
Zn3	Zn	2.272661	0.458458	0.371090
Zn4	Zn	1.605840	-0.295627	-0.208142
Zn5	Zn	1.939174	0.037706	0.125192
Zn6	Zn	2.272507	0.371039	0.458525
Zn7	Zn	1.430322	-0.208208	-0.208159
Zn8	Zn	1.763655	0.125125	0.125174
Zn9	Zn	2.096988	0.458458	0.458507
Zn10	Zn	1.430211	-0.295615	-0.295549
Zn11	Zn	1.763545	0.037718	0.037784
Zn12	Zn	2.096878	0.371051	0.371117
O13	O	1.518092	-0.251915	-0.251857
O14	O	1.851425	0.081418	0.081476
O15	O	2.184759	0.414752	0.414810
O16	O	1.752995	-0.219810	-0.283983
O17	O	2.086328	0.113524	0.049351
O18	O	2.419662	0.446857	0.382684
O19	O	1.582539	-0.284036	-0.134979
O20	O	1.915873	0.049297	0.198355
O21	O	2.249206	0.382631	0.531688
O22	O	1.453736	-0.135043	-0.219774
O23	O	1.787069	0.198290	0.113559
O24	O	2.120402	0.531624	0.446892
O25	O	1.752882	-0.284036	-0.219744
O26	O	2.086215	0.049297	0.113589
O27	O	2.419549	0.382631	0.446922
O28	O	1.582801	-0.135043	-0.284000
O29	O	1.916135	0.198290	0.049333
O30	O	2.249468	0.531623	0.382667
O31	O	1.453586	-0.219810	-0.134992
O32	O	1.786920	0.113524	0.198342
O33	O	2.120253	0.446857	0.531675
O34	O	1.283286	-0.219798	-0.219748
O35	O	1.616619	0.113535	0.113586
O36	O	1.949953	0.446869	0.446919
O37	O	1.453548	-0.284016	-0.368718
O38	O	1.786881	0.049318	-0.035385
O39	O	2.120214	0.382651	0.297948
O40	O	1.283205	-0.284016	-0.283953
O41	O	1.616538	0.049318	0.049380
O42	O	1.949872	0.382651	0.382714
O43	O	1.582694	-0.219798	-0.368739
O44	O	1.916028	0.113535	-0.035405
O45	O	2.249361	0.446868	0.297928
O46	O	1.582432	-0.368791	-0.219717
O47	O	1.915766	-0.035458	0.113616
O48	O	2.249099	0.297876	0.446949
O49	O	1.453398	-0.368782	-0.283936
O50	O	1.786732	-0.035449	0.049398
O51	O	2.120065	0.297885	0.382731
C52	C	1.245125	-0.251906	-0.251849
C53	C	1.578458	0.081427	0.081484
C54	C	1.911791	0.414761	0.414817
C55	C	1.128348	-0.251915	-0.251859
C56	C	1.461681	0.081419	0.081475
C57	C	1.795015	0.414752	0.414808
C58	C	1.073545	-0.218532	-0.285359
C59	C	1.406879	0.114801	0.047974
C60	C	1.740212	0.448134	0.381307
C61	C	0.963821	-0.218538	-0.285363
C62	C	1.297155	0.114796	0.047971
C63	C	1.630488	0.448129	0.381304
C64	C	0.963712	-0.285312	-0.218364
C65	C	1.297045	0.048021	0.114970
C66	C	1.630379	0.381355	0.448303
C67	C	1.073434	-0.285304	-0.218358
C68	C	1.406767	0.048030	0.114975
C69	C	1.740101	0.381363	0.448309
C70	C	1.517915	-0.387757	-0.251833
C71	C	1.851249	-0.054424	0.081500
C72	C	2.184582	0.278909	0.414834
C73	C	1.517936	-0.445871	-0.251840
C74	C	1.851269	-0.112538	0.081493
C75	C	2.184602	0.220795	0.414826
C76	C	1.585455	-0.806226	-0.218475
C77	C	1.918789	-0.472893	0.114858
C78	C	2.252122	-0.139560	0.448191
C79	C	1.585496	-0.860831	-0.218482
C80	C	1.918829	-0.527497	0.114851
C81	C	2.252163	-0.194164	0.448184
O82	O	1.642720	-0.889061	-0.190088
O83	O	1.976053	-0.555727	0.143245
O84	O	2.309387	-0.222394	0.476578
N85	N	1.518277	-0.888154	-0.251892
N86	N	1.851610	-0.554821	0.081442
N87	N	2.184943	-0.221487	0.414775
C88	C	1.451020	-0.860870	-0.285300
C89	C	1.784353	-0.527537	0.048034
C90	C	2.117686	-0.194203	0.381367
O91	O	1.393849	-0.889124	-0.313718
O92	O	1.727182	-0.555791	0.019616
O93	O	2.060515	-0.222458	0.352949
C94	C	1.450985	-0.806267	-0.285295
C95	C	1.784318	-0.472933	0.048039
C96	C	2.117652	-0.139600	0.381372
C97	C	1.518201	-0.778946	-0.251880
C98	C	1.851535	-0.445613	0.081454
C99	C	2.184868	-0.112280	0.414787
C100	C	1.652667	-0.778906	-0.185063
C101	C	1.986000	-0.445573	0.148270
C102	C	2.319333	-0.112239	0.481603
C103	C	1.652624	-0.724306	-0.185056
C104	C	1.985958	-0.390972	0.148277
C105	C	2.319291	-0.057639	0.481611
C106	C	1.585370	-0.697025	-0.218460
C107	C	1.918704	-0.363692	0.114873
C108	C	2.252037	-0.030359	0.448206
C109	C	1.518159	-0.724346	-0.251872
C110	C	1.851492	-0.391012	0.081461
C111	C	2.184826	-0.057679	0.414794
C112	C	1.383734	-0.778984	-0.318705
C113	C	1.717068	-0.445650	0.014628
C114	C	2.050401	-0.112317	0.347962
C115	C	1.383706	-0.724376	-0.318698
C116	C	1.717039	-0.391043	0.014636
C117	C	2.050373	-0.057710	0.347969
C118	C	1.450922	-0.697056	-0.285283
C119	C	1.784255	-0.363723	0.048051
C120	C	2.117589	-0.030390	0.381384
C121	C	1.450863	-0.642465	-0.285269
C122	C	1.784196	-0.309132	0.048064
C123	C	2.117529	0.024202	0.381398
N124	N	1.518082	-0.615142	-0.251860
N125	N	1.851415	-0.281809	0.081473
N126	N	2.184749	0.051525	0.414807
C127	C	1.585336	-0.642422	-0.218456
C128	C	1.918669	-0.309089	0.114878
C129	C	2.252003	0.024245	0.448211
C130	C	1.451099	-0.975540	-0.285308
C131	C	1.784432	-0.642207	0.048026
C132	C	2.117765	-0.308874	0.381359
C133	C	1.451127	-1.030143	-0.285310
C134	C	1.784461	-0.696809	0.048023
C135	C	2.117794	-0.363476	0.381357
C136	C	1.585605	-1.030100	-0.218493
C137	C	1.918939	-0.696767	0.114840
C138	C	2.252272	-0.363433	0.448173
C139	C	1.585571	-0.975497	-0.218489
C140	C	1.918904	-0.642163	0.114845
C141	C	2.252237	-0.308830	0.448178
C142	C	1.518318	-0.948217	-0.251899
C143	C	1.851651	-0.614884	0.081435
C144	C	2.184985	-0.281551	0.414768
C145	C	1.585241	-0.527757	-0.218442
C146	C	1.918574	-0.194424	0.114891
C147	C	2.251908	0.138910	0.448225
C148	C	1.585190	-0.473152	-0.218436
C149	C	1.918523	-0.139818	0.114898
C150	C	2.251856	0.193515	0.448231
C151	C	1.450716	-0.473199	-0.285254
C152	C	1.784050	-0.139866	0.048079
C153	C	2.117383	0.193467	0.381413
C154	C	1.450763	-0.527800	-0.285259
C155	C	1.784097	-0.194467	0.048075
C156	C	2.117430	0.138867	0.381408
C157	C	1.518034	-0.555077	-0.251851
C158	C	1.851368	-0.221744	0.081483
C159	C	2.184701	0.111589	0.414816
O160	O	1.393671	-0.614200	-0.313650
O161	O	1.727004	-0.280867	0.019683
O162	O	2.060337	0.052466	0.353016
O163	O	1.642507	-0.614161	-0.190047
O164	O	1.975840	-0.280828	0.143286
O165	O	2.309173	0.052506	0.476620
C166	C	1.792125	-0.251924	-0.251865
C167	C	2.125458	0.081409	0.081469
C168	C	2.458792	0.414742	0.414802
C169	C	1.908902	-0.251928	-0.251868
C170	C	2.242235	0.081405	0.081465
C171	C	2.575568	0.414738	0.414799
C172	C	1.518126	-0.251906	-0.388230
C173	C	1.851459	0.081428	-0.054897
C174	C	2.184793	0.414761	0.278437
C175	C	1.518140	-0.251902	-0.446344
C176	C	1.851474	0.081432	-0.113011
C177	C	2.184807	0.414765	0.220323
C178	C	1.518298	-0.115542	-0.251892
C179	C	1.851631	0.217792	0.081441
C180	C	2.184965	0.551125	0.414774
C181	C	1.518386	-0.057428	-0.251907
C182	C	1.851719	0.275906	0.081426
C183	C	2.185052	0.609239	0.414759
C184	C	1.585472	-0.218364	-0.806723
C185	C	1.918806	0.114969	-0.473390
C186	C	2.252139	0.448302	-0.140057
C187	C	1.585485	-0.218350	-0.861328
C188	C	1.918819	0.114983	-0.527994
C189	C	2.252152	0.448317	-0.194661
O190	O	1.642649	-0.189897	-0.889578
O191	O	1.975982	0.143436	-0.556245
O192	O	2.309315	0.476770	-0.222912
N193	N	1.518256	-0.251779	-0.888627
N194	N	1.851589	0.081554	-0.555293
N195	N	2.184923	0.414887	-0.221960
C196	C	1.451002	-0.285221	-0.861318
C197	C	1.784335	0.048112	-0.527985
C198	C	2.117669	0.381445	-0.194652
O199	O	1.393819	-0.313654	-0.889552
O200	O	1.727152	0.019679	-0.556219
O201	O	2.060485	0.353013	-0.222886
C202	C	1.450984	-0.285233	-0.806715
C203	C	1.784318	0.048101	-0.473382
C204	C	2.117651	0.381434	-0.140048
C205	C	1.518226	-0.251805	-0.779419
C206	C	1.851559	0.081528	-0.446086
C207	C	2.184892	0.414862	-0.112752
C208	C	1.652707	-0.184939	-0.779427
C209	C	1.986041	0.148394	-0.446094
C210	C	2.319374	0.481728	-0.112761
C211	C	1.652695	-0.184954	-0.724827
C212	C	1.986029	0.148379	-0.391493
C213	C	2.319362	0.481712	-0.058160
C214	C	1.585449	-0.218395	-0.697522
C215	C	1.918782	0.114938	-0.364189
C216	C	2.252115	0.448272	-0.030856
C217	C	1.518214	-0.251820	-0.724818
C218	C	1.851547	0.081513	-0.391485
C219	C	2.184880	0.414846	-0.058152
C220	C	1.383726	-0.318672	-0.779408
C221	C	1.717059	0.014661	-0.446074
C222	C	2.050393	0.347995	-0.112741
C223	C	1.383714	-0.318680	-0.724801
C224	C	1.717047	0.014653	-0.391467
C225	C	2.050380	0.347986	-0.058134
C226	C	1.450955	-0.285252	-0.697505
C227	C	1.784288	0.048081	-0.364171
C228	C	2.117621	0.381414	-0.030838
C229	C	1.450955	-0.285276	-0.642913
C230	C	1.784289	0.048057	-0.309580
C231	C	2.117622	0.381390	0.023753
N232	N	1.518184	-0.251847	-0.615614
N233	N	1.851518	0.081486	-0.282281
N234	N	2.184851	0.414820	0.051052
C235	C	1.585431	-0.218406	-0.642919
C236	C	1.918764	0.114927	-0.309586
C237	C	2.252098	0.448260	0.023748
C238	C	1.451043	-0.285194	-0.975989
C239	C	1.784376	0.048139	-0.642656
C240	C	2.117709	0.381473	-0.309322
C241	C	1.451065	-0.285186	-1.030591
C242	C	1.784398	0.048148	-0.697258
C243	C	2.117731	0.381481	-0.363925
C244	C	1.585547	-0.218314	-1.030597
C245	C	1.918880	0.115020	-0.697264
C246	C	2.252213	0.448353	-0.363930
C247	C	1.585529	-0.218325	-0.975994
C248	C	1.918863	0.115008	-0.642660
C249	C	2.252196	0.448342	-0.309327
C250	C	1.518272	-0.251765	-0.948690
C251	C	1.851605	0.081568	-0.615357
C252	C	2.184938	0.414902	-0.282024
C253	C	1.585402	-0.218441	-0.528254
C254	C	1.918735	0.114892	-0.194920
C255	C	2.252068	0.448225	0.138413
C256	C	1.585387	-0.218461	-0.473648
C257	C	1.918720	0.114872	-0.140315
C258	C	2.252054	0.448206	0.193018
C259	C	1.450901	-0.285331	-0.473648
C260	C	1.784235	0.048002	-0.140314
C261	C	2.117568	0.381336	0.193019
C262	C	1.450920	-0.285314	-0.528248
C263	C	1.784253	0.048020	-0.194915
C264	C	2.117586	0.381353	0.138418
C265	C	1.518173	-0.251864	-0.555550
C266	C	1.851507	0.081469	-0.222217
C267	C	2.184840	0.414802	0.111117
O268	O	1.393818	-0.313713	-0.614628
O269	O	1.727151	0.019620	-0.281295
O270	O	2.060485	0.352953	0.052038
O271	O	1.642595	-0.189974	-0.614678
O272	O	1.975928	0.143360	-0.281345
O273	O	2.309262	0.476693	0.051988
C274	C	1.518119	-0.251886	-0.116014
C275	C	1.851452	0.081447	0.217319
C276	C	2.184785	0.414780	0.550652
C277	C	1.518308	-0.251743	-0.057901
C278	C	1.851641	0.081590	0.275433
C279	C	2.184975	0.414924	0.608766
H280	H	1.118253	-0.191343	-0.312636
H281	H	1.451586	0.141990	0.020697
H282	H	1.784920	0.475323	0.354030
F283	F	0.905501	-0.183007	-0.321018
F284	F	1.238834	0.150326	0.012315
F285	F	1.572168	0.483659	0.345649
H286	H	1.328932	-0.345906	-0.702573
H287	H	1.662265	-0.012573	-0.369240
H288	H	1.995599	0.320761	-0.035906
F289	F	1.379146	-0.444156	-0.320805
F290	F	1.712480	-0.110823	0.012528
F291	F	2.045813	0.222511	0.345862
F292	F	1.131763	-0.320831	-0.182696
F293	F	1.465096	0.012502	0.150638
F294	F	1.798429	0.345836	0.483971
H295	H	1.640281	-0.191104	-0.953773
H296	H	1.973615	0.142229	-0.620439
H297	H	2.306948	0.475562	-0.287106
H298	H	1.640147	-0.191240	-0.451426
H299	H	1.973480	0.142094	-0.118093
H300	H	2.306813	0.475427	0.215240
H301	H	1.396176	-0.312538	-0.550474
H302	H	1.729510	0.020795	-0.217140
H303	H	2.062843	0.354129	0.116193
F304	F	0.905260	-0.320846	-0.182713
F305	F	1.238593	0.012487	0.150621
F306	F	1.571926	0.345821	0.483954
H307	H	1.639925	-0.450909	-0.191223
H308	H	1.973258	-0.117576	0.142110
H309	H	2.306592	0.215757	0.475443
H310	H	1.396383	-1.052382	-0.312515
H311	H	1.729717	-0.719049	0.020818
H312	H	2.063050	-0.385716	0.354152
H313	H	1.396154	-0.312559	-0.451406
H314	H	1.729487	0.020774	-0.118073
H315	H	2.062821	0.354107	0.215260
F316	F	1.379507	-0.946512	-0.320866
F317	F	1.712841	-0.613179	0.012468
F318	F	2.046174	-0.279846	0.345801
F319	F	1.312201	-0.808048	-0.354275
F320	F	1.645534	-0.474715	-0.020942
F321	F	1.978868	-0.141381	0.312391
F322	F	1.656976	-0.182839	-0.557303
F323	F	1.990309	0.150495	-0.223969
F324	F	2.323643	0.483828	0.109364
F325	F	1.312161	-0.354253	-0.808447
F326	F	1.645494	-0.020919	-0.475113
F327	F	1.978827	0.312414	-0.141780
H328	H	1.640022	-0.549960	-0.191239
H329	H	1.973355	-0.216627	0.142094
H330	H	2.306689	0.116707	0.475427
H331	H	1.707439	-0.801112	-0.157861
H332	H	2.040772	-0.467779	0.175472
H333	H	2.374105	-0.134445	0.508805
F334	F	1.312126	-0.695347	-0.354259
F335	F	1.645460	-0.362014	-0.020926
F336	F	1.978793	-0.028680	0.312408
F337	F	1.724178	-0.695236	-0.149497
F338	F	2.057511	-0.361903	0.183837
F339	F	2.390845	-0.028569	0.517170
H340	H	1.640304	-0.953256	-0.191280
H341	H	1.973638	-0.619922	0.142054
H342	H	2.306971	-0.286589	0.475387
H343	H	1.640371	-1.052321	-0.191296
H344	H	1.973704	-0.718988	0.142038
H345	H	2.307038	-0.385655	0.475371
F346	F	1.379512	-0.320771	-1.059636
F347	F	1.712846	0.012562	-0.726303
F348	F	2.046179	0.345895	-0.392969
H349	H	1.396034	-0.550045	-0.312469
H350	H	1.729367	-0.216712	0.020864
H351	H	2.062700	0.116621	0.354197
F352	F	1.724258	-0.149373	-0.695783
F353	F	2.057591	0.183960	-0.362450
F354	F	2.390924	0.517294	-0.029116
H355	H	1.707468	-0.157705	-0.801653
H356	H	2.040801	0.175629	-0.468319
H357	H	2.374134	0.508962	-0.134986
F358	F	1.657116	-0.182722	-1.059666
F359	F	1.990449	0.150612	-0.726333
F360	F	2.323782	0.483945	-0.392999
F361	F	1.379460	-0.320791	-0.946935
F362	F	1.712793	0.012542	-0.613602
F363	F	2.046127	0.345875	-0.280269
