data_functionalizedCrystal
_audit_creation_method	'MofGen! by Chris Wilmer'
_symmetry_space_group_name_H-M	'P1'
_symmetry_Int_Tables_number	1
_symmetry_cell_setting	triclinic
loop_
_symmetry_equiv_pos_as_xyz
  x,y,z
_cell_length_a	10.723024
_cell_length_b	10.723022
_cell_length_c	9.198806
_cell_angle_alpha	89.996352
_cell_angle_beta	89.997988
_cell_angle_gamma	84.467548
loop_
_atom_site_label
_atom_site_type_symbol
_atom_site_fract_x
_atom_site_fract_y
_atom_site_fract_z
O1	O	0.175015	1.657189	-0.120879
O2	O	0.675015	2.157189	0.379121
O3	O	0.191770	1.294036	-0.120884
O4	O	0.691770	1.794036	0.379116
O5	O	0.001817	1.483989	-0.120876
O6	O	0.501817	1.983989	0.379124
O7	O	0.364969	1.467236	-0.120887
O8	O	0.864969	1.967236	0.379113
O9	O	0.001816	1.483974	0.120909
O10	O	0.501816	1.983974	0.620909
O11	O	0.191770	1.294021	0.120901
O12	O	0.691770	1.794021	0.620901
O13	O	0.175015	1.657174	0.120906
O14	O	0.675015	2.157174	0.620906
Cu15	Cu	0.183392	1.475596	0.142981
Cu16	Cu	0.683392	1.975596	0.642981
Cu17	Cu	0.183393	1.475614	-0.142958
Cu18	Cu	0.683393	1.975614	0.357042
O19	O	0.364969	1.467221	0.120898
O20	O	0.864969	1.967221	0.620898
C21	C	0.190551	1.247529	0.000008
C22	C	0.690551	1.747529	0.500008
C23	C	0.186904	1.108975	0.000007
C24	C	0.686904	1.608975	0.500007
C25	C	0.077365	1.060414	0.000009
C26	C	0.577365	1.560414	0.500009
C27	C	0.073593	0.917211	0.000007
C28	C	0.573593	1.417211	0.500007
C29	C	-0.044683	1.482763	0.000015
C30	C	0.455317	1.982763	0.500015
C31	C	-0.183238	1.479115	0.000010
C32	C	0.316762	1.979115	0.500010
C33	C	-0.258221	1.585403	0.000009
C34	C	0.241779	2.085403	0.500009
C35	C	-0.401424	1.581635	0.000004
C36	C	0.098576	2.081635	0.500004
C37	C	0.411468	1.468448	0.000004
C38	C	0.911468	1.968448	0.500004
C39	C	0.550023	1.472095	-0.000000
C40	C	1.050023	1.972095	0.500000
C41	C	0.176234	1.703681	0.000011
C42	C	0.676234	2.203681	0.500011
C43	C	0.179881	1.842235	0.000003
C44	C	0.679881	2.342235	0.500003
N45	N	0.183391	1.475593	0.344095
N46	N	0.683391	1.975593	0.844095
N47	N	0.183384	1.475627	-0.344072
N48	N	0.683384	1.975627	0.155928
C49	C	0.103283	1.555348	0.416295
C50	C	0.603283	2.055348	0.916295
C51	C	0.103279	1.555368	0.583707
C52	C	0.603279	2.055368	1.083707
H53	H	0.273673	0.884039	0.000009
H54	H	0.773673	1.384039	0.500009
Cl55	Cl	-0.002886	1.660470	0.320389
Cl56	Cl	0.497114	2.160470	0.820389
Cl57	Cl	0.289272	1.370181	0.440001
Cl58	Cl	0.789272	1.870181	0.940001
Cl59	Cl	-0.002608	1.660802	0.679562
Cl60	Cl	0.497392	2.160802	1.179562
Cl61	Cl	-0.063123	1.159898	0.000010
Cl62	Cl	0.436877	1.659898	0.500010
Cl63	Cl	0.327392	1.009490	-0.000010
Cl64	Cl	0.827392	1.509490	0.499990
H65	H	0.251976	1.407346	0.593848
H66	H	0.751976	1.907346	1.093848
H67	H	-0.216399	1.679188	0.000019
H68	H	0.283601	2.179188	0.500019
Cl69	Cl	-0.247795	1.334309	-0.000007
Cl70	Cl	0.252205	1.834309	0.499993
Cl71	Cl	-0.071215	0.852664	0.000022
Cl72	Cl	0.428785	1.352664	0.500022
Cl73	Cl	-0.350511	1.331600	0.000012
Cl74	Cl	0.149489	1.831600	0.500012
H75	H	-0.465857	1.672625	0.000010
H76	H	0.034143	2.172625	0.500010
