data_functionalizedCrystal
_audit_creation_method	'MofGen! by Chris Wilmer'
_symmetry_space_group_name_H-M	'P1'
_symmetry_Int_Tables_number	1
_symmetry_cell_setting	triclinic
loop_
_symmetry_equiv_pos_as_xyz
  x,y,z
_cell_length_a	12.827892
_cell_length_b	12.827893
_cell_length_c	12.827885
_cell_angle_alpha	90.021189
_cell_angle_beta	90.029976
_cell_angle_gamma	90.013411
loop_
_atom_site_label
_atom_site_type_symbol
_atom_site_fract_x
_atom_site_fract_y
_atom_site_fract_z
Zn1	Zn	0.416038	-1.597670	-0.590901
Zn2	Zn	0.590815	-1.597564	-0.416160
Zn3	Zn	0.416083	-1.422911	-0.416169
Zn4	Zn	0.590731	-1.422896	-0.590855
O5	O	0.503417	-1.510260	-0.503521
O6	O	0.439238	-1.743892	-0.567737
O7	O	0.567690	-1.574358	-0.269925
O8	O	0.269841	-1.446144	-0.439370
O9	O	0.567647	-1.743814	-0.439356
O10	O	0.269808	-1.574538	-0.567745
O11	O	0.439315	-1.446041	-0.269931
O12	O	0.439234	-1.276673	-0.439325
O13	O	0.567504	-1.446118	-0.737097
O14	O	0.567548	-1.276662	-0.567666
O15	O	0.439157	-1.574524	-0.737131
O16	O	0.737040	-1.574343	-0.439311
O17	O	0.736978	-1.446016	-0.567658
C18	C	0.503387	-1.238750	-0.503492
C19	C	0.503400	-1.122597	-0.503504
C20	C	0.774927	-1.510195	-0.503502
C21	C	0.891080	-1.510262	-0.503528
C22	C	0.566991	-1.070835	-0.566912
C23	C	0.567005	-0.950784	-0.566926
C24	C	0.230846	-1.510354	-0.503563
C25	C	0.114693	-1.510394	-0.503581
C26	C	0.942765	-1.573768	-0.567109
C27	C	1.062815	-1.573839	-0.567138
C28	C	0.503316	-1.510331	-0.776091
C29	C	0.503274	-1.510362	-0.892245
C30	C	0.503438	-0.782830	-0.503542
C31	C	0.503426	-0.898983	-0.503530
C32	C	0.439751	-1.573907	-0.944046
C33	C	0.439705	-1.573940	-1.064097
C34	C	0.503441	-1.510249	-0.232011
C35	C	0.503190	-1.510422	-0.115859
H36	H	0.621451	-0.906270	-0.621209
O37	O	0.944423	-1.445406	-0.438757
C38	C	1.067855	-1.304462	-0.424718
C39	C	1.007532	-1.377866	-0.498189
H40	H	1.118877	-1.249824	-0.472740
H41	H	1.119031	-1.352487	-0.370195
H42	H	1.010248	-1.256685	-0.376819
H43	H	1.065064	-1.425659	-0.546156
H44	H	0.956341	-1.329782	-0.552643
H45	H	0.385325	-1.628348	-1.108645
O46	O	0.889417	-1.638423	-0.632078
C47	C	0.765985	-1.652207	-0.773079
C48	C	0.826315	-1.578867	-0.699549
H49	H	0.714969	-1.604084	-0.827662
H50	H	0.714802	-1.706779	-0.725150
H51	H	0.823587	-1.700058	-0.820909
H52	H	0.768788	-1.530948	-0.651703
H53	H	0.877513	-1.524363	-0.747538
H54	H	0.557617	-1.455975	-0.936772
O55	O	0.631786	-1.124102	-0.631716
C56	C	0.645880	-1.247480	-0.772697
C57	C	0.572381	-1.187242	-0.699354
H58	H	0.597879	-1.298527	-0.827414
H59	H	0.700394	-1.298623	-0.724630
H60	H	0.693787	-1.189818	-0.820392
H61	H	0.524406	-1.244829	-0.651643
H62	H	0.517936	-1.136083	-0.747480
H63	H	0.385397	-1.628283	-0.899519
O64	O	1.115994	-1.638607	-0.632048
C65	C	1.284137	-1.697808	-0.691184
C66	C	1.224040	-1.624386	-0.617636
H67	H	1.371502	-1.686352	-0.679542
H68	H	1.262769	-1.679414	-0.775469
H69	H	1.262618	-1.782077	-0.672938
H70	H	1.245526	-1.540093	-0.635788
H71	H	1.245413	-1.642870	-0.533374
H72	H	0.448964	-1.078036	-0.449234
O73	O	1.061730	-1.445635	-0.438487
C74	C	1.028359	-1.394966	-0.260709
C75	C	1.088395	-1.468387	-0.334307
H76	H	1.049912	-1.413320	-0.176465
H77	H	0.940973	-1.406468	-0.272164
H78	H	1.049802	-1.310693	-0.279027
H79	H	1.067039	-1.552688	-0.316035
H80	H	1.175766	-1.456795	-0.322838
O81	O	0.568127	-1.445660	-1.062611
C82	C	0.709191	-1.431644	-0.939277
C83	C	0.635699	-1.505101	-0.999508
H84	H	0.763856	-1.479673	-0.888260
H85	H	0.661238	-1.377070	-0.888104
H86	H	0.756936	-1.383799	-0.996943
H87	H	0.587939	-1.553013	-0.941916
H88	H	0.683712	-1.559606	-1.050696
H89	H	0.448984	-0.943491	-0.449238
