data_functionalizedCrystal
_audit_creation_method	'MofGen! by Chris Wilmer'
_symmetry_space_group_name_H-M	'P1'
_symmetry_Int_Tables_number	1
_symmetry_cell_setting	triclinic
loop_
_symmetry_equiv_pos_as_xyz
  x,y,z
_cell_length_a	14.971491
_cell_length_b	16.992695
_cell_length_c	14.048226
_cell_angle_alpha	89.993436
_cell_angle_beta	89.991693
_cell_angle_gamma	87.142229
loop_
_atom_site_label
_atom_site_type_symbol
_atom_site_fract_x
_atom_site_fract_y
_atom_site_fract_z
O1	O	1.194125	0.102209	-0.079203
O2	O	1.694125	0.602209	0.420797
O3	O	0.934585	0.114442	-0.079196
O4	O	1.434585	0.614442	0.420804
O5	O	1.063315	-0.005818	-0.079192
O6	O	1.563315	0.494182	0.420808
O7	O	1.065396	0.222469	-0.079207
O8	O	1.565396	0.722469	0.420793
O9	O	1.063298	-0.005825	0.079130
O10	O	1.563298	0.494175	0.579130
O11	O	0.934568	0.114435	0.079125
O12	O	1.434568	0.614435	0.579125
O13	O	1.194108	0.102202	0.079119
O14	O	1.694108	0.602202	0.579119
Zn15	Zn	1.064336	0.108317	0.104259
Zn16	Zn	1.564336	0.608317	0.604259
Zn17	Zn	1.064358	0.108327	-0.104336
Zn18	Zn	1.564358	0.608327	0.395664
O19	O	1.065379	0.222462	0.079114
O20	O	1.565379	0.722462	0.579114
C21	C	0.901214	0.113891	-0.000034
C22	C	1.401214	0.613891	0.499966
C23	C	0.801802	0.112249	-0.000031
C24	C	1.301802	0.612249	0.499969
C25	C	0.373608	0.105169	-0.086354
C26	C	0.873608	0.605169	0.413646
C27	C	0.467016	0.106709	-0.086350
C28	C	0.967016	0.606709	0.413650
C29	C	0.513707	0.107481	-0.000046
C30	C	1.013707	0.607481	0.499954
C31	C	0.466985	0.106704	0.086260
C32	C	0.966985	0.606704	0.586260
C33	C	0.373579	0.105158	0.086256
C34	C	0.873579	0.605158	0.586256
C35	C	0.661674	0.109928	0.086263
C36	C	1.161674	0.609928	0.586263
C37	C	0.755086	0.111475	0.086268
C38	C	1.255086	0.611475	0.586268
C39	C	0.755111	0.111479	-0.086343
C40	C	1.255111	0.611479	0.413657
C41	C	0.661704	0.109933	-0.086347
C42	C	1.161704	0.609933	0.413653
C43	C	0.614989	0.109158	-0.000040
C44	C	1.114989	0.609158	0.499960
C45	C	1.060630	-0.035037	-0.000031
C46	C	1.560630	0.464963	0.499969
C47	C	1.052643	-0.122088	-0.000031
C48	C	1.552643	0.377912	0.499969
C49	C	1.129707	-0.172255	-0.000032
C50	C	1.629707	0.327745	0.499968
C51	C	1.122197	-0.254049	-0.000041
C52	C	1.622197	0.245951	0.499959
C53	C	1.037622	-0.285674	-0.000042
C54	C	1.537622	0.214326	0.499958
C55	C	0.960552	-0.235501	-0.000044
C56	C	1.460552	0.264499	0.499956
C57	C	0.968063	-0.153709	-0.000042
C58	C	1.468063	0.346291	0.499958
C59	C	1.006492	-0.529302	-0.000054
C60	C	1.506492	-0.029302	0.499946
C61	C	0.998987	-0.611100	-0.000053
C62	C	1.498987	-0.111100	0.499947
C63	C	1.160633	-0.629643	-0.000052
C64	C	1.660633	-0.129643	0.499948
C65	C	1.168136	-0.547848	-0.000045
C66	C	1.668136	-0.047848	0.499955
C67	C	1.091066	-0.497682	-0.000052
C68	C	1.591066	0.002318	0.499948
N69	N	1.029943	-0.369281	-0.000048
N70	N	1.529943	0.130719	0.499952
N71	N	1.098746	-0.414078	-0.000052
N72	N	1.598746	0.085922	0.499948
C73	C	1.227480	0.102753	-0.000045
C74	C	1.727480	0.602753	0.499955
C75	C	1.326892	0.104395	-0.000054
C76	C	1.826892	0.604395	0.499946
C77	C	1.068064	0.251681	-0.000048
C78	C	1.568064	0.751681	0.499952
C79	C	1.076051	0.338733	-0.000054
C80	C	1.576051	0.838733	0.499946
N81	N	1.064327	0.108311	0.246620
N82	N	1.564327	0.608311	0.746620
N83	N	1.064374	0.108327	-0.246697
N84	N	1.564374	0.608327	0.253303
C85	C	1.121349	0.055081	0.296440
C86	C	1.621349	0.555081	0.796440
C87	C	1.121355	0.055081	0.396097
C88	C	1.621355	0.555081	0.896097
C89	C	1.064343	0.108314	0.445933
C90	C	1.564343	0.608314	0.945933
C91	C	1.007314	0.161546	0.396106
C92	C	1.507314	0.661546	0.896106
C93	C	1.007305	0.161542	0.296450
C94	C	1.507305	0.661542	0.796450
C95	C	1.007341	0.161552	0.603821
C96	C	1.507341	0.661552	1.103821
C97	C	1.007352	0.161557	0.703483
C98	C	1.507352	0.661557	1.203483
C99	C	1.121391	0.055091	0.703467
C100	C	1.621391	0.555091	1.203467
C101	C	1.121381	0.055087	0.603811
C102	C	1.621381	0.555087	1.103811
C103	C	1.064354	0.108320	0.553991
C104	C	1.564354	0.608320	1.053991
H105	H	0.335544	0.104536	0.156530
H106	H	0.835544	0.604536	0.656530
H107	H	0.891689	-0.261257	-0.000051
H108	H	1.391689	0.238743	0.499949
H109	H	0.943736	-0.488466	-0.000060
H110	H	1.443736	0.011534	0.499940
H111	H	0.960870	0.204885	0.255888
H112	H	1.460870	0.704885	0.755888
H113	H	0.905308	-0.112863	-0.000041
H114	H	1.405308	0.387137	0.499959
H115	H	0.335598	0.104547	-0.156633
H116	H	0.835598	0.604547	0.343367
H117	H	1.167779	0.011736	0.255870
H118	H	1.667779	0.511736	0.755870
Cl119	Cl	0.935636	0.228465	0.458755
Cl120	Cl	1.435636	0.728465	0.958755
H121	H	1.167786	0.011737	0.436660
H122	H	1.667786	0.511737	0.936660
Cl123	Cl	1.193059	-0.011830	0.541159
Cl124	Cl	1.693059	0.488170	1.041159
H125	H	1.198577	-0.146513	-0.000026
H126	H	1.698577	0.353487	0.499974
H127	H	1.167824	0.011747	0.744036
H128	H	1.667824	0.511747	1.244036
Cl129	Cl	0.525741	0.107679	-0.194847
Cl130	Cl	1.025741	0.607679	0.305153
Cl131	Cl	0.935673	0.228480	0.766127
Cl132	Cl	1.435673	0.728480	1.266127
H133	H	0.960900	0.204897	0.563260
H134	H	1.460900	0.704897	1.063260
H135	H	1.184951	-0.294892	-0.000040
H136	H	1.684951	0.205108	0.499960
Cl137	Cl	0.603008	0.108970	-0.194846
Cl138	Cl	1.103008	0.608970	0.305154
H139	H	0.793151	0.112111	-0.156617
H140	H	1.293151	0.612111	0.343383
H141	H	1.237006	-0.522106	-0.000044
H142	H	1.737006	-0.022106	0.499956
H143	H	0.793099	0.112107	0.156545
H144	H	1.293099	0.612107	0.656545
Cl145	Cl	0.602948	0.108944	0.194765
Cl146	Cl	1.102948	0.608944	0.694765
Cl147	Cl	0.892656	-0.650856	-0.000049
Cl148	Cl	1.392656	-0.150856	0.499951
Cl149	Cl	0.525683	0.107672	0.194758
Cl150	Cl	1.025683	0.607672	0.694758
Cl151	Cl	1.257514	-0.692713	-0.000047
Cl152	Cl	1.757514	-0.192713	0.499953
