data_functionalizedCrystal
_audit_creation_method	'MofGen! by Chris Wilmer'
_symmetry_space_group_name_H-M	'P1'
_symmetry_Int_Tables_number	1
_symmetry_cell_setting	triclinic
loop_
_symmetry_equiv_pos_as_xyz
  x,y,z
_cell_length_a	17.038272
_cell_length_b	16.109301
_cell_length_c	16.098524
_cell_angle_alpha	86.937360
_cell_angle_beta	92.876406
_cell_angle_gamma	92.713482
loop_
_atom_site_label
_atom_site_type_symbol
_atom_site_fract_x
_atom_site_fract_y
_atom_site_fract_z
O1	O	0.103613	-1.113806	0.069205
O2	O	0.436947	-0.780472	0.402538
O3	O	0.770280	-0.447139	0.735871
O4	O	0.116120	-0.872633	0.069218
O5	O	0.449454	-0.539299	0.402551
O6	O	0.782787	-0.205966	0.735885
O7	O	-0.003949	-0.991785	0.069205
O8	O	0.329384	-0.658452	0.402538
O9	O	0.662718	-0.325119	0.735871
O10	O	0.223682	-0.994653	0.069218
O11	O	0.557016	-0.661320	0.402551
O12	O	0.890349	-0.327986	0.735884
O13	O	-0.010192	-0.984695	-0.069309
O14	O	0.323141	-0.651362	0.264025
O15	O	0.656475	-0.318029	0.597358
O16	O	0.109877	-0.865543	-0.069296
O17	O	0.443211	-0.532209	0.264038
O18	O	0.776544	-0.198876	0.597371
O19	O	0.097370	-1.106716	-0.069309
O20	O	0.430704	-0.773382	0.264025
O21	O	0.764037	-0.440049	0.597358
Zn22	Zn	0.102633	-0.985003	-0.091294
Zn23	Zn	0.435966	-0.651670	0.242039
Zn24	Zn	0.769299	-0.318337	0.575373
Zn25	Zn	0.110858	-0.994345	0.091203
Zn26	Zn	0.444191	-0.661012	0.424537
Zn27	Zn	0.777525	-0.327678	0.757870
O28	O	0.217439	-0.987563	-0.069296
O29	O	0.550773	-0.654229	0.264038
O30	O	0.884106	-0.320896	0.597371
C31	C	0.112492	-0.838077	-0.000037
C32	C	0.445826	-0.504743	0.333296
C33	C	0.779159	-0.171410	0.666630
C34	C	0.110974	-0.745674	-0.000032
C35	C	0.444307	-0.412341	0.333301
C36	C	0.777640	-0.079007	0.666634
C37	C	-0.036199	-0.985633	-0.000052
C38	C	0.297135	-0.652300	0.333282
C39	C	0.630468	-0.318966	0.666615
C40	C	-0.122991	-0.977854	-0.000051
C41	C	0.210342	-0.644521	0.333282
C42	C	0.543675	-0.311187	0.666616
N43	N	0.097018	-0.978634	-0.215844
N44	N	0.430352	-0.645301	0.117490
N45	N	0.763685	-0.311967	0.450823
C46	C	-0.173106	-1.049275	-0.000056
C47	C	0.160227	-0.715941	0.333277
C48	C	0.493560	-0.382608	0.666611
C49	C	-0.254657	-1.041961	-0.000048
C50	C	0.078677	-0.708627	0.333286
C51	C	0.412010	-0.375294	0.666619
C52	C	-0.286090	-0.963225	-0.000040
C53	C	0.047243	-0.629892	0.333293
C54	C	0.380576	-0.296559	0.666626
C55	C	-0.235969	-0.891800	-0.000033
C56	C	0.097365	-0.558467	0.333300
C57	C	0.430698	-0.225133	0.666634
C58	C	-0.154420	-0.899115	-0.000035
C59	C	0.178913	-0.565781	0.333298
C60	C	0.512247	-0.232448	0.666631
C61	C	-0.531847	-0.937384	-0.000028
C62	C	-0.198514	-0.604050	0.333306
C63	C	0.134819	-0.270717	0.666639
C64	C	-0.613403	-0.930074	-0.000028
C65	C	-0.280069	-0.596741	0.333306
C66	C	0.053264	-0.263407	0.666639
C67	C	-0.632085	-1.080236	-0.000041
C68	C	-0.298752	-0.746903	0.333293
C69	C	0.034582	-0.413569	0.666626
C70	C	-0.550534	-1.087544	-0.000048
C71	C	-0.217201	-0.754210	0.333285
C72	C	0.116133	-0.420877	0.666619
C73	C	-0.500419	-1.016118	-0.000036
C74	C	-0.167086	-0.682785	0.333297
C75	C	0.166247	-0.349451	0.666630
C76	C	-0.369448	-0.955748	-0.000035
C77	C	-0.036114	-0.622414	0.333299
C78	C	0.297219	-0.289081	0.666632
C79	C	-0.417063	-1.023597	-0.000036
C80	C	-0.083730	-0.690264	0.333297
C81	C	0.249603	-0.356930	0.666630
C82	C	0.249689	-0.993715	-0.000037
C83	C	0.583023	-0.660382	0.333296
C84	C	0.916356	-0.327049	0.666629
C85	C	0.336482	-1.001495	-0.000033
C86	C	0.669816	-0.668161	0.333301
C87	C	1.003149	-0.334828	0.666634
C88	C	0.100998	-1.141272	-0.000052
C89	C	0.434332	-0.807938	0.333281
C90	C	0.767665	-0.474605	0.666615
C91	C	0.102517	-1.233675	-0.000051
C92	C	0.435851	-0.900341	0.333282
C93	C	0.769184	-0.567008	0.666615
C94	C	0.178688	-0.528210	-0.000038
C95	C	0.512021	-0.194877	0.333295
C96	C	0.845355	0.138456	0.666629
C97	C	0.177255	-0.441388	-0.000043
C98	C	0.510588	-0.108054	0.333290
C99	C	0.843921	0.225279	0.666623
C100	C	0.034797	-0.451145	-0.000048
C101	C	0.368131	-0.117811	0.333285
C102	C	0.701464	0.215522	0.666619
C103	C	0.036231	-0.537965	-0.000049
C104	C	0.369564	-0.204632	0.333285
C105	C	0.702898	0.128701	0.666618
C106	C	0.108179	-0.576496	-0.000039
C107	C	0.441512	-0.243162	0.333294
C108	C	0.774846	0.090171	0.666627
C109	C	0.105312	-0.402853	-0.000044
C110	C	0.438645	-0.069519	0.333289
C111	C	0.771978	0.263814	0.666622
C112	C	0.103757	-0.308716	-0.000050
C113	C	0.437090	0.024617	0.333283
C114	C	0.770424	0.357951	0.666617
C115	C	0.109734	-0.670638	-0.000035
C116	C	0.443068	-0.337305	0.333298
C117	C	0.776401	-0.003972	0.666632
C118	C	0.142490	-1.030183	-0.259425
C119	C	0.475823	-0.696850	0.073908
C120	C	0.809157	-0.363516	0.407241
C121	C	0.138558	-1.025738	-0.346615
C122	C	0.471891	-0.692405	-0.013281
C123	C	0.805224	-0.359071	0.320052
C124	C	0.089157	-0.969740	-0.390221
C125	C	0.422490	-0.636406	-0.056887
C126	C	0.755824	-0.303073	0.276446
C127	C	0.043680	-0.918189	-0.346633
C128	C	0.377014	-0.584856	-0.013300
C129	C	0.710347	-0.251522	0.320034
C130	C	0.047609	-0.922638	-0.259445
C131	C	0.380942	-0.589305	0.073888
C132	C	0.714276	-0.255972	0.407221
C133	C	0.074918	-0.953619	-0.653472
C134	C	0.408251	-0.620285	-0.320138
C135	C	0.741584	-0.286952	0.013195
C136	C	0.070994	-0.949171	-0.740666
C137	C	0.404327	-0.615838	-0.407332
C138	C	0.737661	-0.282505	-0.073999
C139	C	0.165871	-1.056722	-0.740641
C140	C	0.499204	-0.723389	-0.407308
C141	C	0.832538	-0.390056	-0.073975
C142	C	0.169799	-1.061163	-0.653452
C143	C	0.503132	-0.727830	-0.320119
C144	C	0.836465	-0.394497	0.013215
C145	C	0.124319	-1.009616	-0.609872
C146	C	0.457652	-0.676282	-0.276538
C147	C	0.790986	-0.342949	0.056795
C148	C	0.085138	-0.965193	-0.479342
C149	C	0.418472	-0.631860	-0.146009
C150	C	0.751805	-0.298527	0.187325
C151	C	0.128334	-1.014167	-0.520752
C152	C	0.461667	-0.680833	-0.187419
C153	C	0.795001	-0.347500	0.145915
N154	N	0.116466	-1.000720	0.215753
N155	N	0.449799	-0.667387	0.549086
N156	N	0.783133	-0.334054	0.882419
H157	H	-0.147520	-1.113389	-0.000067
H158	H	0.185813	-0.780056	0.333267
H159	H	0.519146	-0.446722	0.666600
H160	H	0.210024	-1.106765	-0.617954
H161	H	0.543357	-0.773432	-0.284620
H162	H	0.876690	-0.440099	0.048713
H163	H	-0.672896	-1.138386	-0.000049
H164	H	-0.339563	-0.805053	0.333285
H165	H	-0.006230	-0.471720	0.666618
Cl166	Cl	0.023043	-0.894791	-0.534168
Cl167	Cl	0.356376	-0.561458	-0.200835
Cl168	Cl	0.689710	-0.228124	0.132498
H169	H	-0.113616	-0.840956	-0.000031
H170	H	0.219717	-0.507623	0.333302
H171	H	0.553050	-0.174290	0.666635
H172	H	-0.021189	-0.577281	-0.000052
H173	H	0.312144	-0.243948	0.333281
H174	H	0.645477	0.089386	0.666615
Cl175	Cl	0.223040	-1.121523	-0.795432
Cl176	Cl	0.556373	-0.788189	-0.462099
Cl177	Cl	0.889707	-0.454856	-0.128766
Cl178	Cl	0.269136	-0.576645	-0.000032
Cl179	Cl	0.602470	-0.243312	0.333302
Cl180	Cl	0.935803	0.090021	0.666635
H181	H	0.030767	-0.903566	-0.776167
H182	H	0.364100	-0.570233	-0.442834
H183	H	0.697433	-0.236900	-0.109501
Cl184	Cl	-0.275485	-0.792818	-0.000014
Cl185	Cl	0.057848	-0.459485	0.333320
Cl186	Cl	0.391181	-0.126151	0.666653
Cl187	Cl	-0.317656	-1.131751	-0.000056
Cl188	Cl	0.015678	-0.798418	0.333277
Cl189	Cl	0.349011	-0.465085	0.666611
H190	H	0.175584	-1.067716	-0.382095
H191	H	0.508917	-0.734383	-0.048762
H192	H	0.842251	-0.401050	0.284572
Cl193	Cl	0.204598	-1.100584	-0.204615
Cl194	Cl	0.537931	-0.767250	0.128718
Cl195	Cl	0.871265	-0.433917	0.462052
Cl196	Cl	0.190433	-1.084565	-0.465932
Cl197	Cl	0.523766	-0.751232	-0.132598
Cl198	Cl	0.857099	-0.417898	0.200735
H199	H	-0.491053	-0.879224	-0.000018
H200	H	-0.157720	-0.545890	0.333315
H201	H	0.175613	-0.212557	0.666648
H202	H	-0.023781	-0.419762	-0.000061
H203	H	0.309553	-0.086429	0.333273
H204	H	0.642886	0.246905	0.666606
H205	H	-0.524947	-1.151658	-0.000054
H206	H	-0.191614	-0.818325	0.333279
H207	H	0.141720	-0.484991	0.666613
H208	H	0.037884	-0.911645	-0.617999
H209	H	0.371218	-0.578312	-0.284666
H210	H	0.704551	-0.244978	0.048667
Cl211	Cl	-0.652918	-0.831085	-0.000024
Cl212	Cl	-0.319585	-0.497752	0.333310
Cl213	Cl	0.013749	-0.164418	0.666643
Cl214	Cl	-0.018425	-0.847792	-0.401452
Cl215	Cl	0.314908	-0.514458	-0.068119
Cl216	Cl	0.648242	-0.181125	0.265214
Cl217	Cl	-0.377545	-1.122575	-0.000041
Cl218	Cl	-0.044212	-0.789242	0.333292
Cl219	Cl	0.289122	-0.455909	0.666626
H220	H	0.234670	-0.402077	-0.000044
H221	H	0.568004	-0.068744	0.333289
H222	H	0.901337	0.264590	0.666623
H223	H	-0.395050	-0.891641	-0.000031
H224	H	-0.061717	-0.558307	0.333303
H225	H	0.271617	-0.224974	0.666636
H226	H	0.010581	-0.880661	-0.223962
H227	H	0.343915	-0.547328	0.109371
H228	H	0.677248	-0.213995	0.442704
