data_functionalizedCrystal
_audit_creation_method	'MofGen! by Chris Wilmer'
_symmetry_space_group_name_H-M	'P1'
_symmetry_Int_Tables_number	1
_symmetry_cell_setting	triclinic
loop_
_symmetry_equiv_pos_as_xyz
  x,y,z
_cell_length_a	17.077404
_cell_length_b	13.032868
_cell_length_c	13.033255
_cell_angle_alpha	74.859089
_cell_angle_beta	82.798096
_cell_angle_gamma	82.787538
loop_
_atom_site_label
_atom_site_type_symbol
_atom_site_fract_x
_atom_site_fract_y
_atom_site_fract_z
Zn1	Zn	1.214803	0.499084	-0.654202
Zn2	Zn	1.185112	0.654166	-0.499141
Zn3	Zn	1.068745	0.476577	-0.476619
Zn4	Zn	1.068694	0.676642	-0.676682
O5	O	1.134338	0.576617	-0.576661
O6	O	1.320712	0.519669	-0.633651
O7	O	1.157272	0.611783	-0.347532
O8	O	1.100567	0.330933	-0.481343
O9	O	1.298898	0.633607	-0.519728
O10	O	1.207875	0.347469	-0.611812
O11	O	1.071777	0.481309	-0.330986
O12	O	0.958891	0.503104	-0.503141
O13	O	1.100479	0.671914	-0.822321
O14	O	0.958853	0.650090	-0.650126
O15	O	1.207825	0.541463	-0.805805
O16	O	1.157222	0.805777	-0.541526
O17	O	1.071690	0.822290	-0.671965
C18	C	0.930390	0.576594	-0.576629
C19	C	0.843140	0.576613	-0.576644
C20	C	0.802133	0.653238	-0.653084
C21	C	0.720154	0.653242	-0.653101
C22	C	0.679182	0.576626	-0.576673
C23	C	0.720195	0.499994	-0.500230
C24	C	0.802173	0.499985	-0.500218
C25	C	0.549325	0.500018	-0.500258
C26	C	0.467341	0.500027	-0.500268
C27	C	0.467305	0.653275	-0.653141
C28	C	0.549284	0.653267	-0.653129
C29	C	0.590291	0.576635	-0.576684
C30	C	1.111252	0.852575	-0.611651
C31	C	1.101450	0.970635	-0.626656
C32	C	1.139446	1.015071	-0.568855
C33	C	1.129317	1.137093	-0.584361
C34	C	1.339084	0.576641	-0.576694
C35	C	1.426334	0.576651	-0.576708
C36	C	1.157458	0.611707	-0.853677
C37	C	1.167311	0.626660	-0.971724
C38	C	1.157512	1.299584	-0.541546
C39	C	1.167318	1.181525	-0.526553
C40	C	1.139590	0.584222	-1.138179
C41	C	1.129401	0.568765	-1.016170
C42	C	1.111360	0.541588	-0.300714
C43	C	1.101685	0.526336	-0.182629
H44	H	0.582640	0.715660	-0.715358
C45	C	1.075999	0.487403	-0.946674
C46	C	1.042988	0.437013	-1.011329
C47	C	0.993783	0.362070	-0.947347
H48	H	1.106232	0.435591	-0.897525
H49	H	1.034767	0.522568	-0.908573
H50	H	1.084213	0.401849	-1.049412
H51	H	1.012741	0.488797	-1.060476
H52	H	0.952551	0.397234	-0.909247
H53	H	1.024022	0.310265	-0.898202
H54	H	0.971373	0.327878	-0.991207
H55	H	1.089288	1.189382	-0.645335
C56	C	1.220630	1.111629	-0.445268
C57	C	1.220058	1.004494	-0.446018
C58	C	1.269149	0.940075	-0.371144
H59	H	1.273213	1.131529	-0.463069
H60	H	1.201723	1.120692	-0.376157
H61	H	1.238969	0.995436	-0.515113
H62	H	1.167487	0.984561	-0.428205
H63	H	1.250242	0.949138	-0.302033
H64	H	1.321730	0.959984	-0.388952
H65	H	1.268762	0.867376	-0.371635
C66	C	1.220530	0.708173	-1.041378
C67	C	1.192400	0.809881	-1.027814
C68	C	1.241398	0.884995	-1.091975
H69	H	1.273091	0.690498	-1.021353
H70	H	1.220276	0.707820	-1.114137
H71	H	1.192662	0.810232	-0.955071
H72	H	1.139845	0.827589	-1.047846
H73	H	1.241144	0.884642	-1.164734
H74	H	1.293956	0.867310	-1.071944
H75	H	1.222315	0.954014	-1.082788
H76	H	0.835486	0.715631	-0.715317
C77	C	1.193041	0.665487	-1.207724
C78	C	1.270410	0.638999	-1.177881
C79	C	1.319670	0.713845	-1.241911
H80	H	1.192903	0.665134	-1.280490
H81	H	1.174118	0.734584	-1.198619
H82	H	1.289329	0.569921	-1.186996
H83	H	1.270574	0.639360	-1.105126
H84	H	1.300746	0.782942	-1.232805
H85	H	1.319525	0.713486	-1.314673
H86	H	1.372168	0.695889	-1.221665
H87	H	1.061687	0.465337	-1.130358
H88	H	1.061425	1.022928	-0.687625
H89	H	0.686830	0.437607	-0.438005
H90	H	0.686769	0.715639	-0.715345
H91	H	0.835561	0.437585	-0.437978
H92	H	0.433986	0.437628	-0.438045
C93	C	0.422775	0.736315	-0.736255
C94	C	0.386453	0.684931	-0.796849
C95	C	0.345431	0.761395	-0.873426
H96	H	0.383470	0.777413	-0.701543
H97	H	0.458901	0.781935	-0.781824
H98	H	0.350330	0.639330	-0.751286
H99	H	0.425741	0.643839	-0.831584
H100	H	0.381557	0.807014	-0.918995
H101	H	0.306130	0.802488	-0.838705
H102	H	0.320788	0.726542	-0.914554
C103	C	0.593932	0.416987	-0.417220
C104	C	0.630290	0.468392	-0.356680
C105	C	0.671398	0.391948	-0.280184
H106	H	0.557877	0.371321	-0.371594
H107	H	0.633223	0.375937	-0.452029
H108	H	0.591003	0.509424	-0.321872
H109	H	0.666357	0.514052	-0.402276
H110	H	0.710689	0.350898	-0.314994
H111	H	0.635337	0.346285	-0.234566
H112	H	0.696077	0.426815	-0.239105
H113	H	1.179479	0.962782	-0.507893
