data_functionalizedCrystal
_audit_creation_method	'MofGen! by Chris Wilmer'
_symmetry_space_group_name_H-M	'P1'
_symmetry_Int_Tables_number	1
_symmetry_cell_setting	triclinic
loop_
_symmetry_equiv_pos_as_xyz
  x,y,z
_cell_length_a	18.215407
_cell_length_b	18.215405
_cell_length_c	18.215399
_cell_angle_alpha	89.969449
_cell_angle_beta	89.982187
_cell_angle_gamma	90.019398
loop_
_atom_site_label
_atom_site_type_symbol
_atom_site_fract_x
_atom_site_fract_y
_atom_site_fract_z
Zn1	Zn	1.125072	-0.293100	-0.416063
Zn2	Zn	1.124980	-0.416171	-0.292991
Zn3	Zn	1.002004	-0.293111	-0.293015
Zn4	Zn	1.001970	-0.416117	-0.416020
O5	O	1.063507	-0.354625	-0.354522
O6	O	1.228044	-0.309443	-0.399745
O7	O	1.108643	-0.399874	-0.190010
O8	O	1.018382	-0.190125	-0.309365
O9	O	1.227977	-0.399863	-0.309325
O10	O	1.108799	-0.190117	-0.399768
O11	O	1.018293	-0.309462	-0.190027
O12	O	0.899016	-0.309410	-0.309324
O13	O	1.018324	-0.399771	-0.519010
O14	O	0.898991	-0.399782	-0.399695
O15	O	1.108766	-0.309391	-0.519042
O16	O	1.108610	-0.519148	-0.309283
O17	O	1.018235	-0.519109	-0.399672
C18	C	0.872300	-0.354592	-0.354508
C19	C	0.790502	-0.354596	-0.354519
C20	C	0.525473	-0.307634	-0.401679
C21	C	0.602332	-0.307622	-0.401677
C22	C	0.602281	-0.401639	-0.307381
C23	C	0.525424	-0.401654	-0.307388
C24	C	0.487022	-0.354647	-0.354536
C25	C	0.640738	-0.354620	-0.354527
C26	C	0.724072	-0.354608	-0.354524
C27	C	0.403683	-0.354661	-0.354540
C28	C	1.063429	-0.545831	-0.354487
C29	C	1.063463	-0.627630	-0.354496
C30	C	1.110632	-0.815820	-0.307517
C31	C	1.110665	-0.892679	-0.307535
C32	C	1.016476	-0.892677	-0.401580
C33	C	1.016447	-0.815820	-0.401565
C34	C	1.063524	-0.777393	-0.354530
C35	C	1.063586	-0.931109	-0.354562
C36	C	1.063621	-1.014443	-0.354582
C37	C	1.063490	-0.694054	-0.354511
C38	C	1.255460	-0.354658	-0.354537
C39	C	1.337259	-0.354672	-0.354543
C40	C	1.063552	-0.354574	-0.546475
C41	C	1.063571	-0.354552	-0.628274
C42	C	1.063605	-0.162672	-0.354574
C43	C	1.063647	-0.080873	-0.354596
C44	C	1.110681	-0.307447	-0.816486
C45	C	1.110690	-0.307426	-0.893344
C46	C	1.016513	-0.401544	-0.893301
C47	C	1.016501	-0.401561	-0.816443
C48	C	1.063589	-0.354514	-0.778038
C49	C	1.063610	-0.354475	-0.931754
C50	C	1.063619	-0.354452	-1.015088
C51	C	1.063579	-0.354535	-0.694699
C52	C	1.063504	-0.354622	-0.163316
C53	C	1.063628	-0.354436	-0.081517
H54	H	0.494116	-0.439943	-0.268998
H55	H	0.633558	-0.439909	-0.268994
H56	H	0.633636	-0.269339	-0.440066
H57	H	0.978177	-0.439849	-0.924580
O58	O	0.970731	-0.447355	-0.779204
C59	C	0.877291	-0.540675	-0.787264
C60	C	0.929098	-0.488869	-0.829529
H61	H	0.843606	-0.574242	-0.827934
H62	H	0.911020	-0.579216	-0.751294
H63	H	0.838853	-0.506877	-0.751266
H64	H	0.967546	-0.522609	-0.865567
H65	H	0.895323	-0.450326	-0.865453
H66	H	1.149035	-0.269098	-0.924645
H67	H	0.494209	-0.269357	-0.440070
H68	H	1.149026	-0.923962	-0.269254
O69	O	1.156433	-0.778605	-0.261809
C70	C	1.249828	-0.786722	-0.168501
C71	C	1.198006	-0.828956	-0.220240
H72	H	1.283442	-0.827412	-0.134868
H73	H	1.288324	-0.750706	-0.202280
H74	H	1.216039	-0.750773	-0.130012
H75	H	1.231736	-0.864945	-0.258739
H76	H	1.159508	-0.864925	-0.186415
H77	H	0.978146	-0.923974	-0.439873
H78	H	0.978086	-0.784531	-0.439852
H79	H	1.149021	-0.269136	-0.785218
