data_functionalizedCrystal
_audit_creation_method	'MofGen! by Chris Wilmer'
_symmetry_space_group_name_H-M	'P1'
_symmetry_Int_Tables_number	1
_symmetry_cell_setting	triclinic
loop_
_symmetry_equiv_pos_as_xyz
  x,y,z
_cell_length_a	9.065218
_cell_length_b	9.065218
_cell_length_c	8.140239
_cell_angle_alpha	90.001686
_cell_angle_beta	89.996101
_cell_angle_gamma	94.984115
loop_
_atom_site_label
_atom_site_type_symbol
_atom_site_fract_x
_atom_site_fract_y
_atom_site_fract_z
O1	O	1.960398	-0.216355	-0.136652
O2	O	2.460398	0.283645	0.363348
O3	O	1.531113	-0.234101	-0.136645
O4	O	2.031113	0.265899	0.363355
O5	O	1.754629	-0.010585	-0.136645
O6	O	2.254629	0.489415	0.363355
O7	O	1.736882	-0.439870	-0.136652
O8	O	2.236882	0.060130	0.363348
O9	O	1.754616	-0.010583	0.136582
O10	O	2.254616	0.489417	0.636582
O11	O	1.531101	-0.234098	0.136582
O12	O	2.031101	0.265902	0.636582
O13	O	1.960385	-0.216352	0.136575
O14	O	2.460385	0.283648	0.636575
Zn15	Zn	1.745741	-0.225225	0.179959
Zn16	Zn	2.245741	0.274775	0.679959
Zn17	Zn	1.745758	-0.225228	-0.180029
Zn18	Zn	2.245758	0.274772	0.319971
O19	O	1.736870	-0.439868	0.136575
O20	O	2.236870	0.060132	0.636575
C21	C	1.476120	-0.232394	-0.000030
C22	C	1.976120	0.267606	0.499970
C23	C	1.312277	-0.227294	-0.000028
C24	C	1.812277	0.272706	0.499972
C25	C	1.752917	0.044403	-0.000034
C26	C	2.252917	0.544403	0.499966
C27	C	1.747817	0.208245	-0.000042
C28	C	2.247817	0.708245	0.499958
C29	C	2.015378	-0.218059	-0.000043
C30	C	2.515378	0.281941	0.499957
C31	C	2.179221	-0.223158	-0.000057
C32	C	2.679221	0.276842	0.499943
C33	C	1.738582	-0.494855	-0.000039
C34	C	2.238582	0.005145	0.499961
C35	C	1.743681	-0.658698	-0.000042
C36	C	2.243681	-0.158698	0.499958
N37	N	1.745741	-0.225221	0.425642
N38	N	2.245741	0.274779	0.925642
N39	N	1.745770	-0.225220	-0.425712
N40	N	2.245770	0.274780	0.074288
