data_functionalizedCrystal
_audit_creation_method	'MofGen! by Chris Wilmer'
_symmetry_space_group_name_H-M	'P1'
_symmetry_Int_Tables_number	1
_symmetry_cell_setting	triclinic
loop_
_symmetry_equiv_pos_as_xyz
  x,y,z
_cell_length_a	19.188930
_cell_length_b	19.188924
_cell_length_c	13.330367
_cell_angle_alpha	89.993282
_cell_angle_beta	89.978569
_cell_angle_gamma	83.143372
loop_
_atom_site_label
_atom_site_type_symbol
_atom_site_fract_x
_atom_site_fract_y
_atom_site_fract_z
O1	O	0.926146	0.087167	-0.083751
O2	O	0.722834	0.098902	-0.083682
O3	O	0.830360	-0.008621	-0.083707
O4	O	0.818620	0.194691	-0.083726
O5	O	0.830344	-0.008624	0.083141
O6	O	0.722819	0.098899	0.083165
O7	O	0.926130	0.087165	0.083097
Cu8	Cu	0.824473	0.093032	0.098365
Cu9	Cu	0.824491	0.093035	-0.098951
O10	O	0.818605	0.194688	0.083121
C11	C	0.696815	0.098521	-0.000250
C12	C	0.619311	0.097380	-0.000223
C13	C	0.574386	0.160471	-0.000245
C14	C	0.501562	0.159399	-0.000256
C15	C	0.473667	0.095233	-0.000265
C16	C	0.518602	0.032134	-0.000238
C17	C	0.591424	0.033207	-0.000217
N18	N	0.365693	0.046187	-0.057086
N19	N	0.296514	0.045171	-0.057109
C20	C	0.254258	0.091995	-0.000327
N21	N	0.283792	0.139883	0.056466
N22	N	0.352977	0.140900	0.056483
C23	C	0.394704	0.094062	-0.000288
C24	C	0.130368	0.153928	-0.000359
C25	C	0.057543	0.152854	-0.000364
C26	C	0.074585	0.025586	-0.000355
C27	C	0.147409	0.026663	-0.000340
C28	C	0.175295	0.090835	-0.000347
C29	C	0.829973	-0.034634	-0.000282
C30	C	0.828834	-0.112138	-0.000279
C31	C	0.828311	-0.148536	-0.091227
C32	C	0.827231	-0.221359	-0.091235
C33	C	0.826688	-0.257783	-0.000288
C34	C	0.827207	-0.221376	0.090672
C35	C	0.828280	-0.148554	0.090677
N36	N	0.864730	-0.377447	0.067388
N37	N	0.863712	-0.446625	0.067377
C38	C	0.823454	-0.477192	-0.000297
N39	N	0.784261	-0.435968	-0.067975
N40	N	0.785282	-0.366784	-0.067968
C41	C	0.825524	-0.336746	-0.000283
C42	C	0.821759	-0.592552	-0.091259
C43	C	0.820675	-0.665376	-0.091263
C44	C	0.820658	-0.665393	0.090647
C45	C	0.821735	-0.592570	0.090647
C46	C	0.822289	-0.556154	-0.000308
C47	C	0.952149	0.087546	-0.000338
C48	C	1.029654	0.088687	-0.000371
C49	C	0.818992	0.220700	-0.000306
C50	C	0.820131	0.298205	-0.000316
N51	N	0.824465	0.093030	0.237147
N52	N	0.824505	0.093032	-0.237732
C53	C	0.776877	0.140627	0.709780
C54	C	0.872125	0.045437	0.709727
C55	C	0.872117	0.045435	0.604709
C56	C	0.824489	0.093030	0.552221
C57	C	0.776869	0.140628	0.604752
C58	C	0.919740	-0.002158	0.552170
C59	C	0.919735	-0.002161	0.447145
C60	C	0.872103	0.045432	0.394656
C61	C	0.824481	0.093031	0.447193
C62	C	0.776853	0.140627	0.394706
C63	C	0.729227	0.188223	0.447241
C64	C	0.729238	0.188221	0.552263
C65	C	0.872093	0.045434	0.289634
C66	C	0.776845	0.140627	0.289678
H67	H	0.020965	0.204232	-0.000376
H68	H	0.826801	-0.250999	-0.165298
N69	N	0.923458	-0.005890	0.232970
H70	H	0.953634	-0.036039	0.282156
H71	H	0.896827	-0.036695	0.189420
N72	N	0.822315	-0.553307	0.188741
H73	H	0.779489	-0.517299	0.192816
H74	H	0.821835	-0.587476	0.246300
N75	N	0.195873	-0.041384	-0.000336
H76	H	0.226443	-0.043776	0.061523
H77	H	0.167109	-0.082160	-0.000383
H78	H	0.690463	0.226973	0.595044
N79	N	0.826626	-0.260657	0.188766
H80	H	0.825872	-0.312314	0.174963
H81	H	0.870084	-0.253721	0.228464
H82	H	0.958514	-0.040917	0.404377
H83	H	0.820211	-0.695048	0.164697
H84	H	0.828760	-0.118891	-0.165291
N85	N	0.604464	0.229683	-0.000260
H86	H	0.564949	0.269488	-0.000278
H87	H	0.634283	0.232906	0.061598
H88	H	0.153075	0.206181	-0.000349
N89	N	0.828846	-0.109291	0.188775
H90	H	0.828337	-0.143413	0.246391
H91	H	0.872566	-0.084874	0.192723
N92	N	0.822353	-0.553269	-0.189355
H93	H	0.821852	-0.587379	-0.246974
H94	H	0.779528	-0.517257	-0.193300
N95	N	0.820169	-0.704645	-0.189362
H96	H	0.820705	-0.670526	-0.246977
H97	H	0.863017	-0.740632	-0.193269
H98	H	0.738059	0.179383	0.246949
N99	N	0.677862	0.239561	0.390627
H100	H	0.685090	0.232338	0.316125
H101	H	0.628359	0.231616	0.409010
H102	H	0.958521	-0.040906	0.594908
N103	N	0.725507	0.191958	0.766434
H104	H	0.732734	0.184737	0.840930
H105	H	0.733414	0.241471	0.748065
H106	H	0.910905	0.006689	0.752465
H107	H	0.464976	0.210777	-0.000271
H108	H	0.628003	-0.018171	-0.000200
N109	N	0.488518	-0.037074	-0.000258
H110	H	0.528032	-0.076881	-0.000242
H111	H	0.458648	-0.040292	0.061583
N112	N	0.044510	-0.043623	-0.000354
H113	H	-0.008440	-0.034731	-0.000367
H114	H	0.060982	-0.071224	-0.062199
