data_functionalizedCrystal
_audit_creation_method	'MofGen! by Chris Wilmer'
_symmetry_space_group_name_H-M	'P1'
_symmetry_Int_Tables_number	1
_symmetry_cell_setting	triclinic
loop_
_symmetry_equiv_pos_as_xyz
  x,y,z
_cell_length_a	10.723024
_cell_length_b	14.971482
_cell_length_c	13.448316
_cell_angle_alpha	89.993798
_cell_angle_beta	89.994589
_cell_angle_gamma	84.040239
loop_
_atom_site_label
_atom_site_type_symbol
_atom_site_fract_x
_atom_site_fract_y
_atom_site_fract_z
O1	O	0.162595	1.187822	-0.082676
O2	O	0.182073	0.927526	-0.082681
O3	O	-0.009305	1.063679	-0.082675
O4	O	0.353973	1.051670	-0.082682
O5	O	-0.009317	1.063661	0.082709
O6	O	0.182061	0.927509	0.082703
O7	O	0.162583	1.187805	0.082707
Cu8	Cu	0.172321	1.057656	0.097806
Cu9	Cu	0.172335	1.057676	-0.097780
O10	O	0.353961	1.051653	0.082701
C11	C	0.181197	0.894188	0.000010
C12	C	0.178589	0.794877	0.000009
C13	C	0.177354	0.748216	0.090160
C14	C	0.174884	0.654905	0.090162
C15	C	0.173657	0.608255	0.000010
C16	C	0.174888	0.654922	-0.090149
C17	C	0.177350	0.748233	-0.090149
C18	C	0.169761	0.460433	-0.090142
C19	C	0.167302	0.367115	-0.090143
C20	C	0.167295	0.367104	0.090168
C21	C	0.169756	0.460415	0.090168
C22	C	0.170990	0.507076	0.000009
C23	C	-0.055802	1.062796	0.000016
C24	C	-0.194329	1.060182	0.000012
C25	C	-0.270109	1.136365	0.000012
C26	C	-0.413284	1.133665	0.000009
C27	C	0.400457	1.052536	0.000008
C28	C	0.538984	1.055150	0.000005
C29	C	0.163459	1.221143	0.000014
C30	C	0.166067	1.320455	0.000009
N31	N	0.172310	1.057648	0.235370
N32	N	0.172336	1.057691	-0.235344
C33	C	0.087603	1.117955	0.287413
C34	C	0.087602	1.117960	0.391517
C35	C	0.172315	1.057662	0.443575
C36	C	0.257027	0.997349	0.391525
C37	C	0.257021	0.997340	0.287423
C38	C	0.257035	0.997374	0.608505
C39	C	0.257043	0.997384	0.712613
C40	C	0.087616	1.117995	0.712598
C41	C	0.087610	1.117985	0.608497
C42	C	0.172324	1.057673	0.556454
H43	H	-0.228990	1.203588	0.000020
H44	H	0.018625	1.167060	0.245034
N45	N	0.171074	0.510740	0.187397
H46	H	0.249389	0.542674	0.191409
H47	H	0.169866	0.466976	0.244459
H48	H	0.166291	0.329109	0.163579
N49	N	-0.003718	1.183037	0.447650
H50	H	-0.057363	1.221248	0.398875
H51	H	0.044201	1.222855	0.490808
H52	H	0.326014	0.948257	0.566135
H53	H	-0.235447	0.992959	0.000005
N54	N	-0.374771	0.968756	0.000020
H55	H	-0.320098	0.966200	-0.061284
H56	H	-0.426382	0.916035	0.000058
H57	H	0.018640	1.167103	0.754978
H58	H	0.166304	0.329135	-0.163552
N59	N	-0.003748	1.183025	0.552344
H60	H	-0.057415	1.221233	0.601108
H61	H	-0.058993	1.148441	0.509166
H62	H	-0.478399	1.198884	0.000013
H63	H	0.170765	0.498421	-0.163560
H64	H	0.173880	0.616933	-0.163552
H65	H	0.326024	0.948282	0.754994
N66	N	0.348388	0.932310	0.447676
H67	H	0.403721	0.966830	0.490851
H68	H	0.401964	0.894116	0.398848
H69	H	0.325996	0.948230	0.245051
H70	H	0.173857	0.616920	0.163572
N71	N	0.178690	0.798528	0.187397
H72	H	0.177531	0.754806	0.244507
H73	H	0.102417	0.844025	0.191328
H74	H	0.178357	0.786223	-0.163560
