data_functionalizedCrystal
_audit_creation_method	'MofGen! by Chris Wilmer'
_symmetry_space_group_name_H-M	'P1'
_symmetry_Int_Tables_number	1
_symmetry_cell_setting	triclinic
loop_
_symmetry_equiv_pos_as_xyz
  x,y,z
_cell_length_a	13.897449
_cell_length_b	16.120444
_cell_length_c	16.120256
_cell_angle_alpha	84.383140
_cell_angle_beta	87.123251
_cell_angle_gamma	92.927498
loop_
_atom_site_label
_atom_site_type_symbol
_atom_site_fract_x
_atom_site_fract_y
_atom_site_fract_z
Zn1	Zn	1.424974	-0.356749	0.489495
Zn2	Zn	1.758307	-0.023415	0.822828
Zn3	Zn	2.091640	0.309918	1.156161
Zn4	Zn	1.424850	-0.489435	0.356806
Zn5	Zn	1.758183	-0.156102	0.690140
Zn6	Zn	2.091516	0.177232	1.023473
Zn7	Zn	1.272283	-0.349682	0.349736
Zn8	Zn	1.605617	-0.016349	0.683070
Zn9	Zn	1.938950	0.316985	1.016403
Zn10	Zn	1.255009	-0.496482	0.496526
Zn11	Zn	1.588343	-0.163149	0.829859
Zn12	Zn	1.921676	0.170184	1.163192
O13	O	1.344279	-0.423087	0.423141
O14	O	1.677612	-0.089754	0.756474
O15	O	2.010946	0.243580	1.089807
O16	O	1.559938	-0.374358	0.471910
O17	O	1.893271	-0.041025	0.805243
O18	O	2.226604	0.292309	1.138576
O19	O	1.411789	-0.464990	0.238906
O20	O	1.745122	-0.131656	0.572239
O21	O	2.078455	0.201677	0.905573
O22	O	1.299819	-0.233653	0.362374
O23	O	1.633153	0.099680	0.695708
O24	O	1.966486	0.433013	1.029041
O25	O	1.559846	-0.471842	0.374424
O26	O	1.893180	-0.138509	0.707757
O27	O	2.226513	0.194825	1.041091
O28	O	1.412000	-0.238845	0.465054
O29	O	1.745334	0.094488	0.798388
O30	O	2.078667	0.427821	1.131721
O31	O	1.299699	-0.362314	0.233712
O32	O	1.633032	-0.028980	0.567045
O33	O	1.966366	0.304353	0.900378
O34	O	1.135012	-0.369147	0.369192
O35	O	1.468345	-0.035814	0.702525
O36	O	1.801679	0.297519	1.035859
O37	O	1.270378	-0.483853	0.612555
O38	O	1.603712	-0.150520	0.945889
O39	O	1.937045	0.182814	1.279222
O40	O	1.122321	-0.477001	0.477037
O41	O	1.455654	-0.143668	0.810371
O42	O	1.788987	0.189666	1.143704
O43	O	1.395250	-0.381191	0.607390
O44	O	1.728584	-0.047858	0.940723
O45	O	2.061917	0.285475	1.274056
O46	O	1.395039	-0.607336	0.381241
O47	O	1.728372	-0.274002	0.714575
O48	O	2.061706	0.059331	1.047908
O49	O	1.270258	-0.612514	0.483893
O50	O	1.603591	-0.279180	0.817226
O51	O	1.936925	0.054153	1.150559
C52	C	1.093667	-0.423073	0.423111
C53	C	1.427001	-0.089739	0.756444
C54	C	1.760334	0.243594	1.089778
C55	C	0.986452	-0.423088	0.423119
C56	C	1.319785	-0.089754	0.756452
C57	C	1.653119	0.243579	1.089786
C58	C	0.899381	-0.423091	0.423133
C59	C	1.232715	-0.089758	0.756466
C60	C	1.566048	0.243576	1.089800
C61	C	0.790147	-0.423098	0.423159
C62	C	1.123480	-0.089765	0.756492
C63	C	1.456814	0.243568	1.089825
C64	C	1.330786	-0.640254	0.434115
C65	C	1.664119	-0.306920	0.767449
C66	C	1.997452	0.026413	1.100782
C67	C	1.325099	-0.733160	0.438838
C68	C	1.658433	-0.399826	0.772172
C69	C	1.991766	-0.066493	1.105505
C70	C	1.374001	-0.942068	0.398820
C71	C	1.707334	-0.608735	0.732153
C72	C	2.040668	-0.275401	1.065486
C73	C	1.314735	-0.903255	0.447470
C74	C	1.648069	-0.569922	0.780804
C75	C	1.981402	-0.236589	1.114137
C76	C	1.320504	-0.808605	0.442666
C77	C	1.653837	-0.475272	0.775999
C78	C	1.987170	-0.141939	1.109333
C79	C	1.368234	-1.036726	0.403623
C80	C	1.701567	-0.703393	0.736956
C81	C	2.034901	-0.370060	1.070290
C82	C	1.595869	-0.423102	0.423171
C83	C	1.929203	-0.089769	0.756504
C84	C	2.262536	0.243565	1.089838
C85	C	1.703082	-0.423108	0.423184
C86	C	2.036415	-0.089775	0.756517
C87	C	2.369749	0.243558	1.089851
C88	C	1.330901	-0.434097	0.641148
C89	C	1.664235	-0.100763	0.974481
C90	C	1.997568	0.232570	1.307814
C91	C	1.325200	-0.438788	0.734049
C92	C	1.658534	-0.105455	1.067382
C93	C	1.991867	0.227878	1.400716
C94	C	1.357851	-0.205073	0.412141
C95	C	1.691184	0.128260	0.745475
C96	C	2.024517	0.461593	1.078808
C97	C	1.363634	-0.112169	0.407454
C98	C	1.696967	0.221164	0.740788
C99	C	2.030301	0.554498	1.074121
C100	C	1.357664	-0.412060	0.205979
C101	C	1.690997	-0.078727	0.539312
C102	C	2.024331	0.254607	0.872646
C103	C	1.363566	-0.407133	0.113066
C104	C	1.696900	-0.073799	0.446399
C105	C	2.030233	0.259534	0.779733
C106	C	1.374008	-0.398599	0.942976
C107	C	1.707341	-0.065266	1.276309
C108	C	2.040674	0.268068	1.609642
C109	C	1.314762	-0.447319	0.904134
C110	C	1.648095	-0.113986	1.237467
C111	C	1.981429	0.219347	1.570801
C112	C	1.320572	-0.442571	0.809490
C113	C	1.653905	-0.109238	1.142823
C114	C	1.987238	0.224095	1.476157
C115	C	1.368199	-0.403346	1.037628
C116	C	1.701533	-0.070013	1.370961
C117	C	2.034866	0.263320	1.704295
H118	H	1.259664	-0.941111	0.492729
H119	H	1.592997	-0.607778	0.826062
H120	H	1.926331	-0.274444	1.159396
H121	H	1.429068	-0.904216	0.353563
H122	H	1.762401	-0.570883	0.686897
H123	H	2.095734	-0.237550	1.020230
H124	H	1.259672	-0.492591	0.941960
H125	H	1.593005	-0.159258	1.275294
H126	H	1.926339	0.174075	1.608627
Br127	Br	1.465801	-0.323126	0.879932
Br128	Br	1.799134	0.010208	1.213265
Br129	Br	2.132467	0.343541	1.546598
