data_functionalizedCrystal
_audit_creation_method	'MofGen! by Chris Wilmer'
_symmetry_space_group_name_H-M	'P1'
_symmetry_Int_Tables_number	1
_symmetry_cell_setting	triclinic
loop_
_symmetry_equiv_pos_as_xyz
  x,y,z
_cell_length_a	20.875650
_cell_length_b	20.875641
_cell_length_c	20.875619
_cell_angle_alpha	87.031391
_cell_angle_beta	56.008707
_cell_angle_gamma	60.097266
loop_
_atom_site_label
_atom_site_type_symbol
_atom_site_fract_x
_atom_site_fract_y
_atom_site_fract_z
Zr1	Zr	0.652664	0.671034	-0.083310
O2	O	0.793406	0.576100	-0.194334
O3	O	0.517024	0.696410	-0.046047
O4	O	0.649880	0.708960	-0.184239
O5	O	0.660967	0.557888	0.049195
O6	O	0.641880	0.818002	-0.179949
O7	O	0.660550	0.563549	-0.056141
O8	O	0.404225	0.795551	0.067252
O9	O	0.898622	0.580339	-0.198006
O10	O	0.564955	0.793111	-0.030853
O11	O	0.571236	0.707510	0.044556
O12	O	0.727657	0.722286	-0.118147
O13	O	0.733938	0.636685	-0.042738
Zr14	Zr	0.640569	0.835914	0.091532
Zr15	Zr	0.639905	0.844943	-0.076467
Zr16	Zr	0.653328	0.662005	0.084689
Zr17	Zr	0.820471	0.677795	-0.089167
Zr18	Zr	0.472762	0.829154	0.097389
O19	O	0.776209	0.810539	0.054269
O20	O	0.775264	0.823376	-0.184604
O21	O	0.794351	0.563262	0.044539
O22	O	0.499827	0.930849	0.202556
O23	O	0.498882	0.943686	-0.036317
O24	O	0.517969	0.683572	0.192826
O25	O	0.632266	0.949060	-0.040973
O26	O	0.643353	0.797988	0.192461
O27	O	0.651353	0.688946	0.188171
O28	O	0.632683	0.943399	0.064364
O29	O	0.888480	0.718573	-0.192567
O30	O	0.404753	0.788375	0.200789
O31	O	0.394611	0.926610	0.206228
O32	O	0.394083	0.933786	0.072691
O33	O	0.899150	0.573162	-0.064469
O34	O	0.889008	0.711397	-0.059030
O35	O	0.565576	0.784662	0.126370
O36	O	0.559295	0.870263	0.050960
O37	O	0.721997	0.799438	-0.036334
O38	O	0.728278	0.713837	0.039075
C39	C	0.436716	0.745017	0.011437
C40	C	0.365477	0.742147	0.013924
C41	C	-0.035473	0.721447	0.032468
C42	C	0.031511	0.724106	0.030081
C43	C	0.061725	0.770115	-0.010481
C44	C	0.024946	0.813474	-0.048652
C45	C	-0.042040	0.810819	-0.046259
C46	C	0.261711	0.782851	-0.021854
C47	C	0.328705	0.785501	-0.024246
C48	C	0.335264	0.696134	0.054489
C49	C	0.268279	0.693479	0.056873
C50	C	0.231503	0.736841	0.018707
N51	N	0.130195	0.772832	-0.012925
N52	N	0.163029	0.734128	0.021155
C53	C	0.662576	0.535940	-0.004448
C54	C	0.667993	0.462111	-0.007353
C55	C	0.585611	0.464394	0.036845
C56	C	0.590706	0.395021	0.034113
C57	C	0.678184	0.323367	-0.012821
C58	C	0.760572	0.321086	-0.057020
C59	C	0.755476	0.390457	-0.054284
C60	C	0.702532	0.111928	-0.025887
C61	C	0.707622	0.042554	-0.028622
C62	C	0.537755	0.116495	0.062513
C63	C	0.532667	0.185864	0.065241
C64	C	0.615055	0.183577	0.021045
N65	N	0.683394	0.252456	-0.015616
N66	N	0.609844	0.254487	0.023846
C67	C	0.856517	0.761931	-0.003215
C68	C	0.927755	0.764801	-0.005701
C69	C	0.645785	0.764768	-0.206030
C70	C	0.645503	0.768601	-0.277350
C71	C	0.630656	0.971008	0.012670
C72	C	0.625240	1.044837	0.015575
C73	C	0.643456	0.796619	-0.678560
C74	C	0.643724	0.793015	-0.611549
C75	C	0.648259	0.731142	-0.580403
C76	C	0.652535	0.672865	-0.616277
C77	C	0.652273	0.676467	-0.683291
C78	C	0.649518	0.713926	-0.380238
C79	C	0.649777	0.710329	-0.313218
C80	C	0.640968	0.830479	-0.308495
C81	C	0.640701	0.834077	-0.375507
C82	C	0.644982	0.775799	-0.411378
N83	N	0.648530	0.727458	-0.511905
N84	N	0.644718	0.779481	-0.479878
C85	C	0.647447	0.742181	0.214252
C86	C	0.647729	0.738348	0.285572
C87	C	0.420756	0.962551	0.019997
C88	C	0.344101	1.033510	0.025388
C89	C	0.437547	0.733724	0.221579
C90	C	0.366590	0.727021	0.295385
C91	C	0.421587	0.951258	0.230138
C92	C	0.345214	1.018384	0.306849
C93	C	0.871646	0.555690	-0.221915
C94	C	0.948019	0.488564	-0.298627
C95	C	0.872477	0.544397	-0.011774
C96	C	0.949132	0.473438	-0.017166
C97	C	0.855686	0.773224	-0.213356
C98	C	0.926642	0.779927	-0.287163
C99	C	0.311057	1.026561	-0.014793
C100	C	0.239041	1.093229	-0.009743
C101	C	0.200066	1.166845	0.035492
C102	C	0.233116	1.173793	0.075674
C103	C	0.305136	1.107126	0.070619
C104	C	0.330314	0.764145	0.372758
C105	C	0.263653	0.757844	0.442113
C106	C	0.233264	0.714422	0.434093
C107	C	0.269547	0.677293	0.356712
C108	C	0.336212	0.683591	0.287359
C109	C	0.306069	1.094597	0.303511
C110	C	0.234317	1.157677	0.375583
C111	C	0.201707	1.144541	0.450992
C112	C	0.240859	1.068319	0.454329
C113	C	0.312614	1.005242	0.382257
C114	C	0.987172	0.412351	-0.295289
C115	C	1.058944	0.349273	-0.367362
C116	C	1.091558	0.362409	-0.442771
C117	C	1.052402	0.438630	-0.446107
C118	C	0.980635	0.501707	-0.374035
C119	C	0.982183	0.480388	0.023008
C120	C	1.054217	0.413722	0.017939
C121	C	1.093195	0.340106	-0.027299
C122	C	1.060141	0.333158	-0.067477
C123	C	0.988112	0.399824	-0.062413
C124	C	0.957010	0.823355	-0.279117
C125	C	1.023671	0.829668	-0.348459
C126	C	1.059968	0.792549	-0.425845
C127	C	1.029594	0.749120	-0.433889
C128	C	0.962930	0.742812	-0.364548
H129	H	0.243682	0.656015	0.089905
H130	H	0.523622	0.396887	0.070105
H131	H	0.342790	0.966626	-0.051638
O132	O	0.952458	0.392323	-0.105737
H133	H	0.991661	0.329931	-0.138034
O134	O	1.056422	0.876509	-0.339767
H135	H	1.108867	0.874674	-0.400980
O136	O	1.131883	0.799344	-0.500634
H137	H	1.146906	0.835772	-0.482031
O138	O	0.917858	0.863407	-0.195655
H139	H	0.975871	0.840772	-0.191764
O140	O	0.952003	0.398175	-0.213958
H141	H	1.010688	0.366402	-0.210426
H142	H	0.948757	0.563762	-0.376763
H143	H	0.640246	0.840463	-0.582346
O144	O	0.124304	1.212577	0.528726
H145	H	0.102559	1.267777	0.513728
H146	H	0.655755	0.629016	-0.712495
H147	H	1.059158	0.718900	-0.496907
H148	H	0.653468	0.659942	-0.287862
O149	O	0.930181	0.695965	-0.373226
H150	H	0.991041	0.634693	-0.410294
O151	O	-0.068043	0.671807	0.076200
H152	H	-0.031217	0.642108	0.102340
O153	O	0.363084	0.810980	0.381417
H154	H	0.395522	0.785902	0.411914
H155	H	0.244794	0.641940	0.350195
O156	O	0.205671	1.054155	0.535665
H157	H	0.149189	1.110825	0.585214
H158	H	0.365213	0.660832	0.085563
H159	H	0.202447	1.219734	0.372852
H160	H	0.178980	0.709301	0.490572
O161	O	0.354826	0.923039	0.385861
H162	H	0.344329	0.890424	0.356421
H163	H	1.081117	0.419394	0.050661
O164	O	0.071181	0.677341	0.071243
H165	H	0.038928	0.644893	0.099839
H166	H	0.950452	0.540323	0.059850
O167	O	0.224510	0.797906	0.525570
H168	H	0.256829	0.829171	0.519488
O169	O	0.203394	1.085727	-0.053077
H170	H	0.242587	1.023334	-0.085365
H171	H	1.090814	0.287216	-0.364630
H172	H	0.353303	0.822969	-0.057279
O173	O	1.168974	0.294373	-0.520505
H174	H	1.190713	0.239172	-0.505507
H175	H	0.365739	0.653361	0.224361
H176	H	0.831798	0.262738	-0.095231
H177	H	1.078965	0.449317	-0.507514
H178	H	0.231775	0.818156	-0.052933
H179	H	0.049547	0.850939	-0.081675
O180	O	0.438315	0.263148	0.115867
H181	H	0.431761	0.298850	0.075898
H182	H	1.151844	0.285828	-0.031416
H183	H	0.201372	1.233740	0.112504
O184	O	-0.081701	0.857572	-0.087434
H185	H	-0.049430	0.890005	-0.116049
H186	H	0.332609	1.105308	0.242116
H187	H	0.514377	0.522734	0.075067
H188	H	0.470680	0.118348	0.098495
H189	H	1.091887	0.273211	-0.104309
O190	O	0.801973	-0.034739	-0.079244
H191	H	0.841890	-0.041497	-0.057171
O192	O	0.791388	0.109461	-0.073564
H193	H	0.853070	0.047980	-0.106668
H194	H	0.822560	0.388593	-0.090265
H195	H	0.639758	0.847005	-0.703911
O196	O	0.635838	0.900799	-0.409115
H197	H	0.632928	0.940708	-0.372924
H198	H	0.637484	0.877926	-0.279283
H199	H	0.653002	0.666474	-0.409437
H200	H	0.656233	0.622484	-0.590918
O201	O	0.340760	1.114623	0.113973
H202	H	0.301545	1.177014	0.146283
H203	H	0.141423	1.221123	0.039602
