data_functionalizedCrystal
_audit_creation_method	'MofGen! by Chris Wilmer'
_symmetry_space_group_name_H-M	'P1'
_symmetry_Int_Tables_number	1
_symmetry_cell_setting	triclinic
loop_
_symmetry_equiv_pos_as_xyz
  x,y,z
_cell_length_a	18.101395
_cell_length_b	16.120716
_cell_length_c	16.120256
_cell_angle_alpha	95.916247
_cell_angle_beta	92.874436
_cell_angle_gamma	87.129344
loop_
_atom_site_label
_atom_site_type_symbol
_atom_site_fract_x
_atom_site_fract_y
_atom_site_fract_z
Zn1	Zn	-0.369777	1.253754	-0.407820
Zn2	Zn	-0.036444	1.587088	-0.074487
Zn3	Zn	0.296890	1.920421	0.258846
Zn4	Zn	-0.487635	1.260723	-0.268058
Zn5	Zn	-0.154302	1.594056	0.065275
Zn6	Zn	0.179031	1.927390	0.398609
Zn7	Zn	-0.357833	1.121072	-0.275151
Zn8	Zn	-0.024500	1.454406	0.058182
Zn9	Zn	0.308833	1.787739	0.391516
Zn10	Zn	-0.487592	1.113934	-0.414867
Zn11	Zn	-0.154259	1.447267	-0.081534
Zn12	Zn	0.179074	1.780600	0.251799
O13	O	-0.425710	1.187371	-0.341474
O14	O	-0.092376	1.520704	-0.008141
O15	O	0.240957	1.854037	0.325192
O16	O	-0.390428	1.371638	-0.383363
O17	O	-0.057094	1.704972	-0.050030
O18	O	0.276239	2.038305	0.283304
O19	O	-0.465436	1.248102	-0.152036
O20	O	-0.132103	1.581435	0.181297
O21	O	0.201230	1.914769	0.514631
O22	O	-0.255789	1.138744	-0.292769
O23	O	0.077545	1.472078	0.040564
O24	O	0.410878	1.805411	0.373897
O25	O	-0.477018	1.376758	-0.280680
O26	O	-0.143684	1.710092	0.052653
O27	O	0.189649	2.043425	0.385987
O28	O	-0.264564	1.236225	-0.390241
O29	O	0.068770	1.569558	-0.056908
O30	O	0.402103	1.902892	0.276426
O31	O	-0.370071	1.145501	-0.157247
O32	O	-0.036738	1.478835	0.176086
O33	O	0.296595	1.812168	0.509419
O34	O	-0.370030	1.003166	-0.299602
O35	O	-0.036696	1.336499	0.033731
O36	O	0.296637	1.669832	0.367064
O37	O	-0.476945	1.126577	-0.530895
O38	O	-0.143611	1.459910	-0.197562
O39	O	0.189722	1.793244	0.135771
O40	O	-0.465363	0.997921	-0.402251
O41	O	-0.132030	1.331254	-0.068918
O42	O	0.201304	1.664587	0.264415
O43	O	-0.390386	1.229303	-0.525718
O44	O	-0.057053	1.562636	-0.192385
O45	O	0.276281	1.895969	0.140949
O46	O	-0.591259	1.241180	-0.287513
O47	O	-0.257925	1.574513	0.045820
O48	O	0.075408	1.907846	0.379154
O49	O	-0.591227	1.133334	-0.395373
O50	O	-0.257894	1.466668	-0.062040
O51	O	0.075440	1.800001	0.271293
C52	C	-0.618114	1.187260	-0.341455
C53	C	-0.284781	1.520594	-0.008122
C54	C	0.048552	1.853927	0.325211
C55	C	-0.700430	1.187288	-0.341471
C56	C	-0.367097	1.520621	-0.008138
C57	C	-0.033764	1.853955	0.325195
C58	C	-0.416396	0.970217	-0.352462
C59	C	-0.083063	1.303550	-0.019128
C60	C	0.250270	1.636884	0.314205
C61	C	-0.412431	0.877316	-0.357182
C62	C	-0.079097	1.210650	-0.023849
C63	C	0.254236	1.543983	0.309485
C64	C	-0.434993	1.176366	-0.559482
C65	C	-0.101659	1.509700	-0.226148
C66	C	0.231674	1.843033	0.107185
C67	C	-0.438949	1.171677	-0.652384
C68	C	-0.105615	1.505010	-0.319050
C69	C	0.227718	1.838343	0.014283
C70	C	-0.999531	1.187469	-0.341507
C71	C	-0.666198	1.520802	-0.008174
C72	C	-0.332864	1.854136	0.325160
C73	C	-0.968230	1.119757	-0.409522
C74	C	-0.634897	1.453091	-0.076189
C75	C	-0.301563	1.786424	0.257144
C76	C	-0.882590	1.119461	-0.409335
C77	C	-0.549257	1.452795	-0.076002
C78	C	-0.215924	1.786128	0.257331
C79	C	-0.851144	1.187379	-0.341490
C80	C	-0.517810	1.520713	-0.008157
C81	C	-0.184477	1.854046	0.325177
C82	C	-0.877502	1.167999	-0.254610
C83	C	-0.544169	1.501332	0.078724
C84	C	-0.210835	1.834665	0.412057
C85	C	-0.963146	1.167564	-0.255018
C86	C	-0.629813	1.500897	0.078315
C87	C	-0.296479	1.834230	0.411649
C88	C	-0.972627	1.274742	-0.359590
C89	C	-0.639293	1.608075	-0.026256
C90	C	-0.305960	1.941408	0.307077
C91	C	-0.887036	1.274124	-0.361548
C92	C	-0.553703	1.607457	-0.028214
C93	C	-0.220370	1.940791	0.305119
C94	C	-0.767281	1.187330	-0.341475
C95	C	-0.433948	1.520663	-0.008142
C96	C	-0.100615	1.853997	0.325192
C97	C	-1.083393	1.187516	-0.341516
C98	C	-0.750060	1.520850	-0.008183
C99	C	-0.416726	1.854183	0.325150
C100	C	-0.232555	1.187504	-0.341510
C101	C	0.100778	1.520837	-0.008177
C102	C	0.434111	1.854170	0.325156
C103	C	-0.150244	1.187560	-0.341526
C104	C	0.183089	1.520894	-0.008192
C105	C	0.516422	1.854227	0.325141
C106	C	-0.435060	1.405373	-0.330444
C107	C	-0.101726	1.738706	0.002889
C108	C	0.231607	2.072039	0.336222
C109	C	-0.439044	1.498272	-0.325744
C110	C	-0.105711	1.831605	0.007589
C111	C	0.227622	2.164939	0.340923
C112	C	-0.446280	1.668363	-0.317109
C113	C	-0.112947	2.001696	0.016224
C114	C	0.220386	2.335029	0.349558
C115	C	-0.405197	1.707231	-0.365815
C116	C	-0.071863	2.040565	-0.032481
C117	C	0.261470	2.373898	0.300852
C118	C	-0.409223	1.801876	-0.361010
C119	C	-0.075890	2.135209	-0.027677
C120	C	0.257444	2.468542	0.305657
C121	C	-0.442255	1.573710	-0.321912
C122	C	-0.108922	1.907043	0.011421
C123	C	0.224412	2.240377	0.344754
C124	C	-0.405061	1.211825	-0.861309
C125	C	-0.071727	1.545158	-0.527975
C126	C	0.261606	1.878491	-0.194642
C127	C	-0.446139	1.163087	-0.822472
C128	C	-0.112806	1.496420	-0.489139
C129	C	0.220527	1.829754	-0.155805
C130	C	-0.442137	1.167868	-0.727826
C131	C	-0.108804	1.501201	-0.394493
C132	C	0.224529	1.834534	-0.061159
C133	C	-0.409062	1.207045	-0.955963
C134	C	-0.075729	1.540378	-0.622630
C135	C	0.257605	1.873711	-0.289297
C136	C	-0.416411	1.198381	-0.124312
C137	C	-0.083078	1.531714	0.209021
C138	C	0.250256	1.865047	0.542354
C139	C	-0.412253	1.203232	-0.031403
C140	C	-0.078920	1.536566	0.301931
C141	C	0.254413	1.869899	0.635264
H142	H	-0.992216	1.131206	-0.474303
H143	H	-0.658883	1.464540	-0.140969
H144	H	-0.325550	1.797873	0.192364
C145	C	-0.992760	1.032770	-0.394045
C146	C	-0.659426	1.366103	-0.060712
C147	C	-0.326093	1.699436	0.272621
H148	H	-1.021992	1.037538	-0.346312
H149	H	-0.688658	1.370871	-0.012978
H150	H	-0.355325	1.704204	0.320355
H151	H	-1.021105	1.009889	-0.441343
H152	H	-0.687771	1.343223	-0.108009
H153	H	-0.354438	1.676556	0.225324
H154	H	-0.950309	0.997219	-0.384915
H155	H	-0.616976	1.330553	-0.051582
H156	H	-0.283642	1.663886	0.281752
H157	H	-0.484309	1.117766	-0.860305
H158	H	-0.150976	1.451099	-0.526971
H159	H	0.182357	1.784433	-0.193638
H160	H	-0.366999	1.669428	-0.411120
H161	H	-0.033665	2.002761	-0.077786
H162	H	0.299668	2.336094	0.255547
C163	C	-0.858771	1.135112	-0.496558
C164	C	-0.525437	1.468446	-0.163224
C165	C	-0.192104	1.801779	0.170109
H166	H	-0.901467	1.141708	-0.532425
H167	H	-0.568134	1.475041	-0.199092
H168	H	-0.234801	1.808374	0.134241
H169	H	-0.831497	1.184319	-0.492368
H170	H	-0.498164	1.517652	-0.159035
H171	H	-0.164830	1.850985	0.174299
H172	H	-0.828663	1.088943	-0.518702
H173	H	-0.495330	1.422276	-0.185368
H174	H	-0.161997	1.755610	0.147965
C175	C	-0.850336	1.031955	-0.393631
C176	C	-0.517002	1.365288	-0.060298
C177	C	-0.183669	1.698622	0.273036
H178	H	-0.797825	1.031472	-0.393472
H179	H	-0.464492	1.364806	-0.060138
H180	H	-0.131158	1.698139	0.273195
H181	H	-0.865148	1.018310	-0.341173
H182	H	-0.531815	1.351643	-0.007840
H183	H	-0.198482	1.684976	0.325493
H184	H	-0.868127	0.992094	-0.436574
H185	H	-0.534794	1.325427	-0.103240
H186	H	-0.201461	1.658761	0.230093
C187	C	-0.985383	1.081561	-0.233631
C188	C	-0.652049	1.414894	0.099703
C189	C	-0.318716	1.748227	0.433036
H190	H	-0.942093	1.047216	-0.224779
H191	H	-0.608759	1.380549	0.108554
H192	H	-0.275426	1.713882	0.441888
H193	H	-1.012720	1.088323	-0.184414
H194	H	-0.679387	1.421657	0.148919
H195	H	-0.346054	1.754990	0.482253
H196	H	-1.015042	1.056076	-0.278520
H197	H	-0.681709	1.389409	0.054814
H198	H	-0.348376	1.722742	0.388147
C199	C	-0.990847	1.231609	-0.184541
C200	C	-0.657514	1.564942	0.148793
C201	C	-0.324181	1.898275	0.482126
H202	H	-0.949757	1.257772	-0.155783
H203	H	-0.616424	1.591106	0.177551
H204	H	-0.283090	1.924439	0.510884
H205	H	-1.022852	1.272594	-0.207701
H206	H	-0.689519	1.605927	0.125632
H207	H	-0.356185	1.939260	0.458966
H208	H	-1.017011	1.203958	-0.146643
H209	H	-0.683678	1.537291	0.186690
H210	H	-0.350345	1.870625	0.520023
H211	H	-0.484473	1.706164	-0.271805
H212	H	-0.151140	2.039498	0.061528
H213	H	0.182193	2.372831	0.394862
C214	C	-0.864328	1.293982	-0.447896
C215	C	-0.530995	1.627315	-0.114562
C216	C	-0.197662	1.960648	0.218771
H217	H	-0.886221	1.346526	-0.459674
H218	H	-0.552887	1.679859	-0.126341
H219	H	-0.219554	2.013192	0.206992
H220	H	-0.811963	1.295819	-0.448000
H221	H	-0.478629	1.629153	-0.114666
H222	H	-0.145296	1.962486	0.218667
H223	H	-0.880808	1.251849	-0.489291
H224	H	-0.547475	1.585183	-0.155958
H225	H	-0.214142	1.918516	0.177375
C226	C	-0.849743	1.232785	-0.184543
C227	C	-0.516410	1.566118	0.148790
C228	C	-0.183077	1.899451	0.482124
H229	H	-0.821762	1.272320	-0.207708
H230	H	-0.488429	1.605654	0.125625
H231	H	-0.155095	1.938987	0.458958
H232	H	-0.890901	1.260649	-0.157732
H233	H	-0.557568	1.593982	0.175601
H234	H	-0.224235	1.927315	0.508935
H235	H	-0.819425	1.205350	-0.144968
H236	H	-0.486092	1.538684	0.188365
H237	H	-0.152759	1.872017	0.521699
C238	C	-0.843802	1.082939	-0.232706
C239	C	-0.510469	1.416273	0.100628
C240	C	-0.177136	1.749606	0.433961
H241	H	-0.813668	1.059128	-0.276388
H242	H	-0.480335	1.392462	0.056945
H243	H	-0.147001	1.725795	0.390279
H244	H	-0.814529	1.090489	-0.182154
H245	H	-0.481196	1.423822	0.151179
H246	H	-0.147863	1.757156	0.484513
H247	H	-0.882427	1.046714	-0.226081
H248	H	-0.549094	1.380048	0.107252
H249	H	-0.215761	1.713381	0.440586
H250	H	-0.865916	1.326883	-0.315263
H251	H	-0.532582	1.660216	0.018071
H252	H	-0.199249	1.993550	0.351404
H253	H	-0.366890	1.257138	-0.823479
H254	H	-0.033557	1.590471	-0.490146
H255	H	0.299777	1.923804	-0.156812
H256	H	-0.997809	1.293282	-0.421627
H257	H	-0.664476	1.626615	-0.088294
H258	H	-0.331143	1.959948	0.245039
C259	C	-0.999954	1.342804	-0.292541
C260	C	-0.666621	1.676137	0.040792
C261	C	-0.333287	2.009471	0.374126
H262	H	-1.027636	1.318202	-0.253719
H263	H	-0.694303	1.651536	0.079615
H264	H	-0.360970	1.984869	0.412948
H265	H	-0.958616	1.368816	-0.264180
H266	H	-0.625283	1.702149	0.069154
H267	H	-0.291949	2.035482	0.402487
H268	H	-1.030462	1.383370	-0.318345
H269	H	-0.697129	1.716703	0.014989
H270	H	-0.363795	2.050036	0.348322
