data_functionalizedCrystal
_audit_creation_method	'MofGen! by Chris Wilmer'
_symmetry_space_group_name_H-M	'P1'
_symmetry_Int_Tables_number	1
_symmetry_cell_setting	triclinic
loop_
_symmetry_equiv_pos_as_xyz
  x,y,z
_cell_length_a	14.519709
_cell_length_b	14.519709
_cell_length_c	10.868271
_cell_angle_alpha	89.998701
_cell_angle_beta	90.013556
_cell_angle_gamma	83.680146
loop_
_atom_site_label
_atom_site_type_symbol
_atom_site_fract_x
_atom_site_fract_y
_atom_site_fract_z
O1	O	-0.120892	-1.223867	-0.102186
O2	O	-0.135128	-0.955390	-0.102226
O3	O	0.006228	-1.096747	-0.102171
O4	O	-0.262248	-1.082510	-0.102241
O5	O	0.006234	-1.096735	0.102474
O6	O	-0.135123	-0.955379	0.102418
O7	O	-0.120886	-1.223856	0.102459
Zn8	Zn	-0.128004	-1.089615	0.134930
Zn9	Zn	-0.128011	-1.089631	-0.134698
O10	O	-0.262243	-1.082499	0.102403
C11	C	0.040591	-1.096078	0.000158
C12	C	0.142972	-1.094090	0.000176
C13	C	-0.134462	-0.921025	0.000091
C14	C	-0.132474	-0.818643	0.000078
C15	C	-0.121553	-1.258221	0.000138
C16	C	-0.123541	-1.360602	0.000144
C17	C	0.517868	-1.086770	0.000208
C18	C	0.413560	-1.088803	0.000200
C19	C	0.330423	-1.090430	0.000193
C20	C	0.226109	-1.092463	0.000183
C21	C	0.703394	-1.083168	0.000116
C22	C	0.601013	-1.085156	0.000220
C23	C	-0.125154	-0.443748	0.000136
C24	C	-0.127187	-0.548056	0.000119
C25	C	-0.128814	-0.631192	0.000106
C26	C	-0.130847	-0.735507	0.000091
N27	N	-0.127998	-1.089612	0.318944
N28	N	-0.128009	-1.089642	-0.318712
C29	C	-0.128009	-1.089626	0.569951
C30	C	-0.128006	-1.089615	0.430273
