data_functionalizedCrystal
_audit_creation_method	'MofGen! by Chris Wilmer'
_symmetry_space_group_name_H-M	'P1'
_symmetry_Int_Tables_number	1
_symmetry_cell_setting	triclinic
loop_
_symmetry_equiv_pos_as_xyz
  x,y,z
_cell_length_a	12.759401
_cell_length_b	19.805404
_cell_length_c	12.759393
_cell_angle_alpha	90.034362
_cell_angle_beta	90.020938
_cell_angle_gamma	90.031118
loop_
_atom_site_label
_atom_site_type_symbol
_atom_site_fract_x
_atom_site_fract_y
_atom_site_fract_z
Zn1	Zn	1.606158	-0.269403	0.593992
Zn2	Zn	2.106158	0.230597	1.093992
Zn3	Zn	1.606003	-0.382606	0.418300
Zn4	Zn	2.106003	0.117394	0.918300
Zn5	Zn	1.430456	-0.269439	0.418327
Zn6	Zn	1.930456	0.230561	0.918327
Zn7	Zn	1.430403	-0.382558	0.593937
Zn8	Zn	1.930403	0.117442	1.093937
O9	O	1.518255	-0.326001	0.506139
O10	O	2.018255	0.173999	1.006139
O11	O	1.753158	-0.284424	0.570698
O12	O	2.253158	0.215576	1.070698
O13	O	1.582674	-0.367629	0.271283
O14	O	2.082674	0.132371	0.771283
O15	O	1.453851	-0.174718	0.441663
O16	O	1.953851	0.325282	0.941663
O17	O	1.753045	-0.367594	0.441618
O18	O	2.253045	0.132406	0.941618
O19	O	1.582938	-0.174691	0.570724
O20	O	2.082938	0.325309	1.070724
O21	O	1.453701	-0.284486	0.271302
O22	O	1.953701	0.215514	0.771302
O23	O	1.283428	-0.284440	0.441611
O24	O	1.783428	0.215560	0.941611
O25	O	1.453759	-0.367513	0.740966
O26	O	1.953759	0.132487	1.240966
O27	O	1.283389	-0.367548	0.570631
O28	O	1.783389	0.132452	1.070631
O29	O	1.582886	-0.284378	0.741006
O30	O	2.082886	0.215622	1.241006
O31	O	1.582622	-0.477316	0.441565
O32	O	2.082622	0.022684	0.941565
O33	O	1.453609	-0.477281	0.570605
O34	O	1.953609	0.022719	1.070605
C35	C	1.245288	-0.325993	0.506118
C36	C	1.745288	0.174007	1.006118
C37	C	1.128511	-0.326006	0.506134
C38	C	1.628511	0.173994	1.006134
C39	C	1.518122	-0.501858	0.506099
C40	C	2.018122	-0.001858	1.006099
C41	C	1.518161	-0.577089	0.506117
C42	C	2.018161	-0.077089	1.006117
C43	C	1.073656	-0.369346	0.573209
C44	C	1.573656	0.130654	1.073209
C45	C	0.963932	-0.369349	0.573230
C46	C	1.463932	0.130651	1.073230
C47	C	0.963928	-0.282669	0.439092
C48	C	1.463928	0.217331	0.939092
C49	C	1.073650	-0.282663	0.439077
C50	C	1.573650	0.217337	0.939077
C51	C	1.585690	-1.038876	0.439095
C52	C	2.085690	-0.538876	0.939095
C53	C	1.585641	-0.968188	0.439075
C54	C	2.085641	-0.468188	0.939075
C55	C	1.518393	-0.932851	0.506195
C56	C	2.018393	-0.432851	1.006195
C57	C	1.451182	-0.968207	0.573332
C58	C	1.951182	-0.468207	1.073332
C59	C	1.451227	-1.038894	0.573347
C60	C	1.951227	-0.538894	1.073347
C61	C	1.450999	-0.683134	0.573275
C62	C	1.950999	-0.183134	1.073275
C63	C	1.450962	-0.612441	0.573257
C64	C	1.950962	-0.112441	1.073257
C65	C	1.585413	-0.612427	0.439002
C66	C	2.085413	-0.112427	0.939002
C67	C	1.585458	-0.683114	0.439017
C68	C	2.085458	-0.183114	0.939017
C69	C	1.518244	-0.718464	0.506150
C70	C	2.018244	-0.218464	1.006150
C71	C	1.518297	-0.795112	0.506170
C72	C	2.018297	-0.295112	1.006170
C73	C	1.518344	-0.856204	0.506181
C74	C	2.018344	-0.356204	1.006181
C75	C	1.792288	-0.326010	0.506161
C76	C	2.292288	0.173990	1.006161
C77	C	1.909065	-0.326014	0.506170
C78	C	2.409065	0.173986	1.006170
C79	C	1.518334	-0.325936	0.780173
C80	C	2.018334	0.174064	1.280173
C81	C	1.518367	-0.325909	0.896949
C82	C	2.018367	0.174091	1.396949
C83	C	1.518417	-0.149459	0.506203
C84	C	2.018417	0.350541	1.006203
C85	C	1.518487	-0.074227	0.506230
C86	C	2.018487	0.425773	1.006230
C87	C	1.518237	-0.326017	0.233172
C88	C	2.018237	0.173983	0.733172
C89	C	1.518407	-0.325854	0.116396
C90	C	2.018407	0.174146	0.616396
C91	C	1.585608	-0.282614	0.951834
C92	C	2.085608	0.217386	1.451834
C93	C	1.585626	-0.282584	1.061558
C94	C	2.085626	0.217416	1.561558
C95	C	1.451159	-0.369151	1.061503
C96	C	1.951159	0.130849	1.561503
C97	C	1.451136	-0.369177	0.951781
C98	C	1.951136	0.130823	1.451781
H99	H	1.118321	-0.404637	0.627814
H100	H	1.618321	0.095363	1.127814
H101	H	1.396196	-0.583672	0.627916
H102	H	1.896196	-0.083672	1.127916
Cl103	Cl	1.142616	-0.228169	0.354754
Cl104	Cl	1.642616	0.271831	0.854754
H105	H	1.640349	-0.247380	0.907193
H106	H	2.140349	0.252620	1.407193
Cl107	Cl	1.366591	-0.423606	0.882778
Cl108	Cl	1.866591	0.076394	1.382778
H109	H	1.640379	-0.247328	1.106240
H110	H	2.140379	0.252672	1.606240
H111	H	0.919274	-0.404640	0.627851
H112	H	1.419274	0.095360	1.127851
Cl113	Cl	1.366519	-0.727564	0.657689
Cl114	Cl	1.866519	-0.227564	1.157689
H115	H	1.396422	-0.939432	0.627979
H116	H	1.896422	-0.439432	1.127979
Cl117	Cl	1.366650	-0.423546	1.130442
Cl118	Cl	1.866650	0.076454	1.630442
Cl119	Cl	1.366732	-1.083335	0.657742
Cl120	Cl	1.866732	-0.583335	1.157742
H121	H	0.919246	-0.247382	0.384495
H122	H	1.419246	0.252618	0.884495
H123	H	1.640362	-0.939405	0.384408
H124	H	2.140362	-0.439405	0.884408
Cl125	Cl	1.670241	-1.083292	0.354715
Cl126	Cl	2.170241	-0.583292	0.854715
H127	H	1.640222	-0.711882	0.384364
H128	H	2.140222	-0.211882	0.884364
H129	H	1.640140	-0.583638	0.384335
H130	H	2.140140	-0.083638	0.884335
