data_functionalizedCrystal
_audit_creation_method	'MofGen! by Chris Wilmer'
_symmetry_space_group_name_H-M	'P1'
_symmetry_Int_Tables_number	1
_symmetry_cell_setting	triclinic
loop_
_symmetry_equiv_pos_as_xyz
  x,y,z
_cell_length_a	19.188925
_cell_length_b	18.266242
_cell_length_c	19.288865
_cell_angle_alpha	90.011586
_cell_angle_beta	83.139398
_cell_angle_gamma	90.009988
loop_
_atom_site_label
_atom_site_type_symbol
_atom_site_fract_x
_atom_site_fract_y
_atom_site_fract_z
O1	O	0.926145	0.060905	0.086700
O2	O	1.426145	0.560905	0.586700
O3	O	0.722832	0.060904	0.098377
O4	O	1.222832	0.560904	0.598377
O5	O	0.830364	0.060890	-0.008591
O6	O	1.330364	0.560890	0.491409
O7	O	0.818614	0.060919	0.193669
O8	O	1.318614	0.560919	0.693669
O9	O	0.830345	-0.060872	-0.008597
O10	O	1.330345	0.439128	0.491403
O11	O	0.722814	-0.060858	0.098372
O12	O	1.222814	0.439142	0.598372
O13	O	0.926127	-0.060857	0.086694
O14	O	1.426127	0.439143	0.586694
Zn15	Zn	0.824468	-0.080190	0.092532
Zn16	Zn	1.324468	0.419810	0.592532
Zn17	Zn	0.824492	0.080237	0.092539
Zn18	Zn	1.324492	0.580237	0.592539
O19	O	0.818596	-0.060843	0.193663
O20	O	1.318596	0.439157	0.693663
C21	C	0.696812	0.000023	0.097997
C22	C	1.196812	0.500023	0.597997
C23	C	0.619308	0.000022	0.096864
C24	C	1.119308	0.500022	0.596864
C25	C	0.057533	0.000032	0.152041
C26	C	0.557533	0.500032	0.652041
C27	C	0.130356	0.000036	0.153112
C28	C	0.630356	0.500036	0.653112
C29	C	0.175296	0.000025	0.090346
C30	C	0.675296	0.500025	0.590346
C31	C	0.147406	0.000030	0.026505
C32	C	0.647406	0.500030	0.526505
C33	C	0.074584	0.000033	0.025435
C34	C	0.574584	0.500033	0.525435
N35	N	0.295970	-0.041430	0.044904
N36	N	0.795970	0.458570	0.544904
N37	N	0.365147	-0.041434	0.045924
N38	N	0.865147	0.458566	0.545924
C39	C	0.394705	0.000017	0.093563
C40	C	0.894705	0.500017	0.593563
N41	N	0.352470	0.041464	0.140155
N42	N	0.852470	0.541464	0.640155
N43	N	0.283286	0.041466	0.139137
N44	N	0.783286	0.541466	0.639137
C45	C	0.254260	0.000022	0.091498
C46	C	0.754260	0.500022	0.591498
C47	C	0.501549	0.000022	0.158562
C48	C	1.001549	0.500022	0.658562
C49	C	0.574373	0.000031	0.159630
C50	C	1.074373	0.500031	0.659630
C51	C	0.591422	0.000018	0.033021
C52	C	1.091422	0.500018	0.533021
C53	C	0.518599	0.000016	0.031955
C54	C	1.018599	0.500016	0.531955
C55	C	0.473666	0.000015	0.094727
C56	C	0.973666	0.500015	0.594727
N57	N	0.824456	-0.189677	0.092527
N58	N	1.324456	0.310323	0.592527
C59	C	0.872087	-0.227992	0.045184
C60	C	1.372087	0.272008	0.545184
C61	C	0.872091	-0.304637	0.045181
C62	C	1.372091	0.195363	0.545181
C63	C	0.824472	-0.342964	0.092532
C64	C	1.324472	0.157036	0.592532
C65	C	0.776833	-0.304639	0.139879
C66	C	1.276833	0.195361	0.639879
C67	C	0.776825	-0.227996	0.139876
C68	C	1.276825	0.272004	0.639876
N69	N	0.815392	-0.463287	0.154020
N70	N	1.315392	0.036713	0.654020
N71	N	0.815403	-0.536095	0.154021
N72	N	1.315403	-0.036095	0.654021
C73	C	0.824492	-0.573886	0.092542
C74	C	1.324492	-0.073886	0.592542
N75	N	0.833582	-0.536118	0.031062
N76	N	1.333582	-0.036118	0.531062
N77	N	0.833574	-0.463303	0.031062
N78	N	1.333574	0.036697	0.531062
C79	C	0.824475	-0.426070	0.092540
C80	C	1.324475	0.073930	0.592540
C81	C	0.872129	-0.695308	0.045192
C82	C	1.372129	-0.195308	0.545192
C83	C	0.872129	-0.771954	0.045188
C84	C	1.372129	-0.271954	0.545188
C85	C	0.776874	-0.771956	0.139892
C86	C	1.276874	-0.271956	0.639892
C87	C	0.776871	-0.695311	0.139890
C88	C	1.276871	-0.195311	0.639890
C89	C	0.824502	-0.656992	0.092541
C90	C	1.324502	-0.156992	0.592541
C91	C	0.952147	0.000026	0.087075
C92	C	1.452147	0.500026	0.587075
C93	C	1.029652	0.000032	0.088208
C94	C	1.529652	0.500032	0.588208
C95	C	0.829976	0.000007	-0.034471
C96	C	1.329976	0.500007	0.465529
C97	C	0.828842	0.000001	-0.111574
C98	C	1.328842	0.500001	0.388426
N99	N	0.824508	0.189724	0.092539
N100	N	1.324508	0.689724	0.592539
C101	C	0.891936	-0.000003	-0.156267
C102	C	1.391936	0.499997	0.343733
C103	C	0.890870	0.000009	-0.228714
C104	C	1.390870	0.500009	0.271286
C105	C	0.826706	0.000009	-0.256465
C106	C	1.326706	0.500009	0.243535
C107	C	0.763603	0.000016	-0.211763
C108	C	1.263603	0.500016	0.288237
C109	C	0.764671	0.000012	-0.139317
C110	C	1.264671	0.500012	0.360683
C111	C	0.776259	-0.042642	-0.364757
C112	C	1.276259	0.457358	0.135243
C113	C	0.775193	-0.042642	-0.437202
C114	C	1.275193	0.457358	0.062798
C115	C	0.823409	0.000025	-0.479911
C116	C	1.323409	0.500025	0.020089
C117	C	0.872702	0.042684	-0.450168
C118	C	1.372702	0.542684	0.049832
C119	C	0.873770	0.042679	-0.377723
C120	C	1.373770	0.542679	0.122277
C121	C	0.825540	0.000014	-0.335019
C122	C	1.325540	0.500014	0.164981
C123	C	0.885351	0.000036	-0.603160
C124	C	1.385351	0.500036	-0.103160
C125	C	0.884283	0.000052	-0.675608
C126	C	1.384283	0.500052	-0.175608
C127	C	0.757014	0.000052	-0.658655
C128	C	1.257014	0.500052	-0.158655
C129	C	0.758085	0.000043	-0.586208
C130	C	1.258085	0.500043	-0.086208
C131	C	0.822255	0.000032	-0.558466
C132	C	1.322255	0.500032	-0.058466
C133	C	0.818983	0.000042	0.219542
C134	C	1.318983	0.500042	0.719542
C135	C	0.820118	0.000053	0.296646
C136	C	1.320118	0.500053	0.796646
H137	H	0.184001	0.000023	-0.024600
H138	H	0.684001	0.500023	0.475400
H139	H	0.464962	0.000023	0.209675
H140	H	0.964962	0.500023	0.709675
H141	H	0.910869	-0.196794	0.006628
H142	H	1.410869	0.303206	0.506628
H143	H	0.910913	-0.803151	0.006632
H144	H	1.410913	-0.303151	0.506632
O145	O	0.918266	-0.341903	-0.000875
O146	O	1.418266	0.158097	0.499125
C147	C	0.933443	-0.428503	-0.095732
C148	C	1.433443	0.071497	0.404268
C149	C	0.881076	-0.386334	-0.043626
C150	C	1.381076	0.113666	0.456374
H151	H	0.903396	-0.464448	-0.130299
H152	H	1.403396	0.035552	0.369701
H153	H	0.967477	-0.387987	-0.129627
H154	H	1.467477	0.112013	0.370373
H155	H	0.968234	-0.464334	-0.065804
H156	H	1.468234	0.035666	0.434196
H157	H	0.846239	-0.350502	-0.073496
H158	H	1.346239	0.149498	0.426504
H159	H	0.847091	-0.426889	-0.009731
H160	H	1.347091	0.073111	0.490269
H161	H	0.942250	0.000009	-0.265110
H162	H	1.442250	0.500009	0.234890
H163	H	0.495898	0.000012	-0.020025
H164	H	0.995898	0.500012	0.479975
H165	H	0.738059	-0.335849	0.178432
H166	H	1.238059	0.164151	0.678432
H167	H	0.944189	-0.000010	-0.133684
H168	H	1.444189	0.499990	0.366316
H169	H	0.711360	0.000018	-0.234362
H170	H	1.211360	0.500018	0.265638
O171	O	0.918417	-0.658193	-0.000872
O172	O	1.418417	-0.158193	0.499128
C173	C	1.012921	-0.666279	-0.094778
C174	C	1.512921	-0.166279	0.405222
C175	C	0.960529	-0.708400	-0.042659
C176	C	1.460529	-0.208400	0.457341
H177	H	1.046992	-0.706853	-0.128566
H178	H	1.546992	-0.206853	0.371434
H179	H	0.982922	-0.630432	-0.129451
H180	H	1.482922	-0.130432	0.370549
H181	H	1.047670	-0.630361	-0.064863
H182	H	1.547670	-0.130361	0.435137
H183	H	0.925766	-0.744358	-0.072517
H184	H	1.425766	-0.244358	0.427483
H185	H	0.990571	-0.744201	-0.007987
H186	H	1.490571	-0.244201	0.492013
H187	H	0.911963	0.077428	-0.484941
H188	H	1.411963	0.577428	0.015059
O189	O	0.730531	-0.190886	0.185937
O190	O	1.230531	0.309114	0.685937
C191	C	0.636024	-0.198975	0.279839
C192	C	1.136024	0.301025	0.779839
C193	C	0.688423	-0.241094	0.227722
C194	C	1.188423	0.258906	0.727722
H195	H	0.601956	-0.239550	0.313627
H196	H	1.101956	0.260450	0.813627
H197	H	0.666018	-0.163098	0.314513
H198	H	1.166018	0.336902	0.814513
H199	H	0.601273	-0.163088	0.249922
H200	H	1.101273	0.336912	0.749922
H201	H	0.723188	-0.277022	0.257583
H202	H	1.223188	0.222978	0.757583
H203	H	0.658386	-0.276926	0.193050
H204	H	1.158386	0.223074	0.693050
O205	O	0.947745	0.000070	-0.576321
O206	O	1.447745	0.500070	-0.076321
C207	C	1.073862	0.000041	-0.600780
C208	C	1.573862	0.500041	-0.100780
C209	C	1.003253	0.000016	-0.631265
C210	C	1.503253	0.500016	-0.131265
H211	H	1.118759	-0.000018	-0.645188
H212	H	1.618759	0.499982	-0.145188
H213	H	1.077594	0.051009	-0.567299
H214	H	1.577594	0.551009	-0.067299
H215	H	1.077504	-0.050906	-0.567275
H216	H	1.577504	0.449094	-0.067275
H217	H	0.999564	0.050929	-0.664801
H218	H	1.499564	0.550929	-0.164801
H219	H	0.999551	-0.050985	-0.664706
H220	H	1.499551	0.449015	-0.164706
O221	O	0.635038	0.000138	-0.027970
O222	O	1.135038	0.500138	0.472030
C223	C	0.671870	0.063187	-0.135866
C224	C	1.171870	0.563187	0.364134
C225	C	0.622443	0.063146	-0.066811
C226	C	1.122443	0.563146	0.433189
H227	H	0.661694	0.114116	-0.167296
H228	H	1.161694	0.614116	0.332704
H229	H	0.728722	0.063234	-0.124181
H230	H	1.228722	0.563234	0.375819
H231	H	0.661750	0.012204	-0.167268
H232	H	1.161750	0.512204	0.332732
H233	H	0.632499	0.114121	-0.035375
H234	H	1.132499	0.614121	0.464625
H235	H	0.565607	0.063061	-0.078545
H236	H	1.065607	0.563061	0.421455
H237	H	0.051885	0.000033	-0.026547
H238	H	0.551885	0.500033	0.473453
O239	O	0.730519	-0.809143	0.185821
O240	O	1.230519	-0.309143	0.685821
C241	C	0.608993	-0.832581	0.226851
C242	C	1.108993	-0.332581	0.726851
C243	C	0.661416	-0.790429	0.174788
C244	C	1.161416	-0.290429	0.674788
H245	H	0.553112	-0.817454	0.217959
H246	H	1.053112	-0.317454	0.717959
H247	H	0.617116	-0.893951	0.218723
H248	H	1.117116	-0.393951	0.718723
H249	H	0.617948	-0.817503	0.282456
H250	H	1.117948	-0.317503	0.782456
H251	H	0.652493	-0.805446	0.119162
H252	H	1.152493	-0.305446	0.619162
H253	H	0.653280	-0.729069	0.182978
H254	H	1.153280	-0.229069	0.682978
O255	O	0.730677	-0.658122	0.185982
O256	O	1.230677	-0.158122	0.685982
C257	C	0.689353	-0.634691	0.306862
C258	C	1.189353	-0.134691	0.806862
C259	C	0.741722	-0.676838	0.254739
C260	C	1.241722	-0.176838	0.754739
H261	H	0.698254	-0.649819	0.362463
H262	H	1.198254	-0.149819	0.862463
H263	H	0.697524	-0.573320	0.298791
H264	H	1.197524	-0.073320	0.798791
H265	H	0.633470	-0.649771	0.297915
H266	H	1.133470	-0.149771	0.797915
H267	H	0.797625	-0.661819	0.263655
H268	H	1.297625	-0.161819	0.763655
H269	H	0.733489	-0.738199	0.262823
H270	H	1.233489	-0.238199	0.762823
H271	H	0.913904	0.077415	-0.353509
H272	H	1.413904	0.577415	0.146491
H273	H	0.735053	-0.077373	-0.461412
H274	H	1.235053	0.422627	0.038588
H275	H	0.597072	0.000037	0.211613
H276	H	1.097072	0.500037	0.711613
O277	O	0.694666	0.000183	-0.685569
O278	O	1.194666	0.500183	-0.185569
C279	C	0.585557	0.063246	-0.693193
C280	C	1.085557	0.563246	-0.193193
C281	C	0.656150	0.063194	-0.662677
C282	C	1.156150	0.563194	-0.162677
H283	H	0.554391	0.114177	-0.674685
H284	H	1.054391	0.614177	-0.174685
H285	H	0.595587	0.063298	-0.752652
H286	H	1.095587	0.563298	-0.252652
H287	H	0.554409	0.012265	-0.674794
H288	H	1.054409	0.512265	-0.174794
H289	H	0.687334	0.114166	-0.681023
H290	H	1.187334	0.614166	-0.181023
H291	H	0.646071	0.063104	-0.603221
H292	H	1.146071	0.563104	-0.103221
O293	O	0.696812	0.000168	-0.542762
O294	O	1.196812	0.500168	-0.042762
C295	C	0.624185	0.063223	-0.451089
C296	C	1.124185	0.563223	0.048911
C297	C	0.693598	0.063177	-0.500262
C298	C	1.193598	0.563177	-0.000262
H299	H	0.621571	0.114152	-0.416705
H300	H	1.121571	0.614152	0.083295
H301	H	0.578114	0.063272	-0.483332
H302	H	1.078114	0.563272	0.016668
H303	H	0.621504	0.012240	-0.416792
H304	H	1.121504	0.512240	0.083208
H305	H	0.696348	0.114151	-0.534570
H306	H	1.196348	0.614151	-0.034570
H307	H	0.739637	0.063090	-0.467978
H308	H	1.239637	0.563090	0.032022
H309	H	0.935664	0.000053	-0.711997
H310	H	1.435664	0.500053	-0.211997
H311	H	0.736994	-0.077391	-0.329989
H312	H	1.236994	0.422609	0.170011
H313	H	0.153062	0.000029	0.205094
H314	H	0.653062	0.500029	0.705094
H315	H	0.020953	0.000034	0.203155
H316	H	0.520953	0.500034	0.703155
H317	H	0.713290	0.000015	-0.102927
H318	H	1.213290	0.500015	0.397073
