data_functionalizedCrystal
_audit_creation_method	'MofGen! by Chris Wilmer'
_symmetry_space_group_name_H-M	'P1'
_symmetry_Int_Tables_number	1
_symmetry_cell_setting	triclinic
loop_
_symmetry_equiv_pos_as_xyz
  x,y,z
_cell_length_a	18.215407
_cell_length_b	16.625545
_cell_length_c	18.215399
_cell_angle_alpha	89.973113
_cell_angle_beta	89.982632
_cell_angle_gamma	90.023001
loop_
_atom_site_label
_atom_site_type_symbol
_atom_site_fract_x
_atom_site_fract_y
_atom_site_fract_z
Zn1	Zn	1.125068	-0.321065	-0.416073
Zn2	Zn	1.625068	0.178935	0.083927
Zn3	Zn	1.124975	-0.455905	-0.293009
Zn4	Zn	1.624975	0.044095	0.206991
Zn5	Zn	1.002001	-0.321084	-0.293026
Zn6	Zn	1.502001	0.178916	0.206974
Zn7	Zn	1.001965	-0.455853	-0.416039
Zn8	Zn	1.501965	0.044147	0.083961
O9	O	1.063503	-0.388477	-0.354537
O10	O	1.563503	0.111523	0.145463
O11	O	1.228040	-0.338965	-0.399755
O12	O	1.728040	0.161035	0.100245
O13	O	1.108639	-0.438051	-0.190027
O14	O	1.608639	0.061949	0.309973
O15	O	1.018380	-0.208249	-0.309369
O16	O	1.518380	0.291751	0.190631
O17	O	1.227972	-0.438032	-0.309341
O18	O	1.727972	0.061968	0.190659
O19	O	1.108797	-0.208235	-0.399772
O20	O	1.608797	0.291765	0.100228
O21	O	1.018290	-0.338998	-0.190039
O22	O	1.518290	0.161002	0.309961
O23	O	0.899012	-0.338948	-0.309336
O24	O	1.399012	0.161052	0.190664
O25	O	1.018319	-0.437943	-0.519028
O26	O	1.518319	0.062057	-0.019028
O27	O	0.898986	-0.437962	-0.399714
O28	O	1.398986	0.062038	0.100286
O29	O	1.108763	-0.338915	-0.519053
O30	O	1.608763	0.161085	-0.019053
O31	O	1.108604	-0.568731	-0.309308
O32	O	1.608604	-0.068731	0.190692
O33	O	1.018229	-0.568693	-0.399698
O34	O	1.518229	-0.068693	0.100302
C35	C	0.872296	-0.388452	-0.354524
C36	C	1.372296	0.111548	0.145476
C37	C	0.790497	-0.388461	-0.354536
C38	C	1.290497	0.111539	0.145464
C39	C	0.602338	-0.336983	-0.401689
C40	C	1.102338	0.163017	0.098311
C41	C	0.525479	-0.336990	-0.401691
C42	C	1.025479	0.163010	0.098309
C43	C	0.525419	-0.439993	-0.307397
C44	C	1.025419	0.060007	0.192603
C45	C	0.602276	-0.439982	-0.307392
C46	C	1.102276	0.060018	0.192608
C47	C	0.640734	-0.388478	-0.354542
C48	C	1.140734	0.111522	0.145458
C49	C	0.487018	-0.388496	-0.354550
C50	C	0.987018	0.111504	0.145450
C51	C	0.403684	-0.388504	-0.354552
C52	C	0.903684	0.111496	0.145448
C53	C	0.724073	-0.388469	-0.354539
C54	C	1.224073	0.111531	0.145461
C55	C	1.063423	-0.597968	-0.354513
C56	C	1.563423	-0.097968	0.145487
C57	C	1.063456	-0.687589	-0.354528
C58	C	1.563456	-0.187589	0.145472
C59	C	1.063484	-0.760371	-0.354543
C60	C	1.563484	-0.260371	0.145457
C61	C	1.063527	-0.851680	-0.354559
C62	C	1.563527	-0.351680	0.145441
C63	C	1.063565	-0.924456	-0.354568
C64	C	1.563565	-0.424456	0.145432
C65	C	1.063607	-1.015770	-0.354583
C66	C	1.563607	-0.515770	0.145417
C67	C	1.255455	-0.388502	-0.354550
C68	C	1.755455	0.111498	0.145450
C69	C	1.337254	-0.388513	-0.354556
C70	C	1.837254	0.111487	0.145444
C71	C	1.063547	-0.388421	-0.546490
C72	C	1.563547	0.111579	-0.046490
C73	C	1.063567	-0.388398	-0.628289
C74	C	1.563567	0.111602	-0.128289
C75	C	1.063603	-0.178168	-0.354576
C76	C	1.563603	0.321832	0.145424
C77	C	1.063646	-0.088547	-0.354593
C78	C	1.563646	0.411453	0.145407
C79	C	1.110677	-0.336785	-0.816497
C80	C	1.610677	0.163215	-0.316497
C81	C	1.110686	-0.336762	-0.893355
C82	C	1.610686	0.163238	-0.393355
C83	C	1.016508	-0.439885	-0.893318
C84	C	1.516508	0.060115	-0.393318
C85	C	1.016496	-0.439904	-0.816461
C86	C	1.516496	0.060096	-0.316461
C87	C	1.063585	-0.388355	-0.778052
C88	C	1.563585	0.111645	-0.278052
C89	C	1.063606	-0.388313	-0.931768
C90	C	1.563606	0.111687	-0.431768
C91	C	1.063615	-0.388288	-1.015102
C92	C	1.563615	0.111712	-0.515102
C93	C	1.063575	-0.388379	-0.694713
C94	C	1.563575	0.111621	-0.194713
C95	C	1.063500	-0.388474	-0.163330
C96	C	1.563500	0.111526	0.336670
C97	C	1.063624	-0.388271	-0.081532
C98	C	1.563624	0.111729	0.418468
H99	H	0.633648	-0.295043	-0.440079
H100	H	1.133648	0.204957	0.059921
H101	H	0.633539	-0.481916	-0.268995
H102	H	1.133539	0.018084	0.231005
H103	H	0.978171	-0.481856	-0.924600
H104	H	1.478171	0.018144	-0.424600
H105	H	1.149032	-0.294767	-0.924654
H106	H	1.649032	0.205233	-0.424654
N107	N	0.484066	-0.281441	-0.452534
N108	N	0.984066	0.218559	0.047466
H109	H	0.520093	-0.248811	-0.482398
H110	H	1.020093	0.251189	0.017602
H111	H	0.452176	-0.314305	-0.486543
H112	H	0.952176	0.185695	0.013457
N113	N	0.483940	-0.495539	-0.256543
N114	N	0.983940	0.004461	0.243457
H115	H	0.429424	-0.487735	-0.263700
H116	H	0.929424	0.012265	0.236300
H117	H	0.497364	-0.553140	-0.267902
H118	H	0.997364	-0.053140	0.232098
N119	N	1.161462	-0.281188	-0.775068
N120	N	1.661462	0.218812	-0.275068
H121	H	1.191295	-0.248515	-0.811088
H122	H	1.691295	0.251485	-0.311088
H123	H	1.131518	-0.243880	-0.743183
H124	H	1.631518	0.256120	-0.243183
N125	N	0.965686	-0.495512	-0.774989
N126	N	1.465686	0.004488	-0.274989
H127	H	0.935857	-0.528165	-0.810982
H128	H	1.435857	-0.028165	-0.310982
H129	H	0.995609	-0.532840	-0.743088
H130	H	1.495609	-0.032840	-0.243088
