data_functionalizedCrystal
_audit_creation_method	'MofGen! by Chris Wilmer'
_symmetry_space_group_name_H-M	'P1'
_symmetry_Int_Tables_number	1
_symmetry_cell_setting	triclinic
loop_
_symmetry_equiv_pos_as_xyz
  x,y,z
_cell_length_a	17.077404
_cell_length_b	29.839131
_cell_length_c	17.077404
_cell_angle_alpha	90.014381
_cell_angle_beta	90.008318
_cell_angle_gamma	90.041645
loop_
_atom_site_label
_atom_site_type_symbol
_atom_site_fract_x
_atom_site_fract_y
_atom_site_fract_z
Zn1	Zn	1.199867	-0.178928	0.443824
Zn2	Zn	1.699867	0.321072	0.943824
Zn3	Zn	1.199757	-0.254036	0.312550
Zn4	Zn	1.699757	0.245964	0.812550
Zn5	Zn	1.068624	-0.178921	0.312572
Zn6	Zn	1.568624	0.321079	0.812572
Zn7	Zn	1.068524	-0.254032	0.443773
Zn8	Zn	1.568524	0.245968	0.943773
O9	O	1.134193	-0.216480	0.378180
O10	O	1.634193	0.283520	0.878180
O11	O	1.309699	-0.188896	0.426422
O12	O	1.809699	0.311104	0.926422
O13	O	1.182358	-0.244070	0.202706
O14	O	1.682358	0.255930	0.702706
O15	O	1.086122	-0.116055	0.330013
O16	O	1.586122	0.383945	0.830013
O17	O	1.309619	-0.244077	0.329976
O18	O	1.809619	0.255923	0.829976
O19	O	1.182545	-0.116060	0.426443
O20	O	1.682545	0.383940	0.926443
O21	O	1.086015	-0.188884	0.202722
O22	O	1.586015	0.311116	0.702722
O23	O	0.958764	-0.188880	0.329964
O24	O	1.458764	0.311120	0.829964
O25	O	1.085951	-0.244071	0.553627
O26	O	1.585951	0.255929	1.053627
O27	O	0.958691	-0.244064	0.426357
O28	O	1.458691	0.255936	0.926357
O29	O	1.182448	-0.188893	0.553664
O30	O	1.682448	0.311107	1.053664
O31	O	1.182261	-0.316903	0.329927
O32	O	1.682261	0.183097	0.829927
O33	O	1.085845	-0.316900	0.426336
O34	O	1.585845	0.183100	0.926336
C35	C	0.930245	-0.216471	0.378158
C36	C	1.430245	0.283529	0.878158
C37	C	0.842995	-0.216479	0.378167
C38	C	1.342995	0.283521	0.878167
C39	C	0.801987	-0.245256	0.428279
C40	C	1.301987	0.254744	0.928279
C41	C	0.720007	-0.245257	0.428291
C42	C	1.220007	0.254743	0.928291
C43	C	0.679036	-0.216483	0.378188
C44	C	1.179036	0.283517	0.878188
C45	C	0.720050	-0.187702	0.328074
C46	C	1.220050	0.312298	0.828074
C47	C	0.802029	-0.187699	0.328066
C48	C	1.302029	0.312301	0.828066
C49	C	0.549180	-0.187711	0.328093
C50	C	1.049180	0.312289	0.828093
C51	C	0.467195	-0.187714	0.328100
C52	C	0.967195	0.312286	0.828100
C53	C	0.467158	-0.245269	0.428318
C54	C	0.967158	0.254731	0.928318
C55	C	0.549137	-0.245266	0.428310
C56	C	1.049137	0.254734	0.928310
C57	C	0.590145	-0.216486	0.378195
C58	C	1.090145	0.283514	0.878195
C59	C	1.134051	-0.333202	0.378141
C60	C	1.634051	0.166798	0.878141
C61	C	1.134062	-0.383137	0.378150
C62	C	1.634062	0.116863	0.878150
C63	C	1.184488	-0.692769	0.328053
C64	C	1.684488	-0.192769	0.828053
C65	C	1.184585	-0.880442	0.328083
C66	C	1.684585	-0.380442	0.828083
O67	O	1.227347	-0.904697	0.285458
O68	O	1.727347	-0.404697	0.785458
N69	N	1.134356	-0.903922	0.378239
N70	N	1.634356	-0.403922	0.878239
C71	C	1.084102	-0.880480	0.428394
C72	C	1.584102	-0.380480	0.928394
O73	O	1.041387	-0.904758	0.471061
O74	O	1.541387	-0.404758	0.971061
C75	C	1.084010	-0.692808	0.428367
C76	C	1.584010	-0.192808	0.928367
C77	C	1.134237	-0.669331	0.378202
C78	C	1.634237	-0.169331	0.878202
C79	C	1.234712	-0.669291	0.277893
C80	C	1.734712	-0.169291	0.777893
C81	C	1.234684	-0.622376	0.277883
C82	C	1.734684	-0.122376	0.777883
C83	C	1.184433	-0.598938	0.328032
C84	C	1.684433	-0.098938	0.828032
C85	C	1.134209	-0.622415	0.378192
C86	C	1.634209	-0.122415	0.878192
C87	C	1.033761	-0.669368	0.478526
C88	C	1.533761	-0.169368	0.978526
C89	C	1.033744	-0.622447	0.478516
C90	C	1.533744	-0.122447	0.978516
C91	C	1.083971	-0.598969	0.428351
C92	C	1.583971	-0.098969	0.928351
C93	C	1.083930	-0.552062	0.428332
C94	C	1.583930	-0.052062	0.928332
N95	N	1.134160	-0.528582	0.378176
N96	N	1.634160	-0.028582	0.878176
C97	C	1.184411	-0.552020	0.328026
C98	C	1.684411	-0.052020	0.828026
C99	C	1.084153	-0.979011	0.428404
C100	C	1.584153	-0.479011	0.928404
C101	C	1.084175	-1.025929	0.428410
C102	C	1.584175	-0.525929	0.928410
C103	C	1.184659	-1.025887	0.328099
C104	C	1.684659	-0.525887	0.828099
C105	C	1.184633	-0.978968	0.328090
C106	C	1.684633	-0.478968	0.828090
C107	C	1.134383	-0.955531	0.378248
C108	C	1.634383	-0.455531	0.878248
C109	C	1.184348	-0.453494	0.328009
C110	C	1.684348	0.046506	0.828009
C111	C	1.184314	-0.406575	0.328001
C112	C	1.684314	0.093425	0.828001
C113	C	1.083833	-0.406620	0.428313
C114	C	1.583833	0.093380	0.928313
C115	C	1.083864	-0.453536	0.428319
C116	C	1.583864	0.046464	0.928319
C117	C	1.134128	-0.476972	0.378164
C118	C	1.634128	0.023028	0.878164
O119	O	1.041197	-0.527778	0.470941
O120	O	1.541197	-0.027778	0.970941
O121	O	1.227132	-0.527735	0.285378
O122	O	1.727132	-0.027735	0.785378
C123	C	1.184516	-0.739684	0.328063
C124	C	1.684516	-0.239684	0.828063
C125	C	1.134292	-0.763162	0.378223
C126	C	1.634292	-0.263162	0.878223
C127	C	1.084041	-0.739724	0.428373
C128	C	1.584041	-0.239724	0.928373
C129	C	1.134314	-0.810079	0.378229
C130	C	1.634314	-0.310079	0.878229
C131	C	1.184566	-0.833517	0.328079
C132	C	1.684566	-0.333517	0.828079
C133	C	1.234795	-0.810038	0.277923
C134	C	1.734795	-0.310038	0.777923
C135	C	1.234767	-0.763122	0.277913
C136	C	1.734767	-0.263122	0.777913
C137	C	1.033812	-0.763203	0.478528
C138	C	1.533812	-0.263203	0.978528
C139	C	1.033843	-0.810119	0.478534
C140	C	1.533843	-0.310119	0.978534
C141	C	1.084094	-0.833557	0.428384
C142	C	1.584094	-0.333557	0.928384
C143	C	1.338937	-0.216488	0.378202
C144	C	1.838937	0.283512	0.878202
C145	C	1.426187	-0.216492	0.378211
C146	C	1.926187	0.283508	0.878211
C147	C	1.134201	-0.216482	0.582924
C148	C	1.634201	0.283518	1.082924
C149	C	1.134204	-0.216483	0.670174
C150	C	1.634204	0.283517	1.170174
C151	C	1.134357	-0.099301	0.378236
C152	C	1.634357	0.400699	0.878236
C153	C	1.134427	-0.049367	0.378260
C154	C	1.634427	0.450633	0.878260
C155	C	1.184444	-0.187757	0.711184
C156	C	1.684444	0.312243	1.211184
C157	C	1.184437	-0.187756	0.793165
C158	C	1.684437	0.312244	1.293165
C159	C	1.134194	-0.216485	0.834133
C160	C	1.634194	0.283515	1.334133
C161	C	1.083949	-0.245213	0.793117
C162	C	1.583949	0.254787	1.293117
C163	C	1.083952	-0.245211	0.711138
C164	C	1.583952	0.254789	1.211138
C165	C	1.083947	-0.245216	0.963987
C166	C	1.583947	0.254784	1.463987
C167	C	1.083945	-0.245218	1.045971
C168	C	1.583945	0.254782	1.545971
C169	C	1.184432	-0.187761	1.046014
C170	C	1.684432	0.312239	1.546014
C171	C	1.184435	-0.187759	0.964035
C172	C	1.684435	0.312241	1.464035
C173	C	1.134191	-0.216488	0.923024
C174	C	1.634191	0.283512	1.423024
C175	C	1.134182	-0.216488	1.174232
C176	C	1.634182	0.283512	1.674232
C177	C	1.134184	-0.216492	1.086982
C178	C	1.634184	0.283508	1.586982
H179	H	0.835340	-0.268690	0.469076
H180	H	1.335340	0.231310	0.969076
F181	F	1.030357	-0.381668	0.481686
F182	F	1.530357	0.118332	0.981686
H183	H	0.686622	-0.268691	0.469096
H184	H	1.186622	0.231309	0.969096
F185	F	1.288152	-0.597395	0.224499
F186	F	1.788152	-0.097395	0.724499
H187	H	1.225280	-0.472570	0.287169
H188	H	1.725280	0.027430	0.787169
F189	F	1.288229	-0.738141	0.224523
F190	F	1.788229	-0.238141	0.724523
F191	F	1.288274	-0.834990	0.224548
F192	F	1.788274	-0.334990	0.724548
F193	F	0.845672	-0.157069	0.274732
F194	F	1.345672	0.342931	0.774732
F195	F	0.980379	-0.835100	0.531928
F196	F	1.480379	-0.335100	1.031928
H197	H	0.582493	-0.268699	0.469105
H198	H	1.082493	0.231301	0.969105
F199	F	1.030469	-0.275791	0.920342
F200	F	1.530469	0.224209	1.420342
F201	F	0.423592	-0.157091	0.274771
F202	F	0.923592	0.342909	0.774771
H203	H	1.275637	-0.688369	0.237055
H204	H	1.775637	-0.188369	0.737055
F205	F	1.237774	-0.381591	0.274606
F206	F	1.737774	0.118409	0.774606
H207	H	0.582566	-0.164271	0.287291
H208	H	1.082566	0.335729	0.787291
H209	H	0.433765	-0.268702	0.469126
H210	H	0.933765	0.231298	0.969126
H211	H	1.225532	-0.959856	0.287242
H212	H	1.725532	-0.459856	0.787242
H213	H	1.043034	-0.268599	0.677748
H214	H	1.543034	0.231401	1.177748
F215	F	1.238139	-1.050839	0.274724
F216	F	1.738139	-0.550839	0.774724
F217	F	0.980261	-0.597506	0.531904
F218	F	1.480261	-0.097506	1.031904
F219	F	1.237914	-0.157185	0.920435
F220	F	1.737914	0.342815	1.420435
H221	H	0.992892	-0.744124	0.519367
H222	H	1.492892	-0.244124	1.019367
F223	F	1.030708	-1.050910	0.481793
F224	F	1.530708	-0.550910	0.981793
F225	F	1.237924	-0.157181	0.667590
F226	F	1.737924	0.342819	1.167590
H227	H	0.686685	-0.164271	0.287282
H228	H	1.186685	0.335729	0.787282
F229	F	1.237936	-0.157197	0.836808
F230	F	1.737936	0.342803	1.336808
F231	F	1.030666	-0.954073	0.481791
F232	F	1.530666	-0.454073	0.981791
F233	F	0.980308	-0.694344	0.531926
F234	F	1.480308	-0.194344	1.031926
F235	F	1.030393	-0.478523	0.481695
F236	F	1.530393	0.021477	0.981695
F237	F	1.237907	-0.157186	1.089661
F238	F	1.737907	0.342814	1.589661
H239	H	1.043031	-0.268611	1.079326
H240	H	1.543031	0.231389	1.579326
F241	F	1.030473	-0.275786	0.836720
F242	F	1.530473	0.224214	1.336720
