data_functionalizedCrystal
_audit_creation_method	'MofGen! by Chris Wilmer'
_symmetry_space_group_name_H-M	'P1'
_symmetry_Int_Tables_number	1
_symmetry_cell_setting	triclinic
loop_
_symmetry_equiv_pos_as_xyz
  x,y,z
_cell_length_a	10.489741
_cell_length_b	11.026607
_cell_length_c	9.482900
_cell_angle_alpha	101.363848
_cell_angle_beta	99.430409
_cell_angle_gamma	83.437405
loop_
_atom_site_label
_atom_site_type_symbol
_atom_site_fract_x
_atom_site_fract_y
_atom_site_fract_z
O1	O	0.519526	-1.633618	-0.120902
O2	O	0.458584	-1.279780	-0.120903
O3	O	0.305229	-1.464749	-0.120894
O4	O	0.672881	-1.448649	-0.120911
O5	O	0.336539	-1.427179	0.120897
O6	O	0.489894	-1.242210	0.120887
O7	O	0.550836	-1.596048	0.120889
Cu8	Cu	0.523224	-1.415698	0.142965
Cu9	Cu	0.486196	-1.460129	-0.142980
O10	O	0.704190	-1.411079	0.120879
C11	C	0.462996	-1.215686	-0.000008
C12	C	0.429482	-1.080679	-0.000008
C13	C	0.273085	-1.444748	0.000000
C14	C	0.130655	-1.441110	-0.000002
C15	C	0.546423	-1.660143	-0.000010
C16	C	0.579936	-1.795151	-0.000019
C17	C	0.036624	-1.323420	-0.000013
C18	C	-0.027831	-1.360492	0.119202
C19	C	-0.058669	-1.397561	-0.119184
C20	C	0.068088	-1.478215	0.119312
C21	C	0.037242	-1.515284	-0.119182
C22	C	-0.027163	-1.552438	0.000063
C23	C	0.736334	-1.431080	-0.000018
C24	C	0.878763	-1.434720	-0.000025
N25	N	0.549268	-1.384457	0.344084
C26	C	0.522021	-1.007683	-0.000014
C27	C	0.487384	-0.868146	-0.000014
N28	N	0.460144	-1.491380	-0.344099
C29	C	0.493869	-1.450906	0.416286
C30	C	0.515551	-1.424922	0.583703
H31	H	-0.056746	-1.295034	0.219990
C32	C	0.289662	-1.026301	0.000295
C33	C	0.245139	-1.045850	0.124710
C34	C	0.116347	-0.995764	0.125047
H35	H	0.237243	-1.065622	-0.083924
H36	H	0.284923	-0.939729	0.000372
H37	H	0.249869	-1.132405	0.124619
H38	H	0.297523	-1.006527	0.208948
H39	H	0.111608	-0.909192	0.125125
H40	H	0.063940	-1.035090	0.040823
H41	H	0.086126	-1.009011	0.209467
C42	C	0.600392	-1.323495	0.666334
C43	C	0.725737	-1.350329	0.629380
C44	C	0.803920	-1.256916	0.705457
H45	H	0.603876	-1.319430	0.767871
H46	H	0.564923	-1.245985	0.641446
H47	H	0.761197	-1.427817	0.654278
H48	H	0.722294	-1.354382	0.527856
H49	H	0.768452	-1.179406	0.680569
H50	H	0.807394	-1.252859	0.806990
H51	H	0.888972	-1.275103	0.680385
C52	C	0.375396	-1.592908	0.573348
C53	C	0.328466	-1.649154	0.672409
C54	C	0.250380	-1.742672	0.596415
H55	H	0.425113	-1.653345	0.513948
H56	H	0.304523	-1.557744	0.514016
H57	H	0.399328	-1.684318	0.731716
H58	H	0.278728	-1.588749	0.731812
H59	H	0.179508	-1.707509	0.537083
H60	H	0.300107	-1.803101	0.537017
H61	H	0.218519	-1.780839	0.663615
C62	C	0.141135	-1.523897	0.253734
C63	C	0.108167	-1.643382	0.253862
C64	C	0.175447	-1.685504	0.377658
H65	H	0.118470	-1.469362	0.338395
H66	H	0.231812	-1.525975	0.252946
H67	H	0.017510	-1.641296	0.254664
H68	H	0.130835	-1.697945	0.169229
H69	H	0.266124	-1.687582	0.376870
H70	H	0.152777	-1.630961	0.462309
H71	H	0.153097	-1.766582	0.377755
H72	H	-0.055274	-1.649280	0.000129
H73	H	0.612742	-1.308326	0.406210
H74	H	0.066180	-1.580702	-0.219975
H75	H	-0.113642	-1.363411	-0.219981
C76	C	0.074257	-1.194341	-0.000087
C77	C	0.007575	-1.151588	-0.123749
C78	C	0.042195	-1.032682	-0.123849
H79	H	0.164995	-1.197525	-0.001025
H80	H	0.052211	-1.139489	0.084666
H81	H	0.029629	-1.206426	-0.208480
H82	H	-0.083165	-1.148375	-0.122837
H83	H	0.020149	-0.977830	-0.039096
H84	H	0.132934	-1.035878	-0.124783
H85	H	-0.003052	-1.003655	-0.207744
H86	H	0.430383	-1.527029	0.354162
C87	C	0.719866	-0.849296	0.000048
C88	C	0.798528	-0.754902	0.000078
C89	C	0.927437	-0.804731	0.000160
H90	H	0.726052	-0.911318	-0.084245
H91	H	0.747773	-0.885091	0.084401
H92	H	0.770629	-0.719127	-0.084266
H93	H	0.792381	-0.692874	0.084366
H94	H	0.955344	-0.840526	0.084513
H95	H	0.933610	-0.866752	-0.084135
H96	H	0.980827	-0.740691	0.000194
H97	H	0.382504	-0.827348	-0.000046
C98	C	0.661772	-1.062327	-0.000086
C99	C	0.668337	-1.189871	-0.000116
C100	C	0.797054	-1.240248	-0.000200
H101	H	0.714166	-1.023091	0.084207
H102	H	0.692233	-1.049235	-0.084439
H103	H	0.637892	-1.202953	0.084228
H104	H	0.615970	-1.229139	-0.084403
H105	H	0.827515	-1.227157	-0.084553
H106	H	0.849438	-1.201003	0.084095
H107	H	0.801524	-1.326793	-0.000234
