data_functionalizedCrystal
_audit_creation_method	'MofGen! by Chris Wilmer'
_symmetry_space_group_name_H-M	'P1'
_symmetry_Int_Tables_number	1
_symmetry_cell_setting	triclinic
loop_
_symmetry_equiv_pos_as_xyz
  x,y,z
_cell_length_a	12.759399
_cell_length_b	12.759401
_cell_length_c	12.759393
_cell_angle_alpha	89.979943
_cell_angle_beta	90.032031
_cell_angle_gamma	89.989281
loop_
_atom_site_label
_atom_site_type_symbol
_atom_site_fract_x
_atom_site_fract_y
_atom_site_fract_z
Zn1	Zn	-0.418327	-1.606252	0.594023
Zn2	Zn	-0.594046	-1.606145	0.418342
Zn3	Zn	-0.418368	-1.430554	0.418358
Zn4	Zn	-0.593951	-1.430541	0.593979
O5	O	-0.506173	-1.518373	0.506175
O6	O	-0.441659	-1.753259	0.570731
O7	O	-0.570799	-1.582813	0.271323
O8	O	-0.271342	-1.453911	0.441685
O9	O	-0.570759	-1.753180	0.441659
O10	O	-0.271312	-1.582995	0.570746
O11	O	-0.441729	-1.453807	0.271334
O12	O	-0.441637	-1.283531	0.441642
O13	O	-0.570597	-1.453889	0.741006
O14	O	-0.570637	-1.283522	0.570670
O15	O	-0.441567	-1.582983	0.741038
O16	O	-0.741055	-1.582801	0.441615
O17	O	-0.740985	-1.453785	0.570655
C18	C	-0.506132	-1.245406	0.506154
C19	C	-0.506140	-1.128629	0.506169
C20	C	-0.439053	-0.964071	0.573484
C21	C	-0.439039	-1.073796	0.573480
C22	C	-0.573266	-1.073733	0.438866
C23	C	-0.573285	-0.964011	0.438876
C24	C	-0.401622	-1.223802	0.697436
C25	C	-0.334486	-1.278694	0.764727
C26	C	-0.231997	-1.243092	0.781038
C27	C	-0.196622	-1.152600	0.730044
C28	C	-0.263752	-1.097713	0.662745
C29	C	-0.366256	-1.133314	0.646454
C30	C	-0.610691	-0.814003	0.314919
C31	C	-0.677817	-0.759114	0.247614
C32	C	-0.780308	-0.794714	0.231292
C33	C	-0.815679	-0.885209	0.282268
C34	C	-0.748553	-0.940098	0.349572
C35	C	-0.646063	-0.904491	0.365896
C36	C	-0.779141	-1.518309	0.506151
C37	C	-0.895917	-1.518377	0.506176
C38	C	-0.950780	-1.585632	0.439062
C39	C	-1.060505	-1.585700	0.439097
C40	C	-1.060492	-1.451248	0.573364
C41	C	-0.950770	-1.451187	0.573334
C42	C	-1.210394	-1.709709	0.401710
C43	C	-1.265261	-1.776955	0.334579
C44	C	-1.229724	-1.793119	0.232069
C45	C	-1.139322	-1.742023	0.196669
C46	C	-1.084460	-1.674769	0.263794
C47	C	-1.119995	-1.658625	0.366319
C48	C	-0.800879	-1.327176	0.610710
C49	C	-0.746016	-1.259916	0.677830
C50	C	-0.781550	-1.243741	0.780342
C51	C	-0.871956	-1.294819	0.815739
C52	C	-0.926820	-1.362079	0.748618
C53	C	-0.891277	-1.378256	0.646107
C54	C	-0.232140	-1.518466	0.506222
C55	C	-0.115363	-1.518506	0.506242
C56	C	-0.506067	-1.518446	0.780209
C57	C	-0.506022	-1.518478	0.896986
C58	C	-0.506200	-0.792406	0.506192
C59	C	-0.506172	-0.909183	0.506184
C60	C	-0.506203	-1.518360	0.233208
C61	C	-0.505952	-1.518533	0.116432
C62	C	-0.438803	-1.451328	0.951853
C63	C	-0.438770	-1.451353	1.061577
C64	C	-0.573179	-1.585685	1.061557
C65	C	-0.573216	-1.585654	0.951835
C66	C	-0.401161	-1.327503	1.211527
C67	C	-0.333925	-1.260363	1.266398
C68	C	-0.231420	-1.244259	1.230809
C69	C	-0.196129	-1.295311	1.140351
C70	C	-0.263359	-1.362459	1.085485
C71	C	-0.365879	-1.378542	1.121073
C72	C	-0.610814	-1.709506	0.801883
C73	C	-0.678040	-1.776660	0.747015
C74	C	-0.780547	-1.792774	0.782602
C75	C	-0.815834	-1.741741	0.873064
C76	C	-0.748608	-1.674587	0.927932
C77	C	-0.646103	-1.658471	0.892337
H78	H	-0.834958	-0.750017	0.176479
H79	H	-0.627885	-1.640379	1.106228
C80	C	-0.497941	-0.774839	0.332864
N81	N	-0.413016	-0.745343	0.346371
C82	C	-0.157464	-1.170403	1.291172
N83	N	-0.101765	-1.114770	1.336639
C84	C	-1.100228	-1.759821	0.083903
N85	N	-1.070775	-1.773238	-0.001031
C86	C	-0.498054	-1.691772	0.762720
N87	N	-0.413124	-1.678418	0.733220
H88	H	-0.672398	-1.218332	0.649004
C89	C	-1.120841	-1.377331	0.647221
N90	N	-1.166294	-1.321650	0.702848
H91	H	-1.000430	-1.403673	0.777448
H92	H	-0.771932	-1.340349	0.527238
H93	H	-0.777361	-1.013785	0.391078
H94	H	-0.384089	-1.396629	0.907198
C95	C	-0.365236	-0.903765	0.647533
N96	N	-0.309638	-0.858345	0.703312
C97	C	-0.083872	-1.113449	0.747986
N98	N	0.001053	-1.083956	0.761504
C99	C	-0.890446	-1.659549	0.365193
N100	N	-0.845005	-1.715229	0.309555
H101	H	-0.736871	-1.188969	0.834990
C102	C	-0.372753	-1.204198	1.365894
N103	N	-0.401994	-1.161895	1.440833
C104	C	-0.911047	-1.277027	0.928508
N105	N	-0.940489	-1.263623	1.013448
H106	H	-0.484633	-1.340596	1.240504
H107	H	-0.235005	-1.023941	0.621360
C108	C	-0.928425	-0.924372	0.264314
N109	N	-1.013348	-0.953866	0.250788
H110	H	-0.627905	-1.118387	0.384065
C111	C	-0.514366	-1.262973	0.679498
N112	N	-0.599284	-1.292486	0.665981
H113	H	-0.649295	-1.818225	0.673364
C114	C	-0.224547	-1.418609	0.985982
N115	N	-0.195313	-1.460894	0.911030
C116	C	-0.985019	-1.618572	0.224862
N117	N	-0.910112	-1.576251	0.195538
C118	C	-0.083361	-1.277600	1.101214
N119	N	0.001577	-1.264255	1.071732
H120	H	-0.649157	-0.685169	0.206468
C121	C	-0.787431	-1.618443	1.027440
N122	N	-0.816672	-1.576155	1.102387
C123	C	-1.364704	-1.833154	0.373521
N124	N	-1.439608	-1.875478	0.402846
H125	H	-0.177335	-1.287794	0.835829
H126	H	-0.363298	-1.352373	0.806246
C127	C	-0.928598	-1.759465	0.912213
N128	N	-1.013533	-1.772819	0.941697
C129	C	-1.290124	-1.867034	0.158204
N130	N	-1.335635	-1.922689	0.102565
C131	C	-0.854492	-1.866652	0.722244
N132	N	-0.910189	-1.922291	0.676784
H133	H	-1.239330	-1.696564	0.485185
