data_functionalizedCrystal
_audit_creation_method	'MofGen! by Chris Wilmer'
_symmetry_space_group_name_H-M	'P1'
_symmetry_Int_Tables_number	1
_symmetry_cell_setting	triclinic
loop_
_symmetry_equiv_pos_as_xyz
  x,y,z
_cell_length_a	8.559649
_cell_length_b	12.837942
_cell_length_c	7.681481
_cell_angle_alpha	83.650030
_cell_angle_beta	94.913240
_cell_angle_gamma	82.303802
loop_
_atom_site_label
_atom_site_type_symbol
_atom_site_fract_x
_atom_site_fract_y
_atom_site_fract_z
O1	O	2.101390	-0.023863	-0.146400
O2	O	1.644239	0.029032	-0.146410
O3	O	1.862678	-0.147512	-0.146394
O4	O	1.882950	0.152681	-0.146416
O5	O	1.889558	-0.169285	0.146465
O6	O	1.671118	0.007259	0.146450
O7	O	2.128269	-0.045636	0.146459
Zn8	Zn	1.903962	-0.022646	0.192952
Zn9	Zn	1.868546	0.006042	-0.192903
O10	O	1.909830	0.130908	0.146444
C11	C	1.598759	0.022154	0.000019
C12	C	1.423195	0.034086	0.000015
C13	C	1.869269	-0.196474	0.000034
C14	C	1.848843	-0.309925	0.000031
C15	C	2.094400	-0.570430	-0.000001
C16	C	2.075215	-0.677028	-0.000004
C17	C	1.791288	-0.629721	0.000008
C18	C	1.810473	-0.523122	0.000012
C19	C	1.962034	-0.493482	0.000010
C20	C	1.981219	-0.386882	0.000026
C21	C	1.697292	-0.339576	0.000025
C22	C	1.678107	-0.446174	0.000022
C23	C	2.173749	-0.038758	0.000027
C24	C	2.349311	-0.050689	0.000019
C25	C	1.903238	0.179870	0.000011
C26	C	1.923664	0.293322	0.000003
N27	N	1.928143	-0.042226	0.456288
N28	N	1.844376	0.025613	-0.456239
H29	H	2.104628	-0.362752	0.000031
O30	O	1.338238	0.131536	-0.000231
C31	C	1.228649	0.154904	-0.151935
H32	H	1.203455	0.078001	-0.202498
H33	H	1.113757	0.200286	-0.117834
H34	H	1.280114	0.205321	-0.258143
H35	H	1.758867	0.094856	0.468558
O36	O	2.241721	-0.541805	-0.000079
C37	C	2.354446	-0.632586	-0.000035
H38	H	2.294066	-0.697517	-0.055476
H39	H	2.451469	-0.612004	-0.085062
H40	H	2.408956	-0.661643	0.140465
O41	O	1.434316	-0.148099	0.000104
C42	C	1.596559	-0.138726	0.000059
H43	H	1.620059	-0.062875	0.055499
H44	H	1.670115	-0.209810	0.085087
H45	H	1.630699	-0.135916	-0.140441
O46	O	2.203696	-0.751889	0.000224
C47	C	2.215049	-0.826235	0.151918
H48	H	2.093564	-0.825431	0.202493
H49	H	2.258507	-0.908668	0.117798
H50	H	2.302254	-0.804726	0.258123
O51	O	1.644191	-0.658711	0.000083
C52	C	1.655648	-0.769295	0.000023
H53	H	1.780125	-0.808302	0.055460
H54	H	1.565504	-0.801036	0.085046
H55	H	1.630576	-0.787968	-0.140481
H56	H	2.013670	-0.111467	0.531500
H57	H	1.554709	-0.470323	0.000017
H58	H	1.589511	-0.276913	0.000048
