data_functionalizedCrystal
_audit_creation_method	'MofGen! by Chris Wilmer'
_symmetry_space_group_name_H-M	'P1'
_symmetry_Int_Tables_number	1
_symmetry_cell_setting	triclinic
loop_
_symmetry_equiv_pos_as_xyz
  x,y,z
_cell_length_a	21.295417
_cell_length_b	19.121102
_cell_length_c	19.120904
_cell_angle_alpha	90.088173
_cell_angle_beta	87.591662
_cell_angle_gamma	92.415380
loop_
_atom_site_label
_atom_site_type_symbol
_atom_site_fract_x
_atom_site_fract_y
_atom_site_fract_z
Zn1	Zn	-0.307921	-1.054814	0.442032
Zn2	Zn	-0.408895	-1.059724	0.324785
Zn3	Zn	-0.298967	-0.942584	0.319816
Zn4	Zn	-0.408472	-0.937535	0.436987
O5	O	-0.356064	-0.998664	0.380905
O6	O	-0.325239	-1.153571	0.430669
O7	O	-0.390743	-1.048352	0.226021
O8	O	-0.212069	-0.957530	0.336060
O9	O	-0.399425	-1.157177	0.344528
O10	O	-0.218647	-1.039985	0.425851
O11	O	-0.309980	-0.962291	0.222371
O12	O	-0.309569	-0.843809	0.331169
O13	O	-0.398703	-0.948925	0.535761
O14	O	-0.390022	-0.840100	0.417254
O15	O	-0.324829	-1.035089	0.539467
O16	O	-0.496925	-1.043456	0.339637
O17	O	-0.496614	-0.953685	0.422072
C18	C	-0.348778	-0.816517	0.373125
C19	C	-0.345677	-0.738593	0.369814
C20	C	-0.519610	-0.998574	0.380862
C21	C	-0.589580	-0.998599	0.380870
C22	C	-0.362718	-0.990896	0.563763
C23	C	-0.365553	-0.987586	0.641686
C24	C	-0.622590	-1.045380	0.337994
C25	C	-0.688335	-1.045413	0.338011
C26	C	-0.721065	-0.998651	0.380897
C27	C	-0.688046	-0.951865	0.423781
C28	C	-0.622304	-0.951839	0.423768
N29	N	-0.822078	-0.937094	0.383622
N30	N	-0.884530	-0.937121	0.383630
C31	C	-0.919144	-0.998728	0.380940
N32	N	-0.888946	-1.060308	0.378228
N33	N	-0.826487	-1.060281	0.378215
C34	C	-0.792352	-0.998674	0.380916
C35	C	-1.023443	-1.045548	0.338080
C36	C	-1.089189	-1.045581	0.338103
C37	C	-1.088899	-0.952028	0.423869
C38	C	-1.023154	-0.952001	0.423850
C39	C	-0.990430	-0.998760	0.380953
C40	C	-0.191880	-0.998773	0.380964
C41	C	-0.121914	-0.998820	0.380989
C42	C	-0.363378	-1.181523	0.388716
C43	C	-0.366495	-1.259446	0.392044
C44	C	-0.386166	-0.700074	0.413007
C45	C	-0.383244	-0.626856	0.409899
C46	C	-0.339836	-0.592158	0.363593
C47	C	-0.299344	-0.630682	0.320398
C48	C	-0.302263	-0.703899	0.323510
C49	C	-0.328921	-0.371187	0.351961
C50	C	-0.326006	-0.297965	0.348850
C51	C	-0.409906	-0.294144	0.438353
C52	C	-0.412824	-0.367362	0.441458
C53	C	-0.372329	-0.405880	0.398265
C54	C	-0.336850	-0.517318	0.360413
C55	C	-0.375313	-0.480719	0.401449
C56	C	-0.349392	-1.006442	0.198761
C57	C	-0.346384	-1.009889	0.120844
C58	C	-0.328425	-1.030890	0.680225
C59	C	-0.331086	-1.027771	0.753441
C60	C	-0.370880	-0.981351	0.788118
C61	C	-0.408010	-0.938043	0.749573
C62	C	-0.405345	-0.941159	0.676358
C63	C	-0.380849	-0.969696	1.009084
C64	C	-0.383513	-0.966585	1.082305
C65	C	-0.306588	-1.056312	1.086168
C66	C	-0.303929	-1.059427	1.012951
C67	C	-0.341056	-1.016116	0.974413
C68	C	-0.373603	-0.978164	0.862957
C69	C	-0.338330	-1.019300	0.899575
H70	H	-0.595949	-1.083456	0.303066
H71	H	-0.996275	-0.913904	0.458761
H72	H	-0.269289	-0.735260	0.288341
H73	H	-0.435572	-0.905889	0.644980
H74	H	-0.296022	-1.068692	0.651997
N75	N	-0.588572	-0.904058	0.467567
N76	N	-0.554457	-0.926779	0.513302
H77	H	-0.530632	-0.893033	0.544236
N78	N	-0.297692	-1.066726	0.864157
N79	N	-0.304758	-1.131066	0.875095
H80	H	-0.276060	-1.164563	0.850076
H81	H	-0.263997	-0.602426	0.282698
N82	N	-0.281653	-0.262530	0.301553
N83	N	-0.224074	-0.270530	0.306679
H84	H	-0.192751	-0.245504	0.273278
H85	H	-0.295952	-0.402539	0.316785
H86	H	-0.442874	-0.262775	0.473519
N87	N	-0.990021	-1.093314	0.294260
N88	N	-1.019507	-1.135086	0.255984
H89	H	-0.995905	-1.168821	0.225034
H90	H	-0.715218	-1.083510	0.303097
N91	N	-0.448654	-0.890613	0.784981
N92	N	-0.481794	-0.851944	0.750559
H93	H	-0.510497	-0.818442	0.775564
H94	H	-0.416215	-0.595497	0.445071
H95	H	-0.271526	-1.097229	0.984722
H96	H	-1.116065	-1.083681	0.303189
H97	H	-0.714700	-0.913793	0.458700
N98	N	-1.122333	-0.904270	0.467676
N99	N	-1.181032	-0.904300	0.467685
H100	H	-1.204649	-0.870571	0.498626
N101	N	-0.268670	-1.100547	1.125544
N102	N	-0.271054	-1.097762	1.190914
H103	H	-0.244272	-1.129003	1.218725
N104	N	-0.430516	-0.735503	0.460306
N105	N	-0.466663	-0.701099	0.498868
H106	H	-0.497986	-0.726118	0.532275
H107	H	-0.448173	-0.395608	0.479164
N108	N	-0.414238	-0.930741	0.898389
N109	N	-0.391775	-0.884352	0.937340
H110	H	-0.420469	-0.850857	0.962370
N111	N	-0.419653	-0.516170	0.448738
N112	N	-0.460452	-0.558053	0.425715
H113	H	-0.491769	-0.583098	0.459110
N114	N	-0.292507	-0.481872	0.313120
N115	N	-0.251702	-0.439992	0.336137
H116	H	-0.220383	-0.414956	0.302738
H117	H	-0.415919	-0.928782	1.110536
N118	N	-0.293156	-1.072010	0.792797
N119	N	-0.257632	-1.113456	0.761828
H120	H	-0.230842	-1.144702	0.789622
H121	H	-0.411090	-0.934439	0.977716
