data_functionalizedCrystal
_audit_creation_method	'MofGen! by Chris Wilmer'
_symmetry_space_group_name_H-M	'P1'
_symmetry_Int_Tables_number	1
_symmetry_cell_setting	triclinic
loop_
_symmetry_equiv_pos_as_xyz
  x,y,z
_cell_length_a	19.288864
_cell_length_b	14.044220
_cell_length_c	18.366186
_cell_angle_alpha	89.993222
_cell_angle_beta	89.977106
_cell_angle_gamma	88.162561
loop_
_atom_site_label
_atom_site_type_symbol
_atom_site_fract_x
_atom_site_fract_y
_atom_site_fract_z
O1	O	0.928948	0.118214	-0.060787
O2	O	0.727712	0.134161	-0.060738
O3	O	0.825310	-0.011784	-0.060755
O4	O	0.831351	0.264160	-0.060770
O5	O	0.825291	-0.011791	0.060345
O6	O	0.727694	0.134154	0.060362
O7	O	0.928930	0.118207	0.060312
Zn8	Zn	0.828309	0.126180	0.079564
Zn9	Zn	0.828333	0.126189	-0.079990
O10	O	0.831332	0.264152	0.060329
C11	C	0.701794	0.133645	-0.000182
C12	C	0.624591	0.132104	-0.000163
C13	C	0.585397	0.217738	-0.000179
C14	C	0.512857	0.216291	-0.000187
C15	C	0.479514	0.129205	-0.000193
C16	C	0.518717	0.043560	-0.000173
C17	C	0.591256	0.045010	-0.000157
C18	C	0.366860	0.060749	-0.042640
C19	C	0.294322	0.059303	-0.042660
C20	C	0.255781	0.124731	-0.000237
C21	C	0.289785	0.191621	0.042196
C22	C	0.362323	0.193071	0.042212
C23	C	0.400858	0.127624	-0.000209
C24	C	0.137930	0.208802	-0.000261
C25	C	0.065389	0.207351	-0.000264
C26	C	0.071251	0.034617	-0.000257
C27	C	0.143790	0.036071	-0.000247
C28	C	0.177126	0.123165	-0.000252
C29	C	0.822656	-0.047091	-0.000204
C30	C	0.814768	-0.152283	-0.000201
C31	C	0.800348	-0.344882	-0.000208
C32	C	0.856291	-0.402755	-0.000224
C33	C	0.848267	-0.509924	-0.000228
C34	C	0.808370	-0.237703	-0.000204
C35	C	0.954848	0.118724	-0.000245
C36	C	1.032051	0.120264	-0.000269
C37	C	0.833986	0.299459	-0.000223
C38	C	0.841874	0.404651	-0.000231
N39	N	0.828297	0.126173	0.188455
N40	N	0.828350	0.126188	-0.188881
C41	C	0.871531	0.061580	0.226548
C42	C	0.871535	0.061575	0.302776
C43	C	0.828313	0.126180	0.340908
C44	C	0.785071	0.190778	0.302806
C45	C	0.785063	0.190774	0.226579
C46	C	0.824562	0.212524	0.461665
C47	C	0.824575	0.212529	0.537890
C48	C	0.828333	0.126192	0.576015
C49	C	0.832093	0.039847	0.537907
C50	C	0.832085	0.039843	0.461681
C51	C	0.828316	0.126191	0.423563
C52	C	0.871574	0.061589	0.696763
C53	C	0.871573	0.061584	0.772993
C54	C	0.785113	0.190795	0.773021
C55	C	0.785110	0.190792	0.696793
C56	C	0.828344	0.126190	0.658669
H57	H	0.612534	0.288658	-0.000185
C58	C	0.409248	-0.011229	-0.089315
N59	N	0.441174	-0.065439	-0.124471
H60	H	0.906742	0.008974	0.333797
C61	C	0.247395	0.263596	0.088868
N62	N	0.215463	0.317805	0.124020
C63	C	0.399726	0.266640	0.088895
N64	N	0.427897	0.322049	0.124061
H65	H	0.821490	0.282834	0.430629
H66	H	0.491565	-0.027346	-0.000188
H67	H	0.480939	0.286027	-0.000198
C68	C	0.727508	-0.386681	-0.000181
N69	N	0.672645	-0.418174	-0.000154
C70	C	0.737523	0.261840	0.344752
N71	N	0.701706	0.315362	0.376346
C72	C	0.737569	0.261862	0.814962
N73	N	0.701757	0.315392	0.846555
C74	C	0.919082	-0.009493	0.184616
N75	N	0.954897	-0.063029	0.153032
C76	C	0.836212	-0.055135	0.419764
N77	N	0.839315	-0.126675	0.388193
H78	H	0.910212	-0.371814	-0.000286
H79	H	0.623168	-0.024726	-0.000144
C80	C	0.174601	0.304607	-0.000258
N81	N	0.202220	0.376768	-0.000254
C82	C	0.836225	-0.055132	0.579840
N83	N	0.839338	-0.126667	0.611426
C84	C	0.034578	-0.061179	-0.000263
N85	N	0.006952	-0.133335	-0.000266
H86	H	0.906776	0.008984	0.665721
C87	C	0.022275	0.301561	-0.000272
N88	N	-0.010199	0.372521	-0.000275
H89	H	0.906777	0.008980	0.804009
H90	H	0.749908	0.243394	0.665776
H91	H	0.821518	0.282836	0.568912
H92	H	0.175703	-0.033662	-0.000237
C93	C	0.256925	-0.014283	-0.089332
N94	N	0.228759	-0.069713	-0.124484
C95	C	0.737533	0.261876	0.184676
N96	N	0.701745	0.315446	0.153113
