data_functionalizedCrystal
_audit_creation_method	'MofGen! by Chris Wilmer'
_symmetry_space_group_name_H-M	'P1'
_symmetry_Int_Tables_number	1
_symmetry_cell_setting	triclinic
loop_
_symmetry_equiv_pos_as_xyz
  x,y,z
_cell_length_a	21.395364
_cell_length_b	18.215405
_cell_length_c	21.395355
_cell_angle_alpha	89.983159
_cell_angle_beta	89.975484
_cell_angle_gamma	90.018496
loop_
_atom_site_label
_atom_site_type_symbol
_atom_site_fract_x
_atom_site_fract_y
_atom_site_fract_z
Zn1	Zn	0.957894	-0.293153	-0.354268
Zn2	Zn	0.957811	-0.416201	-0.249494
Zn3	Zn	0.853109	-0.293144	-0.249505
Zn4	Zn	0.853093	-0.416173	-0.354234
O5	O	0.905476	-0.354668	-0.301875
O6	O	1.045561	-0.309491	-0.340379
O7	O	0.943894	-0.399885	-0.161817
O8	O	0.867050	-0.190161	-0.263421
O9	O	1.045500	-0.399894	-0.263402
O10	O	0.944035	-0.190167	-0.340390
O11	O	0.866970	-0.309476	-0.161825
O12	O	0.765429	-0.309448	-0.263388
O13	O	0.867023	-0.399846	-0.441916
O14	O	0.765417	-0.399837	-0.340332
O15	O	0.944020	-0.309464	-0.441941
O16	O	0.943878	-0.519181	-0.263369
O17	O	0.866942	-0.519161	-0.340321
C18	C	0.742689	-0.354639	-0.301858
C19	C	0.673048	-0.354645	-0.301865
C20	C	0.905416	-0.545874	-0.301854
C21	C	0.905448	-0.627673	-0.301865
C22	C	0.171283	-0.307706	-0.342031
C23	C	0.236718	-0.307700	-0.342031
C24	C	0.269409	-0.354690	-0.301889
C25	C	0.236660	-0.401702	-0.261756
C26	C	0.171226	-0.401711	-0.261761
C27	C	0.373046	-0.360389	-0.245422
C28	C	0.438479	-0.360374	-0.245415
C29	C	0.471230	-0.354666	-0.301872
C30	C	0.438540	-0.348956	-0.358337
C31	C	0.373105	-0.348965	-0.358343
C32	C	0.340362	-0.354686	-0.301879
C33	C	0.574924	-0.307654	-0.342006
C34	C	0.640361	-0.307654	-0.342007
C35	C	0.640301	-0.401652	-0.261726
C36	C	0.574866	-0.401656	-0.261730
C37	C	0.542181	-0.354653	-0.301870
C38	C	0.945553	-0.815809	-0.341997
C39	C	0.945576	-0.892668	-0.342009
C40	C	0.865477	-0.892774	-0.261792
C41	C	0.865452	-0.815917	-0.261784
C42	C	0.905493	-0.777436	-0.301885
C43	C	0.905541	-0.931152	-0.301905
C44	C	0.905566	-1.014486	-0.301918
C45	C	0.905468	-0.694097	-0.301874
C46	C	1.068900	-0.354696	-0.301893
C47	C	1.138541	-0.354709	-0.301901
C48	C	0.905528	-0.354653	-0.465298
C49	C	0.905551	-0.354646	-0.534940
C50	C	0.905554	-0.162715	-0.301911
C51	C	0.905587	-0.080916	-0.301926
C52	C	0.945641	-0.307582	-0.567667
C53	C	0.945640	-0.307551	-0.633102
C54	C	0.905556	-0.354596	-0.665808
C55	C	0.865457	-0.401664	-0.633073
C56	C	0.865455	-0.401689	-0.567639
C57	C	0.900587	-0.420860	-0.769475
C58	C	0.900594	-0.420836	-0.834908
C59	C	0.905559	-0.354518	-0.867629
C60	C	0.910531	-0.288223	-0.834909
C61	C	0.910528	-0.288248	-0.769474
C62	C	0.905553	-0.354574	-0.736761
C63	C	0.945651	-0.307416	-0.971309
C64	C	0.945646	-0.307383	-1.036745
C65	C	0.865466	-0.401503	-1.036715
C66	C	0.865468	-0.401529	-0.971279
C67	C	0.905564	-0.354487	-0.938580
C68	C	0.905461	-0.354629	-0.139088
C69	C	0.905560	-0.354428	-0.069447
H70	H	0.144675	-0.269436	-0.374719
H71	H	0.832818	-0.439966	-0.659706
Cl72	Cl	0.130063	-0.460802	-0.211304
Cl73	Cl	0.815051	-0.460861	-0.526494
H74	H	0.263381	-0.269422	-0.374710
Cl75	Cl	0.332011	-0.341794	-0.429324
Cl76	Cl	0.995936	-0.940905	-0.392441
H77	H	0.832878	-0.924114	-0.229141
H78	H	0.978296	-0.269107	-0.944684
H79	H	0.832827	-0.784671	-0.229120
H80	H	0.978290	-0.269276	-0.541047
H81	H	0.667018	-0.269381	-0.374690
Cl82	Cl	0.996031	-0.248365	-0.674254
H83	H	0.914575	-0.234268	-0.742836
H84	H	0.978157	-0.784480	-0.374652
Cl85	Cl	0.916776	-0.204846	-0.876036
Cl86	Cl	0.996060	-0.248223	-1.077889
Cl87	Cl	0.815067	-0.460640	-1.077824
Cl88	Cl	0.815068	-0.460702	-0.930134
H89	H	0.896550	-0.474818	-0.861544
H90	H	0.548311	-0.269382	-0.374690
Cl91	Cl	0.479704	-0.341769	-0.429315
H92	H	0.666918	-0.439918	-0.229046
Cl93	Cl	0.533703	-0.460738	-0.211267
H94	H	0.896377	-0.474850	-0.742840
H95	H	0.465091	-0.365019	-0.199438
Cl96	Cl	0.331881	-0.367578	-0.174442
H97	H	0.263281	-0.439963	-0.229073
