data_functionalizedCrystal
_audit_creation_method	'MofGen! by Chris Wilmer'
_symmetry_space_group_name_H-M	'P1'
_symmetry_Int_Tables_number	1
_symmetry_cell_setting	triclinic
loop_
_symmetry_equiv_pos_as_xyz
  x,y,z
_cell_length_a	14.044220
_cell_length_b	14.586319
_cell_length_c	16.109301
_cell_angle_alpha	89.994786
_cell_angle_beta	88.325179
_cell_angle_gamma	90.001391
loop_
_atom_site_label
_atom_site_type_symbol
_atom_site_fract_x
_atom_site_fract_y
_atom_site_fract_z
O1	O	1.257643	-0.076149	0.200436
O2	O	0.981677	-0.076172	0.193203
O3	O	1.127241	-0.076150	0.076352
O4	O	1.112079	-0.076170	0.317286
O5	O	1.127231	0.076331	0.076350
O6	O	0.981666	0.076309	0.193200
O7	O	1.257633	0.076332	0.200433
Cu8	Cu	1.119649	0.090243	0.196816
Cu9	Cu	1.119661	-0.090083	0.196820
O10	O	1.112069	0.076311	0.317284
C11	C	0.946358	0.000066	0.190036
C12	C	0.841135	0.000058	0.180592
C13	C	1.126622	0.000091	0.045330
C14	C	1.124781	0.000092	-0.047102
C15	C	0.648479	0.000077	0.163326
C16	C	0.590825	0.000075	0.230306
C17	C	0.483625	0.000086	0.220699
C18	C	0.755690	0.000066	0.172932
C19	C	1.292952	0.000093	0.203600
C20	C	1.398175	0.000095	0.213044
N21	N	1.119647	0.217075	0.196814
N22	N	1.119670	-0.216915	0.196816
C23	C	1.184125	0.452091	0.145093
C24	C	1.184128	0.548072	0.145092
C25	C	1.055186	0.548063	0.248539
C26	C	1.055179	0.452083	0.248536
C27	C	1.119654	0.404100	0.196814
C28	C	1.119663	0.596061	0.196816
C29	C	1.119666	0.700128	0.196814
C30	C	1.119651	0.300026	0.196815
C31	C	1.206874	0.000084	-0.263266
C32	C	1.205137	0.000076	-0.350116
C33	C	1.032429	0.000066	-0.343091
C34	C	1.034168	0.000067	-0.256243
C35	C	1.121393	0.000081	-0.216333
C36	C	1.117917	0.000072	-0.390031
C37	C	1.116032	0.000064	-0.484197
C38	C	1.123278	0.000087	-0.122161
C39	C	1.112688	0.000068	0.348306
C40	C	1.114529	0.000061	0.440738
H41	H	0.617330	0.000087	0.098774
H42	H	1.277898	0.000094	-0.230774
C43	C	0.985332	0.399856	0.304749
C44	C	1.035803	0.344726	0.359394
C45	C	0.971493	0.296593	0.411178
H46	H	0.946913	0.442073	0.335636
H47	H	0.945898	0.362367	0.271918
H48	H	1.075220	0.382212	0.392222
H49	H	1.074218	0.302492	0.328530
H50	H	0.932059	0.259104	0.378347
H51	H	0.933078	0.338817	0.442059
H52	H	1.005728	0.259176	0.448255
H53	H	1.236623	0.413025	0.102977
H54	H	1.236624	0.587144	0.102975
C55	C	0.632215	-0.000094	0.316442
C56	C	0.601372	-0.078539	0.359504
C57	C	0.639471	-0.078726	0.438856
H58	H	0.699789	-0.000150	0.311670
H59	H	0.611391	0.053046	0.345841
H60	H	0.622201	-0.131665	0.330113
H61	H	0.533803	-0.078499	0.364299
H62	H	0.618647	-0.025586	0.468255
H63	H	0.707044	-0.078780	0.434075
H64	H	0.618543	-0.131945	0.468086
C65	C	1.298049	0.000130	-0.400926
C66	C	1.374803	0.000165	-0.347382
C67	C	1.460412	0.000225	-0.394158
H68	H	1.301101	-0.053030	-0.434954
H69	H	1.301009	0.053323	-0.434943
H70	H	1.371844	-0.053023	-0.313380
H71	H	1.371782	0.053321	-0.313354
H72	H	1.463372	0.053418	-0.428175
H73	H	1.463454	-0.052936	-0.428184
H74	H	1.512500	0.000257	-0.357836
C75	C	0.941383	-0.000127	-0.205238
C76	C	0.937332	-0.078588	-0.155185
C77	C	0.851872	-0.078808	-0.108197
H78	H	0.938378	0.052983	-0.171144
H79	H	0.889159	-0.000179	-0.241418
H80	H	0.989542	-0.078527	-0.119009
H81	H	0.940321	-0.131711	-0.189258
H82	H	0.799649	-0.078861	-0.144376
H83	H	0.848875	-0.025695	-0.074107
H84	H	0.849109	-0.132047	-0.074236
C85	C	0.985301	0.600327	0.304669
C86	C	0.999122	0.694654	0.293621
C87	C	0.934771	0.742826	0.345325
H88	H	0.922003	0.584715	0.290971
H89	H	0.995585	0.584640	0.360942
H90	H	0.988830	0.710335	0.237361
H91	H	1.062407	0.710294	0.307325
H92	H	0.945056	0.727139	0.401598
H93	H	0.871477	0.727207	0.331623
H94	H	0.944146	0.806832	0.337842
C95	C	0.937828	0.000108	-0.386578
C96	C	0.954598	0.000135	-0.472682
C97	C	0.867473	0.000189	-0.512767
H98	H	0.902559	-0.053052	-0.370997
H99	H	0.902624	0.053301	-0.370953
H100	H	0.989787	-0.053054	-0.488302
H101	H	0.989853	0.053291	-0.488288
H102	H	0.832269	0.053383	-0.497141
H103	H	0.832210	-0.052972	-0.497179
H104	H	0.878840	0.000216	-0.571192
