data_functionalizedCrystal
_audit_creation_method	'MofGen! by Chris Wilmer'
_symmetry_space_group_name_H-M	'P1'
_symmetry_Int_Tables_number	1
_symmetry_cell_setting	triclinic
loop_
_symmetry_equiv_pos_as_xyz
  x,y,z
_cell_length_a	10.654536
_cell_length_b	14.044220
_cell_length_c	9.130307
_cell_angle_alpha	90.003348
_cell_angle_beta	90.014015
_cell_angle_gamma	91.164570
loop_
_atom_site_label
_atom_site_type_symbol
_atom_site_fract_x
_atom_site_fract_y
_atom_site_fract_z
O1	O	-0.302984	1.259689	-0.121710
O2	O	-0.292051	0.983648	-0.121745
O3	O	-0.115416	1.128018	-0.121677
O4	O	-0.479620	1.115318	-0.121778
O5	O	-0.115414	1.128014	0.121922
O6	O	-0.292049	0.983643	0.121854
O7	O	-0.302982	1.259684	0.121889
Cu8	Cu	-0.297515	1.121663	0.144114
Cu9	Cu	-0.297518	1.121669	-0.143970
O10	O	-0.479617	1.115313	0.121821
C11	C	-0.068523	1.127085	0.000132
C12	C	0.071201	1.124299	0.000160
C13	C	-0.287264	0.948300	0.000051
C14	C	-0.272988	0.842980	0.000040
C15	C	0.081824	1.296931	0.000204
C16	C	0.152776	1.381934	0.000244
C17	C	0.284058	1.379311	0.000268
C18	C	0.344390	1.291675	0.000249
C19	C	0.273438	1.206672	0.000209
C20	C	0.142153	1.209305	0.000189
C21	C	0.262815	1.034042	0.000154
C22	C	0.131533	1.036663	0.000141
C23	C	0.323147	0.946406	0.000135
C24	C	0.252194	0.861401	0.000106
C25	C	0.120904	0.864028	0.000083
C26	C	0.060580	0.951660	0.000101
C27	C	-0.246890	0.650148	0.000077
C28	C	-0.348138	0.593178	0.000055
C29	C	-0.333616	0.485880	0.000075
C30	C	-0.261409	0.757456	0.000056
C31	C	0.473490	1.116250	0.000065
C32	C	0.333767	1.119045	0.000194
C33	C	-0.307769	1.295032	0.000090
C34	C	-0.322045	1.400351	0.000091
N35	N	-0.297513	1.121666	0.346737
N36	N	-0.297511	1.121673	-0.346593
C37	C	-0.141158	1.249559	0.346787
C38	C	-0.062984	1.313512	0.423479
C39	C	-0.062985	1.313521	0.576812
C40	C	-0.141164	1.249569	0.653457
C41	C	-0.219337	1.185616	0.576766
C42	C	-0.219331	1.185616	0.423429
C43	C	-0.375684	1.057720	0.576716
C44	C	-0.375692	1.057714	0.423382
C45	C	-0.453863	0.993768	0.653361
C46	C	-0.532045	0.929819	0.576669
C47	C	-0.532043	0.929813	0.423327
C48	C	-0.453866	0.993761	0.346691
H49	H	-0.025072	1.299076	0.000204
Cl50	Cl	-0.453861	0.993763	0.153927
H51	H	-0.141148	1.249573	0.778309
H52	H	0.430044	0.944276	0.000146
Cl53	Cl	-0.498807	0.642287	0.000004
Cl54	Cl	-0.096231	0.601037	0.000121
Cl55	Cl	-0.141167	1.249566	0.154024
Cl56	Cl	0.035299	1.393902	0.327122
Cl57	Cl	0.035299	1.393915	0.673227
H58	H	-0.453855	0.993775	0.778213
H59	H	0.103639	1.453286	0.000273
H60	H	-0.595687	0.877749	0.639083
Cl61	Cl	-0.630317	0.849404	0.326928
Cl62	Cl	0.509432	1.288380	0.000180
Cl63	Cl	0.373259	1.486172	0.000305
H64	H	0.063142	0.794807	0.000045
Cl65	Cl	-0.104460	0.954970	0.000083
Cl66	Cl	0.328046	0.751243	0.000064
