data_functionalizedCrystal
_audit_creation_method	'MofGen! by Chris Wilmer'
_symmetry_space_group_name_H-M	'P1'
_symmetry_Int_Tables_number	1
_symmetry_cell_setting	triclinic
loop_
_symmetry_equiv_pos_as_xyz
  x,y,z
_cell_length_a	8.497374
_cell_length_b	12.827892
_cell_length_c	12.827893
_cell_angle_alpha	89.984638
_cell_angle_beta	89.998425
_cell_angle_gamma	90.007313
loop_
_atom_site_label
_atom_site_type_symbol
_atom_site_fract_x
_atom_site_fract_y
_atom_site_fract_z
Zn1	Zn	0.891962	-0.416215	-1.597487
Zn2	Zn	0.628170	-0.590924	-1.597435
Zn3	Zn	0.628190	-0.416197	-1.422782
Zn4	Zn	0.891902	-0.590915	-1.422714
O5	O	0.760056	-0.503563	-1.510105
O6	O	0.856986	-0.439402	-1.743716
O7	O	0.407411	-0.567742	-1.574274
O8	O	0.663214	-0.269964	-1.446008
O9	O	0.663179	-0.567760	-1.743678
O10	O	0.857006	-0.269977	-1.574363
O11	O	0.407425	-0.439372	-1.445958
O12	O	0.663156	-0.439363	-1.276537
O13	O	1.112673	-0.567744	-1.445891
O14	O	0.856904	-0.567727	-1.276487
O15	O	1.112717	-0.439393	-1.574296
O16	O	0.663121	-0.737159	-1.574207
O17	O	0.856884	-0.737152	-1.445840
C18	C	0.760028	-0.775073	-1.510039
C19	C	0.760069	-0.891226	-1.510107
C20	C	0.760026	-0.503543	-1.238595
C21	C	0.760051	-0.503559	-1.122442
C22	C	0.664296	-0.942979	-1.573702
C23	C	0.664336	-1.063030	-1.573774
C24	C	1.171537	-0.503564	-1.510097
C25	C	1.350181	-0.503575	-1.510099
C26	C	0.760087	-0.503584	-1.782675
C27	C	0.760101	-0.503593	-1.898828
C28	C	0.760119	-0.230993	-1.510199
C29	C	0.760145	-0.114839	-1.510239
C30	C	0.855776	-0.567177	-1.070659
C31	C	0.855803	-0.567195	-0.950609
H32	H	0.582336	-1.107536	-1.628217
C33	C	0.553482	-0.882786	-1.647189
H34	H	0.493407	-0.930823	-1.687103
H35	H	0.484737	-0.840254	-1.607192
H36	H	0.613947	-0.840158	-1.692628
H37	H	0.842139	-1.070340	-1.455785
C38	C	0.966523	-0.640775	-0.890459
H39	H	0.952025	-0.631129	-0.817663
H40	H	0.943282	-0.710978	-0.908285
H41	H	1.072584	-0.625595	-0.908310
C42	C	0.870889	-0.951419	-1.436624
H43	H	0.930980	-0.903382	-1.396721
H44	H	0.810442	-0.994055	-1.391191
H45	H	0.939643	-0.993943	-1.476633
C46	C	0.649379	-0.430005	-0.958966
H47	H	0.589334	-0.390109	-0.910905
H48	H	0.709892	-0.384570	-1.001559
H49	H	0.580578	-0.469946	-1.001530
C50	C	0.966466	-0.640738	-1.130825
H51	H	0.951920	-0.631080	-1.203619
H52	H	1.072530	-0.625576	-1.113002
H53	H	0.943215	-0.710951	-1.112980
H54	H	0.678124	-0.449103	-1.077897
