data_functionalizedCrystal
_audit_creation_method	'MofGen! by Chris Wilmer'
_symmetry_space_group_name_H-M	'P1'
_symmetry_Int_Tables_number	1
_symmetry_cell_setting	triclinic
loop_
_symmetry_equiv_pos_as_xyz
  x,y,z
_cell_length_a	10.654550
_cell_length_b	19.188930
_cell_length_c	9.130313
_cell_angle_alpha	89.993647
_cell_angle_beta	89.996220
_cell_angle_gamma	83.814841
loop_
_atom_site_label
_atom_site_type_symbol
_atom_site_fract_x
_atom_site_fract_y
_atom_site_fract_z
O1	O	1.665759	0.098059	-0.121938
O2	O	1.300083	0.107401	-0.121916
O3	O	1.493474	0.001143	-0.121899
O4	O	1.472368	0.204317	-0.121955
O5	O	1.493471	0.001146	0.121700
O6	O	1.300081	0.107404	0.121682
O7	O	1.665757	0.098062	0.121661
Cu8	Cu	1.482918	0.102733	0.143914
Cu9	Cu	1.482921	0.102730	-0.144170
O10	O	1.472366	0.204320	0.121644
C11	C	1.253298	0.106717	-0.000114
C12	C	1.113898	0.104664	-0.000104
C13	C	1.033089	0.167227	-0.000143
C14	C	0.902109	0.165295	-0.000168
C15	C	0.932761	0.038231	-0.000121
C16	C	1.063738	0.040164	-0.000086
C17	C	1.015391	0.240587	-0.000176
C18	C	0.884411	0.238654	-0.000201
C19	C	1.492789	-0.024871	-0.000096
C20	C	1.490737	-0.102389	-0.000083
C21	C	1.604213	-0.146570	-0.000083
C22	C	1.602285	-0.219407	-0.000106
C23	C	1.486876	-0.248058	-0.000100
C24	C	1.373386	-0.203867	-0.000109
C25	C	1.375316	-0.131032	-0.000100
N26	N	1.398658	-0.356639	0.082806
N27	N	1.396832	-0.425830	0.082801
C28	C	1.481052	-0.467505	-0.000129
N29	N	1.567186	-0.437377	-0.083037
N30	N	1.569016	-0.368180	-0.083025
C31	C	1.484770	-0.327034	-0.000110
C32	C	1.592445	-0.590665	-0.000157
C33	C	1.590513	-0.663502	-0.000189
C34	C	1.361610	-0.647960	-0.000177
C35	C	1.363545	-0.575125	-0.000159
C36	C	1.478966	-0.546481	-0.000142
C37	C	1.712541	0.098746	-0.000145
C38	C	1.851941	0.100798	-0.000164
C39	C	1.473051	0.230334	-0.000163
C40	C	1.475102	0.307852	-0.000186
N41	N	1.482926	0.102735	0.346537
N42	N	1.482924	0.102722	-0.346792
C43	C	1.568581	0.055700	0.423196
C44	C	1.568577	0.055692	0.576533
C45	C	1.397260	0.149759	0.576537
C46	C	1.397258	0.149764	0.423203
C47	C	1.667493	0.001393	0.423195
C48	C	1.667490	0.001385	0.576532
H49	H	0.891904	-0.014283	-0.000129
O50	O	1.049843	0.274720	0.121482
C51	C	1.173109	0.268033	0.343287
C52	C	1.134220	0.229304	0.205558
H53	H	1.241313	0.231327	0.411316
H54	H	1.221130	0.315827	0.309389
H55	H	1.085589	0.285608	0.411172
H56	H	1.221675	0.211682	0.137611
H57	H	1.086152	0.181542	0.239557
H58	H	1.327501	0.188057	0.360788
O59	O	1.253198	-0.532302	-0.000076
C60	C	1.025959	-0.524576	-0.000148
C61	C	1.150839	-0.573152	-0.000203
H62	H	0.943169	-0.557583	-0.000282
H63	H	1.021054	-0.490111	0.101828
H64	H	1.021210	-0.490065	-0.102064
H65	H	1.155671	-0.607707	0.101644
H66	H	1.155691	-0.607570	-0.102246
O67	O	1.057132	0.268499	-0.125708
C68	C	1.001418	0.318873	-0.361728
C69	C	0.953971	0.287294	-0.219621
H70	H	0.918040	0.334064	-0.437709
H71	H	1.049905	0.367397	-0.334441
H72	H	1.071464	0.278484	-0.418281
H73	H	0.883881	0.327631	-0.162998
H74	H	0.905559	0.238756	-0.247003
H75	H	1.698197	-0.123254	-0.000074
O76	O	1.314100	0.195538	0.650851
C77	C	1.239870	0.316556	0.697831
C78	C	1.334102	0.264788	0.613561
H79	H	1.256027	0.372556	0.667736
H80	H	1.139321	0.306993	0.667654
H81	H	1.254560	0.308438	0.820585
H82	H	1.319528	0.272876	0.490788
H83	H	1.434617	0.274364	0.643859
O84	O	1.261167	-0.231580	-0.000167
C85	C	1.034335	-0.208479	-0.000079
C86	C	1.161337	-0.177003	-0.000037
H87	H	0.953589	-0.164370	0.000057
H88	H	1.027627	-0.242159	-0.102051
H89	H	1.027773	-0.242221	0.101841
H90	H	1.167985	-0.143230	-0.101887
H91	H	1.167991	-0.143364	0.102003
H92	H	1.686428	-0.567342	-0.000149
H93	H	1.638050	-0.049327	0.624095
O94	O	1.700865	-0.706323	-0.000125
C95	C	1.928105	-0.714048	-0.000194
C96	C	1.803224	-0.665473	-0.000233
H97	H	2.010894	-0.681041	-0.000313
H98	H	1.933000	-0.748533	0.101768
H99	H	1.932864	-0.748540	-0.102124
H100	H	1.798381	-0.630937	0.101627
H101	H	1.798381	-0.631035	-0.102263
O102	O	1.643470	-0.062645	0.373468
C103	C	1.718372	-0.164514	0.231326
C104	C	1.745761	-0.092015	0.287576
H105	H	1.801044	-0.188275	0.161846
H106	H	1.704884	-0.200345	0.328375
H107	H	1.628854	-0.158570	0.162028
H108	H	1.835288	-0.097893	0.356850
H109	H	1.759170	-0.056211	0.190461
H110	H	1.282908	-0.095058	-0.000100
O111	O	1.775944	0.021660	0.366674
C112	C	1.979662	0.059841	0.417540
C113	C	1.856921	0.036883	0.481746
H114	H	2.045155	0.072169	0.510544
H115	H	2.028287	0.015791	0.347317
H116	H	1.956367	0.108612	0.347207
H117	H	1.880106	-0.011872	0.552145
H118	H	1.808330	0.080975	0.551885
H119	H	0.838270	0.260826	0.104961
H120	H	1.129530	-0.010781	-0.000034
O121	O	0.833796	0.271525	-0.121884
C122	C	0.714619	0.261251	-0.343682
C123	C	0.771846	0.223947	-0.205927
H124	H	0.664542	0.222798	-0.411685
H125	H	0.643966	0.307298	-0.309816
H126	H	0.793073	0.281269	-0.411580
H127	H	0.693479	0.203885	-0.137967
H128	H	0.842529	0.177934	-0.239894
O129	O	1.782368	0.015532	0.626259
C130	C	1.966515	-0.024864	0.768381
C131	C	1.836461	-0.040981	0.712133
H132	H	2.010276	-0.070537	0.837846
H133	H	2.030781	-0.016914	0.671330
H134	H	1.954726	0.024824	0.837692
H135	H	1.848130	-0.090674	0.642846
H136	H	1.772242	-0.048886	0.809249
H137	H	1.694693	-0.255386	-0.000112
H138	H	1.267641	-0.671287	-0.000180
