data_functionalizedCrystal
_audit_creation_method	'MofGen! by Chris Wilmer'
_symmetry_space_group_name_H-M	'P1'
_symmetry_Int_Tables_number	1
_symmetry_cell_setting	triclinic
loop_
_symmetry_equiv_pos_as_xyz
  x,y,z
_cell_length_a	6.394989
_cell_length_b	19.288864
_cell_length_c	17.766277
_cell_angle_alpha	90.023209
_cell_angle_beta	90.003244
_cell_angle_gamma	84.816979
loop_
_atom_site_label
_atom_site_type_symbol
_atom_site_fract_x
_atom_site_fract_y
_atom_site_fract_z
O1	O	-0.260546	-0.923905	-0.062832
O2	O	-0.295693	-0.721989	-0.062780
O3	O	0.025971	-0.825813	-0.062807
O4	O	-0.582211	-0.820081	-0.062804
O5	O	0.025988	-0.825794	0.062382
O6	O	-0.295677	-0.721970	0.062409
O7	O	-0.260530	-0.923886	0.062357
Cu8	Cu	-0.278102	-0.822926	0.073814
Cu9	Cu	-0.278121	-0.822948	-0.074236
O10	O	-0.582195	-0.820062	0.062384
C11	C	-0.294554	-0.696092	-0.000179
C12	C	-0.291159	-0.618955	-0.000159
C13	C	-0.261669	-0.949783	-0.000246
C14	C	-0.265064	-1.026920	-0.000270
N15	N	-0.278087	-0.822915	0.177944
C16	C	0.103790	-0.824670	-0.000215
C17	C	0.339993	-0.821206	-0.000215
N18	N	-0.278120	-0.822964	-0.178367
C19	C	-0.479898	-0.576107	-0.000170
C20	C	-0.476708	-0.503629	-0.000178
C21	C	-0.284770	-0.474001	-0.000191
C22	C	-0.096007	-0.516859	-0.000175
C23	C	-0.099202	-0.589335	-0.000160
C24	C	-0.133891	-0.364268	-0.044076
C25	C	-0.130704	-0.291792	-0.044096
C26	C	-0.274908	-0.250459	-0.000236
C27	C	-0.422335	-0.281609	0.043634
C28	C	-0.425530	-0.354086	0.043650
C29	C	-0.281284	-0.395413	-0.000207
C30	C	-0.460201	-0.129022	-0.000255
C31	C	-0.457004	-0.056542	-0.000259
C32	C	-0.076297	-0.069774	-0.000264
C33	C	-0.079500	-0.142252	-0.000252
C34	C	-0.271458	-0.171871	-0.000252
C35	C	-0.135724	-0.868905	0.217319
C36	C	-0.135714	-0.868909	0.296121
C37	C	-0.278104	-0.822930	0.335545
C38	C	-0.420478	-0.776932	0.296160
C39	C	-0.420470	-0.776925	0.217360
C40	C	-0.468405	-0.815495	0.460385
C41	C	-0.468416	-0.815508	0.539184
C42	C	-0.278129	-0.822949	0.578591
C43	C	-0.087822	-0.830393	0.539190
C44	C	-0.087814	-0.830386	0.460389
C45	C	-0.278128	-0.822933	0.420990
C46	C	-0.135743	-0.868945	0.703412
C47	C	-0.135731	-0.868944	0.782215
C48	C	-0.420513	-0.776971	0.782253
C49	C	-0.420507	-0.776969	0.703451
C50	C	-0.278125	-0.822959	0.664035
H51	H	-0.636205	-0.600218	-0.000171
C52	C	0.121505	-0.838573	0.582527
H53	H	0.094254	-0.837502	0.635100
H54	H	0.196330	-0.881722	0.569595
H55	H	0.203056	-0.801530	0.569630
H56	H	-0.019800	-0.906391	0.671318
H57	H	0.074192	-0.177139	-0.000248
C58	C	-0.671341	-0.161606	-0.000247
H59	H	-0.783295	-0.125704	-0.000244
H60	H	-0.680509	-0.189626	-0.043898
H61	H	-0.680491	-0.189582	0.043419
H62	H	-0.016458	-0.397916	-0.079796
C63	C	0.031463	-0.257534	-0.092348
H64	H	0.116915	-0.292530	-0.118455
H65	H	-0.039482	-0.226771	-0.127625
H66	H	0.117038	-0.232175	-0.060725
C67	C	-0.664622	-0.009406	-0.000272
H68	H	-0.635232	0.038001	-0.000273
H69	H	-0.743349	-0.018589	-0.043928
H70	H	-0.743359	-0.018543	0.043390
H71	H	-0.623370	-0.809424	0.428306
C72	C	0.108413	-0.636473	-0.000153
H73	H	0.079019	-0.683880	-0.000140
H74	H	0.187146	-0.627335	-0.043811
H75	H	0.187148	-0.627292	0.043507
C76	C	0.121500	-0.838563	0.417048
H77	H	0.234831	-0.843091	0.451796
H78	H	0.125914	-0.878905	0.386201
H79	H	0.132901	-0.798722	0.386416
H80	H	-0.536411	-0.739495	0.328263
C81	C	0.115119	-0.484271	-0.000193
H82	H	0.089992	-0.434970	-0.000213
H83	H	0.192818	-0.498840	0.043464
H84	H	0.192792	-0.498893	-0.043854
H85	H	-0.623374	-0.809451	0.571258
H86	H	0.079983	-0.045652	-0.000320
C87	C	-0.587666	-0.388350	0.091911
H88	H	-0.673089	-0.353358	0.118036
H89	H	-0.673247	-0.413713	0.060300
H90	H	-0.516673	-0.419111	0.127185
H91	H	-0.539759	-0.247957	0.079350
C92	C	-0.577091	-0.726339	0.174046
H93	H	-0.661903	-0.698958	0.208808
H94	H	-0.502183	-0.696772	0.143320
H95	H	-0.663850	-0.752087	0.143293
C96	C	0.020913	-0.919485	0.173965
H97	H	0.105715	-0.946871	0.208707
H98	H	-0.053986	-0.949048	0.143203
H99	H	0.107680	-0.893733	0.143247
C100	C	0.020879	-0.919500	0.339446
H101	H	0.000486	-0.912914	0.392021
H102	H	-0.001459	-0.966047	0.326505
H103	H	0.160232	-0.910740	0.326545
H104	H	-0.630407	-0.468735	-0.000185
C105	C	0.020874	-0.919536	0.825528
H106	H	0.105652	-0.946928	0.790764
H107	H	0.107637	-0.893802	0.856285
H108	H	-0.054068	-0.949104	0.856248
C109	C	-0.577139	-0.726395	0.825610
H110	H	-0.556764	-0.732988	0.878180
H111	H	-0.554814	-0.679845	0.812721
H112	H	-0.716481	-0.735160	0.812686
H113	H	-0.536441	-0.739523	0.671390
