data_functionalizedCrystal
_audit_creation_method	'MofGen! by Chris Wilmer'
_symmetry_space_group_name_H-M	'P1'
_symmetry_Int_Tables_number	1
_symmetry_cell_setting	triclinic
loop_
_symmetry_equiv_pos_as_xyz
  x,y,z
_cell_length_a	16.625546
_cell_length_b	16.625548
_cell_length_c	16.625539
_cell_angle_alpha	90.018832
_cell_angle_beta	89.971468
_cell_angle_gamma	89.977673
loop_
_atom_site_label
_atom_site_type_symbol
_atom_site_fract_x
_atom_site_fract_y
_atom_site_fract_z
Zn1	Zn	-0.321018	-1.232653	-0.455936
Zn2	Zn	0.178982	-0.732653	0.044064
Zn3	Zn	-0.455857	-1.232564	-0.321098
Zn4	Zn	0.044143	-0.732564	0.178902
Zn5	Zn	-0.321042	-1.097823	-0.321112
Zn6	Zn	0.178958	-0.597823	0.178888
Zn7	Zn	-0.455812	-1.097785	-0.455884
Zn8	Zn	0.044188	-0.597785	0.044116
O9	O	-0.388432	-1.165206	-0.388507
O10	O	0.111568	-0.665206	0.111493
O11	O	-0.338914	-1.345473	-0.438065
O12	O	0.161086	-0.845473	0.061935
O13	O	-0.438002	-1.214669	-0.208268
O14	O	0.061998	-0.714669	0.291732
O15	O	-0.208206	-1.115761	-0.339024
O16	O	0.291794	-0.615761	0.160976
O17	O	-0.437979	-1.345408	-0.339001
O18	O	0.062021	-0.845408	0.160999
O19	O	-0.208189	-1.214820	-0.438079
O20	O	0.291811	-0.714820	0.061921
O21	O	-0.338954	-1.115675	-0.208278
O22	O	0.161046	-0.615675	0.291722
O23	O	-0.338910	-0.984985	-0.338974
O24	O	0.161090	-0.484985	0.161026
O25	O	-0.437903	-1.115696	-0.568723
O26	O	0.062097	-0.615696	-0.068723
O27	O	-0.437926	-0.984957	-0.437990
O28	O	0.062074	-0.484957	0.062010
O29	O	-0.338870	-1.214783	-0.568761
O30	O	0.161130	-0.714783	-0.068761
O31	O	-0.568683	-1.214632	-0.338950
O32	O	-0.068683	-0.714632	0.161050
O33	O	-0.568650	-1.115611	-0.437977
O34	O	-0.068650	-0.615611	0.062023
C35	C	-0.388416	-0.955715	-0.388478
C36	C	0.111584	-0.455715	0.111522
C37	C	-0.388429	-0.866094	-0.388485
C38	C	0.111571	-0.366094	0.111515
C39	C	-0.388427	-0.537918	-0.388509
C40	C	0.111573	-0.037918	0.111491
C41	C	-0.388425	-0.629227	-0.388500
C42	C	0.111575	-0.129227	0.111500
C43	C	-0.388428	-0.702003	-0.388497
C44	C	0.111572	-0.202003	0.111503
C45	C	-0.388426	-0.793318	-0.388489
C46	C	0.111574	-0.293318	0.111511
C47	C	-0.597923	-1.165130	-0.388474
C48	C	-0.097923	-0.665130	0.111526
C49	C	-0.687544	-1.165171	-0.388486
C50	C	-0.187544	-0.665171	0.111514
C51	C	-1.015720	-1.165311	-0.388570
C52	C	-0.515720	-0.665311	0.111430
C53	C	-0.924411	-1.165270	-0.388549
C54	C	-0.424411	-0.665270	0.111451
C55	C	-0.851635	-1.165240	-0.388528
C56	C	-0.351635	-0.665240	0.111472
C57	C	-0.760321	-1.165200	-0.388508
C58	C	-0.260321	-0.665200	0.111492
C59	C	-0.178123	-1.165305	-0.388559
C60	C	0.321877	-0.665305	0.111441
C61	C	-0.088502	-1.165347	-0.388581
C62	C	0.411498	-0.665347	0.111419
C63	C	-0.388379	-1.165245	-0.598816
C64	C	0.111621	-0.665245	-0.098816
C65	C	-0.388356	-1.165262	-0.688438
C66	C	0.111644	-0.665262	-0.188438
C67	C	-0.388443	-0.375515	-0.388529
C68	C	0.111557	0.124485	0.111471
C69	C	-0.388435	-0.465136	-0.388519
C70	C	0.111565	0.034864	0.111481
C71	C	-0.388338	-1.165275	-0.761220
C72	C	0.111662	-0.665275	-0.261220
C73	C	-0.388308	-1.165294	-0.852529
C74	C	0.111692	-0.665294	-0.352529
C75	C	-0.388280	-1.165313	-0.925305
C76	C	0.111720	-0.665313	-0.425305
C77	C	-0.388251	-1.165333	-1.016620
C78	C	0.111749	-0.665333	-0.516620
C79	C	-0.388427	-1.165213	-0.179017
C80	C	0.111573	-0.665213	0.320983
C81	C	-0.388222	-1.165352	-0.089396
C82	C	0.111778	-0.665352	0.410604
