data_functionalizedCrystal
_audit_creation_method	'MofGen! by Chris Wilmer'
_symmetry_space_group_name_H-M	'P1'
_symmetry_Int_Tables_number	1
_symmetry_cell_setting	triclinic
loop_
_symmetry_equiv_pos_as_xyz
  x,y,z
_cell_length_a	8.497374
_cell_length_b	19.805407
_cell_length_c	19.805405
_cell_angle_alpha	89.973590
_cell_angle_beta	89.985911
_cell_angle_gamma	90.004504
loop_
_atom_site_label
_atom_site_type_symbol
_atom_site_fract_x
_atom_site_fract_y
_atom_site_fract_z
Zn1	Zn	0.892011	1.034635	0.269581
Zn2	Zn	0.628188	1.034580	0.382739
Zn3	Zn	0.628226	0.921479	0.269569
Zn4	Zn	0.891907	0.921413	0.382733
O5	O	0.760083	0.978027	0.326155
O6	O	0.857043	1.129344	0.284598
O7	O	0.407431	1.019581	0.367724
O8	O	0.663277	0.936541	0.174854
O9	O	0.663213	1.129303	0.367735
O10	O	0.857079	1.019676	0.174862
O11	O	0.407458	0.936487	0.284579
O12	O	0.663176	0.826754	0.284573
O13	O	1.112683	0.936428	0.367725
O14	O	0.856901	0.826705	0.367714
O15	O	1.112760	1.019611	0.284593
O16	O	0.663111	1.019517	0.477455
O17	O	0.856864	0.936374	0.477450
C18	C	0.760032	0.802171	0.326142
C19	C	0.760048	0.726939	0.326153
C20	C	0.760007	0.977951	0.502011
C21	C	0.760027	0.977980	0.577243
C22	C	0.860757	0.691587	0.369510
C23	C	0.860779	0.620899	0.369511
C24	C	0.760083	0.585563	0.326158
C25	C	0.659369	0.620920	0.282797
C26	C	0.659356	0.691607	0.282793
C27	C	0.659421	0.335847	0.282812
C28	C	0.659439	0.265155	0.282821
C29	C	0.860844	0.265138	0.369530
C30	C	0.860831	0.335825	0.369526
C31	C	0.760124	0.371176	0.326162
C32	C	0.760103	0.447824	0.326161
C33	C	0.760095	0.508916	0.326163
C34	C	1.171563	0.978022	0.326156
C35	C	1.350207	0.978023	0.326164
C36	C	0.760135	1.154569	0.326169
C37	C	0.760157	1.229801	0.326175
C38	C	0.760194	0.978122	0.149613
C39	C	0.760241	0.978162	0.074381
C40	C	0.659245	1.021314	0.612567
C41	C	0.659280	1.021343	0.683256
C42	C	0.760090	0.978034	0.718619
C43	C	0.860882	0.934697	0.683290
C44	C	0.860854	0.934672	0.612603
C45	C	0.860999	0.934797	0.968363
C46	C	0.861016	0.934824	1.039055
C47	C	0.659425	1.021468	1.039016
C48	C	0.659397	1.021443	0.968329
C49	C	0.760195	0.978109	0.933006
C50	C	0.760158	0.978080	0.856358
C51	C	0.760120	0.978059	0.795266
H52	H	0.942751	0.720352	0.404815
H53	H	0.942823	0.364592	0.404830
H54	H	0.943069	0.899512	0.939609
H55	H	0.577387	0.592144	0.247496
H56	H	0.942785	0.592118	0.404817
O57	O	0.561369	0.725845	0.240659
C58	C	0.472516	0.679502	0.202385
H59	H	0.466949	0.629101	0.230107
H60	H	0.348246	0.699920	0.195082
H61	H	0.530502	0.672010	0.151018
O62	O	0.561747	1.063509	0.717673
C63	C	0.583481	1.054289	0.787647
H64	H	0.705073	1.031955	0.797265
H65	H	0.573280	1.105043	0.814419
H66	H	0.489669	1.018414	0.807837
H67	H	0.942923	0.899386	0.583843
O68	O	0.561422	1.063578	0.934083
C69	C	0.472448	1.101823	0.980419
H70	H	0.537086	1.104160	1.030795
H71	H	0.455734	1.155150	0.959954
H72	H	0.352579	1.077085	0.987977
O73	O	0.561262	1.063448	0.578323
C74	C	0.472291	1.101690	0.624663
H75	H	0.536937	1.104028	0.675037
H76	H	0.455566	1.155018	0.604199
H77	H	0.352428	1.076950	0.632224
H78	H	0.942851	0.236347	0.404836
O79	O	0.958887	0.892720	0.717715
C80	C	1.060903	0.931232	0.758543
H81	H	1.005380	0.982550	0.769101
H82	H	1.081999	0.903672	0.808269
H83	H	1.177821	0.938616	0.731276
H84	H	0.577440	0.236386	0.247514
H85	H	0.943119	0.899556	1.067846
H86	H	0.577357	1.056755	1.067784
H87	H	0.577407	0.364621	0.247508
