data_functionalizedCrystal
_audit_creation_method	'MofGen! by Chris Wilmer'
_symmetry_space_group_name_H-M	'P1'
_symmetry_Int_Tables_number	1
_symmetry_cell_setting	triclinic
loop_
_symmetry_equiv_pos_as_xyz
  x,y,z
_cell_length_a	10.489716
_cell_length_b	14.044220
_cell_length_c	12.503572
_cell_angle_alpha	86.156832
_cell_angle_beta	86.446389
_cell_angle_gamma	91.140993
loop_
_atom_site_label
_atom_site_type_symbol
_atom_site_fract_x
_atom_site_fract_y
_atom_site_fract_z
O1	O	1.714371	-0.128286	-0.089315
O2	O	2.214371	0.371714	0.410685
O3	O	1.344448	-0.140873	-0.089319
O4	O	1.844448	0.359127	0.410681
O5	O	1.523856	0.003442	-0.089307
O6	O	2.023856	0.503442	0.410693
O7	O	1.534963	-0.272601	-0.089328
O8	O	2.034963	0.227399	0.410672
O9	O	1.510366	-0.007430	0.089334
O10	O	2.010366	0.492570	0.589334
O11	O	1.330958	-0.151744	0.089322
O12	O	1.830958	0.348256	0.589322
O13	O	1.700881	-0.139158	0.089326
O14	O	2.200881	0.360842	0.589326
Cu15	Cu	1.514687	-0.146444	0.105635
Cu16	Cu	2.014687	0.353556	0.605635
Cu17	Cu	1.530642	-0.133587	-0.105629
Cu18	Cu	2.030642	0.366413	0.394371
O19	O	1.521473	-0.283473	0.089313
O20	O	2.021473	0.216527	0.589313
C21	C	1.290075	-0.145363	0.000001
C22	C	1.790075	0.354637	0.500001
C23	C	1.148157	-0.142533	-0.000001
C24	C	1.648157	0.357467	0.499999
C25	C	1.059460	-0.231032	-0.000010
C26	C	1.559460	0.268968	0.499990
C27	C	0.970719	-0.189628	0.088078
C28	C	1.470719	0.310372	0.588078
C29	C	0.984024	-0.178888	-0.088048
C30	C	1.484024	0.321112	0.411952
C31	C	1.061280	-0.101171	0.088160
C32	C	1.561280	0.398829	0.588160
C33	C	1.074597	-0.090440	-0.088045
C34	C	1.574597	0.409560	0.411955
C35	C	0.985897	-0.048972	0.000064
C36	C	1.485897	0.451028	0.500064
C37	C	1.512250	0.033353	0.000014
C38	C	2.012250	0.533353	0.500014
C39	C	1.497750	0.138677	0.000015
C40	C	1.997750	0.638677	0.500015
C41	C	1.755254	-0.134668	0.000003
C42	C	2.255254	0.365332	0.500003
C43	C	1.897172	-0.137497	-0.000002
C44	C	2.397172	0.362503	0.499998
C45	C	1.533079	-0.313384	-0.000010
C46	C	2.033079	0.186616	0.499990
C47	C	1.547579	-0.418707	-0.000018
C48	C	2.047579	0.081293	0.499982
N49	N	1.503475	-0.155486	0.254226
N50	N	2.003475	0.344514	0.754226
C51	C	1.471243	0.331519	-0.000000
C52	C	1.971243	0.831519	0.500000
C53	C	1.574081	0.388457	-0.000003
C54	C	2.074081	0.888457	0.499997
C55	C	1.559332	0.495761	-0.000011
C56	C	2.059332	0.995761	0.499989
C57	C	1.485990	0.224205	0.000008
C58	C	1.985990	0.724205	0.500008
N59	N	1.541863	-0.124537	-0.254220
N60	N	2.041863	0.375463	0.245780
C61	C	1.486983	-0.168795	0.473341
C62	C	1.986983	0.331205	0.973341
C63	C	1.558351	-0.111231	0.526673
C64	C	2.058351	0.388769	1.026673
C65	C	1.549175	-0.118636	0.648595
C66	C	2.049175	0.381364	1.148595
C67	C	1.496158	-0.161391	0.351407
C68	C	1.996158	0.338609	0.851407
H69	H	1.091931	-0.308017	0.000066
H70	H	1.591931	0.191983	0.500066
H71	H	1.673206	0.356620	-0.000073
H72	H	2.173206	0.856620	0.499927
H73	H	1.626344	-0.056387	0.480765
H74	H	2.126344	0.443613	0.980765
H75	H	1.372131	0.363358	-0.000004
H76	H	1.872131	0.863358	0.499996
H77	H	1.418996	-0.223637	0.519243
H78	H	1.918996	0.276363	1.019243
H79	H	0.925402	-0.231518	0.162542
H80	H	1.425402	0.268482	0.662542
H81	H	0.953649	0.028061	0.000121
H82	H	1.453649	0.528061	0.500121
H83	H	1.119930	-0.048577	-0.162514
H84	H	1.619930	0.451423	0.337486
H85	H	0.949954	-0.211734	-0.162509
H86	H	1.449954	0.288266	0.337491
H87	H	1.095179	-0.068370	0.162704
H88	H	1.595179	0.431630	0.662704
