data_functionalizedCrystal
_audit_creation_method	'MofGen! by Chris Wilmer'
_symmetry_space_group_name_H-M	'P1'
_symmetry_Int_Tables_number	1
_symmetry_cell_setting	triclinic
loop_
_symmetry_equiv_pos_as_xyz
  x,y,z
_cell_length_a	23.532361
_cell_length_b	23.532357
_cell_length_c	15.500227
_cell_angle_alpha	92.804145
_cell_angle_beta	87.178185
_cell_angle_gamma	82.828980
loop_
_atom_site_label
_atom_site_type_symbol
_atom_site_fract_x
_atom_site_fract_y
_atom_site_fract_z
O1	O	0.757926	0.066354	-0.071867
O2	O	0.592058	0.076384	-0.071889
O3	O	0.680008	-0.011565	-0.071860
O4	O	0.669976	0.154303	-0.071897
O5	O	0.674671	-0.006249	0.072027
O6	O	0.586721	0.081700	0.071998
O7	O	0.752589	0.071670	0.072020
Cu8	Cu	0.669168	0.077170	0.085147
Cu9	Cu	0.675479	0.070883	-0.085016
O10	O	0.664639	0.159619	0.071990
C11	C	0.568173	0.078791	0.000052
C12	C	0.504955	0.078035	0.000044
C13	C	0.234621	0.071834	-0.078383
C14	C	0.294021	0.072549	-0.078385
O15	O	0.327221	0.070435	-0.145088
N16	N	0.320817	0.075808	0.000048
C17	C	0.288211	0.078346	0.078488
O18	O	0.316458	0.081184	0.145201
C19	C	0.228813	0.077627	0.078490
C20	C	0.202019	0.074374	0.000052
C21	C	0.207827	0.068580	-0.156815
C22	C	0.148431	0.067867	-0.156812
C23	C	0.115829	0.070407	-0.078378
C24	C	0.142624	0.073660	0.000054
C25	C	0.196209	0.080162	0.156929
C26	C	0.136807	0.079442	0.156924
C27	C	0.110014	0.076189	0.078486
C28	C	0.050626	0.075487	0.078491
N29	N	0.023830	0.072228	0.000058
C30	C	0.056431	0.069688	-0.078376
C31	C	0.412952	0.079855	0.078479
C32	C	0.472348	0.080578	0.078479
C33	C	0.478153	0.074780	-0.078395
C34	C	0.418755	0.074061	-0.078393
C35	C	0.386155	0.076596	0.000046
C36	C	-0.068304	0.068189	-0.078365
C37	C	-0.127706	0.067478	-0.078355
C38	C	-0.133506	0.073274	0.078518
C39	C	-0.074110	0.073988	0.078509
C40	C	-0.041510	0.071444	0.000061
O41	O	0.017390	0.077597	0.145160
O42	O	0.028178	0.066843	-0.145078
C43	C	0.677089	-0.030123	0.000087
C44	C	0.676334	-0.093342	0.000095
C45	C	0.674508	-0.488252	-0.078386
C46	C	0.673791	-0.547651	-0.078391
O47	O	0.675875	-0.580832	-0.145095
N48	N	0.670526	-0.574465	0.000041
C49	C	0.667972	-0.541874	0.078483
O50	O	0.665129	-0.570135	0.145195
C51	C	0.668685	-0.482475	0.078487
C52	C	0.671956	-0.455666	0.000050
C53	C	0.677778	-0.461442	-0.156816
C54	C	0.678496	-0.402047	-0.156811
C55	C	0.675944	-0.369461	-0.078375
C56	C	0.672674	-0.396271	0.000056
C57	C	0.666127	-0.449886	0.156928
C58	C	0.666840	-0.390483	0.156925
C59	C	0.670111	-0.363674	0.078488
C60	C	0.670840	-0.304290	0.078497
N61	N	0.674105	-0.277477	0.000065
C62	C	0.676657	-0.310062	-0.078371
C63	C	0.666474	-0.666616	0.078468
C64	C	0.665765	-0.726015	0.078465
C65	C	0.671583	-0.731787	-0.078409
C66	C	0.672296	-0.672388	-0.078405
C67	C	0.669739	-0.639803	0.000037
C68	C	0.678165	-0.185328	-0.078354
C69	C	0.678886	-0.125927	-0.078341
C70	C	0.673065	-0.120159	0.078532
C71	C	0.672348	-0.179555	0.078520
C72	C	0.674896	-0.212138	0.000070
O73	O	0.668756	-0.271072	0.145167
O74	O	0.679492	-0.281792	-0.145071
C75	C	0.776474	0.069263	0.000077
C76	C	0.839692	0.070018	0.000079
C77	C	0.667559	0.178177	0.000042
C78	C	0.668314	0.241395	0.000029
N79	N	0.664733	0.081592	0.204830
N80	N	0.679919	0.066457	-0.204700
C81	C	0.702013	0.044338	0.250119
C82	C	0.698664	0.047688	0.340691
C83	C	0.658037	0.088293	0.385972
C84	C	0.620753	0.125549	0.340677
C85	C	0.624100	0.122196	0.250107
C86	C	0.645981	0.100360	0.659435
C87	C	0.642639	0.103711	0.750011
C88	C	0.720549	0.025849	0.750020
C89	C	0.723895	0.022502	0.659448
C90	C	0.686609	0.059756	0.614160
C91	C	0.654614	0.091719	0.478551
C92	C	0.690029	0.056327	0.521583
H93	H	0.681550	-0.104102	-0.142217
H94	H	-0.052295	0.076648	0.142380
H95	H	-0.149519	0.064831	-0.142232
H96	H	0.386411	0.081927	0.142359
C97	C	0.614938	-0.589782	0.169496
C98	C	0.663671	-0.630801	0.164699
H99	H	0.613206	-0.567676	0.222733
H100	H	0.616988	-0.565312	0.122797
H101	H	0.581568	-0.608542	0.166225
H102	H	0.697042	-0.612041	0.167963
H103	H	0.661626	-0.655275	0.211410
H104	H	0.218015	0.082809	0.220802
H105	H	0.110266	0.081512	0.220801
H106	H	0.663111	-0.747839	0.142336
C107	C	0.619213	-0.236321	0.169517
C108	C	0.668767	-0.209036	0.164732
H109	H	0.617004	-0.254522	0.222739
H110	H	0.586403	-0.208728	0.166270
H111	H	0.620631	-0.264224	0.122794
H112	H	0.667347	-0.181129	0.211452
H113	H	0.701585	-0.236632	0.167988
C114	C	0.725419	-0.615618	-0.169417
C115	C	0.675872	-0.642913	-0.164618
H116	H	0.727622	-0.597424	-0.222646
H117	H	0.723999	-0.587713	-0.122707
H118	H	0.758238	-0.643209	-0.166169
H119	H	0.643053	-0.615321	-0.167860
H120	H	0.677287	-0.670821	-0.211341
C121	C	-0.150058	0.029024	0.212231
C122	C	-0.169348	0.076063	0.164731
H123	H	-0.172185	0.030746	0.265458
H124	H	-0.154059	-0.005492	0.180005
H125	H	-0.110849	0.029924	0.223458
H126	H	-0.208556	0.075161	0.153499
H127	H	-0.165353	0.110588	0.196965
H128	H	-0.041768	0.066118	-0.142245
C129	C	0.541639	0.121180	-0.169413
C130	C	0.513998	0.071982	-0.164613
H131	H	0.563772	0.119451	-0.222635
H132	H	0.513808	0.154231	-0.166172
H133	H	0.566092	0.123217	-0.122691
H134	H	0.489542	0.069947	-0.211332
H135	H	0.541833	0.038922	-0.167862
C136	C	0.362026	0.020925	-0.169397
C137	C	0.389306	0.070480	-0.164613
H138	H	0.343845	0.018717	-0.222626
H139	H	0.389619	-0.011883	-0.166130
H140	H	0.334105	0.022339	-0.122684
H141	H	0.417229	0.069064	-0.211322
H142	H	0.361710	0.103297	-0.167889
C143	C	0.631765	-0.248775	-0.169386
C144	C	0.680966	-0.221141	-0.164581
H145	H	0.633495	-0.270883	-0.222620
H146	H	0.629720	-0.273243	-0.122683
H147	H	0.598712	-0.220936	-0.166126
H148	H	0.714019	-0.248981	-0.167834
H149	H	0.683016	-0.196671	-0.211297
H150	H	0.681157	-0.380224	-0.220682
C151	C	0.539414	0.142082	0.442552
C152	C	0.576096	0.170182	0.390452
H153	H	0.511848	0.169640	0.473284
H154	H	0.520374	0.117181	0.407235
H155	H	0.561146	0.120376	0.482483
H156	H	0.554364	0.191885	0.350517
H157	H	0.595138	0.195094	0.425772
C158	C	0.460629	0.086236	0.233539
C159	C	0.501795	0.084159	0.164701
H160	H	0.478809	0.088441	0.286770
H161	H	0.433046	0.119052	0.230266
H162	H	0.442120	0.052618	0.230273
H163	H	0.520301	0.117779	0.167963
H164	H	0.529388	0.051340	0.167975
H165	H	0.679854	-0.487967	-0.220691
C166	C	0.778683	-0.032292	0.259234
C167	C	0.746671	-0.000299	0.200351
H168	H	0.806250	-0.059852	0.228509
H169	H	0.797724	-0.007385	0.294543
H170	H	0.753784	-0.051343	0.294576
H171	H	0.771569	0.018757	0.165014
H172	H	0.727629	-0.025209	0.165028
H173	H	0.729020	0.017352	0.377565
H174	H	0.673659	-0.758329	-0.142276
C175	C	0.660430	-0.438185	0.311985
C176	C	0.662525	-0.479343	0.243150
H177	H	0.658201	-0.456371	0.365217
H178	H	0.694046	-0.419682	0.308731
H179	H	0.627614	-0.410596	0.308696
H180	H	0.695344	-0.506930	0.246435
H181	H	0.628906	-0.497856	0.246405
C182	C	0.713227	-0.327029	0.247968
C183	C	0.664029	-0.354667	0.243154
H184	H	0.711489	-0.304917	0.301200
H185	H	0.746278	-0.354860	0.244714
H186	H	0.715271	-0.302557	0.201259
H187	H	0.661987	-0.379142	0.289859
H188	H	0.630969	-0.326833	0.246416
H189	H	0.756976	-0.010562	0.622582
C190	C	0.621518	-0.043312	0.169500
C191	C	0.670253	-0.084328	0.164742
H192	H	0.619777	-0.021191	0.222724
H193	H	0.623575	-0.018855	0.122785
H194	H	0.588150	-0.062075	0.166231
H195	H	0.703622	-0.065565	0.168004
H196	H	0.668201	-0.108788	0.211470
H197	H	0.750906	-0.004482	0.786901
C198	C	0.568640	0.177664	0.668537
C199	C	0.605001	0.141313	0.609663
H200	H	0.543343	0.202950	0.637805
H201	H	0.546991	0.155371	0.703875
H202	H	0.590929	0.199330	0.703849
H203	H	0.582712	0.119643	0.574354
H204	H	0.626653	0.163608	0.574309
C205	C	0.546758	0.199501	0.259190
C206	C	0.583123	0.163149	0.200321
H207	H	0.521462	0.224785	0.228453
H208	H	0.525108	0.177209	0.294528
H209	H	0.569045	0.221169	0.294503
H210	H	0.560836	0.141477	0.165012
H211	H	0.604775	0.185444	0.164968
H212	H	0.609554	0.136779	0.786875
C213	C	0.766706	-0.020301	0.530687
C214	C	0.734686	0.011693	0.471814
H215	H	0.794273	-0.047857	0.499954
H216	H	0.785747	0.004606	0.565995
H217	H	0.741813	-0.039358	0.566029
H218	H	0.759578	0.030753	0.436475
H219	H	0.715644	-0.013218	0.436491
C220	C	0.160156	0.062194	-0.311870
C221	C	0.118986	0.064278	-0.243035
H222	H	0.141980	0.059972	-0.365102
H223	H	0.178657	0.095811	-0.308618
H224	H	0.187746	0.029379	-0.308578
H225	H	0.091398	0.097095	-0.246323
H226	H	0.100475	0.030658	-0.246288
C227	C	0.271290	0.114994	-0.247844
C228	C	0.243657	0.065792	-0.243039
H229	H	0.293409	0.113273	-0.301077
H230	H	0.243455	0.148043	-0.244581
H231	H	0.295755	0.117029	-0.201137
H232	H	0.219189	0.063759	-0.289743
H233	H	0.271496	0.032734	-0.246310
H234	H	0.621536	0.124782	0.515426
