data_functionalizedCrystal
_audit_creation_method	'MofGen! by Chris Wilmer'
_symmetry_space_group_name_H-M	'P1'
_symmetry_Int_Tables_number	1
_symmetry_cell_setting	triclinic
loop_
_symmetry_equiv_pos_as_xyz
  x,y,z
_cell_length_a	10.654550
_cell_length_b	14.044220
_cell_length_c	9.730223
_cell_angle_alpha	89.994583
_cell_angle_beta	89.999957
_cell_angle_gamma	88.836904
loop_
_atom_site_label
_atom_site_type_symbol
_atom_site_fract_x
_atom_site_fract_y
_atom_site_fract_z
O1	O	1.681228	0.133232	-0.114191
O2	O	1.317025	0.145925	-0.114216
O3	O	1.493659	0.001558	-0.114190
O4	O	1.504593	0.277599	-0.114217
O5	O	1.493647	0.001554	0.114390
O6	O	1.317012	0.145921	0.114364
O7	O	1.681215	0.133228	0.114389
Zn8	Zn	1.499111	0.139574	0.150668
Zn9	Zn	1.499128	0.139579	-0.150496
O10	O	1.504580	0.277595	0.114363
C11	C	1.270127	0.144991	0.000070
C12	C	1.130403	0.142202	0.000061
C13	C	1.488867	-0.033790	0.000100
C14	C	1.474592	-0.139110	0.000101
C15	C	1.059459	0.227204	0.000057
C16	C	0.928175	0.224578	0.000081
C17	C	0.938790	0.051942	0.000108
C18	C	1.070072	0.054569	0.000094
C19	C	1.448493	-0.331943	0.000079
C20	C	1.549741	-0.388910	0.000082
C21	C	1.535219	-0.496209	0.000070
C22	C	1.463013	-0.224634	0.000091
C23	C	1.728113	0.134162	0.000099
C24	C	1.867836	0.136950	0.000100
C25	C	1.509372	0.312943	0.000070
C26	C	1.523648	0.418262	0.000060
N27	N	1.499109	0.139570	0.356205
N28	N	1.499140	0.139576	-0.356032
C29	C	1.577355	0.075671	0.428142
C30	C	1.577367	0.075671	0.572025
C31	C	1.420885	0.203477	0.572021
C32	C	1.420867	0.203471	0.428140
H33	H	1.108577	0.298560	0.000041
H34	H	1.647328	-0.357098	-0.000004
N35	N	1.319232	-0.374072	0.000068
H36	H	1.327052	-0.445863	0.000065
H37	H	1.272092	-0.352232	0.084809
H38	H	1.127837	-0.014653	0.000101
N39	N	1.661737	0.006750	0.350551
H40	H	1.711305	-0.033730	0.417962
H41	H	1.608924	-0.035526	0.290870
N42	N	0.873718	-0.042573	0.000150
H43	H	0.779785	-0.031340	0.000158
H44	H	0.898974	-0.079812	-0.084581
H45	H	1.641080	0.023638	0.630593
H46	H	1.357184	0.255506	0.630605
H47	H	1.357144	0.255506	0.369565
H48	H	0.870417	0.293795	0.000080
