data_functionalizedCrystal
_audit_creation_method	'MofGen! by Chris Wilmer'
_symmetry_space_group_name_H-M	'P1'
_symmetry_Int_Tables_number	1
_symmetry_cell_setting	triclinic
loop_
_symmetry_equiv_pos_as_xyz
  x,y,z
_cell_length_a	17.077404
_cell_length_b	19.077068
_cell_length_c	17.077396
_cell_angle_alpha	87.732878
_cell_angle_beta	90.019501
_cell_angle_gamma	92.327269
loop_
_atom_site_label
_atom_site_type_symbol
_atom_site_fract_x
_atom_site_fract_y
_atom_site_fract_z
Zn1	Zn	1.187475	-0.280197	0.456376
Zn2	Zn	1.520808	0.053136	0.789709
Zn3	Zn	1.854141	0.386470	1.123042
Zn4	Zn	1.182097	-0.397901	0.330375
Zn5	Zn	1.515430	-0.064568	0.663708
Zn6	Zn	1.848764	0.268766	0.997041
Zn7	Zn	1.056205	-0.280222	0.325125
Zn8	Zn	1.389539	0.053112	0.658458
Zn9	Zn	1.722872	0.386445	0.991792
Zn10	Zn	1.050892	-0.397859	0.461596
Zn11	Zn	1.384225	-0.064526	0.794930
Zn12	Zn	1.717558	0.268808	1.128263
O13	O	1.119167	-0.339045	0.393368
O14	O	1.452500	-0.005711	0.726701
O15	O	1.785834	0.327622	1.060035
O16	O	1.296608	-0.295818	0.439674
O17	O	1.629941	0.037515	0.773007
O18	O	1.963275	0.370849	1.106340
O19	O	1.165371	-0.382318	0.219833
O20	O	1.498704	-0.048985	0.553166
O21	O	1.832037	0.284348	0.886499
O22	O	1.078093	-0.181727	0.338154
O23	O	1.411426	0.151606	0.671487
O24	O	1.744759	0.484939	1.004820
O25	O	1.292657	-0.382294	0.347101
O26	O	1.625990	-0.048961	0.680435
O27	O	1.959324	0.284372	1.013768
O28	O	1.174536	-0.181709	0.434583
O29	O	1.507869	0.151624	0.767917
O30	O	1.841202	0.484957	1.101250
O31	O	1.072878	-0.295860	0.215976
O32	O	1.406212	0.037473	0.549309
O33	O	1.739545	0.370807	0.882642
O34	O	0.945654	-0.295819	0.343216
O35	O	1.278987	0.037514	0.676549
O36	O	1.612321	0.370847	1.009883
O37	O	1.069036	-0.382223	0.570750
O38	O	1.402370	-0.048890	0.904083
O39	O	1.735703	0.284444	1.237416
O40	O	0.941750	-0.382247	0.443481
O41	O	1.275083	-0.048914	0.776814
O42	O	1.608417	0.284420	1.110148
O43	O	1.169383	-0.295777	0.566914
O44	O	1.502717	0.037556	0.900247
O45	O	1.836050	0.370889	1.233581
O46	O	1.160218	-0.496386	0.352163
O47	O	1.493552	-0.163053	0.685497
O48	O	1.826885	0.170280	1.018830
O49	O	1.063822	-0.496356	0.448571
O50	O	1.397155	-0.163022	0.781905
O51	O	1.730489	0.170311	1.115238
C52	C	0.915220	-0.339032	0.393346
C53	C	1.248553	-0.005699	0.726679
C54	C	1.581887	0.327635	1.060012
C55	C	0.827970	-0.339043	0.393356
C56	C	1.161303	-0.005710	0.726689
C57	C	1.494636	0.327623	1.060022
C58	C	0.784964	-0.384114	0.445486
C59	C	1.118297	-0.050781	0.778819
C60	C	1.451631	0.282552	1.112153
C61	C	0.702984	-0.384116	0.445499
C62	C	1.036317	-0.050782	0.778832
C63	C	1.369650	0.282551	1.112165
C64	C	0.664010	-0.339050	0.393376
C65	C	0.997343	-0.005716	0.726710
C66	C	1.330677	0.327617	1.060043
C67	C	0.707021	-0.293974	0.341243
C68	C	1.040355	0.039360	0.674577
C69	C	1.373688	0.372693	1.007910
C70	C	0.789000	-0.293969	0.341235
C71	C	1.122334	0.039364	0.674569
C72	C	1.455667	0.372697	1.007902
C73	C	0.536151	-0.293988	0.341263
C74	C	0.869484	0.039346	0.674596
C75	C	1.202817	0.372679	1.007930
C76	C	0.454166	-0.293993	0.341270
C77	C	0.787499	0.039340	0.674603
C78	C	1.120832	0.372674	1.007937
C79	C	0.450134	-0.384134	0.445526
C80	C	0.783467	-0.050801	0.778860
C81	C	1.116800	0.282533	1.112193
C82	C	0.532113	-0.384130	0.445518
C83	C	0.865446	-0.050796	0.778852
C84	C	1.198780	0.282537	1.112185
C85	C	0.575119	-0.339055	0.393384
C86	C	0.908452	-0.005721	0.726717
C87	C	1.241785	0.327612	1.060051
C88	C	1.110881	-0.521909	0.401521
C89	C	1.444215	-0.188575	0.734854
C90	C	1.777548	0.144758	1.068187
C91	C	1.107408	-0.600139	0.405035
C92	C	1.440742	-0.266805	0.738368
C93	C	1.774075	0.066528	1.071701
C94	C	1.156004	-0.636884	0.356533
C95	C	1.489337	-0.303551	0.689866
C96	C	1.822671	0.029783	1.023199
C97	C	1.152742	-0.710389	0.359843
C98	C	1.486076	-0.377056	0.693176
C99	C	1.819409	-0.043723	1.026509
C100	C	1.100880	-0.747148	0.411651
C101	C	1.434214	-0.413815	0.744984
C102	C	1.767547	-0.080481	1.078317
C103	C	1.052283	-0.710398	0.460158
C104	C	1.385616	-0.377064	0.793491
C105	C	1.718949	-0.043731	1.126825
C106	C	1.055549	-0.636894	0.456852
C107	C	1.388882	-0.303560	0.790185
C108	C	1.722216	0.029773	1.123518
C109	C	1.085729	-0.966982	0.426921
C110	C	1.419063	-0.633649	0.760254
C111	C	1.752396	-0.300316	1.093588
C112	C	1.082465	-1.040491	0.430222
C113	C	1.415798	-0.707158	0.763555
C114	C	1.749132	-0.373825	1.096889
C115	C	1.182926	-1.040478	0.329907
C116	C	1.516259	-0.707145	0.663240
C117	C	1.849593	-0.373811	0.996574
C118	C	1.186184	-0.966973	0.326602
C119	C	1.519518	-0.633639	0.659935
C120	C	1.852851	-0.300306	0.993269
C121	C	1.137590	-0.930229	0.375112
C122	C	1.470923	-0.596895	0.708445
C123	C	1.804256	-0.263562	1.041779
N124	N	1.097543	-0.822282	0.415033
N125	N	1.430877	-0.488949	0.748367
N126	N	1.764210	-0.155616	1.081700
N127	N	1.140931	-0.855096	0.371733
N128	N	1.474265	-0.521762	0.705066
N129	N	1.807598	-0.188429	1.038400
C130	C	1.323911	-0.339058	0.393391
C131	C	1.657244	-0.005725	0.726724
C132	C	1.990577	0.327609	1.060057
C133	C	1.411160	-0.339064	0.393400
C134	C	1.744494	-0.005730	0.726734
C135	C	2.077827	0.327603	1.060067
C136	C	1.119217	-0.338993	0.598110
C137	C	1.452550	-0.005660	0.931443
C138	C	1.785884	0.327674	1.264777
C139	C	1.119238	-0.338971	0.685359
C140	C	1.452572	-0.005637	1.018692
C141	C	1.785905	0.327696	1.352026
C142	C	1.127507	-0.155467	0.385201
C143	C	1.460840	0.177867	0.718534
C144	C	1.794173	0.511200	1.051867
C145	C	1.131061	-0.077237	0.381720
C146	C	1.464394	0.256097	0.715053
C147	C	1.797727	0.589430	1.048387
C148	C	1.119165	-0.339046	0.189420
C149	C	1.452498	-0.005712	0.522753
C150	C	1.785832	0.327621	0.856087
C151	C	1.119305	-0.338869	0.102163
C152	C	1.452638	-0.005536	0.435496
C153	C	1.785971	0.327797	0.768830
C154	C	1.171491	-0.293955	0.724353
C155	C	1.504824	0.039379	1.057686
C156	C	1.838157	0.372712	1.391020
C157	C	1.171501	-0.293931	0.806332
C158	C	1.504835	0.039402	1.139666
C159	C	1.838168	0.372735	1.472999
C160	C	1.119262	-0.338928	0.849316
C161	C	1.452596	-0.005595	1.182650
C162	C	1.785929	0.327739	1.515983
C163	C	1.067004	-0.383946	0.810317
C164	C	1.400338	-0.050613	1.143650
C165	C	1.733671	0.282721	1.476983
C166	C	1.066990	-0.383965	0.728339
C167	C	1.400324	-0.050632	1.061672
C168	C	1.733657	0.282701	1.395005
C169	C	1.067038	-0.383904	0.981185
C170	C	1.400371	-0.050570	1.314518
C171	C	1.733704	0.282763	1.647852
C172	C	1.067052	-0.383885	1.063169
C173	C	1.400385	-0.050552	1.396502
C174	C	1.733719	0.282781	1.729835
C175	C	1.171549	-0.293870	1.059179
C176	C	1.504882	0.039464	1.392512
C177	C	1.838215	0.372797	1.725845
C178	C	1.171535	-0.293889	0.977201
C179	C	1.504868	0.039444	1.310534
C180	C	1.838201	0.372778	1.643867
C181	C	1.119277	-0.338908	0.938207
C182	C	1.452611	-0.005575	1.271540
C183	C	1.785944	0.327759	1.604873
H184	H	0.675282	-0.257277	0.298808
H185	H	1.008616	0.076056	0.632141
H186	H	1.341949	0.409390	0.965474
N187	N	0.574143	-0.432737	0.501739
N188	N	0.907477	-0.099404	0.835072
N189	N	1.240810	0.233929	1.168405
H190	H	0.609466	-0.404173	0.536889
H191	H	0.942799	-0.070839	0.870222
H192	H	1.276133	0.262494	1.203556
H193	H	0.606623	-0.465306	0.471172
H194	H	0.939956	-0.131973	0.804505
H195	H	1.273289	0.201360	1.137839
N196	N	1.033309	-0.927357	0.479230
N197	N	1.366642	-0.594024	0.812564
N198	N	1.699975	-0.260691	1.145897
H199	H	1.066541	-0.896815	0.514269
H200	H	1.399874	-0.563481	0.847602
H201	H	1.733207	-0.230148	1.180935
H202	H	0.999966	-0.961845	0.512496
H203	H	1.333300	-0.628511	0.845829
H204	H	1.666633	-0.295178	1.179162
N205	N	1.227916	-0.245314	1.101231
N206	N	1.561249	0.088019	1.434564
N207	N	1.894582	0.421353	1.767897
H208	H	1.219997	-0.252126	1.159686
H209	H	1.553331	0.081208	1.493019
H210	H	1.886664	0.414541	1.826352
H211	H	1.217985	-0.195050	1.084661
H212	H	1.551318	0.138284	1.417995
H213	H	1.884651	0.471617	1.751328
N214	N	0.403755	-0.432754	0.501757
N215	N	0.737088	-0.099420	0.835090
N216	N	1.070422	0.233913	1.168423
H217	H	0.345908	-0.425918	0.493857
H218	H	0.679241	-0.092584	0.827191
H219	H	1.012575	0.240749	1.160524
H220	H	0.418605	-0.421866	0.557352
H221	H	0.751938	-0.088533	0.890685
H222	H	1.085272	0.244800	1.224019
N223	N	0.826994	-0.432722	0.501707
N224	N	1.160328	-0.099388	0.835040
N225	N	1.493661	0.233945	1.168374
H226	H	0.885454	-0.425883	0.493792
H227	H	1.218787	-0.092550	0.827125
H228	H	1.552121	0.240784	1.160458
H229	H	0.810382	-0.482974	0.491638
H230	H	1.143715	-0.149641	0.824971
H231	H	1.477048	0.183693	1.158305
N232	N	1.235347	-1.080103	0.277594
N233	N	1.568680	-0.746770	0.610927
N234	N	1.902013	-0.413437	0.944261
H235	H	1.223754	-1.067354	0.220924
H236	H	1.557088	-0.734021	0.554257
H237	H	1.890421	-0.400688	0.887591
H238	H	1.225391	-1.132234	0.287611
H239	H	1.558724	-0.798900	0.620944
H240	H	1.892057	-0.465567	0.954278
N241	N	1.010626	-0.432511	0.686276
N242	N	1.343959	-0.099178	1.019609
N243	N	1.677292	0.234155	1.352943
H244	H	0.977533	-0.461013	0.725944
H245	H	1.310867	-0.127680	1.059278
H246	H	1.644200	0.205653	1.392611
H247	H	1.041086	-0.465095	0.653713
H248	H	1.374419	-0.131761	0.987046
H249	H	1.707752	0.201572	1.320379
N250	N	1.010652	-0.432463	0.856686
N251	N	1.343986	-0.099130	1.190019
N252	N	1.677319	0.234204	1.523352
H253	H	1.041071	-0.465074	0.892159
H254	H	1.374404	-0.131741	1.225492
H255	H	1.707737	0.201592	1.558826
H256	H	0.977551	-0.460936	0.819498
H257	H	1.310885	-0.127603	1.152831
H258	H	1.644218	0.205730	1.486165
N259	N	1.010711	-0.432416	1.109533
N260	N	1.344044	-0.099083	1.442867
N261	N	1.677378	0.234250	1.776200
H262	H	0.977600	-0.460935	1.072393
H263	H	1.310933	-0.127602	1.405726
H264	H	1.644267	0.205732	1.739059
H265	H	0.975698	-0.403752	1.142268
H266	H	1.309031	-0.070419	1.475601
H267	H	1.642365	0.262915	1.808935
N268	N	1.211948	-0.597242	0.300658
N269	N	1.545282	-0.263909	0.633991
N270	N	1.878615	0.069425	0.967325
H271	H	1.206645	-0.545101	0.305921
H272	H	1.539978	-0.211768	0.639254
H273	H	1.873312	0.121566	0.972588
H274	H	1.199194	-0.610135	0.245164
H275	H	1.532527	-0.276802	0.578497
H276	H	1.865860	0.056531	0.911831
H277	H	1.192313	-0.740304	0.320346
H278	H	1.525647	-0.406971	0.653680
H279	H	1.858980	-0.073637	0.987013
N280	N	0.412142	-0.245398	0.285030
N281	N	0.745476	0.087935	0.618363
N282	N	1.078809	0.421269	0.951696
H283	H	0.376837	-0.273976	0.249876
H284	H	0.710170	0.059357	0.583210
H285	H	1.043504	0.392691	0.916543
H286	H	0.451887	-0.216863	0.252060
H287	H	0.785220	0.116470	0.585394
H288	H	1.118554	0.449803	0.918727
H289	H	1.228414	-0.937045	0.284416
H290	H	1.561748	-0.603712	0.617749
H291	H	1.895081	-0.270378	0.951082
H292	H	1.040242	-1.070418	0.472424
H293	H	1.373575	-0.737085	0.805758
H294	H	1.706909	-0.403752	1.139091
H295	H	1.010059	-0.740332	0.502345
H296	H	1.343392	-0.406999	0.835678
H297	H	1.676726	-0.073666	1.169012
H298	H	1.015978	-0.606976	0.496348
H299	H	1.349312	-0.273643	0.829681
H300	H	1.682645	0.059690	1.163015
H301	H	1.214032	-0.257315	0.689361
H302	H	1.547366	0.076018	1.022694
H303	H	1.880699	0.409351	1.356028
N304	N	1.227844	-0.245365	0.848391
N305	N	1.561178	0.087969	1.181724
N306	N	1.894511	0.421302	1.515057
H307	H	1.260934	-0.216862	0.808721
H308	H	1.594267	0.116472	1.142054
H309	H	1.927600	0.449805	1.475388
H310	H	1.262878	-0.273996	0.883695
H311	H	1.596212	0.059337	1.217028
H312	H	1.929545	0.392670	1.550361
N313	N	0.582538	-0.245369	0.285037
N314	N	0.915871	0.087964	0.618371
N315	N	1.249205	0.421298	0.951704
H316	H	0.545410	-0.216821	0.252017
H317	H	0.878744	0.116512	0.585351
H318	H	1.212077	0.449845	0.918684
H319	H	0.615241	-0.273976	0.249931
H320	H	0.948574	0.059358	0.583265
H321	H	1.281907	0.392691	0.916598
H322	H	1.214077	-0.257253	0.942205
H323	H	1.547410	0.076081	1.275539
H324	H	1.880743	0.409414	1.608872
H325	H	0.667972	-0.420818	0.487948
H326	H	1.001305	-0.087484	0.821281
H327	H	1.334639	0.245849	1.154615
N328	N	0.835389	-0.245353	0.285014
N329	N	1.168723	0.087981	0.618348
N330	N	1.502056	0.421314	0.951681
H331	H	0.798262	-0.216804	0.251996
H332	H	1.131595	0.116530	0.585329
H333	H	1.464928	0.449863	0.918663
H334	H	0.868095	-0.273954	0.249906
H335	H	1.201429	0.059379	0.583239
H336	H	1.534762	0.392712	0.916573
H337	H	1.024472	-0.420552	0.949438
H338	H	1.357806	-0.087219	1.282772
H339	H	1.691139	0.246115	1.616105
