data_functionalizedCrystal
_audit_creation_method	'MofGen! by Chris Wilmer'
_symmetry_space_group_name_H-M	'P1'
_symmetry_Int_Tables_number	1
_symmetry_cell_setting	triclinic
loop_
_symmetry_equiv_pos_as_xyz
  x,y,z
_cell_length_a	29.839134
_cell_length_b	29.839131
_cell_length_c	14.908308
_cell_angle_alpha	93.253999
_cell_angle_beta	93.279186
_cell_angle_gamma	90.015800
loop_
_atom_site_label
_atom_site_type_symbol
_atom_site_fract_x
_atom_site_fract_y
_atom_site_fract_z
Zn1	Zn	0.672105	-0.193729	-0.510010
Zn2	Zn	1.172105	0.306271	-0.010010
Zn3	Zn	0.676375	-0.264528	-0.359125
Zn4	Zn	1.176375	0.235472	0.140875
Zn5	Zn	0.601316	-0.189389	-0.359171
Zn6	Zn	1.101316	0.310611	0.140829
Zn7	Zn	0.596946	-0.268805	-0.509932
Zn8	Zn	1.096946	0.231195	-0.009932
O9	O	0.636685	-0.229113	-0.434560
O10	O	1.136685	0.270887	0.065440
O11	O	0.735538	-0.203148	-0.490009
O12	O	1.235538	0.296852	0.009991
O13	O	0.670034	-0.250954	-0.232892
O14	O	1.170034	0.249046	0.267108
O15	O	0.610748	-0.127099	-0.379231
O16	O	1.110748	0.372901	0.120769
O17	O	0.738675	-0.255163	-0.379154
O18	O	1.238675	0.244837	0.120846
O19	O	0.662757	-0.130288	-0.490052
O20	O	1.162757	0.369712	0.009948
O21	O	0.614888	-0.195749	-0.232925
O22	O	1.114888	0.304251	0.267075
O23	O	0.537870	-0.199897	-0.379156
O24	O	1.037870	0.300103	0.120844
O25	O	0.603300	-0.262453	-0.636182
O26	O	1.103300	0.237547	-0.136182
O27	O	0.534659	-0.258244	-0.489919
O28	O	1.034659	0.241756	0.010081
O29	O	0.658519	-0.207295	-0.636239
O30	O	1.158519	0.292705	-0.136239
O31	O	0.665796	-0.327961	-0.379079
O32	O	1.165796	0.172039	0.120921
O33	O	0.607440	-0.331104	-0.489876
O34	O	1.107440	0.168896	0.010124
C35	C	0.519964	-0.229064	-0.434535
C36	C	1.019964	0.270936	0.065465
C37	C	0.470029	-0.229054	-0.434545
C38	C	0.970029	0.270946	0.065455
C39	C	0.111801	-0.202092	-0.492395
C40	C	0.611801	0.297908	0.007605
C41	C	0.299474	-0.202055	-0.492374
C42	C	0.799474	0.297945	0.007626
O43	O	0.322344	-0.179073	-0.541556
O44	O	0.822344	0.320927	-0.041556
N45	N	0.324583	-0.229085	-0.434566
N46	N	0.824583	0.270915	0.065434
C47	C	0.302771	-0.256128	-0.376764
C48	C	0.802771	0.243872	0.123236
O49	O	0.328434	-0.279121	-0.327601
O50	O	0.828434	0.220879	0.172399
C51	C	0.115098	-0.256166	-0.376790
C52	C	0.615098	0.243834	0.123210
C53	C	0.089991	-0.229131	-0.434595
C54	C	0.589991	0.270869	0.065405
C55	C	0.086694	-0.175059	-0.550196
C56	C	0.586694	0.324941	-0.050196
C57	C	0.039779	-0.175067	-0.550197
C58	C	0.539779	0.324933	-0.050197
C59	C	0.017970	-0.202107	-0.492397
C60	C	0.517970	0.297893	0.007603
C61	C	0.043076	-0.229139	-0.434596
C62	C	0.543076	0.270861	0.065404
C63	C	0.093286	-0.283211	-0.318993
C64	C	0.593286	0.216789	0.181007
C65	C	0.046365	-0.283220	-0.319006
C66	C	0.546365	0.216780	0.180994
C67	C	0.021258	-0.256185	-0.376811
C68	C	0.521258	0.243815	0.123189
C69	C	-0.025649	-0.256187	-0.376798
C70	C	0.474351	0.243813	0.123202
N71	N	-0.050758	-0.229157	-0.434605
N72	N	0.449242	0.270843	0.065395
C73	C	-0.028948	-0.202117	-0.492405
C74	C	0.471052	0.297883	0.007595
C75	C	0.401302	-0.256105	-0.376753
C76	C	0.901302	0.243895	0.123247
C77	C	0.448220	-0.256094	-0.376745
C78	C	0.948220	0.243906	0.123255
C79	C	0.444920	-0.202022	-0.492357
C80	C	0.944920	0.297978	0.007643
C81	C	0.398001	-0.202030	-0.492359
C82	C	0.898001	0.297970	0.007641
C83	C	0.376193	-0.229075	-0.434561
C84	C	0.876193	0.270925	0.065439
C85	C	-0.127474	-0.202135	-0.492402
C86	C	0.372526	0.297865	0.007598
C87	C	-0.174394	-0.202143	-0.492396
C88	C	0.325606	0.297857	0.007604
C89	C	-0.171090	-0.256217	-0.376788
C90	C	0.328910	0.243783	0.123212
C91	C	-0.124174	-0.256207	-0.376791
C92	C	0.375826	0.243793	0.123209
C93	C	-0.102368	-0.229165	-0.434606
C94	C	0.397632	0.270835	0.065394
O95	O	-0.048548	-0.279161	-0.327649
O96	O	0.451452	0.220839	0.172351
O97	O	-0.054619	-0.179135	-0.541575
O98	O	0.445381	0.320865	-0.041575
C99	C	0.158716	-0.202084	-0.492394
C100	C	0.658716	0.297916	0.007606
C101	C	0.183822	-0.229116	-0.434593
C102	C	0.683822	0.270884	0.065407
C103	C	0.162013	-0.256156	-0.376793
C104	C	0.662013	0.243844	0.123207
C105	C	0.230740	-0.229106	-0.434585
C106	C	0.730740	0.270894	0.065415
C107	C	0.252550	-0.202066	-0.492385
C108	C	0.752550	0.297934	0.007615
C109	C	0.227441	-0.175036	-0.550192
C110	C	0.727441	0.324964	-0.050192
C111	C	0.180525	-0.175044	-0.550193
C112	C	0.680525	0.324956	-0.050193
C113	C	0.187122	-0.283186	-0.318985
C114	C	0.687122	0.216814	0.181015
C115	C	0.234038	-0.283176	-0.318988
C116	C	0.734038	0.216824	0.181012
C117	C	0.255847	-0.256136	-0.376788
C118	C	0.755847	0.243864	0.123212
C119	C	0.636619	-0.345833	-0.434483
C120	C	1.136619	0.154167	0.065517
C121	C	0.636631	-0.395768	-0.434481
C122	C	1.136631	0.104232	0.065519
C123	C	0.663758	-0.707041	-0.492346
C124	C	1.163758	-0.207041	0.007654
C125	C	0.663805	-0.894716	-0.492400
C126	C	1.163805	-0.394716	0.007600
O127	O	0.686803	-0.920365	-0.541543
O128	O	1.186803	-0.420365	-0.041543
N129	N	0.636759	-0.916558	-0.434660
N130	N	1.136759	-0.416558	0.065340
C131	C	0.609697	-0.891478	-0.376905
C132	C	1.109697	-0.391478	0.123095
O133	O	0.586690	-0.914362	-0.327801
O134	O	1.086690	-0.414362	0.172199
C135	C	0.609648	-0.703805	-0.376856
C136	C	1.109648	-0.203805	0.123144
C137	C	0.636699	-0.681965	-0.434595
C138	C	1.136699	-0.181965	0.065405
C139	C	0.690806	-0.685202	-0.550080
C140	C	1.190806	-0.185202	-0.050080
C141	C	0.690796	-0.638286	-0.550063
C142	C	1.190796	-0.138286	-0.050063
C143	C	0.663737	-0.613209	-0.492311
C144	C	1.163737	-0.113209	0.007689
C145	C	0.636689	-0.635049	-0.434577
C146	C	1.136689	-0.135049	0.065423
C147	C	0.582584	-0.678726	-0.319107
C148	C	1.082584	-0.178726	0.180893
C149	C	0.582573	-0.631805	-0.319102
C150	C	1.082573	-0.131805	0.180898
C151	C	0.609624	-0.609965	-0.376840
C152	C	1.109624	-0.109965	0.123160
C153	C	0.609620	-0.563057	-0.376808
C154	C	1.109620	-0.063057	0.123192
N155	N	0.636666	-0.541215	-0.434548
N156	N	1.136666	-0.041215	0.065452
C157	C	0.663724	-0.566291	-0.492300
C158	C	1.163724	-0.066291	0.007700
C159	C	0.609725	-0.990010	-0.376934
C160	C	1.109725	-0.490010	0.123066
C161	C	0.609738	-1.036928	-0.376945
C162	C	1.109738	-0.536928	0.123055
C163	C	0.663846	-1.040162	-0.492441
C164	C	1.163846	-0.540162	0.007559
C165	C	0.663835	-0.993243	-0.492425
C166	C	1.163835	-0.493243	0.007575
C167	C	0.636771	-0.968168	-0.434675
C168	C	1.136771	-0.468168	0.065325
C169	C	0.663701	-0.467764	-0.492258
C170	C	1.163701	0.032236	0.007742
C171	C	0.663690	-0.420844	-0.492233
C172	C	1.163690	0.079156	0.007767
C173	C	0.609581	-0.417614	-0.376740
C174	C	1.109581	0.082386	0.123260
C175	C	0.609594	-0.464530	-0.376762
C176	C	1.109594	0.035470	0.123238
C177	C	0.636655	-0.489604	-0.434528
C178	C	1.136655	0.010396	0.065472
O179	O	0.586629	-0.537379	-0.327698
O180	O	1.086629	-0.037379	0.172302
O181	O	0.686720	-0.543399	-0.541411
O182	O	1.186720	-0.043399	-0.041411
C183	C	0.663768	-0.753957	-0.492364
C184	C	1.163768	-0.253957	0.007636
C185	C	0.636719	-0.775797	-0.434630
C186	C	1.136719	-0.275797	0.065370
C187	C	0.609661	-0.750721	-0.376878
C188	C	1.109661	-0.250721	0.123122
C189	C	0.636732	-0.822715	-0.434641
C190	C	1.136732	-0.322715	0.065359
C191	C	0.663791	-0.847791	-0.492392
C192	C	1.163791	-0.347791	0.007608
C193	C	0.690837	-0.825950	-0.550133
C194	C	1.190837	-0.325950	-0.050133
C195	C	0.690827	-0.779034	-0.550116
C196	C	1.190827	-0.279034	-0.050116
C197	C	0.582615	-0.772563	-0.319137
C198	C	1.082615	-0.272563	0.180863
C199	C	0.582627	-0.819479	-0.319159
C200	C	1.082627	-0.319479	0.180841
C201	C	0.609686	-0.844555	-0.376910
C202	C	1.109686	-0.344555	0.123090
C203	C	0.753863	-0.229162	-0.434585
C204	C	1.253863	0.270838	0.065415
C205	C	0.803797	-0.229183	-0.434596
C206	C	1.303797	0.270817	0.065404
C207	C	0.629946	-0.235836	-0.669859
C208	C	1.129946	0.264164	-0.169859
C209	C	0.627074	-0.238700	-0.770129
C210	C	1.127074	0.261300	-0.270129
C211	C	0.636764	-0.111937	-0.434656
C212	C	1.136764	0.388063	0.065344
C213	C	0.636797	-0.062004	-0.434697
C214	C	1.136797	0.437996	0.065303
C215	C	0.679176	-0.186637	-0.958609
C216	C	1.179176	0.313363	-0.458609
C217	C	0.676479	-0.189327	-1.052822
C218	C	1.176479	0.310673	-0.552822
C219	C	0.618981	-0.246768	-1.052770
C220	C	1.118981	0.253232	-0.552770
C221	C	0.621678	-0.244078	-0.958557
C222	C	1.121678	0.255922	-0.458557
C223	C	0.651777	-0.214012	-0.911480
C224	C	1.151777	0.285988	-0.411480
C225	C	0.654476	-0.211324	-0.817265
C226	C	1.154476	0.288676	-0.317265
C227	C	0.596977	-0.268763	-0.817214
C228	C	1.096977	0.231237	-0.317214
C229	C	0.594280	-0.271453	-0.911427
C230	C	1.094280	0.228547	-0.411427
C231	C	0.643424	-0.222384	-0.200176
C232	C	1.143424	0.277616	0.299824
C233	C	0.646383	-0.219393	-0.099906
C234	C	1.146383	0.280607	0.400094
H235	H	0.254476	-0.305190	-0.271908
H236	H	0.754476	0.194810	0.228092
F237	F	0.553811	-0.745881	-0.257670
F238	F	1.053811	-0.245881	0.242330
H239	H	0.685862	-0.975464	-0.539441
H240	H	1.185862	-0.475464	-0.039441
H241	H	0.462685	-0.180004	-0.539418
H242	H	0.962685	0.319996	-0.039418
H243	H	0.574667	-0.291055	-0.778832
H244	H	1.074667	0.208945	-0.278832
F245	F	0.562247	-0.303449	-0.961540
F246	F	1.062247	0.196551	-0.461540
H247	H	0.560533	-0.611390	-0.272075
H248	H	1.060533	-0.111390	0.227925
H249	H	0.169370	-0.305206	-0.271918
H250	H	0.669370	0.194794	0.228082
H251	H	0.587570	-0.482312	-0.329739
H252	H	1.087570	0.017688	0.170261
H253	H	0.685720	-0.403064	-0.539250
H254	H	1.185720	0.096936	-0.039250
H255	H	0.703686	-0.162158	-0.920279
H256	H	1.203686	0.337842	-0.420279
H257	H	0.245206	-0.153018	-0.597251
H258	H	0.745206	0.346982	-0.097251
H259	H	0.160088	-0.153029	-0.597264
H260	H	0.660088	0.346971	-0.097264
F261	F	0.692644	-1.066858	-0.553905
F262	F	1.192644	-0.566858	-0.053905
H263	H	0.712854	-0.761255	-0.597132
H264	H	1.212854	-0.261255	-0.097132
H265	H	0.560600	-0.837256	-0.272133
H266	H	1.060600	-0.337256	0.227867
F267	F	0.371285	-0.173257	-0.553884
F268	F	0.871285	0.326743	-0.053884
H269	H	0.712841	-0.705614	-0.597114
H270	H	1.212841	-0.205614	-0.097114
F271	F	0.719585	-0.615049	-0.611522
F272	F	1.219585	-0.115049	-0.111522
H273	H	-0.103731	-0.278217	-0.329714
H274	H	0.396269	0.221783	0.170286
F275	F	0.580785	-0.390917	-0.315279
F276	F	1.080785	0.109083	0.184721
H277	H	0.587716	-1.054705	-0.329919
H278	H	1.087716	-0.554705	0.170081
H279	H	-0.194833	-0.180126	-0.539467
H280	H	0.305167	0.319874	-0.039467
F281	F	0.705640	-0.160191	-1.102978
F282	F	1.205640	0.339809	-0.602978
H283	H	0.685734	-0.488175	-0.539303
H284	H	1.185734	0.011825	-0.039303
F285	F	-0.194309	-0.284992	-0.315274
F286	F	0.305691	0.215008	0.184726
F287	F	0.586948	-0.278761	-1.102888
F288	F	1.086948	0.221239	-0.602888
H289	H	-0.109725	-0.180114	-0.539480
H290	H	0.390275	0.319886	-0.039480
H291	H	0.587687	-0.969596	-0.329904
H292	H	1.087687	-0.469596	0.170096
H293	H	0.560556	-0.696499	-0.272090
H294	H	1.060556	-0.196499	0.227910
H295	H	0.712871	-0.846375	-0.597154
H296	H	1.212871	-0.346375	-0.097154
H297	H	0.019341	-0.153054	-0.597272
H298	H	0.519341	0.346946	-0.097272
H299	H	0.678985	-0.186844	-0.778936
H300	H	1.178985	0.313156	-0.278936
H301	H	0.468658	-0.278104	-0.329665
H302	H	0.968658	0.221896	0.170335
F303	F	0.109898	-0.146278	-0.611722
F304	F	0.609898	0.353722	-0.111722
H305	H	0.383550	-0.278128	-0.329683
H306	H	0.883550	0.221872	0.170317
H307	H	0.113720	-0.305226	-0.271922
H308	H	0.613720	0.194774	0.228078
H309	H	0.028611	-0.305244	-0.271941
H310	H	0.528611	0.194756	0.228059
