data_functionalizedCrystal
_audit_creation_method	'MofGen! by Chris Wilmer'
_symmetry_space_group_name_H-M	'P1'
_symmetry_Int_Tables_number	1
_symmetry_cell_setting	triclinic
loop_
_symmetry_equiv_pos_as_xyz
  x,y,z
_cell_length_a	15.995300
_cell_length_b	15.625204
_cell_length_c	14.750522
_cell_angle_alpha	93.453390
_cell_angle_beta	104.203750
_cell_angle_gamma	96.128351
loop_
_atom_site_label
_atom_site_type_symbol
_atom_site_fract_x
_atom_site_fract_y
_atom_site_fract_z
O1	O	1.118601	-0.124012	0.036686
O2	O	0.873888	-0.137389	0.032023
O3	O	1.011398	-0.008744	0.076812
O4	O	0.981091	-0.252656	-0.008103
O5	O	0.981213	0.023700	-0.071552
O6	O	0.843703	-0.104945	-0.116341
O7	O	1.088417	-0.091567	-0.111677
Zn8	Zn	0.961268	-0.093104	-0.137565
Zn9	Zn	1.001037	-0.135852	0.057910
O10	O	0.950907	-0.220212	-0.156466
C11	C	0.827638	-0.120621	-0.041970
C12	C	0.734799	-0.118985	-0.041403
C13	C	0.564828	-0.115965	-0.040344
C14	C	0.510985	-0.207563	-0.072235
C15	C	0.414483	-0.205966	-0.071314
C16	C	0.397479	-0.112993	-0.039303
C17	C	0.458978	-0.086039	0.061074
C18	C	0.555464	-0.088371	0.060335
C19	C	0.521511	-0.050118	-0.107915
C20	C	0.424340	-0.049884	-0.109027
C21	C	0.302902	-0.111309	-0.038710
C22	C	0.659406	-0.117648	-0.040930
C23	C	0.997928	0.038689	0.013498
C24	C	1.002751	0.131689	0.045880
C25	C	1.025999	0.245081	0.172387
C26	C	1.021466	0.157696	0.141950
C27	C	0.988557	0.193065	-0.019790
C28	C	0.993083	0.280455	0.010634
C29	C	1.011806	0.306456	0.106724
C30	C	0.978889	0.341830	-0.055030
C31	C	0.983420	0.429212	-0.024608
C32	C	1.002144	0.455221	0.071478
C33	C	1.016336	0.393839	0.137146
C34	C	0.960173	0.315828	-0.151119
C35	C	0.945979	0.377203	-0.216783
C36	C	0.950504	0.464586	-0.186362
C37	C	0.969228	0.490595	-0.090276
C38	C	0.936312	0.525969	-0.252029
C39	C	0.940843	0.613351	-0.221607
C40	C	0.973759	0.577977	-0.059854
C41	C	1.134667	-0.108335	-0.037683
C42	C	1.227508	-0.109973	-0.038244
N43	N	0.934133	-0.063930	-0.270972
C44	C	0.964380	0.732354	-0.093148
C45	C	0.959565	0.639352	-0.125517
C46	C	1.103893	-0.246522	-0.686310
C47	C	1.084899	-0.226065	-0.779693
C48	C	0.990427	-0.124409	-0.744291
C49	C	1.009410	-0.144860	-0.650904
C50	C	1.066144	-0.205916	-0.621921
C51	C	0.971661	-0.104254	-0.586516
C52	C	0.990646	-0.124700	-0.493136
C53	C	1.047380	-0.185752	-0.464145
C54	C	1.085129	-0.226362	-0.528542
C55	C	0.914932	-0.043193	-0.615499
C56	C	0.877183	-0.002587	-0.551110
C57	C	0.896163	-0.023038	-0.457731
C58	C	0.952897	-0.084090	-0.428739
C59	C	0.858413	0.017572	-0.393334
C60	C	0.877398	-0.002874	-0.299954
C61	C	0.971882	-0.104536	-0.335360
N62	N	1.028179	-0.165019	0.191319
H63	H	0.584411	-0.134998	0.112379
F64	F	1.006973	0.548223	0.103857
H65	H	0.557827	0.017593	-0.085218
F66	F	0.549412	-0.272268	-0.009600
F67	F	0.357913	-0.235325	-0.166768
H68	H	1.031567	0.415007	0.215391
H69	H	0.593154	-0.021900	0.087364
H70	H	0.396563	-0.254853	-0.022725
H71	H	1.041230	0.266250	0.250633
F72	F	1.036576	0.092377	0.211846
H73	H	0.973316	0.171883	-0.098027
F74	F	1.125086	-0.269285	-0.848218
H75	H	0.450221	-0.018413	0.087745
H76	H	0.846658	0.030190	-0.247527
F77	F	1.145519	-0.291340	-0.497690
H78	H	0.956488	0.244675	-0.175886
F79	F	0.528514	-0.071210	-0.205433
F80	F	0.435901	-0.144872	0.129438
F81	F	0.930048	-0.059430	-0.775147
F82	F	0.516145	-0.238596	-0.167982
H83	H	0.988990	0.599146	0.018392
H84	H	1.150082	-0.296249	-0.662714
F85	F	0.368951	-0.075378	-0.205894
H86	H	0.412627	0.019018	-0.090803
H87	H	0.899481	-0.026542	-0.691534
F88	F	0.816804	0.062392	-0.581967
F89	F	1.032271	-0.169514	-0.304508
H90	H	0.930739	0.356021	-0.295020
F91	F	0.916397	0.498286	-0.354291
F92	F	0.925741	0.678674	-0.291494
F93	F	0.798041	0.082557	-0.424190
H94	H	1.062838	-0.202397	-0.388108
