data_functionalizedCrystal
_audit_creation_method	'MofGen! by Chris Wilmer'
_symmetry_space_group_name_H-M	'P1'
_symmetry_Int_Tables_number	1
_symmetry_cell_setting	triclinic
loop_
_symmetry_equiv_pos_as_xyz
  x,y,z
_cell_length_a	10.723023
_cell_length_b	17.038272
_cell_length_c	9.198806
_cell_angle_alpha	89.996565
_cell_angle_beta	90.004114
_cell_angle_gamma	92.210448
loop_
_atom_site_label
_atom_site_type_symbol
_atom_site_fract_x
_atom_site_fract_y
_atom_site_fract_z
O1	O	-1.667337	0.109717	-0.120901
O2	O	-1.305156	0.120220	-0.120902
O3	O	-1.484094	0.001141	-0.120890
O4	O	-1.488399	0.228796	-0.120913
O5	O	-1.484079	0.001141	0.120895
O6	O	-1.305141	0.120220	0.120883
O7	O	-1.667322	0.109717	0.120884
Cu8	Cu	-1.486230	0.114968	0.142960
Cu9	Cu	-1.486248	0.114969	-0.142978
O10	O	-1.488384	0.228796	0.120872
C11	C	-1.258579	0.119456	-0.000010
C12	C	-1.119813	0.117169	-0.000010
C13	C	-1.057939	0.116150	0.125241
C14	C	-0.914517	0.113787	0.125244
C15	C	-1.480171	-0.028009	0.000002
C16	C	-1.468489	-0.114866	0.000002
C17	C	-1.575745	-0.164388	0.000004
C18	C	-1.564761	-0.245999	-0.000010
C19	C	-1.446520	-0.278087	-0.000015
C20	C	-1.339256	-0.228559	-0.000022
C21	C	-1.350242	-0.146949	-0.000018
C22	C	-1.407711	-0.524059	-0.000035
C23	C	-1.396734	-0.605675	-0.000035
C24	C	-1.622239	-0.623110	-0.000025
C25	C	-1.633214	-0.541497	-0.000013
C26	C	-1.525951	-0.491977	-0.000027
C27	C	-1.435290	-0.361507	-0.000025
C28	C	-1.537182	-0.408559	-0.000028
C29	C	-0.713900	0.110481	-0.000008
C30	C	-0.852666	0.112768	-0.000008
C31	C	-1.492307	0.257946	-0.000023
C32	C	-1.503990	0.344803	-0.000033
N33	N	-1.486227	0.114968	0.344074
N34	N	-1.486261	0.114963	-0.344092
C35	C	-1.561337	0.064749	0.416277
C36	C	-1.561356	0.064747	0.583689
H37	H	-1.111145	0.117022	0.232472
N38	N	-1.401063	0.171918	0.426353
H39	H	-1.350934	0.205431	0.355168
H40	H	-1.342607	0.141720	0.489516
N41	N	-0.844083	0.112292	0.267294
H42	H	-0.751629	0.110656	0.247160
H43	H	-0.872013	0.064147	0.324445
N44	N	-1.646510	0.007793	0.334025
H45	H	-1.626009	-0.047782	0.360461
H46	H	-1.634398	0.015926	0.226116
N47	N	-1.211725	-0.263167	-0.000014
H48	H	-1.145446	-0.219409	-0.000016
H49	H	-1.202259	-0.296646	-0.089644
N50	N	-1.269198	-0.640288	-0.000055
H51	H	-1.259605	-0.673759	0.089578
H52	H	-1.202991	-0.596490	-0.000122
N53	N	-1.703279	-0.129784	0.000024
H54	H	-1.750668	-0.147792	-0.089606
H55	H	-1.693860	-0.070576	0.000087
N56	N	-1.646550	0.007798	0.665920
H57	H	-1.634490	0.015869	0.773857
H58	H	-1.626011	-0.047755	0.639403
H59	H	-0.905868	0.113649	-0.107246
N60	N	-1.049343	0.116002	-0.142053
H61	H	-0.990263	0.163519	-0.147854
H62	H	-1.110417	0.116977	-0.225560
H63	H	-1.652100	-0.286316	-0.000005
N64	N	-1.292024	-0.470655	-0.000042
H65	H	-1.240828	-0.481049	-0.089671
H66	H	-1.240913	-0.481076	0.089648
N67	N	-1.760755	-0.506903	-0.000011
H68	H	-1.808137	-0.524917	-0.089642
H69	H	-1.751349	-0.447694	0.000049
N70	N	-1.737925	-0.676520	-0.000008
H71	H	-1.713030	-0.733089	-0.000010
H72	H	-1.789089	-0.666058	-0.089639
N73	N	-1.234560	-0.093533	-0.000029
H74	H	-1.157987	-0.126243	-0.000032
H75	H	-1.234196	-0.059294	0.089602
H76	H	-1.633453	-0.382429	-0.000056
H77	H	-1.339017	-0.387642	-0.000026
H78	H	-1.421957	0.157962	0.593826
