data_functionalizedCrystal
_audit_creation_method	'MofGen! by Chris Wilmer'
_symmetry_space_group_name_H-M	'P1'
_symmetry_Int_Tables_number	1
_symmetry_cell_setting	triclinic
loop_
_symmetry_equiv_pos_as_xyz
  x,y,z
_cell_length_a	10.654541
_cell_length_b	16.974885
_cell_length_c	15.455313
_cell_angle_alpha	83.689367
_cell_angle_beta	92.705766
_cell_angle_gamma	83.938682
loop_
_atom_site_label
_atom_site_type_symbol
_atom_site_fract_x
_atom_site_fract_y
_atom_site_fract_z
O1	O	-1.671045	-0.107978	-0.064528
O2	O	-1.305345	-0.118596	-0.063790
O3	O	-1.499007	0.002144	-0.072252
O4	O	-1.477383	-0.228717	-0.056066
O5	O	-1.487933	-0.004732	0.072492
O6	O	-1.294271	-0.125471	0.080954
O7	O	-1.659971	-0.114854	0.080216
Cu8	Cu	-1.476110	-0.120790	0.093801
Cu9	Cu	-1.489206	-0.112659	-0.077375
O10	O	-1.466309	-0.235593	0.088678
C11	C	-1.253026	-0.121254	0.008526
C12	C	-1.113631	-0.118923	0.008360
C13	C	-1.492853	0.028267	-0.001955
C14	C	-1.491000	0.116349	-0.008137
C15	C	-1.712290	-0.112195	0.007898
C16	C	-1.851685	-0.114526	0.008059
C17	C	-1.082648	-0.263299	0.018472
C18	C	-1.001671	-0.334389	0.023447
C19	C	-0.870699	-0.332193	0.023293
C20	C	-0.820703	-0.258901	0.018164
C21	C	-0.901680	-0.187811	0.013189
C22	C	-1.032653	-0.190014	0.013342
C23	C	-0.932662	-0.043437	0.003083
C24	C	-1.063635	-0.045630	0.003231
C25	C	-0.882666	0.029856	-0.002045
C26	C	-0.963644	0.100947	-0.007027
C27	C	-1.094623	0.098749	-0.006873
C28	C	-1.144612	0.025459	-0.001744
C29	C	-1.472463	-0.261716	0.018379
C30	C	-1.474317	-0.349798	0.024555
C31	C	-1.484090	0.153989	0.067855
C32	C	-1.482357	0.236753	0.062039
C33	C	-1.487525	0.281874	-0.019769
C34	C	-1.494440	0.244228	-0.095767
C35	C	-1.496181	0.161467	-0.089950
C36	C	-1.482973	0.529795	-0.045626
C37	C	-1.481227	0.612562	-0.051437
C38	C	-1.469146	0.605081	0.106370
C39	C	-1.470881	0.522318	0.112179
C40	C	-1.477802	0.484680	0.036182
N41	N	-1.485750	0.366471	-0.025716
N42	N	-1.479586	0.400085	0.042129
N43	N	-1.466907	-0.126509	0.214198
N44	N	-1.498418	-0.106934	-0.197772
C45	C	-1.549210	-0.075234	0.255998
C46	C	-1.542262	-0.079566	0.347110
C47	C	-1.453017	-0.135178	0.396419
C48	C	-1.370705	-0.186455	0.354613
C49	C	-1.377648	-0.182119	0.263502
C50	C	-1.423050	-0.153875	0.669311
C51	C	-1.416116	-0.158209	0.760427
C52	C	-1.587672	-0.051319	0.752918
C53	C	-1.594612	-0.046990	0.661807
C54	C	-1.512296	-0.098265	0.620008
N55	N	-1.445916	-0.139609	0.489550
N56	N	-1.519392	-0.093829	0.526878
H57	H	-1.042393	-0.394062	0.027625
C58	C	-1.678206	0.005087	0.798897
C59	C	-1.822146	0.003516	0.786501
C60	C	-1.912681	0.059928	0.832478
C61	C	-1.859277	0.117909	0.890851
C62	C	-1.715331	0.119482	0.903249
C63	C	-1.624795	0.063071	0.857272
H64	H	-1.861685	-0.039407	0.743287
H65	H	-2.019241	0.058763	0.823299
H66	H	-1.926297	0.159668	0.924886
H67	H	-1.675791	0.162405	0.946463
H68	H	-1.518236	0.064235	0.866451
H69	H	-1.667282	-0.001707	0.621660
H70	H	-1.621888	-0.029952	0.215856
H71	H	-1.466700	0.485588	0.178797
C72	C	-1.478403	0.104359	0.157847
C73	C	-1.364146	0.104249	0.222730
C74	C	-1.358463	0.054621	0.312724
C75	C	-1.467038	0.005105	0.337836
C76	C	-1.581304	0.005213	0.272952
C77	C	-1.586987	0.054840	0.182958
H78	H	-1.283764	0.140906	0.204142
H79	H	-1.273875	0.054541	0.360755
H80	H	-1.462831	-0.031633	0.404455
H81	H	-1.661685	-0.031444	0.291540
H82	H	-1.671574	0.054921	0.134926
H83	H	-1.310627	-0.223871	0.229470
C84	C	-1.490570	0.488395	-0.129219
C85	C	-1.384390	0.424114	-0.146329
C86	C	-1.391985	0.382707	-0.229925
C87	C	-1.505761	0.405581	-0.296409
C88	C	-1.611950	0.469865	-0.279300
C89	C	-1.604354	0.511272	-0.195705
H90	H	-1.300159	0.407179	-0.097112
H91	H	-1.313376	0.335120	-0.242589
H92	H	-1.511383	0.374930	-0.358292
H93	H	-1.696181	0.486800	-0.328518
H94	H	-1.682963	0.558859	-0.183041
H95	H	-1.485423	0.649296	-0.118059
C96	C	-1.503781	0.120058	-0.173542
C97	C	-1.617564	0.142932	-0.240021
C98	C	-1.625171	0.101525	-0.323615
C99	C	-1.518995	0.037243	-0.340731
C100	C	-1.405204	0.014366	-0.274250
C101	C	-1.397596	0.055773	-0.190656
H102	H	-1.696169	0.190520	-0.227352
H103	H	-1.709407	0.118460	-0.372828
H104	H	-1.524626	0.006591	-0.402612
H105	H	-1.326599	-0.033222	-0.286918
H106	H	-1.313360	0.038837	-0.141443
C107	C	-1.272532	-0.247630	0.408849
C108	C	-1.264948	-0.252445	0.509069
C109	C	-1.166775	-0.313624	0.563303
C110	C	-1.076187	-0.369988	0.517315
C111	C	-1.083768	-0.365175	0.417089
C112	C	-1.181941	-0.303996	0.362856
H113	H	-1.332010	-0.210720	0.543117
H114	H	-1.161164	-0.317187	0.637497
H115	H	-1.003513	-0.415276	0.557462
H116	H	-1.016706	-0.406901	0.383041
H117	H	-1.187552	-0.300434	0.288661
H118	H	-1.498656	0.280973	-0.162377
H119	H	-1.189293	-0.265093	0.018579
H120	H	-0.804766	-0.390081	0.027350
H121	H	-0.714056	-0.257120	0.018049
C122	C	-1.461544	0.646489	0.189961
C123	C	-1.349647	0.693950	0.208247
C124	C	-1.342048	0.735359	0.291841
C125	C	-1.446346	0.729307	0.357148
C126	C	-1.558251	0.681844	0.338863
C127	C	-1.565850	0.640435	0.255269
H128	H	-1.272433	0.698432	0.159902
H129	H	-1.259209	0.770494	0.305376
H130	H	-1.440721	0.759960	0.419028
H131	H	-1.635466	0.677362	0.387208
H132	H	-1.648690	0.605299	0.241734
H133	H	-0.776020	0.031638	-0.002166
H134	H	-1.609279	-0.037813	0.381143
C135	C	-0.908645	0.181561	-0.012667
C136	C	-0.817121	0.199345	0.061004
C137	C	-0.762117	0.279960	0.055363
C138	C	-0.798637	0.342790	-0.023949
C139	C	-0.890166	0.325007	-0.097625
C140	C	-0.945170	0.244393	-0.091984
H141	H	-0.790082	0.152833	0.119721
H142	H	-0.694361	0.293124	0.109904
H143	H	-0.757920	0.402466	-0.028124
H144	H	-0.917205	0.371520	-0.156342
H145	H	-1.012926	0.231229	-0.146525
H146	H	-1.476736	0.267396	0.123920
H147	H	-1.160549	0.156639	-0.010921
H148	H	-1.343437	-0.203498	0.800572
H149	H	-1.251255	0.023663	-0.001628
H150	H	-1.356027	-0.195626	0.635286
