data_functionalizedCrystal
_audit_creation_method	'MofGen! by Chris Wilmer'
_symmetry_space_group_name_H-M	'P1'
_symmetry_Int_Tables_number	1
_symmetry_cell_setting	triclinic
loop_
_symmetry_equiv_pos_as_xyz
  x,y,z
_cell_length_a	13.897449
_cell_length_b	12.594516
_cell_length_c	13.897441
_cell_angle_alpha	89.973623
_cell_angle_beta	89.976606
_cell_angle_gamma	90.016879
loop_
_atom_site_label
_atom_site_type_symbol
_atom_site_fract_x
_atom_site_fract_y
_atom_site_fract_z
Zn1	Zn	1.474714	-0.423685	-0.545478
Zn2	Zn	1.974714	0.076315	-0.045478
Zn3	Zn	1.474612	-0.601695	-0.384191
Zn4	Zn	1.974612	-0.101695	0.115809
Zn5	Zn	1.313403	-0.423734	-0.384189
Zn6	Zn	1.813403	0.076266	0.115811
Zn7	Zn	1.313389	-0.601624	-0.545436
Zn8	Zn	1.813389	-0.101624	-0.045436
O9	O	1.394029	-0.512685	-0.464824
O10	O	1.894029	-0.012685	0.035176
O11	O	1.609682	-0.447307	-0.524101
O12	O	2.109682	0.052693	-0.024101
O13	O	1.453191	-0.578139	-0.249209
O14	O	1.953191	-0.078139	0.250791
O15	O	1.334849	-0.274782	-0.405601
O16	O	1.834849	0.225218	0.094399
O17	O	1.609607	-0.578091	-0.405605
O18	O	2.109607	-0.078091	0.094395
O19	O	1.453364	-0.274745	-0.524099
O20	O	1.953364	0.225255	-0.024099
O21	O	1.334751	-0.447391	-0.249207
O22	O	1.834751	0.052609	0.250793
O23	O	1.178419	-0.447322	-0.405560
O24	O	1.678419	0.052678	0.094440
O25	O	1.334826	-0.577970	-0.680424
O26	O	1.834826	-0.077970	-0.180424
O27	O	1.178409	-0.578017	-0.524028
O28	O	1.678409	-0.078017	-0.024028
O29	O	1.453350	-0.447238	-0.680454
O30	O	1.953350	0.052762	-0.180454
O31	O	1.453178	-0.750632	-0.405564
O32	O	1.953178	-0.250632	0.094436
O33	O	1.334728	-0.750579	-0.524030
O34	O	1.834728	-0.250579	-0.024030
C35	C	1.143415	-0.512668	-0.464790
C36	C	1.643415	-0.012668	0.035210
C37	C	1.036201	-0.512687	-0.464798
C38	C	1.536201	-0.012687	0.035202
C39	C	0.949131	-0.512690	-0.464815
C40	C	1.449131	-0.012690	0.035185
C41	C	0.839899	-0.512698	-0.464844
C42	C	1.339899	-0.012698	0.035156
C43	C	1.393966	-0.789226	-0.464814
C44	C	1.893966	-0.289226	0.035186
C45	C	1.394027	-0.907531	-0.464842
C46	C	1.894027	-0.407531	0.035158
C47	C	1.329596	-0.976794	-0.529231
C48	C	1.829596	-0.476794	-0.029231
C49	C	1.306093	-1.047660	-0.441213
C50	C	1.806093	-0.547660	0.058787
C51	C	1.417619	-1.047464	-0.552875
C52	C	1.917619	-0.547464	-0.052875
C53	C	1.370478	-0.976839	-0.376778
C54	C	1.870478	-0.476839	0.123222
C55	C	1.482044	-0.976636	-0.488500
C56	C	1.982044	-0.476636	0.011500
C57	C	1.458574	-1.047470	-0.400421
C58	C	1.958574	-0.547470	0.099579
C59	C	1.645622	-0.512702	-0.464858
C60	C	2.145622	-0.012702	0.035142
C61	C	1.752836	-0.512709	-0.464873
C62	C	2.252836	-0.012709	0.035127
C63	C	1.394098	-0.512590	-0.716417
C64	C	1.894098	-0.012590	-0.216417
C65	C	1.394127	-0.512550	-0.823631
C66	C	1.894127	-0.012550	-0.323631
C67	C	1.394119	-0.235064	-0.464854
C68	C	1.894119	0.264936	0.035146
C69	C	1.394157	-0.116758	-0.464867
C70	C	1.894157	0.383242	0.035133
C71	C	1.394153	-0.512478	-1.019926
C72	C	1.894153	-0.012478	-0.519926
C73	C	1.394136	-0.512521	-0.910693
C74	C	1.894136	-0.012521	-0.410693
C75	C	1.394017	-0.512701	-0.214209
C76	C	1.894017	-0.012701	0.285791
C77	C	1.394174	-0.512442	-0.106996
C78	C	1.894174	-0.012442	0.393004
H79	H	1.275011	-0.945760	-0.583603
H80	H	1.775011	-0.445760	-0.083603
H81	H	1.231719	-1.078881	-0.421223
H82	H	1.731719	-0.578881	0.078777
C83	C	1.343471	-0.935105	-0.276187
C84	C	1.843471	-0.435105	0.223813
N85	N	1.323125	-0.903668	-0.200425
N86	N	1.823125	-0.403668	0.299575
C87	C	1.532256	-1.089139	-0.326791
C88	C	2.032256	-0.589139	0.173209
N89	N	1.587749	-1.120528	-0.271329
N90	N	2.087749	-0.620528	0.228671
C91	C	1.582489	-0.934440	-0.515570
C92	C	2.082489	-0.434440	-0.015570
N93	N	1.658142	-0.902650	-0.535973
N94	N	2.158142	-0.402650	-0.035973
C95	C	1.444506	-1.089375	-0.653438
C96	C	1.944506	-0.589375	-0.153438
N97	N	1.464750	-1.120937	-0.729184
N98	N	1.964750	-0.620937	-0.229184
