data_functionalizedCrystal
_audit_creation_method	'MofGen! by Chris Wilmer'
_symmetry_space_group_name_H-M	'P1'
_symmetry_Int_Tables_number	1
_symmetry_cell_setting	triclinic
loop_
_symmetry_equiv_pos_as_xyz
  x,y,z
_cell_length_a	14.908520
_cell_length_b	21.395362
_cell_length_c	21.395355
_cell_angle_alpha	90.048039
_cell_angle_beta	93.280325
_cell_angle_gamma	86.659696
loop_
_atom_site_label
_atom_site_type_symbol
_atom_site_fract_x
_atom_site_fract_y
_atom_site_fract_z
Zn1	Zn	-0.358835	-0.943516	-0.369030
Zn2	Zn	-0.509680	-0.937388	-0.270296
Zn3	Zn	-0.358883	-0.838729	-0.264226
Zn4	Zn	-0.509705	-0.832669	-0.374994
O5	O	-0.434276	-0.888075	-0.319637
O6	O	-0.378814	-1.030382	-0.355977
O7	O	-0.489686	-0.924273	-0.181813
O8	O	-0.232628	-0.857729	-0.273092
O9	O	-0.489640	-1.025880	-0.283438
O10	O	-0.232593	-0.934716	-0.350091
O11	O	-0.378897	-0.851788	-0.177354
O12	O	-0.378921	-0.750246	-0.278875
O13	O	-0.489682	-0.847401	-0.461881
O14	O	-0.489729	-0.745794	-0.360256
O15	O	-0.378838	-0.928840	-0.457499
O16	O	-0.635932	-0.918397	-0.289221
O17	O	-0.635950	-0.841460	-0.366142
C18	C	-0.434333	-0.725285	-0.319555
C19	C	-0.434380	-0.655642	-0.319535
C20	C	-0.668676	-0.878623	-0.329001
C21	C	-0.768954	-0.874636	-0.333028
C22	C	-0.492156	-0.620624	-0.361851
C23	C	-0.492138	-0.555190	-0.361874
C24	C	-0.434353	-0.524775	-0.319569
C25	C	-0.376565	-0.559802	-0.277250
C26	C	-0.376579	-0.625235	-0.277233
C27	C	-0.427091	-0.421341	-0.262866
C28	C	-0.427084	-0.355908	-0.262882
C29	C	-0.434306	-0.322956	-0.319622
C30	C	-0.441554	-0.355445	-0.376349
C31	C	-0.441568	-0.420878	-0.376332
C32	C	-0.434331	-0.453824	-0.319584
C33	C	-0.492066	-0.216986	-0.361966
C34	C	-0.492041	-0.151551	-0.361989
C35	C	-0.376473	-0.156164	-0.277361
C36	C	-0.376493	-0.221598	-0.277343
C37	C	-0.434294	-0.252006	-0.319645
C38	C	-0.957305	-0.947342	-0.260562
C39	C	-1.051525	-0.943599	-0.264344
C40	C	-1.051614	-0.863409	-0.344376
C41	C	-0.957394	-0.867153	-0.340595
C42	C	-0.910243	-0.909120	-0.298685
C43	C	-0.816022	-0.912860	-0.294901
C44	C	-0.816113	-0.832674	-0.374936
C45	C	-0.910333	-0.828931	-0.378718
C46	C	-0.198960	-0.897582	-0.310249
C47	C	-0.098683	-0.901633	-0.306249
C48	C	-0.434258	-0.888128	-0.483059
C49	C	-0.434250	-0.888151	-0.552700
C50	C	-0.434234	-0.051500	-0.319702
C51	C	-0.434254	-0.121141	-0.319685
C52	C	-0.376531	-0.930554	-0.583133
C53	C	-0.376492	-0.930555	-0.648567
C54	C	-0.434188	-0.888158	-0.683566
C55	C	-0.491911	-0.845747	-0.653126
C56	C	-0.491942	-0.845743	-0.587693
C57	C	-0.515424	-0.879935	-0.790484
C58	C	-0.515395	-0.879943	-0.855916
C59	C	-0.434093	-0.888166	-0.885383
C60	C	-0.352818	-0.896394	-0.849410
C61	C	-0.352849	-0.896390	-0.783977
C62	C	-0.434161	-0.888157	-0.754518
C63	C	-0.376327	-0.930572	-0.986766
C64	C	-0.376287	-0.930569	-1.052201
C65	C	-0.491714	-0.845763	-1.056760
C66	C	-0.491746	-0.845764	-0.991326
C67	C	-0.434054	-0.888172	-0.956333
C68	C	-0.434229	-0.888062	-0.156847
C69	C	-0.433983	-0.888171	-0.087196
H70	H	-0.539186	-0.526673	-0.396335
C71	C	-0.363918	-1.015344	-0.721721
C72	C	-0.313050	-0.977171	-0.682029
H73	H	-0.324750	-1.044121	-0.742380
H74	H	-0.403222	-1.037716	-0.697786
H75	H	-0.398268	-0.990083	-0.751924
H76	H	-0.278704	-1.002432	-0.651823
H77	H	-0.273730	-0.954798	-0.705966
H78	H	-0.538885	-0.811225	-0.681627
C79	C	-0.262333	-0.570932	-0.193602
C80	C	-0.313046	-0.526373	-0.230748
H81	H	-0.223112	-0.550294	-0.164897
H82	H	-0.301592	-0.594830	-0.171153
H83	H	-0.227889	-0.597885	-0.219565
H84	H	-0.347495	-0.499423	-0.204786
H85	H	-0.273781	-0.502465	-0.253199
H86	H	-0.948736	-0.794764	-0.412841
C87	C	-0.710122	-0.828125	-0.454955
C88	C	-0.764385	-0.790656	-0.416847
H89	H	-0.678194	-0.802182	-0.480829
H90	H	-0.668556	-0.853645	-0.429457
H91	H	-0.746823	-0.853951	-0.480431
H92	H	-0.727683	-0.764833	-0.391368
H93	H	-0.805956	-0.765125	-0.442348
H94	H	-0.286614	-0.903091	-0.873401
H95	H	-0.538942	-0.811210	-0.562916
H96	H	-1.090021	-0.829246	-0.378501
H97	H	-0.421206	-0.448165	-0.216658
H98	H	-0.329553	-0.965085	-0.554645
H99	H	-0.918914	-0.981509	-0.226434
H100	H	-0.286672	-0.903088	-0.754691
C101	C	-0.262222	-1.014392	-0.988830
C102	C	-0.312904	-0.977178	-0.948297
H103	H	-0.223063	-1.043161	-0.965080
H104	H	-0.301505	-1.036773	-1.015945
H105	H	-0.227713	-0.988480	-1.012947
H106	H	-0.347417	-1.003090	-0.924183
H107	H	-0.273615	-0.954796	-0.921171
C108	C	-0.455828	-0.361568	-0.488508
C109	C	-0.449472	-0.319235	-0.438725
H110	H	-0.460717	-0.339210	-0.527014
H111	H	-0.403550	-0.389223	-0.487274
H112	H	-0.507538	-0.384974	-0.485002
H113	H	-0.397758	-0.295832	-0.442228
H114	H	-0.501755	-0.291569	-0.439960
H115	H	-0.329420	-0.131401	-0.242918
H116	H	-0.581613	-0.873072	-0.766497
C117	C	-0.262269	-0.219583	-0.193691
C118	C	-0.312992	-0.260094	-0.230821
H119	H	-0.223067	-0.243350	-0.164968
H120	H	-0.227812	-0.195495	-0.219659
H121	H	-0.301530	-0.192436	-0.171258
H122	H	-0.273731	-0.287238	-0.253258
H123	H	-0.347451	-0.284193	-0.204850
C124	C	-0.324971	-0.968218	-1.150478
C125	C	-0.312827	-0.977175	-1.085656
H126	H	-0.285786	-0.996988	-1.171130
H127	H	-0.385570	-0.974943	-1.163639
H128	H	-0.311777	-0.926650	-1.160627
H129	H	-0.326027	-1.018742	-1.075506
H130	H	-0.252214	-0.970455	-1.072490
C131	C	-0.606387	-0.609487	-0.445504
C132	C	-0.555681	-0.654047	-0.408355
H133	H	-0.645599	-0.630124	-0.474216
H134	H	-0.640832	-0.582537	-0.419548
H135	H	-0.567116	-0.585586	-0.467950
H136	H	-0.594953	-0.677945	-0.385905
H137	H	-0.521234	-0.681008	-0.434314
H138	H	-0.539126	-0.241745	-0.396414
H139	H	-0.539088	-0.123040	-0.396452
H140	H	-1.089839	-0.974724	-0.233301
C141	C	-0.542935	-0.808125	-1.159085
C142	C	-0.555146	-0.799166	-1.095224
H143	H	-0.582103	-0.779359	-1.182832
H144	H	-0.482327	-0.801396	-1.167372
H145	H	-0.556111	-0.849695	-1.170361
H146	H	-0.541964	-0.757597	-1.083947
H147	H	-0.615768	-0.805890	-1.086934
C148	C	-0.605836	-0.761943	-1.002406
C149	C	-0.555200	-0.799157	-0.957871
H150	H	-0.645013	-0.733170	-0.981751
H151	H	-0.566525	-0.739568	-1.026332
H152	H	-0.640324	-0.787855	-1.029333
H153	H	-0.520707	-0.773245	-0.930947
H154	H	-0.594517	-0.821534	-0.933934
C155	C	-0.660654	-0.918882	-0.881900
C156	C	-0.604736	-0.870902	-0.895447
H157	H	-0.715814	-0.913297	-0.906300
H158	H	-0.631793	-0.958186	-0.891503
H159	H	-0.672289	-0.917694	-0.838711
H160	H	-0.593095	-0.872093	-0.938636
H161	H	-0.633602	-0.831588	-0.885849
H162	H	-0.421188	-0.329461	-0.216692
C163	C	-0.363886	-0.699243	-0.192443
C164	C	-0.313073	-0.663733	-0.230713
H165	H	-0.324679	-0.723014	-0.163726
H166	H	-0.403125	-0.672091	-0.170008
H167	H	-0.398304	-0.726716	-0.217641
H168	H	-0.278660	-0.636257	-0.205515
H169	H	-0.273818	-0.690888	-0.253150
C170	C	-0.825401	-0.991751	-0.216176
C171	C	-0.764191	-0.958990	-0.248837
H172	H	-0.793403	-1.020233	-0.187741
H173	H	-0.862211	-0.963004	-0.193650
H174	H	-0.862093	-1.014241	-0.244990
H175	H	-0.727504	-0.936496	-0.220024
H176	H	-0.727366	-0.987741	-0.271364
C177	C	-0.373317	-0.497318	-0.443810
C178	C	-0.449517	-0.456590	-0.438682
H179	H	-0.378225	-0.519367	-0.482302
H180	H	-0.321032	-0.473916	-0.442600
H181	H	-0.369028	-0.526301	-0.410011
H182	H	-0.453802	-0.427604	-0.472479
H183	H	-0.501817	-0.479994	-0.439898
