data_functionalizedCrystal
_audit_creation_method	'MofGen! by Chris Wilmer'
_symmetry_space_group_name_H-M	'P1'
_symmetry_Int_Tables_number	1
_symmetry_cell_setting	triclinic
loop_
_symmetry_equiv_pos_as_xyz
  x,y,z
_cell_length_a	14.044220
_cell_length_b	12.837942
_cell_length_c	11.295483
_cell_angle_alpha	94.530417
_cell_angle_beta	85.525227
_cell_angle_gamma	94.008909
loop_
_atom_site_label
_atom_site_type_symbol
_atom_site_fract_x
_atom_site_fract_y
_atom_site_fract_z
O1	O	1.286265	0.245585	-0.098895
O2	O	1.786265	0.745585	0.401105
O3	O	1.009476	0.236489	-0.098925
O4	O	1.509476	0.736489	0.401075
O5	O	1.141733	0.089567	-0.098903
O6	O	1.641733	0.589567	0.401097
O7	O	1.154009	0.392507	-0.098916
O8	O	1.654009	0.892507	0.401084
O9	O	1.130114	0.102450	0.099146
O10	O	1.630114	0.602450	0.599146
O11	O	0.997858	0.249372	0.099124
O12	O	1.497858	0.749372	0.599124
O13	O	1.274647	0.258468	0.099154
O14	O	1.774647	0.758468	0.599154
Cu15	Cu	1.135192	0.255096	0.117222
Cu16	Cu	1.635192	0.755096	0.617222
Cu17	Cu	1.148932	0.239861	-0.116993
Cu18	Cu	1.648932	0.739861	0.383007
O19	O	1.142390	0.405390	0.099132
O20	O	1.642390	0.905390	0.599132
C21	C	1.131777	0.057005	0.000120
C22	C	1.631777	0.557005	0.500120
C23	C	1.119410	-0.059216	0.000117
C24	C	1.619410	0.440784	0.500117
C25	C	0.967993	0.238949	0.000096
C26	C	1.467993	0.738949	0.500096
C27	C	0.861696	0.227074	0.000084
C28	C	1.361696	0.727074	0.500084
C29	C	1.268089	-0.286427	0.000108
C30	C	1.768089	0.213573	0.500108
C31	C	1.256474	-0.395627	0.000105
C32	C	1.756474	0.104373	0.500105
C33	C	1.084564	-0.386819	0.000099
C34	C	1.584564	0.113181	0.500099
C35	C	1.096180	-0.277619	0.000102
C36	C	1.596180	0.222381	0.500102
C37	C	1.187945	-0.227427	0.000108
C38	C	1.687945	0.272573	0.500108
C39	C	1.199560	-0.118224	0.000120
C40	C	1.699560	0.381776	0.500120
C41	C	1.027651	-0.109419	0.000105
C42	C	1.527651	0.390581	0.500105
C43	C	1.016036	-0.218619	0.000102
C44	C	1.516036	0.281381	0.500102
C45	C	0.667072	0.205367	0.000109
C46	C	1.167072	0.705367	0.500109
C47	C	0.617046	0.289584	0.000110
C48	C	1.117046	0.789584	0.500110
C49	C	0.508750	0.277506	0.000124
C50	C	1.008750	0.777506	0.500124
C51	C	0.775377	0.217444	0.000095
C52	C	1.275377	0.717444	0.500095
C53	C	1.316130	0.256008	0.000131
C54	C	1.816130	0.756008	0.500131
C55	C	1.422428	0.267882	0.000135
C56	C	1.922428	0.767882	0.500135
C57	C	1.152346	0.437952	0.000106
C58	C	1.652346	0.937952	0.500106
C59	C	1.164714	0.554173	0.000102
C60	C	1.664714	1.054173	0.500102
N61	N	1.125534	0.265812	0.281957
N62	N	1.625534	0.765812	0.781957
N63	N	1.158595	0.229138	-0.281728
N64	N	1.658595	0.729138	0.218272
C65	C	1.228107	0.151941	0.531264
C66	C	1.728107	0.651941	1.031264
C67	C	1.220817	0.160047	0.655926
C68	C	1.720817	0.660047	1.155926
C69	C	1.103658	0.290124	0.655947
C70	C	1.603658	0.790124	1.155947
C71	C	1.110949	0.282018	0.531284
C72	C	1.610949	0.782018	1.031284
C73	C	1.173176	0.212926	0.468947
C74	C	1.673176	0.712926	0.968947
C75	C	1.180471	0.204826	0.344282
C76	C	1.680471	0.704826	0.844282
C77	C	1.063309	0.334896	0.344305
C78	C	1.563309	0.834896	0.844305
C79	C	1.056018	0.343002	0.468968
C80	C	1.556018	0.843002	0.968968
H81	H	1.274279	-0.077359	0.000130
H82	H	1.774279	0.422641	0.500130
H83	H	1.278782	0.095691	0.480508
H84	H	1.778782	0.595691	0.980508
C85	C	1.344632	-0.460524	0.000111
C86	C	1.844632	0.039476	0.500111
H87	H	1.400943	-0.414987	0.000124
H88	H	1.900943	0.085013	0.500124
H89	H	1.347724	-0.507797	-0.068952
H90	H	1.847724	-0.007797	0.431048
H91	H	1.339623	-0.498813	0.069185
H92	H	1.839623	0.001187	0.569185
H93	H	0.628571	0.124202	0.000119
H94	H	1.128571	0.624202	0.500119
C95	C	0.983633	-0.442043	0.000090
C96	C	1.483633	0.057957	0.500090
H97	H	0.988198	-0.515528	0.000094
H98	H	1.488198	-0.015528	0.500094
H99	H	0.954265	-0.426826	-0.068971
H100	H	1.454265	0.073174	0.431029
H101	H	0.946173	-0.417855	0.069166
H102	H	1.446173	0.082145	0.569166
C103	C	0.915102	-0.273836	0.000102
C104	C	1.415102	0.226164	0.500102
H105	H	0.919660	-0.347322	0.000108
H106	H	1.419660	0.152678	0.500108
H107	H	0.885730	-0.258618	-0.068957
H108	H	1.385730	0.241382	0.431043
H109	H	0.877647	-0.249641	0.069179
H110	H	1.377647	0.250359	0.569179
H111	H	0.655549	0.370756	0.000101
H112	H	1.155549	0.870756	0.500101
C113	C	1.248914	0.128824	0.275713
C114	C	1.748914	0.628824	0.775713
H115	H	1.280576	0.093658	0.330685
H116	H	1.780576	0.593658	0.830685
H117	H	1.294948	0.166962	0.227072
H118	H	1.794948	0.666962	0.727072
H119	H	1.213432	0.078945	0.227092
H120	H	1.713432	0.578945	0.727092
H121	H	1.265546	0.110387	0.706661
H122	H	1.765546	0.610387	1.206661
H123	H	0.962391	-0.061368	0.000115
H124	H	1.462391	0.438632	0.500115
H125	H	1.052987	0.346370	0.706718
H126	H	1.552987	0.846370	1.206718
C127	C	0.987578	0.419001	0.537545
C128	C	1.487578	0.919001	1.037545
H129	H	0.991107	0.415101	0.620715
H130	H	1.491107	0.915101	1.120715
H131	H	0.923951	0.400394	0.517126
H132	H	1.423951	0.900394	1.017126
H133	H	1.005469	0.488409	0.517112
H134	H	1.505469	0.988409	1.017112
H135	H	1.342808	-0.245559	0.000125
H136	H	1.842808	0.254441	0.500125
C137	C	1.002894	0.401994	0.275755
C138	C	1.502894	0.901994	0.775755
H139	H	1.016147	0.387274	0.192582
H140	H	1.516147	0.887274	0.692582
H141	H	1.018392	0.474051	0.296195
H142	H	1.518392	0.974051	0.796195
H143	H	0.936871	0.386039	0.296186
H144	H	1.436871	0.886039	0.796186
