data_functionalizedCrystal
_audit_creation_method	'MofGen! by Chris Wilmer'
_symmetry_space_group_name_H-M	'P1'
_symmetry_Int_Tables_number	1
_symmetry_cell_setting	triclinic
loop_
_symmetry_equiv_pos_as_xyz
  x,y,z
_cell_length_a	12.827893
_cell_length_b	16.625546
_cell_length_c	12.827885
_cell_angle_alpha	89.964876
_cell_angle_beta	89.980728
_cell_angle_gamma	90.022439
loop_
_atom_site_label
_atom_site_type_symbol
_atom_site_fract_x
_atom_site_fract_y
_atom_site_fract_z
Zn1	Zn	1.597618	-0.320963	-0.590810
Zn2	Zn	2.097618	0.179037	-0.090810
Zn3	Zn	1.597491	-0.455817	-0.416054
Zn4	Zn	2.097491	0.044183	0.083946
Zn5	Zn	1.422860	-0.321002	-0.416084
Zn6	Zn	1.922860	0.178998	0.083916
Zn7	Zn	1.422823	-0.455757	-0.590754
Zn8	Zn	1.922823	0.044243	-0.090754
O9	O	1.510198	-0.388385	-0.503425
O10	O	2.010198	0.111615	-0.003425
O11	O	1.743837	-0.338861	-0.567639
O12	O	2.243837	0.161139	-0.067639
O13	O	1.574287	-0.437976	-0.269822
O14	O	2.074287	0.062024	0.230178
O15	O	1.446110	-0.208165	-0.439297
O16	O	1.946110	0.291835	0.060703
O17	O	1.743744	-0.437937	-0.439247
O18	O	2.243744	0.062063	0.060753
O19	O	1.574505	-0.208136	-0.567668
O20	O	2.074505	0.291864	-0.067668
O21	O	1.445987	-0.338928	-0.269843
O22	O	1.945987	0.161072	0.230157
O23	O	1.276619	-0.338869	-0.439243
O24	O	1.776619	0.161131	0.060757
O25	O	1.446048	-0.437835	-0.736997
O26	O	1.946048	0.062165	-0.236997
O27	O	1.276592	-0.437873	-0.567572
O28	O	1.776592	0.062127	-0.067572
O29	O	1.574469	-0.338802	-0.737039
O30	O	2.074469	0.161198	-0.237039
O31	O	1.574252	-0.568642	-0.439192
O32	O	2.074252	-0.068642	0.060808
O33	O	1.445925	-0.568598	-0.567544
O34	O	1.945925	-0.068598	-0.067544
C35	C	1.238688	-0.388370	-0.503405
C36	C	1.738688	0.111630	-0.003405
C37	C	1.122535	-0.388382	-0.503422
C38	C	1.622535	0.111618	-0.003422
C39	C	1.070765	-0.437449	-0.566825
C40	C	1.570765	0.062551	-0.066825
C41	C	0.950714	-0.437464	-0.566844
C42	C	1.450714	0.062536	-0.066844
C43	C	1.510099	-0.597876	-0.503382
C44	C	2.010099	-0.097876	-0.003382
C45	C	1.510152	-0.687497	-0.503398
C46	C	2.010152	-0.187497	-0.003398
C47	C	1.510335	-1.015673	-0.503507
C48	C	2.010335	-0.515673	-0.003507
C49	C	1.510281	-0.924364	-0.503479
C50	C	2.010281	-0.424364	-0.003479
C51	C	1.510243	-0.851588	-0.503452
C52	C	2.010243	-0.351588	-0.003452
C53	C	1.510190	-0.760274	-0.503425
C54	C	2.010190	-0.260274	-0.003425
C55	C	1.782768	-0.388401	-0.503446
C56	C	2.282768	0.111599	-0.003446
C57	C	1.898921	-0.388408	-0.503455
C58	C	2.398921	0.111592	-0.003455
C59	C	1.510269	-0.388308	-0.775996
C60	C	2.010269	0.111692	-0.275996
C61	C	1.510299	-0.388275	-0.892149
C62	C	2.010299	0.111725	-0.392149
C63	C	1.510326	-0.178076	-0.503492
C64	C	2.010326	0.321924	-0.003492
C65	C	1.510380	-0.088455	-0.503521
C66	C	2.010380	0.411545	-0.003521
C67	C	1.573853	-0.339261	-0.943954
C68	C	2.073853	0.160739	-0.443954
C69	C	1.573886	-0.339225	-1.064004
C70	C	2.073886	0.160775	-0.564004
C71	C	1.510187	-0.388404	-0.231915
C72	C	2.010187	0.111596	0.268085
C73	C	1.510359	-0.388210	-0.115763
C74	C	2.010359	0.111790	0.384237
H75	H	1.077981	-0.346382	-0.449157
H76	H	1.577981	0.153618	0.050843
N77	N	1.442092	-0.440845	-1.059874
N78	N	1.942092	0.059155	-0.559874
N79	N	1.375560	-0.412444	-0.998952
N80	N	1.875560	0.087556	-0.498952
H81	H	1.327344	-0.449616	-0.959472
H82	H	1.827344	0.050384	-0.459472
H83	H	1.628236	-0.297321	-0.899429
H84	H	2.128236	0.202679	-0.399429
N85	N	1.642149	-0.286591	-1.119900
N86	N	2.142149	0.213409	-0.619900
N87	N	1.642083	-0.286639	-1.217342
N88	N	2.142083	0.213361	-0.717342
H89	H	1.690296	-0.249466	-1.256822
H90	H	2.190296	0.250534	-0.756822
N91	N	1.442076	-0.440896	-0.947990
N92	N	1.942076	0.059104	-0.447990
N93	N	1.448945	-0.515310	-0.935863
N94	N	1.948945	-0.015310	-0.435863
H95	H	1.400758	-0.552475	-0.975298
H96	H	1.900758	-0.052475	-0.475298
N97	N	1.126663	-0.490125	-0.634913
N98	N	1.626663	0.009875	-0.134913
N99	N	1.224105	-0.490035	-0.634806
N100	N	1.724105	0.009965	-0.134806
H101	H	1.263583	-0.527237	-0.682896
H102	H	1.763583	-0.027237	-0.182896
N103	N	0.894856	-0.490168	-0.634927
N104	N	1.394856	0.009832	-0.134927
N105	N	0.797414	-0.490109	-0.634841
N106	N	1.297414	0.009891	-0.134841
H107	H	0.757960	-0.527334	-0.682926
H108	H	1.257960	-0.027334	-0.182926
H109	H	0.943436	-0.346401	-0.449166
H110	H	1.443436	0.153599	0.050834
