data_functionalizedCrystal
_audit_creation_method	'MofGen! by Chris Wilmer'
_symmetry_space_group_name_H-M	'P1'
_symmetry_Int_Tables_number	1
_symmetry_cell_setting	triclinic
loop_
_symmetry_equiv_pos_as_xyz
  x,y,z
_cell_length_a	14.971487
_cell_length_b	15.944545
_cell_length_c	13.448316
_cell_angle_alpha	90.005758
_cell_angle_beta	90.001095
_cell_angle_gamma	96.444712
loop_
_atom_site_label
_atom_site_type_symbol
_atom_site_fract_x
_atom_site_fract_y
_atom_site_fract_z
O1	O	-1.186824	0.109463	0.082554
O2	O	-0.686824	0.609463	0.582554
O3	O	-0.926410	0.122571	0.082588
O4	O	-0.426410	0.622571	0.582588
O5	O	-1.063731	-0.006251	0.082558
O6	O	-0.563731	0.493749	0.582558
O7	O	-1.049503	0.238285	0.082584
O8	O	-0.549503	0.738285	0.582584
O9	O	-1.063718	-0.006253	-0.082825
O10	O	-0.563718	0.493747	0.417175
O11	O	-0.926396	0.122570	-0.082796
O12	O	-0.426396	0.622570	0.417204
O13	O	-1.186811	0.109462	-0.082830
O14	O	-0.686811	0.609462	0.417170
Cu15	Cu	-1.056602	0.116016	-0.097914
Cu16	Cu	-0.556602	0.616016	0.402086
Cu17	Cu	-1.056618	0.116017	0.097672
Cu18	Cu	-0.556618	0.616017	0.597672
O19	O	-1.049489	0.238284	-0.082800
O20	O	-0.549489	0.738284	0.417200
C21	C	-0.893079	0.121984	-0.000100
C22	C	-0.393079	0.621984	0.499900
C23	C	-0.793784	0.120227	-0.000087
C24	C	-0.293784	0.620227	0.499913
C25	C	-1.063135	-0.037547	-0.000134
C26	C	-0.563135	0.462453	0.499866
C27	C	-1.061367	-0.130795	-0.000137
C28	C	-0.561367	0.369205	0.499863
C29	C	-0.736475	0.195907	-0.000079
C30	C	-0.236475	0.695907	0.499921
C31	C	-0.643178	0.194251	-0.000092
C32	C	-0.143178	0.694251	0.499908
C33	C	-0.607191	0.116914	-0.000106
C34	C	-0.107191	0.616914	0.499894
C35	C	-0.664507	0.041229	-0.000116
C36	C	-0.164507	0.541229	0.499884
C37	C	-0.757802	0.042886	-0.000111
C38	C	-0.257802	0.542886	0.499889
C39	C	-0.470048	0.037781	-0.000126
C40	C	0.029952	0.537781	0.499874
C41	C	-0.376746	0.036124	-0.000130
C42	C	0.123254	0.536124	0.499870
C43	C	-0.355423	0.189146	-0.000107
C44	C	0.144577	0.689146	0.499893
C45	C	-0.448719	0.190803	-0.000102
C46	C	0.051281	0.690803	0.499898
C47	C	-0.506029	0.115117	-0.000111
C48	C	-0.006029	0.615117	0.499889
C49	C	-0.970966	-0.401514	-0.000105
C50	C	-0.470966	0.098486	0.499895
C51	C	-1.014557	-0.350886	0.081433
C52	C	-0.514557	0.149114	0.581433
C53	C	-1.055062	-0.466444	-0.000108
C54	C	-0.555062	0.033556	0.499892
C55	C	-1.014566	-0.350914	-0.081623
C56	C	-0.514566	0.149086	0.418377
C57	C	-1.058155	-0.301528	-0.000124
C58	C	-0.558155	0.198472	0.499876
C59	C	-1.098631	-0.417045	0.081497
C60	C	-0.598631	0.082955	0.581497
C61	C	-1.098627	-0.417077	-0.081632
C62	C	-0.598627	0.082923	0.418368
C63	C	-1.142280	-0.366482	-0.000074
C64	C	-0.642280	0.133518	0.499926
C65	C	-1.053278	-0.561448	-0.000098
C66	C	-0.553278	-0.061448	0.499902
C67	C	-1.059946	-0.206527	-0.000127
C68	C	-0.559946	0.293473	0.499873
C69	C	-0.220142	0.110048	-0.000134
C70	C	0.279858	0.610048	0.499866
C71	C	-0.319437	0.111804	-0.000122
C72	C	0.180563	0.611804	0.499878
C73	C	-1.050086	0.269579	-0.000105
C74	C	-0.550086	0.769579	0.499895
C75	C	-1.051854	0.362827	-0.000096
C76	C	-0.551854	0.862827	0.499904
N77	N	-1.056597	0.116014	-0.235478
N78	N	-0.556597	0.616014	0.264522
C79	C	-1.110843	0.167045	-0.287516
C80	C	-0.610843	0.667045	0.212484
C81	C	-1.110855	0.167041	-0.391619
C82	C	-0.610855	0.667041	0.108381
C83	C	-1.056614	0.116011	-0.443682
C84	C	-0.556614	0.616011	0.056318
C85	C	-1.002366	0.064974	-0.391637
C86	C	-0.502366	0.564974	0.108363
C87	C	-1.002360	0.064974	-0.287536
C88	C	-0.502360	0.564974	0.212464
C89	C	-1.002380	0.064980	-0.608617
C90	C	-0.502380	0.564980	-0.108617
C91	C	-1.002384	0.064981	-0.712726
C92	C	-0.502384	0.564981	-0.212726
C93	C	-1.110874	0.167047	-0.712700
C94	C	-0.610874	0.667047	-0.212700
C95	C	-1.110869	0.167047	-0.608599
C96	C	-0.610869	0.667047	-0.108599
C97	C	-1.056619	0.116011	-0.556561
C98	C	-0.556619	0.616011	-0.056561
N99	N	-1.056630	0.116012	0.235236
N100	N	-0.556630	0.616012	0.735236
H101	H	-0.765768	0.258883	-0.000068
H102	H	-0.265768	0.758883	0.499932
C103	C	-1.240198	-0.345459	-0.000028
C104	C	-0.740198	0.154541	0.499972
N105	N	-1.313949	-0.329625	0.000011
N106	N	-0.813949	0.170375	0.500011
C107	C	-0.966560	-0.311902	-0.174750
C108	C	-0.466560	0.188098	0.325250
N109	N	-0.930397	-0.282522	-0.244889
N110	N	-0.430397	0.217478	0.255111
C111	C	-1.146554	-0.456149	-0.174776
C112	C	-0.646554	0.043851	0.325224
N113	N	-1.182644	-0.485580	-0.244941
N114	N	-0.682644	0.014420	0.255059
C115	C	-0.292381	0.272402	-0.000103
C116	C	0.207619	0.772402	0.499897
N117	N	-0.244893	0.335107	-0.000097
N118	N	0.255107	0.835107	0.499903
C119	C	-1.170494	0.223213	-0.448856
C120	C	-0.670494	0.723213	0.051144
N121	N	-1.215405	0.265535	-0.491966
N122	N	-0.715405	0.765535	0.008034
H123	H	-1.155007	0.208605	-0.245133
H124	H	-0.655007	0.708605	0.254867
C125	C	-1.170554	0.223183	-0.769944
C126	C	-0.670554	0.723183	-0.269944
N127	N	-1.215501	0.265465	-0.813064
N128	N	-0.715501	0.765465	-0.313064
C129	C	-1.146578	-0.455911	0.174731
C130	C	-0.646578	0.044089	0.674731
N131	N	-1.182687	-0.485186	0.244956
N132	N	-0.682687	0.014814	0.744956
C133	C	-0.488302	0.275877	-0.000091
C134	C	0.011698	0.775877	0.499909
N135	N	-0.518116	0.339956	-0.000089
N136	N	-0.018116	0.839956	0.499911
C137	C	-0.337162	-0.048950	-0.000146
C138	C	0.162838	0.451050	0.499854
N139	N	-0.307348	-0.113029	-0.000159
N140	N	0.192652	0.386971	0.499841
C141	C	-0.942730	0.008833	-0.769994
C142	C	-0.442730	0.508833	-0.269994
N143	N	-0.897801	-0.033462	-0.813128
N144	N	-0.397801	0.466538	-0.313128
C145	C	-0.942683	0.008838	-0.230295
C146	C	-0.442683	0.508838	0.269705
N147	N	-0.897734	-0.033447	-0.187182
N148	N	-0.397734	0.466553	0.312818
C149	C	-0.624918	-0.043842	-0.000133
C150	C	-0.124918	0.456158	0.499867
N151	N	-0.595100	-0.107920	-0.000142
N152	N	-0.095100	0.392080	0.499858
C153	C	-0.820842	-0.040368	-0.000116
C154	C	-0.320842	0.459632	0.499884
N155	N	-0.868323	-0.103077	-0.000123
N156	N	-0.368323	0.396923	0.499877
C157	C	-0.873127	-0.422760	0.000016
C158	C	-0.373127	0.077240	0.500016
N159	N	-0.799436	-0.438764	0.000112
N160	N	-0.299436	0.061236	0.500112
H161	H	-0.979047	-0.321985	0.150376
H162	H	-0.479047	0.178015	0.650376
C163	C	-0.942700	0.008840	-0.551378
C164	C	-0.442700	0.508840	-0.051378
N165	N	-0.897746	-0.033440	-0.508265
N166	N	-0.397746	0.466560	-0.008265
H167	H	-0.516708	-0.023851	-0.000135
H168	H	-0.016708	0.476149	0.499865
H169	H	-0.596520	0.255877	-0.000085
H170	H	-0.096520	0.755877	0.499915
H171	H	-1.155032	0.208605	-0.566212
H172	H	-0.655032	0.708605	-0.066212
H173	H	-0.958207	0.023420	-0.434036
H174	H	-0.458207	0.523420	0.065964
