data_functionalizedCrystal
_audit_creation_method	'MofGen! by Chris Wilmer'
_symmetry_space_group_name_H-M	'P1'
_symmetry_Int_Tables_number	1
_symmetry_cell_setting	triclinic
loop_
_symmetry_equiv_pos_as_xyz
  x,y,z
_cell_length_a	17.077404
_cell_length_b	15.299816
_cell_length_c	17.077396
_cell_angle_alpha	99.656369
_cell_angle_beta	89.980499
_cell_angle_gamma	80.351064
loop_
_atom_site_label
_atom_site_type_symbol
_atom_site_fract_x
_atom_site_fract_y
_atom_site_fract_z
Zn1	Zn	1.254116	-0.359055	-0.497975
Zn2	Zn	1.754116	0.140945	0.002025
Zn3	Zn	1.276733	-0.509886	-0.389448
Zn4	Zn	1.776733	-0.009886	0.110552
Zn5	Zn	1.122853	-0.359087	-0.366728
Zn6	Zn	1.622853	0.140913	0.133272
Zn7	Zn	1.145518	-0.509832	-0.520664
Zn8	Zn	1.645518	-0.009832	-0.020664
O9	O	1.199805	-0.434465	-0.443704
O10	O	1.699805	0.065535	0.056296
O11	O	1.366965	-0.379073	-0.483592
O12	O	1.866965	0.120927	0.016408
O13	O	1.256301	-0.489918	-0.276593
O14	O	1.756301	0.010082	0.223407
O15	O	1.121315	-0.232873	-0.365134
O16	O	1.621315	0.267127	0.134866
O17	O	1.383582	-0.489887	-0.403858
O18	O	1.883582	0.010113	0.096142
O19	O	1.217753	-0.232849	-0.461560
O20	O	1.717753	0.267151	0.038440
O21	O	1.143245	-0.379126	-0.259900
O22	O	1.643245	0.120874	0.240100
O23	O	1.016011	-0.379075	-0.387134
O24	O	1.516011	0.120925	0.112866
O25	O	1.159944	-0.489796	-0.627496
O26	O	1.659944	0.010204	-0.127496
O27	O	1.032663	-0.489826	-0.500231
O28	O	1.532663	0.010174	-0.000231
O29	O	1.239731	-0.379021	-0.610826
O30	O	1.739731	0.120979	-0.110826
O31	O	1.278278	-0.636089	-0.425859
O32	O	1.778278	-0.136089	0.074141
O33	O	1.181875	-0.636049	-0.522262
O34	O	1.681875	-0.136049	-0.022262
C35	C	0.995855	-0.434449	-0.443680
C36	C	1.495855	0.065551	0.056320
C37	C	0.908607	-0.434463	-0.443691
C38	C	1.408607	0.065537	0.056309
C39	C	0.876321	-0.492219	-0.502513
C40	C	1.376321	0.007781	-0.002513
C41	C	0.794341	-0.492221	-0.502526
C42	C	1.294341	0.007779	-0.002526
C43	C	0.744649	-0.434471	-0.443713
C44	C	1.244649	0.065529	0.056287
C45	C	0.776940	-0.376709	-0.384888
C46	C	1.276940	0.123291	0.115112
C47	C	0.858918	-0.376704	-0.384879
C48	C	1.358918	0.123296	0.115121
C49	C	0.606072	-0.376727	-0.384909
C50	C	1.106072	0.123273	0.115091
C51	C	0.524089	-0.376734	-0.384917
C52	C	1.024089	0.123266	0.115083
C53	C	0.541496	-0.492244	-0.502556
C54	C	1.041496	0.007756	-0.002556
C55	C	0.623474	-0.492239	-0.502547
C56	C	1.123474	0.007761	-0.002547
C57	C	0.655759	-0.434478	-0.443721
C58	C	1.155759	0.065522	0.056279
C59	C	1.235012	-0.668794	-0.479005
C60	C	1.735012	-0.168794	0.020995
C61	C	1.250145	-0.769041	-0.494133
C62	C	1.750145	-0.269041	0.005867
C63	C	1.092160	-1.051967	-0.335846
C64	C	1.592160	-0.551967	0.164154
C65	C	1.077938	-0.957780	-0.321634
C66	C	1.577938	-0.457780	0.178366
C67	C	1.120989	-0.910591	-0.364757
C68	C	1.620989	-0.410591	0.135243
C69	C	1.178264	-0.957598	-0.422096
C70	C	1.678264	-0.457598	0.077904
C71	C	1.192483	-1.051794	-0.436313
C72	C	1.692483	-0.551794	0.063687
C73	C	1.221311	-0.910417	-0.465225
C74	C	1.721311	-0.410417	0.034775
C75	C	1.278587	-0.957424	-0.522563
C76	C	1.778587	-0.457424	-0.022563
C77	C	1.292804	-1.051611	-0.536778
C78	C	1.792804	-0.551611	-0.036778
C79	C	1.249753	-1.098801	-0.493654
C80	C	1.749753	-0.598801	0.006346
C81	C	1.207092	-0.816221	-0.451007
C82	C	1.707092	-0.316221	0.048993
C83	C	1.307415	-0.816048	-0.551474
C84	C	1.807415	-0.316048	-0.051474
C85	C	1.321637	-0.910235	-0.565686
C86	C	1.821637	-0.410235	-0.065686
C87	C	1.404552	-0.434482	-0.443729
C88	C	1.904552	0.065518	0.056271
C89	C	1.491803	-0.434489	-0.443739
C90	C	1.991803	0.065511	0.056261
C91	C	1.199843	-0.434399	-0.648438
C92	C	1.699843	0.065601	-0.148438
C93	C	1.199859	-0.434370	-0.735684
C94	C	1.699859	0.065630	-0.235684
C95	C	1.164483	-0.199221	-0.408282
C96	C	1.664483	0.300779	0.091718
C97	C	1.149430	-0.098974	-0.393187
C98	C	1.649430	0.401026	0.106813
C99	C	1.241405	-0.376685	-0.767995
C100	C	1.741405	0.123315	-0.267995
C101	C	1.241410	-0.376655	-0.849971
C102	C	1.741410	0.123345	-0.349971
C103	C	1.199873	-0.434315	-0.899635
C104	C	1.699873	0.065685	-0.399635
C105	C	1.158322	-0.492003	-0.867319
C106	C	1.658322	0.007997	-0.367319
C107	C	1.158312	-0.492028	-0.785343
C108	C	1.658312	0.007972	-0.285343
C109	C	1.158345	-0.491949	-1.038181
C110	C	1.658345	0.008051	-0.538181
C111	C	1.158355	-0.491926	-1.120162
C112	C	1.658355	0.008074	-0.620162
C113	C	1.241442	-0.376576	-1.102808
C114	C	1.741442	0.123424	-0.602808
C115	C	1.241433	-0.376601	-1.020832
C116	C	1.741433	0.123399	-0.520832
C117	C	1.199883	-0.434290	-0.988522
C118	C	1.699883	0.065710	-0.488522
C119	C	1.199803	-0.434466	-0.239756
C120	C	1.699803	0.065534	0.260244
C121	C	1.199901	-0.434240	-0.152473
C122	C	1.699901	0.065760	0.347527
H123	H	0.483629	-0.329698	-0.337034
H124	H	0.983629	0.170302	0.162966
C125	C	0.641584	-0.313189	-0.320196
C126	C	1.141584	0.186811	0.179804
N127	N	0.668332	-0.265337	-0.271451
N128	N	1.168332	0.234663	0.228549
H129	H	1.124530	-0.538876	-1.160597
H130	H	1.624530	-0.038876	-0.660597
C131	C	1.384635	-0.961954	-0.628761
C132	C	1.884635	-0.461954	-0.128761
N133	N	1.432084	-1.000910	-0.676269
N134	N	1.932084	-0.500910	-0.176269
C135	C	1.265395	-1.202413	-0.509285
C136	C	1.765395	-0.702413	-0.009285
N137	N	1.277174	-1.280455	-0.521056
N138	N	1.777174	-0.780455	-0.021056
C139	C	0.894431	-0.313170	-0.320169
C140	C	1.394431	0.186830	0.179831
N141	N	0.921179	-0.265313	-0.271428
N142	N	1.421179	0.234687	0.228572
H143	H	1.160458	-0.777957	-0.404322
H144	H	1.660458	-0.277957	0.095678
H145	H	1.109406	-0.833900	-0.353182
H146	H	1.609406	-0.333900	0.146818
H147	H	1.124496	-0.538912	-1.011875
H148	H	1.624496	-0.038912	-0.511875
C149	C	1.014921	-0.906080	-0.258580
C150	C	1.514921	-0.406080	0.241420
N151	N	0.967447	-0.867139	-0.211090
N152	N	1.467447	-0.367139	0.288910
C153	C	1.355809	-1.103316	-0.599851
C154	C	1.855809	-0.603316	-0.099851
N155	N	1.403268	-1.142258	-0.647355
N156	N	1.903268	-0.642258	-0.147355
C157	C	1.287147	-0.313116	-1.138350
C158	C	1.787147	0.186884	-0.638350
N159	N	1.321574	-0.265323	-1.165125
N160	N	1.821574	0.234677	-0.665125
H161	H	0.736473	-0.329685	-0.337004
H162	H	1.236473	0.170315	0.162996
C163	C	1.112621	-0.555422	-0.921951
C164	C	1.612621	-0.055422	-0.421951
N165	N	1.078199	-0.603190	-0.963100
N166	N	1.578199	-0.103190	-0.463100
H167	H	1.057111	-1.090398	-0.300745
H168	H	1.557111	-0.590398	0.199255
H169	H	1.342469	-0.777627	-0.586591
H170	H	1.842469	-0.277627	-0.086591
C171	C	0.930976	-0.555750	-0.567213
C172	C	1.430976	-0.055750	-0.067213
N173	N	0.972140	-0.603600	-0.615949
N174	N	1.472140	-0.103600	-0.115949
H175	H	1.275232	-0.329734	-0.727563
H176	H	1.775232	0.170266	-0.227563
H177	H	1.275243	-0.329684	-0.876274
H178	H	1.775243	0.170316	-0.376274
H179	H	1.275261	-0.329654	-0.980398
H180	H	1.775261	0.170346	-0.480398
C181	C	1.112610	-0.555488	-0.749803
C182	C	1.612610	-0.055488	-0.249803
N183	N	1.078184	-0.603287	-0.723035
N184	N	1.578184	-0.103287	-0.223035
H185	H	0.768059	-0.539252	-0.550424
H186	H	1.268059	-0.039252	-0.050424
H187	H	0.515205	-0.539273	-0.550457
H188	H	1.015205	-0.039273	-0.050457
C189	C	0.678135	-0.555771	-0.567241
C190	C	1.178135	-0.055771	-0.067241
N191	N	0.719306	-0.603623	-0.615970
N192	N	1.219306	-0.103623	-0.115970
