data_functionalizedCrystal
_audit_creation_method	'MofGen! by Chris Wilmer'
_symmetry_space_group_name_H-M	'P1'
_symmetry_Int_Tables_number	1
_symmetry_cell_setting	triclinic
loop_
_symmetry_equiv_pos_as_xyz
  x,y,z
_cell_length_a	12.759401
_cell_length_b	12.594516
_cell_length_c	12.759393
_cell_angle_alpha	89.971926
_cell_angle_beta	89.981287
_cell_angle_gamma	90.017577
loop_
_atom_site_label
_atom_site_type_symbol
_atom_site_fract_x
_atom_site_fract_y
_atom_site_fract_z
Zn1	Zn	1.606233	-0.423647	-0.594038
Zn2	Zn	1.606127	-0.601663	-0.418366
Zn3	Zn	1.430539	-0.423704	-0.418373
Zn4	Zn	1.430520	-0.601589	-0.594003
O5	O	1.518355	-0.512651	-0.506195
O6	O	1.753240	-0.447269	-0.570746
O7	O	1.582799	-0.578111	-0.271345
O8	O	1.453898	-0.274750	-0.441693
O9	O	1.753162	-0.578056	-0.441680
O10	O	1.582980	-0.274709	-0.570754
O11	O	1.453795	-0.447365	-0.271351
O12	O	1.283515	-0.447293	-0.441659
O13	O	1.453865	-0.577929	-0.741029
O14	O	1.283501	-0.577984	-0.570694
O15	O	1.582961	-0.447196	-0.741054
O16	O	1.582780	-0.750599	-0.441646
O17	O	1.453762	-0.750544	-0.570686
C18	C	1.245388	-0.512638	-0.506174
C19	C	1.128611	-0.512658	-0.506190
C20	C	1.518286	-0.789192	-0.506185
C21	C	1.518353	-0.907497	-0.506215
C22	C	1.073769	-0.580812	-0.573272
C23	C	0.964045	-0.580816	-0.573293
C24	C	0.964014	-0.444508	-0.439140
C25	C	1.073736	-0.444500	-0.439125
C26	C	0.814143	-0.619008	-0.697155
C27	C	0.759298	-0.687179	-0.764229
C28	C	0.794893	-0.791053	-0.780181
C29	C	0.885331	-0.826776	-0.729045
C30	C	0.940171	-0.758610	-0.661964
C31	C	0.904578	-0.654722	-0.646031
C32	C	1.223640	-0.406319	-0.315262
C33	C	1.278482	-0.338158	-0.248175
C34	C	1.242889	-0.234283	-0.232212
C35	C	1.152447	-0.198563	-0.283330
C36	C	1.097605	-0.266724	-0.350417
C37	C	1.133206	-0.370598	-0.366381
C38	C	1.448173	-0.976759	-0.576351
C39	C	1.422576	-1.047628	-0.480484
C40	C	1.544046	-1.047427	-0.602099
C41	C	1.492705	-0.976808	-0.410297
C42	C	1.614219	-0.976600	-0.531977
C43	C	1.588658	-1.047438	-0.436044
C44	C	1.792388	-0.512664	-0.506216
C45	C	1.909165	-0.512670	-0.506226
C46	C	1.518423	-0.512548	-0.780228
C47	C	1.518452	-0.512505	-0.897005
C48	C	1.518453	-0.235030	-0.506228
C49	C	1.518494	-0.116724	-0.506242
C50	C	1.451254	-0.580546	-0.951855
C51	C	1.451292	-0.580506	-1.061579
C52	C	1.585727	-0.444376	-1.061593
C53	C	1.585694	-0.444421	-0.951871
C54	C	1.413752	-0.705969	-1.211519
C55	C	1.346538	-0.774000	-1.266373
C56	C	1.244007	-0.790349	-1.230758
C57	C	1.208669	-0.738651	-1.140291
C58	C	1.275878	-0.670612	-1.085443
C59	C	1.378423	-0.654283	-1.121056
C60	C	1.623223	-0.318957	-0.801930
C61	C	1.690427	-0.250912	-0.747080
C62	C	1.792960	-0.234552	-0.782692
C63	C	1.828294	-0.286231	-0.873163
C64	C	1.761090	-0.354276	-0.928013
C65	C	1.658558	-0.370638	-0.892393
C66	C	1.518348	-0.512676	-0.233227
C67	C	1.518522	-0.512419	-0.116451
H68	H	1.118445	-0.636308	-0.627883
H69	H	1.352124	-0.367250	-0.206551
C70	C	1.723622	-0.934402	-0.561456
N71	N	1.806022	-0.902610	-0.583674
C72	C	1.510430	-0.336951	-0.762746
N73	N	1.425474	-0.350499	-0.733233
H74	H	0.685663	-0.658083	-0.805865
H75	H	1.388718	-0.945724	-0.635576
H76	H	1.497245	-0.692674	-1.240518
C77	C	1.313134	-1.089777	-0.451054
N78	N	1.230700	-1.121520	-0.428894
C79	C	1.237014	-0.613752	-0.985931
N80	N	1.207740	-0.570931	-0.910972
C81	C	1.039651	-0.797898	-0.605720
N82	N	1.114585	-0.827491	-0.563363
H83	H	1.189281	-0.845742	-1.275428
C84	C	1.799964	-0.411130	-1.027531
N85	N	1.829244	-0.453954	-1.102485
C86	C	1.303200	-0.159319	-0.158382
N87	N	1.348618	-0.102858	-0.102769
H88	H	1.396495	-0.635977	-0.907186
H89	H	1.375320	-0.816092	-1.340032
C90	C	0.924471	-0.941051	-0.746586
N91	N	0.953955	-1.027124	-0.759802
H92	H	1.123455	-0.113987	-0.270316
C93	C	0.774987	-0.504737	-0.679624
N94	N	0.745489	-0.418668	-0.666417
H95	H	1.565720	-1.078447	-0.683176
C96	C	1.262802	-0.520588	-0.332820
N97	N	1.292298	-0.606656	-0.346038
C98	C	1.463292	-0.935078	-0.300737
N99	N	1.441133	-0.903644	-0.218219
H100	H	1.125173	-0.751959	-1.111308
H101	H	1.640472	-0.388943	-1.106279
H102	H	1.648068	-1.078276	-0.376676
H103	H	0.750230	-0.846558	-0.834795
H104	H	1.911782	-0.272903	-0.902165
C105	C	1.866882	-0.159694	-0.722353
N106	N	1.922562	-0.103316	-0.676906
H107	H	1.661646	-0.208824	-0.673419
H108	H	0.919322	-0.389018	-0.384537
C109	C	0.998120	-0.227426	-0.406654
N110	N	0.923190	-0.197826	-0.449013
