data_functionalizedCrystal
_audit_creation_method	'MofGen! by Chris Wilmer'
_symmetry_space_group_name_H-M	'P1'
_symmetry_Int_Tables_number	1
_symmetry_cell_setting	triclinic
loop_
_symmetry_equiv_pos_as_xyz
  x,y,z
_cell_length_a	13.033293
_cell_length_b	12.759387
_cell_length_c	13.032721
_cell_angle_alpha	97.148809
_cell_angle_beta	105.184121
_cell_angle_gamma	82.788503
loop_
_atom_site_label
_atom_site_type_symbol
_atom_site_fract_x
_atom_site_fract_y
_atom_site_fract_z
Zn1	Zn	1.570260	-0.822556	-0.216742
Zn2	Zn	2.070260	-0.322556	0.283258
Zn3	Zn	1.547568	-0.666644	-0.394402
Zn4	Zn	2.047568	-0.166644	0.105598
Zn5	Zn	1.392612	-0.627048	-0.239335
Zn6	Zn	1.892612	-0.127048	0.260665
Zn7	Zn	1.370039	-0.822435	-0.416848
Zn8	Zn	1.870039	-0.322435	0.083152
O9	O	1.470120	-0.734670	-0.316832
O10	O	1.970120	-0.234670	0.183168
O11	O	1.715893	-0.818495	-0.221460
O12	O	2.215893	-0.318495	0.278540
O13	O	1.526963	-0.514371	-0.373893
O14	O	2.026963	-0.014371	0.126107
O15	O	1.435121	-0.636462	-0.087697
O16	O	1.935121	-0.136462	0.412303
O17	O	1.699221	-0.703947	-0.351986
O18	O	2.199221	-0.203947	0.148014
O19	O	1.565638	-0.780101	-0.071098
O20	O	2.065638	-0.280101	0.428902
O21	O	1.413117	-0.485280	-0.259966
O22	O	1.913117	0.014720	0.240034
O23	O	1.240974	-0.636345	-0.281732
O24	O	1.740974	-0.136345	0.218268
O25	O	1.396649	-0.969470	-0.390242
O26	O	1.896649	-0.469470	0.109758
O27	O	1.224390	-0.779895	-0.412150
O28	O	1.724390	-0.279895	0.087850
O29	O	1.543751	-0.969559	-0.243225
O30	O	2.043751	-0.469559	0.256775
O31	O	1.505075	-0.703830	-0.546020
O32	O	2.005075	-0.203830	-0.046020
O33	O	1.374645	-0.818289	-0.562511
O34	O	1.874645	-0.318289	-0.062511
C35	C	1.194141	-0.703811	-0.351829
C36	C	1.694141	-0.203811	0.148171
C37	C	1.076073	-0.690636	-0.366826
C38	C	1.576073	-0.190636	0.133174
C39	C	1.031670	-0.741549	-0.309031
C40	C	1.531670	-0.241549	0.190969
C41	C	0.909640	-0.727934	-0.324530
C42	C	1.409640	-0.227934	0.175470
C43	C	1.470213	-1.008701	-0.316718
C44	C	1.970213	-0.508701	0.183282
C45	C	1.470253	-1.125477	-0.316669
C46	C	1.970253	-0.625477	0.183331
C47	C	1.623438	-1.125591	-0.163588
C48	C	2.123438	-0.625591	0.336412
C49	C	1.700048	-1.180509	-0.087030
C50	C	2.200048	-0.680509	0.412970
C51	C	1.700078	-1.290229	-0.086988
C52	C	2.200078	-0.790229	0.413012
C53	C	1.623490	-1.345034	-0.163510
C54	C	2.123490	-0.845034	0.336490
C55	C	1.546880	-1.290116	-0.240068
C56	C	2.046880	-0.790116	0.259932
C57	C	1.546860	-1.180394	-0.240104
C58	C	2.046860	-0.680394	0.259896
C59	C	1.393692	-1.290001	-0.393143
C60	C	1.893692	-0.790001	0.106857
C61	C	1.393664	-1.180281	-0.393191
C62	C	1.893664	-0.680281	0.106809
C63	C	1.317104	-1.344805	-0.469665
C64	C	1.817104	-0.844805	0.030335
C65	C	1.240497	-1.289888	-0.546230
C66	C	1.740497	-0.789888	-0.046230
C67	C	1.240470	-1.180162	-0.546270
C68	C	1.740470	-0.680162	-0.046270
C69	C	1.317055	-1.125364	-0.469750
C70	C	1.817055	-0.625364	0.030250
C71	C	1.747177	-0.765651	-0.281699
C72	C	2.247177	-0.265651	0.218301
C73	C	1.865242	-0.778854	-0.266727
C74	C	2.365242	-0.278854	0.233273
C75	C	1.434977	-0.765369	-0.592803
C76	C	1.934977	-0.265369	-0.092803
C77	C	1.420040	-0.778548	-0.710852
C78	C	1.920040	-0.278548	-0.210852
C79	C	1.470098	-0.461704	-0.316861
C80	C	1.970098	0.038296	0.183139
C81	C	1.470302	-0.344918	-0.316585
C82	C	1.970302	0.155082	0.183415
C83	C	1.477972	-0.727846	-0.755281
C84	C	1.977972	-0.227846	-0.255281
C85	C	1.462535	-0.741466	-0.877291
C86	C	1.962535	-0.241466	-0.377291
C87	C	1.505429	-0.703878	-0.039779
C88	C	2.005429	-0.203878	0.460221
C89	C	1.520475	-0.690756	0.078284
C90	C	2.020475	-0.190756	0.578284
H91	H	0.857317	-0.674260	-0.385487
H92	H	1.357317	-0.174260	0.114513
N93	N	1.558814	-0.656996	-0.686020
N94	N	2.058814	-0.156996	-0.186020
H95	H	1.521445	-0.598358	-0.645547
H96	H	2.021445	-0.098358	-0.145547
H97	H	1.595335	-0.625106	-0.732497
H98	H	2.095335	-0.125106	-0.232497
H99	H	1.401510	-0.794965	-0.929577
H100	H	1.901510	-0.294965	-0.429577
H101	H	1.178075	-1.135451	-0.608603
H102	H	1.678075	-0.635451	-0.108603
N103	N	1.623523	-1.463374	-0.163464
N104	N	2.123523	-0.963374	0.336536
H105	H	1.563385	-1.489759	-0.223556
H106	H	2.063385	-0.989759	0.276444
H107	H	1.613332	-1.479436	-0.093021
H108	H	2.113332	-0.979436	0.406979
H109	H	1.178140	-1.334517	-0.608524
H110	H	1.678140	-0.834517	-0.108524
H111	H	1.317130	-1.434144	-0.469622
H112	H	1.817130	-0.934144	0.030378
N113	N	0.934537	-0.849942	-0.185970
N114	N	1.434537	-0.349942	0.314030
H115	H	1.011889	-0.849591	-0.186341
H116	H	1.511889	-0.349591	0.313659
H117	H	0.913128	-0.924661	-0.205024
H118	H	1.413128	-0.424661	0.294976
N119	N	1.601325	-0.619902	-0.852466
N120	N	2.101325	-0.119902	-0.352466
H121	H	1.563961	-0.561261	-0.811992
H122	H	2.063961	-0.061261	-0.311992
H123	H	1.637841	-0.588017	-0.898950
H124	H	2.137841	-0.088017	-0.398950
N125	N	1.339194	-0.849396	-0.780108
N126	N	1.839194	-0.349396	-0.280108
H127	H	1.302652	-0.881359	-0.733697
H128	H	1.802652	-0.381359	-0.233697
H129	H	1.376630	-0.907978	-0.820574
H130	H	1.876630	-0.407978	-0.320574
H131	H	1.317044	-1.036025	-0.469778
H132	H	1.817044	-0.536025	0.030222
N133	N	1.006776	-0.619547	-0.447576
N134	N	1.506776	-0.119547	0.052424
H135	H	1.028100	-0.544791	-0.428566
H136	H	1.528100	-0.044791	0.071434
H137	H	0.929448	-0.619983	-0.447169
H138	H	1.429448	-0.119983	0.052831
N139	N	1.623389	-1.007252	-0.163654
N140	N	2.123389	-0.507252	0.336346
H141	H	1.693752	-0.991138	-0.173963
H142	H	2.193752	-0.491138	0.326037
H143	H	1.613105	-0.970612	-0.093265
H144	H	2.113105	-0.470612	0.406735
H145	H	1.762455	-1.334942	-0.024642
H146	H	2.262455	-0.834942	0.475358
N147	N	1.100968	-0.812662	-0.228305
N148	N	1.600968	-0.312662	0.271695
H149	H	1.178318	-0.812319	-0.228686
H150	H	1.678318	-0.312319	0.271314
H151	H	1.079541	-0.887373	-0.247387
H152	H	1.579541	-0.387373	0.252613
H153	H	1.762403	-1.135875	-0.024725
H154	H	2.262403	-0.635875	0.475275
