data_functionalizedCrystal
_audit_creation_method	'MofGen! by Chris Wilmer'
_symmetry_space_group_name_H-M	'P1'
_symmetry_Int_Tables_number	1
_symmetry_cell_setting	triclinic
loop_
_symmetry_equiv_pos_as_xyz
  x,y,z
_cell_length_a	12.759401
_cell_length_b	15.297327
_cell_length_c	12.759393
_cell_angle_alpha	80.357027
_cell_angle_beta	90.020938
_cell_angle_gamma	99.708126
loop_
_atom_site_label
_atom_site_type_symbol
_atom_site_fract_x
_atom_site_fract_y
_atom_site_fract_z
Zn1	Zn	1.533815	-0.359082	0.666329
Zn2	Zn	1.503263	-0.509967	0.521034
Zn3	Zn	1.358104	-0.359130	0.490674
Zn4	Zn	1.327675	-0.509904	0.696658
O5	O	1.430714	-0.434521	0.593674
O6	O	1.676782	-0.379103	0.647069
O7	O	1.483956	-0.490005	0.369995
O8	O	1.406934	-0.232878	0.488577
O9	O	1.654335	-0.489958	0.540320
O10	O	1.536028	-0.232842	0.617630
O11	O	1.377308	-0.379185	0.347690
O12	O	1.207048	-0.379124	0.517986
O13	O	1.355072	-0.489851	0.839647
O14	O	1.184692	-0.489898	0.669321
O15	O	1.506522	-0.379042	0.817364
O16	O	1.454449	-0.636205	0.569729
O17	O	1.325446	-0.636159	0.698760
C18	C	1.157749	-0.434510	0.593651
C19	C	1.040969	-0.434527	0.593670
C20	C	1.383359	-0.668916	0.640853
C21	C	1.363196	-0.769191	0.661071
C22	C	0.974476	-0.492294	0.672383
C23	C	0.864751	-0.492298	0.672404
C24	C	0.888023	-0.376764	0.514991
C25	C	0.997747	-0.376756	0.514975
C26	C	1.575254	-1.051821	0.449528
C27	C	1.594198	-0.957608	0.430526
C28	C	1.536449	-0.910499	0.488161
C29	C	1.459753	-0.957613	0.564800
C30	C	1.440802	-1.051836	0.583798
C31	C	1.401997	-0.910513	0.622431
C32	C	1.325301	-0.957627	0.699071
C33	C	1.306354	-1.051841	0.718065
C34	C	1.364103	-1.098950	0.660430
C35	C	1.420948	-0.816291	0.603434
C36	C	1.286496	-0.816305	0.737704
C37	C	1.267553	-0.910519	0.756705
C38	C	1.704745	-0.434533	0.593698
C39	C	1.821521	-0.434538	0.593708
C40	C	1.430810	-0.434434	0.867690
C41	C	1.430851	-0.434397	0.984459
C42	C	1.478284	-0.199211	0.546334
C43	C	1.498555	-0.098935	0.526160
C44	C	1.430692	-0.434542	0.320711
C45	C	1.430906	-0.434325	0.203891
C46	C	1.509719	-0.376690	1.027719
C47	C	1.509744	-0.376651	1.137435
C48	C	1.352031	-0.492035	1.160625
C49	C	1.352002	-0.492068	1.050909
H50	H	1.009664	-0.539333	0.736464
H51	H	1.573921	-0.329728	0.973617
H52	H	1.573964	-0.329659	1.172650
H53	H	1.287837	-0.538990	1.214741
H54	H	1.239470	-0.777950	0.784633
C55	C	1.265250	-0.555555	1.003322
H56	H	1.218304	-0.589908	1.058611
H57	H	1.226439	-0.521058	0.953568
H58	H	1.297493	-0.594880	0.968440
H59	H	0.810617	-0.539337	0.736501
C60	C	1.221987	-1.103664	0.802360
H61	H	1.190313	-1.062117	0.833972
H62	H	1.168826	-1.140478	0.769556
H63	H	1.254782	-1.140358	0.855573
C64	C	0.840472	-0.313232	0.428425
H65	H	0.765599	-0.321516	0.439699
H66	H	0.870700	-0.252629	0.431711
H67	H	0.855768	-0.326371	0.360449
H68	H	1.051889	-0.329710	0.450877
H69	H	1.483394	-0.777939	0.541033
H70	H	1.551877	-0.833786	0.472684
H71	H	1.622258	-1.090186	0.402604
C72	C	1.678562	-0.905789	0.346238
H73	H	1.710249	-0.947337	0.314641
H74	H	1.645779	-0.869092	0.293026
H75	H	1.731725	-0.868978	0.379054
C76	C	1.343262	-1.202586	0.681326
H77	H	1.388638	-1.223890	0.636021
H78	H	1.357116	-1.223845	0.753426
H79	H	1.271171	-1.223959	0.667397
C80	C	1.183189	-0.962346	0.841002
H81	H	1.151512	-0.920802	0.872616
H82	H	1.130030	-0.999163	0.808198
H83	H	1.215989	-0.999038	0.894213
