data_functionalizedCrystal
_audit_creation_method	'MofGen! by Chris Wilmer'
_symmetry_space_group_name_H-M	'P1'
_symmetry_Int_Tables_number	1
_symmetry_cell_setting	triclinic
loop_
_symmetry_equiv_pos_as_xyz
  x,y,z
_cell_length_a	15.538191
_cell_length_b	12.996460
_cell_length_c	14.519731
_cell_angle_alpha	89.988498
_cell_angle_beta	114.519526
_cell_angle_gamma	90.007459
loop_
_atom_site_label
_atom_site_type_symbol
_atom_site_fract_x
_atom_site_fract_y
_atom_site_fract_z
O1	O	1.249386	0.085547	0.299346
O2	O	0.975314	0.085557	0.192924
O3	O	1.119606	0.085531	0.382813
O4	O	1.105094	0.085573	0.109458
O5	O	1.119591	-0.085603	0.382816
O6	O	0.975299	-0.085576	0.192927
O7	O	1.249371	-0.085587	0.299349
Cu8	Cu	1.112334	-0.101208	0.246138
Cu9	Cu	1.112351	0.101178	0.246135
O10	O	1.105079	-0.085561	0.109460
C11	C	0.940231	-0.000009	0.181791
C12	C	0.835716	-0.000005	0.148625
N13	N	1.112328	-0.243555	0.246144
C14	C	0.547344	-0.000040	0.478122
C15	C	0.449133	-0.000035	0.446934
C16	C	0.427000	-0.000008	0.271510
C17	C	0.525211	-0.000018	0.302683
C18	C	0.585376	-0.000033	0.405990
C19	C	0.563242	-0.000012	0.230551
C20	C	0.661444	-0.000017	0.261722
C21	C	0.721615	-0.000029	0.365025
C22	C	0.683578	-0.000038	0.437161
C23	C	0.503075	0.000011	0.127244
C24	C	0.541107	0.000018	0.055113
C25	C	0.639311	0.000005	0.086283
C26	C	0.699482	-0.000007	0.189586
C27	C	0.677348	0.000015	0.014147
C28	C	0.775551	0.000010	0.045318
C29	C	0.797684	-0.000012	0.220757
C30	C	1.112350	-0.663369	0.246134
C31	C	1.112341	-0.546564	0.246132
C32	C	1.112339	-0.453466	0.246138
C33	C	1.112330	-0.336653	0.246138
C34	C	1.284454	-0.000019	0.310482
C35	C	1.388969	-0.000016	0.343648
C36	C	1.118919	-0.000039	0.416945
C37	C	1.116881	-0.000048	0.518640
N38	N	1.112364	0.243525	0.246140
C39	C	1.115225	-0.000053	0.601227
C40	C	1.113156	-0.000054	0.704840
C41	C	1.111514	-0.000054	0.787427
C42	C	1.109446	-0.000057	0.891047
C43	C	1.105766	-0.000010	1.075328
C44	C	1.107804	-0.000058	0.973633
H45	H	0.846675	-0.000030	0.304880
N46	N	0.479660	0.000017	-0.050413
N47	N	0.513632	0.000014	-0.114805
H48	H	0.470238	0.000009	-0.189335
H49	H	0.806516	0.000006	-0.013419
H50	H	0.801578	-0.000019	0.390402
H51	H	0.418174	-0.000038	0.505680
H52	H	0.732569	-0.000057	0.521284
N53	N	0.365555	0.000015	0.165984
N54	N	0.369127	0.072155	0.110728
H55	H	0.325735	0.072169	0.036197
N56	N	0.608797	-0.000079	0.583653
N57	N	0.574832	-0.000102	0.648052
H58	H	0.618231	-0.000132	0.722580
N59	N	0.615871	0.000028	-0.091369
N60	N	0.558587	-0.072097	-0.128333
H61	H	0.515168	-0.072088	-0.202855
H62	H	0.423113	0.000018	0.101868
