data_functionalizedCrystal
_audit_creation_method	'MofGen! by Chris Wilmer'
_symmetry_space_group_name_H-M	'P1'
_symmetry_Int_Tables_number	1
_symmetry_cell_setting	triclinic
loop_
_symmetry_equiv_pos_as_xyz
  x,y,z
_cell_length_a	6.817900
_cell_length_b	9.514072
_cell_length_c	16.015572
_cell_angle_alpha	75.276350
_cell_angle_beta	104.485554
_cell_angle_gamma	118.843421
loop_
_atom_site_label
_atom_site_type_symbol
_atom_site_fract_x
_atom_site_fract_y
_atom_site_fract_z
V1	V	-4.016234	-0.064663	-0.269590
O2	O	-3.917026	0.164814	-0.263763
O3	O	-4.051421	-0.283739	-0.268415
O4	O	-3.925102	0.007287	-0.386862
O5	O	-4.044219	-0.128226	-0.144495
V6	V	-4.494568	-0.045598	-0.254546
O7	O	-4.288875	-0.106482	-0.302589
O8	O	-4.672125	-0.003779	-0.221547
O9	O	-4.236175	0.173478	-0.255721
O10	O	-4.711172	-0.275075	-0.260374
O11	O	-4.583980	0.017965	-0.379641
O12	O	-4.362493	-0.117547	-0.137274
C13	C	-3.918138	-0.339362	-0.264335
C14	C	-4.027909	-0.518003	-0.264155
C15	C	-3.757005	0.031871	-0.415425
C16	C	-3.764332	0.089248	-0.511300
C17	C	-4.247275	-0.420026	-0.890484
C18	C	-4.254144	-0.366060	-0.980569
C19	C	-4.070629	-0.086858	-0.955012
C20	C	-4.063734	-0.140800	-0.864923
C21	C	-4.152064	-0.307386	-0.832667
C22	C	-3.968522	-0.028160	-0.807105
C23	C	-3.961639	-0.082100	-0.717024
C24	C	-4.049968	-0.248679	-0.684761
C25	C	-4.145181	-0.361326	-0.742586
C26	C	-3.880208	0.138425	-0.839363
C27	C	-3.784996	0.251065	-0.781545
C28	C	-3.778098	0.197127	-0.691462
C29	C	-3.866426	0.030547	-0.659199
C30	C	-3.682885	0.309773	-0.633637
C31	C	-3.676002	0.255834	-0.543556
C32	C	-3.859543	-0.023392	-0.569118
C33	C	-4.032803	0.229091	-0.259799
C34	C	-3.902269	0.407734	-0.259984
C35	C	-4.193936	-0.142140	-0.108707
C36	C	-4.165845	-0.199509	-0.012831
H37	H	-3.710713	-0.519193	-0.256507
O38	O	-4.256397	-0.605380	-0.268176
C39	C	-4.306939	-0.724948	-0.193239
H40	H	-4.156100	-0.752424	-0.164422
H41	H	-4.344002	-0.678664	-0.142829
C42	C	-4.701103	-0.847216	-0.253796
C43	C	-4.515847	-0.880973	-0.218407
H44	H	-4.829973	-0.943459	-0.269319
H45	H	-4.667056	-0.766658	-0.304282
H46	H	-4.731959	-0.808643	-0.211782
H47	H	-4.484976	-0.919526	-0.260425
H48	H	-4.549895	-0.961542	-0.167929
O49	O	-3.944625	-0.185195	-0.537761
C50	C	-3.827197	-0.251434	-0.563333
H51	H	-3.748431	-0.170919	-0.623813
H52	H	-3.688030	-0.258291	-0.507993
C53	C	-4.090059	-0.522182	-0.510043
C54	C	-3.993333	-0.423299	-0.584329
H55	H	-4.192535	-0.628199	-0.522990
H56	H	-4.169169	-0.477556	-0.492811
H57	H	-3.974067	-0.527878	-0.463933
H58	H	-4.109322	-0.417588	-0.630434
H59	H	-3.914246	-0.467928	-0.601569
O60	O	-3.984495	0.075008	-0.986237
C61	C	-3.752524	0.151919	-0.952280
H62	H	-3.715453	0.074776	-0.889116
H63	H	-3.646968	0.166549	-1.001821
C64	C	-3.737327	0.415127	-1.011168
C65	C	-3.691800	0.320385	-0.933585
H66	H	-3.699863	0.519048	-0.999639
H67	H	-3.893608	0.363311	-1.034048
H68	H	-3.649360	0.427301	-1.052444
H69	H	-3.779787	0.308196	-0.892314
H70	H	-3.535531	0.372203	-0.910697
H71	H	-4.044365	-0.292594	-0.611410
H72	H	-4.217080	-0.496976	-0.716321
H73	H	-4.319175	-0.555677	-0.864220
H74	H	-3.885786	0.182338	-0.912713
O75	O	-3.699537	0.412884	-0.812853
C76	C	-3.816432	0.479481	-0.787234
H77	H	-3.990158	0.379354	-0.772871
H78	H	-3.715766	0.536398	-0.726032
C79	C	-3.632060	0.733572	-0.878966
C80	C	-3.845440	0.610597	-0.861332
H81	H	-3.649946	0.814456	-0.924671
H82	H	-3.553298	0.688708	-0.896224
H83	H	-3.548194	0.780984	-0.827959
H84	H	-3.929291	0.563174	-0.912335
H85	H	-3.924218	0.655456	-0.844084
H86	H	-3.610992	0.445408	-0.659915
O87	O	-3.583884	0.365171	-0.487359
C88	C	-3.748841	0.337133	-0.438660
H89	H	-3.924920	0.270565	-0.475990
H90	H	-3.728849	0.259900	-0.372879
C91	C	-3.501919	0.582515	-0.378047
C92	C	-3.718183	0.500768	-0.423900
H93	H	-3.483004	0.683451	-0.368938
H94	H	-3.390780	0.601403	-0.410853
H95	H	-3.485285	0.518137	-0.323234
H96	H	-3.734803	0.565136	-0.478715
H97	H	-3.829325	0.481894	-0.391102
H98	H	-4.331673	-0.457798	-1.027643
