data_functionalizedCrystal
_audit_creation_method	'MofGen! by Chris Wilmer'
_symmetry_space_group_name_H-M	'P1'
_symmetry_Int_Tables_number	1
_symmetry_cell_setting	triclinic
loop_
_symmetry_equiv_pos_as_xyz
  x,y,z
_cell_length_a	14.853567
_cell_length_b	14.853567
_cell_length_c	13.330367
_cell_angle_alpha	89.999156
_cell_angle_beta	89.995418
_cell_angle_gamma	83.634930
loop_
_atom_site_label
_atom_site_type_symbol
_atom_site_fract_x
_atom_site_fract_y
_atom_site_fract_z
O1	O	1.196369	0.117704	-0.083346
O2	O	1.696369	0.617704	0.416654
O3	O	0.933909	0.131725	-0.083362
O4	O	1.433909	0.631725	0.416638
O5	O	1.072150	-0.006515	-0.083356
O6	O	1.572150	0.493485	0.416644
O7	O	1.058128	0.255944	-0.083351
O8	O	1.558128	0.755944	0.416649
O9	O	1.072130	-0.006519	0.083491
O10	O	1.572130	0.493481	0.583491
O11	O	0.933889	0.131722	0.083485
O12	O	1.433889	0.631722	0.583485
O13	O	1.196349	0.117700	0.083501
O14	O	1.696349	0.617700	0.583501
Cu15	Cu	1.065117	0.124711	0.098728
Cu16	Cu	1.565117	0.624711	0.598728
Cu17	Cu	1.065141	0.124715	-0.098588
Cu18	Cu	1.565141	0.624715	0.401412
O19	O	1.058108	0.255941	0.083496
O20	O	1.558108	0.755941	0.583496
C21	C	0.900311	0.131088	0.000060
C22	C	1.400311	0.631088	0.500060
C23	C	0.800227	0.129184	0.000053
C24	C	1.300227	0.629184	0.500053
C25	C	0.387693	0.039019	0.000074
C26	C	0.887693	0.539019	0.500074
C27	C	0.366412	0.203251	0.000076
C28	C	0.866412	0.703251	0.500076
C29	C	0.460446	0.205042	0.000073
C30	C	0.960446	0.705042	0.500073
C31	C	0.518108	0.123819	0.000069
C32	C	1.018108	0.623819	0.500069
C33	C	0.481736	0.040806	0.000067
C34	C	0.981736	0.540806	0.500067
C35	C	0.496825	0.288053	0.000064
C36	C	0.996825	0.788053	0.500064
C37	C	0.590864	0.289846	0.000059
C38	C	1.090864	0.789846	0.500059
C39	C	0.648528	0.208623	0.000062
C40	C	1.148528	0.708623	0.500062
C41	C	0.612150	0.125607	0.000062
C42	C	1.112150	0.625607	0.500062
C43	C	0.669812	0.044384	0.000058
C44	C	1.169812	0.544384	0.500058
C45	C	0.633437	-0.038633	0.000065
C46	C	1.133437	0.461367	0.500065
C47	C	0.539399	-0.040417	0.000070
C48	C	1.039399	0.459583	0.500070
C49	C	0.742565	0.210407	0.000057
C50	C	1.242565	0.710407	0.500057
C51	C	0.763855	0.046172	0.000052
C52	C	1.263855	0.546172	0.500052
C53	C	1.071504	-0.040106	0.000064
C54	C	1.571504	0.459894	0.500064
C55	C	1.069601	-0.140189	0.000055
C56	C	1.569601	0.359811	0.500055
C57	C	0.979435	-0.552723	0.000069
C58	C	1.479435	-0.052723	0.500069
C59	C	1.143668	-0.574004	0.000079
C60	C	1.643668	-0.074004	0.500079
C61	C	1.145458	-0.479971	0.000073
C62	C	1.645458	0.020029	0.500073
C63	C	1.064235	-0.422309	0.000067
C64	C	1.564235	0.077691	0.500067
C65	C	0.981223	-0.458680	0.000066
C66	C	1.481223	0.041320	0.500066
C67	C	1.228469	-0.443591	0.000084
C68	C	1.728469	0.056409	0.500084
C69	C	1.230262	-0.349552	0.000079
C70	C	1.730262	0.150448	0.500079
C71	C	1.149039	-0.291889	0.000066
C72	C	1.649039	0.208111	0.500066
C73	C	1.066023	-0.328266	0.000064
C74	C	1.566023	0.171734	0.500064
C75	C	0.984800	-0.270604	0.000058
C76	C	1.484800	0.229396	0.500058
C77	C	0.901783	-0.306979	0.000049
C78	C	1.401783	0.193021	0.500049
C79	C	0.899999	-0.401017	0.000053
C80	C	1.399999	0.098983	0.500053
C81	C	1.150823	-0.197851	0.000062
C82	C	1.650823	0.302149	0.500062
C83	C	0.986588	-0.176561	0.000055
C84	C	1.486588	0.323439	0.500055
C85	C	1.229947	0.118337	0.000078
C86	C	1.729947	0.618337	0.500078
C87	C	1.330031	0.120241	0.000078
C88	C	1.830031	0.620241	0.500078
C89	C	1.058754	0.289531	0.000073
C90	C	1.558754	0.789531	0.500073
C91	C	1.060657	0.389615	0.000075
C92	C	1.560657	0.889615	0.500075
N93	N	1.065107	0.124708	0.237509
N94	N	1.565107	0.624708	0.737509
N95	N	1.065158	0.124711	-0.237370
N96	N	1.565158	0.624711	0.262630
C97	C	1.003925	0.185903	0.710130
C98	C	1.503925	0.685903	1.210130
C99	C	1.126381	0.063519	0.710103
C100	C	1.626381	0.563519	1.210103
C101	C	1.126371	0.063516	0.605084
C102	C	1.626371	0.563516	1.105084
C103	C	1.065138	0.124709	0.552584
C104	C	1.565138	0.624709	1.052584
C105	C	1.003915	0.185904	0.605102
C106	C	1.503915	0.685904	1.105102
C107	C	1.187598	0.002328	0.552559
C108	C	1.687598	0.502328	1.052559
C109	C	1.187591	0.002323	0.447534
C110	C	1.687591	0.502323	0.947534
C111	C	1.126353	0.063512	0.395031
C112	C	1.626353	0.563512	0.895031
C113	C	1.065127	0.124710	0.447556
C114	C	1.565127	0.624710	0.947556
C115	C	1.003895	0.185902	0.395055
C116	C	1.503895	0.685902	0.895055
C117	C	0.942664	0.247096	0.447578
C118	C	1.442664	0.747096	0.947578
C119	C	0.942677	0.247093	0.552599
C120	C	1.442677	0.747093	1.052599
C121	C	1.126340	0.063515	0.290010
C122	C	1.626340	0.563515	0.790010
C123	C	1.003884	0.185903	0.290027
C124	C	1.503884	0.685903	0.790027
H125	H	0.772178	0.277998	0.000053
H126	H	1.272178	0.777998	0.500053
H127	H	0.620472	0.357443	0.000053
H128	H	1.120472	0.857443	0.500053
H129	H	0.892826	0.296916	0.595370
H130	H	1.392826	0.796916	1.095370
H131	H	1.218414	-0.168238	0.000076
H132	H	1.718414	0.331762	0.500076
H133	H	0.319459	0.269379	0.000071
H134	H	0.819459	0.769379	0.500071
O135	O	1.316070	-0.505778	0.000105
O136	O	1.816070	-0.005778	0.500105
H137	H	1.300878	-0.577279	0.000098
H138	H	1.800878	-0.077279	0.500098
O139	O	0.937892	0.251913	0.766766
O140	O	1.437892	0.751913	1.266766
H141	H	0.894034	0.213889	0.814630
H142	H	1.394034	0.713889	1.314630
O143	O	0.434640	0.375655	0.000061
O144	O	0.934640	0.875655	0.500061
H145	H	0.447593	0.415379	0.068057
H146	H	0.947593	0.915379	0.568057
O147	O	0.889902	-0.591957	0.000067
O148	O	1.389902	-0.091957	0.500067
H149	H	0.850879	-0.568810	-0.067943
H150	H	1.350879	-0.068810	0.432057
O151	O	1.192424	-0.002480	0.766720
O152	O	1.692424	0.497520	1.266720
H153	H	1.182143	0.007798	0.848572
H154	H	1.682143	0.507798	1.348572
O155	O	0.348465	-0.050518	0.000090
O156	O	0.848465	0.449482	0.500090
H157	H	0.371621	-0.089556	-0.067911
H158	H	0.871621	0.410444	0.432089
O159	O	0.898982	-0.114368	0.000057
O160	O	1.398982	0.385632	0.500057
H161	H	0.840961	-0.155463	0.000061
H162	H	1.340961	0.344537	0.500061
H163	H	0.832411	-0.430643	0.000046
H164	H	1.332411	0.069357	0.500046
H165	H	0.835652	-0.260019	0.000051
H166	H	1.335652	0.239981	0.500051
H167	H	0.892811	0.296924	0.404820
H168	H	1.392811	0.796924	0.904820
H169	H	1.237457	-0.047489	0.595308
H170	H	1.737457	0.452511	1.095308
H171	H	1.237447	-0.047504	0.404776
H172	H	1.737447	0.452496	0.904776
O173	O	1.231270	-0.636189	0.000096
O174	O	1.731270	-0.136189	0.500096
H175	H	1.216081	-0.707690	0.000097
H176	H	1.716081	-0.207690	0.500097
O177	O	1.192364	-0.002500	0.233376
O178	O	1.692364	0.497500	0.733376
H179	H	1.154344	-0.046385	0.185548
H180	H	1.654344	0.453615	0.685548
O181	O	0.826048	-0.041434	0.000049
O182	O	1.326048	0.458566	0.500049
H183	H	0.784953	-0.099455	0.000049
H184	H	1.284953	0.400545	0.500049
O185	O	0.695638	-0.126233	0.000059
O186	O	1.195638	0.373767	0.500059
H187	H	0.654552	-0.184262	0.000060
H188	H	1.154552	0.315738	0.500060
O189	O	0.937829	0.251892	0.233398
O190	O	1.437829	0.751892	0.733398
H191	H	0.975818	0.295779	0.185532
H192	H	1.475818	0.795779	0.685532
O193	O	1.319796	-0.310319	0.000065
O194	O	1.819796	0.189681	0.500065
H195	H	1.375973	-0.366214	0.000059
H196	H	1.875973	0.133786	0.500059
H197	H	0.509774	-0.108005	0.000100
H198	H	1.009774	0.391995	0.500100
