data_functionalizedCrystal
_audit_creation_method	'MofGen! by Chris Wilmer'
_symmetry_space_group_name_H-M	'P1'
_symmetry_Int_Tables_number	1
_symmetry_cell_setting	triclinic
loop_
_symmetry_equiv_pos_as_xyz
  x,y,z
_cell_length_a	14.971486
_cell_length_b	9.730223
_cell_length_c	14.971486
_cell_angle_alpha	89.999766
_cell_angle_beta	96.385871
_cell_angle_gamma	89.997868
loop_
_atom_site_label
_atom_site_type_symbol
_atom_site_fract_x
_atom_site_fract_y
_atom_site_fract_z
O1	O	1.186943	0.114132	-0.116557
O2	O	1.686943	0.614132	0.383443
O3	O	0.926543	0.114170	-0.130516
O4	O	1.426543	0.614170	0.369484
O5	O	1.063723	0.114140	0.006664
O6	O	1.563723	0.614140	0.506664
O7	O	1.049764	0.114162	-0.253736
O8	O	1.549764	0.614162	0.246264
O9	O	1.063714	-0.114439	0.006656
O10	O	1.563714	0.385561	0.506656
O11	O	0.926534	-0.114410	-0.130523
O12	O	1.426534	0.385590	0.369477
O13	O	1.186934	-0.114447	-0.116564
O14	O	1.686934	0.385553	0.383436
Zn15	Zn	1.056733	-0.150721	-0.123545
Zn16	Zn	1.556733	0.349279	0.376455
Zn17	Zn	1.056745	0.150443	-0.123535
Zn18	Zn	1.556745	0.650443	0.376465
O19	O	1.049755	-0.114418	-0.253744
O20	O	1.549755	0.385582	0.246256
C21	C	0.893214	-0.000115	-0.129895
C22	C	1.393214	0.499885	0.370105
C23	C	0.793917	-0.000101	-0.128024
C24	C	1.293917	0.499899	0.371976
N25	N	1.056731	-0.356257	-0.123551
N26	N	1.556731	0.143743	0.376449
C27	C	0.736692	-0.000096	-0.208614
C28	C	1.236692	0.499904	0.291386
C29	C	0.643392	-0.000117	-0.206850
C30	C	1.143392	0.499883	0.293150
C31	C	0.607320	-0.000133	-0.124497
C32	C	1.107320	0.499867	0.375503
C33	C	0.664552	-0.000141	-0.043902
C34	C	1.164552	0.499859	0.456098
C35	C	0.757850	-0.000131	-0.045666
C36	C	1.257850	0.499869	0.454334
C37	C	0.470090	-0.000161	-0.040231
C38	C	0.970090	0.499839	0.459769
C39	C	0.376786	-0.000169	-0.038466
C40	C	0.876786	0.499831	0.461534
C41	C	0.355632	-0.000147	-0.201415
C42	C	0.855632	0.499853	0.298585
C43	C	0.448930	-0.000136	-0.203179
C44	C	0.948930	0.499864	0.296821
C45	C	0.506156	-0.000143	-0.122584
C46	C	1.006156	0.499857	0.377416
C47	C	1.111034	-0.428200	-0.177887
C48	C	1.611034	0.071800	0.322113
C49	C	1.111048	-0.572083	-0.177870
C50	C	1.611048	-0.072083	0.322130
C51	C	1.002448	-0.572068	-0.069180
C52	C	1.502448	-0.072068	0.430820
C53	C	1.002440	-0.428187	-0.069193
C54	C	1.502440	0.071813	0.430807
C55	C	1.165326	-0.356270	-0.232245
C56	C	1.665326	0.143730	0.267755
C57	C	1.219632	-0.428212	-0.286585
C58	C	1.719632	0.071788	0.213415
C59	C	1.219646	-0.572095	-0.286568
C60	C	1.719646	-0.072095	0.213432
C61	C	1.165353	-0.644036	-0.232211
C62	C	1.665353	-0.144036	0.267789
C63	C	1.220263	-0.000159	-0.117185
C64	C	1.720263	0.499841	0.382815
C65	C	1.319561	-0.000164	-0.119056
C66	C	1.819561	0.499836	0.380944
C67	C	1.063094	-0.000149	0.039985
C68	C	1.563094	0.499851	0.539985
C69	C	1.061223	-0.000148	0.139282
C70	C	1.561223	0.499852	0.639282
N71	N	1.056753	0.355980	-0.123521
N72	N	1.556753	0.855980	0.376479
C73	C	1.050384	-0.000125	-0.287065
C74	C	1.550384	0.499875	0.212935
C75	C	1.052254	-0.000118	-0.386362
C76	C	1.552254	0.499882	0.113638
C77	C	1.141812	-0.000160	0.196507
C78	C	1.641812	0.499840	0.696507
C79	C	1.140049	-0.000146	0.289807
C80	C	1.640049	0.499854	0.789807
C81	C	1.057696	-0.000129	0.325879
C82	C	1.557696	0.499871	0.825879
C83	C	0.977101	-0.000112	0.268646
C84	C	1.477101	0.499888	0.768646
C85	C	0.978865	-0.000117	0.175349
C86	C	1.478865	0.499883	0.675349
C87	C	0.973430	-0.000107	0.463109
C88	C	1.473430	0.499893	0.963109
C89	C	0.971665	-0.000105	0.556413
C90	C	1.471665	0.499895	1.056413
C91	C	1.134614	-0.000136	0.577567
C92	C	1.634614	0.499864	1.077567
C93	C	1.136378	-0.000141	0.484269
C94	C	1.636378	0.499859	0.984269
C95	C	1.055782	-0.000126	0.427043
C96	C	1.555782	0.499874	0.927043
H97	H	0.766054	-0.000083	-0.275675
H98	H	1.266054	0.499917	0.224325
Br99	Br	1.165386	-0.839307	-0.232176
Br100	Br	1.665386	-0.339307	0.267824
H101	H	0.958244	-0.630653	-0.024927
H102	H	1.458244	-0.130653	0.475073
H103	H	0.958220	-0.369610	-0.024950
H104	H	1.458220	0.130390	0.475050
H105	H	1.208874	-0.000182	0.167145
H106	H	1.708874	0.499818	0.667145
H107	H	0.913240	-0.000106	0.128756
H108	H	1.413240	0.499894	0.628756
H109	H	0.910047	-0.000090	0.298024
H110	H	1.410047	0.499910	0.798024
H111	H	0.596802	-0.000112	-0.272474
H112	H	1.096802	0.499888	0.227526
Br113	Br	1.293324	-0.330585	-0.360340
Br114	Br	1.793324	0.169415	0.139660
H115	H	0.904606	-0.000114	0.585780
H116	H	1.404606	0.499886	1.085780
Br117	Br	1.165305	-0.161001	-0.232276
Br118	Br	1.665305	0.338999	0.267724
H119	H	1.205673	-0.000159	0.336396
H120	H	1.705673	0.499841	0.836396
H121	H	1.200238	-0.000144	0.624165
H122	H	1.700238	0.499856	1.124165
Br123	Br	1.293355	-0.669730	-0.360304
Br124	Br	1.793355	-0.169730	0.139696
H125	H	0.478296	-0.000111	-0.270239
H126	H	0.978296	0.499889	0.229761
Br127	Br	0.277969	-0.000136	-0.310796
Br128	Br	0.777969	0.499864	0.189204
H129	H	1.203437	-0.000164	0.454903
H130	H	1.703437	0.499836	0.954903
Br131	Br	0.327830	-0.000236	0.073300
Br132	Br	0.827830	0.499764	0.573300
H133	H	0.516682	-0.000168	0.025399
H134	H	1.016682	0.499832	0.525399
Br135	Br	0.615598	-0.000176	0.067865
Br136	Br	1.115598	0.499824	0.567865
H137	H	0.907800	-0.000092	0.416517
H138	H	1.407800	0.499908	0.916517
H139	H	0.804443	-0.000134	0.019958
H140	H	1.304443	0.499866	0.519958
