data_functionalizedCrystal
_audit_creation_method	'MofGen! by Chris Wilmer'
_symmetry_space_group_name_H-M	'P1'
_symmetry_Int_Tables_number	1
_symmetry_cell_setting	triclinic
loop_
_symmetry_equiv_pos_as_xyz
  x,y,z
_cell_length_a	16.120530
_cell_length_b	25.639239
_cell_length_c	16.120297
_cell_angle_alpha	87.131297
_cell_angle_beta	89.871860
_cell_angle_gamma	87.134054
loop_
_atom_site_label
_atom_site_type_symbol
_atom_site_fract_x
_atom_site_fract_y
_atom_site_fract_z
Zn1	Zn	1.247330	-0.264883	0.534536
Zn2	Zn	1.747330	0.235117	1.034536
Zn3	Zn	1.254246	-0.348114	0.395469
Zn4	Zn	1.754246	0.151886	0.895469
Zn5	Zn	1.115324	-0.256048	0.388455
Zn6	Zn	1.615324	0.243952	0.888455
Zn7	Zn	1.108202	-0.347633	0.527439
Zn8	Zn	1.608202	0.152367	1.027439
O9	O	1.181275	-0.304170	0.461475
O10	O	1.681275	0.195830	0.961475
O11	O	1.364612	-0.279823	0.521994
O12	O	1.864612	0.220177	1.021994
O13	O	1.241692	-0.332406	0.278174
O14	O	1.741692	0.167594	0.778174
O15	O	1.132921	-0.184058	0.407868
O16	O	1.632921	0.315942	0.907868
O17	O	1.369693	-0.340973	0.419823
O18	O	1.869693	0.159027	0.919823
O19	O	1.229905	-0.190549	0.515193
O20	O	1.729905	0.309451	1.015193
O21	O	1.139627	-0.264765	0.273020
O22	O	1.639627	0.235235	0.773020
O23	O	0.998015	-0.264298	0.400986
O24	O	1.498015	0.235702	0.900986
O25	O	1.120783	-0.340152	0.644745
O26	O	1.620783	0.159848	1.144745
O27	O	0.992782	-0.331585	0.503096
O28	O	1.492782	0.168415	1.003096
O29	O	1.223000	-0.279356	0.649960
O30	O	1.723000	0.220644	1.149960
O31	O	1.234787	-0.421212	0.412941
O32	O	1.734787	0.078788	0.912941
O33	O	1.127489	-0.420858	0.509898
O34	O	1.627489	0.079142	1.009898
C35	C	0.965226	-0.296931	0.450510
C36	C	1.465226	0.203069	0.950510
C37	C	0.872799	-0.293847	0.445839
C38	C	1.372799	0.206153	0.945839
C39	C	1.181138	-0.440006	0.461430
C40	C	1.681138	0.059994	0.961430
C41	C	1.181153	-0.498121	0.461442
C42	C	1.681153	0.001879	0.961442
C43	C	0.703571	-0.288206	0.437318
C44	C	1.203571	0.211794	0.937318
C45	C	0.659817	-0.320174	0.485692
C46	C	1.159817	0.179826	0.985692
C47	C	0.565653	-0.317035	0.480951
C48	C	1.065653	0.182965	0.980951
C49	C	0.797744	-0.291344	0.442058
C50	C	1.297744	0.208656	0.942058
C51	C	1.237279	-0.858668	0.411087
C52	C	1.737279	-0.358668	0.911087
C53	C	1.237311	-0.913274	0.411099
C54	C	1.737311	-0.413274	0.911099
O55	O	1.284889	-0.941661	0.368236
O56	O	1.784889	-0.441661	0.868236
N57	N	1.181419	-0.940415	0.461537
N58	N	1.681419	-0.440415	0.961537
C59	C	1.125497	-0.912948	0.511972
C60	C	1.625497	-0.412948	1.011972
O61	O	1.077960	-0.941048	0.554875
O62	O	1.577960	-0.441048	1.054875
C63	C	1.125470	-0.858344	0.511963
C64	C	1.625470	-0.358344	1.011963
C65	C	1.181360	-0.831205	0.461515
C66	C	1.681360	-0.331205	0.961515
C67	C	1.293166	-0.831529	0.360644
C68	C	1.793166	-0.331529	0.860644
C69	C	1.293133	-0.776927	0.360630
C70	C	1.793133	-0.276927	0.860630
C71	C	1.237214	-0.749464	0.411059
C72	C	1.737214	-0.249464	0.911059
C73	C	1.181327	-0.776603	0.461502
C74	C	1.681327	-0.276603	0.961502
C75	C	1.069553	-0.830878	0.562401
C76	C	1.569553	-0.330878	1.062401
C77	C	1.069531	-0.776270	0.562388
C78	C	1.569531	-0.276270	1.062388
C79	C	1.125421	-0.749131	0.511941
C80	C	1.625421	-0.249131	1.011941
C81	C	1.125375	-0.694538	0.511917
C82	C	1.625375	-0.194538	1.011917
N83	N	1.181267	-0.667396	0.461479
N84	N	1.681267	-0.167396	0.961479
C85	C	1.237187	-0.694860	0.411050
C86	C	1.737187	-0.194860	0.911050
C87	C	1.125559	-1.027621	0.511988
C88	C	1.625559	-0.527621	1.011988
C89	C	1.125581	-1.082224	0.511993
C90	C	1.625581	-0.582224	1.011993
C91	C	1.237397	-1.082546	0.411121
C92	C	1.737397	-0.582546	0.911121
C93	C	1.237370	-1.027942	0.411113
C94	C	1.737370	-0.527942	0.911113
C95	C	1.181451	-1.000480	0.461550
C96	C	1.681451	-0.500480	0.961550
C97	C	1.237113	-0.580191	0.411025
C98	C	1.737113	-0.080191	0.911025
C99	C	1.237072	-0.525584	0.411013
C100	C	1.737072	-0.025584	0.911013
C101	C	1.125260	-0.525267	0.511887
C102	C	1.625260	-0.025267	1.011887
C103	C	1.125297	-0.579869	0.511896
C104	C	1.625297	-0.079869	1.011896
C105	C	1.181230	-0.607330	0.461463
C106	C	1.681230	-0.107330	0.961463
O107	O	1.077824	-0.666116	0.554760
O108	O	1.577824	-0.166116	1.054760
O109	O	1.284723	-0.666754	0.368163
O110	O	1.784723	-0.166754	0.868163
C111	C	1.398168	-0.311437	0.472483
C112	C	1.898168	0.188563	0.972483
C113	C	1.490595	-0.314534	0.477173
C114	C	1.990595	0.185466	0.977173
C115	C	1.170326	-0.310686	0.678368
C116	C	1.670326	0.189314	1.178368
C117	C	1.165659	-0.313462	0.770795
C118	C	1.665659	0.186538	1.270795
C119	C	1.181436	-0.167804	0.461539
C120	C	1.681436	0.332196	0.961539
C121	C	1.181504	-0.109693	0.461567
C122	C	1.681504	0.390307	0.961567
C123	C	1.192231	-0.297643	0.245427
C124	C	1.692231	0.202357	0.745427
C125	C	1.197058	-0.294724	0.153009
C126	C	1.697058	0.205276	0.653009
C127	C	1.157110	-0.318520	0.940019
C128	C	1.657110	0.181480	1.440019
C129	C	1.205605	-0.289668	0.983790
C130	C	1.705605	0.210332	1.483790
C131	C	1.200848	-0.292482	1.077952
C132	C	1.700848	0.207518	1.577952
C133	C	1.161866	-0.315706	0.845849
C134	C	1.661866	0.184294	1.345849
H135	H	0.693077	-0.349899	0.530667
H136	H	1.193077	0.150101	1.030667
O137	O	0.663771	-0.252791	0.383684
O138	O	1.163771	0.247209	0.883684
C139	C	0.577251	-0.257500	0.390844
C140	C	1.077251	0.242500	0.890844
H141	H	0.564097	-0.298305	0.417386
H142	H	1.064097	0.201695	0.917386
H143	H	0.547294	-0.250945	0.326935
H144	H	1.047294	0.249055	0.826935
H145	H	0.550402	-0.227059	0.433999
H146	H	1.050402	0.272941	0.933999
O147	O	1.259426	-0.257638	0.944267
O148	O	1.759426	0.242362	1.444267
C149	C	1.303602	-0.231377	1.003511
C150	C	1.803602	0.268623	1.503511
H151	H	1.266476	-0.230235	1.063719
H152	H	1.766476	0.269765	1.563719
H153	H	1.313778	-0.189746	0.978795
H154	H	1.813778	0.310254	1.478795
H155	H	1.366274	-0.252914	1.015924
H156	H	1.866274	0.247086	1.515924
O157	O	1.291334	-0.499275	0.361890
O158	O	1.791334	0.000725	0.861890
C159	C	1.277407	-0.509547	0.278081
C160	C	1.777407	-0.009547	0.778081
H161	H	1.245551	-0.548092	0.274722
H162	H	1.745551	-0.048092	0.774722
H163	H	1.339333	-0.512278	0.243892
H164	H	1.839333	-0.012278	0.743892
H165	H	1.236079	-0.476578	0.247859
H166	H	1.736079	0.023422	0.747859
O167	O	1.291561	-0.606805	0.362078
O168	O	1.791561	-0.106805	0.862078
C169	C	1.373491	-0.596723	0.384539
C170	C	1.873491	-0.096723	0.884539
H171	H	1.373536	-0.558089	0.416596
H172	H	1.873536	-0.058089	0.916596
H173	H	1.413852	-0.594278	0.326450
H174	H	1.913852	-0.094278	0.826450
H175	H	1.399335	-0.629650	0.428730
H176	H	1.899335	-0.129650	0.928730
O177	O	1.347513	-0.750652	0.311612
O178	O	1.847513	-0.250652	0.811612
C179	C	1.396858	-0.786609	0.267099
C180	C	1.896858	-0.286609	0.767099
H181	H	1.397995	-0.826641	0.301318
H182	H	1.897995	-0.326641	0.801318
H183	H	1.462824	-0.772728	0.261612
H184	H	1.962824	-0.272728	0.761612
H185	H	1.369658	-0.789535	0.202375
H186	H	1.869658	-0.289535	0.702375
O187	O	1.347618	-0.858217	0.311804
O188	O	1.847618	-0.358217	0.811804
C189	C	1.398904	-0.892966	0.361947
C190	C	1.898904	-0.392966	0.861947
H191	H	1.400599	-0.878637	0.427706
H192	H	1.900599	-0.378637	0.927706
H193	H	1.464461	-0.894754	0.335223
H194	H	1.964461	-0.394754	0.835223
H195	H	1.373127	-0.933606	0.363458
H196	H	1.873127	-0.433606	0.863458
H197	H	1.080017	-1.005264	0.553057
H198	H	1.580017	-0.505264	1.053057
O199	O	1.071253	-1.108504	0.561068
O200	O	1.571253	-0.608504	1.061068
C201	C	1.021879	-1.072547	0.605553
C202	C	1.521879	-0.572547	1.105553
H203	H	1.055773	-1.034828	0.610174
H204	H	1.555773	-0.534828	1.110174
H205	H	1.009655	-1.089979	0.670616
H206	H	1.509655	-0.589979	1.170616
H207	H	0.960287	-1.063759	0.571844
H208	H	1.460287	-0.563759	1.071844
O209	O	1.291743	-1.001664	0.362089
O210	O	1.791743	-0.501664	0.862089
C211	C	1.341083	-1.037619	0.317566
C212	C	1.841083	-0.537619	0.817566
H213	H	1.342229	-1.077651	0.351783
H214	H	1.842229	-0.577651	0.851783
H215	H	1.407047	-1.023735	0.312068
H216	H	1.907047	-0.523735	0.812068
H217	H	1.313872	-1.040545	0.252846
H218	H	1.813872	-0.540545	0.752846
H219	H	1.112023	-0.345331	0.973262
H220	H	1.612023	0.154669	1.473262
H221	H	1.282932	-1.104917	0.370062
H222	H	1.782932	-0.604917	0.870062
H223	H	1.024037	-0.852965	0.603477
H224	H	1.524037	-0.352965	1.103477
H225	H	1.023996	-0.753913	0.603463
H226	H	1.523996	-0.253913	1.103463
H227	H	1.079789	-0.601967	0.552977
H228	H	1.579789	-0.101967	1.052977
O229	O	1.071062	-0.498565	0.560968
O230	O	1.571062	0.001435	1.060968
C231	C	1.115648	-0.470125	0.617083
C232	C	1.615648	0.029875	1.117083
H233	H	1.180880	-0.488892	0.625593
H234	H	1.680880	0.011108	1.125593
H235	H	1.082300	-0.470416	0.679529
H236	H	1.582300	0.029584	1.179529
H237	H	1.119817	-0.428072	0.591505
H238	H	1.619817	0.071928	1.091505
