data_functionalizedCrystal
_audit_creation_method	'MofGen! by Chris Wilmer'
_symmetry_space_group_name_H-M	'P1'
_symmetry_Int_Tables_number	1
_symmetry_cell_setting	triclinic
loop_
_symmetry_equiv_pos_as_xyz
  x,y,z
_cell_length_a	27.732048
_cell_length_b	27.731994
_cell_length_c	15.186229
_cell_angle_alpha	89.999487
_cell_angle_beta	90.005234
_cell_angle_gamma	82.631595
loop_
_atom_site_label
_atom_site_type_symbol
_atom_site_fract_x
_atom_site_fract_y
_atom_site_fract_z
O1	O	0.057389	0.640946	0.073112
O2	O	0.557389	1.140946	0.573112
O3	O	0.066162	0.500148	0.073143
O4	O	0.566162	1.000148	0.573143
O5	O	-0.008622	0.574920	0.073110
O6	O	0.491378	1.074920	0.573110
O7	O	0.132173	0.566174	0.073145
O8	O	0.632173	1.066174	0.573145
O9	O	-0.008618	0.574911	-0.073347
O10	O	0.491382	1.074911	0.426653
O11	O	0.066166	0.500140	-0.073314
O12	O	0.566166	1.000140	0.426686
O13	O	0.057393	0.640937	-0.073345
O14	O	0.557393	1.140937	0.426655
Zn15	Zn	0.061780	0.570537	-0.096583
Zn16	Zn	0.561780	1.070537	0.403417
Zn17	Zn	0.061775	0.570548	0.096381
Zn18	Zn	0.561775	1.070548	0.596381
O19	O	0.132177	0.566165	-0.073312
O20	O	0.632177	1.066165	0.426688
C21	C	0.065984	0.482137	-0.000082
C22	C	0.565984	0.982137	0.499918
C23	C	0.065442	0.428480	-0.000071
C24	C	0.565442	0.928480	0.499929
C25	C	0.062028	0.095757	-0.079940
C26	C	0.562028	0.595757	0.420060
C27	C	0.059967	-0.105901	-0.079950
C28	C	0.559967	0.394099	0.420050
O29	O	0.059681	-0.131978	-0.147846
O30	O	0.559681	0.368022	0.352154
N31	N	0.059708	-0.131111	-0.000116
N32	N	0.559708	0.368889	0.499884
C33	C	0.059962	-0.105903	0.079726
C34	C	0.559962	0.394097	0.579726
O35	O	0.059690	-0.131972	0.147629
O36	O	0.559690	0.368028	0.647629
C37	C	0.062020	0.095754	0.079735
C38	C	0.562020	0.595754	0.579735
C39	C	0.062283	0.120961	-0.000104
C40	C	0.562283	0.620961	0.499896
C41	C	0.062291	0.120964	-0.159772
C42	C	0.562291	0.620964	0.340228
C43	C	0.062809	0.171375	-0.159769
C44	C	0.562809	0.671375	0.340231
C45	C	0.063064	0.196579	-0.079933
C46	C	0.563064	0.696579	0.420067
C47	C	0.062801	0.171372	-0.000100
C48	C	0.562801	0.671372	0.499900
C49	C	0.062271	0.120962	0.159576
C50	C	0.562271	0.620962	0.659576
C51	C	0.062784	0.171380	0.159572
C52	C	0.562784	0.671380	0.659572
C53	C	0.063047	0.196587	0.079733
C54	C	0.563047	0.696587	0.579733
C55	C	0.063575	0.246988	0.079739
C56	C	0.563575	0.746988	0.579739
N57	N	0.063833	0.272198	-0.000095
N58	N	0.563833	0.772198	0.499905
C59	C	0.063578	0.246994	-0.079931
C60	C	0.563578	0.746994	0.420069
C61	C	0.058882	-0.211777	0.079715
C62	C	0.558882	0.288223	0.579715
C63	C	0.058369	-0.262191	0.079713
C64	C	0.558369	0.237809	0.579713
C65	C	0.058372	-0.262185	-0.079963
C66	C	0.558372	0.237815	0.420037
C67	C	0.058890	-0.211770	-0.079960
C68	C	0.558890	0.288230	0.420040
C69	C	0.059141	-0.186566	-0.000119
C70	C	0.559141	0.313434	0.499881
C71	C	0.064666	0.352861	-0.079917
C72	C	0.564666	0.852861	0.420083
C73	C	0.065186	0.403276	-0.079907
C74	C	0.565186	0.903276	0.420093
C75	C	0.065180	0.403266	0.079769
C76	C	0.565180	0.903266	0.579769
C77	C	0.064663	0.352855	0.079759
C78	C	0.564663	0.852855	0.579759
C79	C	0.064404	0.327654	-0.000091
C80	C	0.564404	0.827654	0.499909
O81	O	0.063855	0.273096	0.147599
O82	O	0.563855	0.773096	0.647599
O83	O	0.063839	0.273073	-0.147824
O84	O	0.563839	0.773073	0.352176
C85	C	0.061510	0.045346	-0.079943
C86	C	0.561510	0.545346	0.420057
C87	C	0.061247	0.020139	-0.000111
C88	C	0.561247	0.520139	0.499889
C89	C	0.061503	0.045343	0.079725
C90	C	0.561503	0.545343	0.579725
C91	C	0.060734	-0.030275	-0.000113
C92	C	0.560734	0.469725	0.499887
C93	C	0.060478	-0.055480	-0.079949
C94	C	0.560478	0.444520	0.420051
C95	C	0.060737	-0.030270	-0.159782
C96	C	0.560737	0.469730	0.340218
C97	C	0.061255	0.020142	-0.159779
C98	C	0.561255	0.520142	0.340221
C99	C	0.061244	0.020133	0.159559
C100	C	0.561244	0.520133	0.659559
C101	C	0.060727	-0.030278	0.159549
C102	C	0.560727	0.469722	0.659549
C103	C	0.060472	-0.055482	0.079713
C104	C	0.560472	0.444518	0.579713
C105	C	-0.026627	0.574732	-0.000121
C106	C	0.473373	1.074732	0.499879
C107	C	-0.080282	0.574179	-0.000128
C108	C	0.419718	1.074179	0.499872
C109	C	-0.419105	0.614884	-0.000092
C110	C	0.080895	1.114884	0.499908
C111	C	-0.620764	0.612833	-0.000079
C112	C	-0.120764	1.112833	0.499921
O113	O	-0.652027	0.650055	-0.000049
O114	O	-0.152027	1.150055	0.499951
N115	N	-0.639879	0.568496	-0.000070
N116	N	-0.139879	1.068496	0.499930
C117	C	-0.608576	0.524670	-0.000059
C118	C	-0.108576	1.024670	0.499941
O119	O	-0.629462	0.486912	-0.000042
O120	O	-0.129462	0.986912	0.499958
C121	C	-0.406918	0.526721	-0.000065
C122	C	0.093082	1.026721	0.499935
C123	C	-0.387805	0.571061	-0.000083
C124	C	0.112195	1.071061	0.499917
C125	C	-0.399992	0.659220	-0.000109
C126	C	0.100008	1.159220	0.499891
C127	C	-0.349580	0.659732	-0.000117
C128	C	0.150420	1.159732	0.499883
C129	C	-0.318281	0.615908	-0.000108
C130	C	0.181719	1.115908	0.499892
C131	C	-0.337394	0.571573	-0.000091
C132	C	0.162606	1.071573	0.499909
C133	C	-0.375615	0.482895	-0.000048
C134	C	0.124385	0.982895	0.499952
C135	C	-0.325198	0.483412	-0.000047
C136	C	0.174802	0.983412	0.499953
C137	C	-0.306086	0.527751	-0.000065
C138	C	0.193914	1.027751	0.499935
C139	C	-0.255683	0.528262	-0.000090
C140	C	0.244317	1.028262	0.499910
N141	N	-0.236567	0.572598	-0.000099
N142	N	0.263433	1.072598	0.499901
C143	C	-0.267867	0.616421	-0.000108
C144	C	0.232133	1.116421	0.499892
C145	C	-0.714450	0.523596	-0.000057
C146	C	-0.214450	1.023596	0.499943
C147	C	-0.764864	0.523083	-0.000057
C148	C	-0.264864	1.023083	0.499943
C149	C	-0.777049	0.611246	-0.000076
C150	C	-0.277049	1.111246	0.499924
C151	C	-0.726633	0.611759	-0.000082
C152	C	-0.226633	1.111759	0.499918
C153	C	-0.695335	0.567932	-0.000066
C154	C	-0.195335	1.067932	0.499934
C155	C	-0.161998	0.617494	-0.000125
C156	C	0.338002	1.117494	0.499875
C157	C	-0.111581	0.618002	-0.000137
C158	C	0.388419	1.118002	0.499863
C159	C	-0.099401	0.529839	-0.000114
C160	C	0.400599	1.029839	0.499886
C161	C	-0.149813	0.529331	-0.000107
C162	C	0.350187	1.029331	0.499893
C163	C	-0.181111	0.573162	-0.000110
C164	C	0.318889	1.073162	0.499890
O165	O	-0.224391	0.491060	-0.000111
O166	O	0.275609	0.991060	0.499889
O167	O	-0.246971	0.654174	-0.000105
O168	O	0.253029	1.154174	0.499895
C169	C	-0.469517	0.614372	-0.000084
C170	C	0.030483	1.114372	0.499916
C171	C	-0.488629	0.570036	-0.000067
C172	C	0.011371	1.070036	0.499933
C173	C	-0.457330	0.526213	-0.000058
C174	C	0.042670	1.026213	0.499942
C175	C	-0.539043	0.569523	-0.000067
C176	C	-0.039043	1.069523	0.499933
C177	C	-0.570343	0.613346	-0.000076
C178	C	-0.070343	1.113346	0.499924
C179	C	-0.551228	0.657683	-0.000085
C180	C	-0.051228	1.157683	0.499915
C181	C	-0.500816	0.658195	-0.000093
C182	C	-0.000816	1.158195	0.499907
C183	C	-0.476445	0.481876	-0.000049
C184	C	0.023555	0.981876	0.499951
C185	C	-0.526857	0.481367	-0.000042
C186	C	-0.026857	0.981367	0.499958
C187	C	-0.558157	0.525191	-0.000051
C188	C	-0.058157	1.025191	0.499949
C189	C	0.150182	0.566353	-0.000079
C190	C	0.650182	1.066353	0.499921
C191	C	0.203837	0.566906	-0.000066
C192	C	0.703837	1.066906	0.499934
C193	C	0.057571	0.658949	-0.000118
C194	C	0.557571	1.158949	0.499882
C195	C	0.058114	0.712605	-0.000123
C196	C	0.558114	1.212605	0.499877
N197	N	0.061784	0.570532	-0.228275
N198	N	0.561784	1.070532	0.271725
C199	C	0.090887	0.599639	-0.453997
C200	C	0.590887	1.099639	0.046003
C201	C	0.090883	0.599645	-0.546187
C202	C	0.590883	1.099645	-0.046187
C203	C	0.032661	0.541449	-0.546198
C204	C	0.532661	1.041449	-0.046198
C205	C	0.032662	0.541446	-0.454010
C206	C	0.532662	1.041446	0.045990
C207	C	0.061778	0.570541	-0.407912
C208	C	0.561778	1.070541	0.092088
C209	C	0.061773	0.570548	-0.592290
C210	C	0.561773	1.070548	-0.092290
C211	C	0.061769	0.570554	-0.692246
C212	C	0.561769	1.070554	-0.192246
C213	C	0.061781	0.570536	-0.307950
C214	C	0.561781	1.070536	0.192050
N215	N	0.061767	0.570556	0.228074
N216	N	0.561767	1.070556	0.728074
H217	H	0.062056	0.100447	0.224590
H218	H	0.562056	0.600447	0.724590
H219	H	0.008957	0.517760	-0.583743
H220	H	0.508957	1.017760	-0.083743
F221	F	-0.433296	0.705867	-0.000117
F222	F	0.066704	1.205867	0.499883
H223	H	0.114594	0.623330	-0.416467
H224	H	0.614594	1.123330	0.083533
H225	H	0.058162	-0.282711	0.144726
H226	H	0.558162	0.217289	0.644726
F227	F	0.001680	0.510473	-0.404960
F228	F	0.501680	1.010473	0.095040
H229	H	-0.576720	0.693365	-0.000096
H230	H	-0.076720	1.193365	0.499904
H231	H	-0.096023	0.654110	-0.000154
H232	H	0.403977	1.154110	0.499846
F233	F	0.065468	0.430100	-0.164886
F234	F	0.565468	0.930100	0.335114
F235	F	0.121864	0.630616	-0.595230
F236	F	0.621864	1.130616	-0.095230
H237	H	0.062082	0.100448	-0.224788
H238	H	0.562082	0.600448	0.275212
H239	H	-0.450966	0.446189	-0.000040
H240	H	0.049034	0.946189	0.499960
H241	H	-0.187475	0.653186	-0.000124
H242	H	0.312525	1.153186	0.499876
F243	F	-0.329246	0.706924	-0.000116
F244	F	0.170754	1.206924	0.499884
F245	F	0.064390	0.326047	-0.164903
F246	F	0.564390	0.826047	0.335097
H247	H	0.065390	0.423796	0.144769
H248	H	0.565390	0.923796	0.644769
H249	H	0.060516	-0.050798	0.224568
H250	H	0.560516	0.449202	0.724568
F251	F	0.063087	0.198196	-0.244745
F252	F	0.563087	0.698196	0.255255
H253	H	0.058166	-0.282715	-0.144969
H254	H	0.558166	0.217285	0.355031
F255	F	0.059151	-0.184959	0.164699
F256	F	0.559151	0.315041	0.664699
F257	F	0.063050	0.198201	0.244552
F258	F	0.563050	0.698201	0.744552
F259	F	0.059169	-0.184948	-0.164935
F260	F	0.559169	0.315052	0.335065
H261	H	-0.780420	0.486977	-0.000058
H262	H	-0.280420	0.986977	0.499942
H263	H	0.061451	0.040650	0.224572
H264	H	0.561451	0.540650	0.724572
F265	F	0.064390	0.326026	0.164732
F266	F	0.564390	0.826026	0.664732
H267	H	0.060531	-0.050800	-0.224788
H268	H	0.560531	0.449200	0.275212
F269	F	-0.706298	0.658950	-0.000101
F270	F	-0.206298	1.158950	0.499899
F271	F	0.061535	0.046962	-0.244755
F272	F	0.561535	0.546962	0.255245
H273	H	-0.802541	0.646929	-0.000083
H274	H	-0.302541	1.146929	0.499917
H275	H	-0.688970	0.487905	-0.000044
H276	H	-0.188970	0.987905	0.499956
H277	H	-0.391167	0.446789	-0.000028
H278	H	0.108833	0.946789	0.499972
H279	H	-0.299716	0.447722	-0.000033
H280	H	0.200284	0.947722	0.499967
F281	F	-0.066081	0.483202	-0.000105
F282	F	0.433919	0.983202	0.499895
F283	F	-0.170154	0.482140	-0.000104
F284	F	0.329846	0.982140	0.499896
F285	F	-0.480482	0.705387	-0.000106
F286	F	0.019518	1.205387	0.499894
F287	F	-0.547192	0.434172	-0.000029
F288	F	-0.047192	0.934172	0.499971
