data_functionalizedCrystal
_audit_creation_method	'MofGen! by Chris Wilmer'
_symmetry_space_group_name_H-M	'P1'
_symmetry_Int_Tables_number	1
_symmetry_cell_setting	triclinic
loop_
_symmetry_equiv_pos_as_xyz
  x,y,z
_cell_length_a	13.897449
_cell_length_b	18.215405
_cell_length_c	18.215407
_cell_angle_alpha	89.985182
_cell_angle_beta	90.008936
_cell_angle_gamma	89.973835
loop_
_atom_site_label
_atom_site_type_symbol
_atom_site_fract_x
_atom_site_fract_y
_atom_site_fract_z
Zn1	Zn	1.474542	0.293081	0.416077
Zn2	Zn	1.474449	0.416118	0.293005
Zn3	Zn	1.313264	0.293073	0.293027
Zn4	Zn	1.313193	0.416113	0.416033
O5	O	1.393862	0.354596	0.354535
O6	O	1.609511	0.309408	0.399760
O7	O	1.453059	0.399795	0.190024
O8	O	1.334727	0.190090	0.309378
O9	O	1.609443	0.399803	0.309340
O10	O	1.453217	0.190096	0.399782
O11	O	1.334637	0.309394	0.190040
O12	O	1.178273	0.309389	0.309335
O13	O	1.334605	0.399794	0.519023
O14	O	1.178221	0.399786	0.399706
O15	O	1.453148	0.309403	0.519055
O16	O	1.452989	0.519102	0.309297
O17	O	1.334515	0.519098	0.399685
C18	C	1.143248	0.354587	0.354519
C19	C	1.036034	0.354600	0.354529
C20	C	1.393760	0.545803	0.354500
C21	C	1.393805	0.627602	0.354509
C22	C	0.839739	0.354603	0.354548
C23	C	0.948971	0.354599	0.354535
C24	C	1.393879	0.354598	0.546488
C25	C	1.393886	0.354599	0.628287
C26	C	1.645455	0.354607	0.354553
C27	C	1.752669	0.354611	0.354560
C28	C	1.393991	0.162643	0.354587
C29	C	1.394045	0.080845	0.354609
C30	C	1.455639	0.815773	0.307531
C31	C	1.455682	0.892632	0.307549
C32	C	1.332208	0.892668	0.401593
C33	C	1.332171	0.815810	0.401578
C34	C	1.393885	0.777365	0.354543
C35	C	1.393965	0.931081	0.354575
C36	C	1.394012	1.014415	0.354595
C37	C	1.393840	0.694026	0.354524
C38	C	1.455592	0.307540	0.816499
C39	C	1.455586	0.307540	0.893358
C40	C	1.332148	0.401669	0.893313
C41	C	1.332150	0.401665	0.816455
C42	C	1.393877	0.354602	0.778051
C43	C	1.393870	0.354605	0.931767
C44	C	1.393864	0.354605	1.015100
C45	C	1.393882	0.354601	0.694712
C46	C	1.393846	0.354610	1.163329
C47	C	1.393861	0.354608	1.081530
H48	H	1.505892	0.784473	0.269233
O49	O	1.515699	0.929827	0.261810
C50	C	1.570176	0.879410	0.220310
H51	H	1.530639	0.824651	0.217724
H52	H	1.643403	0.871175	0.247309
C53	C	1.632732	0.976689	0.145178
C54	C	1.584168	0.909434	0.141996
H55	H	1.641368	0.995209	0.096871
H56	H	1.596033	1.010656	0.173139
H57	H	1.693750	0.969817	0.167680
H58	H	1.523147	0.916309	0.119502
H59	H	1.620857	0.875468	0.114029
H60	H	1.505851	0.269216	0.785232
O61	O	1.272058	0.447311	0.930587
C62	C	1.175931	0.431239	0.911786
H63	H	1.171095	0.372445	0.890679
H64	H	1.150695	0.470691	0.867157
C65	C	1.117490	0.512022	1.005975
C66	C	1.111549	0.439808	0.980056
H67	H	1.077775	0.517311	1.048085
H68	H	1.182252	0.522853	1.018640
H69	H	1.096462	0.544891	0.968777
H70	H	1.132589	0.406942	1.017250
H71	H	1.046789	0.428972	0.967399
H72	H	1.281961	0.923979	0.439886
O73	O	1.272087	0.778610	0.447271
C74	C	1.217636	0.829021	0.488798
H75	H	1.214348	0.883824	0.458664
H76	H	1.252908	0.837148	0.544716
C77	C	1.118992	0.731771	0.536338
C78	C	1.114946	0.799079	0.499324
H79	H	1.055649	0.713300	0.542835
H80	H	1.155678	0.697806	0.508364
H81	H	1.148389	0.738552	0.582933
H82	H	1.085561	0.792295	0.452727
H83	H	1.078252	0.833041	0.527291
O84	O	1.515630	0.261803	0.930593
C85	C	1.570089	0.220252	0.880211
H86	H	1.573411	0.250395	0.825417
H87	H	1.534804	0.164358	0.872047
C88	C	1.668676	0.172626	0.977523
C89	C	1.672763	0.209652	0.910226
H90	H	1.732009	0.166084	0.996038
H91	H	1.631984	0.200617	1.011467
H92	H	1.639268	0.126051	0.970710
H93	H	1.702160	0.256229	0.917041
H94	H	1.709463	0.181668	0.876284
O95	O	1.272301	0.447490	0.779134
C96	C	1.293318	0.520840	0.797905
H97	H	1.370373	0.524559	0.819044
H98	H	1.241588	0.540080	0.842502
C99	C	1.187427	0.565379	0.703647
C100	C	1.282070	0.569948	0.729604
H101	H	1.180485	0.595673	0.661518
H102	H	1.173264	0.515962	0.691002
H103	H	1.144329	0.581412	0.740818
H104	H	1.325165	0.553907	0.692438
H105	H	1.296240	0.619363	0.742242
