data_functionalizedCrystal
_audit_creation_method	'MofGen! by Chris Wilmer'
_symmetry_space_group_name_H-M	'P1'
_symmetry_Int_Tables_number	1
_symmetry_cell_setting	triclinic
loop_
_symmetry_equiv_pos_as_xyz
  x,y,z
_cell_length_a	19.077068
_cell_length_b	18.215407
_cell_length_c	18.215399
_cell_angle_alpha	89.982223
_cell_angle_beta	87.731836
_cell_angle_gamma	87.677405
loop_
_atom_site_label
_atom_site_type_symbol
_atom_site_fract_x
_atom_site_fract_y
_atom_site_fract_z
Zn1	Zn	-0.280290	-1.113284	0.427832
Zn2	Zn	0.219710	-0.613284	0.927832
Zn3	Zn	-0.397991	-1.108243	0.309703
Zn4	Zn	0.102009	-0.608243	0.809703
Zn5	Zn	-0.280303	-0.990216	0.304785
Zn6	Zn	0.219697	-0.490216	0.804785
Zn7	Zn	-0.397942	-0.985235	0.432730
Zn8	Zn	0.102058	-0.485235	0.932730
O9	O	-0.339132	-1.049244	0.368763
O10	O	0.160868	-0.549244	0.868763
O11	O	-0.295918	-1.215599	0.412171
O12	O	0.204082	-0.715599	0.912171
O13	O	-0.382406	-1.092561	0.206068
O14	O	0.117594	-0.592561	0.706068
O15	O	-0.181811	-1.010736	0.316999
O16	O	0.318189	-0.510736	0.816999
O17	O	-0.382393	-1.211895	0.325382
O18	O	0.117607	-0.711895	0.825382
O19	O	-0.181801	-1.101154	0.407402
O20	O	0.318199	-0.601154	0.907402
O21	O	-0.295941	-1.005847	0.202454
O22	O	0.204059	-0.505847	0.702454
O23	O	-0.295893	-0.886572	0.321749
O24	O	0.204107	-0.386572	0.821749
O25	O	-0.382309	-1.002246	0.535064
O26	O	0.117691	-0.502246	1.035064
O27	O	-0.382322	-0.882912	0.415750
O28	O	0.117678	-0.382912	0.915750
O29	O	-0.295871	-1.096323	0.531465
O30	O	0.204129	-0.596323	1.031465
O31	O	-0.496476	-1.087731	0.330131
O32	O	0.003524	-0.587731	0.830131
O33	O	-0.496440	-0.997357	0.420519
O34	O	0.003560	-0.497357	0.920519
C35	C	-0.339104	-0.858039	0.368747
C36	C	0.160896	-0.358039	0.868747
C37	C	-0.339110	-0.776240	0.368759
C38	C	0.160890	-0.276240	0.868759
C39	C	-0.294169	-0.589970	0.414027
C40	C	0.205831	-0.089970	0.914027
C41	C	-0.294173	-0.513111	0.414029
C42	C	0.205827	-0.013111	0.914029
C43	C	-0.384084	-0.509271	0.323504
C44	C	0.115916	-0.009271	0.823504
C45	C	-0.384076	-0.586129	0.323499
C46	C	0.115924	-0.086129	0.823499
C47	C	-0.339120	-0.626476	0.368764
C48	C	0.160880	-0.126476	0.868764
C49	C	-0.339131	-0.472760	0.368772
C50	C	0.160869	0.027240	0.868772
C51	C	-0.339136	-0.389426	0.368774
C52	C	0.160864	0.110574	0.868774
C53	C	-0.339114	-0.709815	0.368761
C54	C	0.160886	-0.209815	0.868761
C55	C	-0.521995	-1.041476	0.376406
C56	C	-0.021995	-0.541476	0.876406
C57	C	-0.600225	-1.038220	0.379701
C58	C	-0.100225	-0.538220	0.879701
C59	C	-0.636973	-1.083780	0.334228
C60	C	-0.136973	-0.583780	0.834228
C61	C	-0.710478	-1.080722	0.337331
C62	C	-0.210478	-0.580722	0.837331
C63	C	-0.747234	-1.032100	0.385904
C64	C	-0.247234	-0.532100	0.885904
C65	C	-0.710481	-0.986539	0.431382
C66	C	-0.210481	-0.486539	0.931382
C67	C	-0.636977	-0.989601	0.428282
C68	C	-0.136977	-0.489601	0.928282
C69	C	-0.967067	-1.017896	0.400221
C70	C	-0.467067	-0.517896	0.900221
C71	C	-1.040576	-1.014835	0.403315
C72	C	-0.540576	-0.514835	0.903315
C73	C	-1.040569	-1.109020	0.309265
C74	C	-0.540569	-0.609020	0.809265
C75	C	-0.967063	-1.112074	0.306166
C76	C	-0.467063	-0.612074	0.806166
C77	C	-0.930317	-1.066516	0.351647
C78	C	-0.430317	-0.566516	0.851647
N79	N	-0.822368	-1.028971	0.389075
N80	N	-0.322368	-0.528971	0.889075
N81	N	-0.855184	-1.069649	0.348479
N82	N	-0.355184	-0.569649	0.848479
C83	C	-0.155554	-1.057063	0.361105
C84	C	0.344446	-0.557063	0.861105
C85	C	-0.077324	-1.060395	0.357842
C86	C	0.422676	-0.560395	0.857842
C87	C	-0.339083	-1.049291	0.560714
C88	C	0.160917	-0.549291	1.060714
C89	C	-0.339063	-1.049311	0.642512
C90	C	0.160937	-0.549311	1.142512
C91	C	-0.339152	-0.241196	0.368777
C92	C	0.160848	0.258804	0.868777
C93	C	-0.339141	-0.322996	0.368777
C94	C	0.160859	0.177004	0.868777
C95	C	-0.339129	-1.049242	0.177556
C96	C	0.160871	-0.549242	0.677556
C97	C	-0.338952	-1.049373	0.095750
C98	C	0.161048	-0.549373	0.595750
C99	C	-0.294012	-1.098316	0.828831
C100	C	0.205988	-0.598316	1.328831
C101	C	-0.293991	-1.098326	0.905689
C102	C	0.206009	-0.598326	1.405689
C103	C	-0.384004	-1.000363	0.909425
C104	C	0.115996	-0.500363	1.409425
C105	C	-0.384021	-1.000350	0.832569
C106	C	0.115979	-0.500350	1.332569
C107	C	-0.339026	-1.049331	0.792274
C108	C	0.160974	-0.549331	1.292274
C109	C	-0.338989	-1.049353	0.945988
C110	C	0.161011	-0.549353	1.445988
C111	C	-0.338967	-1.049363	1.029321
C112	C	0.161033	-0.549363	1.529321
C113	C	-0.339046	-1.049320	0.708936
C114	C	0.160954	-0.549320	1.208936
H115	H	-0.607051	-1.123369	0.294671
H116	H	-0.107051	-0.623369	0.794671
H117	H	-0.420639	-0.960486	0.942243
H118	H	0.079361	-0.460486	1.442243
H119	H	-0.257336	-1.138213	0.935451
H120	H	0.242664	-0.638213	1.435451
H121	H	-0.257568	-0.483392	0.450885
H122	H	0.242432	0.016608	0.950885
H123	H	-0.420686	-0.476411	0.286651
H124	H	0.079314	0.023589	0.786651
C125	C	-0.244510	-1.152190	0.784509
C126	C	0.255490	-0.652190	1.284509
N127	N	-0.207221	-1.192767	0.751128
N128	N	0.292779	-0.692767	1.251128
C129	C	-0.750898	-1.130836	0.287302
C130	C	-0.250898	-0.630836	0.787302
N131	N	-0.781341	-1.168584	0.249616
N132	N	-0.281341	-0.668584	0.749616
H133	H	-0.420681	-0.615852	0.286637
H134	H	0.079319	-0.115852	0.786637
H135	H	-0.937138	-1.151666	0.266614
H136	H	-0.437138	-0.651666	0.766614
C137	C	-0.433540	-0.946458	0.792353
C138	C	0.066460	-0.446458	1.292353
N139	N	-0.470834	-0.905866	0.762062
N140	N	0.029166	-0.405866	1.262062
H141	H	-0.740413	-0.946953	0.470934
H142	H	-0.240413	-0.446953	0.970934
H143	H	-0.607058	-0.952503	0.465312
H144	H	-0.107058	-0.452503	0.965312
H145	H	-1.070496	-1.146112	0.272238
H146	H	-0.570496	-0.646112	0.772238
C147	C	-0.244710	-0.634350	0.463813
C148	C	0.255290	-0.134350	0.963813
N149	N	-0.207453	-0.667775	0.501311
N150	N	0.292547	-0.167775	1.001311
H151	H	-1.070501	-0.975250	0.442882
H152	H	-0.570501	-0.475250	0.942882
C153	C	-0.926656	-0.967817	0.450289
C154	C	-0.426656	-0.467817	0.950289
N155	N	-0.896215	-0.930109	0.488017
N156	N	-0.396215	-0.430109	0.988017
