data_functionalizedCrystal
_audit_creation_method	'MofGen! by Chris Wilmer'
_symmetry_space_group_name_H-M	'P1'
_symmetry_Int_Tables_number	1
_symmetry_cell_setting	triclinic
loop_
_symmetry_equiv_pos_as_xyz
  x,y,z
_cell_length_a	11.792254
_cell_length_b	11.792254
_cell_length_c	9.130313
_cell_angle_alpha	89.995304
_cell_angle_beta	89.996532
_cell_angle_gamma	84.198598
loop_
_atom_site_label
_atom_site_type_symbol
_atom_site_fract_x
_atom_site_fract_y
_atom_site_fract_z
O1	O	1.506906	0.155635	-0.121799
O2	O	2.006906	0.655635	0.378201
O3	O	1.176567	0.171653	-0.121802
O4	O	1.676567	0.671653	0.378198
O5	O	1.349745	-0.001525	-0.121790
O6	O	1.849745	0.498475	0.378210
O7	O	1.333728	0.328813	-0.121811
O8	O	1.833728	0.828813	0.378189
O9	O	1.349733	-0.001530	0.121809
O10	O	1.849733	0.498470	0.621809
O11	O	1.176555	0.171648	0.121797
O12	O	1.676555	0.671648	0.621797
O13	O	1.506894	0.155630	0.121800
O14	O	2.006894	0.655630	0.621800
Cu15	Cu	1.341723	0.163639	0.144041
Cu16	Cu	1.841723	0.663639	0.644041
Cu17	Cu	1.341738	0.163645	-0.144043
Cu18	Cu	1.841738	0.663645	0.355957
O19	O	1.333716	0.328808	0.121788
O20	O	1.833716	0.828808	0.621788
C21	C	1.134271	0.170642	-0.000003
C22	C	1.634271	0.670642	0.499997
C23	C	1.008257	0.167621	-0.000004
C24	C	1.508257	0.667621	0.499996
C25	C	0.905921	0.165168	-0.000010
C26	C	1.405921	0.665168	0.499990
C27	C	0.777534	0.162099	-0.000011
C28	C	1.277534	0.662099	0.499989
C29	C	1.348730	-0.043818	0.000009
C30	C	1.848730	0.456182	0.500009
C31	C	1.345710	-0.169832	0.000008
C32	C	1.845710	0.330168	0.500008
C33	C	1.343256	-0.272168	0.000002
C34	C	1.843256	0.227832	0.500002
C35	C	1.340188	-0.400555	-0.000011
C36	C	1.840188	0.099445	0.499989
C37	C	1.549190	0.156642	-0.000002
C38	C	2.049190	0.656642	0.499998
C39	C	1.675204	0.159662	-0.000011
C40	C	2.175204	0.659662	0.499989
C41	C	1.334731	0.371102	-0.000014
C42	C	1.834731	0.871102	0.499986
C43	C	1.337751	0.497115	-0.000022
C44	C	1.837751	0.997115	0.499978
N45	N	1.341722	0.163634	0.346664
N46	N	1.841722	0.663634	0.846664
N47	N	1.341748	0.163641	-0.346666
N48	N	1.841748	0.663641	0.153334
C49	C	1.418431	0.086983	0.423321
C50	C	1.918431	0.586983	0.923321
C51	C	1.418442	0.086983	0.576658
C52	C	1.918442	0.586983	1.076658
C53	C	1.265031	0.240295	0.576666
C54	C	1.765031	0.740295	1.076666
C55	C	1.265015	0.240288	0.423332
C56	C	1.765015	0.740288	0.923332
H57	H	1.480889	0.024564	0.360901
H58	H	1.980889	0.524564	0.860901
H59	H	1.480904	0.024566	0.639068
H60	H	1.980904	0.524566	1.139068
C61	C	1.180671	0.324619	0.661007
C62	C	1.680671	0.824619	1.161007
H63	H	1.191674	0.313654	0.763307
H64	H	1.691674	0.813654	1.263307
H65	H	1.104845	0.311780	0.635904
H66	H	1.604845	0.811780	1.135904
H67	H	1.193469	0.400455	0.635855
H68	H	1.693469	0.900455	1.135855
H69	H	1.202544	0.302707	0.360914
H70	H	1.702544	0.802707	0.860914
