data_functionalizedCrystal
_audit_creation_method	'MofGen! by Chris Wilmer'
_symmetry_space_group_name_H-M	'P1'
_symmetry_Int_Tables_number	1
_symmetry_cell_setting	triclinic
loop_
_symmetry_equiv_pos_as_xyz
  x,y,z
_cell_length_a	8.597340
_cell_length_b	11.792254
_cell_length_c	7.088929
_cell_angle_alpha	83.733108
_cell_angle_beta	103.954719
_cell_angle_gamma	84.768620
loop_
_atom_site_label
_atom_site_type_symbol
_atom_site_fract_x
_atom_site_fract_y
_atom_site_fract_z
O1	O	2.102726	0.155871	0.187394
O2	O	1.638204	0.174399	0.110869
O3	O	1.881728	-0.000096	0.151001
O4	O	1.859201	0.330366	0.147262
O5	O	1.914273	-0.023468	0.474339
O6	O	1.670748	0.151027	0.434207
O7	O	2.135270	0.132499	0.510732
Cu8	Cu	1.905981	0.139629	0.501993
Cu9	Cu	1.867493	0.167269	0.119608
O10	O	1.891746	0.306994	0.470601
C11	C	1.595007	0.162025	0.262741
C12	C	1.417808	0.159962	0.233550
C13	C	1.896582	-0.054065	0.312435
C14	C	1.892334	-0.180055	0.311734
C15	C	1.888883	-0.282373	0.311159
C16	C	1.884567	-0.410735	0.310430
C17	C	2.178466	0.144873	0.358856
C18	C	2.355664	0.146937	0.388034
C19	C	1.876892	0.360963	0.309162
C20	C	1.881138	0.486954	0.309850
N21	N	1.933062	0.120187	0.770944
N22	N	1.840425	0.186701	-0.149341
H23	H	1.335439	0.169537	0.078940
C24	C	2.144019	-0.031270	0.785987
C25	C	2.062686	0.027132	0.902520
H26	H	2.224046	-0.088713	0.867220
H27	H	2.069200	-0.066287	0.695610
H28	H	2.193993	0.021583	0.716123
H29	H	2.012702	-0.025720	0.972373
H30	H	2.137517	0.062148	0.992932
H31	H	1.438026	0.137355	0.542635
H32	H	1.744417	0.255629	0.753192
