data_functionalizedCrystal
_audit_creation_method	'MofGen! by Chris Wilmer'
_symmetry_space_group_name_H-M	'P1'
_symmetry_Int_Tables_number	1
_symmetry_cell_setting	triclinic
loop_
_symmetry_equiv_pos_as_xyz
  x,y,z
_cell_length_a	19.805407
_cell_length_b	18.101397
_cell_length_c	19.805399
_cell_angle_alpha	89.970675
_cell_angle_beta	89.979591
_cell_angle_gamma	90.022406
loop_
_atom_site_label
_atom_site_type_symbol
_atom_site_fract_x
_atom_site_fract_y
_atom_site_fract_z
Zn1	Zn	1.034764	-0.294808	-0.382727
Zn2	Zn	1.368097	0.038525	-0.049393
Zn3	Zn	1.701430	0.371858	0.283940
Zn4	Zn	1.034690	-0.418652	-0.269535
Zn5	Zn	1.368024	-0.085319	0.063798
Zn6	Zn	1.701357	0.248015	0.397132
Zn7	Zn	0.921578	-0.294833	-0.269550
Zn8	Zn	1.254912	0.038500	0.063784
Zn9	Zn	1.588245	0.371834	0.397117
Zn10	Zn	0.921554	-0.418617	-0.382680
Zn11	Zn	1.254887	-0.085283	-0.049347
Zn12	Zn	1.588220	0.248050	0.283987
O13	O	0.978146	-0.356728	-0.326123
O14	O	1.311480	-0.023394	0.007211
O15	O	1.644813	0.309939	0.340544
O16	O	1.129470	-0.311241	-0.367725
O17	O	1.462804	0.022092	-0.034391
O18	O	1.796137	0.355426	0.298942
O19	O	1.019665	-0.402252	-0.174820
O20	O	1.352999	-0.068919	0.158513
O21	O	1.686332	0.264415	0.491846
O22	O	0.936634	-0.191197	-0.284588
O23	O	1.269967	0.142136	0.048745
O24	O	1.603300	0.475470	0.382078
O25	O	1.129417	-0.402228	-0.284563
O26	O	1.462750	-0.068895	0.048770
O27	O	1.796083	0.264438	0.382103
O28	O	1.019790	-0.191179	-0.367739
O29	O	1.353124	0.142155	-0.034406
O30	O	1.686457	0.475488	0.298928
O31	O	0.936562	-0.311283	-0.174831
O32	O	1.269896	0.022050	0.158502
O33	O	1.603229	0.355384	0.491836
O34	O	0.826858	-0.311249	-0.284543
O35	O	1.160192	0.022085	0.048790
O36	O	1.493525	0.355418	0.382124
O37	O	0.936591	-0.402168	-0.477403
O38	O	1.269925	-0.068835	-0.144069
O39	O	1.603258	0.264498	0.189264
O40	O	0.826840	-0.402192	-0.367660
O41	O	1.160174	-0.068859	-0.034326
O42	O	1.493507	0.264474	0.299007
O43	O	1.019766	-0.311207	-0.477437
O44	O	1.353100	0.022127	-0.144104
O45	O	1.686433	0.355460	0.189230
O46	O	1.019641	-0.522280	-0.284518
O47	O	1.352975	-0.188947	0.048815
O48	O	1.686308	0.144386	0.382148
O49	O	0.936520	-0.522254	-0.367645
O50	O	1.269854	-0.188921	-0.034312
O51	O	1.603187	0.144412	0.299021
C52	C	0.802290	-0.356720	-0.326098
C53	C	1.135624	-0.023387	0.007235
C54	C	1.468957	0.309947	0.340568
C55	C	0.727058	-0.356734	-0.326104
C56	C	1.060392	-0.023401	0.007229
C57	C	1.393725	0.309932	0.340563
C58	C	0.265299	-0.309439	-0.369517
C59	C	0.598632	0.023894	-0.036184
C60	C	0.931966	0.357228	0.297149
C61	C	0.335987	-0.309440	-0.369512
C62	C	0.669321	0.023893	-0.036179
C63	C	1.002654	0.357226	0.297154
C64	C	0.371297	-0.356739	-0.326145
C65	C	0.704630	-0.023405	0.007189
C66	C	1.037963	0.309928	0.340522
C67	C	0.335914	-0.404044	-0.282784
C68	C	0.669247	-0.070711	0.050550
C69	C	1.002581	0.262622	0.383883
C70	C	0.265227	-0.404046	-0.282792
C71	C	0.598560	-0.070713	0.050541
C72	C	0.931893	0.262621	0.383874
C73	C	0.620987	-0.404039	-0.282748
C74	C	0.954321	-0.070705	0.050586
C75	C	1.287654	0.262628	0.383919
C76	C	0.691679	-0.404031	-0.282741
C77	C	1.025013	-0.070698	0.050592
C78	C	1.358346	0.262635	0.383926
C79	C	0.691748	-0.309433	-0.369468
C80	C	1.025081	0.023900	-0.036135
C81	C	1.358415	0.357234	0.297199
C82	C	0.621061	-0.309435	-0.369477
C83	C	0.954394	0.023899	-0.036143
C84	C	1.287727	0.357232	0.297190
C85	C	0.585684	-0.356743	-0.326118
C86	C	0.919017	-0.023409	0.007215
C87	C	1.252351	0.309924	0.340548
C88	C	0.509036	-0.356742	-0.326125
C89	C	0.842369	-0.023408	0.007208
C90	C	1.175702	0.309925	0.340541
C91	C	0.447944	-0.356737	-0.326134
C92	C	0.781277	-0.023403	0.007199
C93	C	1.114610	0.309930	0.340533
C94	C	0.978089	-0.549138	-0.326090
C95	C	1.311422	-0.215805	0.007243
C96	C	1.644755	0.117529	0.340577
C97	C	0.978126	-0.631452	-0.326099
C98	C	1.311459	-0.298119	0.007235
C99	C	1.644792	0.035214	0.340568
C100	C	0.978212	-0.930543	-0.326160
C101	C	1.311545	-0.597210	0.007173
C102	C	1.644879	-0.263876	0.340506
C103	C	1.030364	-0.899203	-0.273719
C104	C	1.363697	-0.565870	0.059615
C105	C	1.697030	-0.232537	0.392948
C106	C	1.030544	-0.813585	-0.273855
C107	C	1.363878	-0.480251	0.059479
C108	C	1.697211	-0.146918	0.392812
C109	C	0.978169	-0.782161	-0.326129
C110	C	1.311503	-0.448827	0.007204
C111	C	1.644836	-0.115494	0.340538
C112	C	0.997504	-0.813169	-0.397474
C113	C	1.330838	-0.479836	-0.064141
C114	C	1.664171	-0.146502	0.269192
C115	C	0.997908	-0.898814	-0.397189
C116	C	1.331241	-0.565480	-0.063855
C117	C	1.664575	-0.232147	0.269478
C118	C	0.906586	-0.899054	-0.307874
C119	C	1.239919	-0.565721	0.025459
C120	C	1.573253	-0.232388	0.358793
C121	C	0.906940	-0.813405	-0.306282
C122	C	1.240273	-0.480071	0.027052
C123	C	1.573606	-0.146738	0.360385
C124	C	0.978144	-0.698301	-0.326116
C125	C	1.311477	-0.364968	0.007218
C126	C	1.644811	-0.031634	0.340551
C127	C	0.978239	-1.014403	-0.326178
C128	C	1.311572	-0.681069	0.007155
C129	C	1.644906	-0.347736	0.340488
C130	C	1.154689	-0.356736	-0.326148
C131	C	1.488022	-0.023402	0.007186
C132	C	1.821356	0.309931	0.340519
C133	C	1.229921	-0.356739	-0.326158
C134	C	1.563254	-0.023406	0.007175
C135	C	1.896588	0.309927	0.340508
C136	C	0.978184	-0.356681	-0.502666
C137	C	1.311518	-0.023348	-0.169332
C138	C	1.644851	0.309986	0.164001
C139	C	0.978201	-0.356661	-0.577898
C140	C	1.311534	-0.023328	-0.244564
C141	C	1.644867	0.310006	0.088769
C142	C	0.978223	-0.163566	-0.326170
C143	C	1.311556	0.169768	0.007163
C144	C	1.644890	0.503101	0.340496
C145	C	0.978256	-0.081252	-0.326191
C146	C	1.311589	0.252082	0.007142
C147	C	1.644922	0.585415	0.340476
C148	C	1.021511	-0.309295	-0.613261
C149	C	1.354844	0.024038	-0.279927
C150	C	1.688177	0.357372	0.053406
C151	C	1.021518	-0.309274	-0.683949
C152	C	1.354851	0.024060	-0.350616
C153	C	1.688184	0.357393	-0.017282
C154	C	0.978217	-0.356622	-0.719273
C155	C	1.311551	-0.023289	-0.385940
C156	C	1.644884	0.310044	-0.052607
C157	C	0.934902	-0.403990	-0.683905
C158	C	1.268236	-0.070657	-0.350572
C159	C	1.601569	0.262676	-0.017239
C160	C	0.934893	-0.404008	-0.613218
C161	C	1.268226	-0.070674	-0.279885
C162	C	1.601559	0.262659	0.053449
C163	C	0.934941	-0.403921	-0.968979
C164	C	1.268274	-0.070588	-0.635645
C165	C	1.601607	0.262745	-0.302312
C166	C	0.934955	-0.403902	-1.039671
C167	C	1.268289	-0.070569	-0.706337
C168	C	1.601622	0.262765	-0.373004
C169	C	1.021566	-0.309187	-1.039710
C170	C	1.354899	0.024146	-0.706376
C171	C	1.688232	0.357479	-0.373043
C172	C	1.021556	-0.309204	-0.969023
C173	C	1.354889	0.024129	-0.635689
C174	C	1.688223	0.357462	-0.302356
C175	C	0.978239	-0.356569	-0.933661
C176	C	1.311572	-0.023236	-0.600327
C177	C	1.644905	0.310097	-0.266994
C178	C	0.978231	-0.356591	-0.857012
C179	C	1.311564	-0.023258	-0.523679
C180	C	1.644897	0.310075	-0.190346
C181	C	0.978228	-0.356605	-0.795920
C182	C	1.311562	-0.023272	-0.462587
C183	C	1.644895	0.310062	-0.129254
C184	C	0.978148	-0.356721	-0.150267
C185	C	1.311481	-0.023387	0.183067
C186	C	1.644814	0.309946	0.516400
C187	C	0.978263	-0.356532	-0.075035
C188	C	1.311596	-0.023198	0.258298
C189	C	1.644929	0.310135	0.591632
H190	H	0.364789	-0.270926	-0.404822
H191	H	0.698122	0.062407	-0.071489
H192	H	1.031456	0.395740	0.261845
H193	H	0.720560	-0.270915	-0.404774
H194	H	1.053893	0.062419	-0.071441
H195	H	1.387227	0.395752	0.261892
H196	H	0.960681	-0.792812	-0.437598
H197	H	1.294014	-0.459479	-0.104265
H198	H	1.627348	-0.126145	0.229069
H199	H	1.056787	-0.270705	-0.712739
H200	H	1.390120	0.062628	-0.379405
H201	H	1.723453	0.395962	-0.046072
F202	F	0.888866	-0.454299	-1.077264
F203	F	1.222200	-0.120966	-0.743931
F204	F	1.555533	0.212367	-0.410597
H205	H	0.364668	-0.442558	-0.247475
H206	H	0.698002	-0.109225	0.085858
H207	H	1.031335	0.224108	0.419191
F208	F	1.014698	-0.786183	-0.204717
F209	F	1.348031	-0.452850	0.128616
F210	F	1.681365	-0.119516	0.461950
F211	F	0.883593	-0.927366	-0.241053
F212	F	1.216927	-0.594032	0.092280
F213	F	1.550260	-0.260699	0.425613
H214	H	0.961587	-0.919543	-0.437608
H215	H	1.294920	-0.586209	-0.104275
H216	H	1.628254	-0.252876	0.229058
H217	H	0.720426	-0.442551	-0.247424
H218	H	1.053759	-0.109218	0.085909
H219	H	1.387093	0.224116	0.419242
F220	F	0.583346	-0.454371	-0.236587
F221	F	0.916679	-0.121038	0.096747
F222	F	1.250012	0.212296	0.430080
F223	F	1.014748	-0.926188	-0.204364
F224	F	1.348082	-0.592854	0.128969
F225	F	1.681415	-0.259521	0.462302
F226	F	0.855797	-0.925547	-0.357796
F227	F	1.189130	-0.592214	-0.024463
F228	F	1.522463	-0.258880	0.308870
H229	H	1.049274	-0.791660	-0.413225
H230	H	1.382607	-0.458326	-0.079892
H231	H	1.715940	-0.124993	0.253441
F232	F	1.067666	-0.258774	-1.077350
F233	F	1.400999	0.074559	-0.744017
F234	F	1.734333	0.407892	-0.410683
H235	H	0.899644	-0.442540	-0.712672
H236	H	1.232977	-0.109207	-0.379338
H237	H	1.566311	0.224127	-0.046005
F238	F	0.227575	-0.454394	-0.236648
F239	F	0.560909	-0.121061	0.096685
F240	F	0.894242	0.212272	0.430018
H241	H	1.083130	-0.920670	-0.285679
H242	H	1.416464	-0.587336	0.047655
H243	H	1.749797	-0.254003	0.380988
H244	H	0.899679	-0.442500	-0.940196
H245	H	1.233012	-0.109166	-0.606862
H246	H	1.566346	0.224167	-0.273529
F247	F	1.067644	-0.258812	-0.931432
F248	F	1.400978	0.074521	-0.598098
F249	F	1.734311	0.407855	-0.264765
F250	F	0.888794	-0.454419	-0.575582
F251	F	1.222128	-0.121086	-0.242249
F252	F	1.555461	0.212247	0.091084
H253	H	1.050263	-0.918731	-0.412678
H254	H	1.383597	-0.585398	-0.079345
H255	H	1.716930	-0.252065	0.253989
F256	F	0.227726	-0.259093	-0.415673
F257	F	0.561060	0.074241	-0.082339
F258	F	0.894393	0.407574	0.250994
F259	F	0.887879	-0.786921	-0.237656
F260	F	1.221213	-0.453588	0.095677
F261	F	1.554546	-0.120255	0.429010
H262	H	0.865993	-0.792022	-0.341680
H263	H	1.199326	-0.458688	-0.008347
H264	H	1.532660	-0.125355	0.324987
F265	F	1.099893	-0.786727	-0.289672
F266	F	1.433226	-0.453394	0.043661
F267	F	1.766559	-0.120061	0.376995
H268	H	0.592315	-0.270917	-0.404789
H269	H	0.925649	0.062417	-0.071456
H270	H	1.258982	0.395750	0.261878
F271	F	1.067601	-0.258903	-0.575672
F272	F	1.400934	0.074431	-0.242339
F273	F	1.734268	0.407764	0.090994
