data_functionalizedCrystal
_audit_creation_method	'MofGen! by Chris Wilmer'
_symmetry_space_group_name_H-M	'P1'
_symmetry_Int_Tables_number	1
_symmetry_cell_setting	triclinic
loop_
_symmetry_equiv_pos_as_xyz
  x,y,z
_cell_length_a	14.971486
_cell_length_b	13.448316
_cell_length_c	14.971486
_cell_angle_alpha	90.007486
_cell_angle_beta	83.614129
_cell_angle_gamma	89.996448
loop_
_atom_site_label
_atom_site_type_symbol
_atom_site_fract_x
_atom_site_fract_y
_atom_site_fract_z
O1	O	-1.186940	-0.082578	-0.116566
O2	O	-0.686940	0.417422	0.383434
O3	O	-0.926540	-0.082605	-0.130525
O4	O	-0.426540	0.417395	0.369475
O5	O	-1.063720	-0.082584	0.006654
O6	O	-0.563720	0.417416	0.506654
O7	O	-1.049761	-0.082599	-0.253746
O8	O	-0.549761	0.417401	0.246254
O9	O	-1.063717	0.082800	0.006666
O10	O	-0.563717	0.582800	0.506666
O11	O	-0.926537	0.082779	-0.130513
O12	O	-0.426537	0.582779	0.369487
O13	O	-1.186937	0.082806	-0.116555
O14	O	-0.686937	0.582806	0.383445
Cu15	Cu	-1.056737	0.097893	-0.123533
Cu16	Cu	-0.556737	0.597893	0.376467
Cu17	Cu	-1.056740	-0.097692	-0.123547
Cu18	Cu	-0.556740	0.402308	0.376453
O19	O	-1.049758	0.082784	-0.253734
O20	O	-0.549758	0.582784	0.246266
C21	C	-0.893214	0.000083	-0.129895
C22	C	-0.393214	0.500083	0.370105
C23	C	-0.793917	0.000073	-0.128024
C24	C	-0.293917	0.500073	0.371976
N25	N	-1.056744	-0.235257	-0.123550
N26	N	-0.556744	0.264743	0.376450
C27	C	-1.220263	0.000115	-0.117185
C28	C	-0.720263	0.500115	0.382815
C29	C	-1.319561	0.000119	-0.119056
C30	C	-0.819561	0.500119	0.380944
C31	C	-1.063094	0.000108	0.039985
C32	C	-0.563094	0.500108	0.539985
C33	C	-1.061223	0.000107	0.139282
C34	C	-0.561223	0.500107	0.639282
C35	C	-0.736692	0.000070	-0.208614
C36	C	-0.236692	0.500070	0.291386
C37	C	-0.643392	0.000085	-0.206850
C38	C	-0.143392	0.500085	0.293150
C39	C	-0.607320	0.000096	-0.124497
C40	C	-0.107320	0.500096	0.375503
C41	C	-0.664552	0.000102	-0.043902
C42	C	-0.164552	0.500102	0.456098
C43	C	-0.757850	0.000095	-0.045666
C44	C	-0.257850	0.500095	0.454334
C45	C	-0.470090	0.000116	-0.040231
C46	C	0.029910	0.500116	0.459769
C47	C	-0.376786	0.000122	-0.038466
C48	C	0.123214	0.500122	0.461534
C49	C	-0.355632	0.000106	-0.201415
C50	C	0.144368	0.500106	0.298585
C51	C	-0.448930	0.000099	-0.203179
C52	C	0.051070	0.500099	0.296821
C53	C	-0.506156	0.000103	-0.122584
C54	C	-0.006156	0.500103	0.377416
C55	C	-1.117600	-0.287288	-0.062927
C56	C	-0.617600	0.212712	0.437073
C57	C	-1.117604	-0.391391	-0.062924
C58	C	-0.617604	0.108609	0.437076
C59	C	-1.056746	-0.443461	-0.123542
C60	C	-0.556746	0.056539	0.376458
C61	C	-0.995887	-0.391423	-0.184171
C62	C	-0.495887	0.108577	0.315829
C63	C	-0.995888	-0.287322	-0.184177
C64	C	-0.495888	0.212678	0.315823
C65	C	-0.995887	-0.608403	-0.184153
C66	C	-0.495887	-0.108403	0.315847
C67	C	-0.995884	-0.712512	-0.184146
C68	C	-0.495884	-0.212512	0.315854
C69	C	-1.117603	-0.712472	-0.062900
C70	C	-0.617603	-0.212472	0.437100
C71	C	-1.117604	-0.608371	-0.062906
C72	C	-0.617604	-0.108371	0.437094
C73	C	-1.056743	-0.556340	-0.123535
C74	C	-0.556743	-0.056340	0.376465
N75	N	-1.056741	0.235457	-0.123523
N76	N	-0.556741	0.735457	0.376477
C77	C	-1.050384	0.000091	-0.287065
C78	C	-0.550384	0.500091	0.212935
C79	C	-1.052254	0.000085	-0.386362
C80	C	-0.552254	0.500085	0.113638
C81	C	-1.141812	0.000116	0.196507
C82	C	-0.641812	0.500116	0.696507
C83	C	-1.140049	0.000106	0.289807
C84	C	-0.640049	0.500106	0.789807
C85	C	-1.057696	0.000093	0.325879
C86	C	-0.557696	0.500093	0.825879
C87	C	-0.977101	0.000081	0.268646
C88	C	-0.477101	0.500081	0.768646
C89	C	-0.978865	0.000084	0.175349
C90	C	-0.478865	0.500084	0.675349
C91	C	-0.973430	0.000077	0.463109
C92	C	-0.473430	0.500077	0.963109
C93	C	-0.971665	0.000076	0.556413
C94	C	-0.471665	0.500076	1.056413
C95	C	-1.134614	0.000099	0.577567
C96	C	-0.634614	0.500099	1.077567
C97	C	-1.136378	0.000102	0.484269
C98	C	-0.636378	0.500102	0.984269
C99	C	-1.055782	0.000091	0.427043
C100	C	-0.555782	0.500091	0.927043
H101	H	-0.766054	0.000060	-0.275675
H102	H	-0.266054	0.500060	0.224325
F103	F	-1.224028	0.000112	0.445880
F104	F	-0.724028	0.500112	0.945880
H105	H	-0.946334	-0.244959	-0.233544
H106	H	-0.446334	0.255041	0.266456
F107	F	-1.220391	0.000105	0.638472
F108	F	-0.720391	0.500105	1.138472
F109	F	-1.182375	-0.446766	0.001596
F110	F	-0.682375	0.053234	0.501596
H111	H	-1.167155	-0.565975	-0.013543
H112	H	-0.667155	-0.065975	0.486457
H113	H	-1.208874	0.000132	0.167145
H114	H	-0.708874	0.500132	0.667145
H115	H	-0.516682	0.000121	0.025399
H116	H	-0.016682	0.500121	0.525399
H117	H	-0.347419	0.000133	0.028593
H118	H	0.152581	0.500133	0.528593
F119	F	-1.225824	0.000117	0.350707
F120	F	-0.725824	0.500117	0.850707
H121	H	-1.167154	-0.244899	-0.013562
H122	H	-0.667154	0.255101	0.486438
F123	F	-0.887650	0.000064	0.402206
F124	F	-0.387650	0.500064	0.902206
F125	F	-0.294727	0.000103	-0.287192
F126	F	0.205273	0.500103	0.212808
F127	F	-0.889454	0.000057	0.307040
F128	F	-0.389454	0.500057	0.807040
F129	F	-1.182374	-0.767851	0.001626
F130	F	-0.682374	-0.267851	0.501626
H131	H	-0.596802	0.000081	-0.272474
H132	H	-0.096802	0.500081	0.227526
H133	H	-0.913240	0.000077	0.128756
H134	H	-0.413240	0.500077	0.628756
F135	F	-0.931114	-0.553032	-0.248685
F136	F	-0.431114	-0.053032	0.251315
H137	H	-0.478296	0.000080	-0.270239
H138	H	0.021704	0.500080	0.229761
F139	F	-0.931112	-0.767922	-0.248665
F140	F	-0.431112	-0.267922	0.251335
F141	F	-0.931121	-0.446841	-0.248690
F142	F	-0.431121	0.053159	0.251310
H143	H	-0.635175	0.000126	0.023152
H144	H	-0.135175	0.500126	0.523152
F145	F	-0.818754	0.000102	0.040108
F146	F	-0.318754	0.500102	0.540108
H147	H	-0.904606	0.000082	0.585780
H148	H	-0.404606	0.500082	1.085780
