data_functionalizedCrystal
_audit_creation_method	'MofGen! by Chris Wilmer'
_symmetry_space_group_name_H-M	'P1'
_symmetry_Int_Tables_number	1
_symmetry_cell_setting	triclinic
loop_
_symmetry_equiv_pos_as_xyz
  x,y,z
_cell_length_a	19.077236
_cell_length_b	19.076808
_cell_length_c	17.077396
_cell_angle_alpha	87.670636
_cell_angle_beta	87.678825
_cell_angle_gamma	94.519737
loop_
_atom_site_label
_atom_site_type_symbol
_atom_site_fract_x
_atom_site_fract_y
_atom_site_fract_z
Zn1	Zn	1.066467	-0.237459	-0.481060
Zn2	Zn	1.399801	0.095875	-0.147726
Zn3	Zn	1.733134	0.429208	0.185607
Zn4	Zn	1.061642	-0.355362	-0.344287
Zn5	Zn	1.394975	-0.022029	-0.010954
Zn6	Zn	1.728309	0.311304	0.322379
Zn7	Zn	0.948576	-0.242210	-0.344303
Zn8	Zn	1.281909	0.091124	-0.010969
Zn9	Zn	1.615243	0.424457	0.322364
Zn10	Zn	0.943808	-0.360045	-0.470012
Zn11	Zn	1.277141	-0.026711	-0.136678
Zn12	Zn	1.610475	0.306622	0.196655
O13	O	1.005123	-0.298769	-0.409915
O14	O	1.338457	0.034564	-0.076582
O15	O	1.671790	0.367898	0.256751
O16	O	1.164479	-0.249151	-0.467534
O17	O	1.497813	0.084182	-0.134200
O18	O	1.831146	0.417516	0.199133
O19	O	1.046620	-0.340381	-0.234440
O20	O	1.379953	-0.007048	0.098893
O21	O	1.713286	0.326285	0.432227
O22	O	0.968229	-0.142922	-0.367074
O23	O	1.301563	0.190411	-0.033740
O24	O	1.634896	0.523745	0.299593
O25	O	1.160934	-0.335775	-0.367048
O26	O	1.494267	-0.002441	-0.033714
O27	O	1.827601	0.330892	0.299619
O28	O	1.054844	-0.139431	-0.467548
O29	O	1.388177	0.193902	-0.134215
O30	O	1.721510	0.527235	0.199118
O31	O	0.963550	-0.257248	-0.234451
O32	O	1.296884	0.076085	0.098882
O33	O	1.630217	0.409418	0.432215
O34	O	0.849291	-0.261788	-0.356361
O35	O	1.182625	0.071545	-0.023028
O36	O	1.515958	0.404878	0.310306
O37	O	0.960103	-0.343755	-0.581327
O38	O	1.293436	-0.010421	-0.247993
O39	O	1.626770	0.322912	0.085340
O40	O	0.845788	-0.348361	-0.448719
O41	O	1.179122	-0.015028	-0.115386
O42	O	1.512455	0.318305	0.217948
O43	O	1.050220	-0.253691	-0.589443
O44	O	1.383554	0.079642	-0.256110
O45	O	1.716887	0.412975	0.077223
O46	O	1.041996	-0.454641	-0.356335
O47	O	1.375330	-0.121308	-0.023002
O48	O	1.708663	0.212026	0.310332
O49	O	0.955424	-0.458081	-0.448704
O50	O	1.288757	-0.124748	-0.115371
O51	O	1.622091	0.208586	0.217962
C52	C	0.821961	-0.306099	-0.401343
C53	C	1.155294	0.027234	-0.068010
C54	C	1.488627	0.360568	0.265323
C55	C	0.743602	-0.309252	-0.397694
C56	C	1.076935	0.024081	-0.064361
C57	C	1.410269	0.357415	0.268973
C58	C	0.708633	-0.265704	-0.448370
C59	C	1.041966	0.067629	-0.115037
C60	C	1.375299	0.400962	0.218296
C61	C	0.635006	-0.268663	-0.444935
C62	C	0.968340	0.064670	-0.111602
C63	C	1.301673	0.398003	0.221732
C64	C	0.596351	-0.315174	-0.390826
C65	C	0.929684	0.018159	-0.057493
C66	C	1.263018	0.351493	0.275841
C67	C	0.631326	-0.358723	-0.340144
C68	C	0.964659	-0.025390	-0.006811
C69	C	1.297992	0.307944	0.326522
C70	C	0.704950	-0.355760	-0.343577
C71	C	1.038284	-0.022427	-0.010243
C72	C	1.371617	0.310907	0.323090
C73	C	0.375959	-0.328861	-0.374939
C74	C	0.709292	0.004472	-0.041606
C75	C	1.042625	0.337806	0.291728
C76	C	0.302329	-0.331822	-0.371512
C77	C	0.635662	0.001511	-0.038179
C78	C	0.968995	0.334844	0.295154
C79	C	0.306015	-0.241761	-0.476302
C80	C	0.639348	0.091572	-0.142969
C81	C	0.972681	0.424905	0.190364
C82	C	0.379641	-0.238805	-0.479733
C83	C	0.712974	0.094528	-0.146400
C84	C	1.046307	0.427861	0.186934
C85	C	0.414609	-0.282352	-0.429048
C86	C	0.747942	0.050981	-0.095715
C87	C	1.081276	0.384315	0.237618
N88	N	0.521093	-0.318201	-0.387315
N89	N	0.854427	0.015132	-0.053981
N90	N	1.187760	0.348465	0.279352
N91	N	0.489865	-0.279321	-0.432557
N92	N	0.823199	0.054013	-0.099223
N93	N	1.156532	0.387346	0.234110
C94	C	0.997688	-0.481941	-0.401337
C95	C	1.331021	-0.148608	-0.068004
C96	C	1.664355	0.184726	0.265329
C97	C	0.994572	-0.560300	-0.397697
C98	C	1.327905	-0.226967	-0.064363
C99	C	1.661239	0.106366	0.268970
C100	C	1.038170	-0.595237	-0.448337
C101	C	1.371503	-0.261904	-0.115004
C102	C	1.704836	0.071429	0.218329
C103	C	1.035239	-0.668864	-0.444918
C104	C	1.368572	-0.335531	-0.111584
C105	C	1.701905	-0.002198	0.221749
C106	C	0.988713	-0.707553	-0.390854
C107	C	1.322046	-0.374220	-0.057520
C108	C	1.655380	-0.040886	0.275813
C109	C	0.945111	-0.672611	-0.340211
C110	C	1.278444	-0.339278	-0.006877
C111	C	1.611777	-0.005944	0.326456
C112	C	0.948038	-0.598986	-0.343635
C113	C	1.281372	-0.265652	-0.010301
C114	C	1.614705	0.067681	0.323032
C115	C	0.975121	-0.927951	-0.375004
C116	C	1.308454	-0.594618	-0.041670
C117	C	1.641788	-0.261284	0.291663
C118	C	0.972198	-1.001582	-0.371582
C119	C	1.305531	-0.668248	-0.038249
C120	C	1.638865	-0.334915	0.295085
C121	C	1.062325	-0.997830	-0.476291
C122	C	1.395659	-0.664496	-0.142957
C123	C	1.728992	-0.331163	0.190376
C124	C	1.065252	-0.924203	-0.479706
C125	C	1.398586	-0.590869	-0.146373
C126	C	1.731919	-0.257536	0.186960
C127	C	1.021647	-0.889267	-0.429066
C128	C	1.354981	-0.555934	-0.095733
C129	C	1.688314	-0.222601	0.237600
N130	N	0.985718	-0.782811	-0.387355
N131	N	1.319051	-0.449478	-0.054022
N132	N	1.652384	-0.116145	0.279311
N133	N	1.024640	-0.814010	-0.432569
N134	N	1.357973	-0.480677	-0.099236
N135	N	1.691306	-0.147344	0.234098
C136	C	1.189001	-0.291411	-0.418521
C137	C	1.522335	0.041923	-0.085188
C138	C	1.855668	0.375256	0.248145
C139	C	1.267359	-0.288275	-0.422189
C140	C	1.600693	0.045058	-0.088855
C141	C	1.934026	0.378392	0.244478
C142	C	1.005168	-0.298715	-0.614664
C143	C	1.338501	0.034618	-0.281331
C144	C	1.671835	0.367951	0.052003
C145	C	1.005187	-0.298692	-0.701916
C146	C	1.338520	0.034641	-0.368583
C147	C	1.671854	0.367974	-0.035249
C148	C	1.012607	-0.114881	-0.418545
C149	C	1.345940	0.218453	-0.085212
C150	C	1.679273	0.551786	0.248122
C151	C	1.015796	-0.036518	-0.422223
C152	C	1.349129	0.296815	-0.088889
C153	C	1.682462	0.630148	0.244444
C154	C	1.052113	-0.251793	-0.747134
C155	C	1.385446	0.081541	-0.413801
C156	C	1.718780	0.414874	-0.080467
C157	C	1.052123	-0.251769	-0.829116
C158	C	1.385456	0.081565	-0.495783
C159	C	1.718789	0.414898	-0.162449
C160	C	1.005209	-0.298649	-0.865878
C161	C	1.338542	0.034685	-0.532545
C162	C	1.671876	0.368018	-0.199212
C163	C	0.958278	-0.345551	-0.820654
C164	C	1.291611	-0.012217	-0.487321
C165	C	1.624945	0.321116	-0.153987
C166	C	0.958266	-0.345571	-0.738674
C167	C	1.291599	-0.012237	-0.405340
C168	C	1.624932	0.321096	-0.072007
C169	C	0.958308	-0.345507	-0.991528
C170	C	1.291641	-0.012174	-0.658194
C171	C	1.624975	0.321160	-0.324861
C172	C	0.958321	-0.345488	-1.073514
C173	C	1.291654	-0.012155	-0.740180
C174	C	1.624988	0.321178	-0.406847
C175	C	1.052165	-0.251705	-1.081970
C176	C	1.385498	0.081628	-0.748636
C177	C	1.718832	0.414961	-0.415303
C178	C	1.052153	-0.251725	-0.999989
C179	C	1.385486	0.081608	-0.666656
C180	C	1.718819	0.414941	-0.333323
C181	C	1.005222	-0.298628	-0.954771
C182	C	1.338556	0.034705	-0.621438
C183	C	1.671889	0.368038	-0.288104
C184	C	1.005121	-0.298770	-0.205967
C185	C	1.338455	0.034564	0.127366
C186	C	1.671788	0.367897	0.460699
C187	C	1.005247	-0.298589	-0.118732
C188	C	1.338580	0.034745	0.214602
C189	C	1.671914	0.368078	0.547935
H190	H	0.599847	-0.396590	-0.296084
H191	H	0.933180	-0.063256	0.037249
H192	H	1.266513	0.270077	0.370583
F193	F	0.742167	-0.402110	-0.289640
F194	F	1.075500	-0.068776	0.043693
F195	F	1.408834	0.264557	0.377027
F196	F	1.102113	-0.201788	-1.130095
F197	F	1.435446	0.131546	-0.796762
F198	F	1.768779	0.464879	-0.463429
H199	H	1.076059	-0.563741	-0.492359
H200	H	1.409392	-0.230408	-0.159026
H201	H	1.742725	0.102925	0.174308
F202	F	0.908385	-0.395378	-1.112637
F203	F	1.241718	-0.062044	-0.779304
F204	F	1.575051	0.271289	-0.445971
H205	H	0.920082	-0.383690	-0.954713
H206	H	1.253415	-0.050357	-0.621379
H207	H	1.586748	0.282977	-0.288046
H208	H	1.090318	-0.213619	-0.717208
H209	H	1.423651	0.119714	-0.383875
H210	H	1.756984	0.453047	-0.050542
F211	F	0.895588	-0.713789	-0.282678
F212	F	1.228921	-0.380455	0.050655
F213	F	1.562255	-0.047122	0.383989
H214	H	1.070746	-0.697306	-0.486149
H215	H	1.404079	-0.363973	-0.152816
H216	H	1.737413	-0.030639	0.180518
F217	F	1.114770	-0.883033	-0.537250
F218	F	1.448104	-0.549699	-0.203916
F219	F	1.781437	-0.216366	0.129417
H220	H	0.740101	-0.227832	-0.492434
H221	H	1.073434	0.105501	-0.159100
H222	H	1.406767	0.438834	0.174233
F223	F	1.102087	-0.201834	-0.960866
F224	F	1.435421	0.131499	-0.627532
F225	F	1.768754	0.464832	-0.294199
H226	H	0.404421	-0.364320	-0.333669
H227	H	0.737754	-0.030987	-0.000335
H228	H	1.071087	0.302346	0.332998
H229	H	1.090336	-0.213580	-0.865929
H230	H	1.423669	0.119754	-0.532596
H231	H	1.757003	0.453087	-0.199263
F232	F	0.908319	-0.395486	-0.690549
F233	F	1.241652	-0.062153	-0.357216
F234	F	1.574986	0.271181	-0.023883
H235	H	0.277536	-0.206307	-0.517566
H236	H	0.610869	0.127026	-0.184233
H237	H	0.944202	0.460359	0.149101
F238	F	1.108728	-1.035016	-0.530183
F239	F	1.442061	-0.701682	-0.196850
F240	F	1.775394	-0.368349	0.136483
F241	F	0.922679	-1.042756	-0.314034
F242	F	1.256012	-0.709422	0.019299
F243	F	1.589346	-0.376089	0.352632
H244	H	0.270857	-0.369700	-0.327450
H245	H	0.604190	-0.036367	0.005884
H246	H	0.937524	0.296966	0.339217
H247	H	0.606538	-0.233204	-0.486202
H248	H	0.939871	0.100129	-0.152869
H249	H	1.273204	0.433463	0.180464
H250	H	0.939618	-0.899512	-0.333769
H251	H	1.272951	-0.566179	-0.000436
H252	H	1.606284	-0.232846	0.332898
H253	H	0.411109	-0.200934	-0.523797
H254	H	0.744442	0.132399	-0.190464
H255	H	1.077776	0.465732	0.142870
F256	F	0.901635	-0.561804	-0.289737
F257	F	1.234968	-0.228470	0.043597
F258	F	1.568302	0.104863	0.376930
F259	F	0.908346	-0.395441	-0.859782
F260	F	1.241679	-0.062108	-0.526448
F261	F	1.575013	0.271225	-0.193115
