data_functionalizedCrystal
_audit_creation_method	'MofGen! by Chris Wilmer'
_symmetry_space_group_name_H-M	'P1'
_symmetry_Int_Tables_number	1
_symmetry_cell_setting	triclinic
loop_
_symmetry_equiv_pos_as_xyz
  x,y,z
_cell_length_a	16.793024
_cell_length_b	16.793047
_cell_length_c	33.586455
_cell_angle_alpha	113.253857
_cell_angle_beta	66.219990
_cell_angle_gamma	112.758327
loop_
_atom_site_label
_atom_site_type_symbol
_atom_site_fract_x
_atom_site_fract_y
_atom_site_fract_z
O1	O	0.005016	-0.570216	-0.583573
O2	O	-0.034529	-0.474528	-0.453458
O3	O	0.114723	-0.474535	-0.528082
O4	O	-0.144235	-0.570209	-0.508949
O5	O	0.108729	-0.346329	-0.530229
O6	O	-0.040523	-0.346322	-0.455605
O7	O	-0.000977	-0.442010	-0.585721
Zn8	Zn	-0.021701	-0.373810	-0.521004
Zn9	Zn	-0.013805	-0.542728	-0.518175
O10	O	-0.150229	-0.442003	-0.511097
C11	C	0.005100	-0.790970	-0.238461
C12	C	0.009223	-0.693065	-0.217557
C13	C	0.003804	-0.645758	-0.241627
C14	C	-0.075059	-0.538459	-0.266316
C15	C	0.049838	-0.422849	-0.250165
C16	C	-0.040584	-0.395375	-0.435637
C17	C	-0.044693	-0.353446	-0.386631
C18	C	-0.039275	-0.401741	-0.363054
C19	C	-0.040566	-0.125547	-0.300731
C20	C	-0.044689	-0.223451	-0.321635
C21	C	-0.039266	-0.270752	-0.297563
C22	C	0.039597	-0.378051	-0.272874
C23	C	-0.085304	-0.493667	-0.289026
C24	C	0.005118	-0.521142	-0.103554
C25	C	0.009231	-0.563064	-0.152559
C26	C	0.003809	-0.514775	-0.176138
C27	C	0.010758	-0.652581	-0.172822
C28	C	0.001010	-0.556371	-0.220792
C29	C	-0.008251	-0.506059	-0.245823
C30	C	-0.046224	-0.263935	-0.366370
C31	C	-0.036476	-0.360146	-0.318399
C32	C	-0.027211	-0.410451	-0.293367
C33	C	0.815184	-0.521162	-0.508596
C34	C	0.415541	-0.125553	-0.528781
C35	C	0.375032	-0.223457	-0.531493
C36	C	0.423813	-0.270761	-0.529101
C37	C	0.149318	-0.395376	-0.530584
C38	C	0.246774	-0.353455	-0.532364
C39	C	0.294574	-0.401748	-0.529976
C40	C	0.548961	-0.790984	-0.510398
C41	C	0.286104	-0.263940	-0.532530
C42	C	0.383336	-0.360149	-0.528302
C43	C	0.432207	-0.407971	-0.525810
C44	C	0.392316	-0.497392	-0.524993
C45	C	0.303554	-0.538991	-0.526667
C46	C	0.254683	-0.491169	-0.529159
C47	C	0.263666	-0.628421	-0.525851
C48	C	0.312537	-0.676243	-0.523359
C49	C	0.401299	-0.634644	-0.521685
C50	C	0.441190	-0.545223	-0.522502
C51	C	0.529952	-0.503624	-0.520828
C52	C	0.578823	-0.551446	-0.518336
C53	C	0.538939	-0.640864	-0.517520
C54	C	0.450177	-0.682463	-0.519194
C55	C	0.587810	-0.688687	-0.515028
C56	C	0.676572	-0.647088	-0.513354
C57	C	0.716463	-0.557666	-0.514172
C58	C	0.667586	-0.509847	-0.516662
C59	C	0.569840	-0.414195	-0.521644
C60	C	0.658602	-0.372596	-0.519970
C61	C	0.707476	-0.420426	-0.517480
C62	C	0.698493	-0.283174	-0.520788
C63	C	0.649622	-0.235352	-0.523280
C64	C	0.560860	-0.276951	-0.524954
C65	C	0.520969	-0.366372	-0.524136
C66	C	0.511989	-0.229129	-0.527446
C67	C	-0.040530	-0.395407	-0.935652
C68	C	0.005063	-0.791004	-0.738448
C69	C	0.009186	-0.693099	-0.717543
C70	C	0.003779	-0.645796	-0.741620
C71	C	0.005077	-0.521171	-0.603544
C72	C	0.009198	-0.563096	-0.652550
C73	C	0.003786	-0.514804	-0.676131
C74	C	-0.040516	-0.125574	-0.800747
C75	C	0.010719	-0.652613	-0.672809
C76	C	0.000994	-0.556406	-0.720789
C77	C	-0.004621	-0.508585	-0.744908
C78	C	-0.007444	-0.419162	-0.724369
C79	C	-0.004651	-0.377560	-0.679711
C80	C	0.000964	-0.425381	-0.655592
C81	C	-0.007471	-0.288129	-0.659174
C82	C	-0.013086	-0.240308	-0.683293
C83	C	-0.015878	-0.281910	-0.727951
C84	C	-0.013056	-0.371333	-0.748490
C85	C	-0.015848	-0.412935	-0.793148
C86	C	-0.021463	-0.365114	-0.817267
C87	C	-0.024282	-0.275694	-0.796731
C88	C	-0.021490	-0.234092	-0.752073
C89	C	-0.029897	-0.227873	-0.820850
C90	C	-0.032690	-0.269476	-0.865508
C91	C	-0.029867	-0.358899	-0.886047
C92	C	-0.024255	-0.406717	-0.861925
C93	C	-0.013028	-0.502367	-0.813685
C94	C	-0.015821	-0.543969	-0.858343
C95	C	-0.021433	-0.496140	-0.882464
C96	C	-0.012998	-0.633392	-0.878882
C97	C	-0.007383	-0.681213	-0.854763
C98	C	-0.004591	-0.639611	-0.810105
C99	C	-0.007414	-0.550188	-0.789566
C100	C	0.001024	-0.687432	-0.785986
O101	O	-0.000965	0.173549	-0.277957
O102	O	-0.040516	-0.085616	-0.325254
O103	O	0.108737	0.059592	-0.327284
O104	O	-0.150219	0.028341	-0.275927
O105	O	0.114753	0.055151	-0.263265
O106	O	-0.034500	-0.090057	-0.261234
O107	O	0.005051	0.169108	-0.213937
Zn108	Zn	-0.013769	0.038820	-0.227421
Zn109	Zn	-0.021696	0.044672	-0.311770
O110	O	-0.144202	0.023900	-0.211907
O111	O	-0.034458	-0.474571	0.046517
O112	O	0.005076	-0.570190	-0.083599
O113	O	-0.144170	-0.570237	-0.008972
O114	O	0.114787	-0.474523	-0.028110
O115	O	-0.150200	-0.442024	-0.011093
O116	O	-0.000954	-0.441976	-0.085720
O117	O	-0.040488	-0.346357	0.044396
Zn118	Zn	-0.021679	-0.373810	-0.020999
Zn119	Zn	-0.013734	-0.542737	-0.018204
O120	O	0.108757	-0.346309	-0.030231
C121	C	-0.850734	0.086244	-0.289716
C122	C	-0.753280	0.087165	-0.312001
C123	C	-0.705462	0.081107	-0.288506
C124	C	-0.599592	0.000085	-0.264184
C125	C	-0.481080	0.121287	-0.283645
C126	C	-0.450996	0.035117	-0.097351
C127	C	-0.410501	0.028587	-0.146852
C128	C	-0.459292	0.034683	-0.169840
C129	C	-0.184802	0.024283	-0.235878
C130	C	-0.282257	0.023363	-0.213592
C131	C	-0.330068	0.029423	-0.237088
C132	C	-0.435938	0.110445	-0.261411
C133	C	-0.554456	-0.010759	-0.241948
C134	C	-0.584541	0.075410	-0.428242
C135	C	-0.625029	0.081943	-0.378743
C136	C	-0.576244	0.075844	-0.355753
C137	C	-0.713963	0.086424	-0.357292
C138	C	-0.616708	0.075351	-0.310510
C139	C	-0.565963	0.065400	-0.286043
C140	C	-0.321573	0.024104	-0.168302
C141	C	-0.418828	0.035176	-0.215083
C142	C	-0.469568	0.045131	-0.239552
O143	O	0.585213	0.169090	-0.504004
O144	O	0.494056	-0.090076	-0.525516
O145	O	0.488081	0.055124	-0.449918
O146	O	0.591189	0.023889	-0.579602
O147	O	0.359978	0.059584	-0.452885
O148	O	0.365953	-0.085616	-0.528483
O149	O	0.457110	0.173550	-0.506971
Zn150	Zn	0.391193	0.044675	-0.518198
Zn151	Zn	0.559974	0.038798	-0.514289
O152	O	0.463086	0.028349	-0.582569
C153	C	0.815354	-0.521094	-0.008709
C154	C	0.717898	-0.563028	-0.006927
C155	C	0.670072	-0.514739	-0.009298
C156	C	0.564182	-0.463204	-0.048354
C157	C	0.445681	-0.498945	0.013847
C158	C	0.415547	-0.125494	-0.028771
C159	C	0.375059	-0.223405	-0.031498
C160	C	0.423859	-0.270708	-0.029121
C161	C	0.149365	-0.395355	-0.030599
C162	C	0.246820	-0.353421	-0.032381
C163	C	0.294640	-0.401713	-0.030008
C164	C	0.400530	-0.453248	0.009048
C165	C	0.519038	-0.417504	-0.053155
C166	C	0.549171	-0.790955	-0.010537
C167	C	0.589653	-0.693047	-0.007809
C168	C	0.540859	-0.645741	-0.010187
C169	C	0.678588	-0.652551	-0.006775
C170	C	0.581317	-0.556344	-0.010973
C171	C	0.530562	-0.506029	-0.015250
C172	C	0.286131	-0.263897	-0.032533
C173	C	0.383402	-0.360104	-0.028335
C174	C	0.434150	-0.410423	-0.024057
O175	O	-0.620614	0.089309	0.052274
O176	O	-0.529507	0.043784	-0.078544
O177	O	-0.523494	0.194833	-0.006033
O178	O	-0.626628	-0.061740	-0.020236
O179	O	-0.395386	0.185419	-0.005549
O180	O	-0.401400	0.034370	-0.078059
O181	O	-0.492507	0.079895	0.052758
Zn182	Zn	-0.426614	0.055638	-0.012574
Zn183	Zn	-0.595401	0.068041	-0.013212
O184	O	-0.498521	-0.071154	-0.019752
C185	C	-0.437537	0.048335	0.402491
C186	C	-0.397043	0.041789	0.352989
C187	C	-0.445822	0.047883	0.329994
C188	C	-0.496646	0.126653	0.277022
C189	C	-0.465894	-0.000633	0.218811
C190	C	-0.837226	0.099430	0.210091
C191	C	-0.739773	0.100339	0.187806
C192	C	-0.691967	0.094287	0.211308
C193	C	-0.571027	0.088563	0.071568
C194	C	-0.611521	0.095108	0.121070
C195	C	-0.562739	0.089011	0.144061
C196	C	-0.511915	0.010241	0.197033
C197	C	-0.542670	0.137531	0.255247
C198	C	-0.171338	0.037467	0.263967
C199	C	-0.268788	0.036555	0.286249
C200	C	-0.316597	0.042611	0.262750
C201	C	-0.308112	0.037305	0.331542
C202	C	-0.405351	0.048369	0.284750
C203	C	-0.456092	0.058317	0.260279
C204	C	-0.700452	0.099593	0.142516
C205	C	-0.603213	0.088528	0.189308
C206	C	-0.552469	0.078578	0.213776
O207	O	-0.040608	-1.085661	-0.825229
O208	O	-0.001018	-0.826491	-0.777938
O209	O	-0.150287	-0.971682	-0.775894
O210	O	0.108661	-0.940470	-0.827272
O211	O	-0.144253	-0.976123	-0.711878
O212	O	0.005016	-0.830932	-0.713922
O213	O	-0.034575	-1.090102	-0.761213
Zn214	Zn	-0.013821	-0.961222	-0.727403
Zn215	Zn	-0.021771	-0.955371	-0.811747
O216	O	0.114695	-0.944911	-0.763256
O217	O	-0.036862	-0.230384	-0.253947
C218	C	-0.115987	-0.202041	-0.227222
H219	H	-0.171766	-0.243574	-0.244184
H220	H	-0.138525	-0.211820	-0.192195
H221	H	-0.101653	-0.127812	-0.223676
H222	H	-0.015393	-0.167196	-0.666497
H223	H	0.001660	-0.441639	-0.159184
H224	H	0.702991	-0.441593	-0.009870
H225	H	0.417564	-0.755580	-0.518528
H226	H	-0.574318	0.196197	0.271049
O227	O	-0.050616	-0.224902	-0.885685
C228	C	0.022517	-0.210258	-0.924357
H229	H	0.062000	-0.261850	-0.936833
H230	H	-0.004192	-0.217541	-0.952248
H231	H	0.068878	-0.139544	-0.915261
H232	H	0.413839	-0.532573	0.042316
O233	O	0.013741	-0.700201	-0.149016
C234	C	-0.062937	-0.702866	-0.110564
H235	H	-0.119195	-0.691379	-0.116654
H236	H	-0.086936	-0.771435	-0.104206
H237	H	-0.044687	-0.647943	-0.079738
H238	H	-0.142704	-0.524425	-0.305055
H239	H	0.710767	-0.684484	-0.506030
O240	O	0.097565	-0.296230	-0.276345
C241	C	0.186422	-0.304784	-0.298672
H242	H	0.184117	-0.377380	-0.320143
H243	H	0.224597	-0.258160	-0.321473
H244	H	0.222402	-0.285729	-0.272457
O245	O	-0.731326	0.093816	0.255445
C246	C	-0.808492	0.019653	0.258888
H247	H	-0.802039	-0.034327	0.224823
H248	H	-0.814507	-0.009104	0.285884
H249	H	-0.871329	0.042417	0.268743
O250	O	0.118408	-0.386277	-0.231111
C251	C	0.174779	-0.444307	-0.250185
H252	H	0.166979	-0.489307	-0.284917
H253	H	0.248134	-0.402686	-0.254012
H254	H	0.154810	-0.487852	-0.227051
H255	H	-0.023718	-0.530163	-0.918978
H256	H	0.245727	-0.224039	-0.533582
H257	H	0.682238	-0.162236	-0.523943
O258	O	-0.004604	-0.768422	-0.874869
C259	C	-0.008315	-0.795004	-0.919635
H260	H	0.016077	-0.732936	-0.931969
H261	H	0.036893	-0.841769	-0.942682
H262	H	-0.080913	-0.831803	-0.920456
H263	H	-0.531920	0.039247	-0.151930
H264	H	0.330510	-0.448858	0.033327
H265	H	-0.015274	-0.667410	-0.915397
O266	O	0.001369	-0.686192	-0.285236
C267	C	0.080518	-0.714488	-0.311964
H268	H	0.110377	-0.723022	-0.289320
H269	H	0.063322	-0.781478	-0.338282
H270	H	0.131857	-0.661849	-0.329902
H271	H	0.780052	-0.386407	-0.516111
O272	O	0.557149	-0.377437	-0.087142
C273	C	0.642848	-0.392740	-0.112544
H274	H	0.645819	-0.455358	-0.108138
H275	H	0.654689	-0.403108	-0.149934
H276	H	0.697333	-0.332131	-0.100104
O277	O	0.255508	-0.489014	-0.029379
C278	C	0.305626	-0.544242	-0.067051
H279	H	0.377786	-0.502319	-0.079272
H280	H	0.306664	-0.600873	-0.056796
H281	H	0.272955	-0.574193	-0.095544
O282	O	-0.748488	0.103507	0.119332
C283	C	-0.704803	0.180874	0.103790
H284	H	-0.630161	0.202952	0.101490
H285	H	-0.711697	0.164814	0.068838
H286	H	-0.737224	0.237417	0.128472
O287	O	-0.259894	0.033383	0.354633
C288	C	-0.232717	-0.046877	0.333300
H289	H	-0.231794	-0.072039	0.296278
H290	H	-0.162137	-0.033416	0.335112
H291	H	-0.282241	-0.100074	0.351260
H292	H	-0.434254	-0.059305	0.203012
O293	O	0.454261	-0.686124	-0.011812
C294	C	0.447713	-0.685536	-0.052242
H295	H	0.517138	-0.679158	-0.078575
H296	H	0.398547	-0.750925	-0.065709
H297	H	0.422158	-0.626053	-0.045133
O298	O	-0.132972	-0.620359	-0.262946
C299	C	-0.197165	-0.643984	-0.285561
H300	H	-0.168586	-0.605669	-0.311971
H301	H	-0.213226	-0.719457	-0.303055
H302	H	-0.261589	-0.625933	-0.259947
O303	O	0.785052	-0.242454	-0.519140
C304	C	0.809892	-0.152914	-0.520414
H305	H	0.746537	-0.129407	-0.508062
H306	H	0.854766	-0.107659	-0.497517
H307	H	0.848461	-0.149270	-0.556693
O308	O	0.550904	-0.141855	-0.528153
C309	C	0.576295	-0.090190	-0.488240
H310	H	0.584996	-0.135966	-0.473562
H311	H	0.642836	-0.036863	-0.496508
H312	H	0.521587	-0.055963	-0.462377
O313	O	-0.532399	0.053523	0.351399
C314	C	-0.534069	0.130920	0.388987
H315	H	-0.464774	0.181784	0.383635
H316	H	-0.586984	0.162106	0.392665
H317	H	-0.551799	0.111456	0.421057
O318	O	0.726642	-0.700197	-0.005461
C319	C	0.682961	-0.730081	0.033818
H320	H	0.608313	-0.732687	0.045859
H321	H	0.689879	-0.800157	0.025705
H322	H	0.715367	-0.681567	0.061652
O323	O	0.003648	-0.774690	-0.806042
C324	C	-0.075459	-0.826391	-0.819104
H325	H	-0.105470	-0.780632	-0.823134
H326	H	-0.058158	-0.879670	-0.852743
H327	H	-0.126717	-0.860679	-0.792000
H328	H	-0.037138	-0.474881	-0.380005
O329	O	-0.049204	-0.216238	-0.390138
C330	C	0.027481	-0.141415	-0.392510
H331	H	0.083735	-0.155127	-0.387530
H332	H	0.051478	-0.129349	-0.427119
H333	H	0.009238	-0.079266	-0.364801
H334	H	0.182115	-0.525189	-0.530531
O335	O	-0.277309	0.043081	0.218612
C336	C	-0.275790	0.123803	0.214224
H337	H	-0.279816	0.177578	0.248317
H338	H	-0.210366	0.147399	0.187964
H339	H	-0.335956	0.111707	0.202840
H340	H	-0.297145	0.029698	-0.274103
H341	H	-0.738384	0.080845	-0.251490
O342	O	0.177141	-0.669141	-0.527545
C343	C	0.175696	-0.744286	-0.566224
H344	H	0.238316	-0.768230	-0.577290
H345	H	0.112491	-0.800855	-0.557761
H346	H	0.175112	-0.724540	-0.594896
O347	O	0.273493	-0.763425	-0.522507
C348	C	0.196392	-0.768299	-0.484355
H349	H	0.170514	-0.706926	-0.473038
H350	H	0.141435	-0.832099	-0.493611
H351	H	0.214880	-0.769816	-0.455565
O352	O	-0.489647	0.070282	-0.377182
C353	C	-0.487950	-0.007119	-0.414769
H354	H	-0.550481	-0.027719	-0.425990
H355	H	-0.424661	0.008174	-0.443858
H356	H	-0.487334	-0.064398	-0.404853
H357	H	0.003251	-0.391359	-0.619081
O358	O	0.013689	-0.700230	-0.648998
C359	C	-0.062996	-0.702885	-0.610548
H360	H	-0.119244	-0.691395	-0.616645
H361	H	-0.087004	-0.771450	-0.604187
H362	H	-0.044748	-0.647958	-0.579723
O363	O	-0.004796	-0.247429	-0.615613
C364	C	-0.008480	-0.157873	-0.602610
H365	H	-0.040908	-0.151484	-0.624807
H366	H	-0.050432	-0.138857	-0.565568
H367	H	0.062919	-0.110860	-0.606940
O368	O	-0.024127	-0.146825	-0.732105
C369	C	0.050353	-0.091704	-0.756906
H370	H	0.075435	-0.133820	-0.793206
H371	H	0.028902	-0.035359	-0.757214
H372	H	0.106946	-0.061358	-0.740352
H373	H	0.634201	-0.467612	-0.072637
O374	O	-0.352430	0.166210	-0.259940
C375	C	-0.327689	0.229055	-0.283790
H376	H	-0.391125	0.236349	-0.285235
H377	H	-0.288499	0.297037	-0.265680
H378	H	-0.283436	0.204598	-0.319738
H379	H	-0.449229	0.177371	-0.300885
O380	O	-0.762008	0.090359	-0.380466
C381	C	-0.718322	0.167741	-0.395996
H382	H	-0.643678	0.189804	-0.398303
H383	H	-0.725228	0.151706	-0.430942
H384	H	-0.750734	0.224284	-0.371302
H385	H	-0.669612	-0.046576	-0.265443
H386	H	-0.489994	0.175891	0.311254
H387	H	-0.586315	-0.066836	-0.224702
H388	H	0.496488	-0.236853	-0.027824
H389	H	-0.281187	0.020914	-0.148901
O390	O	0.237853	-0.216284	-0.033688
C391	C	0.160920	-0.213656	0.004674
H392	H	0.173282	-0.225156	0.032713
H393	H	0.147264	-0.145096	0.017146
H394	H	0.100006	-0.268589	-0.004818
O395	O	-0.476144	0.083441	0.122634
C396	C	-0.474447	0.006033	0.085052
H397	H	-0.536977	-0.014575	0.073829
H398	H	-0.411157	0.021318	0.055961
H399	H	-0.473832	-0.051238	0.094975
H400	H	-0.518563	-0.039000	0.162804
