data_functionalizedCrystal
_audit_creation_method	'MofGen! by Chris Wilmer'
_symmetry_space_group_name_H-M	'P1'
_symmetry_Int_Tables_number	1
_symmetry_cell_setting	triclinic
loop_
_symmetry_equiv_pos_as_xyz
  x,y,z
_cell_length_a	6.817900
_cell_length_b	16.418049
_cell_length_c	17.078481
_cell_angle_alpha	96.278060
_cell_angle_beta	99.306161
_cell_angle_gamma	103.389670
loop_
_atom_site_label
_atom_site_type_symbol
_atom_site_fract_x
_atom_site_fract_y
_atom_site_fract_z
V1	V	-3.979125	-0.115690	-0.247640
O2	O	-3.968071	0.005761	-0.242639
O3	O	-3.930462	-0.229588	-0.246223
O4	O	-3.910179	-0.113822	-0.355519
O5	O	-3.988494	-0.110806	-0.132587
V6	V	-4.465449	-0.101174	-0.233846
O7	O	-4.234238	-0.147533	-0.277901
O8	O	-4.660533	-0.069331	-0.203585
O9	O	-4.290905	0.012724	-0.235263
O10	O	-4.593900	-0.222625	-0.238847
O11	O	-4.573476	-0.106058	-0.348899
O12	O	-4.311188	-0.103042	-0.125967
C13	C	-3.776063	-0.257356	-0.242388
C14	C	-3.817426	-0.350469	-0.241948
C15	C	-3.750190	-0.109685	-0.381804
C16	C	-3.775100	-0.108911	-0.469997
C17	C	-4.093892	-0.568956	-0.244920
C18	C	-4.132743	-0.656445	-0.244514
C19	C	-3.770039	-0.647907	-0.236571
C20	C	-3.731192	-0.560420	-0.236983
C21	C	-3.893124	-0.520946	-0.241154
C22	C	-3.970822	-0.695923	-0.240335
C23	C	-4.012945	-0.790783	-0.239895
C24	C	-3.851000	-0.426080	-0.241595
C25	C	-3.968126	-0.112729	-0.515482
C26	C	-3.991520	-0.112002	-0.598349
C27	C	-3.821889	-0.107463	-0.635730
C28	C	-3.628847	-0.103642	-0.590238
C29	C	-3.605452	-0.104364	-0.507372
C30	C	-3.872411	-0.104852	-0.883126
C31	C	-3.895823	-0.104133	-0.965999
C32	C	-4.258494	-0.112491	-0.974103
C33	C	-4.235085	-0.113217	-0.891237
C34	C	-4.042044	-0.109392	-0.845752
N35	N	-3.845799	-0.106722	-0.720433
N36	N	-4.018134	-0.110127	-0.761049
C37	C	-4.108646	0.040488	-0.239096
C38	C	-4.046521	0.133599	-0.239541
C39	C	-4.134521	-0.107182	-0.099677
C40	C	-4.088848	-0.107951	-0.011484
H41	H	-4.225750	-0.536819	-0.248315
C42	C	-3.510340	-0.507603	-0.232838
H43	H	-3.510404	-0.449847	-0.233689
H44	H	-3.425332	-0.512569	-0.184642
H45	H	-3.459053	-0.527801	-0.277643
H46	H	-4.296225	-0.695531	-0.247583
H47	H	-4.148696	-0.115106	-0.635379
H48	H	-3.490730	-0.099941	-0.620679
H49	H	-3.638204	-0.680058	-0.233173
C50	C	-4.421675	-0.118198	-0.850121
H51	H	-4.539984	-0.120358	-0.889078
H52	H	-4.444216	-0.167715	-0.825325
H53	H	-4.395947	-0.069579	-0.810602
C54	C	-4.154720	-0.117725	-0.474367
H55	H	-4.113151	-0.117616	-0.418502
H56	H	-4.208944	-0.070259	-0.482249
H57	H	-4.257177	-0.168394	-0.496981
C58	C	-4.470816	-0.116687	-1.024136
H59	H	-4.460459	-0.115600	-1.078841
H60	H	-4.565617	-0.167584	-1.019586
H61	H	-4.517349	-0.069449	-1.004853
H62	H	-3.757677	-0.100434	-0.996431
H63	H	-3.715243	-0.101767	-0.846107
H64	H	-3.448262	-0.101234	-0.470336
