data_functionalizedCrystal
_audit_creation_method	'MofGen! by Chris Wilmer'
_symmetry_space_group_name_H-M	'P1'
_symmetry_Int_Tables_number	1
_symmetry_cell_setting	triclinic
loop_
_symmetry_equiv_pos_as_xyz
  x,y,z
_cell_length_a	10.489716
_cell_length_b	10.489741
_cell_length_c	10.268362
_cell_angle_alpha	89.995004
_cell_angle_beta	89.995798
_cell_angle_gamma	84.534155
loop_
_atom_site_label
_atom_site_type_symbol
_atom_site_fract_x
_atom_site_fract_y
_atom_site_fract_z
O1	O	1.694072	0.179820	-0.108289
O2	O	1.322872	0.196745	-0.108294
O3	O	1.516919	0.002684	-0.108284
O4	O	1.500026	0.373881	-0.108299
O5	O	1.516902	0.002676	0.108317
O6	O	1.322855	0.196737	0.108307
O7	O	1.694055	0.179812	0.108312
Cu8	Cu	1.508453	0.188274	0.128087
Cu9	Cu	1.508474	0.188283	-0.128069
O10	O	1.500009	0.373873	0.108301
C11	C	1.275332	0.195470	0.000006
C12	C	1.133701	0.191665	0.000004
C13	C	1.036027	0.310669	-0.000004
C14	C	0.958672	0.247781	0.106800
C15	C	0.958696	0.247761	-0.106751
C16	C	1.058212	0.128826	0.106896
C17	C	1.058240	0.128823	-0.106751
C18	C	0.980935	0.065848	0.000079
C19	C	1.515634	-0.044852	0.000016
C20	C	1.511817	-0.186481	0.000014
C21	C	1.388351	-0.254610	0.000002
C22	C	1.446667	-0.346742	0.106799
C23	C	1.446713	-0.346708	-0.106753
C24	C	1.570184	-0.276747	0.106898
C25	C	1.570212	-0.276704	-0.106749
C26	C	1.628618	-0.368808	0.000073
C27	C	1.741596	0.181087	0.000009
C28	C	1.883227	0.184892	0.000002
C29	C	1.501293	0.421409	-0.000001
C30	C	1.505110	0.563038	-0.000007
N31	N	1.508449	0.188266	0.308252
N32	N	1.508489	0.188281	-0.308235
C33	C	1.508467	0.188281	0.573923
C34	C	1.508453	0.188276	0.426085
H35	H	0.915219	0.298025	-0.197032
O36	O	1.384547	-0.383836	0.214603
C37	C	1.468300	-0.468004	0.289049
H38	H	1.571600	-0.451549	0.265189
H39	H	1.449624	-0.449347	0.397066
H40	H	1.451401	-0.571171	0.265093
H41	H	1.730222	-0.418241	0.000133
H42	H	0.915183	0.298014	0.197089
H43	H	1.101743	0.078629	-0.197044
O44	O	1.065320	0.434206	-0.000063
C45	C	1.012477	0.497343	-0.111613
H46	H	0.928642	0.445786	-0.148445
H47	H	0.977383	0.600435	-0.085764
H48	H	1.088674	0.496863	-0.190831
H49	H	1.286838	-0.204950	0.000109
O50	O	1.632319	-0.240124	0.214871
C51	C	1.567468	-0.276605	0.327154
H52	H	1.508584	-0.359205	0.302270
H53	H	1.640169	-0.308319	0.406010
H54	H	1.501213	-0.191794	0.363977
H55	H	1.622416	-0.245661	-0.197041
O56	O	1.384398	-0.383445	-0.214566
C57	C	1.343218	-0.274621	-0.289514
H58	H	1.404876	-0.193866	-0.265811
H59	H	1.352639	-0.299300	-0.397418
H60	H	1.238842	-0.242699	-0.265920
O61	O	1.110032	0.068817	0.214596
C62	C	1.197548	-0.034834	0.176488
H63	H	1.232625	-0.017850	0.073422
H64	H	1.282539	-0.043389	0.246164
H65	H	1.148249	-0.127077	0.179064
H66	H	0.956505	-0.037744	0.000145
