data_functionalizedCrystal
_audit_creation_method	'MofGen! by Chris Wilmer'
_symmetry_space_group_name_H-M	'P1'
_symmetry_Int_Tables_number	1
_symmetry_cell_setting	triclinic
loop_
_symmetry_equiv_pos_as_xyz
  x,y,z
_cell_length_a	12.759401
_cell_length_b	16.625539
_cell_length_c	12.759399
_cell_angle_alpha	90.026183
_cell_angle_beta	89.984458
_cell_angle_gamma	89.982481
loop_
_atom_site_label
_atom_site_type_symbol
_atom_site_fract_x
_atom_site_fract_y
_atom_site_fract_z
Zn1	Zn	1.606241	-0.455856	0.418252
Zn2	Zn	1.606137	-0.321028	0.593954
Zn3	Zn	1.430546	-0.321043	0.418291
Zn4	Zn	1.430530	-0.455825	0.593891
O5	O	1.518364	-0.388438	0.506097
O6	O	1.753248	-0.437977	0.441570
O7	O	1.582808	-0.208197	0.570693
O8	O	1.453903	-0.338946	0.271264
O9	O	1.753172	-0.338919	0.570657
O10	O	1.582985	-0.437992	0.271237
O11	O	1.453802	-0.208209	0.441635
O12	O	1.283523	-0.338916	0.441574
O13	O	1.453875	-0.568661	0.570550
O14	O	1.283511	-0.437939	0.570587
O15	O	1.582969	-0.568684	0.441509
O16	O	1.582793	-0.338890	0.740966
O17	O	1.453775	-0.437924	0.740921
C18	C	1.245396	-0.388427	0.506079
C19	C	1.128620	-0.388441	0.506096
C20	C	1.073798	-0.440100	0.439002
C21	C	0.964074	-0.440105	0.439013
C22	C	0.964003	-0.336790	0.573221
C23	C	1.073725	-0.336782	0.573204
C24	C	1.518432	-0.598747	0.506019
C25	C	1.518461	-0.688368	0.505985
C26	C	1.518510	-1.016544	0.505868
C27	C	1.518493	-0.925235	0.505904
C28	C	1.518486	-0.852459	0.505927
C29	C	1.518468	-0.761145	0.505962
C30	C	1.792397	-0.388450	0.506116
C31	C	1.909174	-0.388455	0.506124
C32	C	1.518299	-0.388420	0.779064
C33	C	1.518368	-0.388439	0.895841
C34	C	1.518356	-0.178947	0.506099
C35	C	1.518531	-0.089326	0.505837
C36	C	1.518457	-0.388474	0.232064
C37	C	1.518497	-0.388489	0.115287
C38	C	1.585624	-0.336930	0.950692
C39	C	1.585692	-0.336957	1.060416
C40	C	1.451238	-0.440004	1.060428
C41	C	1.451176	-0.439980	0.950706
H42	H	1.118362	-0.294711	0.627841
C43	C	1.659541	-0.280243	0.890338
C44	C	1.651048	-0.188578	0.905522
C45	C	1.724970	-0.131892	0.845171
C46	C	1.807385	-0.166870	0.769636
C47	C	1.815881	-0.258539	0.754449
C48	C	1.741959	-0.315226	0.814799
H49	H	1.590037	-0.162681	0.961440
H50	H	1.718680	-0.064032	0.856414
H51	H	1.862106	-0.124907	0.724961
H52	H	1.876892	-0.284436	0.698530
H53	H	1.748249	-0.383085	0.803556
H54	H	1.396408	-0.481929	0.906044
H55	H	0.919443	-0.482169	0.384377
C56	C	1.659674	-0.280296	1.120752
C57	C	1.733582	-0.223607	1.060398
C58	C	1.807570	-0.166945	1.120733
C59	C	1.807651	-0.166972	1.241423
C60	C	1.733741	-0.223662	1.301784
C61	C	1.659752	-0.280324	1.241449
H62	H	1.733524	-0.223585	0.971050
H63	H	1.862283	-0.124979	1.076049
H64	H	1.862422	-0.125027	1.286087
H65	H	1.733799	-0.223684	1.391132
H66	H	1.605039	-0.322291	1.286133
H67	H	0.919294	-0.294732	0.627859
C68	C	1.377325	-0.496692	1.120786
C69	C	1.294906	-0.461716	1.196317
C70	C	1.220991	-0.518405	1.256673
C71	C	1.229495	-0.610070	1.241498
C72	C	1.311917	-0.645050	1.165963
C73	C	1.385832	-0.588362	1.105607
H74	H	1.288608	-0.393856	1.207554
H75	H	1.159977	-0.492509	1.312590
H76	H	1.174779	-0.652034	1.286177
H77	H	1.318216	-0.712910	1.154726
H78	H	1.446847	-0.614258	1.049691
H79	H	1.118490	-0.482161	0.384356
