data_functionalizedCrystal
_audit_creation_method	'MofGen! by Chris Wilmer'
_symmetry_space_group_name_H-M	'P1'
_symmetry_Int_Tables_number	1
_symmetry_cell_setting	triclinic
loop_
_symmetry_equiv_pos_as_xyz
  x,y,z
_cell_length_a	15.944551
_cell_length_b	16.109301
_cell_length_c	14.586319
_cell_angle_alpha	89.998582
_cell_angle_beta	89.994700
_cell_angle_gamma	83.480109
loop_
_atom_site_label
_atom_site_type_symbol
_atom_site_fract_x
_atom_site_fract_y
_atom_site_fract_z
O1	O	-0.107967	-1.103166	0.076184
O2	O	0.142033	-0.853166	0.326184
O3	O	0.392033	-0.603166	0.576184
O4	O	0.642033	-0.353166	0.826184
O5	O	-0.121403	-0.861109	0.076199
O6	O	0.128597	-0.611109	0.326199
O7	O	0.378597	-0.361109	0.576199
O8	O	0.628597	-0.111109	0.826199
O9	O	0.007592	-0.988748	0.076183
O10	O	0.257592	-0.738748	0.326183
O11	O	0.507592	-0.488748	0.576183
O12	O	0.757592	-0.238748	0.826183
O13	O	-0.236962	-0.975528	0.076200
O14	O	0.013038	-0.725528	0.326200
O15	O	0.263038	-0.475528	0.576200
O16	O	0.513038	-0.225528	0.826200
O17	O	0.007595	-0.988737	-0.076298
O18	O	0.257595	-0.738737	0.173702
O19	O	0.507595	-0.488737	0.423702
O20	O	0.757595	-0.238737	0.673702
O21	O	-0.121400	-0.861099	-0.076282
O22	O	0.128600	-0.611099	0.173718
O23	O	0.378600	-0.361099	0.423718
O24	O	0.628600	-0.111099	0.673718
O25	O	-0.107964	-1.103156	-0.076296
O26	O	0.142036	-0.853156	0.173704
O27	O	0.392036	-0.603156	0.423704
O28	O	0.642036	-0.353156	0.673704
Cu29	Cu	-0.114682	-0.982126	-0.090212
Cu30	Cu	0.135318	-0.732126	0.159788
Cu31	Cu	0.385318	-0.482126	0.409788
Cu32	Cu	0.635318	-0.232126	0.659788
Cu33	Cu	-0.114685	-0.982139	0.090114
Cu34	Cu	0.135315	-0.732139	0.340114
Cu35	Cu	0.385315	-0.482139	0.590114
Cu36	Cu	0.635315	-0.232139	0.840114
O37	O	-0.236959	-0.975517	-0.076280
O38	O	0.013041	-0.725517	0.173720
O39	O	0.263041	-0.475517	0.423720
O40	O	0.513041	-0.225517	0.673720
C41	C	-0.120857	-0.830129	-0.000039
C42	C	0.129143	-0.580129	0.249961
C43	C	0.379143	-0.330129	0.499961
C44	C	0.629143	-0.080129	0.749961
C45	C	-0.119226	-0.737833	-0.000034
C46	C	0.130774	-0.487833	0.249966
C47	C	0.380774	-0.237833	0.499966
C48	C	0.630774	0.012167	0.749966
C49	C	0.038887	-0.988194	-0.000057
C50	C	0.288887	-0.738194	0.249943
C51	C	0.538887	-0.488194	0.499943
C52	C	0.788887	-0.238194	0.749943
C53	C	0.132133	-0.986548	-0.000058
C54	C	0.382133	-0.736548	0.249942
C55	C	0.632133	-0.486548	0.499942
C56	C	0.882133	-0.236548	0.749942
C57	C	-0.268254	-0.976071	-0.000038
C58	C	-0.018254	-0.726071	0.249962
C59	C	0.231746	-0.476071	0.499962
C60	C	0.481746	-0.226071	0.749962
C61	C	-0.361500	-0.977717	-0.000031
C62	C	-0.111500	-0.727717	0.249969
C63	C	0.138500	-0.477717	0.499969
C64	C	0.388500	-0.227717	0.749969
C65	C	0.346962	-0.903499	-0.000040
C66	C	0.596962	-0.653499	0.249960
C67	C	0.846962	-0.403499	0.499960
C68	C	1.096962	-0.153499	0.749960
C69	C	0.407994	-0.942059	-0.075225
C70	C	0.657994	-0.692059	0.174775
C71	C	0.907994	-0.442059	0.424775
C72	C	1.157994	-0.192059	0.674775
C73	C	0.302858	-0.983572	-0.000051
C74	C	0.552858	-0.733572	0.249949
C75	C	0.802858	-0.483572	0.499949
C76	C	1.052858	-0.233572	0.749949
C77	C	0.407974	-0.942088	0.075109
C78	C	0.657974	-0.692088	0.325109
C79	C	0.907974	-0.442088	0.575109
C80	C	1.157974	-0.192088	0.825109
C81	C	0.467769	-0.980691	-0.000040
C82	C	0.717769	-0.730691	0.249960
C83	C	0.967769	-0.480691	0.499960
C84	C	1.217769	-0.230691	0.749960
C85	C	0.362661	-1.022154	-0.075297
C86	C	0.612661	-0.772154	0.174703
C87	C	0.862661	-0.522154	0.424703
C88	C	1.112661	-0.272154	0.674703
C89	C	0.362635	-1.022172	0.075104
C90	C	0.612635	-0.772172	0.325104
C91	C	0.862635	-0.522172	0.575104
C92	C	1.112635	-0.272172	0.825104
C93	C	0.423649	-1.060790	-0.000099
C94	C	0.673649	-0.810790	0.249901
C95	C	0.923649	-0.560790	0.499901
C96	C	1.173649	-0.310790	0.749901
C97	C	0.207856	-0.985229	-0.000058
C98	C	0.457856	-0.735229	0.249942
C99	C	0.707856	-0.485229	0.499942
C100	C	0.957856	-0.235229	0.749942
C101	C	0.562770	-0.979039	-0.000039
C102	C	0.812770	-0.729039	0.249961
C103	C	1.062770	-0.479039	0.499961
C104	C	1.312770	-0.229039	0.749961
C105	C	-0.108510	-1.134136	-0.000056
C106	C	0.141490	-0.884136	0.249944
C107	C	0.391490	-0.634136	0.499944
C108	C	0.641490	-0.384136	0.749944
C109	C	-0.110141	-1.226432	-0.000055
C110	C	0.139859	-0.976432	0.249945
C111	C	0.389859	-0.726432	0.499945
C112	C	0.639859	-0.476432	0.749945
N113	N	-0.114679	-0.982124	-0.217044
N114	N	0.135321	-0.732124	0.032956
N115	N	0.385321	-0.482124	0.282956
N116	N	0.635321	-0.232124	0.532956
C117	C	-0.191975	-0.515584	-0.000040
C118	C	0.058025	-0.265584	0.249960
C119	C	0.308025	-0.015584	0.499960
C120	C	0.558025	0.234416	0.749960
C121	C	-0.190435	-0.428863	-0.000046
C122	C	0.059565	-0.178863	0.249954
C123	C	0.309565	0.071137	0.499954
C124	C	0.559565	0.321137	0.749954
C125	C	-0.037387	-0.448688	-0.000053
C126	C	0.212613	-0.198688	0.249947
C127	C	0.462613	0.051312	0.499947
C128	C	0.712613	0.301312	0.749947
C129	C	-0.038927	-0.535407	-0.000053
C130	C	0.211073	-0.285407	0.249947
C131	C	0.461073	-0.035407	0.499947
C132	C	0.711073	0.214593	0.749947
C133	C	-0.116224	-0.568853	-0.000042
C134	C	0.133776	-0.318853	0.249958
C135	C	0.383776	-0.068853	0.499958
C136	C	0.633776	0.181147	0.749958
C137	C	-0.113143	-0.395412	-0.000047
C138	C	0.136857	-0.145412	0.249953
C139	C	0.386857	0.104588	0.499953
C140	C	0.636857	0.354588	0.749953
C141	C	-0.111473	-0.301386	-0.000054
C142	C	0.138527	-0.051386	0.249946
C143	C	0.388527	0.198614	0.499946
C144	C	0.638527	0.448614	0.749946
C145	C	-0.117894	-0.662885	-0.000037
C146	C	0.132106	-0.412885	0.249963
C147	C	0.382106	-0.162885	0.499963
C148	C	0.632106	0.087115	0.749963
C149	C	-0.057578	-1.038665	-0.548044
C150	C	0.192422	-0.788665	-0.298044
C151	C	0.442422	-0.538665	-0.048044
C152	C	0.692422	-0.288665	0.201956
C153	C	-0.057579	-1.038662	-0.452063
C154	C	0.192421	-0.788662	-0.202063
C155	C	0.442421	-0.538662	0.047937
C156	C	0.692421	-0.288662	0.297937
C157	C	-0.171788	-0.925604	-0.452060
C158	C	0.078212	-0.675604	-0.202060
C159	C	0.328212	-0.425604	0.047940
C160	C	0.578212	-0.175604	0.297940
C161	C	-0.171791	-0.925611	-0.548039
C162	C	0.078209	-0.675611	-0.298039
C163	C	0.328209	-0.425611	-0.048039
C164	C	0.578209	-0.175611	0.201961
C165	C	-0.114681	-0.982140	-0.596029
C166	C	0.135319	-0.732140	-0.346029
C167	C	0.385319	-0.482140	-0.096029
C168	C	0.635319	-0.232140	0.153971
C169	C	-0.114679	-0.982131	-0.404068
C170	C	0.135321	-0.732131	-0.154068
C171	C	0.385321	-0.482131	0.095932
C172	C	0.635321	-0.232131	0.345932
C173	C	-0.114680	-0.982129	-0.300001
C174	C	0.135320	-0.732129	-0.050001
C175	C	0.385320	-0.482129	0.199999
C176	C	0.635320	-0.232129	0.449999
C177	C	-0.114681	-0.982144	-0.700103
C178	C	0.135319	-0.732144	-0.450103
C179	C	0.385319	-0.482144	-0.200103
C180	C	0.635319	-0.232144	0.049897
N181	N	-0.114682	-0.982148	0.216946
N182	N	0.135318	-0.732148	0.466946
N183	N	0.385318	-0.482148	0.716946
N184	N	0.635318	-0.232148	0.966946
H185	H	0.313632	-0.837035	-0.000111
H186	H	0.563632	-0.587035	0.249889
H187	H	0.813632	-0.337035	0.499889
H188	H	1.063632	-0.087035	0.749889
Cl189	Cl	0.439025	-0.889766	-0.173355
Cl190	Cl	0.689025	-0.639766	0.076645
Cl191	Cl	0.939025	-0.389766	0.326645
Cl192	Cl	1.189025	-0.139766	0.576645
Cl193	Cl	0.056311	-0.602379	-0.000064
Cl194	Cl	0.306311	-0.352379	0.249936
Cl195	Cl	0.556311	-0.102379	0.499936
Cl196	Cl	0.806311	0.147621	0.749936
Cl197	Cl	0.331822	-1.074395	-0.173541
Cl198	Cl	0.581822	-0.824395	0.076459
Cl199	Cl	0.831822	-0.574395	0.326459
Cl200	Cl	1.081822	-0.324395	0.576459
H201	H	0.456830	-1.127313	-0.000145
H202	H	0.706830	-0.877313	0.249855
H203	H	0.956830	-0.627313	0.499855
H204	H	1.206830	-0.377313	0.749855
H205	H	-0.252119	-0.385495	-0.000045
H206	H	-0.002119	-0.135495	0.249955
H207	H	0.247881	0.114505	0.499955
H208	H	0.497881	0.364505	0.749955
H209	H	-0.218284	-0.879579	-0.412977
H210	H	0.031716	-0.629579	-0.162977
H211	H	0.281716	-0.379579	0.087023
H212	H	0.531716	-0.129579	0.337023
H213	H	0.342515	-1.056015	0.138666
H214	H	0.592515	-0.806015	0.388666
H215	H	0.842515	-0.556015	0.638666
H216	H	1.092515	-0.306015	0.888666
H217	H	0.428038	-0.908215	0.138677
H218	H	0.678038	-0.658215	0.388677
H219	H	0.928038	-0.408215	0.638677
H220	H	1.178038	-0.158215	0.888677
Cl221	Cl	0.014209	-1.109726	-0.391742
Cl222	Cl	0.264209	-0.859726	-0.141742
Cl223	Cl	0.514209	-0.609726	0.108258
Cl224	Cl	0.764209	-0.359726	0.358258
Cl225	Cl	-0.289147	-0.557627	-0.000031
Cl226	Cl	-0.039147	-0.307627	0.249969
Cl227	Cl	0.210853	-0.057627	0.499969
Cl228	Cl	0.460853	0.192373	0.749969
H229	H	-0.011077	-1.084695	-0.587116
H230	H	0.238923	-0.834695	-0.337116
H231	H	0.488923	-0.584695	-0.087116
H232	H	0.738923	-0.334695	0.162884
Cl233	Cl	-0.243587	-0.854550	-0.608369
Cl234	Cl	0.006413	-0.604550	-0.358369
Cl235	Cl	0.256413	-0.354550	-0.108369
Cl236	Cl	0.506413	-0.104550	0.141631
H237	H	0.025546	-0.421446	-0.000067
H238	H	0.275546	-0.171446	0.249933
H239	H	0.525546	0.078554	0.499933
H240	H	0.775546	0.328554	0.749933
