data_functionalizedCrystal
_audit_creation_method	'MofGen! by Chris Wilmer'
_symmetry_space_group_name_H-M	'P1'
_symmetry_Int_Tables_number	1
_symmetry_cell_setting	triclinic
loop_
_symmetry_equiv_pos_as_xyz
  x,y,z
_cell_length_a	14.044220
_cell_length_b	14.044220
_cell_length_c	12.503567
_cell_angle_alpha	86.159322
_cell_angle_beta	93.840205
_cell_angle_gamma	93.188878
loop_
_atom_site_label
_atom_site_type_symbol
_atom_site_fract_x
_atom_site_fract_y
_atom_site_fract_z
O1	O	-1.282207	-0.225120	-0.089210
O2	O	-1.005537	-0.216813	-0.089237
O3	O	-1.139719	-0.082631	-0.089214
O4	O	-1.148026	-0.359302	-0.089234
O5	O	-1.129615	-0.092733	0.089427
O6	O	-0.995433	-0.226915	0.089403
O7	O	-1.272103	-0.235222	0.089430
Cu8	Cu	-1.132846	-0.231991	0.105728
Cu9	Cu	-1.144795	-0.220044	-0.105535
O10	O	-1.137922	-0.369403	0.089407
C11	C	-0.964864	-0.218228	0.000080
C12	C	-0.858721	-0.207383	0.000070
C13	C	-1.131031	-0.052060	0.000107
C14	C	-1.120187	0.054082	0.000107
C15	C	-1.146609	-0.399974	0.000084
C16	C	-1.157454	-0.506117	0.000077
C17	C	-1.312777	-0.233807	0.000111
C18	C	-1.418920	-0.244651	0.000114
C19	C	-0.664382	-0.187558	0.000092
C20	C	-0.613253	-0.264472	0.000091
C21	C	-0.505116	-0.253441	0.000104
C22	C	-0.772529	-0.198587	0.000080
N23	N	-1.124448	-0.240393	0.254319
C24	C	-1.100361	0.248421	0.000090
C25	C	-1.177275	0.299551	0.000094
C26	C	-1.166244	0.407687	0.000084
C27	C	-1.111391	0.140274	0.000099
C28	C	-1.165542	-0.199282	0.526760
C29	C	-1.112104	-0.252754	0.473426
C30	C	-1.118974	-0.245875	0.351504
C31	C	-1.158673	-0.206160	0.648693
N32	N	-1.153195	-0.211646	0.745874
H33	H	-0.650692	-0.338605	0.000081
H34	H	-0.626945	-0.113431	0.000104
H35	H	-1.026234	0.285859	0.000080
H36	H	-1.251413	0.262115	0.000029
H37	H	-1.061194	-0.303701	0.519333
H38	H	-1.216450	-0.148340	0.480859
