data_functionalizedCrystal
_audit_creation_method	'MofGen! by Chris Wilmer'
_symmetry_space_group_name_H-M	'P1'
_symmetry_Int_Tables_number	1
_symmetry_cell_setting	triclinic
loop_
_symmetry_equiv_pos_as_xyz
  x,y,z
_cell_length_a	16.120530
_cell_length_b	12.645330
_cell_length_c	16.120297
_cell_angle_alpha	92.876762
_cell_angle_beta	90.128140
_cell_angle_gamma	87.113442
loop_
_atom_site_label
_atom_site_type_symbol
_atom_site_fract_x
_atom_site_fract_y
_atom_site_fract_z
Zn1	Zn	1.247482	-0.537081	-0.534595
Zn2	Zn	1.254445	-0.705843	-0.395547
Zn3	Zn	1.115471	-0.519167	-0.388512
Zn4	Zn	1.108402	-0.704866	-0.527517
O5	O	1.181450	-0.616739	-0.461543
O6	O	1.364772	-0.567373	-0.522057
O7	O	1.241883	-0.673991	-0.278248
O8	O	1.133026	-0.373200	-0.407909
O9	O	1.369888	-0.691362	-0.419899
O10	O	1.230014	-0.386361	-0.515235
O11	O	1.139779	-0.536842	-0.273080
O12	O	0.998166	-0.535895	-0.401045
O13	O	1.120978	-0.689698	-0.644821
O14	O	0.992972	-0.672327	-0.503171
O15	O	1.223160	-0.566427	-0.650022
O16	O	1.235028	-0.854056	-0.413035
O17	O	1.127731	-0.853339	-0.509992
C18	C	0.965397	-0.602062	-0.450577
C19	C	0.872967	-0.595810	-0.445905
C20	C	0.703737	-0.584371	-0.437383
C21	C	0.660000	-0.649190	-0.485763
C22	C	0.565835	-0.642825	-0.481022
C23	C	0.797911	-0.590734	-0.442124
C24	C	1.181390	-0.892164	-0.461528
C25	C	1.181439	-1.009999	-0.461554
C26	C	1.114193	-1.177186	-0.522761
C27	C	1.113876	-1.054592	-0.522537
C28	C	1.162161	-1.047614	-0.372717
C29	C	1.161751	-1.170210	-0.373088
C30	C	1.268390	-1.184441	-0.488492
C31	C	1.267753	-1.061915	-0.490381
C32	C	1.398347	-0.631475	-0.472552
C33	C	1.490775	-0.637754	-0.477244
C34	C	1.170504	-0.629952	-0.678438
C35	C	1.165839	-0.635582	-0.770865
C36	C	1.181532	-0.340242	-0.461577
C37	C	1.181567	-0.222415	-0.461592
C38	C	1.157292	-0.645836	-0.940091
C39	C	1.205771	-0.587337	-0.983855
C40	C	1.201016	-0.593042	-1.078018
C41	C	1.162047	-0.640132	-0.845919
C42	C	1.192401	-0.603505	-0.245494
C43	C	1.197227	-0.597587	-0.153075
H44	H	1.125422	-1.029426	-0.588270
C45	C	1.367972	-1.293875	-0.568589
C46	C	1.293304	-1.233253	-0.574773
H47	H	1.383342	-1.324014	-0.621857
H48	H	1.410270	-1.249859	-0.548144
H49	H	1.360939	-1.348876	-0.531581
H50	H	1.300340	-1.178247	-0.611777
H51	H	1.250997	-1.277272	-0.595230
H52	H	1.250846	-0.532968	-0.950605
H53	H	0.693277	-0.709462	-0.530745
H54	H	1.112221	-0.700199	-0.973339
H55	H	1.125592	-1.211590	-0.588700
C56	C	0.611552	-0.556146	-0.320719
C57	C	0.658821	-0.503013	-0.376657
H58	H	0.583821	-0.505920	-0.283226
H59	H	0.571744	-0.595969	-0.350457
H60	H	0.647040	-0.602571	-0.290527
H61	H	0.623333	-0.456594	-0.406854
H62	H	0.698634	-0.463172	-0.346916
C63	C	1.027424	-1.322596	-0.502550
C64	C	1.027714	-1.211745	-0.498510
H65	H	0.974038	-1.343929	-0.487570
H66	H	1.040261	-1.348795	-0.557516
H67	H	1.067770	-1.350239	-0.465290
H68	H	0.987372	-1.184102	-0.535774
H69	H	1.014868	-1.185534	-0.443535
C70	C	0.994081	-0.948468	-0.562475
C71	C	1.026863	-1.007919	-0.497999
H72	H	0.940359	-0.919662	-0.547324
H73	H	1.029392	-0.892519	-0.572346
H74	H	0.990247	-0.992912	-0.611478
H75	H	1.030703	-0.963473	-0.448998
H76	H	0.991543	-1.063874	-0.488118
H77	H	1.098415	-1.193374	-0.350817
C78	C	1.305880	-1.048690	-0.333213
C79	C	1.226582	-1.008311	-0.309257
H80	H	1.345655	-1.024418	-0.294043
H81	H	1.307093	-1.123952	-0.335339
H82	H	1.318676	-1.025068	-0.386500
H83	H	1.213784	-1.031939	-0.255973
H84	H	1.225367	-0.933033	-0.307122
H85	H	1.099513	-1.011500	-0.350136
H86	H	1.208935	-1.199856	-0.325719
H87	H	1.282372	-1.037930	-0.555782
H88	H	1.318531	-1.213794	-0.443994
H89	H	1.320237	-1.032010	-0.449427
