data_functionalizedCrystal
_audit_creation_method	'MofGen! by Chris Wilmer'
_symmetry_space_group_name_H-M	'P1'
_symmetry_Int_Tables_number	1
_symmetry_cell_setting	triclinic
loop_
_symmetry_equiv_pos_as_xyz
  x,y,z
_cell_length_a	23.532407
_cell_length_b	10.654550
_cell_length_c	9.730223
_cell_angle_alpha	90.000193
_cell_angle_beta	89.994848
_cell_angle_gamma	83.666790
loop_
_atom_site_label
_atom_site_type_symbol
_atom_site_fract_x
_atom_site_fract_y
_atom_site_fract_z
O1	O	-0.756249	-0.152433	-0.114115
O2	O	-0.590530	-0.174490	-0.114155
O3	O	-0.677200	0.019399	-0.114129
O4	O	-0.669579	-0.346321	-0.114141
O5	O	-0.677199	0.019394	0.114451
O6	O	-0.590529	-0.174495	0.114425
O7	O	-0.756248	-0.152438	0.114465
Zn8	Zn	-0.673388	-0.163467	0.150737
Zn9	Zn	-0.673390	-0.163461	-0.150427
O10	O	-0.669578	-0.346326	0.114439
C11	C	-0.569310	-0.173931	0.000130
C12	C	-0.506081	-0.172242	0.000115
C13	C	-0.676640	0.066176	0.000159
C14	C	-0.674966	0.205567	0.000154
C15	C	-0.777469	-0.152997	0.000177
C16	C	-0.840697	-0.154686	0.000183
C17	C	-0.107657	-0.276389	0.000173
C18	C	-0.048247	-0.274820	0.000182
O19	O	-0.012131	-0.371366	0.000229
N20	N	-0.024869	-0.159554	0.000183
C21	C	-0.060906	-0.045849	0.000190
O22	O	-0.035567	0.052339	0.000194
C23	C	-0.120315	-0.047419	0.000192
C24	C	-0.143689	-0.162693	0.000176
C25	C	-0.131031	-0.391654	0.000160
C26	C	-0.190438	-0.393222	0.000149
C27	C	-0.226470	-0.279525	0.000151
C28	C	-0.203095	-0.164261	0.000165
C29	C	-0.156351	0.066285	0.000209
C30	C	-0.215764	0.064705	0.000211
C31	C	-0.239138	-0.050569	0.000196
C32	C	-0.298534	-0.052133	0.000157
N33	N	-0.321911	-0.167399	0.000156
C34	C	-0.285879	-0.281096	0.000153
C35	C	0.063858	-0.042560	0.000190
C36	C	0.123266	-0.040989	0.000179
C37	C	0.135922	-0.269961	0.000173
C38	C	0.076512	-0.271531	0.000174
C39	C	0.040481	-0.157827	0.000188
C40	C	-0.410637	-0.284380	0.000128
C41	C	-0.470049	-0.285938	0.000112
C42	C	-0.482700	-0.056967	0.000125
C43	C	-0.423293	-0.055408	0.000134
C44	C	-0.387262	-0.169125	0.000141
O45	O	-0.334684	0.044362	0.000116
O46	O	-0.311227	-0.379267	0.000168
C47	C	-0.670138	-0.393104	0.000148
C48	C	-0.671812	-0.532494	0.000144
N49	N	-0.673392	-0.163471	0.356273
C50	C	-0.725996	0.286669	0.000170
C51	C	-0.724419	0.417640	0.000160
C52	C	-0.620779	0.386393	0.000123
C53	C	-0.622356	0.255425	0.000123
C54	C	-0.785832	0.304710	0.000198
C55	C	-0.784256	0.435681	0.000188
N56	N	-0.673391	-0.163447	-0.355963
C57	C	-0.711779	-0.077646	0.428211
C58	C	-0.711778	-0.077630	0.572094
C59	C	-0.634999	-0.249276	0.572089
C60	C	-0.634999	-0.249285	0.428209
C61	C	-0.756108	0.021450	0.428215
C62	C	-0.756107	0.021465	0.572098
H63	H	-0.489077	-0.379812	0.000098
C64	C	-0.124505	-0.618131	0.000129
C65	C	-0.091431	-0.516644	0.000144
H66	H	-0.100059	-0.695299	0.000102
H67	H	-0.147939	-0.613980	0.079840
H68	H	-0.147942	-0.613948	-0.079583
H69	H	-0.067996	-0.520821	0.079861
H70	H	-0.067987	-0.520797	-0.079575
C71	C	-0.689225	0.176060	0.423448
C72	C	-0.742975	0.151340	0.375486
H73	H	-0.681116	0.256243	0.390889
H74	H	-0.689231	0.176060	0.521063
H75	H	-0.660875	0.112648	0.390897
H76	H	-0.771327	0.214746	0.408046
H77	H	-0.742974	0.151350	0.277850
H78	H	-0.580802	0.189394	0.000091
H79	H	-0.797454	-0.007829	0.383597
C80	C	-0.776674	0.447815	-0.245426
C81	C	-0.808672	0.498080	-0.133032
H82	H	-0.791751	0.486334	-0.327668
H83	H	-0.737983	0.463702	-0.234909
H84	H	-0.778598	0.359321	-0.249937
H85	H	-0.806744	0.586574	-0.128516
H86	H	-0.847373	0.482204	-0.143552
H87	H	-0.804885	0.269685	0.098899
H88	H	-0.742271	0.112249	0.616712
H89	H	-0.806801	0.478154	0.095852
C90	C	-0.809207	-0.115640	0.704806
C91	C	-0.815180	-0.005712	0.624841
H92	H	-0.845675	-0.132411	0.737371
H93	H	-0.793007	-0.184623	0.650573
H94	H	-0.784894	-0.104427	0.780721
H95	H	-0.839490	-0.016928	0.548920
H96	H	-0.831389	0.063288	0.679077
H97	H	-0.603736	-0.319159	0.369638
H98	H	0.034524	0.050038	0.000189
C99	C	-0.404111	-0.510868	0.000095
C100	C	-0.371039	-0.409379	0.000118
H101	H	-0.379664	-0.588035	0.000072
H102	H	-0.427548	-0.506721	0.079801
H103	H	-0.427546	-0.506688	-0.079621
H104	H	-0.347607	-0.413554	0.079840
H105	H	-0.347592	-0.413528	-0.079596
H106	H	-0.577945	0.427004	0.000097
C107	C	-0.557609	-0.277369	0.733884
C108	C	-0.592802	-0.343603	0.651170
H109	H	-0.531561	-0.335607	0.782709
H110	H	-0.536923	-0.225342	0.677742
H111	H	-0.580478	-0.226255	0.797314
H112	H	-0.569934	-0.394710	0.587733
H113	H	-0.613490	-0.395651	0.707318
C114	C	-0.780677	0.181946	-0.207253
C115	C	-0.817420	0.266065	-0.128925
H116	H	-0.800180	0.158084	-0.286961
H117	H	-0.748190	0.221703	-0.233828
H118	H	-0.768751	0.108992	-0.154094
H119	H	-0.829343	0.339024	-0.182081
H120	H	-0.849918	0.226309	-0.102352
H121	H	-0.209463	-0.487090	0.000135
H122	H	0.057486	-0.365397	0.000169
H123	H	0.165270	-0.362539	0.000177
H124	H	0.142291	0.052879	0.000170
H125	H	-0.245099	0.157299	0.000224
C126	C	-0.070913	0.170397	0.000222
C127	C	-0.130669	0.192999	0.000225
H128	H	-0.055060	0.248632	0.000223
H129	H	-0.058579	0.123623	0.079923
H130	H	-0.058574	0.123625	-0.079499
H131	H	-0.143008	0.239764	0.079951
H132	H	-0.143007	0.239794	-0.079485
C133	C	-0.441773	0.170763	0.000130
C134	C	-0.397597	0.071301	0.000137
H135	H	-0.425911	0.248987	0.000147
H136	H	-0.464672	0.165388	-0.079584
H137	H	-0.464689	0.165377	0.079838
H138	H	-0.374682	0.076682	-0.079577
H139	H	-0.374688	0.076678	0.079859
H140	H	-0.512048	0.035602	0.000122
