data_functionalizedCrystal
_audit_creation_method	'MofGen! by Chris Wilmer'
_symmetry_space_group_name_H-M	'P1'
_symmetry_Int_Tables_number	1
_symmetry_cell_setting	triclinic
loop_
_symmetry_equiv_pos_as_xyz
  x,y,z
_cell_length_a	11.169417
_cell_length_b	17.077402
_cell_length_c	17.077396
_cell_angle_alpha	90.029784
_cell_angle_beta	89.983750
_cell_angle_gamma	89.976238
loop_
_atom_site_label
_atom_site_type_symbol
_atom_site_fract_x
_atom_site_fract_y
_atom_site_fract_z
Zn1	Zn	1.834815	0.312490	-0.443768
Zn2	Zn	2.334815	0.812490	0.056232
Zn3	Zn	1.834673	0.443765	-0.312499
Zn4	Zn	2.334673	0.943765	0.187501
Zn5	Zn	1.634114	0.312519	-0.312523
Zn6	Zn	2.134114	0.812519	0.187477
Zn7	Zn	1.634065	0.443720	-0.443730
Zn8	Zn	2.134065	0.943720	0.056270
O9	O	1.734417	0.378123	-0.378130
O10	O	2.234417	0.878123	0.121870
O11	O	2.002746	0.329910	-0.426360
O12	O	2.502746	0.829910	0.073640
O13	O	1.808030	0.426386	-0.202655
O14	O	2.308030	0.926386	0.297345
O15	O	1.660817	0.202668	-0.329959
O16	O	2.160817	0.702668	0.170041
O17	O	2.002642	0.426357	-0.329917
O18	O	2.502642	0.926357	0.170083
O19	O	1.808272	0.202647	-0.426384
O20	O	2.308272	0.702647	0.073616
O21	O	1.660679	0.329960	-0.202673
O22	O	2.160679	0.829960	0.297327
O23	O	1.466158	0.329916	-0.329922
O24	O	1.966158	0.829916	0.170078
O25	O	1.660734	0.426281	-0.553582
O26	O	2.160734	0.926281	-0.053582
O27	O	1.466122	0.426309	-0.426319
O28	O	1.966122	0.926309	0.073681
O29	O	1.808224	0.329867	-0.553609
O30	O	2.308224	0.829867	-0.053609
O31	O	1.807982	0.553606	-0.329881
O32	O	2.307982	1.053606	0.170119
O33	O	1.660596	0.553572	-0.426295
O34	O	2.160596	1.053572	0.073705
C35	C	1.422592	0.378111	-0.378120
C36	C	1.922592	0.878111	0.121880
C37	C	1.289192	0.378125	-0.378134
C38	C	1.789192	0.878125	0.121866
C39	C	1.734301	0.582071	-0.378098
C40	C	2.234301	1.082071	0.121902
C41	C	1.734361	0.669321	-0.378111
C42	C	2.234361	1.169321	0.121889
C43	C	1.734489	0.378065	-0.582874
C44	C	2.234489	0.878065	-0.082874
C45	C	1.734520	0.378041	-0.670124
C46	C	2.234520	0.878041	-0.170124
C47	C	2.047459	0.378136	-0.378140
C48	C	2.547459	0.878136	0.121860
C49	C	2.180859	0.378141	-0.378145
C50	C	2.680859	0.878141	0.121855
C51	C	1.734566	0.173379	-0.378178
C52	C	2.234566	0.673379	0.121822
C53	C	1.734629	0.086129	-0.378199
C54	C	2.234629	0.586129	0.121801
C55	C	1.811184	0.710302	-0.327962
C56	C	2.311184	1.210302	0.172038
C57	C	1.811242	0.792283	-0.327982
C58	C	2.311242	1.292283	0.172018
C59	C	1.734472	0.833280	-0.378148
C60	C	2.234472	1.333280	0.121852
C61	C	1.657646	0.792293	-0.428303
C62	C	2.157646	1.292293	0.071697
C63	C	1.657594	0.710314	-0.428286
C64	C	2.157594	1.210314	0.071714
C65	C	1.657757	0.963163	-0.428332
C66	C	2.157757	1.463163	0.071668
C67	C	1.657807	1.045148	-0.428348
C68	C	2.157807	1.545148	0.071652
C69	C	1.811405	1.045132	-0.328028
C70	C	2.311405	1.545132	0.171972
C71	C	1.811353	0.963153	-0.328012
C72	C	2.311353	1.463153	0.171988
C73	C	1.734526	0.922171	-0.378166
C74	C	2.234526	1.422171	0.121834
C75	C	1.811321	0.327834	-0.711130
C76	C	2.311321	0.827834	-0.211130
C77	C	1.811336	0.327808	-0.793110
C78	C	2.311336	0.827808	-0.293110
C79	C	1.734554	0.377993	-0.834083
C80	C	2.234554	0.877993	-0.334083
C81	C	1.657745	0.428202	-0.793072
C82	C	2.157745	0.928202	-0.293072
C83	C	1.657725	0.428224	-0.711093
C84	C	2.157725	0.928224	-0.211093
C85	C	1.657793	0.428155	-0.963942
C86	C	2.157793	0.928155	-0.463942
C87	C	1.657814	0.428135	-1.045926
C88	C	2.157814	0.928135	-0.545926
C89	C	1.811404	0.327739	-1.045959
C90	C	2.311404	0.827739	-0.545959
C91	C	1.811384	0.327760	-0.963980
C92	C	2.311384	0.827760	-0.463980
C93	C	1.734576	0.377971	-0.922974
C94	C	2.234576	0.877971	-0.422974
C95	C	1.734414	0.378124	-0.174182
C96	C	2.234414	0.878124	0.325818
C97	C	1.734615	0.377928	-0.086932
C98	C	2.234615	0.877928	0.413068
H99	H	1.873694	0.676927	-0.287108
H100	H	2.373694	1.176927	0.212892
H101	H	1.873913	0.286900	-0.930622
H102	H	2.373913	0.786900	-0.430622
H103	H	1.873798	0.825646	-0.287145
H104	H	2.373798	1.325646	0.212855
H105	H	1.595200	0.929799	-0.469176
H106	H	2.095200	1.429799	0.030824
N107	N	1.575011	1.089366	-0.482460
N108	N	2.075011	1.589366	0.017540
H109	H	1.623782	1.123329	-0.518863
H110	H	2.123782	1.623329	-0.018863
H111	H	1.519455	1.123384	-0.450479
H112	H	2.019455	1.623384	0.049521
N113	N	1.894147	0.273641	-0.837339
N114	N	2.394147	0.773641	-0.337339
H115	H	1.942783	0.241851	-0.798943
H116	H	2.442783	0.741851	-0.298943
H117	H	1.949678	0.305573	-0.871359
H118	H	2.449678	0.805573	-0.371359
N119	N	1.574972	0.482228	-1.090138
N120	N	2.074972	0.982228	-0.590138
H121	H	1.623705	0.518602	-1.124156
H122	H	2.123705	1.018602	-0.624156
H123	H	1.526298	0.513984	-1.051687
H124	H	2.026298	1.013984	-0.551687
N125	N	1.894158	0.918930	-0.273909
N126	N	2.394158	1.418930	0.226091
H127	H	1.875586	0.933244	-0.217814
H128	H	2.375586	1.433244	0.282186
H129	H	1.979874	0.933160	-0.286224
H130	H	2.479874	1.433160	0.213776
N131	N	1.574835	0.836510	-0.482405
N132	N	2.074835	1.336510	0.017595
H133	H	1.526161	0.798107	-0.514173
H134	H	2.026161	1.298107	-0.014173
H135	H	1.623674	0.870474	-0.518766
H136	H	2.123674	1.370474	-0.018766
N137	N	1.574740	0.666109	-0.482378
N138	N	2.074740	1.166109	0.017622
H139	H	1.526112	0.704519	-0.514160
H140	H	2.026112	1.204519	-0.014160
H141	H	1.519205	0.632146	-0.450389
H142	H	2.019205	1.132146	0.049611
H143	H	1.873850	0.286969	-0.677775
H144	H	2.373850	0.786969	-0.177775
H145	H	1.873965	1.078503	-0.287194
H146	H	2.373965	1.578503	0.212806
N147	N	1.894253	0.273584	-1.090181
N148	N	2.394253	0.773584	-0.590181
H149	H	1.882614	0.281181	-1.148332
H150	H	2.382614	0.781181	-0.648332
H151	H	1.875618	0.217525	-1.075862
H152	H	2.375618	0.717525	-0.575862
N153	N	1.574946	0.482305	-0.919711
N154	N	2.074946	0.982305	-0.419711
H155	H	1.526310	0.514096	-0.958105
H156	H	2.026310	1.014096	-0.458105
H157	H	1.623766	0.518642	-0.885692
H158	H	2.123766	1.018642	-0.385692
H159	H	1.595224	0.469061	-0.826438
H160	H	2.095224	0.969061	-0.326438
H161	H	1.595174	0.469099	-0.677707
H162	H	2.095174	0.969099	-0.177707
