data_functionalizedCrystal
_audit_creation_method	'MofGen! by Chris Wilmer'
_symmetry_space_group_name_H-M	'P1'
_symmetry_Int_Tables_number	1
_symmetry_cell_setting	triclinic
loop_
_symmetry_equiv_pos_as_xyz
  x,y,z
_cell_length_a	16.992694
_cell_length_b	16.109301
_cell_length_c	14.586319
_cell_angle_alpha	90.005214
_cell_angle_beta	89.997873
_cell_angle_gamma	87.064852
loop_
_atom_site_label
_atom_site_type_symbol
_atom_site_fract_x
_atom_site_fract_y
_atom_site_fract_z
O1	O	-1.040345	-0.176288	-0.076131
O2	O	-0.812060	-0.174354	-0.076158
O3	O	-0.932474	-0.054709	-0.076134
O4	O	-0.919932	-0.295934	-0.076154
O5	O	-0.932466	-0.054706	0.076347
O6	O	-0.812052	-0.174352	0.076323
O7	O	-1.040337	-0.176286	0.076350
Cu8	Cu	-0.926194	-0.175318	0.090259
Cu9	Cu	-0.926204	-0.175321	-0.090067
O10	O	-0.919923	-0.295931	0.076327
C11	C	-0.782844	-0.171865	0.000080
C12	C	-0.695802	-0.164441	0.000070
C13	C	-0.931962	-0.023699	0.000107
C14	C	-0.930439	0.068698	0.000108
C15	C	-1.069553	-0.178775	0.000111
C16	C	-1.156595	-0.186198	0.000115
C17	C	-0.645543	-0.236067	0.000064
C18	C	-0.563758	-0.229087	0.000078
C19	C	-0.532234	-0.150481	0.000090
C20	C	-0.582499	-0.078849	0.000098
C21	C	-0.664282	-0.085830	0.000091
C22	C	-0.288644	-0.121548	0.000116
C23	C	-0.206854	-0.114572	0.000120
C24	C	-0.188119	-0.264811	0.000102
C25	C	-0.269904	-0.271785	0.000090
C26	C	-0.320163	-0.200154	0.000103
N27	N	-0.448637	-0.143344	0.000100
N28	N	-0.403758	-0.207291	0.000099
C29	C	-0.920435	-0.326941	0.000084
C30	C	-0.921959	-0.419338	0.000077
N31	N	-0.926192	-0.175316	0.217091
C32	C	-0.998348	0.286439	0.000101
C33	C	-0.996911	0.373256	0.000094
C34	C	-0.854044	0.362915	0.000080
C35	C	-0.855482	0.276100	0.000082
C36	C	-0.927636	0.237865	0.000097
C37	C	-0.924761	0.411496	0.000088
C38	C	-0.923202	0.505626	0.000080
C39	C	-0.929196	0.143729	0.000103
N40	N	-0.926211	-0.175317	-0.216898
C41	C	-0.979529	-0.122357	0.452108
C42	C	-0.979531	-0.122355	0.548089
C43	C	-0.872869	-0.228278	0.548078
C44	C	-0.872863	-0.228276	0.452098
C45	C	-0.926198	-0.175316	0.404116
C46	C	-0.926206	-0.175317	0.596077
C47	C	-0.926208	-0.175316	0.700144
C48	C	-0.926195	-0.175316	0.300042
H49	H	-0.671204	-0.300077	0.000054
H50	H	-0.295565	-0.335795	0.000070
Br51	Br	-0.800490	-0.300151	0.613200
Br52	Br	-0.800474	-0.300146	0.386959
Br53	Br	-0.756125	0.414811	0.000057
H54	H	-0.797897	0.236549	0.000075
H55	H	-0.522840	-0.287413	0.000072
H56	H	-0.147190	-0.323129	0.000094
H57	H	-1.022957	-0.079233	0.413043
Br58	Br	-0.164072	-0.007884	0.000156
H59	H	-0.329554	-0.063220	0.000128
Br60	Br	-1.092881	0.439176	0.000095
H61	H	-0.556826	-0.014846	0.000120
Br62	Br	-0.732493	0.011381	0.000106
H63	H	-1.022958	-0.079231	0.587162
Br64	Br	-1.096271	0.234551	0.000123
