data_functionalizedCrystal
_audit_creation_method	'MofGen! by Chris Wilmer'
_symmetry_space_group_name_H-M	'P1'
_symmetry_Int_Tables_number	1
_symmetry_cell_setting	triclinic
loop_
_symmetry_equiv_pos_as_xyz
  x,y,z
_cell_length_a	14.044220
_cell_length_b	16.992694
_cell_length_c	16.053948
_cell_angle_alpha	87.288422
_cell_angle_beta	92.650765
_cell_angle_gamma	88.071450
loop_
_atom_site_label
_atom_site_type_symbol
_atom_site_fract_x
_atom_site_fract_y
_atom_site_fract_z
O1	O	0.198257	-1.051321	-0.069326
O2	O	0.196039	-0.822880	-0.069351
O3	O	0.058904	-0.933672	-0.069331
O4	O	0.335392	-0.940529	-0.069346
O5	O	0.066516	-0.940076	0.069526
O6	O	0.203651	-0.829284	0.069505
O7	O	0.205869	-1.057726	0.069530
Zn8	Zn	0.205969	-0.944522	0.091564
Zn9	Zn	0.195939	-0.936083	-0.091385
O10	O	0.343004	-0.946933	0.069510
C11	C	0.027168	-0.933872	0.000098
C12	C	-0.078736	-0.924918	0.000098
C13	C	0.196993	-0.796670	0.000074
C14	C	0.188484	-0.709030	0.000065
C15	C	0.204915	-1.083935	0.000103
C16	C	0.213424	-1.171575	0.000107
C17	C	-0.272638	-0.908547	0.000084
C18	C	-0.325460	-0.972054	0.000088
C19	C	-0.433354	-0.962945	0.000080
C20	C	-0.164734	-0.917655	0.000091
C21	C	0.374740	-0.946733	0.000080
C22	C	0.480643	-0.955687	0.000074
N23	N	0.212814	-0.950286	0.216422
C24	C	0.270580	-0.664531	0.000061
C25	C	0.262581	-0.582186	0.000073
C26	C	0.172483	-0.544340	0.000083
C27	C	0.090381	-0.588845	0.000090
C28	C	0.098382	-0.671189	0.000084
C29	C	0.139322	-0.298424	0.000107
C30	C	0.131327	-0.216073	0.000111
C31	C	0.303528	-0.209420	0.000096
C32	C	0.311521	-0.291766	0.000085
C33	C	0.229419	-0.336264	0.000096
N34	N	0.164304	-0.460169	0.000093
N35	N	0.237599	-0.420433	0.000092
N36	N	0.189087	-0.930325	-0.216243
C37	C	0.153760	-0.900468	0.260138
C38	C	0.158561	-0.904521	0.347543
C39	C	0.222411	-0.958397	0.391230
C40	C	0.281471	-1.008217	0.347508
C41	C	0.276674	-1.004159	0.260104
C42	C	0.243351	-0.976087	0.652632
C43	C	0.248141	-0.980143	0.740041
C44	C	0.125231	-0.876446	0.740070
C45	C	0.120436	-0.872396	0.652665
C46	C	0.179500	-0.922213	0.608951
N47	N	0.227318	-0.962542	0.480572
N48	N	0.174597	-0.918063	0.519610
H49	H	-0.289655	-1.033262	0.000039
C50	C	-0.321005	-0.825863	0.000082
H51	H	-0.388227	-0.830513	0.000087
H52	H	-0.304972	-0.795794	-0.048338
H53	H	-0.299672	-0.800278	0.048512
C54	C	0.369688	-0.706155	0.000050
H55	H	0.417436	-0.667857	0.000056
H56	H	0.373736	-0.735898	-0.048375
H57	H	0.379044	-0.740379	0.048476
H58	H	0.329433	-0.545958	0.000069
H59	H	0.384887	-0.322574	0.000067
C60	C	0.393832	-0.160472	0.000094
H61	H	0.376168	-0.106011	0.000107
H62	H	0.427869	-0.170358	-0.048329
H63	H	0.433170	-0.174843	0.048522
H64	H	0.057955	-0.185262	0.000118
H65	H	0.072468	-0.334644	0.000117
H66	H	0.017022	-0.558025	0.000110
H67	H	0.031530	-0.707419	0.000086
H68	H	0.101764	-0.856600	0.224574
H69	H	0.110473	-0.863955	0.383133
H70	H	0.068440	-0.828528	0.617101
H71	H	0.077147	-0.835886	0.775672
H72	H	0.300139	-1.024015	0.775609
H73	H	0.333463	-1.052080	0.383085
H74	H	0.324765	-1.044724	0.224512
C75	C	0.308313	-1.030888	0.604557
H76	H	0.347018	-1.063559	0.643096
H77	H	0.347832	-1.000069	0.570465
H78	H	0.270163	-1.062858	0.570456
