data_functionalizedCrystal
_audit_creation_method	'MofGen! by Chris Wilmer'
_symmetry_space_group_name_H-M	'P1'
_symmetry_Int_Tables_number	1
_symmetry_cell_setting	triclinic
loop_
_symmetry_equiv_pos_as_xyz
  x,y,z
_cell_length_a	13.897448
_cell_length_b	10.685969
_cell_length_c	13.897449
_cell_angle_alpha	94.372737
_cell_angle_beta	90.010270
_cell_angle_gamma	94.348258
loop_
_atom_site_label
_atom_site_type_symbol
_atom_site_fract_x
_atom_site_fract_y
_atom_site_fract_z
Zn1	Zn	-0.497105	-1.928901	0.432123
Zn2	Zn	-0.163771	-1.595567	0.765457
Zn3	Zn	0.169562	-1.262234	1.098790
Zn4	Zn	-0.658364	-1.928817	0.270830
Zn5	Zn	-0.325031	-1.595483	0.604163
Zn6	Zn	0.008303	-1.262150	0.937497
Zn7	Zn	-0.484739	-1.717942	0.283229
Zn8	Zn	-0.151406	-1.384608	0.616562
Zn9	Zn	0.181928	-1.051275	0.949895
Zn10	Zn	-0.646004	-1.717863	0.444469
Zn11	Zn	-0.312671	-1.384530	0.777802
Zn12	Zn	0.020662	-1.051197	1.111135
O13	O	-0.571553	-1.823381	0.357663
O14	O	-0.238220	-1.490047	0.690996
O15	O	0.095114	-1.156714	1.024329
O16	O	-0.528844	-2.105461	0.400372
O17	O	-0.195510	-1.772128	0.733705
O18	O	0.137823	-1.438795	1.067039
O19	O	-0.635330	-1.900841	0.137493
O20	O	-0.301997	-1.567508	0.470827
O21	O	0.031337	-1.234174	0.804160
O22	O	-0.351402	-1.745994	0.303002
O23	O	-0.018068	-1.412660	0.636336
O24	O	0.315265	-1.079327	0.969669
O25	O	-0.647320	-2.105400	0.281870
O26	O	-0.313987	-1.772066	0.615204
O27	O	0.019346	-1.438733	0.948537
O28	O	-0.360487	-1.900985	0.412395
O29	O	-0.027153	-1.567651	0.745728
O30	O	0.306180	-1.234318	1.079061
O31	O	-0.507769	-1.745912	0.146602
O32	O	-0.174435	-1.412579	0.479936
O33	O	0.158898	-1.079245	0.813269
O34	O	-0.495784	-1.541359	0.314973
O35	O	-0.162450	-1.208026	0.648306
O36	O	0.170883	-0.874693	0.981640
O37	O	-0.626255	-1.745860	0.577813
O38	O	-0.292921	-1.412527	0.911146
O39	O	0.040412	-1.079194	1.244479
O40	O	-0.614264	-1.541302	0.433435
O41	O	-0.280931	-1.207969	0.766769
O42	O	0.052402	-0.874635	1.100102
O43	O	-0.516859	-1.900909	0.568743
O44	O	-0.183525	-1.567575	0.902076
O45	O	0.149808	-1.234242	1.235409
O46	O	-0.791702	-1.900765	0.293841
O47	O	-0.458369	-1.567432	0.627174
O48	O	-0.125036	-1.234098	0.960508
O49	O	-0.782621	-1.745779	0.421413
O50	O	-0.449288	-1.412445	0.754746
O51	O	-0.115955	-1.079112	1.088079
C52	C	-0.552342	-1.495548	0.376890
C53	C	-0.219008	-1.162214	0.710223
C54	C	0.114325	-0.828881	1.043556
C55	C	-0.544146	-1.355299	0.385138
C56	C	-0.210813	-1.021966	0.718471
C57	C	0.122520	-0.688632	1.051805
C58	C	-0.822162	-1.823288	0.357640
C59	C	-0.488829	-1.489955	0.690974
C60	C	-0.155495	-1.156622	1.024307
C61	C	-0.929380	-1.823365	0.357656
C62	C	-0.596047	-1.490031	0.690989
C63	C	-0.262714	-1.156698	1.024323
C64	C	-1.125683	-1.823497	0.357709
C65	C	-0.792350	-1.490164	0.691042
C66	C	-0.459016	-1.156830	1.024375
C67	C	-1.016446	-1.823420	0.357683
C68	C	-0.683113	-1.490086	0.691016
C69	C	-0.349779	-1.156753	1.024349
C70	C	-0.319967	-1.823507	0.357704
C71	C	0.013366	-1.490174	0.691038
C72	C	0.346699	-1.156841	1.024371
C73	C	-0.212757	-1.823561	0.357722
C74	C	0.120577	-1.490228	0.691056
C75	C	0.453910	-1.156895	1.024389
C76	C	-0.571557	-1.823385	0.609255
C77	C	-0.238224	-1.490052	0.942589
C78	C	0.095109	-1.156719	1.275922
C79	C	-0.571559	-1.823387	0.716469
C80	C	-0.238226	-1.490054	1.049802
C81	C	0.095108	-1.156721	1.383136
C82	C	-0.590831	-1.152494	0.338350
C83	C	-0.257497	-0.819160	0.671684
C84	C	0.075836	-0.485827	1.005017
C85	C	-0.599022	-1.292742	0.330092
C86	C	-0.265689	-0.959409	0.663426
C87	C	0.067645	-0.626075	0.996759
C88	C	-0.571562	-1.823355	0.912766
C89	C	-0.238228	-1.490022	1.246099
C90	C	0.095105	-1.156689	1.579433
C91	C	-0.571563	-1.823369	0.803533
C92	C	-0.238229	-1.490036	1.136866
C93	C	0.095104	-1.156703	1.470200
C94	C	-0.571568	-1.823364	1.107049
C95	C	-0.238234	-1.490030	1.440383
C96	C	0.095099	-1.156697	1.773716
C97	C	-0.571559	-1.823354	0.999836
C98	C	-0.238226	-1.490021	1.333169
C99	C	0.095107	-1.156687	1.666503
H100	H	-0.490896	-1.301563	0.438581
H101	H	-0.157563	-0.968229	0.771914
H102	H	0.175770	-0.634896	1.105248
H103	H	-0.652284	-1.346485	0.276654
H104	H	-0.318950	-1.013152	0.609988
H105	H	0.014383	-0.679818	0.943321
