data_functionalizedCrystal
_audit_creation_method	'MofGen! by Chris Wilmer'
_symmetry_space_group_name_H-M	'P1'
_symmetry_Int_Tables_number	1
_symmetry_cell_setting	triclinic
loop_
_symmetry_equiv_pos_as_xyz
  x,y,z
_cell_length_a	16.956995
_cell_length_b	9.130307
_cell_length_c	16.992695
_cell_angle_alpha	90.003719
_cell_angle_beta	83.361347
_cell_angle_gamma	90.004660
loop_
_atom_site_label
_atom_site_type_symbol
_atom_site_fract_x
_atom_site_fract_y
_atom_site_fract_z
O1	O	1.060096	0.121901	0.032362
O2	O	1.560096	0.621901	0.532362
O3	O	0.829686	0.121882	0.059776
O4	O	1.329686	0.621882	0.559776
O5	O	0.943967	0.121880	-0.068014
O6	O	1.443967	0.621880	0.431986
O7	O	0.945814	0.121903	0.160152
O8	O	1.445814	0.621903	0.660152
O9	O	0.943963	-0.121719	-0.068015
O10	O	1.443963	0.378281	0.431985
O11	O	0.829682	-0.121717	0.059775
O12	O	1.329682	0.378283	0.559775
O13	O	1.060092	-0.121698	0.032361
O14	O	1.560092	0.378302	0.532361
Cu15	Cu	0.944886	-0.143950	0.046068
Cu16	Cu	1.444886	0.356050	0.546068
Cu17	Cu	0.944891	0.144134	0.046069
Cu18	Cu	1.444891	0.644134	0.546069
O19	O	0.945810	-0.121696	0.160151
O20	O	1.445810	0.378304	0.660151
C21	C	0.800065	0.000080	0.061179
C22	C	1.300065	0.500080	0.561179
C23	C	0.711811	0.000073	0.065352
C24	C	1.211811	0.500073	0.565352
N25	N	0.944889	-0.346573	0.046067
N26	N	1.444889	0.153427	0.546067
C27	C	0.214500	0.000131	0.096570
C28	C	0.714500	0.500131	0.596570
C29	C	0.297425	0.000129	0.092643
C30	C	0.797425	0.500129	0.592643
C31	C	0.343815	0.000110	0.018931
C32	C	0.843815	0.500110	0.518931
C33	C	0.307278	0.000108	-0.050860
C34	C	0.807278	0.500108	0.449140
C35	C	0.224354	0.000120	-0.046932
C36	C	0.724354	0.500120	0.453068
C37	C	0.592349	0.000083	-0.000510
C38	C	1.092349	0.500083	0.499490
C39	C	0.675278	0.000066	-0.004433
C40	C	1.175278	0.500066	0.495567
C41	C	0.665419	0.000090	0.139071
C42	C	1.165419	0.500090	0.639071
C43	C	0.582495	0.000093	0.142992
C44	C	1.082495	0.500093	0.642992
C45	C	0.545964	0.000099	0.073202
C46	C	1.045964	0.500099	0.573202
N47	N	0.428578	0.000104	0.014915
N48	N	0.928578	0.500104	0.514915
N49	N	0.461203	0.000115	0.077218
N50	N	0.961203	0.500115	0.577218
C51	C	1.046131	-0.346565	-0.067063
C52	C	1.546131	0.153435	0.432937
C53	C	1.096757	-0.423228	-0.123626
C54	C	1.596757	0.076772	0.376374
C55	C	1.096765	-0.576561	-0.123628
C56	C	1.596765	-0.076561	0.376372
C57	C	1.046139	-0.653235	-0.067061
C58	C	1.546139	-0.153235	0.432939
C59	C	0.995513	-0.576573	-0.010498
C60	C	1.495513	-0.076573	0.489502
C61	C	0.995512	-0.423236	-0.010501
C62	C	1.495512	0.076764	0.489499
C63	C	0.894268	-0.576580	0.102627
C64	C	1.394268	-0.076580	0.602627
C65	C	0.894263	-0.423247	0.102633
C66	C	1.394263	0.076753	0.602633
C67	C	0.843643	-0.653255	0.159194
C68	C	1.343643	-0.153255	0.659194
C69	C	0.793019	-0.576592	0.215762
C70	C	1.293019	-0.076592	0.715762
C71	C	0.793014	-0.423249	0.215761
C72	C	1.293014	0.076751	0.715761
C73	C	0.843637	-0.346584	0.159196
C74	C	1.343637	0.153416	0.659196
C75	C	1.089712	0.000107	0.030958
C76	C	1.589712	0.500107	0.530958
C77	C	1.177967	0.000124	0.026785
C78	C	1.677967	0.500124	0.526785
N79	N	0.944895	0.346757	0.046064
N80	N	1.444895	0.846757	0.546064
C81	C	0.941589	0.000080	-0.097073
C82	C	1.441589	0.500080	0.402927
C83	C	0.934498	0.000080	-0.183657
C84	C	1.434498	0.500080	0.316343
C85	C	1.002913	0.000084	-0.238332
C86	C	1.502913	0.500084	0.261668
C87	C	0.996246	0.000097	-0.319686
C88	C	1.496246	0.500097	0.180314
C89	C	0.921163	0.000096	-0.346365
C90	C	1.421163	0.500096	0.153635
C91	C	0.852743	0.000097	-0.291683
C92	C	1.352743	0.500097	0.208317
C93	C	0.859411	0.000094	-0.210331
C94	C	1.359411	0.500094	0.289669
C95	C	0.893527	0.000114	-0.588171
C96	C	1.393527	0.500114	-0.088171
C97	C	0.886865	0.000113	-0.669531
C98	C	1.386865	0.500113	-0.169531
C99	C	1.030368	0.000116	-0.697528
C100	C	1.530368	0.500116	-0.197528
C101	C	1.037029	0.000104	-0.616172
C102	C	1.537029	0.500104	-0.116172
C103	C	0.968609	0.000113	-0.561498
C104	C	1.468609	0.500113	-0.061498
N105	N	0.914346	0.000105	-0.429522
N106	N	1.414346	0.500105	0.070478
N107	N	0.975427	0.000114	-0.478343
N108	N	1.475427	0.500114	0.021657
C109	C	0.948189	0.000107	0.189210
C110	C	1.448189	0.500107	0.689210
C111	C	0.955280	0.000117	0.275795
C112	C	1.455280	0.500117	0.775795
H113	H	0.176733	0.000135	0.156595
H114	H	0.676733	0.500135	0.656595
H115	H	1.064053	0.000076	-0.216618
H116	H	1.564053	0.500076	0.283382
H117	H	1.086071	0.000112	-0.742052
H118	H	1.586071	0.500112	-0.242052
H119	H	0.791609	0.000105	-0.313411
H120	H	1.291609	0.500105	0.186589
H121	H	0.194611	0.000118	-0.103758
H122	H	0.694611	0.500118	0.396242
F123	F	0.843647	-0.816446	0.159189
F124	F	1.343647	-0.316446	0.659189
H125	H	0.695172	0.000088	0.195890
H126	H	1.195172	0.500088	0.695890
H127	H	0.327165	0.000148	0.149470
H128	H	0.827165	0.500148	0.649470
H129	H	0.825720	0.000088	-0.691248
H130	H	1.325720	0.500088	-0.191248
F131	F	0.724650	0.000048	-0.082892
F132	F	1.224650	0.500048	0.417108
H133	H	0.837815	0.000121	-0.543665
H134	H	1.337815	0.500121	-0.043665
H135	H	0.562616	0.000083	-0.057338
H136	H	1.062616	0.500083	0.442662
F137	F	1.116943	0.000143	-0.587786
F138	F	1.616943	0.500143	-0.087786
H139	H	0.843640	-0.221732	0.159193
H140	H	1.343640	0.278268	0.659193
H141	H	0.803700	0.000091	-0.165814
H142	H	1.303700	0.500091	0.334186
H143	H	0.544728	0.000113	0.203017
H144	H	1.044728	0.500113	0.703017
H145	H	1.046136	-0.221713	-0.067062
H146	H	1.546136	0.278287	0.432938
H147	H	0.345056	0.000102	-0.110878
H148	H	0.845056	0.500102	0.389122
F149	F	0.739141	-0.658199	0.275954
F150	F	1.239141	-0.158199	0.775954
F151	F	1.150632	-0.341619	-0.183829
F152	F	1.650632	0.158381	0.316171
F153	F	1.150643	-0.658152	-0.183832
F154	F	1.650643	-0.158152	0.316168
H155	H	1.046142	-0.778088	-0.067071
H156	H	1.546142	-0.278088	0.432929
H157	H	0.751785	-0.360838	0.261819
H158	H	1.251785	0.139162	0.761819
F159	F	1.069063	0.000099	-0.377872
F160	F	1.569063	0.500099	0.122128
