data_functionalizedCrystal
_audit_creation_method	'MofGen! by Chris Wilmer'
_symmetry_space_group_name_H-M	'P1'
_symmetry_Int_Tables_number	1
_symmetry_cell_setting	triclinic
loop_
_symmetry_equiv_pos_as_xyz
  x,y,z
_cell_length_a	15.995350
_cell_length_b	17.038272
_cell_length_c	14.472310
_cell_angle_alpha	89.999298
_cell_angle_beta	89.990621
_cell_angle_gamma	87.301966
loop_
_atom_site_label
_atom_site_type_symbol
_atom_site_fract_x
_atom_site_fract_y
_atom_site_fract_z
O1	O	1.118175	0.100774	-0.076763
O2	O	0.875286	0.113219	-0.076782
O3	O	0.995287	-0.006819	-0.076766
O4	O	0.998174	0.220812	-0.076780
O5	O	0.995254	-0.006812	0.076916
O6	O	0.875253	0.113226	0.076900
O7	O	1.118142	0.100781	0.076919
Cu8	Cu	0.996695	0.107004	0.090942
Cu9	Cu	0.996733	0.106996	-0.090805
O10	O	0.998141	0.220819	0.076902
C11	C	0.844038	0.112708	0.000056
C12	C	0.750978	0.111165	0.000049
C13	C	0.412836	0.105626	0.000069
C14	C	0.454180	0.020137	0.000417
C15	C	0.550981	0.021680	0.000064
C16	C	0.580592	0.108374	0.000060
C17	C	0.542527	0.150536	-0.087699
C18	C	0.445739	0.148388	-0.087766
C19	C	0.445488	0.150162	0.086999
C20	C	0.542432	0.150142	0.088152
C21	C	0.675401	0.109931	0.000051
C22	C	0.318027	0.104071	0.000071
C23	C	0.992645	-0.035945	0.000075
C24	C	0.984810	-0.122740	0.000074
C25	C	1.056739	-0.172836	0.000081
C26	C	1.049373	-0.254389	0.000072
C27	C	0.970077	-0.285843	0.000062
C28	C	0.898143	-0.235740	0.000053
C29	C	0.905510	-0.154189	0.000056
C30	C	0.944051	-0.531607	0.000047
C31	C	0.936689	-0.613164	0.000048
C32	C	1.087920	-0.631807	0.000065
C33	C	1.095280	-0.550254	0.000073
C34	C	1.023346	-0.500158	0.000059
C35	C	0.962546	-0.369202	0.000056
C36	C	1.030878	-0.416801	0.000059
C37	C	1.149390	0.101292	0.000078
C38	C	1.242450	0.102834	0.000079
C39	C	1.000784	0.249944	0.000059
C40	C	1.008618	0.336739	0.000054
N41	N	0.996674	0.107009	0.218773
N42	N	0.996761	0.106984	-0.218636
C43	C	0.996732	0.106993	0.592864
C44	C	0.932276	0.171007	0.553689
C45	C	0.932452	0.171241	0.446601
C46	C	0.996702	0.107001	0.407273
C47	C	1.085336	0.124819	0.446115
C48	C	1.084981	0.125274	0.553237
C49	C	0.973320	0.024970	0.553397
C50	C	0.971356	0.025517	0.446269
C51	C	0.996691	0.107004	0.302385
C52	C	0.996749	0.106991	0.697752
H53	H	0.576475	-0.011692	-0.062951
H54	H	1.134751	0.080487	0.579149
H55	H	0.433211	-0.014032	0.063353
C56	C	0.843696	0.156913	0.411122
N57	N	0.776840	0.146126	0.384404
H58	H	0.947652	0.231532	0.580596
H59	H	0.432177	-0.013880	-0.062167
C60	C	0.883230	0.007250	0.411980
N61	N	0.816853	-0.006506	0.386149
H62	H	0.422948	0.122217	0.153518
H63	H	0.567542	0.119364	0.153076
C64	C	0.887458	0.001840	0.589924
N65	N	0.822783	-0.015572	0.617437
C66	C	0.953471	0.253469	0.411962
N67	N	0.969308	0.315406	0.385874
C68	C	0.843257	0.156917	0.588542
N69	N	0.776207	0.146306	0.614806
H70	H	0.425254	0.117636	-0.153365
H71	H	0.562300	0.213362	0.093450
C72	C	1.152011	0.063509	0.411697
N73	N	1.202229	0.017329	0.385770
C74	C	0.408211	0.233178	-0.093171
N75	N	0.379949	0.297040	-0.097251
C76	C	1.128501	-0.309492	0.000094
N77	N	1.188104	-0.350995	0.000115
C78	C	1.182511	-0.515661	0.000084
N79	N	1.248215	-0.489606	0.000096
C80	C	1.112439	0.204716	0.409869
N81	N	1.132847	0.264898	0.382574
C82	C	0.875322	-0.403810	0.000065
N83	N	0.809626	-0.429880	0.000075
C84	C	1.111637	0.206091	0.586977
N85	N	1.131708	0.266967	0.612385
H86	H	0.846938	-0.113400	0.000050
C87	C	0.408642	0.235312	0.087799
N88	N	0.380885	0.299444	0.088396
C89	C	1.143971	-0.138245	0.000091
N90	N	1.209676	-0.112193	0.000095
C91	C	1.167041	-0.686919	0.000072
N92	N	1.226639	-0.728429	0.000073
C93	C	0.810917	-0.270342	0.000050
N94	N	0.745216	-0.296404	0.000055
H95	H	0.561190	0.214227	-0.090966
C96	C	0.849455	-0.647761	0.000030
N97	N	0.783752	-0.673820	0.000017
H98	H	0.885477	-0.490828	0.000036
C99	C	1.030069	-0.041853	0.410127
N100	N	1.074304	-0.092594	0.382913
C101	C	1.036725	-0.039387	0.587627
N102	N	1.084483	-0.087856	0.613415
H103	H	0.577035	-0.011462	0.062974
H104	H	0.568829	0.121246	-0.153008
H105	H	1.095440	-0.391187	0.000046
