data_functionalizedCrystal
_audit_creation_method	'MofGen! by Chris Wilmer'
_symmetry_space_group_name_H-M	'P1'
_symmetry_Int_Tables_number	1
_symmetry_cell_setting	triclinic
loop_
_symmetry_equiv_pos_as_xyz
  x,y,z
_cell_length_a	35.277591
_cell_length_b	35.288064
_cell_length_c	35.277611
_cell_angle_alpha	59.996485
_cell_angle_beta	89.996683
_cell_angle_gamma	60.000357
loop_
_atom_site_label
_atom_site_type_symbol
_atom_site_fract_x
_atom_site_fract_y
_atom_site_fract_z
O1	O	-0.260040	0.271232	-0.594399
O2	O	-0.204917	0.193632	-0.461653
O3	O	-0.204917	0.271232	-0.539276
O4	O	-0.260040	0.193631	-0.516776
O5	O	-0.267964	0.334259	-0.539274
O6	O	-0.267963	0.256658	-0.461652
O7	O	-0.323087	0.334258	-0.594398
Zn8	Zn	-0.305535	0.305465	-0.528025
Zn9	Zn	-0.222469	0.222425	-0.528026
O10	O	-0.323086	0.256658	-0.516775
C11	C	-0.163483	0.387977	-0.551571
C12	C	-0.186875	0.361376	-0.548356
C13	C	-0.186401	0.433904	-0.551891
C14	C	-0.094839	0.387975	-0.551566
C15	C	-0.044836	0.361371	-0.548344
C16	C	-0.117861	0.433901	-0.551885
C17	C	-0.163482	0.456597	-0.551567
C18	C	-0.186874	0.503365	-0.548346
C19	C	-0.117862	0.365385	-0.551890
C20	C	-0.205772	0.541148	-0.545744
C21	C	-0.205774	0.339884	-0.545757
C22	C	-0.004439	0.339877	-0.545740
C23	C	-0.229480	0.588549	-0.542479
C24	C	-0.229483	0.312923	-0.542497
C25	C	0.046241	0.312913	-0.542475
C26	C	-0.432015	0.466059	-0.966561
C27	C	-0.477635	0.511986	-0.989479
C28	C	-0.432017	0.466057	-0.897917
C29	C	-0.477636	0.511984	-0.920940
C30	C	-0.500658	0.534680	-0.966560
C31	C	-0.409098	0.443467	-0.920940
C32	C	-0.320826	0.342483	-1.008479
C33	C	-0.299068	0.317220	-1.030085
C34	C	-0.322523	0.338906	-1.075293
C35	C	-0.298936	0.311511	-1.098719
C36	C	-0.367735	0.385859	-1.098894
C37	C	-0.389488	0.411122	-1.077290
C38	C	-0.366031	0.389432	-1.032081
C39	C	-0.666187	0.687739	-1.077748
C40	C	-0.713064	0.731089	-1.099505
C41	C	-0.736582	0.752833	-1.076051
C42	C	-0.787409	0.799830	-1.099634
C43	C	-0.713217	0.731227	-1.030837
C44	C	-0.666341	0.687885	-1.009084
C45	C	-0.642829	0.666141	-1.032544
C46	C	-0.320831	0.342474	-0.732384
C47	C	-0.299077	0.317205	-0.685504
C48	C	-0.322532	0.338889	-0.661988
C49	C	-0.298948	0.311492	-0.611157
C50	C	-0.367743	0.385838	-0.685351
C51	C	-0.389496	0.411104	-0.732229
C52	C	-0.366034	0.389420	-0.755743
C53	C	-0.389623	0.416827	-1.008657
C54	C	-0.408427	0.438664	-0.989985
C55	C	-0.408430	0.438659	-0.847089
C56	C	-0.389627	0.416821	-0.806573
C57	C	-0.551485	0.581677	-0.990148
C58	C	-0.592000	0.619140	-1.008951
C59	C	-0.500367	0.061832	-0.493865
C60	C	-0.477345	0.015905	-0.493544
C61	C	-0.431725	0.061834	-0.493869
C62	C	-0.408807	0.015906	-0.493548
C63	C	-0.431726	-0.006790	-0.493867
C64	C	-0.477345	0.084424	-0.493547
C65	C	-0.665897	0.185410	-0.506289
C66	C	-0.712773	0.210673	-0.509801
C67	C	-0.736289	0.188987	-0.511563
C68	C	-0.787118	0.216383	-0.515380
C69	C	-0.712924	0.142034	-0.509809
C70	C	-0.666049	0.116770	-0.506291
C71	C	-0.642536	0.138460	-0.504531
C72	C	-0.389811	-0.159850	-0.506291
C73	C	-0.368206	-0.203200	-0.509805
C74	C	-0.323001	-0.224945	-0.511572
C75	C	-0.299574	-0.271942	-0.515388
C76	C	-0.299399	-0.203339	-0.509820
C77	C	-0.321000	-0.159996	-0.506299
C78	C	-0.366211	-0.138252	-0.504537
C79	C	-0.389809	0.185416	-0.506303
C80	C	-0.368205	0.210685	-0.509824
C81	C	-0.322998	0.189000	-0.511590
C82	C	-0.299573	0.216398	-0.515410
C83	C	-0.299399	0.142051	-0.509837
C84	C	-0.321004	0.116786	-0.506318
C85	C	-0.366209	0.138470	-0.504546
C86	C	-0.591709	0.111065	-0.500720
C87	C	-0.551194	0.089228	-0.497680
C88	C	-0.408302	0.089231	-0.497687
C89	C	-0.389631	0.111069	-0.500730
C90	C	-0.408303	-0.053787	-0.497683
C91	C	-0.389632	-0.091250	-0.500723
O92	O	0.196121	0.193621	-0.516753
O93	O	0.063377	0.271223	-0.539253
O94	O	0.140990	0.193620	-0.461630
O95	O	0.118508	0.271223	-0.594376
O96	O	0.140992	0.256645	-0.461626
O97	O	0.063379	0.334247	-0.539249
O98	O	0.196123	0.256646	-0.516748
Zn99	Zn	0.129752	0.305453	-0.527998
Zn100	Zn	0.129748	0.222415	-0.528003
O101	O	0.118510	0.334248	-0.594371
O102	O	-0.260043	0.712672	-0.516756
O103	O	-0.204914	0.602458	-0.539253
O104	O	-0.204921	0.602453	-0.461632
O105	O	-0.260036	0.712678	-0.594378
O106	O	-0.267969	0.602453	-0.461637
O107	O	-0.267961	0.602459	-0.539258
O108	O	-0.323090	0.712673	-0.516762
Zn109	Zn	-0.305536	0.657566	-0.528011
Zn110	Zn	-0.222469	0.657565	-0.528004
O111	O	-0.323083	0.712679	-0.594383
O112	O	-0.936914	0.925418	-1.130610
O113	O	-0.804170	0.815214	-1.075493
O114	O	-0.881781	0.815198	-1.075483
O115	O	-0.859304	0.925434	-1.130619
O116	O	-0.881780	0.815201	-1.138531
O117	O	-0.804169	0.815216	-1.138540
O118	O	-0.936913	0.925421	-1.193658
Zn119	Zn	-0.870541	0.870319	-1.176109
Zn120	Zn	-0.870542	0.870316	-1.093041
O121	O	-0.859302	0.925436	-1.193667
O122	O	-0.267957	0.256669	-1.193367
O123	O	-0.323078	0.334272	-1.138248
O124	O	-0.323075	0.256666	-1.138232
O125	O	-0.267960	0.334274	-1.193383
O126	O	-0.260026	0.193644	-1.075189
O127	O	-0.260029	0.271249	-1.075205
O128	O	-0.204908	0.193647	-1.130324
Zn129	Zn	-0.222458	0.222442	-1.092755
Zn130	Zn	-0.305528	0.305476	-1.175817
O131	O	-0.204911	0.271252	-1.130340
C132	C	-0.094837	0.071297	-0.234799
C133	C	-0.044835	0.024531	-0.211409
C134	C	-0.117859	0.093993	-0.211881
C135	C	-0.163482	0.139916	-0.303439
C136	C	-0.186874	0.166516	-0.353440
C137	C	-0.186399	0.162507	-0.280417
C138	C	-0.163480	0.139919	-0.234798
C139	C	-0.186870	0.166522	-0.211407
C140	C	-0.117861	0.093990	-0.280418
C141	C	-0.205768	0.188016	-0.192510
C142	C	-0.004439	-0.013252	-0.192513
C143	C	-0.205773	0.188007	-0.393836
C144	C	-0.229475	0.214980	-0.168802
C145	C	0.046241	-0.060652	-0.168807
C146	C	-0.229482	0.214968	-0.444515
C147	C	0.153280	0.139879	-0.234764
C148	C	0.150060	0.166478	-0.211370
C149	C	0.153597	0.093952	-0.211849
C150	C	0.153284	0.139886	-0.303410
C151	C	0.150070	0.166491	-0.353413
C152	C	0.153602	0.093959	-0.280390
C153	C	0.153277	0.071261	-0.234770
C154	C	0.150054	0.024492	-0.211382
C155	C	0.153604	0.162473	-0.280385
C156	C	0.147450	-0.013291	-0.192486
C157	C	0.147457	0.187968	-0.192470
C158	C	0.147471	0.187987	-0.393810
C159	C	0.144183	-0.060692	-0.168781
C160	C	0.144194	0.214928	-0.168759
C161	C	0.144213	0.214954	-0.444490
C162	C	-0.163514	0.387953	-0.234776
C163	C	-0.186908	0.361350	-0.211388
C164	C	-0.117895	0.365359	-0.211853
C165	C	-0.163506	0.456578	-0.303416
C166	C	-0.186893	0.503350	-0.353419
C167	C	-0.117888	0.433880	-0.280389
C168	C	-0.094870	0.387950	-0.234768
C169	C	-0.044869	0.361345	-0.211372
C170	C	-0.186428	0.433883	-0.280397
C171	C	-0.004474	0.339850	-0.192471
C172	C	-0.205808	0.339858	-0.192494
C173	C	-0.205786	0.541136	-0.393816
C174	C	0.046204	0.312884	-0.168759
C175	C	-0.229519	0.312894	-0.168789
C176	C	-0.229489	0.588541	-0.444496
C177	C	0.095648	0.534379	-0.966534
C178	C	0.095328	0.511686	-0.989454
C179	C	0.095641	0.465755	-0.897892
C180	C	0.095321	0.443166	-0.920916
C181	C	0.095646	0.465759	-0.966536
C182	C	0.095324	0.511682	-0.920913
C183	C	0.108084	0.687434	-1.008444
C184	C	0.111601	0.730783	-1.030048
C185	C	0.113369	0.752530	-1.075256
C186	C	0.117191	0.799527	-1.098680
C187	C	0.111616	0.730927	-1.098859
C188	C	0.108093	0.687585	-1.077257
C189	C	0.106327	0.665839	-1.032047
C190	C	0.108080	0.411438	-1.077729
C191	C	0.111594	0.386328	-1.099488
C192	C	0.113357	0.339371	-1.076036
C193	C	0.117174	0.312138	-1.099621
C194	C	0.111599	0.317528	-1.030822
C195	C	0.108076	0.342642	-1.009067
C196	C	0.106320	0.389599	-1.032526
C197	C	0.108055	0.411420	-0.732357
C198	C	0.111571	0.386303	-0.685477
C199	C	0.113331	0.339346	-0.661963
C200	C	0.117145	0.312108	-0.611132
C201	C	0.111580	0.317506	-0.685328
C202	C	0.108067	0.342624	-0.732205
C203	C	0.106300	0.389585	-0.755718
C204	C	0.102511	0.618838	-1.008625
C205	C	0.099468	0.581375	-0.989956
C206	C	0.099453	0.438521	-0.847063
C207	C	0.102490	0.416815	-0.806548
C208	C	0.099463	0.438529	-0.990126
C209	C	0.102505	0.416825	-1.008930
O210	O	0.118458	0.271184	-0.075152
O211	O	0.140967	0.193589	-0.130278
O212	O	0.063343	0.271185	-0.130285
O213	O	0.196082	0.193588	-0.075145
O214	O	0.063350	0.334215	-0.193329
O215	O	0.140974	0.256619	-0.193323
O216	O	0.118465	0.334214	-0.138196
Zn217	Zn	0.129720	0.305424	-0.175769
Zn218	Zn	0.129711	0.222379	-0.092705
O219	O	0.196089	0.256618	-0.138190
C220	C	-0.500347	1.061874	-0.966542
C221	C	-0.477333	1.084485	-0.989451
C222	C	-0.431712	0.993259	-0.897892
C223	C	-0.408802	1.015974	-0.920906
C224	C	-0.431721	1.061907	-0.966525
C225	C	-0.477324	1.015940	-0.920922
C226	C	-0.665851	1.116137	-1.008489
C227	C	-0.712721	1.141235	-1.030102
C228	C	-0.736238	1.188198	-1.075308
C229	C	-0.787060	1.215418	-1.098742
C230	C	-0.712880	1.210059	-1.098901
C231	C	-0.666012	1.184958	-1.077290
C232	C	-0.642497	1.137995	-1.032082
C233	C	-0.389836	1.185551	-1.077683
C234	C	-0.368241	1.210835	-1.099432
C235	C	-0.323045	1.189167	-1.075970
C236	C	-0.299628	1.216580	-1.099544
C237	C	-0.299442	1.142208	-1.030758
C238	C	-0.321033	1.116921	-1.009014
C239	C	-0.366236	1.138600	-1.032481
C240	C	-0.389793	0.840159	-0.732371
C241	C	-0.368191	0.796806	-0.685492
C242	C	-0.322992	0.775075	-0.661968
C243	C	-0.299568	0.728070	-0.611139
C244	C	-0.299400	0.796700	-0.685323
C245	C	-0.321004	0.840053	-0.732199
C246	C	-0.366201	0.861777	-0.755721
C247	C	-0.591677	1.110783	-1.008651
C248	C	-0.551168	1.089090	-0.989973
C249	C	-0.408290	0.946254	-0.847065
C250	C	-0.389621	0.908785	-0.806550
C251	C	-0.408309	1.089325	-0.990102
C252	C	-0.389646	1.111179	-1.008898
H253	H	-0.223886	0.452898	-0.552411
C254	C	-0.438597	0.462053	-1.102831
C255	C	-0.467650	0.453510	-1.077866
C256	C	-0.512892	0.500416	-1.101377
H257	H	-0.449515	0.471396	-1.132849
H258	H	-0.438660	0.490324	-1.105690
H259	H	-0.467589	0.425248	-1.075014
H260	H	-0.456746	0.444174	-1.047850
H261	H	-0.512955	0.528687	-1.104236
H262	H	-0.523806	0.509756	-1.131393
H263	H	-0.532609	0.494628	-1.084440
C264	C	-0.438876	0.863693	-0.757821
C265	C	-0.454920	0.835490	-0.727332
C266	C	-0.500135	0.857162	-0.750760
H267	H	-0.438909	0.860881	-0.783228
H268	H	-0.458634	0.900339	-0.768980
H269	H	-0.435167	0.798854	-0.716179
H270	H	-0.454898	0.838300	-0.701924
H271	H	-0.519893	0.893808	-0.761920
H272	H	-0.500164	0.854349	-0.776166
H273	H	-0.511028	0.838033	-0.730076
C274	C	-0.250014	0.266194	-1.004487
C275	C	-0.250087	0.224640	-1.000331
C276	C	-0.204907	0.177628	-0.976757
H277	H	-0.239115	0.256820	-0.974452
H278	H	-0.230217	0.271863	-1.021358
H279	H	-0.269878	0.218971	-0.983459
H280	H	-0.260977	0.233996	-1.030359
H281	H	-0.185109	0.183297	-0.993628
H282	H	-0.194011	0.168260	-0.946723
H283	H	-0.204949	0.149430	-0.973937
H284	H	-0.387462	1.249068	-1.136242
C285	C	-0.093151	0.068563	-0.161888
C286	C	-0.048191	0.023394	-0.146651
C287	C	-0.025426	-0.000060	-0.100595
H288	H	-0.109823	0.058154	-0.142817
H289	H	-0.091527	0.093702	-0.160055
H290	H	-0.049816	-0.001741	-0.148480
H291	H	-0.031507	0.033788	-0.165709
H292	H	-0.023803	0.025079	-0.098762
H293	H	-0.042102	-0.010465	-0.081528
H294	H	0.005083	-0.030707	-0.090252
C295	C	-0.640246	1.065157	-0.959404
C296	C	-0.594204	1.047861	-0.945521
C297	C	-0.570604	1.000904	-0.900306
H298	H	-0.640715	1.038102	-0.958634
H299	H	-0.654997	1.072095	-0.938917
H300	H	-0.579457	1.040920	-0.966002
H301	H	-0.593722	1.074901	-0.946280
H302	H	-0.585355	1.007842	-0.879819
H303	H	-0.571076	0.973854	-0.899540
H304	H	-0.539363	0.989165	-0.890879
H305	H	0.154123	0.199429	-0.298864
C306	C	-0.093292	0.316108	-0.552577
C307	C	-0.123232	0.301087	-0.552785
C308	C	-0.100613	0.255694	-0.553413
H309	H	-0.066331	0.287530	-0.525797
H310	H	-0.084608	0.324090	-0.579651
H311	H	-0.131910	0.293103	-0.525714
H312	H	-0.150194	0.329652	-0.579563
H313	H	-0.091929	0.263675	-0.580487
H314	H	-0.073652	0.227120	-0.526632
H315	H	-0.120925	0.245499	-0.553559
H316	H	-0.426308	0.449331	-0.751248
C317	C	-0.640605	1.208607	-1.102917
C318	C	-0.603194	1.171164	-1.107096
C319	C	-0.579784	1.192935	-1.130706
H320	H	-0.629407	1.217221	-1.086073
H321	H	-0.661302	1.240158	-1.132948
H322	H	-0.582502	1.139623	-1.077070
H323	H	-0.614379	1.162547	-1.123944
H324	H	-0.600480	1.224486	-1.160737
H325	H	-0.568589	1.201548	-1.113859
H326	H	-0.554401	1.167535	-1.133548
C327	C	-0.236385	0.211768	-0.305131
C328	C	-0.251622	0.226783	-0.350093
C329	C	-0.297666	0.272154	-0.372869
H330	H	-0.238211	0.240358	-0.306762
H331	H	-0.255461	0.203766	-0.288453
H332	H	-0.232551	0.234788	-0.366767
H333	H	-0.249808	0.198206	-0.348476
H334	H	-0.316742	0.264151	-0.356191
H335	H	-0.299487	0.300740	-0.374497
H336	H	-0.308011	0.282344	-0.403377
C337	C	-0.093170	0.316032	-0.161896
C338	C	-0.053437	0.274061	-0.159415
C339	C	-0.030645	0.228617	-0.113403
H340	H	-0.113365	0.305688	-0.151434
H341	H	-0.084458	0.324018	-0.142827
H342	H	-0.062151	0.266076	-0.178477
H343	H	-0.033231	0.284387	-0.169868
H344	H	-0.021933	0.236603	-0.094335
H345	H	-0.050844	0.218279	-0.102945
H346	H	-0.003682	0.200136	-0.111713
H347	H	0.154110	0.074957	-0.174365
C348	C	-0.295342	1.065960	-0.959920
C349	C	-0.251142	1.052398	-0.944019
C350	C	-0.227465	1.005461	-0.898793
H351	H	-0.292405	1.037645	-0.959826
H352	H	-0.312198	1.071640	-0.940117
H353	H	-0.234290	1.046715	-0.963817
H354	H	-0.254066	1.080700	-0.944102
H355	H	-0.244321	1.011141	-0.878991
H356	H	-0.224531	0.977150	-0.898704
H357	H	-0.197475	0.996256	-0.887998
H358	H	-0.647321	0.670298	-0.972272
H359	H	-0.426639	1.203204	-1.096795
C360	C	0.106261	0.664025	-1.102800
C361	C	0.143856	0.610024	-1.077835
C362	C	0.142183	0.588299	-1.101347
H363	H	0.107839	0.683118	-1.132816
H364	H	0.078045	0.666819	-1.105661
H365	H	0.172065	0.607233	-1.074980
H366	H	0.142286	0.590917	-1.047820
H367	H	0.113967	0.591093	-1.104208
H368	H	0.143760	0.607396	-1.131362
H369	H	0.167688	0.551656	-1.084409
H370	H	-0.732030	1.248295	-1.135709
H371	H	0.154116	0.074971	-0.298879
C372	C	0.094715	0.536907	-1.039411
C373	C	0.134218	0.499665	-1.041890
C374	C	0.133665	0.522875	-1.087902
H375	H	0.094599	0.567556	-1.049874
H376	H	0.067659	0.547258	-1.058479
H377	H	0.161267	0.489322	-1.022829
H378	H	0.134342	0.469015	-1.031436
H379	H	0.106609	0.533226	-1.106969
H380	H	0.133547	0.553523	-1.098361
H381	H	0.160465	0.497609	-1.089591
C382	C	-0.093149	0.068567	-0.304976
C383	C	-0.048187	0.023402	-0.275034
C384	C	-0.025415	-0.000036	-0.297638
H385	H	-0.091522	0.093700	-0.331951
H386	H	-0.109827	0.058162	-0.313639
H387	H	-0.031514	0.033808	-0.266378
H388	H	-0.049801	-0.001744	-0.248059
H389	H	-0.042092	-0.010441	-0.306301
H390	H	-0.023791	0.025102	-0.324612
H391	H	0.005093	-0.030685	-0.277324
C392	C	-0.502231	0.537361	-0.896312
C393	C	-0.477533	0.552598	-0.883573
C394	C	-0.500179	0.575987	-0.860895
H395	H	-0.503831	0.512219	-0.869318
H396	H	-0.532747	0.568043	-0.916571
H397	H	-0.447025	0.521919	-0.863315
H398	H	-0.475932	0.577746	-0.910558
H399	H	-0.530695	0.606670	-0.881154
H400	H	-0.501778	0.550842	-0.833903
H401	H	-0.483427	0.586333	-0.852253
H402	H	-0.386843	0.403493	-0.666201
H403	H	-0.099373	0.452888	-0.552393
H404	H	-0.099402	0.452875	-0.298873
C405	C	0.113569	0.409929	-0.660061
C406	C	0.155213	0.372473	-0.622663
C407	C	0.157070	0.394223	-0.599244
H408	H	0.088118	0.418537	-0.648849
H409	H	0.112041	0.441481	-0.680758
H410	H	0.156737	0.340931	-0.601969
H411	H	0.180671	0.363861	-0.633863
H412	H	0.155542	0.425775	-0.619941
H413	H	0.131617	0.402831	-0.588034
H414	H	0.185327	0.368814	-0.573869
H415	H	-0.223912	0.452882	-0.298880
H416	H	0.094798	0.406213	-0.902433
H417	H	0.094808	0.530675	-0.902429
H418	H	0.106620	0.449656	-0.751498
H419	H	0.113053	0.748639	-1.135668
H420	H	0.106645	0.669732	-0.971633
C421	C	0.113528	0.754139	-1.004335
C422	C	0.111242	0.725807	-0.960116
C423	C	0.113024	0.747300	-0.936413
H424	H	0.088055	0.790778	-1.021146
H425	H	0.141769	0.751288	-1.001434
H426	H	0.083005	0.728663	-0.963019
H427	H	0.136713	0.689168	-0.943293
H428	H	0.141264	0.744449	-0.933512
H429	H	0.087550	0.783939	-0.953227
H430	H	0.111477	0.728077	-0.906406
C431	C	0.106147	0.462433	-1.103284
C432	C	0.108425	0.476196	-1.147539
C433	C	0.106640	0.523171	-1.171093
H434	H	0.131623	0.456738	-1.086410
H435	H	0.077909	0.490663	-1.106124
H436	H	0.136660	0.447973	-1.144697
H437	H	0.082951	0.481901	-1.164426
H438	H	0.078401	0.551401	-1.173933
H439	H	0.132116	0.517472	-1.154215
H440	H	0.108180	0.532518	-1.201123
C441	C	-0.393130	0.409306	-1.147964
C442	C	-0.364408	0.377126	-1.161830
C443	C	-0.387790	0.398706	-1.207029
H444	H	-0.400935	0.444522	-1.168481
H445	H	-0.420667	0.410548	-1.148699
H446	H	-0.336878	0.375889	-1.161098
H447	H	-0.356601	0.341909	-1.141326
H448	H	-0.415327	0.399949	-1.207764
H449	H	-0.395594	0.433922	-1.227541
H450	H	-0.368307	0.376873	-1.216441
C451	C	0.113586	0.409933	-1.148543
C452	C	0.155223	0.372461	-1.148468
C453	C	0.157073	0.394184	-1.193649
H454	H	0.112063	0.441483	-1.159442
H455	H	0.088120	0.418531	-1.168342
H456	H	0.180682	0.363871	-1.128675
H457	H	0.156755	0.340910	-1.137578
H458	H	0.131607	0.402781	-1.213449
H459	H	0.155549	0.425733	-1.204544
H460	H	0.185321	0.368761	-1.193605
C461	C	-0.502277	0.537410	-1.039491
C462	C	-0.515013	0.590074	-1.067468
C463	C	-0.537711	0.613513	-1.113541
H464	H	-0.529273	0.537659	-1.041324
H465	H	-0.482033	0.517340	-1.049937
H466	H	-0.535256	0.610140	-1.057026
H467	H	-0.488026	0.589841	-1.065650
H468	H	-0.517467	0.593442	-1.123987
H469	H	-0.564705	0.613758	-1.115370
H470	H	-0.546351	0.649246	-1.132530
H471	H	0.113028	0.279298	-1.011729
H472	H	0.106643	0.324857	-0.972256
C473	C	0.106148	0.318845	-0.757497
C474	C	0.108430	0.272355	-0.726876
C475	C	0.106659	0.250438	-0.750159
H476	H	0.131626	0.310183	-0.768667
H477	H	0.077912	0.344176	-0.782891
H478	H	0.136662	0.247030	-0.701491
H479	H	0.082953	0.281003	-0.715705
H480	H	0.078423	0.275769	-0.775553
H481	H	0.132138	0.241780	-0.761328
H482	H	0.108202	0.218896	-0.729388
C483	C	-0.295302	0.863433	-0.757482
C484	C	-0.251091	0.835114	-0.726853
C485	C	-0.227398	0.856631	-0.750129
H486	H	-0.312124	0.900072	-0.768652
H487	H	-0.292391	0.860592	-0.782875
H488	H	-0.254005	0.837961	-0.701469
H489	H	-0.234257	0.798476	-0.715682
H490	H	-0.224487	0.853789	-0.775522
H491	H	-0.244224	0.893269	-0.761298
H492	H	-0.197398	0.837416	-0.729352
C493	C	0.113473	0.266536	-0.659726
C494	C	0.116912	0.249219	-0.613676
C495	C	0.118651	0.202272	-0.590081
H496	H	0.139752	0.239484	-0.660210
H497	H	0.086034	0.273492	-0.674473
H498	H	0.144349	0.242259	-0.598933
H499	H	0.090637	0.276256	-0.613178
H500	H	0.091212	0.209229	-0.604827
H501	H	0.144930	0.175225	-0.590568
H502	H	0.120980	0.190519	-0.558835
C503	C	-0.358822	0.990567	-0.896184
C504	C	-0.343584	0.945391	-0.851225
C505	C	-0.297544	0.921969	-0.828444
H506	H	-0.357006	1.015704	-0.894548
H507	H	-0.339741	0.980177	-0.912863
H508	H	-0.362659	0.955782	-0.834551
H509	H	-0.345388	0.920242	-0.852848
H510	H	-0.278463	0.911579	-0.845122
H511	H	-0.295733	0.947109	-0.826811
H512	H	-0.287198	0.891311	-0.797938
C513	C	-0.501919	1.133708	-1.039458
C514	C	-0.477213	1.121777	-1.067445
C515	C	-0.499849	1.167106	-1.113512
H516	H	-0.503517	1.162280	-1.041278
H517	H	-0.532436	1.143971	-1.049906
H518	H	-0.446705	1.111521	-1.057001
H519	H	-0.475614	1.093213	-1.065639
H520	H	-0.530365	1.177370	-1.123960
H521	H	-0.501445	1.195675	-1.115327
H522	H	-0.483091	1.159016	-1.132508
H523	H	-0.495804	0.996935	-0.902446
C524	C	-0.393818	0.773379	-0.660088
C525	C	-0.398019	0.777618	-0.622688
C526	C	-0.421630	0.756048	-0.599281
H527	H	-0.376968	0.736726	-0.648878
H528	H	-0.423843	0.792533	-0.680791
H529	H	-0.368000	0.758463	-0.601989
H530	H	-0.414872	0.814265	-0.633886
H531	H	-0.451654	0.775202	-0.619984
H532	H	-0.404777	0.719396	-0.588073
H533	H	-0.424486	0.758926	-0.573905
H534	H	-0.731735	1.123433	-1.010889
H535	H	-0.301722	0.324818	-0.971668
H536	H	-0.647046	0.670040	-1.096854
H537	H	-0.371616	0.406508	-0.902458
H538	H	-0.262266	0.278976	-0.666484
H539	H	-0.262639	1.124561	-1.011657
C540	C	-0.250291	0.773015	-0.659789
C541	C	-0.221297	0.719016	-0.643388
C542	C	-0.176055	0.697183	-0.619872
H543	H	-0.250246	0.775774	-0.634352
H544	H	-0.239310	0.792072	-0.680407
H545	H	-0.232275	0.699964	-0.622772
H546	H	-0.221328	0.716242	-0.668816
H547	H	-0.165074	0.716241	-0.640489
H548	H	-0.176016	0.699946	-0.594437
H549	H	-0.156377	0.660545	-0.608745
C550	C	-0.295295	0.318829	-0.757825
C551	C	-0.251054	0.272294	-0.727328
C552	C	-0.227523	0.250494	-0.750747
H553	H	-0.292430	0.344179	-0.783231
H554	H	-0.312207	0.310247	-0.768985
H555	H	-0.234145	0.280877	-0.716174
H556	H	-0.253905	0.246932	-0.701921
H557	H	-0.244435	0.241913	-0.761908
H558	H	-0.224661	0.275848	-0.776152
H559	H	-0.197504	0.218916	-0.730057
H560	H	-0.732366	0.748935	-1.011741
C561	C	-0.738353	0.754451	-1.148583
C562	C	-0.707731	0.726124	-1.164465
C563	C	-0.731013	0.747626	-1.209672
H564	H	-0.749525	0.791091	-1.168420
H565	H	-0.763744	0.751604	-1.148636
H566	H	-0.682349	0.728976	-1.164416
H567	H	-0.696558	0.689485	-1.144641
H568	H	-0.756404	0.744779	-1.209724
H569	H	-0.742184	0.784265	-1.229505
H570	H	-0.710240	0.728406	-1.220452
H571	H	-0.371324	-0.003085	-0.493034
H572	H	-0.495828	-0.003094	-0.493018
H573	H	-0.387424	0.248913	-0.511253
C574	C	-0.502059	0.133685	-0.492835
C575	C	-0.547021	0.148699	-0.492617
C576	C	-0.569796	0.194069	-0.491955
H577	H	-0.503686	0.162275	-0.519607
H578	H	-0.485383	0.125680	-0.465753
H579	H	-0.563692	0.156706	-0.519696
H580	H	-0.545407	0.120122	-0.465847
H581	H	-0.553120	0.186065	-0.464874
H582	H	-0.571420	0.222656	-0.518728
H583	H	-0.600304	0.204259	-0.491803
H584	H	-0.426614	0.203071	-0.504853
H585	H	-0.646756	0.203075	-0.504855
H586	H	-0.731793	0.248902	-0.511230
H587	H	-0.647029	0.078540	-0.504859
C588	C	-0.738541	0.118589	-0.511753
C589	C	-0.784597	0.150771	-0.515221
C590	C	-0.808210	0.129193	-0.517021
H591	H	-0.723833	0.083373	-0.484333
H592	H	-0.738032	0.117348	-0.538048
H593	H	-0.785103	0.152006	-0.488929
H594	H	-0.799317	0.185987	-0.542640
H595	H	-0.807701	0.127951	-0.543316
H596	H	-0.793499	0.093977	-0.489600
H597	H	-0.839462	0.151027	-0.519379
H598	H	-0.387425	-0.220788	-0.511231
C599	C	-0.438885	-0.136339	-0.504354
C600	C	-0.454924	-0.164546	-0.506626
C601	C	-0.500125	-0.142906	-0.504838
H602	H	-0.458666	-0.099694	-0.529832
H603	H	-0.438884	-0.139180	-0.476115
H604	H	-0.454928	-0.161701	-0.534862
H605	H	-0.435155	-0.201191	-0.481151
H606	H	-0.500124	-0.145747	-0.476599
H607	H	-0.519903	-0.106262	-0.530316
H608	H	-0.511012	-0.162045	-0.506375
C609	C	-0.250329	-0.227005	-0.511762
C610	C	-0.236463	-0.269581	-0.515229
C611	C	-0.191265	-0.291390	-0.517027
H612	H	-0.229814	-0.239712	-0.484342
H613	H	-0.249591	-0.200210	-0.538057
H614	H	-0.237197	-0.296371	-0.488936
H615	H	-0.256966	-0.256887	-0.542648
H616	H	-0.190528	-0.264595	-0.543322
H617	H	-0.170754	-0.304094	-0.489606
H618	H	-0.181853	-0.320276	-0.519384
H619	H	-0.301785	0.078558	-0.504889
C620	C	-0.295308	-0.136601	-0.504422
C621	C	-0.251099	-0.164911	-0.506731
C622	C	-0.227420	-0.143370	-0.505010
H623	H	-0.292388	-0.139425	-0.476200
H624	H	-0.312155	-0.099959	-0.529919
H625	H	-0.234257	-0.201544	-0.481237
H626	H	-0.254006	-0.162090	-0.534951
H627	H	-0.244267	-0.106728	-0.530506
H628	H	-0.224503	-0.146195	-0.476788
H629	H	-0.197424	-0.162572	-0.506580
H630	H	-0.262588	0.124395	-0.511276
