data_functionalizedCrystal
_audit_creation_method	'MofGen! by Chris Wilmer'
_symmetry_space_group_name_H-M	'P1'
_symmetry_Int_Tables_number	1
_symmetry_cell_setting	triclinic
loop_
_symmetry_equiv_pos_as_xyz
  x,y,z
_cell_length_a	25.639242
_cell_length_b	18.215405
_cell_length_c	18.215399
_cell_angle_alpha	89.969449
_cell_angle_beta	89.971544
_cell_angle_gamma	90.020412
loop_
_atom_site_label
_atom_site_type_symbol
_atom_site_fract_x
_atom_site_fract_y
_atom_site_fract_z
Zn1	Zn	0.799308	-0.293080	-0.416272
Zn2	Zn	1.299308	0.206920	0.083728
Zn3	Zn	0.799243	-0.416151	-0.293200
Zn4	Zn	1.299243	0.083849	0.206800
Zn5	Zn	0.711874	-0.293093	-0.293201
Zn6	Zn	1.211874	0.206907	0.206799
Zn7	Zn	0.711850	-0.416099	-0.416206
Zn8	Zn	1.211850	0.083901	0.083794
O9	O	0.755569	-0.354606	-0.354720
O10	O	1.255569	0.145394	0.145280
O11	O	0.872464	-0.309421	-0.399973
O12	O	1.372464	0.190579	0.100027
O13	O	0.787636	-0.399854	-0.190216
O14	O	1.287636	0.100146	0.309784
O15	O	0.723510	-0.190107	-0.309554
O16	O	1.223510	0.309893	0.190446
O17	O	0.872416	-0.399841	-0.309553
O18	O	1.372416	0.100159	0.190447
O19	O	0.787747	-0.190097	-0.399974
O20	O	1.287747	0.309903	0.100026
O21	O	0.723447	-0.309444	-0.190216
O22	O	1.223447	0.190556	0.309784
O23	O	0.638706	-0.309394	-0.309491
O24	O	1.138706	0.190606	0.190509
O25	O	0.723469	-0.399753	-0.519199
O26	O	1.223469	0.100247	-0.019199
O27	O	0.638688	-0.399766	-0.399862
O28	O	1.138688	0.100234	0.100138
O29	O	0.787723	-0.309371	-0.519247
O30	O	1.287723	0.190629	-0.019247
O31	O	0.787612	-0.519128	-0.309489
O32	O	1.287612	-0.019128	0.190511
O33	O	0.723406	-0.519090	-0.399862
O34	O	1.223406	-0.019090	0.100138
C35	C	0.755514	-0.545812	-0.354684
C36	C	1.255514	-0.045812	0.145316
C37	C	0.755538	-0.627611	-0.354694
C38	C	1.255538	-0.127611	0.145306
C39	C	0.619726	-0.354577	-0.354670
C40	C	1.119726	0.145423	0.145330
C41	C	0.561612	-0.354582	-0.354666
C42	C	1.061612	0.145418	0.145334
C43	C	0.789049	-0.815800	-0.307724
C44	C	1.289049	-0.315800	0.192276
C45	C	0.789072	-0.892659	-0.307741
C46	C	1.289072	-0.392659	0.192259
C47	C	0.722156	-0.892659	-0.401769
C48	C	1.222156	-0.392659	0.098231
C49	C	0.722135	-0.815802	-0.401754
C50	C	1.222135	-0.315802	0.098246
C51	C	0.755581	-0.777374	-0.354727
C52	C	1.255581	-0.277374	0.145273
C53	C	0.755625	-0.931090	-0.354760
C54	C	1.255625	-0.431090	0.145240
C55	C	0.755650	-1.014424	-0.354779
C56	C	1.255650	-0.514424	0.145221
C57	C	0.755557	-0.694035	-0.354708
C58	C	1.255557	-0.194035	0.145292
C59	C	0.201249	-0.401741	-0.401732
C60	C	0.701249	0.098259	0.098268
C61	C	0.146644	-0.401746	-0.401743
C62	C	0.646644	0.098254	0.098257
O63	O	0.118407	-0.441806	-0.441718
O64	O	0.618407	0.058194	0.058282
N65	N	0.119330	-0.354626	-0.354768
N66	N	0.619330	0.145374	0.145232
C67	C	0.146622	-0.307493	-0.307783
C68	C	0.646622	0.192507	0.192217
O69	O	0.118375	-0.267414	-0.267828
O70	O	0.618375	0.232586	0.232172
C71	C	0.201225	-0.307486	-0.307775
C72	C	0.701225	0.192514	0.192225
C73	C	0.228537	-0.354614	-0.354749
C74	C	0.728537	0.145386	0.145251
C75	C	0.228561	-0.448865	-0.448702
C76	C	0.728561	0.051135	0.051298
C77	C	0.283161	-0.448861	-0.448689
C78	C	0.783161	0.051139	0.051311
C79	C	0.310450	-0.401734	-0.401706
C80	C	0.810450	0.098266	0.098294
C81	C	0.283138	-0.354610	-0.354736
C82	C	0.783138	0.145390	0.145264
C83	C	0.228517	-0.260350	-0.260795
C84	C	0.728517	0.239650	0.239205
C85	C	0.283124	-0.260346	-0.260792
C86	C	0.783124	0.239654	0.239208
C87	C	0.310436	-0.307474	-0.307765
C88	C	0.810436	0.192526	0.192235
C89	C	0.365027	-0.307479	-0.307740
C90	C	0.865027	0.192521	0.192260
N91	N	0.392342	-0.354599	-0.354716
N92	N	0.892342	0.145401	0.145284
C93	C	0.365053	-0.401726	-0.401699
C94	C	0.865053	0.098274	0.098301
C95	C	0.031951	-0.307512	-0.307803
C96	C	0.531951	0.192488	0.192197
C97	C	-0.022651	-0.307523	-0.307806
C98	C	0.477349	0.192477	0.192194
C99	C	-0.022625	-0.401774	-0.401767
C100	C	0.477375	0.098226	0.098233
C101	C	0.031979	-0.401767	-0.401760
C102	C	0.531979	0.098233	0.098240
C103	C	0.059266	-0.354632	-0.354778
C104	C	0.559266	0.145368	0.145222
C105	C	0.479718	-0.401715	-0.401668
C106	C	0.979718	0.098285	0.098332
C107	C	0.534324	-0.401709	-0.401649
C108	C	1.034324	0.098291	0.098351
C109	C	0.534293	-0.307456	-0.307690
C110	C	1.034293	0.192544	0.192310
C111	C	0.479692	-0.307464	-0.307706
C112	C	0.979692	0.192536	0.192294
C113	C	0.452406	-0.354596	-0.354701
C114	C	0.952406	0.145404	0.145299
O115	O	0.393299	-0.267437	-0.267788
O116	O	0.893299	0.232563	0.232212
O117	O	0.393307	-0.441792	-0.441654
O118	O	0.893307	0.058208	0.058346
C119	C	0.891942	-0.354635	-0.354770
C120	C	1.391942	0.145365	0.145230
C121	C	0.950056	-0.354648	-0.354792
C122	C	1.450056	0.145352	0.145208
C123	C	0.755601	-0.354555	-0.546673
C124	C	1.255601	0.145445	-0.046673
C125	C	0.755614	-0.354533	-0.628472
C126	C	1.255614	0.145467	-0.128472
C127	C	0.755638	-0.162653	-0.354771
C128	C	1.255638	0.337347	0.145229
C129	C	0.755668	-0.080854	-0.354793
C130	C	1.255668	0.419146	0.145207
C131	C	0.789084	-0.307427	-0.816692
C132	C	1.289084	0.192573	-0.316692
C133	C	0.789090	-0.307406	-0.893551
C134	C	1.289090	0.192594	-0.393551
C135	C	0.722182	-0.401525	-0.893489
C136	C	1.222182	0.098475	-0.393489
C137	C	0.722173	-0.401543	-0.816632
C138	C	1.222173	0.098457	-0.316632
C139	C	0.755627	-0.354495	-0.778235
C140	C	1.255627	0.145505	-0.278235
C141	C	0.755642	-0.354456	-0.931951
C142	C	1.255642	0.145544	-0.431951
C143	C	0.755648	-0.354433	-1.015285
C144	C	1.255648	0.145567	-0.515285
C145	C	0.755620	-0.354516	-0.694896
C146	C	1.255620	0.145484	-0.194896
C147	C	0.755567	-0.354603	-0.163513
C148	C	1.255567	0.145397	0.336487
C149	C	0.755655	-0.354417	-0.081715
C150	C	1.255655	0.145583	0.418285
H151	H	0.816326	-0.923942	-0.269467
H152	H	1.316326	-0.423942	0.230533
H153	H	0.694924	-0.923956	-0.440055
H154	H	1.194924	-0.423956	0.059945
H155	H	0.694882	-0.784514	-0.440034
H156	H	1.194882	-0.284514	0.059966
H157	H	0.816333	-0.269078	-0.924859
H158	H	1.316333	0.230922	-0.424859
O159	O	0.560773	-0.447514	-0.447352
O160	O	1.060773	0.052486	0.052648
C161	C	0.555026	-0.541028	-0.540519
C162	C	1.055026	-0.041028	-0.040519
C163	C	0.525010	-0.489185	-0.488811
C164	C	1.025010	0.010815	0.011189
H165	H	0.526125	-0.574744	-0.574041
H166	H	1.026125	-0.074744	-0.074041
H167	H	0.580600	-0.507325	-0.579106
H168	H	1.080600	-0.007325	-0.079106
H169	H	0.580580	-0.579435	-0.506646
H170	H	1.080580	-0.079435	-0.006646
H171	H	0.499428	-0.450768	-0.522625
H172	H	0.999428	0.049232	-0.022625
H173	H	0.499468	-0.522934	-0.450222
H174	H	0.999468	-0.022934	0.049778
H175	H	0.556521	-0.269088	-0.269436
H176	H	1.056521	0.230912	0.230564
O177	O	0.453106	-0.261641	-0.262182
O178	O	0.953106	0.238359	0.237818
C179	C	0.391521	-0.162212	-0.252507
C180	C	0.891521	0.337788	0.247493
C181	C	0.421579	-0.214088	-0.304135
C182	C	0.921579	0.285912	0.195865
H183	H	0.366033	-0.123742	-0.286406
H184	H	0.866033	0.376258	0.213594
H185	H	0.365888	-0.195890	-0.213974
H186	H	0.865888	0.304110	0.286026
H187	H	0.420423	-0.128566	-0.218916
H188	H	0.920423	0.371434	0.281084
H189	H	0.392715	-0.247745	-0.337774
H190	H	0.892715	0.252255	0.162226
H191	H	0.447220	-0.180368	-0.342620
H192	H	0.947220	0.319632	0.157380
H193	H	0.816323	-0.269116	-0.785432
H194	H	1.316323	0.230884	-0.285432
H195	H	0.694946	-0.439832	-0.924761
H196	H	1.194946	0.060168	-0.424761
O197	O	0.689656	-0.447338	-0.779384
O198	O	1.189656	0.052662	-0.279384
C199	C	0.623271	-0.540660	-0.787427
C200	C	1.123271	-0.040660	-0.287427
C201	C	0.660078	-0.488853	-0.829702
C202	C	1.160078	0.011147	-0.329702
H203	H	0.599340	-0.574227	-0.828091
H204	H	1.099340	-0.074227	-0.328091
H205	H	0.647235	-0.579200	-0.751463
H206	H	1.147235	-0.079200	-0.251463
H207	H	0.595964	-0.506862	-0.751422
H208	H	1.095964	-0.006862	-0.251422
H209	H	0.687393	-0.522591	-0.865747
H210	H	1.187393	-0.022591	-0.365747
H211	H	0.636082	-0.450310	-0.865619
H212	H	1.136082	0.049690	-0.365619
H213	H	0.816283	-0.784514	-0.269433
H214	H	1.316283	-0.284514	0.230567
O215	O	0.453193	-0.447395	-0.447394
O216	O	0.953193	0.052605	0.052606
C217	C	0.391571	-0.457446	-0.546725
C218	C	0.891571	0.042554	-0.046725
C219	C	0.421587	-0.405627	-0.495005
C220	C	0.921587	0.094373	0.004995
H221	H	0.366002	-0.423699	-0.585221
H222	H	0.866002	0.076301	-0.085221
H223	H	0.420453	-0.491111	-0.580344
H224	H	0.920453	0.008889	-0.080344
H225	H	0.366007	-0.495901	-0.512858
H226	H	0.866007	0.004099	-0.012858
H227	H	0.447152	-0.367127	-0.528815
H228	H	0.947152	0.132873	-0.028815
H229	H	0.392677	-0.372014	-0.461383
H230	H	0.892677	0.127986	0.038617
O231	O	0.309663	-0.494558	-0.494432
O232	O	0.809663	0.005442	0.005568
C233	C	0.326373	-0.530461	-0.619553
C234	C	0.826373	-0.030461	-0.119553
C235	C	0.296343	-0.478652	-0.567827
C236	C	0.796343	0.021348	-0.067827
H237	H	0.315607	-0.517630	-0.678903
H238	H	0.815607	-0.017630	-0.178903
H239	H	0.370096	-0.522369	-0.611552
H240	H	0.870096	-0.022369	-0.111552
H241	H	0.315623	-0.589781	-0.606488
H242	H	0.815623	-0.089781	-0.106488
H243	H	0.307050	-0.419312	-0.580860
H244	H	0.807050	0.080688	-0.080860
H245	H	0.252628	-0.486808	-0.575838
H246	H	0.752628	0.013192	-0.075838
O247	O	0.202034	-0.494545	-0.494422
O248	O	0.702034	0.005455	0.005578
C249	C	0.140412	-0.504612	-0.593752
C250	C	0.640412	-0.004612	-0.093752
C251	C	0.170424	-0.452786	-0.542034
C252	C	0.670424	0.047214	-0.042034
H253	H	0.114840	-0.470871	-0.632249
H254	H	0.614840	0.029129	-0.132249
H255	H	0.169298	-0.538272	-0.627370
H256	H	0.669298	-0.038272	-0.127370
H257	H	0.114853	-0.543071	-0.559883
H258	H	0.614853	-0.043071	-0.059883
H259	H	0.195984	-0.414282	-0.575846
H260	H	0.695984	0.085718	-0.075846
H261	H	0.141511	-0.419177	-0.508413
H262	H	0.641511	0.080823	-0.008413
H263	H	0.054212	-0.440142	-0.440011
H264	H	0.554212	0.059858	0.059989
H265	H	-0.044853	-0.440146	-0.440026
H266	H	0.455147	0.059854	0.059974
H267	H	0.054166	-0.269130	-0.269539
H268	H	0.554166	0.230870	0.230461
O269	O	-0.049098	-0.261679	-0.262146
O270	O	0.450902	0.238321	0.237854
C271	C	-0.043345	-0.168226	-0.168918
C272	C	0.456655	0.331774	0.331082
C273	C	-0.013332	-0.220100	-0.220599
C274	C	0.486668	0.279900	0.279401
H275	H	-0.014442	-0.134607	-0.135303
H276	H	0.485558	0.365393	0.364697
H277	H	-0.068870	-0.129738	-0.202742
H278	H	0.431130	0.370262	0.297258
H279	H	-0.068948	-0.201976	-0.130410
H280	H	0.431052	0.298024	0.369590
H281	H	0.012299	-0.186410	-0.259117
H282	H	0.512299	0.313590	0.240883
H283	H	0.012160	-0.258591	-0.186730
H284	H	0.512160	0.241409	0.313270
O285	O	0.202076	-0.214496	-0.215145
O286	O	0.702076	0.285504	0.284855
C287	C	0.207836	-0.121027	-0.121933
C288	C	0.707836	0.378973	0.378067
C289	C	0.237845	-0.172913	-0.173607
C290	C	0.737845	0.327087	0.326393
H291	H	0.236743	-0.087405	-0.088325
H292	H	0.736743	0.412595	0.411675
H293	H	0.182312	-0.082542	-0.155762
H294	H	0.682312	0.417458	0.344238
H295	H	0.182233	-0.154767	-0.083417
H296	H	0.682233	0.345233	0.416583
H297	H	0.263476	-0.139233	-0.212133
H298	H	0.763476	0.360767	0.287867
H299	H	0.263336	-0.211401	-0.139733
H300	H	0.763336	0.288599	0.360267
O301	O	0.309689	-0.214663	-0.215114
O302	O	0.809689	0.285337	0.284886
C303	C	0.371267	-0.204628	-0.115726
C304	C	0.871267	0.295372	0.384274
C305	C	0.341225	-0.256442	-0.167422
C306	C	0.841225	0.243558	0.332578
H307	H	0.396762	-0.238386	-0.077144
H308	H	0.896762	0.261614	0.422856
H309	H	0.396890	-0.166200	-0.149537
H310	H	0.896890	0.333800	0.350463
H311	H	0.342354	-0.170933	-0.082191
H312	H	0.842354	0.329067	0.417809
H313	H	0.370100	-0.290185	-0.200968
H314	H	0.870100	0.209815	0.299032
H315	H	0.315593	-0.294821	-0.133569
H316	H	0.815593	0.205179	0.366431
