data_functionalizedCrystal
_audit_creation_method	'MofGen! by Chris Wilmer'
_symmetry_space_group_name_H-M	'P1'
_symmetry_Int_Tables_number	1
_symmetry_cell_setting	triclinic
loop_
_symmetry_equiv_pos_as_xyz
  x,y,z
_cell_length_a	18.215407
_cell_length_b	19.121449
_cell_length_c	18.215399
_cell_angle_alpha	92.467880
_cell_angle_beta	90.019833
_cell_angle_gamma	87.585577
loop_
_atom_site_label
_atom_site_type_symbol
_atom_site_fract_x
_atom_site_fract_y
_atom_site_fract_z
Zn1	Zn	1.137562	-0.279608	0.403625
Zn2	Zn	1.470895	0.053725	0.736958
Zn3	Zn	1.804229	0.387059	1.070291
Zn4	Zn	1.142717	-0.397061	0.275311
Zn5	Zn	1.476051	-0.063728	0.608644
Zn6	Zn	1.809384	0.269606	0.941978
Zn7	Zn	1.014496	-0.279631	0.280571
Zn8	Zn	1.347829	0.053702	0.613904
Zn9	Zn	1.681162	0.387036	0.947238
Zn10	Zn	1.019706	-0.397022	0.398338
Zn11	Zn	1.353039	-0.063688	0.731671
Zn12	Zn	1.686372	0.269645	1.065004
O13	O	1.078620	-0.338330	0.339461
O14	O	1.411953	-0.004997	0.672794
O15	O	1.745287	0.328336	1.006128
O16	O	1.241231	-0.295195	0.386615
O17	O	1.574564	0.038138	0.719948
O18	O	1.907897	0.371472	1.053281
O19	O	1.125685	-0.381510	0.173023
O20	O	1.459019	-0.048176	0.506357
O21	O	1.792352	0.285157	0.839690
O22	O	1.026483	-0.181345	0.301308
O23	O	1.359816	0.151988	0.634641
O24	O	1.693150	0.485322	0.967975
O25	O	1.245018	-0.381487	0.292343
O26	O	1.578351	-0.048154	0.625677
O27	O	1.911685	0.285179	0.959010
O28	O	1.116899	-0.181328	0.391715
O29	O	1.450233	0.152005	0.725048
O30	O	1.783566	0.485339	1.058382
O31	O	1.031482	-0.295234	0.176888
O32	O	1.364815	0.038099	0.510221
O33	O	1.698148	0.371432	0.843554
O34	O	0.912202	-0.295196	0.296182
O35	O	1.245536	0.038137	0.629515
O36	O	1.578869	0.371470	0.962848
O37	O	1.035362	-0.381421	0.502025
O38	O	1.368696	-0.048087	0.835358
O39	O	1.702029	0.285246	1.168691
O40	O	0.916030	-0.381443	0.382704
O41	O	1.249363	-0.048110	0.716038
O42	O	1.582697	0.285224	1.049371
O43	O	1.121951	-0.295157	0.505909
O44	O	1.455284	0.038176	0.839242
O45	O	1.788618	0.371509	1.172575
O46	O	1.130737	-0.495339	0.287217
O47	O	1.464071	-0.162005	0.620550
O48	O	1.797404	0.171328	0.953884
O49	O	1.040361	-0.495310	0.377604
O50	O	1.373694	-0.161977	0.710938
O51	O	1.707028	0.171357	1.044271
C52	C	0.887413	-0.338318	0.339440
C53	C	1.220747	-0.004985	0.672774
C54	C	1.554080	0.328348	1.006107
C55	C	0.805615	-0.338330	0.339448
C56	C	1.138948	-0.004997	0.672782
C57	C	1.472282	0.328337	1.006115
C58	C	0.619437	-0.383309	0.384439
C59	C	0.952770	-0.049976	0.717772
C60	C	1.286103	0.283357	1.051105
C61	C	0.542578	-0.383312	0.384448
C62	C	0.875911	-0.049978	0.717781
C63	C	1.209245	0.283355	1.051114
C64	C	0.538556	-0.293364	0.294499
C65	C	0.871890	0.039969	0.627832
C66	C	1.205223	0.373302	0.961166
C67	C	0.615414	-0.293359	0.294494
C68	C	0.948747	0.039974	0.627828
C69	C	1.282080	0.373308	0.961161
C70	C	0.655852	-0.338336	0.339463
C71	C	0.989185	-0.005002	0.672796
C72	C	1.322518	0.328331	1.006130
C73	C	0.502136	-0.338343	0.339477
C74	C	0.835469	-0.005010	0.672810
C75	C	1.168803	0.328324	1.006143
C76	C	0.418802	-0.338345	0.339486
C77	C	0.752136	-0.005012	0.672819
C78	C	1.085469	0.328322	1.006153
C79	C	0.739191	-0.338333	0.339455
C80	C	1.072524	-0.004999	0.672788
C81	C	1.405857	0.328334	1.006121
C82	C	1.086694	-0.520808	0.331282
C83	C	1.420027	-0.187475	0.664616
C84	C	1.753360	0.145859	0.997949
C85	C	1.090215	-0.598873	0.327808
C86	C	1.423548	-0.265539	0.661141
C87	C	1.756882	0.067794	0.994475
C88	C	1.044783	-0.635558	0.373196
C89	C	1.378116	-0.302225	0.706530
C90	C	1.711450	0.031109	1.039863
C91	C	1.048095	-0.708908	0.369929
C92	C	1.381428	-0.375575	0.703262
C93	C	1.714762	-0.042241	1.036596
C94	C	1.096843	-0.745571	0.321276
C95	C	1.430176	-0.412238	0.654609
C96	C	1.763510	-0.078905	0.987943
C97	C	1.142277	-0.708881	0.275883
C98	C	1.475610	-0.375547	0.609216
C99	C	1.808943	-0.042214	0.942549
C100	C	1.138961	-0.635532	0.279147
C101	C	1.472294	-0.302199	0.612480
C102	C	1.805627	0.031135	0.945814
C103	C	1.109207	-0.967036	0.309064
C104	C	1.442541	-0.633703	0.642398
C105	C	1.775874	-0.300370	0.975731
C106	C	1.112522	-1.040390	0.305805
C107	C	1.445855	-0.707057	0.639138
C108	C	1.779188	-0.373723	0.972472
C109	C	1.018339	-1.040413	0.399851
C110	C	1.351672	-0.707079	0.733184
C111	C	1.685005	-0.373746	1.066518
C112	C	1.015030	-0.967063	0.403114
C113	C	1.348363	-0.633729	0.736447
C114	C	1.681697	-0.300396	1.069781
C115	C	1.060461	-0.930378	0.357718
C116	C	1.393794	-0.597045	0.691051
C117	C	1.727128	-0.263712	1.024384
C118	C	1.100231	-0.820547	0.317937
C119	C	1.433564	-0.487213	0.651270
C120	C	1.766897	-0.153880	0.984603
C121	C	1.057069	-0.855404	0.361054
C122	C	1.390402	-0.522071	0.694387
C123	C	1.723735	-0.188737	1.027721
C124	C	1.270574	-0.338343	0.339482
C125	C	1.603907	-0.005010	0.672815
C126	C	1.937240	0.328324	1.006149
C127	C	1.352373	-0.338348	0.339491
C128	C	1.685706	-0.005015	0.672824
C129	C	2.019039	0.328318	1.006158
C130	C	1.078663	-0.338282	0.531416
C131	C	1.411996	-0.004949	0.864750
C132	C	1.745330	0.328385	1.198083
C133	C	1.078681	-0.338261	0.613216
C134	C	1.412014	-0.004928	0.946549
C135	C	1.745348	0.328405	1.279883
C136	C	1.070535	-0.155140	0.347688
C137	C	1.403868	0.178193	0.681021
C138	C	1.737202	0.511526	1.014355
C139	C	1.067090	-0.077076	0.351194
C140	C	1.400423	0.256258	0.684527
C141	C	1.733756	0.589591	1.017860
C142	C	1.078618	-0.338328	0.148255
C143	C	1.411951	-0.004995	0.481588
C144	C	1.745284	0.328339	0.814922
C145	C	1.078733	-0.338151	0.066464
C146	C	1.412067	-0.004817	0.399798
C147	C	1.745400	0.328516	0.733131
C148	C	1.123783	-0.293302	0.803436
C149	C	1.457116	0.040031	1.136769
C150	C	1.790450	0.373365	1.470102
C151	C	1.123791	-0.293281	0.880295
C152	C	1.457124	0.040052	1.213629
C153	C	1.790457	0.373385	1.546962
C154	C	1.033626	-0.383112	0.876239
C155	C	1.366960	-0.049779	1.209573
C156	C	1.700293	0.283555	1.542906
C157	C	1.033615	-0.383128	0.799381
C158	C	1.366949	-0.049795	1.132715
C159	C	1.700282	0.283538	1.466048
C160	C	1.078698	-0.338224	0.762981
C161	C	1.412031	-0.004891	1.096315
C162	C	1.745364	0.328442	1.429648
C163	C	1.078717	-0.338188	0.916699
C164	C	1.412050	-0.004854	1.250032
C165	C	1.745383	0.328479	1.583366
C166	C	1.078725	-0.338166	1.000034
C167	C	1.412058	-0.004832	1.333367
C168	C	1.745392	0.328501	1.666700
C169	C	1.078689	-0.338245	0.679641
C170	C	1.412022	-0.004912	1.012975
C171	C	1.745355	0.328421	1.346308
H172	H	0.645063	-0.256732	0.257870
H173	H	0.978397	0.076602	0.591203
H174	H	1.311730	0.409935	0.924536
H175	H	0.505622	-0.256747	0.257886
H176	H	0.838956	0.076586	0.591219
H177	H	1.172289	0.409920	0.924553
Cl178	Cl	0.976959	-0.439563	0.922004
Cl179	Cl	1.310292	-0.106230	1.255338
Cl180	Cl	1.643625	0.227103	1.588671
Cl181	Cl	0.983500	-0.589474	0.434367
Cl182	Cl	1.316834	-0.256141	0.767700
Cl183	Cl	1.650167	0.077192	1.101033
H184	H	1.017375	-0.825551	0.400664
H185	H	1.350709	-0.492218	0.733998
H186	H	1.684042	-0.158884	1.067331
Cl187	Cl	1.180479	-0.236811	0.931149
Cl188	Cl	1.513812	0.096522	1.264482
Cl189	Cl	1.847145	0.429856	1.597816
H190	H	0.975336	-0.937213	0.442731
H191	H	1.308669	-0.603880	0.776064
H192	H	1.642002	-0.270546	1.109398
H193	H	0.996896	-0.419709	0.766442
H194	H	1.330229	-0.086376	1.099775
H195	H	1.663563	0.246957	1.433109
Cl196	Cl	1.203560	-0.754972	0.214719
Cl197	Cl	1.536894	-0.421638	0.548052
Cl198	Cl	1.870227	-0.088305	0.881385
H199	H	0.512932	-0.419933	0.421073
H200	H	0.846265	-0.086599	0.754406
H201	H	1.179599	0.246734	1.087739
Cl202	Cl	0.670270	-0.439848	0.440973
Cl203	Cl	1.003604	-0.106515	0.774307
Cl204	Cl	1.336937	0.226819	1.107640
H205	H	1.011093	-0.738774	0.406883
H206	H	1.344426	-0.405441	0.740216
H207	H	1.677759	-0.072108	1.073549
Cl208	Cl	0.961227	-1.086534	0.456914
Cl209	Cl	1.294560	-0.753201	0.790247
Cl210	Cl	1.627893	-0.419867	1.123581
H211	H	1.152222	-1.070239	0.266187
H212	H	1.485556	-0.736906	0.599520
H213	H	1.818889	-0.403573	0.932853
Cl214	Cl	1.166334	-0.920928	0.252007
Cl215	Cl	1.499667	-0.587595	0.585340
Cl216	Cl	1.833001	-0.254262	0.918674
Cl217	Cl	1.196073	-0.589413	0.222080
Cl218	Cl	1.529406	-0.256079	0.555413
Cl219	Cl	1.862740	0.077254	0.888747
H220	H	1.160490	-0.256736	0.773801
H221	H	1.493823	0.076597	1.107135
H222	H	1.827156	0.409930	1.440468
H223	H	1.139922	-0.850406	0.278324
H224	H	1.473255	-0.517073	0.611657
H225	H	1.806589	-0.183739	0.944991
