data_functionalizedCrystal
_audit_creation_method	'MofGen! by Chris Wilmer'
_symmetry_space_group_name_H-M	'P1'
_symmetry_Int_Tables_number	1
_symmetry_cell_setting	triclinic
loop_
_symmetry_equiv_pos_as_xyz
  x,y,z
_cell_length_a	19.077114
_cell_length_b	19.077367
_cell_length_c	19.076919
_cell_angle_alpha	85.521998
_cell_angle_beta	85.527261
_cell_angle_gamma	94.531155
loop_
_atom_site_label
_atom_site_type_symbol
_atom_site_fract_x
_atom_site_fract_y
_atom_site_fract_z
Zn1	Zn	0.252715	-1.051078	-0.365992
Zn2	Zn	0.752715	-0.551078	0.134008
Zn3	Zn	0.365873	-1.050988	-0.252844
Zn4	Zn	0.865873	-0.550988	0.247156
Zn5	Zn	0.252733	-0.937932	-0.252844
Zn6	Zn	0.752733	-0.437932	0.247156
Zn7	Zn	0.375714	-0.928004	-0.375821
Zn8	Zn	0.875714	-0.428004	0.124179
O9	O	0.311759	-0.992000	-0.311875
O10	O	0.811759	-0.492000	0.188125
O11	O	0.263600	-1.149887	-0.346869
O12	O	0.763600	-0.649887	0.153131
O13	O	0.346753	-1.040108	-0.154025
O14	O	0.846753	-0.540108	0.345975
O15	O	0.153905	-0.957134	-0.263740
O16	O	0.653905	-0.457134	0.236260
O17	O	0.346736	-1.149821	-0.263740
O18	O	0.846736	-0.649821	0.236260
O19	O	0.153893	-1.040262	-0.346869
O20	O	0.653893	-0.540262	0.153131
O21	O	0.263629	-0.957047	-0.154025
O22	O	0.763629	-0.457047	0.345975
O23	O	0.273172	-0.837794	-0.273271
O24	O	0.773172	-0.337794	0.226729
O25	O	0.363509	-0.940212	-0.473336
O26	O	0.863509	-0.440212	0.026664
O27	O	0.363526	-0.830500	-0.363621
O28	O	0.863526	-0.330500	0.136379
O29	O	0.273143	-1.030635	-0.466115
O30	O	0.773143	-0.530635	0.033885
O31	O	0.466003	-1.030481	-0.273271
O32	O	0.966003	-0.530481	0.226729
O33	O	0.473233	-0.940125	-0.363622
O34	O	0.973233	-0.440125	0.136378
C35	C	0.319419	-0.808524	-0.319513
C36	C	0.819419	-0.308524	0.180487
C37	C	0.322714	-0.730030	-0.322798
C38	C	0.822714	-0.230030	0.177202
C39	C	0.495242	-0.984234	-0.319528
C40	C	0.995242	-0.484234	0.180472
C41	C	0.573735	-0.980975	-0.322822
C42	C	1.073735	-0.480975	0.177178
C43	C	0.277155	-0.696930	-0.277371
C44	C	0.777155	-0.196930	0.222629
C45	C	0.280257	-0.623177	-0.280458
C46	C	0.780257	-0.123177	0.219542
C47	C	0.328916	-0.582524	-0.328975
C48	C	0.828916	-0.082524	0.171025
C49	C	0.374480	-0.615629	-0.374403
C50	C	0.874480	-0.115629	0.125597
C51	C	0.371381	-0.689381	-0.371312
C52	C	0.871381	-0.189381	0.128688
C53	C	0.343239	-0.361544	-0.343251
C54	C	0.843239	0.138456	0.156749
C55	C	0.346334	-0.287787	-0.346339
C56	C	0.846334	0.212213	0.153661
C57	C	0.252111	-0.295340	-0.252393
C58	C	0.752111	0.204660	0.247607
C59	C	0.249014	-0.369093	-0.249310
C60	C	0.749014	0.130907	0.250690
C61	C	0.294580	-0.402192	-0.294736
C62	C	0.794580	0.097808	0.205264
N63	N	0.332086	-0.507137	-0.332132
N64	N	0.832086	-0.007137	0.167868
N65	N	0.291413	-0.477578	-0.291574
N66	N	0.791413	0.022422	0.208426
C67	C	0.606824	-1.026521	-0.277365
C68	C	1.106824	-0.526521	0.222635
C69	C	0.680577	-1.023460	-0.280468
C70	C	1.180577	-0.523460	0.219532
C71	C	0.721240	-0.974849	-0.329025
C72	C	1.221240	-0.474849	0.170975
C73	C	0.688147	-0.929301	-0.374486
C74	C	1.188147	-0.429301	0.125514
C75	C	0.614395	-0.932366	-0.371387
C76	C	1.114395	-0.432366	0.128613
C77	C	0.942221	-0.960638	-0.343339
C78	C	1.442221	-0.460638	0.156661
C79	C	1.015977	-0.957575	-0.346434
C80	C	1.515977	-0.457575	0.153566
C81	C	1.008402	-1.051735	-0.252416
C82	C	1.508402	-0.551735	0.247584
C83	C	0.934650	-1.054793	-0.249318
C84	C	1.434650	-0.554793	0.250682
C85	C	0.901563	-1.009247	-0.294782
C86	C	1.401563	-0.509247	0.205218
N87	N	0.796628	-0.971718	-0.332196
N88	N	1.296628	-0.471718	0.167804
N89	N	0.826176	-1.012383	-0.291614
N90	N	1.326176	-0.512383	0.208386
C91	C	1.127559	-0.999809	-0.304217
C92	C	1.627559	-0.499809	0.195783
C93	C	1.049066	-1.003121	-0.300977
C94	C	1.549066	-0.503121	0.199023
C95	C	0.319422	-0.984326	-0.496065
C96	C	0.819422	-0.484326	0.003935
C97	C	0.322687	-0.981056	-0.574555
C98	C	0.822687	-0.481056	-0.074555
C99	C	0.304064	-0.176194	-0.304201
C100	C	0.804064	0.323806	0.195799
C101	C	0.300774	-0.254688	-0.300913
C102	C	0.800774	0.245312	0.199087
C103	C	0.277175	-1.026595	-0.607672
C104	C	0.777175	-0.526595	-0.107672
C105	C	0.280241	-1.023513	-0.681422
C106	C	0.780241	-0.523513	-0.181422
C107	C	0.328823	-0.974896	-0.722055
C108	C	0.828823	-0.474896	-0.222055
C109	C	0.374338	-0.929352	-0.688933
C110	C	0.874338	-0.429352	-0.188933
C111	C	0.371268	-0.932430	-0.615184
C112	C	0.871268	-0.432430	-0.115184
C113	C	0.343047	-0.960638	-0.943024
C114	C	0.843047	-0.460638	-0.443024
C115	C	0.346115	-0.957564	-1.016778
C116	C	0.846115	-0.457564	-0.516778
C117	C	0.252016	-1.051725	-1.009262
C118	C	0.752016	-0.551725	-0.509262
C119	C	0.248953	-1.054802	-0.935512
C120	C	0.748953	-0.554802	-0.435512
C121	C	0.294466	-1.009256	-0.902397
C122	C	0.794466	-0.509256	-0.402397
N123	N	0.331960	-0.971747	-0.797440
N124	N	0.831960	-0.471747	-0.297440
N125	N	0.291325	-1.012402	-0.827013
N126	N	0.791325	-0.512402	-0.327013
C127	C	0.304072	-0.999688	-0.128399
C128	C	0.804072	-0.499688	0.371601
C129	C	0.300602	-1.003103	-0.049895
C130	C	0.800602	-0.503103	0.450105
H131	H	0.237527	-0.730025	-0.237869
H132	H	0.737527	-0.230025	0.262131
N133	N	0.392144	-0.911524	-0.907315
N134	N	0.892144	-0.411524	-0.407315
H135	H	0.382830	-0.920846	-0.854430
H136	H	0.882830	-0.420846	-0.354430
H137	H	0.383797	-0.861017	-0.921847
H138	H	0.883797	-0.361017	-0.421847
H139	H	0.721260	-0.889724	-0.414025
H140	H	1.221260	-0.389724	0.085975
N141	N	0.426968	-0.571786	-0.426728
N142	N	0.926968	-0.071786	0.073272
H143	H	0.422018	-0.520042	-0.421794
H144	H	0.922018	-0.020042	0.078206
H145	H	0.417614	-0.583050	-0.476184
H146	H	0.917614	-0.083050	0.023816
H147	H	0.408480	-0.716329	-0.408303
H148	H	0.908480	-0.216329	0.091697
H149	H	0.573720	-1.066103	-0.237822
H150	H	1.073720	-0.566103	0.262178
N151	N	0.231121	-0.587476	-0.231461
N152	N	0.731121	-0.087476	0.268539
H153	H	0.199823	-0.624420	-0.200259
H154	H	0.699823	-0.124420	0.299741
H155	H	0.200970	-0.557057	-0.260180
H156	H	0.700970	-0.057057	0.239820
H157	H	0.901543	-1.094376	-0.209779
H158	H	1.401543	-0.594376	0.290221
H159	H	1.035350	-1.088816	-0.215403
H160	H	1.535350	-0.588816	0.284597
H161	H	0.707514	-1.060548	-0.243452
H162	H	1.207514	-0.560548	0.256548
N163	N	0.426724	-0.876898	-0.732754
N164	N	0.926724	-0.376898	-0.232754
H165	H	0.421761	-0.881855	-0.784500
H166	H	0.921761	-0.381855	-0.284500
H167	H	0.476170	-0.886273	-0.721512
H168	H	0.976170	-0.386273	-0.221512
H169	H	1.049084	-0.917998	-0.385987
H170	H	1.549084	-0.417998	0.114013
N171	N	0.578698	-0.883244	-0.420411
N172	N	1.078698	-0.383244	0.079589
H173	H	0.593145	-0.891535	-0.470959
H174	H	1.093145	-0.391535	0.029041
H175	H	0.593240	-0.832739	-0.411985
H176	H	1.093240	-0.332739	0.088015
N177	N	0.202978	-0.259640	-0.203393
N178	N	0.702978	0.240360	0.296607
H179	H	0.171684	-0.296585	-0.172188
H180	H	0.671684	0.203415	0.327812
H181	H	0.172822	-0.229223	-0.232108
H182	H	0.672822	0.270777	0.267892
H183	H	0.209395	-0.402188	-0.209798
H184	H	0.709395	0.097812	0.290202
N185	N	0.420350	-0.883307	-0.579462
N186	N	0.920350	-0.383307	-0.079462
H187	H	0.451592	-0.852040	-0.616392
H188	H	0.951592	-0.352040	-0.116392
H189	H	0.450560	-0.911937	-0.549025
H190	H	0.950560	-0.411937	-0.049025
N191	N	0.906540	-0.911507	-0.392365
N192	N	1.406540	-0.411507	0.107635
H193	H	0.876067	-0.940084	-0.422637
H194	H	1.376067	-0.440084	0.077363
H195	H	0.943535	-0.880257	-0.423544
H196	H	1.443535	-0.380257	0.076456
N197	N	0.196526	-1.107214	-0.891690
N198	N	0.696526	-0.607214	-0.391690
H199	H	0.201482	-1.102248	-0.839945
H200	H	0.701482	-0.602248	-0.339945
H201	H	0.205925	-1.156654	-0.902929
H202	H	0.705925	-0.656654	-0.402929
H203	H	0.237616	-1.066187	-0.574593
H204	H	0.737616	-0.566187	-0.074593
N205	N	0.398812	-0.243938	-0.398677
N206	N	0.898812	0.256062	0.101323
H207	H	0.427208	-0.276096	-0.426986
H208	H	0.927208	0.223904	0.073014
H209	H	0.431534	-0.213147	-0.372524
H210	H	0.931534	0.286853	0.127476
H211	H	0.380343	-0.388483	-0.380240
H212	H	0.880343	0.111517	0.119760
H213	H	0.243181	-1.060598	-0.708382
H214	H	0.743181	-0.560598	-0.208382
N215	N	0.202929	-1.100846	-1.044978
N216	N	0.702929	-0.600846	-0.544978
H217	H	0.212243	-1.091521	-1.097863
H218	H	0.712243	-0.591521	-0.597863
H219	H	0.152416	-1.092532	-1.030444
H220	H	0.652416	-0.592532	-0.530444
N221	N	0.398519	-0.905127	-1.060606
N222	N	0.898519	-0.405127	-0.560606
H223	H	0.426885	-0.876739	-1.028438
H224	H	0.926885	-0.376739	-0.528438
H225	H	0.372409	-0.872393	-1.091371
H226	H	0.872409	-0.372393	-0.591371
