data_functionalizedCrystal
_audit_creation_method	'MofGen! by Chris Wilmer'
_symmetry_space_group_name_H-M	'P1'
_symmetry_Int_Tables_number	1
_symmetry_cell_setting	triclinic
loop_
_symmetry_equiv_pos_as_xyz
  x,y,z
_cell_length_a	16.109301
_cell_length_b	22.010155
_cell_length_c	16.109301
_cell_angle_alpha	90.002829
_cell_angle_beta	96.538519
_cell_angle_gamma	90.005741
loop_
_atom_site_label
_atom_site_type_symbol
_atom_site_fract_x
_atom_site_fract_y
_atom_site_fract_z
O1	O	1.103138	0.050489	-0.106856
O2	O	0.861076	0.050499	-0.120155
O3	O	0.988757	0.050487	0.007526
O4	O	0.975457	0.050500	-0.234536
O5	O	0.988733	-0.050563	0.007507
O6	O	0.861053	-0.050552	-0.120174
O7	O	1.103115	-0.050562	-0.106875
Cu8	Cu	0.982082	-0.059783	-0.113526
Cu9	Cu	0.982109	0.059720	-0.113504
O10	O	0.975434	-0.050550	-0.234555
C11	C	0.830090	-0.000025	-0.119626
C12	C	0.737794	-0.000022	-0.118011
N13	N	0.982068	-0.143836	-0.113542
C14	C	0.515522	-0.000025	-0.190018
C15	C	0.428801	-0.000029	-0.188494
C16	C	0.448676	-0.000035	-0.037006
C17	C	0.535394	-0.000035	-0.038530
C18	C	0.568815	-0.000027	-0.115039
C19	C	0.395376	-0.000031	-0.111990
C20	C	0.301350	-0.000035	-0.110337
C21	C	0.662847	-0.000024	-0.116693
C22	C	1.038649	-0.563620	-0.056975
C23	C	1.038653	-0.627228	-0.056969
O24	O	1.086727	-0.660124	-0.008884
N25	N	0.982109	-0.659043	-0.113486
C26	C	0.925551	-0.627247	-0.170007
O27	O	0.877455	-0.660149	-0.218078
C28	C	0.925544	-0.563641	-0.170008
C29	C	0.982098	-0.531829	-0.113493
C30	C	1.095198	-0.531809	-0.000463
C31	C	1.095195	-0.468205	-0.000470
C32	C	1.038643	-0.436414	-0.056988
C33	C	0.982095	-0.468226	-0.113500
C34	C	0.868982	-0.531846	-0.226525
C35	C	0.868980	-0.468235	-0.226520
C36	C	0.925534	-0.436424	-0.170005
C37	C	0.925540	-0.372831	-0.170025
N38	N	0.982084	-0.341016	-0.113508
C39	C	1.038636	-0.372807	-0.056990
C40	C	0.925569	-0.760825	-0.170000
C41	C	0.925580	-0.824430	-0.170003
C42	C	1.038681	-0.824407	-0.056964
C43	C	1.038674	-0.760800	-0.056965
C44	C	0.982114	-0.729010	-0.113482
C45	C	1.038626	-0.239236	-0.057009
C46	C	1.038620	-0.175627	-0.057023
C47	C	0.925516	-0.175656	-0.170059
C48	C	0.925524	-0.239260	-0.170048
C49	C	0.982082	-0.271048	-0.113516
O50	O	0.877488	-0.339895	-0.218083
O51	O	1.086717	-0.339898	-0.008919
C52	C	1.134101	-0.000036	-0.107404
C53	C	1.226397	-0.000036	-0.109019
C54	C	0.988206	-0.000038	0.038491
C55	C	0.986591	-0.000039	0.130786
N56	N	0.982129	0.143773	-0.113482
C57	C	0.975984	-0.000023	-0.265521
C58	C	0.977600	-0.000019	-0.357816
C59	C	1.058599	-0.000032	0.353059
C60	C	1.057075	-0.000027	0.439779
C61	C	0.905586	-0.000024	0.419905
C62	C	0.907111	-0.000024	0.333186
C63	C	0.983620	-0.000032	0.299766
C64	C	0.980571	-0.000026	0.473205
C65	C	0.978918	-0.000021	0.567231
C66	C	0.985273	-0.000036	0.205734
H67	H	0.542730	-0.000023	-0.252317
H68	H	1.120897	-0.000037	0.325851
H69	H	0.385413	-0.000029	-0.249550
H70	H	0.578788	-0.000038	0.022530
H71	H	0.421454	-0.000045	0.025285
N72	N	1.099679	-0.858702	0.003998
H73	H	1.091095	-0.903823	-0.004580
H74	H	1.090093	-0.847584	0.062983
N75	N	0.807978	-0.433950	-0.287487
H76	H	0.816552	-0.388827	-0.278920
H77	H	0.749007	-0.445075	-0.277859
H78	H	1.084676	-0.149728	-0.011002
H79	H	0.822931	-0.557738	-0.272544
H80	H	0.843295	-0.000019	0.447127
N81	N	1.156186	-0.433897	0.060491
H82	H	1.215188	-0.444965	0.050899
H83	H	1.146553	-0.444983	0.119473
N84	N	0.864541	-0.273581	-0.231007
H85	H	0.874098	-0.262519	-0.290020
H86	H	0.805565	-0.262503	-0.221346
N87	N	1.099631	-0.273517	0.003958
H88	H	1.135452	-0.243705	0.039749
H89	H	1.136376	-0.299903	-0.027886
H90	H	1.141249	-0.557687	0.045565
N91	N	1.099660	-0.726484	0.003992
H92	H	1.158664	-0.737544	-0.005600
H93	H	1.090032	-0.737567	0.062976
H94	H	0.879537	-0.850327	-0.216032
H95	H	0.879513	-0.734944	-0.216030
N96	N	1.137942	-0.000031	0.497264
H97	H	1.171332	0.037425	0.486517
H98	H	1.171245	-0.037518	0.486488
H99	H	0.879474	-0.149762	-0.216078
N100	N	0.826237	-0.000019	0.275698
H101	H	0.777538	-0.000019	0.310026
H102	H	0.823564	-0.037479	0.239280
