data_functionalizedCrystal
_audit_creation_method	'MofGen! by Chris Wilmer'
_symmetry_space_group_name_H-M	'P1'
_symmetry_Int_Tables_number	1
_symmetry_cell_setting	triclinic
loop_
_symmetry_equiv_pos_as_xyz
  x,y,z
_cell_length_a	23.096457
_cell_length_b	14.395555
_cell_length_c	14.395555
_cell_angle_alpha	120.007246
_cell_angle_beta	90.003589
_cell_angle_gamma	60.001365
loop_
_atom_site_label
_atom_site_type_symbol
_atom_site_fract_x
_atom_site_fract_y
_atom_site_fract_z
Zr1	Zr	0.557781	1.016825	0.121963
O2	O	0.465332	1.210640	0.270298
O3	O	0.586119	0.823023	0.076488
O4	O	0.586118	1.016847	0.270302
O5	O	0.465337	1.016793	-0.076398
O6	O	0.681398	1.016850	0.270308
O7	O	0.465333	1.016816	0.076484
O8	O	0.681400	0.670134	-0.076391
O9	O	0.465335	1.363510	0.270300
O10	O	0.669314	0.902734	0.057100
O11	O	0.598210	0.902715	-0.056998
O12	O	0.598209	1.130918	0.171193
O13	O	0.527105	1.130899	0.057095
Zr14	Zr	0.709748	1.016793	-0.121857
Zr15	Zr	0.709742	1.016829	0.121972
Zr16	Zr	0.557787	1.016789	-0.121866
Zr17	Zr	0.557785	1.260634	0.121966
Zr18	Zr	0.709743	0.772984	-0.121861
O19	O	0.681410	1.210595	-0.076383
O20	O	0.681402	1.210646	0.270311
O21	O	0.465341	1.210589	-0.076395
O22	O	0.802196	0.822978	-0.270193
O23	O	0.802188	0.823029	0.076501
O24	O	0.586127	0.822972	-0.270206
O25	O	0.802192	1.016825	0.076503
O26	O	0.681411	1.016771	-0.270197
O27	O	0.586131	1.016768	-0.270203
O28	O	0.802195	1.016802	-0.076378
O29	O	0.586124	1.363513	0.270307
O30	O	0.681405	0.670105	-0.270202
O31	O	0.802193	0.670109	-0.270195
O32	O	0.802189	0.670137	-0.076384
O33	O	0.465340	1.363481	0.076489
O34	O	0.586129	1.363484	0.076496
O35	O	0.669320	0.902700	-0.171088
O36	O	0.740424	0.902719	-0.056990
O37	O	0.669318	1.130903	0.057103
O38	O	0.598214	1.130885	-0.056995
C39	C	0.633759	0.711841	0.000048
C40	C	0.633757	0.608337	0.000046
C41	C	0.594990	0.547735	-0.062169
C42	C	0.566889	0.562006	0.045115
C43	C	0.661840	0.409670	-0.107205
C44	C	0.605617	0.624035	0.107393
C45	C	0.700605	0.471636	-0.045004
C46	C	0.672521	0.485954	0.062344
C47	C	0.443684	1.016804	0.000041
C48	C	0.379172	1.016802	0.000038
C49	C	0.385983	0.897696	-0.059507
C50	C	0.325367	0.897694	-0.059512
C51	C	0.257942	1.016805	0.000050
C52	C	0.251134	1.135927	0.059597
C53	C	0.311749	1.135926	0.059591
N54	N	0.135145	1.105474	0.096982
N55	N	0.077566	1.105467	0.096986
C56	C	0.075309	1.016817	0.000070
N57	N	0.132813	0.928154	-0.096848
N58	N	0.190399	0.928156	-0.096850
C59	C	0.192211	1.016820	0.000063
C60	C	0.016396	0.897700	-0.059485
C61	C	-0.044222	0.897703	-0.059493
C62	C	-0.118456	1.135940	0.059627
C63	C	-0.057838	1.135934	0.059624
C64	C	0.009586	1.016810	0.000070
C65	C	0.823845	1.016814	0.000064
C66	C	0.888356	1.016816	0.000068
C67	C	0.633757	1.016854	0.305045
C68	C	0.633754	1.016869	0.408557
C69	C	0.633770	1.321777	0.000057
C70	C	0.633772	1.425281	0.000059
C71	C	0.594982	1.141272	0.593259
C72	C	0.566877	1.079101	0.500222
C73	C	0.661828	1.079073	0.500235
C74	C	0.605610	0.954659	0.499915
C75	C	0.700598	0.954648	0.499943
C76	C	0.672509	0.892386	0.406889
C77	C	0.633767	1.016785	0.695070
C78	C	0.633754	1.016832	0.591589
C79	C	0.823839	0.711846	0.000059
C80	C	0.888348	0.608344	0.000061
C81	C	0.633766	0.711796	-0.304945
C82	C	0.633767	0.608277	-0.408458
C83	C	0.823846	0.711801	-0.304934
C84	C	0.888358	0.608284	-0.408443
C85	C	0.443682	1.321817	0.305039
C86	C	0.379170	1.425334	0.408548
C87	C	0.443690	1.321772	0.000046
C88	C	0.379180	1.425274	0.000044
C89	C	0.633763	1.321822	0.305050
C90	C	0.633762	1.425341	0.408563
C91	C	0.881524	0.559747	0.059626
C92	C	0.942132	0.462509	0.059651
C93	C	1.009563	0.413865	0.000104
C94	C	1.016386	0.462472	-0.059463
C95	C	0.955779	0.559714	-0.059481
C96	C	0.955776	0.559682	-0.397494
C97	C	1.016398	0.462430	-0.494743
C98	C	1.009600	0.413776	-0.602940
C99	C	0.942176	0.462389	-0.613887
C100	C	0.881556	0.559645	-0.516639
C101	C	0.311753	1.473948	0.397600
C102	C	0.251131	1.571230	0.494848
C103	C	0.257928	1.619889	0.603045
C104	C	0.325353	1.571270	0.613992
C105	C	0.385973	1.473997	0.516744
C106	C	0.386004	1.473882	-0.059511
C107	C	0.325396	1.571146	-0.059509
C108	C	0.257965	1.619794	0.000042
C109	C	0.251143	1.571182	0.059604
C110	C	0.311750	1.473926	0.059608
C111	C	0.594994	0.547692	-0.406847
C112	C	0.661857	0.409579	-0.499872
C113	C	0.566928	0.561909	-0.499882
C114	C	0.700669	0.471465	-0.500120
C115	C	0.605692	0.623869	-0.500116
C116	C	0.672595	0.485765	-0.593158
H117	H	0.581806	0.715614	0.198142
H118	H	0.208621	1.698986	0.000029
H119	H	0.306184	1.434352	0.108102
H120	H	0.510362	0.599196	0.083230
H121	H	1.071297	0.422852	-0.107944
H122	H	0.936652	0.422761	-0.701993
H123	H	0.440866	1.434416	0.525672
H124	H	0.330965	1.610709	-0.108016
H125	H	0.196232	1.610806	0.108089
H126	H	0.757119	0.434465	-0.083145
H127	H	0.562155	1.246465	0.673047
H128	H	0.705304	0.459020	0.115036
H129	H	0.826664	0.599205	-0.525570
H130	H	0.306205	1.434336	0.309509
H131	H	0.581795	0.902116	0.500715
H132	H	0.961345	0.599270	-0.107992
H133	H	0.562255	0.574787	-0.327083
H134	H	0.705434	0.458725	-0.672792
H135	H	0.936563	0.422945	0.108157
H136	H	0.685585	0.318049	-0.197910
H137	H	0.510348	1.131695	0.499308
H138	H	0.208561	1.699095	0.682221
H139	H	0.440904	1.434280	-0.108012
H140	H	0.961324	0.599281	-0.309404
H141	H	0.330879	1.610901	0.702097
H142	H	0.071296	0.800703	-0.108001
H143	H	1.071292	0.422860	-0.485810
H144	H	0.306198	1.232920	0.108077
H145	H	0.685612	0.317959	-0.500798
H146	H	0.440878	0.800696	-0.107993
H147	H	1.058967	0.334584	-0.682116
H148	H	0.330913	0.800700	-0.108001
H149	H	0.196237	1.610799	0.485913
H150	H	1.058908	0.334683	0.000126
H151	H	0.757225	0.434092	-0.499292
H152	H	0.196232	1.232909	0.108092
H153	H	0.562162	0.574952	-0.114703
H154	H	-0.038670	0.800709	-0.107990
H155	H	0.510400	0.599080	-0.500801
H156	H	-0.173354	1.232923	0.108124
H157	H	-0.063386	1.232923	0.108120
H158	H	0.705290	0.787106	0.327231
H159	H	0.581918	0.715522	-0.499130
H160	H	0.757115	0.902100	0.500899
H161	H	0.826624	0.599352	0.108131
H162	H	0.685570	1.131692	0.499357
