data_functionalizedCrystal
_audit_creation_method	'MofGen! by Chris Wilmer'
_symmetry_space_group_name_H-M	'P1'
_symmetry_Int_Tables_number	1
_symmetry_cell_setting	triclinic
loop_
_symmetry_equiv_pos_as_xyz
  x,y,z
_cell_length_a	29.839131
_cell_length_b	29.839134
_cell_length_c	10.686551
_cell_angle_alpha	94.407170
_cell_angle_beta	94.410099
_cell_angle_gamma	90.036281
loop_
_atom_site_label
_atom_site_type_symbol
_atom_site_fract_x
_atom_site_fract_y
_atom_site_fract_z
Zn1	Zn	-0.159387	0.706279	0.713804
Zn2	Zn	-0.240291	0.700429	0.502773
Zn3	Zn	-0.165169	0.625379	0.502772
Zn4	Zn	-0.234487	0.631106	0.713687
O5	O	-0.199833	0.665798	0.608259
O6	O	-0.170128	0.768371	0.685860
O7	O	-0.235174	0.685628	0.326188
O8	O	-0.101533	0.636162	0.530815
O9	O	-0.229568	0.764073	0.530817
O10	O	-0.097285	0.695599	0.685859
O11	O	-0.179983	0.630489	0.326187
O12	O	-0.174355	0.563270	0.530701
O13	O	-0.219676	0.645923	0.890288
O14	O	-0.225283	0.567478	0.685659
O15	O	-0.164500	0.701152	0.890374
O16	O	-0.302389	0.691181	0.530703
O17	O	-0.298125	0.640250	0.685660
C18	C	-0.199817	0.549073	0.608168
C19	C	-0.199820	0.499138	0.608159
C20	C	-0.226396	0.191696	0.688847
C21	C	-0.226408	0.004024	0.688903
O22	O	-0.248984	-0.018371	0.757453
N23	N	-0.199847	-0.021641	0.608354
C24	C	-0.173280	-0.000386	0.527792
O25	O	-0.150685	-0.026522	0.459290
C26	C	-0.173266	0.187285	0.527743
C27	C	-0.199832	0.212948	0.608288
C28	C	-0.252960	0.217358	0.769387
C29	C	-0.252958	0.264273	0.769367
C30	C	-0.226394	0.285525	0.688808
C31	C	-0.199831	0.259863	0.608268
C32	C	-0.146697	0.208540	0.447187
C33	C	-0.146695	0.255461	0.447184
C34	C	-0.173261	0.281124	0.527730
C35	C	-0.173265	0.328030	0.527689
N36	N	-0.199826	0.353695	0.608238
C37	C	-0.226390	0.332443	0.688797
C38	C	-0.173289	-0.098916	0.527821
C39	C	-0.173293	-0.145833	0.527831
C40	C	-0.226420	-0.141420	0.688945
C41	C	-0.226419	-0.094502	0.688927
C42	C	-0.199850	-0.073250	0.608370
C43	C	-0.226386	0.430967	0.688749
C44	C	-0.226384	0.477886	0.688718
C45	C	-0.173255	0.473469	0.527610
C46	C	-0.173259	0.426554	0.527635
C47	C	-0.199825	0.405305	0.608215
O48	O	-0.150696	0.350456	0.459185
O49	O	-0.248974	0.358587	0.757308
C50	C	-0.226398	0.144781	0.688867
C51	C	-0.199834	0.119118	0.608327
C52	C	-0.173270	0.140370	0.527768
C53	C	-0.199838	0.072200	0.608338
C54	C	-0.226403	0.050948	0.688897
C55	C	-0.252963	0.076613	0.769446
C56	C	-0.252962	0.123528	0.769426
C57	C	-0.146710	0.114705	0.447219
C58	C	-0.146713	0.067790	0.447244
C59	C	-0.173278	0.046538	0.527804
C60	C	-0.316558	0.665715	0.608197
C61	C	-0.366492	0.665722	0.608212
C62	C	-0.678338	0.692373	0.527691
C63	C	-0.866010	0.692430	0.527740
O64	O	-0.892149	0.715024	0.459230
N65	N	-0.887273	0.665894	0.608354
C66	C	-0.861614	0.639344	0.688968
O67	O	-0.884006	0.616778	0.757546
C68	C	-0.673943	0.639290	0.688925
C69	C	-0.652683	0.665824	0.608296
C70	C	-0.657078	0.718906	0.447070
C71	C	-0.610163	0.718890	0.447053
C72	C	-0.584508	0.692341	0.527658
C73	C	-0.605768	0.665808	0.608280
C74	C	-0.648286	0.612743	0.769544
C75	C	-0.601365	0.612732	0.769528
C76	C	-0.580105	0.639267	0.688899
C77	C	-0.533199	0.639243	0.688868
N78	N	-0.511936	0.665779	0.608254
C79	C	-0.537590	0.692328	0.527649
C80	C	-0.960145	0.639374	0.688984
C81	C	-1.007062	0.639386	0.688993
C82	C	-1.011454	0.692473	0.527766
C83	C	-0.964536	0.692458	0.527751
C84	C	-0.938882	0.665910	0.608369
C85	C	-0.439065	0.692291	0.527620
C86	C	-0.392146	0.692271	0.527607
C87	C	-0.387758	0.639186	0.688838
C88	C	-0.434673	0.639204	0.688847
C89	C	-0.460326	0.665760	0.608234
O90	O	-0.507031	0.616664	0.757353
O91	O	-0.515190	0.714898	0.459101
C92	C	-0.725253	0.692390	0.527707
C93	C	-0.746513	0.665857	0.608329
C94	C	-0.720859	0.639308	0.688934
C95	C	-0.793431	0.665870	0.608338
C96	C	-0.819086	0.692419	0.527733
C97	C	-0.797823	0.718955	0.447119
C98	C	-0.750908	0.718939	0.447102
C99	C	-0.742122	0.612772	0.769548
C100	C	-0.789037	0.612790	0.769557
C101	C	-0.814692	0.639339	0.688952
C102	C	-0.082652	0.665894	0.608350
C103	C	-0.032717	0.665935	0.608388
C104	C	-0.190796	0.674829	0.937398
C105	C	-0.186944	0.678678	1.077657
C106	C	-0.199850	0.782979	0.608351
C107	C	-0.199857	0.832915	0.608391
C108	C	-0.208803	0.656828	0.280401
C109	C	-0.212528	0.653067	0.140142
H110	H	-0.248018	0.413672	0.754368
H111	H	-0.237379	0.628197	1.086336
H112	H	-0.451984	0.617599	0.754505
H113	H	-0.162095	0.703552	1.131470
H114	H	-0.274594	0.059302	0.835036
C115	C	-0.825616	0.747862	0.359679
C116	C	-0.813385	0.793054	0.387290
C117	C	-0.838973	0.819698	0.306767
H118	H	-0.856612	0.744133	0.371153
H119	H	-0.820265	0.739013	0.274846
H120	H	-0.818739	0.801900	0.472102
H121	H	-0.782393	0.796797	0.375808
H122	H	-0.833623	0.810849	0.221934
H123	H	-0.869968	0.815965	0.318248
H124	H	-0.830675	0.850363	0.325482
H125	H	-0.274590	0.285164	0.834958
C126	C	-0.255240	0.505671	0.776314
C127	C	-0.278493	0.477014	0.846893
C128	C	-0.305073	0.502592	0.927609
H129	H	-0.276153	0.522633	0.728080
H130	H	-0.236580	0.525495	0.831447
H131	H	-0.297151	0.457198	0.791767
H132	H	-0.257591	0.460052	0.895152
H133	H	-0.286413	0.522415	0.982742
H134	H	-0.325983	0.519553	0.879365
H135	H	-0.320850	0.483152	0.975514
H136	H	-0.274591	0.200060	0.834994
C137	C	-0.117942	0.180667	0.359531
C138	C	-0.145566	0.151502	0.278489
C139	C	-0.119096	0.125829	0.197685
H140	H	-0.097052	0.163662	0.407710
H141	H	-0.102141	0.200043	0.311493
H142	H	-0.161360	0.132129	0.326522
H143	H	-0.166455	0.168496	0.230283
H144	H	-0.103295	0.145205	0.149647
H145	H	-0.098208	0.108826	0.245874
H146	H	-0.137836	0.106040	0.142681
H147	H	-0.677961	0.740528	0.381431
C148	C	-0.255271	-0.066719	0.776524
C149	C	-0.278526	-0.095378	0.847090
C150	C	-0.305105	-0.069803	0.927815
H151	H	-0.276183	-0.049753	0.728296
H152	H	-0.236611	-0.046898	0.831663
H153	H	-0.297185	-0.115191	0.791958
H154	H	-0.257626	-0.112344	0.895343
H155	H	-0.286444	-0.049982	0.982954
H156	H	-0.326014	-0.052838	0.879577
H157	H	-0.320883	-0.089244	0.975712
C158	C	-0.144518	-0.075792	0.440268
C159	C	-0.172131	-0.051096	0.359266
C160	C	-0.145645	-0.029787	0.278600
H161	H	-0.128697	-0.097753	0.392182
H162	H	-0.123645	-0.056121	0.488588
H163	H	-0.192996	-0.070766	0.310950
H164	H	-0.187952	-0.029128	0.407316
H165	H	-0.124772	-0.010116	0.326921
H166	H	-0.129825	-0.051751	0.230524
H167	H	-0.164375	-0.013025	0.223639
H168	H	-1.032350	0.714091	0.462135
H169	H	-0.248050	-0.158732	0.754540
H170	H	-1.024368	0.617775	0.754638
C171	C	-0.144406	-0.173613	0.440323
C172	C	-0.121134	-0.144952	0.369802
C173	C	-0.094511	-0.170525	0.289192
H174	H	-0.163025	-0.193449	0.385141
H175	H	-0.123507	-0.190562	0.488670
H176	H	-0.142031	-0.128011	0.321459
H177	H	-0.102506	-0.125117	0.424951
H178	H	-0.073612	-0.187473	0.337539
H179	H	-0.113134	-0.190359	0.234018
H180	H	-0.078715	-0.151082	0.241342
H181	H	-0.939260	0.617754	0.754634
H182	H	-0.125056	0.272761	0.381591
C183	C	-0.812031	0.583965	0.857242
C184	C	-0.779515	0.560723	0.927848
C185	C	-0.800678	0.534175	1.008654
H186	H	-0.831686	0.563047	0.809071
H187	H	-0.828784	0.602645	0.912353
H188	H	-0.762770	0.542045	0.872744
H189	H	-0.759859	0.581631	0.976044
H190	H	-0.817432	0.552854	1.063765
H191	H	-0.820332	0.513259	0.960473
H192	H	-0.778620	0.518405	1.056578
H193	H	-0.151628	0.405659	0.462047
H194	H	-0.592855	0.740498	0.381402
H195	H	-0.151628	0.490781	0.462017
H196	H	-0.274594	0.144419	0.835015
C197	C	-0.117847	0.039873	0.359976
C198	C	-0.087134	0.014917	0.431567
C199	C	-0.060542	-0.010811	0.351223
H200	H	-0.101985	0.059196	0.311958
H201	H	-0.136508	0.020018	0.304940
H202	H	-0.068476	0.034769	0.486580
H203	H	-0.102984	-0.004415	0.479582
H204	H	-0.079202	-0.030665	0.296187
H205	H	-0.044683	0.008516	0.303209
H206	H	-0.039702	-0.027749	0.399785
C207	C	-0.369147	0.721130	0.440017
C208	C	-0.401659	0.744393	0.369460
C209	C	-0.380490	0.770987	0.288776
H210	H	-0.352381	0.702493	0.384861
H211	H	-0.349502	0.742035	0.488313
H212	H	-0.421296	0.723491	0.321167
H213	H	-0.418426	0.763039	0.424582
H214	H	-0.360846	0.791891	0.337072
H215	H	-0.363725	0.752346	0.233628
H216	H	-0.402546	0.786777	0.240901
C217	C	-0.466925	0.721191	0.440315
C218	C	-0.491845	0.751949	0.511862
C219	C	-0.517507	0.778583	0.431481
H220	H	-0.486803	0.702577	0.385245
H221	H	-0.447548	0.737015	0.392336
H222	H	-0.511221	0.736127	0.559820
H223	H	-0.471978	0.770572	0.566928
H224	H	-0.498130	0.794407	0.383503
H225	H	-0.537383	0.759966	0.376416
H226	H	-0.534415	0.799459	0.480015
H227	H	-0.125077	0.132004	0.381617
H228	H	-0.665588	0.591133	0.835195
C229	C	-0.573593	0.583861	0.857111
C230	C	-0.602258	0.560622	0.927697
C231	C	-0.576691	0.534018	1.008378
H232	H	-0.553751	0.602489	0.912250
H233	H	-0.556650	0.562943	0.808813
H234	H	-0.619193	0.581538	0.975992
H235	H	-0.622099	0.541985	0.872592
H236	H	-0.559749	0.513099	0.960079
H237	H	-0.556851	0.552649	1.063508
H238	H	-0.596137	0.518243	1.056272
C239	C	-0.941538	0.721316	0.440168
C240	C	-0.974052	0.744574	0.369605
C241	C	-0.952886	0.771169	0.288920
H242	H	-0.924770	0.702680	0.385017
H243	H	-0.921896	0.742224	0.488464
H244	H	-0.993686	0.723670	0.321313
H245	H	-0.990823	0.763219	0.424723
H246	H	-0.933244	0.792077	0.337216
H247	H	-0.936118	0.752530	0.233776
H248	H	-0.974943	0.786956	0.241041
H249	H	-0.366863	0.617569	0.754462
H250	H	-0.733601	0.740546	0.381447
H251	H	-0.721237	0.591153	0.835188
