data_functionalizedCrystal
_audit_creation_method	'MofGen! by Chris Wilmer'
_symmetry_space_group_name_H-M	'P1'
_symmetry_Int_Tables_number	1
_symmetry_cell_setting	triclinic
loop_
_symmetry_equiv_pos_as_xyz
  x,y,z
_cell_length_a	19.121241
_cell_length_b	19.120786
_cell_length_c	17.640968
_cell_angle_alpha	76.872907
_cell_angle_beta	76.877407
_cell_angle_gamma	94.790376
loop_
_atom_site_label
_atom_site_type_symbol
_atom_site_fract_x
_atom_site_fract_y
_atom_site_fract_z
Zn1	Zn	1.156819	-0.141300	-0.495798
Zn2	Zn	1.656819	0.358700	0.004202
Zn3	Zn	1.125314	-0.285371	-0.355172
Zn4	Zn	1.625314	0.214629	0.144828
Zn5	Zn	1.012757	-0.172721	-0.355188
Zn6	Zn	1.512757	0.327279	0.144812
Zn7	Zn	1.031835	-0.266210	-0.483739
Zn8	Zn	1.531835	0.233790	0.016261
O9	O	1.081681	-0.216400	-0.422474
O10	O	1.581681	0.283600	0.077526
O11	O	1.252051	-0.155281	-0.482184
O12	O	1.752051	0.344719	0.017816
O13	O	1.089214	-0.291597	-0.242522
O14	O	1.589214	0.208403	0.257478
O15	O	1.037068	-0.069133	-0.378893
O16	O	1.537068	0.430867	0.121107
O17	O	1.228905	-0.261129	-0.378867
O18	O	1.728905	0.238871	0.121133
O19	O	1.142909	-0.046048	-0.482199
O20	O	1.642909	0.453952	0.017801
O21	O	1.006519	-0.208833	-0.242534
O22	O	1.506519	0.291167	0.257466
O23	O	0.915876	-0.190253	-0.367200
O24	O	1.415876	0.309747	0.132800
O25	O	1.069584	-0.228471	-0.597991
O26	O	1.569584	0.271529	-0.097991
O27	O	0.929893	-0.258939	-0.461647
O28	O	1.429893	0.241061	0.038353
O29	O	1.161409	-0.136701	-0.606851
O30	O	1.661409	0.363299	-0.106851
O31	O	1.107714	-0.382249	-0.367174
O32	O	1.607714	0.117751	0.132826
O33	O	1.039035	-0.368171	-0.461631
O34	O	1.539035	0.131829	0.038369
C35	C	0.897108	-0.225926	-0.413117
C36	C	1.397108	0.274074	0.086883
C37	C	0.818150	-0.230015	-0.409132
C38	C	1.318150	0.269985	0.090868
C39	C	0.793118	-0.176884	-0.461127
C40	C	1.293118	0.323116	0.038873
C41	C	0.718927	-0.180724	-0.457376
C42	C	1.218927	0.319276	0.042624
C43	C	0.669770	-0.237698	-0.401633
C44	C	1.169770	0.262302	0.098367
C45	C	0.694806	-0.290832	-0.349633
C46	C	1.194806	0.209168	0.150367
C47	C	0.768995	-0.286989	-0.353381
C48	C	1.268995	0.213011	0.146619
C49	C	0.445162	-0.252054	-0.387619
C50	C	0.945162	0.247946	0.112381
C51	C	0.370969	-0.255894	-0.383877
C52	C	0.870969	0.244106	0.116123
C53	C	0.395095	-0.145784	-0.491619
C54	C	0.895095	0.354216	0.008381
C55	C	0.469285	-0.141948	-0.495365
C56	C	0.969285	0.358052	0.004635
C57	C	0.494314	-0.195080	-0.443362
C58	C	0.994314	0.304920	0.056638
C59	C	0.593934	-0.241626	-0.397800
C60	C	1.093934	0.258374	0.102200
C61	C	0.570147	-0.191149	-0.447193
C62	C	1.070147	0.308851	0.052807
C63	C	1.072049	-0.400984	-0.413111
C64	C	1.572049	0.099016	0.086889
C65	C	1.067998	-0.479942	-0.409135
C66	C	1.567998	0.020058	0.090865
C67	C	1.121174	-0.504950	-0.461094
C68	C	1.621174	-0.004950	0.038906
C69	C	1.117365	-0.579139	-0.457359
C70	C	1.617365	-0.079139	0.042641
C71	C	1.060382	-0.628318	-0.401662
C72	C	1.560382	-0.128318	0.098338
C73	C	1.007200	-0.603305	-0.349702
C74	C	1.507200	-0.103305	0.150298
C75	C	1.011007	-0.529117	-0.353441
C76	C	1.511007	-0.029117	0.146559
C77	C	1.046130	-0.852922	-0.387685
C78	C	1.546130	-0.352922	0.112315
C79	C	1.042328	-0.927115	-0.383948
C80	C	1.542328	-0.427115	0.116052
C81	C	1.152494	-0.902944	-0.491607
C82	C	1.652494	-0.402944	0.008393
C83	C	1.156298	-0.828756	-0.495338
C84	C	1.656298	-0.328756	0.004662
C85	C	1.103114	-0.803749	-0.443380
C86	C	1.603114	-0.303749	0.056620
C87	C	1.056488	-0.704152	-0.397842
C88	C	1.556488	-0.204152	0.102158
C89	C	1.107005	-0.727916	-0.447205
C90	C	1.607005	-0.227916	0.052795
C91	C	1.266975	-0.206838	-0.431869
C92	C	1.766975	0.293162	0.068131
C93	C	1.345937	-0.202763	-0.435872
C94	C	1.845937	0.297237	0.064128
C95	C	1.121139	-0.176944	-0.632447
C96	C	1.621139	0.323056	-0.132447
C97	C	1.137953	-0.160130	-0.721925
C98	C	1.637953	0.339870	-0.221925
C99	C	1.091375	-0.031092	-0.431893
C100	C	1.591375	0.468908	0.068107
C101	C	1.095505	0.047876	-0.435907
C102	C	1.595505	0.547876	0.064093
C103	C	0.954238	-0.343735	-0.993143
C104	C	1.454238	0.156265	-0.493143
C105	C	0.970053	-0.327926	-1.077222
C106	C	1.470053	0.172074	-0.577222
C107	C	1.065662	-0.232373	-1.086437
C108	C	1.565662	0.267627	-0.586437
C109	C	1.049853	-0.248172	-1.002356
C110	C	1.549853	0.251828	-0.502356
C111	C	0.994141	-0.303854	-0.955716
C112	C	1.494141	0.196146	-0.455716
C113	C	1.089755	-0.208291	-0.964930
C114	C	1.589755	0.291709	-0.464930
C115	C	1.073950	-0.224092	-0.880857
C116	C	1.573950	0.275908	-0.380857
C117	C	1.018241	-0.279773	-0.834211
C118	C	1.518241	0.220227	-0.334211
C119	C	0.978335	-0.319655	-0.871643
C120	C	1.478335	0.180345	-0.371643
C121	C	1.145471	-0.152613	-1.011571
C122	C	1.645471	0.347387	-0.511571
C123	C	1.185373	-0.112732	-0.974144
C124	C	1.685373	0.387268	-0.474144
C125	C	1.169564	-0.128529	-0.890070
C126	C	1.669564	0.371471	-0.390070
C127	C	1.113856	-0.184210	-0.843424
C128	C	1.613856	0.315790	-0.343424
C129	C	1.209471	-0.088647	-0.852638
C130	C	1.709471	0.411353	-0.352638
C131	C	1.193665	-0.104447	-0.768565
C132	C	1.693665	0.395553	-0.268565
C133	C	1.098050	-0.200010	-0.759352
C134	C	1.598050	0.299990	-0.259352
C135	C	1.042421	-0.255650	-0.213323
C136	C	1.542421	0.244350	0.286677
C137	C	1.025755	-0.272257	-0.123863
C138	C	1.525755	0.227743	0.376137
H139	H	0.465531	-0.295318	-0.345275
H140	H	0.965531	0.204682	0.154725
H141	H	0.932952	-0.364980	-0.833666
H142	H	1.432952	0.135020	-0.333666
H143	H	1.167579	-0.464913	-0.506445
H144	H	1.667579	0.035087	-0.006445
H145	H	0.908855	-0.389061	-0.955166
H146	H	1.408855	0.110939	-0.455166
H147	H	0.960800	-0.643352	-0.304355
H148	H	1.460800	-0.143352	0.195645
H149	H	1.254836	-0.043315	-0.890625
H150	H	1.754836	0.456685	-0.390625
H151	H	0.937555	-0.360406	-1.107691
H152	H	1.437555	0.139594	-0.607691
H153	H	1.002826	-0.832568	-0.345377
H154	H	1.502826	-0.332568	0.154623
H155	H	0.654775	-0.337219	-0.304243
H156	H	1.154775	0.162781	0.195757
H157	H	0.967704	-0.508756	-0.311132
H158	H	1.467704	-0.008756	0.188868
H159	H	1.153399	-0.687872	-0.492556
H160	H	1.653399	-0.187872	0.007444
H161	H	1.230736	-0.067398	-1.012130
H162	H	1.730736	0.432602	-0.512130
H163	H	1.111025	-0.187039	-1.124422
H164	H	1.611025	0.312961	-0.624422
H165	H	0.833138	-0.130491	-0.506520
H166	H	1.333138	0.369509	-0.006520
H167	H	0.698550	-0.137459	-0.499717
H168	H	1.198550	0.362541	0.000283
H169	H	0.789374	-0.330254	-0.311041
H170	H	1.289374	0.169746	0.188959
H171	H	1.158339	-0.139752	-1.080029
H172	H	1.658339	0.360248	-0.580029
H173	H	1.202698	-0.788715	-0.540691
H174	H	1.702698	-0.288715	-0.040691
H175	H	1.010094	-0.744202	-0.352492
H176	H	1.510094	-0.244202	0.147508
H177	H	0.509305	-0.095556	-0.540760
H178	H	1.009305	0.404444	-0.040760
H179	H	0.374707	-0.102526	-0.533956
H180	H	0.874707	0.397474	-0.033956
H181	H	1.195793	-0.923313	-0.533909
H182	H	1.695793	-0.423313	-0.033909
H183	H	0.330945	-0.302293	-0.338484
H184	H	0.830945	0.197707	0.161516
H185	H	0.610174	-0.144759	-0.492575
H186	H	1.110174	0.355241	0.007425
H187	H	1.052668	-0.245336	-0.721374
H188	H	1.552668	0.254664	-0.221374
H189	H	0.553902	-0.288014	-0.352414
H190	H	1.053902	0.211986	0.147586
H191	H	1.160672	-0.599498	-0.499663
H192	H	1.660672	-0.099498	0.000337
H193	H	1.226157	-0.071971	-0.738091
H194	H	1.726157	0.428029	-0.238091
H195	H	1.005376	-0.292639	-0.765754
H196	H	1.505376	0.207361	-0.265754
H197	H	0.995922	-0.967157	-0.338593
H198	H	1.495922	-0.467157	0.161407
