data_functionalizedCrystal
_audit_creation_method	'MofGen! by Chris Wilmer'
_symmetry_space_group_name_H-M	'P1'
_symmetry_Int_Tables_number	1
_symmetry_cell_setting	triclinic
loop_
_symmetry_equiv_pos_as_xyz
  x,y,z
_cell_length_a	18.215407
_cell_length_b	16.625546
_cell_length_c	18.215407
_cell_angle_alpha	90.016192
_cell_angle_beta	90.002522
_cell_angle_gamma	90.019912
loop_
_atom_site_label
_atom_site_type_symbol
_atom_site_fract_x
_atom_site_fract_y
_atom_site_fract_z
Zn1	Zn	1.124976	-0.321168	0.416061
Zn2	Zn	1.624976	0.178832	0.916061
Zn3	Zn	1.124922	-0.455978	0.292992
Zn4	Zn	1.624922	0.044022	0.792992
Zn5	Zn	1.001941	-0.321157	0.293014
Zn6	Zn	1.501941	0.178843	0.793014
Zn7	Zn	1.001880	-0.455957	0.416022
Zn8	Zn	1.501880	0.044043	0.916022
O9	O	1.063430	-0.388565	0.354522
O10	O	1.563430	0.111435	0.854522
O11	O	1.227953	-0.339065	0.399743
O12	O	1.727953	0.160935	0.899743
O13	O	1.108611	-0.438098	0.190011
O14	O	1.608611	0.061902	0.690011
O15	O	1.018310	-0.208326	0.309361
O16	O	1.518310	0.291674	0.809361
O17	O	1.227913	-0.438109	0.309325
O18	O	1.727913	0.061891	0.809325
O19	O	1.108704	-0.208334	0.399764
O20	O	1.608704	0.291666	0.899764
O21	O	1.018257	-0.339046	0.190027
O22	O	1.518257	0.160954	0.690027
O23	O	0.898949	-0.339025	0.309324
O24	O	1.398949	0.160975	0.809324
O25	O	1.018206	-0.438072	0.519012
O26	O	1.518206	0.061928	1.019012
O27	O	0.898904	-0.438061	0.399698
O28	O	1.398904	0.061939	0.899698
O29	O	1.108645	-0.339044	0.519040
O30	O	1.608645	0.160956	1.019040
O31	O	1.108552	-0.568808	0.309287
O32	O	1.608552	-0.068808	0.809287
O33	O	1.018154	-0.568792	0.399677
O34	O	1.518154	-0.068792	0.899677
C35	C	0.872224	-0.388540	0.354509
C36	C	1.372224	0.111460	0.854509
C37	C	0.790425	-0.388549	0.354521
C38	C	1.290425	0.111451	0.854521
C39	C	0.602251	-0.337083	0.401676
C40	C	1.102251	0.162917	0.901676
C41	C	0.525392	-0.337090	0.401679
C42	C	1.025392	0.162910	0.901679
C43	C	0.525361	-0.440070	0.307381
C44	C	1.025361	0.059930	0.807381
C45	C	0.602218	-0.440058	0.307375
C46	C	1.102218	0.059942	0.807375
C47	C	0.640661	-0.388566	0.354527
C48	C	1.140661	0.111434	0.854527
C49	C	0.486945	-0.388584	0.354535
C50	C	0.986945	0.111416	0.854535
C51	C	0.403611	-0.388592	0.354538
C52	C	0.903611	0.111408	0.854538
C53	C	0.724000	-0.388557	0.354524
C54	C	1.224000	0.111443	0.854524
C55	C	1.063360	-0.598056	0.354491
C56	C	1.563360	-0.098056	0.854491
C57	C	1.063398	-0.687677	0.354503
C58	C	1.563398	-0.187677	0.854503
C59	C	1.063526	-1.015852	0.354579
C60	C	1.563526	-0.515852	0.854579
C61	C	1.063488	-0.924544	0.354560
C62	C	1.563488	-0.424544	0.854560
C63	C	1.063461	-0.851768	0.354541
C64	C	1.563461	-0.351768	0.854541
C65	C	1.063424	-0.760453	0.354522
C66	C	1.563424	-0.260453	0.854522
C67	C	1.255383	-0.388590	0.354536
C68	C	1.755383	0.111410	0.854536
C69	C	1.337182	-0.388601	0.354541
C70	C	1.837182	0.111399	0.854541
C71	C	1.063425	-0.388557	0.546475
C72	C	1.563425	0.111443	1.046475
C73	C	1.063423	-0.388554	0.628274
C74	C	1.563423	0.111446	1.128274
C75	C	1.063520	-0.178256	0.354569
C76	C	1.563520	0.321744	0.854569
C77	C	1.063558	-0.088635	0.354589
C78	C	1.563558	0.411365	0.854589
C79	C	1.016377	-0.336998	0.816477
C80	C	1.516377	0.163002	1.316477
C81	C	1.016373	-0.337004	0.893336
C82	C	1.516373	0.162996	1.393336
C83	C	1.110463	-0.440147	0.893309
C84	C	1.610463	0.059853	1.393309
C85	C	1.110462	-0.440144	0.816451
C86	C	1.610462	0.059856	1.316451
C87	C	1.063420	-0.388565	0.778037
C88	C	1.563420	0.111435	1.278037
C89	C	1.063418	-0.388574	0.931754
C90	C	1.563418	0.111426	1.431754
C91	C	1.063415	-0.388581	1.015087
C92	C	1.563415	0.111419	1.515087
C93	C	1.063422	-0.388558	0.694699
C94	C	1.563422	0.111442	1.194699
C95	C	1.063425	-0.388589	1.163316
C96	C	1.563425	0.111411	1.663316
C97	C	1.063415	-0.388585	1.081517
C98	C	1.563415	0.111415	1.581517
H99	H	0.978072	-0.294999	0.785203
H100	H	1.478072	0.205001	1.285203
O101	O	0.639675	-0.287021	0.447371
O102	O	1.139675	0.212979	0.947371
C103	C	0.726434	-0.178128	0.457439
C104	C	1.226434	0.321872	0.957439
C105	C	0.684114	-0.234788	0.405607
C106	C	1.184114	0.265212	0.905607
H107	H	0.762361	-0.135872	0.423693
H108	H	1.262361	0.364128	0.923693
H109	H	0.762463	-0.215157	0.495849
H110	H	1.262463	0.284843	0.995849
H111	H	0.685760	-0.141370	0.491152
H112	H	1.185760	0.358630	0.991152
H113	H	0.724735	-0.271558	0.371846
H114	H	1.224735	0.228442	0.871846
H115	H	0.648074	-0.197713	0.367246
H116	H	1.148074	0.302287	0.867246
H117	H	0.978065	-0.295014	0.924630
H118	H	1.478065	0.204986	1.424630
O119	O	0.487983	-0.490177	0.261691
O120	O	0.987983	0.009823	0.761691
C121	C	0.401154	-0.599004	0.251625
C122	C	0.901154	-0.099004	0.751625
C123	C	0.443450	-0.542317	0.303452
C124	C	0.943450	-0.042317	0.803452
H125	H	0.365127	-0.641162	0.285368
H126	H	0.865127	-0.141162	0.785368
H127	H	0.441777	-0.635858	0.217936
H128	H	0.941777	-0.135858	0.717936
H129	H	0.365204	-0.561913	0.213193
H130	H	0.865204	-0.061913	0.713193
H131	H	0.479400	-0.579346	0.341929
H132	H	0.979400	-0.079346	0.841929
H133	H	0.402787	-0.505461	0.337089
H134	H	0.902787	-0.005461	0.837089
O135	O	0.488194	-0.287056	0.447551
O136	O	0.988194	0.212944	0.947551
C137	C	0.496340	-0.184882	0.541052
C138	C	0.996340	0.315118	1.041052
C139	C	0.538558	-0.241521	0.489151
C140	C	1.038558	0.258479	0.989151
H141	H	0.537041	-0.148040	0.574689
H142	H	1.037041	0.351960	1.074689
H143	H	0.460373	-0.221929	0.579524
H144	H	0.960373	0.278071	1.079524
H145	H	0.460344	-0.142703	0.507324
H146	H	0.960344	0.357297	1.007324
H147	H	0.574594	-0.283711	0.522820
H148	H	1.074594	0.216289	1.022820
H149	H	0.574478	-0.204424	0.450677
H150	H	1.074478	0.295576	0.950677
H151	H	0.633493	-0.481982	0.268977
H152	H	1.133493	0.018018	0.768977
H153	H	1.148764	-0.482140	0.924594
H154	H	1.648764	0.017860	1.424594
O155	O	1.156233	-0.490265	0.779220
O156	O	1.656233	0.009735	1.279220
C157	C	1.249524	-0.592605	0.787297
C158	C	1.749524	-0.092605	1.287297
C159	C	1.197746	-0.535872	0.829553
C160	C	1.697746	-0.035872	1.329553
H161	H	1.283090	-0.629506	0.827973
H162	H	1.783090	-0.129506	1.327973
H163	H	1.288067	-0.555628	0.751345
H164	H	1.788067	-0.055628	1.251345
H165	H	1.215704	-0.634725	0.751282
H166	H	1.715704	-0.134725	1.251282
H167	H	1.231507	-0.493742	0.865607
H168	H	1.731507	0.006258	1.365607
H169	H	1.159201	-0.572899	0.865459
H170	H	1.659201	-0.072899	1.365459
