data_functionalizedCrystal
_audit_creation_method	'MofGen! by Chris Wilmer'
_symmetry_space_group_name_H-M	'P1'
_symmetry_Int_Tables_number	1
_symmetry_cell_setting	triclinic
loop_
_symmetry_equiv_pos_as_xyz
  x,y,z
_cell_length_a	16.120297
_cell_length_b	12.759401
_cell_length_c	12.759400
_cell_angle_alpha	89.995550
_cell_angle_beta	92.882165
_cell_angle_gamma	87.120011
loop_
_atom_site_label
_atom_site_type_symbol
_atom_site_fract_x
_atom_site_fract_y
_atom_site_fract_z
Zn1	Zn	-0.471402	-1.576209	-0.448374
Zn2	Zn	0.028598	-1.076209	0.051626
Zn3	Zn	-0.332012	-1.585049	-0.615159
Zn4	Zn	0.167988	-1.085049	-0.115159
Zn5	Zn	-0.332008	-1.409421	-0.439499
Zn6	Zn	0.167992	-0.909421	0.060501
Zn7	Zn	-0.471383	-1.400537	-0.624015
Zn8	Zn	0.028617	-0.900537	-0.124015
O9	O	-0.401701	-1.492804	-0.531762
O10	O	0.098299	-0.992804	-0.031762
O11	O	-0.452920	-1.724402	-0.470506
O12	O	0.047080	-1.224402	0.029494
O13	O	-0.215347	-1.569170	-0.584437
O14	O	0.284653	-1.069170	-0.084437
O15	O	-0.350506	-1.431564	-0.293656
O16	O	0.149494	-0.931564	0.206344
O17	O	-0.350511	-1.730897	-0.593042
O18	O	0.149489	-1.230897	-0.093042
O19	O	-0.452917	-1.554102	-0.300176
O20	O	0.047083	-1.054102	0.199824
O21	O	-0.215345	-1.440136	-0.455381
O22	O	0.284655	-0.940136	0.044619
O23	O	-0.350488	-1.261222	-0.463968
O24	O	0.149512	-0.761222	0.036032
O25	O	-0.588049	-1.416422	-0.608136
O26	O	-0.088049	-0.916422	-0.108136
O27	O	-0.452885	-1.254695	-0.599530
O28	O	0.047115	-0.754695	-0.099530
O29	O	-0.588063	-1.545488	-0.479093
O30	O	-0.088063	-1.045488	0.020907
O31	O	-0.350493	-1.560555	-0.763354
O32	O	0.149507	-1.060555	-0.263354
O33	O	-0.452888	-1.424994	-0.769860
O34	O	0.047112	-0.924994	-0.269860
C35	C	-0.401685	-1.219838	-0.531748
C36	C	0.098315	-0.719838	-0.031748
C37	C	-0.401697	-1.103060	-0.531768
C38	C	0.098303	-0.603060	-0.031768
C39	C	-0.619152	-1.478978	-0.545592
C40	C	-0.119152	-0.978978	-0.045592
C41	C	-0.711816	-1.473086	-0.551486
C42	C	-0.211816	-0.973086	-0.051486
C43	C	-0.401707	-1.492797	-0.804729
C44	C	0.098293	-0.992797	-0.304729
C45	C	-0.401738	-1.492889	-0.921508
C46	C	0.098262	-0.992889	-0.421508
C47	C	-0.881475	-1.462290	-0.562223
C48	C	-0.381475	-0.962290	-0.062223
C49	C	-0.922779	-1.523525	-0.500986
C50	C	-0.422779	-1.023525	-0.000986
C51	C	-1.017183	-1.517518	-0.506960
C52	C	-0.517183	-1.017518	-0.006960
C53	C	-0.787063	-1.468296	-0.556250
C54	C	-0.287063	-0.968296	-0.056250
C55	C	-0.185097	-1.506637	-0.517909
C56	C	0.314903	-1.006637	-0.017909
C57	C	-0.092433	-1.512732	-0.511720
C58	C	0.407567	-1.012732	-0.011720
C59	C	-0.401718	-1.766836	-0.531776
C60	C	0.098282	-1.266836	-0.031776
C61	C	-0.401726	-1.883612	-0.531783
C62	C	0.098274	-1.383612	-0.031783
C63	C	-0.454932	-1.044833	-0.602453
C64	C	0.045068	-0.544833	-0.102453
C65	C	-0.454948	-0.935107	-0.602458
C66	C	0.045052	-0.435107	-0.102458
C67	C	-0.348489	-0.941848	-0.461091
C68	C	0.151511	-0.441848	0.038909
C69	C	-0.348477	-1.051571	-0.461081
C70	C	0.151523	-0.551571	0.038919
C71	C	-0.401713	-1.492838	-0.257729
C72	C	0.098287	-0.992838	0.242271
C73	C	-0.401719	-1.492853	-0.140953
C74	C	0.098281	-0.992853	0.359047
C75	C	-0.348414	-1.429081	0.027036
C76	C	0.151586	-0.929081	0.527036
C77	C	-0.348402	-1.429065	-0.082688
C78	C	0.151598	-0.929065	0.417312
C79	C	-0.455045	-1.556668	-0.089489
C80	C	0.044955	-1.056668	0.410511
C81	C	-0.455052	-1.556688	0.020233
C82	C	0.044948	-1.056688	0.520233
H83	H	-0.917012	-1.405361	-0.619132
H84	H	-0.417012	-0.905361	-0.119132
C85	C	-0.289749	-1.358871	-0.139286
C86	C	0.210251	-0.858871	0.360714
H87	H	-0.258005	-1.320875	-0.088871
H88	H	0.241995	-0.820875	0.411129
H89	H	-0.253421	-1.401358	-0.179781
H90	H	0.246579	-0.901358	0.320219
H91	H	-0.321641	-1.311057	-0.184112
H92	H	0.178359	-0.811057	0.315888
C93	C	-0.874779	-1.600448	-0.424105
C94	C	-0.374779	-1.100448	0.075895
H95	H	-0.913110	-1.638075	-0.386466
H96	H	-0.413110	-1.138075	0.113534
H97	H	-0.840821	-1.648334	-0.462196
H98	H	-0.340821	-1.148334	0.037804
H99	H	-0.840799	-1.562383	-0.376211
H100	H	-0.340799	-1.062383	0.123789
H101	H	-0.498270	-1.086752	-0.660008
H102	H	0.001730	-0.586752	-0.160008
H103	H	-0.498299	-0.887703	-0.660015
H104	H	0.001701	-0.387703	-0.160015
H105	H	-0.498475	-1.608653	0.062131
H106	H	0.001525	-1.108653	0.562131
H107	H	-0.305157	-0.899912	-0.403542
H108	H	0.194843	-0.399912	0.096458
H109	H	-0.498453	-1.608610	-0.136937
H110	H	0.001547	-1.108610	0.363063
C111	C	-0.289915	-1.115626	-0.383326
C112	C	0.210085	-0.615626	0.116674
H113	H	-0.258212	-1.069248	-0.341239
H114	H	0.241788	-0.569248	0.158761
H115	H	-0.321862	-1.156406	-0.339644
H116	H	0.178138	-0.656406	0.160356
H117	H	-0.253531	-1.160731	-0.421134
H118	H	0.246469	-0.660731	0.078866
C119	C	-0.289764	-1.358913	0.091118
C120	C	0.210236	-0.858913	0.591118
H121	H	-0.258000	-1.320917	0.044754
H122	H	0.242000	-0.820917	0.544754
H123	H	-0.321652	-1.311115	0.131897
H124	H	0.178348	-0.811115	0.631897
H125	H	-0.253442	-1.401429	0.136225
H126	H	0.246558	-0.901429	0.636225
