data_functionalizedCrystal
_audit_creation_method	'MofGen! by Chris Wilmer'
_symmetry_space_group_name_H-M	'P1'
_symmetry_Int_Tables_number	1
_symmetry_cell_setting	triclinic
loop_
_symmetry_equiv_pos_as_xyz
  x,y,z
_cell_length_a	18.050591
_cell_length_b	19.121073
_cell_length_c	19.121605
_cell_angle_alpha	90.073009
_cell_angle_beta	87.549226
_cell_angle_gamma	92.469207
loop_
_atom_site_label
_atom_site_type_symbol
_atom_site_fract_x
_atom_site_fract_y
_atom_site_fract_z
Zn1	Zn	1.141878	-0.262235	-0.408204
Zn2	Zn	1.131207	-0.384477	-0.295956
Zn3	Zn	1.012181	-0.267253	-0.290989
Zn4	Zn	1.012580	-0.379436	-0.413162
O5	O	1.074462	-0.323350	-0.352078
O6	O	1.244387	-0.278460	-0.393317
O7	O	1.110785	-0.373136	-0.197191
O8	O	1.033685	-0.168480	-0.302384
O9	O	1.236547	-0.368270	-0.310850
O10	O	1.128973	-0.164793	-0.388501
O11	O	1.023338	-0.287013	-0.193542
O12	O	0.908310	-0.282125	-0.307192
O13	O	1.034364	-0.359679	-0.510610
O14	O	0.908603	-0.364545	-0.396951
O15	O	1.129359	-0.273572	-0.506967
O16	O	1.111171	-0.481915	-0.315657
O17	O	1.024017	-0.478212	-0.401768
C18	C	0.881510	-0.323333	-0.352071
C19	C	0.798964	-0.323342	-0.352086
C20	C	0.550312	-0.368262	-0.400837
C21	C	0.595934	-0.388056	-0.337572
C22	C	0.501843	-0.323364	-0.352085
C23	C	0.603302	-0.303593	-0.415348
C24	C	0.647829	-0.323355	-0.352089
C25	C	0.546374	-0.343193	-0.288788
C26	C	0.553741	-0.258698	-0.366605
C27	C	0.599340	-0.278470	-0.303295
C28	C	0.417744	-0.323371	-0.352084
C29	C	0.731925	-0.323348	-0.352083
C30	C	1.066500	-0.505501	-0.359805
C31	C	1.063163	-0.583425	-0.363134
C32	C	1.042040	-1.024049	-0.384266
C33	C	1.045175	-0.950832	-0.381130
C34	C	1.092156	-0.916129	-0.334761
C35	C	1.136011	-0.954647	-0.291530
C36	C	1.132880	-1.027863	-0.294670
C37	C	1.103887	-0.695159	-0.323043
C38	C	1.107013	-0.621938	-0.319905
C39	C	1.016178	-0.618128	-0.409506
C40	C	1.013047	-0.691345	-0.412638
C41	C	1.056905	-0.729857	-0.369410
C42	C	1.095360	-0.841289	-0.331553
C43	C	1.053704	-0.804695	-0.372622
C44	C	1.268167	-0.323368	-0.352085
C45	C	1.350712	-0.323375	-0.352087
C46	C	1.083096	-0.315504	-0.534937
C47	C	1.086776	-0.312160	-0.612861
C48	C	1.082475	-0.140487	-0.344336
C49	C	1.085890	-0.062562	-0.341037
C50	C	1.110105	-0.291004	-1.053488
C51	C	1.106643	-0.294149	-0.980270
C52	C	1.055450	-0.340548	-0.945561
C53	C	1.007721	-0.383811	-0.984074
C54	C	1.011187	-0.380669	-1.057290
C55	C	1.042513	-0.352281	-0.724590
C56	C	1.039049	-0.355418	-0.651368
C57	C	1.137973	-0.265756	-0.647570
C58	C	1.141431	-0.262616	-0.720788
C59	C	1.093705	-0.305881	-0.759294
C60	C	1.051908	-0.343763	-0.870721
C61	C	1.097251	-0.302670	-0.834133
C62	C	1.065905	-0.331115	-0.169927
C63	C	1.062378	-0.334262	-0.091995
H64	H	0.521582	-0.359978	-0.235277
H65	H	0.628182	-0.286874	-0.468847
H66	H	1.168589	-1.059219	-0.259470
C67	C	1.002026	-0.842867	-0.423627
C68	C	0.940159	-0.894574	-0.395358
C69	C	0.888478	-0.932753	-0.446360
C70	C	0.898664	-0.919225	-0.525631
C71	C	0.960533	-0.867515	-0.553904
C72	C	1.012214	-0.829336	-0.502902
H73	H	0.932616	-0.904590	-0.336673
H74	H	0.842678	-0.971031	-0.425431
H75	H	0.860406	-0.947487	-0.563386
H76	H	0.968076	-0.857499	-0.612589
H77	H	1.058014	-0.791058	-0.523831
C78	C	0.989980	-0.399852	-0.766925
C79	C	0.992026	-0.479987	-0.760226
C80	C	0.939475	-0.527552	-0.802557
C81	C	0.884879	-0.494982	-0.851587
C82	C	0.882831	-0.414843	-0.858288
C83	C	0.935382	-0.367278	-0.815957
H84	H	1.032443	-0.504100	-0.723929
H85	H	0.940991	-0.586876	-0.797596
H86	H	0.845978	-0.530192	-0.882923
H87	H	0.842414	-0.390729	-0.894585
H88	H	0.933866	-0.307953	-0.820918
C89	C	0.982748	-0.406487	-0.613201
C90	C	1.010158	-0.463690	-0.565207
C91	C	0.953866	-0.514765	-0.527046
C92	C	0.870164	-0.508636	-0.536878
C93	C	0.842750	-0.451430	-0.584874
C94	C	0.899043	-0.400355	-0.623035
H95	H	1.072122	-0.468229	-0.557927
H96	H	0.974159	-0.557113	-0.491516
H97	H	0.828493	-0.546445	-0.508629
H98	H	0.780786	-0.446891	-0.592154
H99	H	0.878749	-0.358008	-0.658565
H100	H	1.009469	-0.919475	-0.416331
C101	C	0.958690	-0.428255	-1.099655
C102	C	0.960783	-0.508387	-1.092959
C103	C	0.908290	-0.555978	-1.135324
C104	C	0.853704	-0.523437	-1.184384
C105	C	0.851609	-0.443301	-1.191081
C106	C	0.904102	-0.395710	-1.148716
H107	H	1.001193	-0.532479	-1.056641
H108	H	0.909842	-0.615300	-1.130366
H109	H	0.814846	-0.558667	-1.215745
H110	H	0.811199	-0.419208	-1.227400
H111	H	0.902551	-0.336387	-1.153674
H112	H	1.139596	-0.726507	-0.287841
H113	H	1.151788	-0.253215	-1.081742
C114	C	1.147036	-0.803111	-0.280547
C115	C	1.114446	-0.755189	-0.223334
C116	C	1.166124	-0.717007	-0.172331
C117	C	1.250392	-0.726746	-0.178542
C118	C	1.282987	-0.774669	-0.235758
C119	C	1.231308	-0.812852	-0.286761
H120	H	1.052062	-0.747978	-0.218734
H121	H	1.141996	-0.681531	-0.129976
H122	H	1.288648	-0.698481	-0.140787
H123	H	1.345371	-0.781880	-0.240358
H124	H	1.255437	-0.848328	-0.329116
H125	H	0.620734	-0.240499	-0.262023
C126	C	0.961361	-0.729511	-0.463644
C127	C	0.899484	-0.781208	-0.435376
C128	C	0.847790	-0.819371	-0.486377
C129	C	0.857974	-0.805838	-0.565647
C130	C	0.919853	-0.754139	-0.593920
C131	C	0.971546	-0.715976	-0.542918
H132	H	0.891943	-0.791228	-0.376691
H133	H	0.801983	-0.857643	-0.465448
H134	H	0.819707	-0.834089	-0.603402
H135	H	0.927393	-0.744119	-0.652604
H136	H	1.017353	-0.677704	-0.563848
H137	H	1.145510	-0.258925	-0.948921
H138	H	1.183121	-0.224835	-0.749043
H139	H	0.980471	-0.586765	-0.444701
H140	H	1.138934	-0.264893	-0.862396
C141	C	0.990360	-1.062219	-0.435274
C142	C	0.986910	-1.142754	-0.438731
C143	C	0.935231	-1.180921	-0.489743
C144	C	0.887002	-1.138554	-0.537298
C145	C	0.890449	-1.058015	-0.533842
C146	C	0.942128	-1.019847	-0.482830
H147	H	1.022614	-1.174120	-0.403527
H148	H	0.932679	-1.240541	-0.492301
H149	H	0.848746	-1.166807	-0.575060
H150	H	0.854745	-1.026648	-0.569047
H151	H	0.944680	-0.960227	-0.480273
H152	H	0.535073	-0.204029	-0.378910
H153	H	1.145273	-0.593687	-0.282143
H154	H	1.174268	-0.926388	-0.253778
H155	H	1.176829	-0.230533	-0.616210
H156	H	0.966041	-0.421594	-0.955808
H157	H	0.528775	-0.406267	-0.442015
H158	H	0.614585	-0.442740	-0.325287
H159	H	1.010225	-0.381540	-0.842453
