data_functionalizedCrystal
_audit_creation_method	'MofGen! by Chris Wilmer'
_symmetry_space_group_name_H-M	'P1'
_symmetry_Int_Tables_number	1
_symmetry_cell_setting	triclinic
loop_
_symmetry_equiv_pos_as_xyz
  x,y,z
_cell_length_a	16.109318
_cell_length_b	16.109301
_cell_length_c	14.048226
_cell_angle_alpha	89.992144
_cell_angle_beta	89.997121
_cell_angle_gamma	83.465022
loop_
_atom_site_label
_atom_site_type_symbol
_atom_site_fract_x
_atom_site_fract_y
_atom_site_fract_z
O1	O	1.103125	0.106938	-0.079084
O2	O	1.603125	0.606938	0.420916
O3	O	0.861065	0.120222	-0.079104
O4	O	1.361065	0.620222	0.420896
O5	O	0.988745	-0.007451	-0.079084
O6	O	1.488745	0.492549	0.420916
O7	O	0.975445	0.234610	-0.079105
O8	O	1.475445	0.734610	0.420895
O9	O	0.988729	-0.007458	0.079237
O10	O	1.488729	0.492542	0.579237
O11	O	0.861050	0.120214	0.079217
O12	O	1.361050	0.620214	0.579217
O13	O	1.103110	0.106930	0.079237
O14	O	1.603110	0.606930	0.579237
Zn15	Zn	0.982077	0.113571	0.104364
Zn16	Zn	1.482077	0.613571	0.604364
Zn17	Zn	0.982097	0.113581	-0.104231
Zn18	Zn	1.482097	0.613581	0.395769
O19	O	0.975430	0.234603	0.079217
O20	O	1.475430	0.734603	0.579217
C21	C	0.830083	0.119677	0.000054
C22	C	1.330083	0.619677	0.500054
C23	C	0.737788	0.118057	0.000047
C24	C	1.237788	0.618057	0.500047
C25	C	0.438723	0.112826	-0.086237
C26	C	0.938723	0.612826	0.413763
C27	C	0.525444	0.114343	-0.086243
C28	C	1.025444	0.614343	0.413757
C29	C	0.525446	0.114324	0.086368
C30	C	1.025446	0.614324	0.586368
C31	C	0.438727	0.112800	0.086373
C32	C	0.938727	0.612800	0.586373
C33	C	0.395367	0.112056	0.000068
C34	C	0.895367	0.612056	0.500068
C35	C	0.568807	0.115096	0.000057
C36	C	1.068807	0.615096	0.500057
C37	C	0.662835	0.116742	0.000051
C38	C	1.162835	0.616742	0.500051
C39	C	0.301334	0.110409	0.000073
C40	C	0.801334	0.610409	0.500073
C41	C	0.988198	-0.038430	0.000077
C42	C	1.488198	0.461570	0.500077
C43	C	0.986583	-0.130725	0.000078
C44	C	1.486583	0.369275	0.500078
C45	C	1.058590	-0.352993	0.000069
C46	C	1.558590	0.147007	0.500069
C47	C	1.057066	-0.439713	0.000061
C48	C	1.557066	0.060287	0.500061
C49	C	0.905579	-0.419848	0.000053
C50	C	1.405579	0.080152	0.500053
C51	C	0.907104	-0.333130	0.000054
C52	C	1.407104	0.166870	0.500054
C53	C	0.983612	-0.299704	0.000067
C54	C	1.483612	0.200296	0.500067
C55	C	0.980563	-0.473144	0.000058
C56	C	1.480563	0.026856	0.500058
C57	C	0.978910	-0.567170	0.000049
C58	C	1.478910	-0.067170	0.500049
C59	C	0.985265	-0.205672	0.000074
C60	C	1.485265	0.294328	0.500074
C61	C	1.134092	0.107474	0.000077
C62	C	1.634092	0.607474	0.500077
C63	C	1.226387	0.109095	0.000077
C64	C	1.726387	0.609095	0.500077
C65	C	0.975976	0.265581	0.000054
C66	C	1.475976	0.765581	0.500054
C67	C	0.977592	0.357877	0.000046
C68	C	1.477592	0.857877	0.500046
N69	N	0.982070	0.113564	0.246725
N70	N	1.482070	0.613564	0.746725
N71	N	0.982112	0.113582	-0.246592
N72	N	1.482112	0.613582	0.253408
C73	C	1.038624	0.057054	0.296552
C74	C	1.538624	0.557054	0.796552
C75	C	1.038629	0.057053	0.396209
C76	C	1.538629	0.557053	0.896209
C77	C	0.982084	0.113567	0.446038
C78	C	1.482084	0.613567	0.946038
C79	C	0.925524	0.170080	0.396204
C80	C	1.425524	0.670080	0.896204
C81	C	0.925515	0.170076	0.296548
C82	C	1.425515	0.670076	0.796548
C83	C	0.925548	0.170086	0.603918
C84	C	1.425548	0.670086	1.103918
C85	C	0.925558	0.170092	0.703581
C86	C	1.425558	0.670092	1.203581
C87	C	1.038662	0.057063	0.703579
C88	C	1.538662	0.557063	1.203579
C89	C	1.038653	0.057059	0.603923
C90	C	1.538653	0.557059	1.103923
C91	C	0.982094	0.113573	0.554096
C92	C	1.482094	0.613573	1.054096
H93	H	1.120888	-0.325781	0.000078
H94	H	1.620888	0.174219	0.500078
H95	H	1.118121	-0.483098	0.000061
H96	H	1.618121	0.016902	0.500061
H97	H	0.843288	-0.447074	0.000044
H98	H	1.343288	0.052926	0.500044
N99	N	0.864533	0.231029	0.449951
N100	N	1.364533	0.731029	0.949951
H101	H	0.896294	0.267857	0.491282
H102	H	1.396294	0.767857	0.991282
H103	H	0.828716	0.266771	0.403204
H104	H	1.328716	0.766771	0.903204
H105	H	0.846043	-0.289740	0.000049
H106	H	1.346043	0.210260	0.500049
H107	H	0.403422	0.112218	-0.156512
H108	H	0.903422	0.612218	0.343488
H109	H	0.560740	0.114969	-0.156521
H110	H	1.060740	0.614969	0.343479
H111	H	1.084673	0.011037	0.255987
H112	H	1.584673	0.511037	0.755987
H113	H	0.560760	0.114932	0.156634
H114	H	1.060760	0.614932	0.656634
N115	N	0.391959	0.111963	0.179463
N116	N	0.891959	0.611963	0.679463
H117	H	0.432657	0.112100	0.234134
H118	H	0.932657	0.612100	0.734134
H119	H	0.349612	0.163129	0.183507
H120	H	0.849612	0.663129	0.683507
H121	H	1.084680	0.011038	0.436778
H122	H	1.584680	0.511038	0.936778
H123	H	1.084701	0.011045	0.563353
H124	H	1.584701	0.511045	1.063353
H125	H	1.084715	0.011048	0.744154
H126	H	1.584715	0.511048	1.244154
N127	N	0.864579	0.231052	0.757329
N128	N	1.364579	0.731052	1.257329
H129	H	0.828746	0.266851	0.710644
H130	H	1.328746	0.766851	1.210644
H131	H	0.827844	0.199212	0.798699
H132	H	1.327844	0.699212	1.298699
N133	N	0.864550	0.231042	0.550171
N134	N	1.364550	0.731042	1.050171
H135	H	0.827746	0.199255	0.508838
H136	H	1.327746	0.699255	1.008838
H137	H	0.828788	0.266833	0.596915
H138	H	1.328788	0.766833	1.096915
H139	H	0.879462	0.216091	0.255980
H140	H	1.379462	0.716091	0.755980
