data_functionalizedCrystal
_audit_creation_method	'MofGen! by Chris Wilmer'
_symmetry_space_group_name_H-M	'P1'
_symmetry_Int_Tables_number	1
_symmetry_cell_setting	triclinic
loop_
_symmetry_equiv_pos_as_xyz
  x,y,z
_cell_length_a	12.594517
_cell_length_b	12.594516
_cell_length_c	12.594517
_cell_angle_alpha	90.001327
_cell_angle_beta	89.992224
_cell_angle_gamma	90.011939
loop_
_atom_site_label
_atom_site_type_symbol
_atom_site_fract_x
_atom_site_fract_y
_atom_site_fract_z
Zn1	Zn	1.627065	-0.424088	0.601595
Zn2	Zn	1.627015	-0.602021	0.423623
Zn3	Zn	1.449128	-0.424044	0.423654
Zn4	Zn	1.449051	-0.602012	0.601583
O5	O	1.538065	-0.513041	0.512614
O6	O	1.776004	-0.447713	0.577978
O7	O	1.603430	-0.578397	0.274681
O8	O	1.472785	-0.275104	0.447277
O9	O	1.775968	-0.578440	0.447223
O10	O	1.603514	-0.275137	0.578009
O11	O	1.472737	-0.447639	0.274704
O12	O	1.300172	-0.447630	0.447265
O13	O	1.472653	-0.578425	0.750531
O14	O	1.300115	-0.578382	0.577989
O15	O	1.603439	-0.447705	0.750539
O16	O	1.603355	-0.750966	0.447212
O17	O	1.472605	-0.750959	0.577958
C18	C	1.261524	-0.513001	0.512630
C19	C	1.143218	-0.513010	0.512662
C20	C	1.073965	-0.584265	0.583625
C21	C	1.003148	-0.487230	0.609800
C22	C	1.003237	-0.610124	0.486464
C23	C	1.073959	-0.415923	0.538888
C24	C	1.074054	-0.538883	0.415506
C25	C	1.003269	-0.441781	0.441644
C26	C	1.537995	-0.789582	0.512603
C27	C	1.538063	-0.907888	0.512635
C28	C	1.466941	-0.977176	0.583698
C29	C	1.441040	-1.047997	0.486579
C30	C	1.564060	-1.047866	0.609770
C31	C	1.512111	-0.977151	0.415464
C32	C	1.635176	-0.977013	0.538721
C33	C	1.609312	-1.047802	0.441535
C34	C	1.815686	-0.513083	0.512598
C35	C	1.933991	-0.513100	0.512592
C36	C	1.538043	-0.513069	0.790235
C37	C	1.538033	-0.513080	0.908540
C38	C	1.538164	-0.235421	0.512648
C39	C	1.538206	-0.117115	0.512662
C40	C	1.466898	-0.584169	0.977789
C41	C	1.563995	-0.610212	1.048563
C42	C	1.440942	-0.487064	1.048564
C43	C	1.635181	-0.539175	0.977756
C44	C	1.512063	-0.415981	0.977751
C45	C	1.609227	-0.441988	1.048494
C46	C	1.538064	-0.513047	1.236073
C47	C	1.538027	-0.513060	1.117767
H48	H	1.104895	-0.333809	0.561109
Cl49	Cl	0.955061	-0.453490	0.736604
Cl50	Cl	1.121897	-0.677124	0.676391
Cl51	Cl	0.955639	-0.348704	0.348944
Cl52	Cl	1.702270	-1.095383	0.348668
H53	H	1.717312	-0.561264	0.946784
Cl54	Cl	1.597920	-1.095826	0.736577
H55	H	0.972165	-0.692215	0.464338
Cl56	Cl	1.122141	-0.572646	0.288716
H57	H	1.406818	-0.644340	0.946744
Cl58	Cl	1.597918	-0.736976	1.096588
Cl59	Cl	1.314340	-1.096135	0.452519
H60	H	1.406688	-0.946163	0.643706
H61	H	1.669450	-0.381862	1.079344
Cl62	Cl	1.478106	-0.929400	0.288617
Cl63	Cl	1.761842	-0.928835	0.572823
H64	H	1.490063	-0.333898	0.946624
H65	H	1.358835	-0.465067	1.079668
