data_functionalizedCrystal
_audit_creation_method	'MofGen! by Chris Wilmer'
_symmetry_space_group_name_H-M	'P1'
_symmetry_Int_Tables_number	1
_symmetry_cell_setting	triclinic
loop_
_symmetry_equiv_pos_as_xyz
  x,y,z
_cell_length_a	17.038272
_cell_length_b	23.532407
_cell_length_c	16.098538
_cell_angle_alpha	92.700973
_cell_angle_beta	87.069734
_cell_angle_gamma	86.980117
loop_
_atom_site_label
_atom_site_type_symbol
_atom_site_fract_x
_atom_site_fract_y
_atom_site_fract_z
O1	O	1.039966	0.121251	-0.069166
O2	O	1.373299	0.454585	0.264167
O3	O	1.706633	0.787918	0.597500
O4	O	0.812351	0.119288	-0.069191
O5	O	1.145684	0.452621	0.264143
O6	O	1.479018	0.785954	0.597476
O7	O	0.933021	0.037699	-0.069163
O8	O	1.266355	0.371033	0.264171
O9	O	1.599688	0.704366	0.597504
O10	O	0.919295	0.202840	-0.069195
O11	O	1.252629	0.536173	0.264139
O12	O	1.585962	0.869506	0.597472
O13	O	0.925973	0.042445	0.069349
O14	O	1.259306	0.375779	0.402682
O15	O	1.592639	0.709112	0.736015
O16	O	0.805302	0.124034	0.069321
O17	O	1.138635	0.457367	0.402654
O18	O	1.471969	0.790700	0.735987
O19	O	1.032917	0.125997	0.069345
O20	O	1.366250	0.459331	0.402678
O21	O	1.699584	0.792664	0.736012
Zn22	Zn	0.917990	0.125769	0.091324
Zn23	Zn	1.251324	0.459102	0.424658
Zn24	Zn	1.584657	0.792436	0.757991
Zn25	Zn	0.927278	0.119516	-0.091170
Zn26	Zn	1.260611	0.452849	0.242163
Zn27	Zn	1.593944	0.786183	0.575496
O28	O	0.912247	0.207586	0.069317
O29	O	1.245580	0.540919	0.402650
O30	O	1.578913	0.874252	0.735983
C31	C	0.779712	0.119875	0.000062
C32	C	1.113045	0.453208	0.333395
C33	C	1.446378	0.786542	0.666729
C34	C	0.692959	0.114548	0.000054
C35	C	1.026292	0.447882	0.333387
C36	C	1.359625	0.781215	0.666720
C37	C	0.929147	0.018838	0.000095
C38	C	1.262481	0.352171	0.333429
C39	C	1.595814	0.685505	0.666762
C40	C	0.928096	-0.044434	0.000101
C41	C	1.261429	0.288899	0.333435
C42	C	1.594763	0.622232	0.666768
C43	C	0.642483	0.163453	0.000045
C44	C	0.975816	0.496786	0.333378
C45	C	1.309149	0.830119	0.666711
C46	C	0.560969	0.158445	0.000057
C47	C	0.894302	0.491778	0.333391
C48	C	1.227635	0.825111	0.666724
C49	C	0.529932	0.104532	0.000072
C50	C	0.863266	0.437865	0.333406
C51	C	1.196599	0.771198	0.666739
C52	C	0.580415	0.055624	0.000084
C53	C	0.913748	0.388957	0.333417
C54	C	1.247081	0.722290	0.666750
C55	C	0.661927	0.060632	0.000077
C56	C	0.995260	0.393966	0.333411
C57	C	1.328593	0.727299	0.666744
C58	C	0.284304	0.086837	0.000098
C59	C	0.617638	0.420171	0.333432
C60	C	0.950971	0.753504	0.666765
C61	C	0.202786	0.081832	0.000102
C62	C	0.536119	0.415165	0.333436
C63	C	0.869452	0.748499	0.666769
C64	C	0.183345	0.184654	0.000077
C65	C	0.516679	0.517987	0.333410
C66	C	0.850012	0.851320	0.666744
C67	C	0.264860	0.189657	0.000066
C68	C	0.598193	0.522991	0.333399
C69	C	0.931527	0.856324	0.666732
C70	C	0.315335	0.140750	0.000081
C71	C	0.648668	0.474083	0.333415
C72	C	0.982002	0.807416	0.666748
C73	C	0.446612	0.099411	0.000083
C74	C	0.779946	0.432745	0.333416
C75	C	1.113279	0.766078	0.666749
C76	C	0.398653	0.145871	0.000077
C77	C	0.731987	0.479204	0.333410
C78	C	1.065320	0.812537	0.666744
C79	C	0.992917	-0.440131	0.000063
C80	C	1.326250	-0.106798	0.333396
C81	C	1.659584	0.226536	0.666729
C82	C	0.991941	-0.499583	0.000056
C83	C	1.325274	-0.166249	0.333390
C84	C	1.658608	0.167084	0.666723
O85	O	1.052030	-0.533169	0.000032
O86	O	1.385363	-0.199836	0.333365
O87	O	1.718697	0.133497	0.666699
N88	N	0.920202	-0.525981	0.000049
N89	N	1.253535	-0.192647	0.333383
N90	N	1.586869	0.140686	0.666716
C91	C	0.849435	-0.492924	0.000040
C92	C	1.182768	-0.159590	0.333374
C93	C	1.516101	0.173743	0.666707
O94	O	0.788325	-0.520836	0.000033
O95	O	1.121659	-0.187503	0.333366
O96	O	1.454992	0.145830	0.666699
C97	C	0.850412	-0.433473	0.000041
C98	C	1.183745	-0.100140	0.333374
C99	C	1.517079	0.233193	0.666707
C100	C	0.922155	-0.407078	0.000056
C101	C	1.255488	-0.073745	0.333389
C102	C	1.588822	0.259588	0.666723
C103	C	1.064654	-0.413736	0.000077
C104	C	1.397988	-0.080403	0.333411
C105	C	1.731321	0.252931	0.666744
C106	C	1.065630	-0.354288	0.000085
C107	C	1.398963	-0.020955	0.333419
C108	C	1.732297	0.312379	0.666752
C109	C	0.994868	-0.321236	0.000079
C110	C	1.328201	0.012098	0.333412
C111	C	1.661535	0.345431	0.666745
C112	C	0.923131	-0.347631	0.000064
C113	C	1.256464	-0.014297	0.333397
C114	C	1.589797	0.319036	0.666731
C115	C	0.779646	-0.400418	0.000026
C116	C	1.112979	-0.067084	0.333359
C117	C	1.446312	0.266249	0.666692
C118	C	0.780629	-0.340963	0.000025
C119	C	1.113963	-0.007630	0.333359
C120	C	1.447296	0.325703	0.666692
C121	C	0.852372	-0.314569	0.000041
C122	C	1.185706	0.018765	0.333374
C123	C	1.519039	0.352098	0.666708
C124	C	0.853344	-0.255130	0.000066
C125	C	1.186678	0.078203	0.333399
C126	C	1.520011	0.411536	0.666732
N127	N	0.925083	-0.228732	0.000073
N128	N	1.258417	0.104601	0.333406
N129	N	1.591750	0.437934	0.666739
C130	C	0.995845	-0.261785	0.000079
C131	C	1.329179	0.071548	0.333412
C132	C	1.662512	0.404882	0.666746
C133	C	0.847388	-0.617774	0.000038
C134	C	1.180721	-0.284441	0.333371
C135	C	1.514055	0.048893	0.666704
C136	C	0.846410	-0.677223	0.000043
C137	C	1.179743	-0.343890	0.333377
C138	C	1.513077	-0.010556	0.666710
C139	C	0.988917	-0.683878	0.000058
C140	C	1.322250	-0.350545	0.333391
C141	C	1.655583	-0.017211	0.666724
C142	C	0.989894	-0.624428	0.000058
C143	C	1.323227	-0.291094	0.333392
C144	C	1.656560	0.042239	0.666725
C145	C	0.919127	-0.591376	0.000045
C146	C	1.252461	-0.258043	0.333378
C147	C	1.585794	0.075291	0.666711
C148	C	0.997889	-0.136940	0.000097
C149	C	1.331222	0.196393	0.333430
C150	C	1.664555	0.529726	0.666763
C151	C	0.998858	-0.077487	0.000108
C152	C	1.332191	0.255847	0.333441
C153	C	1.665525	0.589180	0.666775
C154	C	0.856352	-0.070837	0.000089
C155	C	1.189685	0.262496	0.333422
C156	C	1.523019	0.595829	0.666756
C157	C	0.855382	-0.130285	0.000082
C158	C	1.188715	0.203048	0.333415
C159	C	1.522049	0.536381	0.666749
C160	C	0.926157	-0.163336	0.000083
C161	C	1.259490	0.169998	0.333416
C162	C	1.592824	0.503331	0.666750
O163	O	0.793287	-0.221508	0.000086
O164	O	1.126620	0.111826	0.333420
O165	O	1.459954	0.445159	0.666753
O166	O	1.056945	-0.233865	0.000076
O167	O	1.390278	0.099468	0.333409
O168	O	1.723612	0.432802	0.666742
C169	C	1.065556	0.125410	0.000090
C170	C	1.398890	0.458743	0.333424
C171	C	1.732223	0.792076	0.666757
C172	C	1.152310	0.130737	0.000093
C173	C	1.485643	0.464070	0.333427
C174	C	1.818976	0.797403	0.666760
C175	C	0.916121	0.226447	0.000057
C176	C	1.249454	0.559780	0.333391
C177	C	1.582787	0.893114	0.666724
C178	C	0.917172	0.289719	0.000045
C179	C	1.250506	0.623052	0.333379
C180	C	1.583839	0.956386	0.666712
N181	N	0.911658	0.130036	0.215872
N182	N	1.244991	0.463370	0.549205
N183	N	1.578325	0.796703	0.882539
N184	N	0.933616	0.115244	-0.215718
N185	N	1.266950	0.448578	0.117615
N186	N	1.600283	0.781911	0.450949
C187	C	0.962894	0.095421	0.259469
C188	C	1.296227	0.428754	0.592802
C189	C	1.629560	0.762088	0.926136
C190	C	0.958471	0.098412	0.346657
C191	C	1.291804	0.431745	0.679990
C192	C	1.625138	0.765079	1.013324
C193	C	0.902816	0.136022	0.390246
C194	C	1.236149	0.469355	0.723580
C195	C	1.569482	0.802688	1.056913
C196	C	0.851574	0.170639	0.346643
C197	C	1.184908	0.503972	0.679977
C198	C	1.518241	0.837305	1.013310
C199	C	0.855994	0.167644	0.259457
C200	C	1.189327	0.500978	0.592790
C201	C	1.522661	0.834311	0.926124
C202	C	0.886795	0.146867	0.653493
C203	C	1.220128	0.480200	0.986826
C204	C	1.553461	0.813533	1.320159
C205	C	0.882380	0.149860	0.740685
C206	C	1.215714	0.483193	1.074018
C207	C	1.549047	0.816526	1.407352
C208	C	0.989277	0.077632	0.740693
C209	C	1.322610	0.410966	1.074026
C210	C	1.655943	0.744299	1.407359
C211	C	0.993694	0.074644	0.653505
C212	C	1.327028	0.407977	0.986838
C213	C	1.660361	0.741310	1.320171
C214	C	0.942450	0.109258	0.609909
C215	C	1.275784	0.442591	0.943243
C216	C	1.609117	0.775925	1.276576
C217	C	0.898295	0.139081	0.479366
C218	C	1.231629	0.472415	0.812700
C219	C	1.564962	0.805748	1.146033
C220	C	0.946968	0.106195	0.520791
C221	C	1.280301	0.439529	0.854124
C222	C	1.613634	0.772862	1.187457
H223	H	0.667745	0.207354	0.000032
H224	H	1.001079	0.540688	0.333365
H225	H	1.334412	0.874021	0.666698
H226	H	0.290124	0.233559	0.000043
H227	H	0.623457	0.566892	0.333377
H228	H	0.956790	0.900225	0.666710
H229	H	0.423926	0.189766	0.000069
H230	H	0.757260	0.523100	0.333403
H231	H	1.090593	0.856433	0.666736
H232	H	0.814271	0.195831	0.223961
H233	H	1.147605	0.529164	0.557294
H234	H	1.480938	0.862498	0.890628
H235	H	1.048313	-0.602941	0.000070
H236	H	1.381647	-0.269608	0.333404
H237	H	1.714980	0.063725	0.666737
H238	H	1.055521	-0.163843	0.000094
H239	H	1.388854	0.169490	0.333428
H240	H	1.722187	0.502823	0.666761
H241	H	0.177520	0.037928	0.000114
H242	H	0.510853	0.371261	0.333447
H243	H	0.844187	0.704594	0.666780
H244	H	0.325392	0.047013	0.000112
H245	H	0.658725	0.380346	0.333445
H246	H	0.992058	0.713679	0.666778
H247	H	0.806255	0.201259	0.382139
H248	H	1.139588	0.534592	0.715472
H249	H	1.472921	0.867926	1.048805
H250	H	0.992280	0.075571	0.485298
H251	H	1.325613	0.408905	0.818631
H252	H	1.658946	0.742238	1.151965
H253	H	1.046535	-0.710801	0.000060
H254	H	1.379868	-0.377467	0.333393
H255	H	1.713202	-0.044134	0.666727
H256	H	1.122281	-0.440642	0.000080
H257	H	1.455614	-0.107308	0.333413
H258	H	1.788947	0.226025	0.666746
H259	H	0.845071	0.175052	0.618004
H260	H	1.178404	0.508386	0.951337
H261	H	1.511738	0.841719	1.284671
H262	H	0.703024	0.020809	0.000084
H263	H	1.036358	0.354142	0.333417
H264	H	1.369691	0.687476	0.666751
H265	H	1.000191	0.070225	0.382153
H266	H	1.333524	0.403559	0.715487
H267	H	1.666858	0.736892	1.048820
H268	H	0.787989	-0.698708	0.000045
H269	H	1.121322	-0.365375	0.333378
H270	H	1.454655	-0.032041	0.666712
H271	H	0.519874	0.198268	0.000049
H272	H	0.853207	0.531601	0.333382
H273	H	1.186540	0.864935	0.666716
H274	H	0.555138	0.011727	0.000108
H275	H	0.888471	0.345060	0.333442
H276	H	1.221805	0.678394	0.666775
H277	H	0.837057	0.180488	0.776172
H278	H	1.170390	0.513822	1.109505
H279	H	1.503723	0.847155	1.442838
H280	H	0.852981	0.169705	0.514864
H281	H	1.186314	0.503038	0.848197
H282	H	1.519648	0.836372	1.181531
H283	H	0.796962	-0.151776	0.000093
H284	H	1.130295	0.181557	0.333426
H285	H	1.463628	0.514891	0.666759
H286	H	0.789757	-0.590866	0.000034
H287	H	1.123091	-0.257533	0.333367
H288	H	1.456424	0.075800	0.666701
H289	H	0.723001	-0.314056	0.000013
H290	H	1.056334	0.019278	0.333347
H291	H	1.389668	0.352611	0.666680
H292	H	0.142240	0.224472	0.000066
H293	H	0.475574	0.557805	0.333399
H294	H	0.808907	0.891138	0.666733
H295	H	0.421332	0.055516	0.000119
H296	H	0.754666	0.388849	0.333452
H297	H	1.087999	0.722183	0.666785
H298	H	1.008217	0.064798	0.223984
H299	H	1.341551	0.398131	0.557318
H300	H	1.674884	0.731465	0.890651
H301	H	1.057282	-0.055999	0.000123
H302	H	1.390615	0.277334	0.333456
H303	H	1.723949	0.610667	0.666789
H304	H	1.039013	0.044019	0.618016
H305	H	1.372347	0.377352	0.951349
H306	H	1.705680	0.710686	1.284683
H307	H	1.124051	-0.332803	0.000094
H308	H	1.457384	0.000530	0.333428
H309	H	1.790718	0.333864	0.666761
H310	H	0.721225	-0.421898	0.000008
H311	H	1.054558	-0.088565	0.333341
H312	H	1.387892	0.244769	0.666675
H313	H	1.030996	0.049450	0.776196
H314	H	1.364330	0.382783	1.109530
H315	H	1.697663	0.716117	1.442863
H316	H	0.798739	-0.043915	0.000087
H317	H	1.132073	0.289418	0.333420
H318	H	1.465406	0.622752	0.666753
