data_functionalizedCrystal
_audit_creation_method	'MofGen! by Chris Wilmer'
_symmetry_space_group_name_H-M	'P1'
_symmetry_Int_Tables_number	1
_symmetry_cell_setting	triclinic
loop_
_symmetry_equiv_pos_as_xyz
  x,y,z
_cell_length_a	6.817900
_cell_length_b	14.858565
_cell_length_c	12.200875
_cell_angle_alpha	93.921261
_cell_angle_beta	107.143593
_cell_angle_gamma	104.523916
loop_
_atom_site_label
_atom_site_type_symbol
_atom_site_fract_x
_atom_site_fract_y
_atom_site_fract_z
V1	V	-4.073571	-0.128881	-0.357981
V2	V	-3.740238	0.204452	-0.024648
V3	V	-3.406905	0.537785	0.308685
O4	O	-4.054796	0.005976	-0.350838
O5	O	-3.721462	0.339309	-0.017504
O6	O	-3.388129	0.672643	0.315829
O7	O	-4.029959	-0.255341	-0.355850
O8	O	-3.696626	0.077992	-0.022516
O9	O	-3.363293	0.411326	0.310817
O10	O	-4.043217	-0.126994	-0.513965
O11	O	-3.709884	0.206339	-0.180632
O12	O	-3.376551	0.539672	0.152702
O13	O	-4.041446	-0.123259	-0.191628
O14	O	-3.708113	0.210074	0.141706
O15	O	-3.374779	0.543407	0.475039
V16	V	-4.554240	-0.112740	-0.338046
V17	V	-4.220907	0.220594	-0.004712
V18	V	-3.887574	0.553927	0.328621
O19	O	-4.341090	-0.164290	-0.401712
O20	O	-4.007756	0.169044	-0.068379
O21	O	-3.674423	0.502377	0.264955
O22	O	-4.736919	-0.077331	-0.294315
O23	O	-4.403586	0.256002	0.039018
O24	O	-4.070252	0.589335	0.372352
O25	O	-4.374646	0.013720	-0.340177
O26	O	-4.041312	0.347053	-0.006844
O27	O	-3.707979	0.680387	0.326489
O28	O	-4.690413	-0.247597	-0.345189
O29	O	-4.357079	0.085736	-0.011856
O30	O	-4.023746	0.419070	0.321477
O31	O	-4.703762	-0.118362	-0.504399
O32	O	-4.370429	0.214972	-0.171066
O33	O	-4.037096	0.548305	0.162267
O34	O	-4.361388	-0.114627	-0.182062
O35	O	-4.028054	0.218707	0.151271
O36	O	-3.694721	0.552040	0.484605
C37	C	-3.875541	-0.286166	-0.350284
C38	C	-3.542208	0.047167	-0.016951
C39	C	-3.208874	0.380500	0.316383
C40	C	-3.921290	-0.389549	-0.349581
C41	C	-3.587957	-0.056216	-0.016247
C42	C	-3.254624	0.277117	0.317086
C43	C	-3.892452	-0.122446	-0.551974
C44	C	-3.559118	0.210887	-0.218641
C45	C	-3.225785	0.544221	0.114692
C46	C	-3.948949	-0.121740	-0.679494
C47	C	-3.615616	0.211593	-0.346160
C48	C	-3.282283	0.544927	-0.012827
C49	C	-4.052348	-0.120448	-0.912965
C50	C	-3.719015	0.212885	-0.579632
C51	C	-3.385682	0.546218	-0.246298
C52	C	-3.994801	-0.121167	-0.783045
C53	C	-3.661468	0.212167	-0.449711
C54	C	-3.328135	0.545500	-0.116378
C55	C	-4.088740	-0.768119	-0.347022
C56	C	-3.755407	-0.434785	-0.013688
C57	C	-3.422073	-0.101452	0.319645
C58	C	-4.042142	-0.662789	-0.347733
C59	C	-3.708808	-0.329456	-0.014400
C60	C	-3.375475	0.003878	0.318934
C61	C	-4.005016	-0.578837	-0.348300
C62	C	-3.671682	-0.245504	-0.014967
C63	C	-3.338349	0.087829	0.318367
C64	C	-3.958416	-0.473501	-0.349014
C65	C	-3.625083	-0.140168	-0.015680
C66	C	-3.291750	0.193166	0.317653
C67	C	-4.192406	0.044540	-0.345740
C68	C	-3.859072	0.377874	-0.012407
C69	C	-3.525739	0.711207	0.320927
C70	C	-4.125896	0.147922	-0.346451
C71	C	-3.792562	0.481256	-0.013117
C72	C	-3.459229	0.814589	0.320216
C73	C	-4.175495	-0.119178	-0.144047
C74	C	-3.842161	0.214155	0.189287
C75	C	-3.508828	0.547489	0.522620
C76	C	-4.098235	-0.119879	-0.016526
C77	C	-3.764902	0.213454	0.316807
C78	C	-3.431569	0.546787	0.650141
