data_functionalizedCrystal
_audit_creation_method	'MofGen! by Chris Wilmer'
_symmetry_space_group_name_H-M	'P1'
_symmetry_Int_Tables_number	1
_symmetry_cell_setting	triclinic
loop_
_symmetry_equiv_pos_as_xyz
  x,y,z
_cell_length_a	15.995350
_cell_length_b	19.188930
_cell_length_c	14.472310
_cell_angle_alpha	89.993787
_cell_angle_beta	89.990621
_cell_angle_gamma	83.318578
loop_
_atom_site_label
_atom_site_type_symbol
_atom_site_fract_x
_atom_site_fract_y
_atom_site_fract_z
O1	O	1.110667	0.089991	-0.076773
O2	O	1.610667	0.589991	0.423227
O3	O	0.866851	0.101105	-0.076794
O4	O	1.366851	0.601105	0.423206
O5	O	0.995795	-0.006090	-0.076765
O6	O	1.495795	0.493910	0.423235
O7	O	0.981723	0.197186	-0.076802
O8	O	1.481723	0.697186	0.423198
O9	O	0.995762	-0.006083	0.076917
O10	O	1.495762	0.493917	0.576917
O11	O	0.866818	0.101111	0.076888
O12	O	1.366818	0.601111	0.576888
O13	O	1.110634	0.089998	0.076909
O14	O	1.610634	0.589998	0.576909
Cu15	Cu	0.988723	0.095555	0.090931
Cu16	Cu	1.488723	0.595555	0.590931
Cu17	Cu	0.988762	0.095547	-0.090816
Cu18	Cu	1.488762	0.595547	0.409184
O19	O	0.981690	0.197192	0.076880
O20	O	1.481690	0.697192	0.576880
C21	C	0.835641	0.100648	0.000045
C22	C	1.335641	0.600648	0.500045
C23	C	0.742696	0.099271	0.000038
C24	C	1.242696	0.599271	0.500038
C25	C	0.995323	-0.032099	0.000079
C26	C	1.495323	0.467901	0.500079
C27	C	0.993955	-0.109607	0.000087
C28	C	1.493955	0.390393	0.500087
C29	C	0.404967	0.094324	0.000058
C30	C	0.904967	0.594324	0.500058
C31	C	0.452680	0.017982	0.000415
C32	C	0.952680	0.517982	0.500415
C33	C	0.549365	0.019360	0.000062
C34	C	1.049365	0.519360	0.500062
C35	C	0.572518	0.096778	0.000049
C36	C	1.072518	0.596778	0.500049
C37	C	0.531312	0.134429	-0.087714
C38	C	1.031312	0.634429	0.412286
C39	C	0.434683	0.132511	-0.087781
C40	C	0.934683	0.632511	0.412219
C41	C	0.434301	0.134095	0.086984
C42	C	0.934301	0.634095	0.586984
C43	C	0.531246	0.134077	0.088137
C44	C	1.031246	0.634077	0.588137
C45	C	0.667211	0.098169	0.000040
C46	C	1.167211	0.598169	0.500040
C47	C	0.310274	0.092936	0.000060
C48	C	0.810274	0.592936	0.500060
C49	C	1.069615	-0.154338	0.000097
C50	C	1.569615	0.345662	0.500097
C51	C	1.068330	-0.227165	0.000082
C52	C	1.568330	0.272835	0.500082
C53	C	0.991380	-0.255258	0.000075
C54	C	1.491380	0.244742	0.500075
C55	C	0.915710	-0.210517	0.000059
C56	C	1.415710	0.289483	0.500059
C57	C	0.916997	-0.137691	0.000065
C58	C	1.416997	0.362309	0.500065
N59	N	0.932550	-0.363410	0.052371
N60	N	1.432550	0.136590	0.552371
N61	N	0.931332	-0.432592	0.052368
N62	N	1.431332	0.067408	0.552368
C63	C	0.987497	-0.474676	0.000056
C64	C	1.487497	0.025324	0.500056
N65	N	1.044938	-0.444967	-0.052240
N66	N	1.544938	0.055033	0.447760
N67	N	1.046158	-0.375779	-0.052233
N68	N	1.546158	0.124221	0.447767
C69	C	0.989976	-0.334224	0.000069
C70	C	1.489976	0.165776	0.500069
C71	C	1.061769	-0.598375	0.000050
C72	C	1.561769	-0.098375	0.500050
C73	C	1.060480	-0.671204	0.000029
C74	C	1.560480	-0.171204	0.500029
C75	C	0.907859	-0.654553	0.000015
C76	C	1.407859	-0.154553	0.500015
C77	C	0.909149	-0.581727	0.000027
C78	C	1.409149	-0.081727	0.500027
C79	C	0.986106	-0.553643	0.000048
C80	C	1.486106	-0.053643	0.500048
C81	C	1.141843	0.090454	0.000068
C82	C	1.641843	0.590454	0.500068
C83	C	1.234789	0.091831	0.000069
C84	C	1.734789	0.591831	0.500069
C85	C	0.982162	0.223201	0.000034
C86	C	1.482162	0.723201	0.500034
C87	C	0.983530	0.300709	0.000020
C88	C	1.483530	0.800709	0.500020
N89	N	0.988701	0.095560	0.218762
N90	N	1.488701	0.595560	0.718762
N91	N	0.988790	0.095537	-0.218647
N92	N	1.488790	0.595537	0.281353
C93	C	0.988761	0.095545	0.592853
C94	C	1.488761	0.595545	1.092853
C95	C	0.919535	0.152710	0.553672
C96	C	1.419535	0.652710	1.053672
C97	C	0.919694	0.152918	0.446584
C98	C	1.419694	0.652918	0.946584
C99	C	0.988731	0.095552	0.407262
C100	C	1.488731	0.595552	0.907262
C101	C	1.076037	0.111464	0.446103
C102	C	1.576037	0.611464	0.946103
C103	C	1.075648	0.111870	0.553224
C104	C	1.575648	0.611870	1.053224
C105	C	0.971460	0.022298	0.553394
C106	C	1.471460	0.522298	1.053394
C107	C	0.969454	0.022787	0.446266
C108	C	1.469454	0.522787	0.946266
C109	C	0.988719	0.095555	0.302374
C110	C	1.488719	0.595555	0.802374
C111	C	0.988778	0.095543	0.697741
C112	C	1.488778	0.595543	1.197741
H113	H	0.577889	-0.010236	0.062975
H114	H	1.077889	0.489764	0.562975
H115	H	1.016620	-0.021746	0.419504
H116	H	1.516620	0.478254	0.919504
O117	O	1.149940	-0.275421	0.000111
O118	O	1.649940	0.224579	0.500111
H119	H	1.153031	-0.308994	-0.062528
H120	H	1.653031	0.191006	0.437472
O121	O	0.428275	-0.022437	0.083786
O122	O	0.928275	0.477563	0.583786
H123	H	0.399920	-0.069594	0.060681
H124	H	0.899920	0.430406	0.560681
O125	O	0.824859	-0.684841	0.000012
O126	O	1.324859	-0.184841	0.500012
H127	H	0.836673	-0.742996	0.000016
H128	H	1.336673	-0.242996	0.500016
O129	O	0.827544	-0.533473	0.000038
O130	O	1.327544	-0.033473	0.500038
H131	H	0.773819	-0.565240	0.000042
H132	H	1.273819	-0.065240	0.500042
O133	O	0.410581	0.096132	-0.174667
O134	O	0.910581	0.596132	0.325333
H135	H	0.341465	0.094406	-0.175579
H136	H	0.841465	0.594406	0.324421
H137	H	0.854789	0.143438	0.420324
H138	H	1.354789	0.643438	0.920324
H139	H	1.132280	-0.131477	0.000112
H140	H	1.632280	0.368523	0.500112
H141	H	0.853057	-0.233394	0.000052
H142	H	1.353057	0.266606	0.500052
H143	H	1.124432	-0.575508	0.000063
H144	H	1.624432	-0.075508	0.500063
O145	O	0.426890	-0.022268	-0.082469
O146	O	0.926890	0.477732	0.417531
H147	H	0.380239	0.011864	-0.123919
H148	H	0.880239	0.511864	0.376081
H149	H	1.122095	-0.707624	0.000033
H150	H	1.622095	-0.207624	0.500033
H151	H	0.930402	0.206759	0.580572
H152	H	1.430402	0.706759	1.080572
O153	O	0.569032	0.099783	-0.174224
O154	O	1.069032	0.599783	0.325776
H155	H	0.518688	0.079400	-0.215511
H156	H	1.018688	0.579400	0.284489
H157	H	0.545229	0.191306	-0.090987
H158	H	1.045229	0.691306	0.409013
O159	O	0.833278	0.140376	0.587836
O160	O	1.333278	0.640376	1.087836
H161	H	0.838820	0.093373	0.633112
H162	H	1.338820	0.593373	1.133112
H163	H	1.128755	0.071875	0.579141
H164	H	1.628755	0.571875	1.079141
H165	H	0.930714	0.207273	0.420941
H166	H	1.430714	0.707273	0.920941
H167	H	0.577346	-0.010441	-0.062950
H168	H	1.077346	0.489559	0.437050
H169	H	0.546404	0.190533	0.093428
H170	H	1.046404	0.690533	0.593428
H171	H	1.090934	0.165288	0.578192
H172	H	1.590934	0.665288	1.078192
H173	H	0.402230	0.188560	-0.091773
H174	H	0.902230	0.688560	0.408227
H175	H	0.402333	0.190382	0.087568
H176	H	0.902333	0.690382	0.587568
O177	O	1.145896	0.057784	0.412368
O178	O	1.645896	0.557784	0.912368
H179	H	1.119066	0.019105	0.367449
H180	H	1.619066	0.519105	0.867449
H181	H	0.855384	-0.101270	0.000057
H182	H	1.355384	0.398730	0.500057
O183	O	1.096783	0.181419	0.410562
O184	O	1.596783	0.681419	0.910562
H185	H	1.045053	0.204961	0.365246
H186	H	1.545053	0.704961	0.865246
O187	O	0.888966	0.002034	0.589208
O188	O	1.388966	0.502034	1.089208
H189	H	0.836948	0.042132	0.567735
H190	H	1.336948	0.542132	1.067735
O191	O	0.884380	0.006788	0.412659
O192	O	1.384380	0.506788	0.912659
H193	H	0.855940	0.050471	0.368354
H194	H	1.355940	0.550471	0.868354
O195	O	1.038322	-0.034058	0.586962
O196	O	1.538322	0.465942	1.086962
H197	H	1.083662	-0.010063	0.631532
H198	H	1.583662	0.489937	1.131532
H199	H	0.413843	0.109140	0.153506
H200	H	0.913843	0.609140	0.653506
H201	H	0.558650	0.106592	0.153064
H202	H	1.058650	0.606592	0.653064
