data_functionalizedCrystal
_audit_creation_method	'MofGen! by Chris Wilmer'
_symmetry_space_group_name_H-M	'P1'
_symmetry_Int_Tables_number	1
_symmetry_cell_setting	triclinic
loop_
_symmetry_equiv_pos_as_xyz
  x,y,z
_cell_length_a	14.044220
_cell_length_b	19.288865
_cell_length_c	18.366186
_cell_angle_alpha	89.989632
_cell_angle_beta	90.008612
_cell_angle_gamma	91.837438
loop_
_atom_site_label
_atom_site_type_symbol
_atom_site_fract_x
_atom_site_fract_y
_atom_site_fract_z
O1	O	1.256998	-0.167412	0.060564
O2	O	1.756998	0.332588	0.560564
O3	O	0.981055	-0.161371	0.060565
O4	O	1.481055	0.338629	0.560565
O5	O	1.127000	-0.063773	0.060550
O6	O	1.627000	0.436227	0.560550
O7	O	1.111053	-0.265009	0.060579
O8	O	1.611053	0.234991	0.560579
O9	O	1.126975	-0.063769	-0.060549
O10	O	1.626975	0.436231	0.439451
O11	O	0.981030	-0.161366	-0.060534
O12	O	1.481030	0.338634	0.439466
O13	O	1.256973	-0.167407	-0.060535
O14	O	1.756973	0.332593	0.439465
Zn15	Zn	1.118997	-0.164386	-0.079762
Zn16	Zn	1.618997	0.335614	0.420238
Zn17	Zn	1.119030	-0.164392	0.079792
Zn18	Zn	1.619030	0.335608	0.579792
O19	O	1.111028	-0.265005	-0.060520
O20	O	1.611028	0.234995	0.439480
C21	C	0.945739	-0.158724	0.000016
C22	C	1.445739	0.341276	0.500016
C23	C	0.840547	-0.150836	0.000015
C24	C	1.340547	0.349164	0.500015
C25	C	1.292289	-0.170054	0.000016
C26	C	1.792289	0.329946	0.500016
C27	C	1.397481	-0.177942	0.000021
C28	C	1.897481	0.322058	0.500021
C29	C	1.126474	-0.037862	-0.000002
C30	C	1.626474	0.462138	0.499998
C31	C	1.124934	0.039341	-0.000008
C32	C	1.624934	0.539341	0.499992
C33	C	1.590081	-0.192362	0.000022
C34	C	2.090081	0.307638	0.500022
C35	C	1.647953	-0.136419	0.000014
C36	C	2.147953	0.363581	0.500014
C37	C	1.755122	-0.144443	0.000015
C38	C	2.255122	0.355557	0.500015
C39	C	1.482901	-0.184339	0.000022
C40	C	1.982901	0.315661	0.500022
C41	C	1.111554	-0.290916	0.000033
C42	C	1.611554	0.209084	0.500033
C43	C	1.113094	-0.368119	0.000044
C44	C	1.613094	0.131881	0.500044
N45	N	1.118982	-0.164382	-0.188653
N46	N	1.618982	0.335618	0.311347
C47	C	1.210568	0.078535	-0.000012
C48	C	1.710568	0.578535	0.499988
C49	C	1.209121	0.151075	-0.000000
C50	C	1.709121	0.651075	0.500000
C51	C	1.122035	0.184418	0.000000
C52	C	1.622035	0.684418	0.500000
C53	C	1.036390	0.145215	0.000008
C54	C	1.536390	0.645215	0.500008
C55	C	1.037839	0.072676	0.000004
C56	C	1.537839	0.572676	0.500004
C57	C	1.053566	0.297106	-0.042418
C58	C	1.553566	0.797106	0.457582
C59	C	1.052120	0.369643	-0.042418
C60	C	1.552120	0.869643	0.457582
C61	C	1.117560	0.408151	0.000017
C62	C	1.617560	0.908151	0.500017
C63	C	1.184463	0.374114	0.042442
C64	C	1.684463	0.874114	0.542442
C65	C	1.185912	0.301575	0.042438
C66	C	1.685912	0.801575	0.542438
C67	C	1.120453	0.263074	0.000005
C68	C	1.620453	0.763074	0.500005
C69	C	1.201631	0.526002	0.000026
C70	C	1.701631	1.026002	0.500026
C71	C	1.200181	0.598543	0.000042
C72	C	1.700181	1.098543	0.500042
C73	C	1.027447	0.592681	0.000044
C74	C	1.527447	1.092681	0.500044
C75	C	1.028900	0.520142	0.000035
C76	C	1.528900	1.020142	0.500035
C77	C	1.115995	0.486806	0.000023
C78	C	1.615995	0.986806	0.500023
C79	C	1.176265	-0.210086	-0.226741
C80	C	1.676265	0.289914	0.273259
C81	C	1.176281	-0.210085	-0.302969
C82	C	1.676281	0.289915	0.197031
C83	C	1.118995	-0.164387	-0.341106
C84	C	1.618995	0.335613	0.158894
C85	C	1.061708	-0.118674	-0.303008
C86	C	1.561708	0.381326	0.196992
C87	C	1.061701	-0.118671	-0.226782
C88	C	1.561701	0.381329	0.273218
C89	C	1.033574	-0.157142	-0.461887
C90	C	1.533574	0.342858	0.038113
C91	C	1.033579	-0.157149	-0.538112
C92	C	1.533579	0.342851	-0.038112
C93	C	1.119016	-0.164391	-0.576213
C94	C	1.619016	0.335609	-0.076213
C95	C	1.204451	-0.171639	-0.538080
C96	C	1.704451	0.328361	-0.038080
C97	C	1.204444	-0.171637	-0.461854
C98	C	1.704444	0.328363	0.038146
C99	C	1.118996	-0.164384	-0.423760
C100	C	1.618996	0.335616	0.076240
C101	C	1.176321	-0.210096	-0.696956
C102	C	1.676321	0.289904	-0.196956
C103	C	1.176339	-0.210091	-0.773186
C104	C	1.676339	0.289909	-0.273186
C105	C	1.061757	-0.118683	-0.773223
C106	C	1.561757	0.381317	-0.273223
C107	C	1.061749	-0.118685	-0.696996
C108	C	1.561749	0.381315	-0.196996
C109	C	1.119029	-0.164396	-0.658867
C110	C	1.619029	0.335604	-0.158867
N111	N	1.119054	-0.164391	0.188683
N112	N	1.619054	0.335609	0.688683
H113	H	1.617012	-0.082498	0.000059
H114	H	2.117012	0.417502	0.500059
Cl115	Cl	0.930176	0.023401	0.000009
Cl116	Cl	1.430176	0.523401	0.500009
H117	H	1.222911	-0.247305	-0.195701
H118	H	1.722911	0.252695	0.304299
Cl119	Cl	1.311866	-0.180744	-0.585970
Cl120	Cl	1.811866	0.319256	-0.085970
Cl121	Cl	1.311119	0.484091	0.000007
Cl122	Cl	1.811119	0.984091	0.500007
Cl123	Cl	1.307845	0.647817	0.000042
Cl124	Cl	1.807845	1.147817	0.500042
H125	H	1.222928	-0.247305	-0.333987
H126	H	1.722928	0.252695	0.166013
H127	H	1.015115	-0.081473	-0.804274
H128	H	1.515115	0.418527	-0.304274
Cl129	Cl	1.637848	-0.275607	0.000041
Cl130	Cl	2.137848	0.224393	0.500041
H131	H	0.956540	0.619828	0.000048
H132	H	1.456540	1.119828	0.500048
Cl133	Cl	0.926176	-0.148043	-0.586043
Cl134	Cl	1.426176	0.351957	-0.086043
Cl135	Cl	0.989694	-0.061222	-0.350950
Cl136	Cl	1.489694	0.438778	0.149050
H137	H	1.281487	0.051398	-0.000020
H138	H	1.781487	0.551398	0.499980
Cl139	Cl	0.921239	0.470866	0.000037
Cl140	Cl	1.421239	0.970866	0.500037
Cl141	Cl	0.989675	-0.061213	-0.178897
Cl142	Cl	1.489675	0.438787	0.321103
H143	H	1.278856	0.182993	-0.000001
H144	H	1.778856	0.682993	0.499999
Cl145	Cl	0.971293	0.248703	-0.095772
Cl146	Cl	1.471293	0.748703	0.404228
Cl147	Cl	1.270008	0.258787	0.095775
Cl148	Cl	1.770008	0.758787	0.595775
H149	H	1.237750	0.405465	0.076997
H150	H	1.737750	0.905465	0.576997
Cl151	Cl	0.968020	0.412426	-0.095755
Cl152	Cl	1.468020	0.912426	0.404245
H153	H	0.965484	0.172367	0.000011
H154	H	1.465484	0.672367	0.500011
Cl155	Cl	1.248351	-0.267546	-0.649019
Cl156	Cl	1.748351	0.232454	-0.149019
Cl157	Cl	1.311842	-0.180748	-0.413918
Cl158	Cl	1.811842	0.319252	0.086082
H159	H	1.222993	-0.247307	-0.804196
H160	H	1.722993	0.252693	-0.304196
Cl161	Cl	0.989712	-0.061237	-0.649111
Cl162	Cl	1.489712	0.438763	-0.149111
Cl163	Cl	0.926167	-0.147980	-0.413996
Cl164	Cl	1.426167	0.352020	0.086004
