data_functionalizedCrystal
_audit_creation_method	'MofGen! by Chris Wilmer'
_symmetry_space_group_name_H-M	'P1'
_symmetry_Int_Tables_number	1
_symmetry_cell_setting	triclinic
loop_
_symmetry_equiv_pos_as_xyz
  x,y,z
_cell_length_a	13.339070
_cell_length_b	23.532407
_cell_length_c	11.804365
_cell_angle_alpha	101.750517
_cell_angle_beta	74.875130
_cell_angle_gamma	99.238986
loop_
_atom_site_label
_atom_site_type_symbol
_atom_site_fract_x
_atom_site_fract_y
_atom_site_fract_z
O1	O	1.359957	0.276790	-0.099117
O2	O	1.065803	0.239376	-0.099104
O3	O	1.221746	0.176583	-0.099089
O4	O	1.204015	0.339583	-0.099132
O5	O	1.180692	0.193091	0.098963
O6	O	1.024750	0.255884	0.098948
O7	O	1.318904	0.293298	0.098935
Cu8	Cu	1.168078	0.276099	0.117025
Cu9	Cu	1.216629	0.256576	-0.117194
O10	O	1.162961	0.356091	0.098920
C11	C	1.007650	0.241310	-0.000076
C12	C	0.895537	0.222472	-0.000070
C13	C	0.529284	0.368948	-0.000127
C14	C	0.634620	0.386649	-0.000137
C15	C	0.699854	0.345606	-0.000119
C16	C	0.659742	0.286860	-0.000094
C17	C	0.554397	0.269156	-0.000094
C18	C	0.724967	0.245814	-0.000086
C19	C	0.684855	0.187067	-0.000060
C20	C	0.579519	0.169367	-0.000059
C21	C	0.514285	0.210410	-0.000076
C22	C	0.830313	0.263518	-0.000086
C23	C	0.855425	0.163726	-0.000053
C24	C	0.750089	0.146025	-0.000043
C25	C	1.200767	0.163549	-0.000060
C26	C	1.199407	0.100114	-0.000051
C27	C	1.283187	-0.285492	-0.000120
C28	C	1.281927	-0.345096	-0.000129
O29	O	1.359590	-0.369327	-0.000177
N30	N	1.189217	-0.382667	-0.000124
C31	C	1.097762	-0.360632	-0.000122
O32	O	1.018789	-0.398062	-0.000120
C33	C	1.099025	-0.301029	-0.000122
C34	C	1.191739	-0.263460	-0.000115
C35	C	1.375894	-0.247923	-0.000114
C36	C	1.377153	-0.188323	-0.000103
C37	C	1.285705	-0.166291	-0.000098
C38	C	1.192998	-0.203860	-0.000103
C39	C	1.007574	-0.278996	-0.000128
C40	C	1.008845	-0.219389	-0.000129
C41	C	1.101559	-0.181819	-0.000122
C42	C	1.102809	-0.122227	-0.000087
N43	N	1.195520	-0.084657	-0.000092
C44	C	1.286968	-0.106688	-0.000097
C45	C	1.095118	-0.485801	-0.000125
C46	C	1.093853	-0.545402	-0.000117
C47	C	1.278019	-0.529862	-0.000126
C48	C	1.279281	-0.470260	-0.000126
C49	C	1.187829	-0.448230	-0.000130
C50	C	1.289605	0.018476	-0.000073
C51	C	1.290855	0.078082	-0.000057
C52	C	1.106691	0.062536	-0.000053
C53	C	1.105439	0.002937	-0.000063
C54	C	1.196905	-0.019092	-0.000077
O55	O	1.025189	-0.097956	-0.000044
O56	O	1.365931	-0.069253	-0.000115
C57	C	1.377057	0.291364	-0.000096
C58	C	1.489172	0.310202	-0.000110
C59	C	1.183941	0.369126	-0.000112
C60	C	1.185302	0.432560	-0.000129
N61	N	1.133938	0.289830	0.281762
N62	N	1.250777	0.242841	-0.281932
C63	C	1.332761	0.209855	0.655730
C64	C	1.358587	0.199464	0.531071
C65	C	1.302427	0.222055	0.468737
C66	C	1.220436	0.255038	0.531076
C67	C	1.194613	0.265434	0.655747
C68	C	1.164279	0.277633	0.468755
C69	C	1.082288	0.310617	0.531093
C70	C	1.056469	0.321010	0.655752
C71	C	1.112629	0.298420	0.718086
C72	C	1.190102	0.267238	0.344083
C73	C	1.051954	0.322817	0.344101
C74	C	1.026128	0.333207	0.468760
H75	H	1.366356	0.108670	-0.000048
C76	C	1.390220	-0.005745	-0.000077
N77	N	1.466002	-0.023987	-0.000070
H78	H	1.352481	-0.547811	-0.000135
C79	C	1.479150	-0.147005	-0.000108
N80	N	1.555980	-0.115887	-0.000117
H81	H	1.018351	-0.575985	-0.000102
C82	C	1.280283	0.230953	0.275526
N83	N	1.348211	0.203619	0.223889
H84	H	1.425343	0.172610	0.480319
C85	C	0.935938	0.369487	0.537348
N86	N	0.868005	0.396812	0.589010
C87	C	1.476501	-0.272146	-0.000108
N88	N	1.552282	-0.290386	-0.000090
C89	C	0.908236	-0.195161	-0.000129
N90	N	0.832457	-0.176913	-0.000125
C91	C	0.966281	0.357296	0.724321
N92	N	0.898350	0.384625	0.775965
H93	H	1.354777	-0.439674	-0.000121
C94	C	1.003448	-0.038390	-0.000063
N95	N	0.926628	-0.069515	-0.000076
C96	C	1.394529	0.185011	0.724304
N97	N	1.441057	0.166296	0.775956
C98	C	0.398407	0.190941	-0.000065
N99	N	0.311125	0.176279	-0.000057
H100	H	1.020640	-0.467869	-0.000118
H101	H	1.032235	0.080486	-0.000045
C102	C	1.084204	0.309834	0.855219
N103	N	1.062790	0.318425	0.958510
H104	H	0.667274	0.434480	-0.000167
H105	H	0.546866	0.121530	-0.000052
C106	C	0.905581	-0.320311	-0.000144
N107	N	0.828754	-0.351428	-0.000160
H108	H	0.908541	0.130305	-0.000044
H109	H	0.476164	0.402358	-0.000151
C110	C	0.990171	0.347667	0.275540
N111	N	0.943641	0.366383	0.223892
H112	H	0.862961	0.311350	-0.000102
H113	H	0.785624	0.360022	-0.000130
H114	H	0.717416	0.098191	-0.000032
H115	H	1.323458	0.213593	0.367234
