data_functionalizedCrystal
_audit_creation_method	'MofGen! by Chris Wilmer'
_symmetry_space_group_name_H-M	'P1'
_symmetry_Int_Tables_number	1
_symmetry_cell_setting	triclinic
loop_
_symmetry_equiv_pos_as_xyz
  x,y,z
_cell_length_a	12.837943
_cell_length_b	12.811434
_cell_length_c	17.766277
_cell_angle_alpha	95.427497
_cell_angle_beta	89.991964
_cell_angle_gamma	89.411196
loop_
_atom_site_label
_atom_site_type_symbol
_atom_site_fract_x
_atom_site_fract_y
_atom_site_fract_z
O1	O	1.376631	0.272976	-0.043941
O2	O	1.074767	0.259492	-0.044866
O3	O	1.233298	0.114203	-0.054780
O4	O	1.218101	0.418265	-0.034027
O5	O	1.233270	0.114192	0.070408
O6	O	1.074739	0.259481	0.080322
O7	O	1.376603	0.272965	0.081247
Cu8	Cu	1.225669	0.266222	0.092215
Cu9	Cu	1.225702	0.266235	-0.055834
O10	O	1.218073	0.418254	0.091161
C11	C	1.036113	0.254931	0.017417
C12	C	0.920978	0.241345	0.016487
C13	C	1.232434	0.075009	0.005138
C14	C	1.229888	-0.041763	-0.002837
C15	C	0.680720	0.404673	0.027646
C16	C	0.572539	0.391913	0.026773
C17	C	0.596434	0.203065	0.013876
C18	C	0.704615	0.215825	0.014748
C19	C	0.746753	0.316632	0.021632
C20	C	0.854936	0.329392	0.022499
C21	C	0.878829	0.140545	0.009607
C22	C	0.770649	0.127785	0.008735
C23	C	1.226311	-0.206341	-0.082306
C24	C	1.228707	-0.096624	-0.074821
C25	C	1.228677	-0.096627	0.061666
C26	C	1.226281	-0.206344	0.054181
C27	C	1.225097	-0.261197	-0.017807
C28	C	1.222693	-0.370916	-0.025291
C29	C	1.222671	-0.370918	0.111195
C30	C	1.225067	-0.261201	0.118680
C31	C	1.415257	0.277526	0.018963
C32	C	1.530392	0.291112	0.019888
C33	C	1.218937	0.457448	0.031242
C34	C	1.221482	0.574220	0.039212
N35	N	1.225653	0.266213	0.196345
N36	N	1.225726	0.266237	-0.159964
C37	C	1.295873	0.201916	0.231345
C38	C	1.295879	0.201912	0.310146
C39	C	1.225675	0.266223	0.353946
C40	C	1.155441	0.330524	0.318937
C41	C	1.155430	0.330519	0.240137
C42	C	1.212496	0.360496	0.485218
C43	C	1.212515	0.360503	0.564018
C44	C	1.225702	0.266239	0.596994
C45	C	1.238894	0.171965	0.551160
C46	C	1.238883	0.171960	0.472360
C47	C	1.225678	0.266236	0.439393
C48	C	1.295933	0.201932	0.717438
C49	C	1.295932	0.201926	0.796241
C50	C	1.155499	0.330547	0.805032
C51	C	1.155495	0.330544	0.726230
C52	C	1.225718	0.266238	0.682438
H53	H	0.715029	0.486754	0.033250
H54	H	1.229697	-0.051964	-0.127343
H55	H	1.229652	-0.051947	0.120276
H56	H	1.353062	0.149552	0.338648
H57	H	0.562106	0.120992	0.008333
O58	O	1.371638	0.132559	0.670186
H59	H	1.452547	0.154047	0.686755
O60	O	0.900387	0.438116	0.029934
H61	H	0.873897	0.480964	-0.018157
O62	O	1.226349	-0.202037	0.196322
H63	H	1.156838	-0.149758	0.203156
H64	H	0.518777	0.463605	0.031672
H65	H	1.201739	0.437260	0.458377
H66	H	1.098247	0.382878	0.211640
H67	H	1.249622	0.095199	0.435045
H68	H	1.249632	0.095206	0.578007
O69	O	0.725189	0.019064	0.001313
H70	H	0.789285	-0.040012	-0.002718
H71	H	1.221675	-0.415593	0.163715
H72	H	1.353110	0.149562	0.824738
O73	O	0.950049	0.045576	0.003124
H74	H	1.032355	0.071381	0.004891
O75	O	1.225018	-0.265515	-0.159944
H76	H	1.226263	-0.208935	-0.203539
H77	H	1.221722	-0.415575	-0.083908
O78	O	1.371596	0.132547	0.184109
H79	H	1.420418	0.087827	0.221690
O80	O	1.079777	0.399918	0.852261
H81	H	1.091584	0.389126	0.912937
H82	H	1.098320	0.382905	0.697732
H83	H	1.201780	0.437267	0.601330
O84	O	1.079724	0.399897	0.366173
H85	H	1.091536	0.389109	0.426849
