data_functionalizedCrystal
_audit_creation_method	'MofGen! by Chris Wilmer'
_symmetry_space_group_name_H-M	'P1'
_symmetry_Int_Tables_number	1
_symmetry_cell_setting	triclinic
loop_
_symmetry_equiv_pos_as_xyz
  x,y,z
_cell_length_a	18.426585
_cell_length_b	19.377369
_cell_length_c	19.377574
_cell_angle_alpha	82.425876
_cell_angle_beta	104.490388
_cell_angle_gamma	48.638366
loop_
_atom_site_label
_atom_site_type_symbol
_atom_site_fract_x
_atom_site_fract_y
_atom_site_fract_z
Zr1	Zr	0.567322	0.779888	0.049330
O2	O	0.401074	0.928521	-0.037248
O3	O	0.632450	0.631252	0.056986
O4	O	0.572897	0.779889	-0.064483
O5	O	0.491493	0.779884	0.201520
O6	O	0.692321	0.779894	-0.064485
O7	O	0.460628	0.779884	0.084221
O8	O	0.798852	0.514010	0.152801
O9	O	0.384962	1.045768	-0.015767
O10	O	0.732239	0.692393	0.083065
O11	O	0.666148	0.692390	0.170605
O12	O	0.596031	0.867391	0.027591
O13	O	0.529941	0.867388	0.115131
Zr14	Zr	0.807017	0.779897	0.236404
Zr15	Zr	0.757791	0.779896	0.049326
Zr16	Zr	0.616549	0.779889	0.236407
Zr17	Zr	0.541626	0.966885	0.083590
Zr18	Zr	0.832713	0.592900	0.202144
O19	O	0.741889	0.928533	0.228747
O20	O	0.671896	0.928532	-0.037253
O21	O	0.471068	0.928522	0.228752
O22	O	0.973265	0.631265	0.322982
O23	O	0.903271	0.631263	0.056982
O24	O	0.702444	0.631253	0.322986
O25	O	0.882846	0.779901	0.084214
O26	O	0.801443	0.779896	0.350217
O27	O	0.682018	0.779891	0.350219
O28	O	0.913711	0.779902	0.201512
O29	O	0.536359	1.045775	-0.015769
O30	O	0.837980	0.514010	0.301503
O31	O	0.989377	0.514017	0.301500
O32	O	0.950249	0.514016	0.152799
O33	O	0.424091	1.045769	0.132935
O34	O	0.575487	1.045775	0.132932
O35	O	0.778308	0.692394	0.258142
O36	O	0.844399	0.692397	0.170602
O37	O	0.708191	0.867395	0.115128
O38	O	0.642100	0.867392	0.202668
C39	C	0.719312	0.545988	0.100012
C40	C	0.730221	0.466603	0.085468
C41	C	0.448923	0.779883	0.142871
C42	C	0.368064	0.779879	0.142872
C43	C	0.594049	0.205197	0.266356
C44	C	0.604437	0.130512	0.252751
C45	C	0.673431	0.130525	0.161366
C46	C	0.663053	0.205208	0.174966
C47	C	0.623360	0.242539	0.227461
C48	C	0.692365	0.242550	0.136071
C49	C	0.681982	0.317231	0.149667
C50	C	0.642288	0.354569	0.202157
C51	C	0.612977	0.317220	0.241056
C52	C	0.732050	0.205223	0.083572
C53	C	0.761362	0.242565	0.044677
C54	C	0.750986	0.317242	0.058277
C55	C	0.711292	0.354580	0.110767
C56	C	0.780297	0.354591	0.019377
C57	C	0.769914	0.429272	0.032973
C58	C	0.700910	0.429261	0.124363
C59	C	0.071941	0.779910	0.142863
C60	C	0.154328	0.779905	0.142864
C61	C	0.220000	0.779895	0.142867
C62	C	0.302393	0.779890	0.142869
C63	C	0.925416	0.779902	0.142863
C64	C	1.006275	0.779906	0.142861
C65	C	0.625595	0.779892	-0.091139
C66	C	0.604697	0.779891	-0.170558
C67	C	0.655027	1.013797	0.185721
C68	C	0.644118	1.093182	0.200266
C69	C	0.864903	0.779897	-0.431784
C70	C	0.845243	0.779899	-0.506411
C71	C	0.713667	0.779893	-0.506390
C72	C	0.733313	0.779897	-0.431763
C73	C	0.808933	0.779898	-0.394465
C74	C	0.677342	0.779897	-0.394445
C75	C	0.696991	0.779895	-0.319823
C76	C	0.772610	0.779893	-0.282519
C77	C	0.828581	0.779896	-0.319843
C78	C	0.601728	0.779889	-0.431742
C79	C	0.545758	0.779889	-0.394423
C80	C	0.565400	0.779895	-0.319802
C81	C	0.641019	0.779893	-0.282498
C82	C	0.509428	0.779892	-0.282478
C83	C	0.529077	0.779890	-0.207856
C84	C	0.660668	0.779891	-0.207876
C85	C	0.748744	0.779893	0.376872
C86	C	0.769642	0.779894	0.456291
C87	C	0.957559	0.545998	0.100008
C88	C	1.049327	0.466616	0.085462
C89	C	0.780887	0.545989	0.334018
C90	C	0.812693	0.466604	0.398893
C91	C	1.019133	0.545999	0.334014
C92	C	1.131799	0.466617	0.398887
C93	C	0.355206	1.013786	-0.048280
C94	C	0.242540	1.093168	-0.113154
C95	C	0.416780	1.013787	0.185725
C96	C	0.325013	1.093169	0.200271
C97	C	0.593452	1.013796	-0.048284
C98	C	0.561646	1.093181	-0.113159
C99	C	1.033874	0.429335	0.032930
C100	C	1.120086	0.354758	0.019247
C101	C	1.221752	0.317458	0.058102
C102	C	1.237203	0.354746	0.110636
C103	C	1.150989	0.429327	0.124314
C104	C	0.886178	0.429326	0.475060
C105	C	0.916061	0.354746	0.536026
C106	C	0.872464	0.317440	0.520822
C107	C	0.798970	0.354726	0.444647
C108	C	0.769082	0.429309	0.383684
C109	C	1.219214	0.429341	0.383657
C110	C	1.325080	0.354764	0.444608
C111	C	1.343527	0.317460	0.520786
C112	C	1.256101	0.354744	0.536015
C113	C	1.150238	0.429324	0.475067
C114	C	0.155123	1.130453	-0.097922
C115	C	0.049255	1.205053	-0.158868
C116	C	0.030807	1.242361	-0.235046
C117	C	0.118233	1.205073	-0.250276
C118	C	0.224099	1.130479	-0.189330
C119	C	0.340463	1.130457	0.252797
C120	C	0.254242	1.205055	0.266463
C121	C	0.152575	1.242358	0.227607
C122	C	0.137125	1.205067	0.175075
C123	C	0.223343	1.130475	0.161405
C124	C	0.605263	1.130463	-0.097932
C125	C	0.575397	1.205044	-0.158883
C126	C	0.501909	1.242346	-0.235061
C127	C	0.458292	1.205056	-0.250288
C128	C	0.488164	1.130472	-0.189338
H129	H	0.633830	0.415383	0.213223
H130	H	0.054337	1.235450	0.143441
H131	H	0.170126	1.100081	-0.035900
H132	H	0.709250	0.459651	0.321666
H133	H	0.210750	1.100117	0.118636
O134	O	0.946464	0.779900	-0.391545
H135	H	0.982089	0.779897	-0.430029
H136	H	0.896809	0.256710	0.570469
O137	O	0.743243	0.124680	0.068901
H138	H	0.829408	0.056760	0.085058
H139	H	0.580562	0.100113	0.284426
H140	H	0.890828	0.779897	-0.536791
O141	O	0.469693	1.322797	-0.300792
H142	H	0.411267	1.342475	-0.356326
H143	H	1.079068	0.459665	0.487477
H144	H	0.705746	0.100124	0.118623
H145	H	0.793676	0.212164	0.001933
O146	O	0.751960	0.314476	0.428259
H147	H	0.695830	0.352926	0.365054
O148	O	0.551293	0.245402	0.323016
H149	H	0.613488	0.231148	0.370874
O150	O	0.632100	0.779901	-0.546621
H151	H	0.627832	0.779911	-0.604783
H152	H	0.266842	1.235405	0.309241
H153	H	1.204213	0.459703	0.321633
O154	O	1.167677	0.469516	0.180988
H155	H	1.090655	0.527646	0.183978
O156	O	0.995335	0.314534	0.618179
H157	H	1.067577	0.232253	0.639292
H158	H	0.812605	0.324194	-0.023370
O159	O	-0.045029	1.245246	-0.142437
H160	H	-0.014403	1.206750	-0.079229
O161	O	1.419367	0.314547	0.428172
H162	H	1.388747	0.353005	0.364957
O163	O	1.314735	0.237018	0.043343
H164	H	1.382105	0.169049	0.098931
O165	O	1.457713	0.237008	0.586520
H166	H	1.515395	0.217351	0.563122
H167	H	0.585738	0.779885	-0.492502
O168	O	0.468725	0.779886	-0.167586
H169	H	0.380241	0.848191	-0.203540
H170	H	0.398455	1.235439	-0.312319
H171	H	0.447866	0.779881	-0.312852
O172	O	0.464186	0.779906	-0.434660
H173	H	0.489558	0.711606	-0.398689
O174	O	-0.083385	1.322827	-0.300772
H175	H	-0.119558	1.294199	-0.305965
O176	O	1.276015	0.314486	0.618180
H177	H	1.315971	0.328788	0.656990
H178	H	0.793781	0.459677	0.001300
H179	H	0.921687	0.459693	0.487454
O180	O	0.658129	0.469537	0.180993
H181	H	0.575032	0.503461	0.160836
H182	H	0.722237	0.779902	-0.177510
O183	O	0.570196	0.357496	0.297687
H184	H	0.487100	0.391420	0.277529
H185	H	0.103199	1.235458	-0.312307
H186	H	0.788610	0.779887	-0.221755
H187	H	0.295272	1.100122	-0.201742
H188	H	0.423240	1.100091	0.284446
O189	O	0.910142	0.779898	-0.279605
H190	H	0.945768	0.779895	-0.318089
O191	O	1.346863	0.314506	0.152538
H192	H	1.343135	0.352959	0.191364
O193	O	0.059597	1.322782	0.242376
H194	H	0.087437	1.342423	0.285444
O195	O	0.924220	0.469569	-0.008989
H196	H	0.927971	0.431117	-0.047822
O197	O	1.103414	0.314540	-0.037409
H198	H	1.018239	0.352998	-0.062113
H199	H	0.665100	1.100104	-0.035908
O200	O	0.622443	1.245259	-0.142452
H201	H	0.678546	1.206798	-0.079238
H202	H	0.452637	1.100125	-0.201747
