data_functionalizedCrystal
_audit_creation_method	'MofGen! by Chris Wilmer'
_symmetry_space_group_name_H-M	'P1'
_symmetry_Int_Tables_number	1
_symmetry_cell_setting	triclinic
loop_
_symmetry_equiv_pos_as_xyz
  x,y,z
_cell_length_a	10.723023
_cell_length_b	19.188924
_cell_length_c	9.798715
_cell_angle_alpha	89.994789
_cell_angle_beta	89.996770
_cell_angle_gamma	83.804756
loop_
_atom_site_label
_atom_site_type_symbol
_atom_site_fract_x
_atom_site_fract_y
_atom_site_fract_z
O1	O	1.655151	0.097920	-0.113484
O2	O	1.291803	0.107293	-0.113490
O3	O	1.483967	0.001019	-0.113471
O4	O	1.462987	0.204194	-0.113504
O5	O	1.483953	0.001018	0.113511
O6	O	1.291789	0.107293	0.113492
O7	O	1.655137	0.097919	0.113498
Zn8	Zn	1.473461	0.102606	0.149533
Zn9	Zn	1.473479	0.102607	-0.149526
O10	O	1.462973	0.204194	0.113479
C11	C	1.245311	0.106611	-0.000000
C12	C	1.106799	0.104571	-0.000002
C13	C	1.045039	0.103661	0.117581
C14	C	0.901879	0.101552	0.117582
C15	C	1.483282	-0.024997	0.000021
C16	C	1.481247	-0.102515	0.000025
C17	C	1.480305	-0.138920	-0.123703
C18	C	1.478375	-0.211755	-0.123714
C19	C	1.477412	-0.248184	0.000011
C20	C	1.478347	-0.211770	0.123756
C21	C	1.480265	-0.138935	0.123763
N22	N	1.545403	-0.367406	0.092098
N23	N	1.543584	-0.436596	0.092083
C24	C	1.471632	-0.467631	-0.000002
N25	N	1.401583	-0.426863	-0.092092
N26	N	1.403408	-0.357667	-0.092081
C27	C	1.475332	-0.327161	0.000018
C28	C	1.468596	-0.583012	-0.123750
C29	C	1.466658	-0.655848	-0.123755
C30	C	1.466643	-0.655863	0.123718
C31	C	1.468568	-0.583027	0.123719
C32	C	1.469550	-0.546607	-0.000018
C33	C	1.701629	0.098602	0.000005
C34	C	1.840141	0.100642	-0.000002
C35	C	1.463658	0.230210	-0.000017
C36	C	1.465693	0.307728	-0.000029
N37	N	1.473457	0.102606	0.353633
N38	N	1.473493	0.102602	-0.353625
C39	C	1.554145	0.057787	0.421418
C40	C	1.554165	0.057785	0.578581
H41	H	1.098149	0.104439	0.218247
C42	C	1.380164	0.154444	0.567651
H43	H	1.329561	0.182564	0.630572
H44	H	1.328265	0.129127	0.511919
H45	H	1.425098	0.183635	0.511901
C46	C	0.830144	0.100496	0.253583
H47	H	0.887448	0.101346	0.327353
H48	H	0.789103	0.059107	0.258665
H49	H	0.769634	0.140398	0.258646
H50	H	1.404387	0.140972	0.411950
H51	H	0.893245	0.101429	-0.100674
C52	C	1.035070	0.103518	-0.136002
H53	H	1.092383	0.104359	-0.209773
H54	H	0.974556	0.143413	-0.141076
H55	H	0.994036	0.062122	-0.141072
C56	C	1.647451	0.005950	0.342654
H57	H	1.698071	-0.022172	0.405562
H58	H	1.699335	0.031269	0.286893
H59	H	1.602504	-0.023240	0.286931
H60	H	1.481101	-0.109271	-0.224460
H61	H	1.469346	-0.553387	0.224473
H62	H	1.477600	-0.241401	-0.224471
H63	H	1.477560	-0.241435	0.224494
C64	C	1.647488	0.005945	0.657320
H65	H	1.635252	0.012741	0.752621
H66	H	1.730802	0.013806	0.633951
H67	H	1.633964	-0.040699	0.633979
H68	H	1.481027	-0.109295	0.224520
H69	H	1.469388	-0.553356	-0.224505
H70	H	1.465885	-0.685487	-0.224514
H71	H	1.465850	-0.685522	0.224457
