data_functionalizedCrystal
_audit_creation_method	'MofGen! by Chris Wilmer'
_symmetry_space_group_name_H-M	'P1'
_symmetry_Int_Tables_number	1
_symmetry_cell_setting	triclinic
loop_
_symmetry_equiv_pos_as_xyz
  x,y,z
_cell_length_a	31.640172
_cell_length_b	27.440280
_cell_length_c	31.640172
_cell_angle_alpha	59.996782
_cell_angle_beta	60.004780
_cell_angle_gamma	90.008130
loop_
_atom_site_label
_atom_site_type_symbol
_atom_site_fract_x
_atom_site_fract_y
_atom_site_fract_z
Zr1	Zr	0.407238	-0.063889	0.462541
O2	O	0.339752	-0.141717	0.550725
O3	O	0.427918	-0.040031	0.374370
O4	O	0.427919	-0.141704	0.462547
O5	O	0.339760	0.040160	0.462539
O6	O	0.497476	-0.141694	0.462538
O7	O	0.339751	-0.040043	0.462547
O8	O	0.497475	0.040182	0.304805
O9	O	0.339761	-0.141716	0.620272
O10	O	0.488658	-0.029847	0.410625
O11	O	0.436755	0.030000	0.410626
O12	O	0.436755	-0.089708	0.514443
O13	O	0.384852	-0.029861	0.514443
Zr14	Zr	0.518188	0.064043	0.462514
Zr15	Zr	0.518174	-0.063871	0.462527
Zr16	Zr	0.407253	0.064026	0.462528
Zr17	Zr	0.407253	-0.063887	0.573462
Zr18	Zr	0.518173	0.064041	0.351594
O19	O	0.497508	0.040185	0.550686
O20	O	0.497488	-0.141693	0.550705
O21	O	0.339772	0.040161	0.550706
O22	O	0.585675	0.141871	0.374331
O23	O	0.585654	-0.040007	0.374350
O24	O	0.427939	0.141847	0.374351
O25	O	0.585666	-0.040005	0.462516
O26	O	0.497508	0.141859	0.462509
O27	O	0.427951	0.141848	0.462518
O28	O	0.585675	0.040197	0.462508
O29	O	0.427940	-0.141702	0.620261
O30	O	0.497486	0.141856	0.304795
O31	O	0.585665	0.141870	0.304784
O32	O	0.585653	0.040195	0.304794
O33	O	0.339773	-0.040041	0.620262
O34	O	0.427952	-0.040028	0.620251
O35	O	0.488671	0.089862	0.410613
O36	O	0.540574	0.030016	0.410612
O37	O	0.488672	-0.029845	0.514430
O38	O	0.436769	0.030001	0.514431
C39	C	0.323950	0.000056	0.462545
C40	C	0.276855	0.000049	0.462551
C41	C	0.462694	0.000075	0.323784
C42	C	0.462688	0.000075	0.276695
C43	C	0.462731	0.160078	0.462512
C44	C	0.462737	0.214381	0.462506
C45	C	0.011941	0.031336	0.408330
C46	C	-0.165044	0.031348	0.408320
O47	O	-0.164889	0.057944	0.362232
N48	N	-0.214266	0.000100	0.462511
C49	C	-0.219241	-0.031149	0.516709
O50	O	-0.265168	-0.057722	0.562802
C51	C	-0.042256	-0.031157	0.516719
C52	C	0.006965	0.000087	0.462524
C53	C	0.061161	0.062579	0.354140
C54	C	0.105404	0.062573	0.354143
C55	C	0.100428	0.031324	0.408337
C56	C	0.051209	0.000081	0.462527
C57	C	-0.047232	-0.062403	0.570916
C58	C	-0.002981	-0.062401	0.570914
C59	C	0.046241	-0.031156	0.516719
C60	C	0.090476	-0.031173	0.516724
N61	N	0.139698	0.000074	0.462533
C62	C	0.144674	0.031323	0.408339
C63	C	-0.312159	-0.031144	0.516700
C64	C	-0.356405	-0.031143	0.516698
C65	C	-0.302204	0.031355	0.408309
C66	C	-0.257958	0.031350	0.408312
C67	C	-0.262936	0.000104	0.462509
C68	C	0.237586	0.031308	0.408350
C69	C	0.281831	0.031297	0.408358
C70	C	0.227627	-0.031198	0.516747
C71	C	0.183386	-0.031190	0.516739
C72	C	0.188369	0.000067	0.462536
O73	O	0.090360	-0.057750	0.562788
O74	O	0.190606	0.057903	0.362253
C75	C	-0.032302	0.031342	0.408327
C76	C	-0.081522	0.000099	0.462518
C77	C	-0.086498	-0.031149	0.516711
C78	C	-0.125768	0.000100	0.462516
C79	C	-0.120791	0.031349	0.408322
C80	C	-0.071569	0.062597	0.354131
C81	C	-0.027326	0.062591	0.354134
C82	C	-0.135720	-0.062397	0.570903
C83	C	-0.179961	-0.062389	0.570895
C84	C	-0.174985	-0.031141	0.516702
C85	C	0.601477	0.000098	0.462510
C86	C	0.648572	0.000106	0.462504
C87	C	0.462695	-0.159924	0.462544
C88	C	0.462689	-0.214227	0.462550
C89	C	0.435606	0.519832	0.516729
C90	C	0.435602	0.570850	0.516733
O91	O	0.412545	0.570664	0.562821
N92	N	0.462694	0.627614	0.462542
C93	C	0.489789	0.633358	0.408344
O94	O	0.512833	0.686325	0.362250
C95	C	0.489791	0.582341	0.408341
C96	C	0.462701	0.525578	0.462536
C97	C	0.408518	0.463072	0.570920
C98	C	0.408523	0.412057	0.570916
C99	C	0.435618	0.417802	0.516722
C100	C	0.462706	0.474563	0.462532
C101	C	0.516883	0.588086	0.354144
C102	C	0.516881	0.537062	0.354146
C103	C	0.489791	0.480299	0.408340
C104	C	0.489806	0.429294	0.408335
N105	N	0.462713	0.372530	0.462526
C106	C	0.435619	0.366784	0.516720
C107	C	0.489784	0.740497	0.408353
C108	C	0.489786	0.791514	0.408355
C109	C	0.435597	0.729003	0.516745
C110	C	0.435598	0.677985	0.516742
C111	C	0.462691	0.683734	0.462545
C112	C	0.435633	0.259652	0.516708
C113	C	0.435643	0.208636	0.516700
C114	C	0.489830	0.271151	0.408311
C115	C	0.489822	0.322164	0.408319
C116	C	0.462720	0.316410	0.462522
O117	O	0.512850	0.429434	0.362270
O118	O	0.412574	0.313816	0.562805
C119	C	0.489816	-0.031157	-0.015347
C120	C	0.489827	-0.031156	-0.192343
O121	O	0.512887	-0.057703	-0.215248
N122	N	0.462734	0.000082	-0.214472
C123	C	0.435638	0.031325	-0.192352
O124	O	0.412598	0.057900	-0.215239
C125	C	0.435631	0.031328	-0.015360
C126	C	0.462722	0.000083	0.006771
C127	C	0.516906	-0.062399	0.006783
C128	C	0.516900	-0.062401	0.051032
C129	C	0.489806	-0.031161	0.073150
C130	C	0.462717	0.000080	0.051020
C131	C	0.408539	0.062574	0.006756
C132	C	0.408541	0.062574	0.051006
C133	C	0.435632	0.031329	0.073137
C134	C	0.435617	0.031318	0.117386
N135	N	0.462711	0.000080	0.139515
C136	C	0.489805	-0.031160	0.117397
C137	C	0.435643	0.031320	-0.285274
C138	C	0.435644	0.031319	-0.329521
C139	C	0.489834	-0.031162	-0.329510
C140	C	0.489830	-0.031163	-0.285259
C141	C	0.462737	0.000082	-0.263145
C142	C	0.489791	-0.031163	0.210323
C143	C	0.489782	-0.031165	0.254577
C144	C	0.435595	0.031318	0.254560
C145	C	0.435602	0.031317	0.210312
C146	C	0.462704	0.000076	0.188193
O147	O	0.412574	0.057855	0.140314
O148	O	0.512851	-0.057720	0.140283
C149	C	0.489822	-0.031154	-0.059596
C150	C	0.462732	0.000088	-0.081726
C151	C	0.435638	0.031327	-0.059608
C152	C	0.462733	0.000086	-0.125973
C153	C	0.489828	-0.031153	-0.148091
C154	C	0.516921	-0.062391	-0.125963
C155	C	0.516916	-0.062394	-0.081714
C156	C	0.408545	0.062565	-0.081737
C157	C	0.408552	0.062565	-0.125985
C158	C	0.435646	0.031325	-0.148103
C159	C	0.462732	0.000079	0.601272
C160	C	0.462739	0.000080	0.648361
C161	C	0.601457	0.000097	0.323766
C162	C	0.648546	0.000103	0.276672
C163	C	0.462712	0.160076	0.323767
C164	C	0.462712	0.214379	0.276673
C165	C	0.601476	0.160098	0.323750
C166	C	0.648570	0.214407	0.276650
C167	C	0.323951	-0.159944	0.601306
C168	C	0.276856	-0.214253	0.648406
C169	C	0.323969	0.000058	0.601290
C170	C	0.276880	0.000051	0.648384
C171	C	0.462714	-0.159922	0.601288
C172	C	0.462715	-0.214225	0.648382
C173	C	0.643559	-0.031147	0.254562
C174	C	0.687800	-0.031152	0.210318
C175	C	0.737026	0.000096	0.188181
C176	C	0.742012	0.031346	0.210295
C177	C	0.697772	0.031348	0.254541
C178	C	0.489812	0.271133	0.254551
C179	C	0.489809	0.322160	0.210307
C180	C	0.462710	0.316433	0.188184
C181	C	0.435607	0.259673	0.210311
C182	C	0.435607	0.208647	0.254556
C183	C	0.697784	0.208672	0.254531
C184	C	0.742038	0.259697	0.210282
C185	C	0.737078	0.316456	0.188149
C186	C	0.687860	0.322190	0.210272
C187	C	0.643606	0.271166	0.254524
C188	C	0.227643	-0.208518	0.670530
C189	C	0.183388	-0.259543	0.714793
C190	C	0.188348	-0.316302	0.736928
C191	C	0.237567	-0.322036	0.714802
C192	C	0.281820	-0.271012	0.670543
C193	C	0.281867	0.031295	0.670498
C194	C	0.237627	0.031287	0.714755
C195	C	0.188400	0.000037	0.736893
C196	C	0.183414	-0.031211	0.714777
C197	C	0.227654	-0.031206	0.670525
C198	C	0.489819	-0.208478	0.670492
C199	C	0.489829	-0.259496	0.714736
C200	C	0.462732	-0.316260	0.736873
C201	C	0.435627	-0.322005	0.714759
C202	C	0.435620	-0.270988	0.670513
H203	H	0.321909	0.056742	0.364224
N204	N	0.406383	0.253500	0.186443
H205	H	0.410502	0.294440	0.155054
H206	H	0.420611	0.230946	0.168113
N207	N	0.406348	0.147445	0.278421
H208	H	0.420543	0.142666	0.244665
H209	H	0.410446	0.116005	0.309827
N210	N	0.703143	0.147459	0.278402
H211	H	0.667644	0.115999	0.309793
H212	H	0.722710	0.142734	0.244611
N213	N	0.406401	-0.383231	0.738638
H214	H	0.410520	-0.414673	0.770024
H215	H	0.368508	-0.387967	0.756973
N216	N	0.222283	-0.147305	0.646670
H217	H	0.257782	-0.115845	0.615274
H218	H	0.202708	-0.142582	0.628354
H219	H	0.012749	0.088035	0.310003
N220	N	-0.317533	-0.064855	0.575160
H221	H	-0.355430	-0.084651	0.609484
H222	H	-0.300362	-0.096267	0.577522
H223	H	0.511852	0.837730	0.364225
H224	H	0.241651	0.056761	0.364212
H225	H	0.145479	0.088013	0.310012
H226	H	0.683730	-0.056600	0.192318
N227	N	0.242910	-0.383257	0.738675
H228	H	0.280802	-0.379154	0.717946
H229	H	0.225733	-0.405787	0.783094
N230	N	-0.066206	0.096295	0.295678
H231	H	-0.101707	0.091553	0.303906
H232	H	-0.046634	0.139990	0.272007
N233	N	0.590526	0.277356	0.278376
H234	H	0.594104	0.321056	0.257636
H235	H	0.570985	0.257550	0.270674
H236	H	0.462715	0.357987	0.152156
N237	N	0.379316	0.096254	-0.057876
H238	H	0.404161	0.127700	-0.065574
H239	H	0.362155	0.116003	-0.078621
H240	H	0.773045	0.000090	0.152152
N241	N	0.379294	0.456867	0.629376
H242	H	0.362137	0.413164	0.663700
H243	H	0.404175	0.476676	0.631735
N244	N	0.140614	-0.371331	0.784656
H245	H	0.151219	-0.408161	0.795324
H246	H	0.119341	-0.371298	0.821337
H247	H	0.782098	0.056787	0.192265
H248	H	0.511879	0.275807	0.272559
H249	H	0.511850	0.745186	0.364216
H250	H	0.143316	-0.254863	0.732801
H251	H	-0.220038	-0.087838	0.615031
H252	H	0.773117	0.357998	0.152117
H253	H	-0.396480	-0.056593	0.560829
H254	H	0.413546	-0.275675	0.652516
N255	N	0.406386	0.616764	0.575194
H256	H	0.389227	0.620873	0.609523
H257	H	0.379143	0.594221	0.577567
H258	H	0.782111	0.255018	0.192273
N259	N	0.519063	-0.064849	-0.353377
H260	H	0.536231	-0.084638	-0.332651
H261	H	0.494185	-0.096263	-0.345677
H262	H	0.065221	0.088028	0.310007
H263	H	0.683829	0.368410	0.192245
H264	H	0.413535	0.056752	0.192299
N265	N	-0.204871	0.065048	0.349860
H266	H	-0.208438	0.084841	0.315531
H267	H	-0.185325	0.096461	0.347492
N268	N	0.130298	-0.064892	0.575194
H269	H	0.110743	-0.036232	0.577606
H270	H	0.110761	-0.096332	0.577583
H271	H	0.538943	0.634297	0.310012
N272	N	0.406373	0.722809	0.575199
H273	H	0.410483	0.763744	0.566973
H274	H	0.368481	0.700238	0.598867
H275	H	0.321891	-0.275688	0.652530
H276	H	0.321946	0.056747	0.652476
N277	N	0.243010	0.064993	0.738602
H278	H	0.280909	0.084793	0.717855
H279	H	0.225832	0.096400	0.730905
H280	H	0.152381	0.000038	0.772926
N281	N	0.130319	-0.064903	0.738648
H282	H	0.103054	-0.060155	0.770031
H283	H	0.126222	-0.048487	0.704852
H284	H	0.462742	-0.357797	0.772901
H285	H	-0.298159	0.056796	0.364182
H286	H	0.223587	-0.056647	0.652520
N287	N	-0.100314	-0.096100	0.629370
H288	H	-0.096743	-0.115888	0.663696
H289	H	-0.119843	-0.067406	0.631724
N290	N	0.519067	-0.253291	0.738580
H291	H	0.536226	-0.209589	0.717844
H292	H	0.494195	-0.273104	0.783000
N293	N	-0.008351	-0.096103	0.629371
H294	H	-0.046248	-0.115894	0.663698
H295	H	0.008817	-0.127518	0.631739
N296	N	0.546104	0.543263	0.295688
H297	H	0.563264	0.586964	0.261361
H298	H	0.573348	0.523467	0.293321
H299	H	0.223584	-0.056642	0.560870
H300	H	0.413583	0.162417	0.560834
N301	N	-0.141092	-0.096108	0.629357
H302	H	-0.178989	-0.115902	0.663682
H303	H	-0.123923	-0.127522	0.631719
N304	N	0.519047	-0.147258	0.646622
H305	H	0.536218	-0.151368	0.667345
H306	H	0.546282	-0.124724	0.602202
H307	H	0.386477	0.088017	0.069010
H308	H	0.413563	0.254958	0.560846
H309	H	0.538962	-0.087841	0.069046
N310	N	0.590469	-0.064851	0.278432
H311	H	0.594031	-0.084648	0.257708
H312	H	0.570931	-0.096261	0.322852
H313	H	0.386462	0.365842	0.615047
H314	H	0.511885	0.368384	0.364189
N315	N	0.519054	0.277342	0.349861
H316	H	0.514943	0.236408	0.358087
H317	H	0.504822	0.299897	0.326201
H318	H	0.511842	-0.056610	0.272596
N319	N	0.519022	-0.064858	0.186469
H320	H	0.536179	-0.084649	0.207210
H321	H	0.494145	-0.096273	0.194171
H322	H	0.413577	0.056754	-0.347530
N323	N	0.703154	0.065058	0.278384
H324	H	0.741053	0.084852	0.257642
H325	H	0.685983	0.096470	0.270677
N326	N	0.519045	0.383374	0.186445
H327	H	0.536215	0.379255	0.207172
H328	H	0.546281	0.405911	0.142025
H329	H	0.511890	-0.056605	-0.267243
N330	N	0.546132	-0.096095	-0.017069
H331	H	0.563289	-0.115883	0.003671
H332	H	0.521251	-0.127512	-0.009362
H333	H	0.413580	0.056766	-0.267273
H334	H	0.413534	0.056751	0.272578
N335	N	0.379328	0.096285	-0.017114
H336	H	0.341423	0.079901	0.016641
H337	H	0.393595	0.139984	-0.035480
H338	H	0.538981	-0.087830	-0.143976
N339	N	0.379331	0.096268	-0.149853
H340	H	0.362170	0.116058	-0.129125
H341	H	0.404218	0.127683	-0.194272
N342	N	0.546135	-0.096095	-0.057846
H343	H	0.563297	-0.115882	-0.078578
H344	H	0.573377	-0.067406	-0.065547
