data_functionalizedCrystal
_audit_creation_method	'MofGen! by Chris Wilmer'
_symmetry_space_group_name_H-M	'P1'
_symmetry_Int_Tables_number	1
_symmetry_cell_setting	triclinic
loop_
_symmetry_equiv_pos_as_xyz
  x,y,z
_cell_length_a	13.897449
_cell_length_b	19.121063
_cell_length_c	13.897441
_cell_angle_alpha	92.405670
_cell_angle_beta	89.979267
_cell_angle_gamma	92.470221
loop_
_atom_site_label
_atom_site_type_symbol
_atom_site_fract_x
_atom_site_fract_y
_atom_site_fract_z
Zn1	Zn	1.458257	-0.279567	-0.561726
Zn2	Zn	1.791591	0.053766	-0.228392
Zn3	Zn	2.124924	0.387100	0.104941
Zn4	Zn	1.451242	-0.397031	-0.407294
Zn5	Zn	1.784575	-0.063697	-0.073961
Zn6	Zn	2.117908	0.269636	0.259372
Zn7	Zn	1.296944	-0.279601	-0.400446
Zn8	Zn	1.630278	0.053733	-0.067113
Zn9	Zn	1.963611	0.387066	0.266221
Zn10	Zn	1.290021	-0.396984	-0.568544
Zn11	Zn	1.623354	-0.063651	-0.235211
Zn12	Zn	1.956688	0.269682	0.098122
O13	O	1.374116	-0.338296	-0.484503
O14	O	1.707449	-0.004962	-0.151169
O15	O	2.040783	0.328371	0.182164
O16	O	1.592308	-0.295154	-0.541253
O17	O	1.925641	0.038179	-0.207919
O18	O	2.258975	0.371512	0.125414
O19	O	1.430735	-0.381487	-0.271406
O20	O	1.764068	-0.048153	0.061927
O21	O	2.097402	0.285180	0.395260
O22	O	1.324176	-0.181312	-0.416120
O23	O	1.657510	0.152022	-0.082787
O24	O	1.990843	0.485355	0.250546
O25	O	1.587154	-0.381454	-0.427793
O26	O	1.920487	-0.048121	-0.094459
O27	O	2.253820	0.285213	0.238874
O28	O	1.442692	-0.181287	-0.534612
O29	O	1.776026	0.152046	-0.201279
O30	O	2.109359	0.485380	0.132055
O31	O	1.317374	-0.295211	-0.266375
O32	O	1.650707	0.038122	0.066959
O33	O	1.984040	0.371455	0.400292
O34	O	1.161045	-0.295166	-0.422732
O35	O	1.494378	0.038167	-0.089399
O36	O	1.827711	0.371500	0.243935
O37	O	1.312377	-0.381375	-0.702620
O38	O	1.645710	-0.048042	-0.369286
O39	O	1.979043	0.285291	-0.035953
O40	O	1.155958	-0.381408	-0.546233
O41	O	1.489292	-0.048075	-0.212900
O42	O	1.822625	0.285259	0.120433
O43	O	1.435979	-0.295109	-0.697610
O44	O	1.769312	0.038224	-0.364277
O45	O	2.102646	0.371557	-0.030943
O46	O	1.424022	-0.495309	-0.434404
O47	O	1.757355	-0.161976	-0.101071
O48	O	2.090689	0.171358	0.232262
O49	O	1.305574	-0.495275	-0.552874
O50	O	1.638907	-0.161942	-0.219541
O51	O	1.972241	0.171392	0.113793
C52	C	1.123502	-0.338286	-0.484480
C53	C	1.456836	-0.004953	-0.151147
C54	C	1.790169	0.328380	0.182187
C55	C	1.016288	-0.338299	-0.484494
C56	C	1.349621	-0.004966	-0.151161
C57	C	1.682954	0.328367	0.182172
C58	C	1.363311	-0.520776	-0.495143
C59	C	1.696645	-0.187443	-0.161810
C60	C	2.029978	0.145891	0.171524
C61	C	1.358777	-0.598842	-0.499727
C62	C	1.692111	-0.265508	-0.166394
C63	C	2.025444	0.067825	0.166939
C64	C	0.819992	-0.338302	-0.484520
C65	C	1.153326	-0.004968	-0.151186
C66	C	1.486659	0.328365	0.182147
C67	C	0.929225	-0.338298	-0.484503
C68	C	1.262558	-0.004965	-0.151169
C69	C	1.595892	0.328369	0.182164
C70	C	1.418365	-0.635512	-0.440252
C71	C	1.751698	-0.302178	-0.106918
C72	C	2.085031	0.031155	0.226415
C73	C	1.414106	-0.708863	-0.444569
C74	C	1.747440	-0.375529	-0.111235
C75	C	2.080773	-0.042196	0.222098
C76	C	1.350255	-0.745543	-0.508358
C77	C	1.683588	-0.412209	-0.175024
C78	C	2.016922	-0.078876	0.158309
C79	C	1.290665	-0.708868	-0.567840
C80	C	1.623998	-0.375534	-0.234507
C81	C	1.957332	-0.042201	0.098827
C82	C	1.294929	-0.635518	-0.563527
C83	C	1.628262	-0.302185	-0.230194
C84	C	1.961596	0.031149	0.103140
C85	C	1.334297	-0.967012	-0.524468
C86	C	1.667630	-0.633679	-0.191135
C87	C	2.000964	-0.300345	0.142199
C88	C	1.330035	-1.040367	-0.528775
C89	C	1.663369	-0.707034	-0.195441
C90	C	1.996702	-0.373700	0.137892
C91	C	1.453478	-1.040357	-0.405504
C92	C	1.786812	-0.707024	-0.072170
C93	C	2.120145	-0.373690	0.261163
C94	C	1.457733	-0.967006	-0.401192
C95	C	1.791066	-0.633672	-0.067859
C96	C	2.124399	-0.300339	0.265474
C97	C	1.398147	-0.930337	-0.460678
C98	C	1.731480	-0.597004	-0.127345
C99	C	2.064813	-0.263671	0.205988
C100	C	1.345898	-0.820519	-0.512770
C101	C	1.679232	-0.487186	-0.179437
C102	C	2.012565	-0.153853	0.153897
C103	C	1.402509	-0.855362	-0.456270
C104	C	1.735842	-0.522029	-0.122937
C105	C	2.069175	-0.188695	0.210396
C106	C	1.625708	-0.338306	-0.484526
C107	C	1.959042	-0.004972	-0.151192
C108	C	2.292375	0.328361	0.182141
C109	C	1.732922	-0.338310	-0.484536
C110	C	2.066255	-0.004976	-0.151202
C111	C	2.399589	0.328357	0.182131
C112	C	1.374188	-0.338234	-0.736092
C113	C	1.707522	-0.004900	-0.402759
C114	C	2.040855	0.328433	-0.069425
C115	C	1.374219	-0.338207	-0.843305
C116	C	1.707552	-0.004874	-0.509971
C117	C	2.040886	0.328460	-0.176638
C118	C	1.384989	-0.155103	-0.473842
C119	C	1.718323	0.178231	-0.140508
C120	C	2.051656	0.511564	0.192825
C121	C	1.389623	-0.077037	-0.469299
C122	C	1.722956	0.256296	-0.135965
C123	C	2.056289	0.589630	0.197368
C124	C	1.374248	-0.338160	-1.039597
C125	C	1.707581	-0.004826	-0.706264
C126	C	2.040915	0.328507	-0.372930
C127	C	1.374229	-0.338188	-0.930366
C128	C	1.707562	-0.004855	-0.597033
C129	C	2.040895	0.328479	-0.263699
C130	C	1.374103	-0.338307	-0.233889
C131	C	1.707436	-0.004973	0.099444
C132	C	2.040769	0.328360	0.432778
C133	C	1.374271	-0.338135	-0.126665
C134	C	1.707604	-0.004802	0.206668
C135	C	2.040937	0.328531	0.540001
H136	H	1.470355	-0.605652	-0.388304
H137	H	1.803689	-0.272318	-0.054970
H138	H	2.137022	0.061015	0.278363
H139	H	1.509726	-0.937142	-0.349250
H140	H	1.843059	-0.603809	-0.015917
H141	H	2.176392	-0.270476	0.317416
Br142	Br	1.489168	-0.805581	-0.369708
Br143	Br	1.822501	-0.472248	-0.036375
Br144	Br	2.155834	-0.138914	0.296958
Br145	Br	1.534345	-1.090125	-0.324782
Br146	Br	1.867679	-0.756792	0.008551
Br147	Br	2.201012	-0.423458	0.341885
Br148	Br	1.253430	-0.917257	-0.605200
Br149	Br	1.586763	-0.583923	-0.271867
Br150	Br	1.920097	-0.250590	0.061467
Br151	Br	1.243358	-1.090147	-0.615335
Br152	Br	1.576691	-0.756814	-0.282001
Br153	Br	1.910024	-0.423480	0.051332
Br154	Br	1.204017	-0.758647	-0.654420
Br155	Br	1.537350	-0.425314	-0.321087
Br156	Br	1.870683	-0.091980	0.012246
Br157	Br	1.214063	-0.585751	-0.644254
Br158	Br	1.547397	-0.252417	-0.310921
Br159	Br	1.880730	0.080916	0.022413
H160	H	1.462628	-0.738716	-0.396136
H161	H	1.795961	-0.405383	-0.062803
H162	H	2.129295	-0.072049	0.270530
H163	H	1.293908	-0.850392	-0.564705
H164	H	1.627242	-0.517059	-0.231372
H165	H	1.960575	-0.183726	0.101961
