data_functionalizedCrystal
_audit_creation_method	'MofGen! by Chris Wilmer'
_symmetry_space_group_name_H-M	'P1'
_symmetry_Int_Tables_number	1
_symmetry_cell_setting	triclinic
loop_
_symmetry_equiv_pos_as_xyz
  x,y,z
_cell_length_a	25.639239
_cell_length_b	17.639504
_cell_length_c	25.639234
_cell_angle_alpha	78.758249
_cell_angle_beta	90.024584
_cell_angle_gamma	78.779592
loop_
_atom_site_label
_atom_site_type_symbol
_atom_site_fract_x
_atom_site_fract_y
_atom_site_fract_z
Zn1	Zn	-0.046873	-1.208487	0.457521
Zn2	Zn	-0.134317	-1.208360	0.370068
Zn3	Zn	-0.064527	-1.076289	0.352387
Zn4	Zn	-0.151935	-1.076217	0.439768
O5	O	-0.099413	-1.142338	0.404936
O6	O	-0.043711	-1.319098	0.460749
O7	O	-0.125075	-1.190818	0.294554
O8	O	0.010991	-1.093908	0.366364
O9	O	-0.107956	-1.319005	0.396498
O10	O	0.023962	-1.191034	0.443605
O11	O	-0.073800	-1.093785	0.281565
O12	O	-0.090883	-0.965652	0.349150
O13	O	-0.137982	-1.093786	0.515291
O14	O	-0.155101	-0.965599	0.413348
O15	O	-0.060794	-1.190964	0.528334
O16	O	-0.209831	-1.190748	0.379284
O17	O	-0.222774	-1.093663	0.430492
C18	C	-0.126820	-0.936941	0.377404
C19	C	-0.138557	-0.849071	0.365639
C20	C	-0.010196	-0.560291	0.494440
C21	C	-0.021238	-0.477724	0.483373
C22	C	-0.088026	-0.477649	0.416372
C23	C	-0.076991	-0.560218	0.427435
C24	C	-0.038075	-0.601533	0.466469
C25	C	-0.104870	-0.601459	0.399464
C26	C	-0.093834	-0.684021	0.410524
C27	C	-0.054919	-0.725341	0.449554
C28	C	-0.027039	-0.684094	0.477528
C29	C	-0.143783	-0.560143	0.360428
C30	C	-0.171662	-0.601384	0.332457
C31	C	-0.160629	-0.683947	0.343519
C32	C	-0.121714	-0.725268	0.382550
C33	C	-0.188509	-0.725195	0.315545
C34	C	-0.177473	-0.807756	0.326605
C35	C	-0.110678	-0.807830	0.393610
C36	C	-0.235273	-1.142205	0.404894
C37	C	-0.293385	-1.142221	0.404904
C38	C	-0.646963	-1.193022	0.378346
C39	C	-0.701563	-1.193053	0.378358
O40	O	-0.724049	-1.236108	0.355733
N41	N	-0.735633	-1.142477	0.404989
C42	C	-0.715100	-1.091873	0.431616
O43	O	-0.749093	-1.048858	0.454270
C44	C	-0.660501	-1.091847	0.431608
C45	C	-0.626433	-1.142421	0.404970
C46	C	-0.612896	-1.243592	0.351711
C47	C	-0.558300	-1.243560	0.351699
C48	C	-0.537770	-1.192959	0.378323
C49	C	-0.571837	-1.142389	0.404958
C50	C	-0.639968	-1.041248	0.458238
C51	C	-0.585364	-1.041226	0.458227
C52	C	-0.551297	-1.091800	0.431589
C53	C	-0.496711	-1.091755	0.431570
N54	N	-0.462641	-1.142331	0.404938
C55	C	-0.483170	-1.192933	0.378315
C56	C	-0.829763	-1.091933	0.431632
C57	C	-0.884362	-1.091954	0.431638
C58	C	-0.870821	-1.193135	0.378380
C59	C	-0.816221	-1.193109	0.378371
C60	C	-0.795693	-1.142509	0.405000
C61	C	-0.368515	-1.192861	0.378291
C62	C	-0.313915	-1.192823	0.378280
C63	C	-0.327460	-1.091645	0.431540
C64	C	-0.382056	-1.091680	0.431549
C65	C	-0.402581	-1.142295	0.404924
O66	O	-0.474187	-1.048724	0.454185
O67	O	-0.449171	-1.235948	0.355670
C68	C	0.036981	-1.142493	0.404992
C69	C	0.095104	-1.142559	0.405016
C70	C	-0.099384	-1.142381	0.541315
C71	C	-0.099372	-1.142399	0.599431
C72	C	-0.071892	-0.348538	0.432574
C73	C	-0.060144	-0.436408	0.444346
C74	C	-0.099398	-1.142341	0.269094
C75	C	-0.099242	-1.142476	0.210998
C76	C	-0.126025	-1.192945	0.857384
C77	C	-0.126037	-1.192937	0.802778
O78	O	-0.148761	-1.235875	0.780284
N79	N	-0.099344	-1.142417	0.768708
C80	C	-0.072642	-1.091896	0.789244
O81	O	-0.049939	-1.048924	0.755250
C82	C	-0.072634	-1.091901	0.843848
C83	C	-0.099324	-1.142430	0.877917
C84	C	-0.152713	-1.243469	0.891452
C85	C	-0.152700	-1.243478	0.946054
C86	C	-0.125999	-1.192963	0.966587
C87	C	-0.099311	-1.142439	0.932519
C88	C	-0.045935	-1.041377	0.864383
C89	C	-0.045929	-1.041386	0.918991
C90	C	-0.072619	-1.091915	0.953060
C91	C	-0.072596	-1.091933	1.007654
N92	N	-0.099289	-1.142453	1.041725
C93	C	-0.125990	-1.192968	1.021191
C94	C	-0.072663	-1.091889	0.674572
C95	C	-0.072668	-1.091887	0.619970
C96	C	-0.126064	-1.192927	0.633508
C97	C	-0.126055	-1.192932	0.688112
C98	C	-0.099356	-1.142409	0.708643
C99	C	-0.125961	-1.192984	1.135859
C100	C	-0.125943	-1.192991	1.190465
C101	C	-0.072550	-1.091949	1.176922
C102	C	-0.072565	-1.091944	1.122320
C103	C	-0.099274	-1.142465	1.101791
O104	O	-0.049886	-1.049014	1.030186
O105	O	-0.148695	-1.235926	1.055190
H106	H	0.021491	-0.593932	0.526227
H107	H	0.001470	-0.444149	0.506151
C108	C	-0.893413	-1.248805	0.349098
N109	N	-0.910431	-1.290734	0.327045
C110	C	-0.807187	-1.036268	0.460931
N111	N	-0.790185	-0.994345	0.483002
H112	H	-0.147806	-1.234058	0.616780
C113	C	-0.208143	-0.853124	0.295837
N114	N	-0.231245	-0.887295	0.272661
C115	C	-0.562786	-0.985560	0.487523
N116	N	-0.545782	-0.943632	0.509586
H117	H	-0.912097	-1.050765	0.453323
C118	C	-0.276443	-1.248456	0.348972
N119	N	-0.248222	-1.290357	0.326897
C120	C	-0.419532	-1.036045	0.460850
N121	N	-0.447754	-0.994145	0.482925
H122	H	-0.045932	-0.792568	0.458557
H123	H	-0.147706	-1.234128	1.119151
C124	C	-0.155420	-1.248511	0.725582
N125	N	-0.177541	-1.290374	0.753803
H126	H	0.004648	-0.717735	0.509315
H127	H	-0.152756	-0.492916	0.351412
H128	H	-0.788486	-1.234291	0.356681
C129	C	-0.016577	-0.985786	0.826917
N130	N	0.005536	-0.943909	0.798699
C131	C	-0.043202	-1.036364	1.084844
N132	N	-0.021090	-0.994494	1.056619
C133	C	-0.304867	-1.035989	0.460827
N134	N	-0.287847	-0.994073	0.482890
C135	C	-0.016555	-0.985808	0.941571
N136	N	0.005572	-0.943949	0.958578
C137	C	-0.043302	-1.036308	0.582500
N138	N	-0.021185	-0.994440	0.554279
C139	C	-0.043280	-1.036317	0.697152
N140	N	-0.021149	-0.994461	0.714157
C141	C	-0.182074	-1.299063	0.868878
N142	N	-0.204183	-1.340951	0.851881
H143	H	-0.174436	-1.284622	0.973789
C144	C	-0.635469	-1.299259	0.322417
N145	N	-0.652468	-1.341185	0.300347
H146	H	-0.667697	-1.000062	0.479926
C147	C	-0.043181	-1.036384	1.199519
N148	N	-0.021063	-0.994529	1.216540
C149	C	-0.520833	-1.299189	0.322390
N150	N	-0.492616	-1.341090	0.300311
C151	C	-0.214469	-0.555929	0.289521
N152	N	-0.246713	-0.521693	0.257183
H153	H	-0.078991	-0.841470	0.425397
H154	H	-0.119709	-0.443999	0.384589
H155	H	-0.147677	-1.234141	1.218203
C156	C	-0.231312	-0.679737	0.272606
N157	N	-0.263552	-0.645499	0.240264
C158	C	-0.391085	-1.248535	0.348998
N159	N	-0.408085	-1.290464	0.326931
