data_functionalizedCrystal
_audit_creation_method	'MofGen! by Chris Wilmer'
_symmetry_space_group_name_H-M	'P1'
_symmetry_Int_Tables_number	1
_symmetry_cell_setting	triclinic
loop_
_symmetry_equiv_pos_as_xyz
  x,y,z
_cell_length_a	23.532407
_cell_length_b	23.532407
_cell_length_c	10.065918
_cell_angle_alpha	99.889985
_cell_angle_beta	99.888156
_cell_angle_gamma	82.848712
loop_
_atom_site_label
_atom_site_type_symbol
_atom_site_fract_x
_atom_site_fract_y
_atom_site_fract_z
O1	O	0.762668	0.076538	0.113423
O2	O	1.262668	0.576538	0.613423
O3	O	0.596806	0.086543	0.113447
O4	O	1.096806	0.586543	0.613447
O5	O	0.684737	-0.001393	0.113409
O6	O	1.184737	0.498607	0.613409
O7	O	0.674737	0.164474	0.113460
O8	O	1.174737	0.664474	0.613460
O9	O	0.669903	-0.016211	-0.113582
O10	O	1.169903	0.483789	0.386418
O11	O	0.581972	0.071725	-0.113544
O12	O	1.081972	0.571725	0.386456
O13	O	0.747834	0.061720	-0.113568
O14	O	1.247834	0.561720	0.386432
Zn15	Zn	0.662548	0.064370	-0.149596
Zn16	Zn	1.162548	0.564370	0.350404
Zn17	Zn	0.682092	0.083893	0.149474
Zn18	Zn	1.182092	0.583893	0.649474
O19	O	0.659903	0.149656	-0.113530
O20	O	1.159903	0.649656	0.386470
C21	C	0.568173	0.078879	-0.000046
C22	C	1.068173	0.578879	0.499954
C23	C	0.504957	0.078114	-0.000038
C24	C	1.004957	0.578114	0.499962
C25	C	0.238786	0.022915	-0.000093
C26	C	0.738786	0.522915	0.499907
C27	C	0.298186	0.023626	-0.000092
C28	C	0.798186	0.523626	0.499908
O29	O	0.334927	-0.020163	-0.000153
O30	O	0.834927	0.479837	0.499847
N31	N	0.320814	0.075904	-0.000067
N32	N	0.820814	0.575904	0.499933
C33	C	0.284037	0.127473	-0.000056
C34	C	0.784037	0.627473	0.499944
O35	O	0.308738	0.172005	-0.000035
O36	O	0.808738	0.672005	0.499965
C37	C	0.224637	0.126761	-0.000066
C38	C	0.724637	0.626761	0.499934
C39	C	0.202014	0.074480	-0.000078
C40	C	0.702014	0.574480	0.499922
C41	C	0.216162	-0.029361	-0.000106
C42	C	0.716162	0.470639	0.499894
C43	C	0.156766	-0.030072	-0.000104
C44	C	0.656766	0.469928	0.499896
C45	C	0.119994	0.021493	-0.000089
C46	C	0.619994	0.521493	0.499911
C47	C	0.142618	0.073769	-0.000076
C48	C	0.642618	0.573769	0.499924
C49	C	0.187861	0.178328	-0.000065
C50	C	0.687861	0.678328	0.499935
C51	C	0.128458	0.177611	-0.000076
C52	C	0.628458	0.677611	0.499924
C53	C	0.105834	0.125331	-0.000088
C54	C	0.605834	0.625331	0.499912
C55	C	0.046450	0.124623	-0.000058
C56	C	0.546450	0.624623	0.499942
N57	N	0.023822	0.072345	-0.000084
N58	N	0.523822	0.572345	0.499916
C59	C	0.060594	0.020780	-0.000099
C60	C	0.560594	0.520780	0.499901
C61	C	0.408781	0.128966	-0.000036
C62	C	0.908781	0.628966	0.499964
C63	C	0.468180	0.129680	-0.000016
C64	C	0.968180	0.629680	0.499984
C65	C	0.482325	0.025833	-0.000055
C66	C	0.982325	0.525833	0.499945
C67	C	0.422925	0.025120	-0.000066
C68	C	0.922925	0.525120	0.499934
C69	C	0.386153	0.076688	-0.000062
C70	C	0.886153	0.576688	0.499938
C71	C	-0.064142	0.019291	-0.000094
C72	C	0.435858	0.519291	0.499906
C73	C	-0.123544	0.018585	-0.000086
C74	C	0.376456	0.518585	0.499914
C75	C	-0.137684	0.122431	-0.000054
C76	C	0.362316	0.622431	0.499946
C77	C	-0.078287	0.123138	-0.000055
C78	C	0.421713	0.623138	0.499945
C79	C	-0.041518	0.071563	-0.000079
C80	C	0.458482	0.571563	0.499921
O81	O	0.009674	0.168390	-0.000003
O82	O	0.509674	0.668390	0.499997
O83	O	0.035883	-0.023745	-0.000137
O84	O	0.535883	0.476255	0.499863
C85	C	0.677065	-0.030018	-0.000090
C86	C	1.177065	0.469982	0.499910
C87	C	0.676298	-0.093236	-0.000100
C88	C	1.176298	0.406764	0.499900
C89	C	0.723536	-0.492334	-0.000032
C90	C	1.223536	0.007666	0.499968
C91	C	0.722826	-0.551734	-0.000022
C92	C	1.222826	-0.051734	0.499978
O93	O	0.766614	-0.588476	0.000022
O94	O	1.266614	-0.088476	0.500022
N95	N	0.670550	-0.574360	-0.000015
N96	N	1.170550	-0.074360	0.499985
C97	C	0.618982	-0.537582	-0.000005
C98	C	1.118982	-0.037582	0.499995
O99	O	0.574452	-0.562281	0.000002
O100	O	1.074452	-0.062281	0.500002
C101	C	0.619694	-0.478183	-0.000006
C102	C	1.119694	0.021817	0.499994
C103	C	0.671972	-0.455561	-0.000026
C104	C	1.171972	0.044439	0.499974
C105	C	0.775811	-0.469712	-0.000051
C106	C	1.275811	0.030288	0.499949
C107	C	0.776521	-0.410317	-0.000064
C108	C	1.276521	0.089683	0.499936
C109	C	0.724957	-0.373544	-0.000058
C110	C	1.224957	0.126456	0.499942
C111	C	0.672683	-0.396166	-0.000039
C112	C	1.172683	0.103834	0.499961
C113	C	0.568128	-0.441405	0.000014
C114	C	1.068128	0.058595	0.500014
C115	C	0.568844	-0.382002	0.000014
C116	C	1.068844	0.117998	0.500014
C117	C	0.621123	-0.359381	-0.000006
C118	C	1.121123	0.140619	0.499994
C119	C	0.621829	-0.299997	-0.000047
C120	C	1.121829	0.200003	0.499953
N121	N	0.674105	-0.277372	-0.000053
N122	N	1.174105	0.222628	0.499947
C123	C	0.725669	-0.314145	-0.000059
C124	C	1.225669	0.185855	0.499941
C125	C	0.617491	-0.662324	-0.000002
C126	C	1.117491	-0.162324	0.499998
C127	C	0.616778	-0.721722	-0.000011
C128	C	1.116778	-0.221722	0.499989
C129	C	0.720622	-0.735871	-0.000024
C130	C	1.220622	-0.235871	0.499976
C131	C	0.721334	-0.676472	-0.000025
C132	C	1.221334	-0.176472	0.499975
C133	C	0.669767	-0.639698	-0.000008
C134	C	1.169767	-0.139698	0.499992
C135	C	0.727157	-0.189410	-0.000087
C136	C	1.227157	0.310590	0.499913
C137	C	0.727862	-0.130009	-0.000106
C138	C	1.227862	0.369991	0.499894
C139	C	0.624019	-0.115866	-0.000085
C140	C	1.124019	0.384134	0.499915
C141	C	0.623313	-0.175262	-0.000074
C142	C	1.123313	0.324738	0.499926
C143	C	0.674887	-0.212033	-0.000070
C144	C	1.174887	0.287967	0.499930
O145	O	0.578064	-0.263221	-0.000085
O146	O	1.078064	0.236779	0.499915
O147	O	0.770193	-0.289436	-0.000049
O148	O	1.270193	0.210564	0.499951
C149	C	0.776467	0.069384	-0.000072
C150	C	1.276467	0.569384	0.499928
C151	C	0.839684	0.070150	-0.000071
C152	C	1.339684	0.570150	0.499929
C153	C	0.667575	0.178281	-0.000029
C154	C	1.167575	0.678281	0.499971
C155	C	0.668342	0.241500	-0.000009
C156	C	1.168342	0.741500	0.499991
N157	N	0.649214	0.051045	-0.353704
N158	N	1.149214	0.551045	0.146296
C159	C	0.667196	0.069001	-0.578643
C160	C	1.167196	0.569001	-0.078643
C161	C	0.677453	0.079262	-0.421475
C162	C	1.177453	0.579262	0.078525
N163	N	0.695431	0.097213	0.353582
N164	N	1.195431	0.597213	0.853582
H165	H	0.138351	-0.072645	-0.000119
H166	H	0.638351	0.427355	0.499881
N167	N	0.719535	0.121320	-0.344218
N168	N	1.219535	0.621320	0.155782
H169	H	0.706481	0.161210	-0.369002
H170	H	1.206481	0.661210	0.130998
H171	H	0.759406	0.108191	-0.369034
H172	H	1.259406	0.608191	0.130966
H173	H	0.378844	0.170962	-0.000023
H174	H	0.878844	0.670962	0.499977
H175	H	0.574206	-0.740136	-0.000018
H176	H	1.074206	-0.240136	0.499982
N177	N	0.088805	0.233238	-0.000069
N178	N	0.588805	0.733238	0.499931
H179	H	0.069340	0.240758	0.084075
H180	H	0.569340	0.740758	0.584075
H181	H	0.058383	0.229730	-0.084272
H182	H	0.558383	0.729730	0.415728
N183	N	0.513218	-0.342349	0.000008
N184	N	1.013218	0.157651	0.500008
H185	H	0.505698	-0.322892	-0.084147
H186	H	1.005698	0.177108	0.415853
H187	H	0.516725	-0.311920	0.084200
H188	H	1.016725	0.188080	0.584200
H189	H	0.763903	-0.658058	-0.000040
H190	H	1.263903	-0.158058	0.499960
H191	H	0.575496	-0.632386	0.000001
H192	H	1.075496	-0.132386	0.500001
N193	N	0.212245	0.234721	-0.000045
N194	N	0.712245	0.734721	0.499955
H195	H	0.193313	0.251799	-0.084188
H196	H	0.693313	0.751799	0.415812
H197	H	0.255455	0.227319	0.000011
H198	H	0.755455	0.727319	0.500011
N199	N	0.255817	-0.084983	-0.000103
N200	N	0.755817	0.415017	0.499897
H201	H	0.296883	-0.076609	-0.000090
H202	H	0.796883	0.423391	0.499910
H203	H	0.243026	-0.113276	-0.084255
H204	H	0.743026	0.386724	0.415745
N205	N	0.776239	-0.775540	-0.000012
N206	N	1.276239	-0.275540	0.499988
H207	H	0.809468	-0.752199	-0.000019
H208	H	1.309468	-0.252199	0.499981
H209	H	0.772705	-0.805993	-0.084156
H210	H	1.272705	-0.305993	0.415844
N211	N	0.607135	0.008981	-0.430945
N212	N	1.107135	0.508981	0.069055
H213	H	0.605772	0.007611	-0.532272
H214	H	1.105772	0.507611	-0.032272
H215	H	0.567272	0.022084	-0.406052
H216	H	1.067272	0.522084	0.093948
N217	N	-0.053880	0.179524	-0.000036
N218	N	0.446120	0.679524	0.499964
H219	H	-0.024052	0.187628	0.084105
H220	H	0.475948	0.687628	0.584105
H221	H	-0.086225	0.212046	-0.000073
H222	H	0.413775	0.712046	0.499927
N223	N	0.737516	0.139267	-0.569168
N224	N	1.237516	0.639267	-0.069168
H225	H	0.738879	0.140634	-0.467842
H226	H	1.238879	0.640634	0.032158
H227	H	0.724437	0.179133	-0.594060
H228	H	1.224437	0.679133	-0.094060
N229	N	0.782781	-0.229065	-0.000084
N230	N	1.282781	0.270935	0.499916
H231	H	0.816000	-0.205713	-0.000101
H232	H	1.316000	0.294287	0.499899
H233	H	0.779250	-0.259517	-0.084230
H234	H	1.279250	0.240483	0.415770
H235	H	0.525558	-0.459812	0.000038
H236	H	1.025558	0.040188	0.500038
H237	H	-0.141960	-0.023990	-0.000092
H238	H	0.358040	0.476010	0.499908
N239	N	-0.177350	0.178046	-0.000047
N240	N	0.322650	0.678046	0.499953
H241	H	-0.164615	0.206367	0.084104
H242	H	0.335385	0.706367	0.584104
H243	H	-0.218398	0.169607	-0.000106
H244	H	0.281602	0.669607	0.499894
H245	H	0.580741	-0.193683	-0.000095
H246	H	1.080741	0.306317	0.499905
H247	H	0.817803	-0.499648	-0.000051
H248	H	1.317803	0.000352	0.499949
H249	H	-0.034211	-0.022707	-0.000113
H250	H	0.465789	0.477293	0.499887
N251	N	0.784250	-0.105611	-0.000136
N252	N	1.284250	0.394389	0.499864
H253	H	0.816806	-0.137923	-0.000134
H254	H	1.316806	0.362077	0.499866
H255	H	0.792308	-0.075774	0.084006
H256	H	1.292308	0.424226	0.584006
N257	N	0.568410	-0.076191	-0.000105
N258	N	1.068410	0.423809	0.499895
H259	H	0.571893	-0.045729	0.084034
H260	H	1.071893	0.454271	0.584034
H261	H	0.535205	-0.099568	-0.000150
H262	H	1.035205	0.400432	0.499850
N263	N	0.398526	-0.031267	-0.000080
N264	N	0.898526	0.468733	0.499920
H265	H	0.430839	-0.063822	-0.000084
H266	H	0.930839	0.436178	0.499916
H267	H	0.368696	-0.039321	-0.084235
H268	H	0.868696	0.460679	0.415765
H269	H	0.512276	-0.016155	-0.000068
H270	H	1.012276	0.483845	0.499932
N271	N	0.832911	-0.385928	-0.000075
N272	N	1.332911	0.114072	0.499925
H273	H	0.860980	-0.393866	0.084073
H274	H	1.360980	0.106134	0.584073
H275	H	0.825499	-0.342726	-0.000128
H276	H	1.325499	0.157274	0.499872
N277	N	0.492580	0.186070	0.000032
N278	N	0.992580	0.686070	0.500032
H279	H	0.460267	0.218626	0.000046
H280	H	0.960267	0.718626	0.500046
H281	H	0.511421	0.183141	-0.084112
H282	H	1.011421	0.683141	0.415888
N283	N	0.625120	0.026939	-0.655893
N284	N	1.125120	0.526939	-0.155893
H285	H	0.623758	0.025570	-0.757219
H286	H	1.123758	0.525570	-0.257219
H287	H	0.585256	0.040042	-0.631002
H288	H	1.085256	0.540042	-0.131002
