data_functionalizedCrystal
_audit_creation_method	'MofGen! by Chris Wilmer'
_symmetry_space_group_name_H-M	'P1'
_symmetry_Int_Tables_number	1
_symmetry_cell_setting	triclinic
loop_
_symmetry_equiv_pos_as_xyz
  x,y,z
_cell_length_a	15.944499
_cell_length_b	15.944493
_cell_length_c	15.021413
_cell_angle_alpha	90.009890
_cell_angle_beta	89.990095
_cell_angle_gamma	83.476327
loop_
_atom_site_label
_atom_site_type_symbol
_atom_site_fract_x
_atom_site_fract_y
_atom_site_fract_z
O1	O	1.114533	0.108117	-0.074074
O2	O	1.447867	0.441450	0.259260
O3	O	1.781200	0.774784	0.592593
O4	O	0.869975	0.121519	-0.074062
O5	O	1.203308	0.454852	0.259271
O6	O	1.536642	0.788186	0.592604
O7	O	0.998958	-0.007461	-0.074076
O8	O	1.332291	0.325872	0.259258
O9	O	1.665625	0.659205	0.592591
O10	O	0.985551	0.237097	-0.074060
O11	O	1.318884	0.570431	0.259273
O12	O	1.652217	0.903764	0.592606
O13	O	0.998937	-0.007443	0.073989
O14	O	1.332271	0.325890	0.407322
O15	O	1.665604	0.659224	0.740655
O16	O	0.869955	0.121537	0.074002
O17	O	1.203288	0.454871	0.407335
O18	O	1.536621	0.788204	0.740669
O19	O	1.114513	0.108135	0.073991
O20	O	1.447846	0.441469	0.407324
O21	O	1.781180	0.774802	0.740657
Zn22	Zn	0.992230	0.114839	0.097505
Zn23	Zn	1.325564	0.448173	0.430838
Zn24	Zn	1.658897	0.781506	0.764171
Zn25	Zn	0.992257	0.114815	-0.097576
Zn26	Zn	1.325591	0.448148	0.235757
Zn27	Zn	1.658924	0.781482	0.569090
O28	O	0.985530	0.237116	0.074004
O29	O	1.318863	0.570449	0.407337
O30	O	1.652197	0.903782	0.740671
C31	C	0.838670	0.120979	-0.000029
C32	C	1.172004	0.454313	0.333304
C33	C	1.505337	0.787646	0.666638
C34	C	0.745422	0.119334	-0.000025
C35	C	1.078756	0.452668	0.333308
C36	C	1.412089	0.786001	0.666641
C37	C	0.998400	-0.038747	-0.000047
C38	C	1.331733	0.294586	0.333286
C39	C	1.665066	0.627920	0.666619
C40	C	0.996757	-0.131995	-0.000059
C41	C	1.330090	0.201338	0.333275
C42	C	1.663423	0.534671	0.666608
C43	C	0.453871	0.194269	-0.000034
C44	C	0.787204	0.527602	0.333300
C45	C	1.120537	0.860935	0.666633
C46	C	0.514918	0.155307	-0.073041
C47	C	0.848251	0.488640	0.260292
C48	C	1.181585	0.821974	0.593625
C49	C	0.409787	0.113358	-0.000046
C50	C	0.743120	0.446691	0.333287
C51	C	1.076454	0.780025	0.666621
C52	C	0.514884	0.155303	0.072939
C53	C	0.848217	0.488637	0.406272
C54	C	1.181550	0.821970	0.739605
C55	C	0.574695	0.116299	-0.000034
C56	C	0.908028	0.449632	0.333299
C57	C	1.241362	0.782965	0.666632
C58	C	0.469606	0.074374	-0.073114
C59	C	0.802940	0.407707	0.260219
C60	C	1.136273	0.741041	0.593553
C61	C	0.469565	0.074382	0.072931
C62	C	0.802899	0.407715	0.406265
C63	C	1.136232	0.741048	0.739598
C64	C	0.530595	0.035361	-0.000094
C65	C	0.863929	0.368694	0.333239
C66	C	1.197262	0.702028	0.666573
C67	C	0.314787	0.111666	-0.000054
C68	C	0.648121	0.445000	0.333280
C69	C	0.981454	0.778333	0.666613
C70	C	0.669694	0.117984	-0.000033
C71	C	1.003027	0.451318	0.333300
C72	C	1.336360	0.784651	0.666633
C73	C	1.072679	-0.367769	-0.000045
C74	C	1.406012	-0.034436	0.333288
C75	C	1.739346	0.298897	0.666621
C76	C	1.031747	-0.418339	-0.073046
C77	C	1.365080	-0.085005	0.260287
C78	C	1.698414	0.248328	0.593620
C79	C	0.993713	-0.302716	-0.000048
C80	C	1.327046	0.030618	0.333286
C81	C	1.660379	0.363951	0.666619
C82	C	1.031709	-0.418297	0.072933
C83	C	1.365042	-0.084963	0.406267
C84	C	1.698375	0.248370	0.739600
C85	C	0.990778	-0.467625	-0.000033
C86	C	1.324111	-0.134291	0.333300
C87	C	1.657445	0.199042	0.666634
C88	C	0.952802	-0.352057	-0.073109
C89	C	1.286135	-0.018724	0.260224
C90	C	1.619469	0.314610	0.593558
C91	C	0.952775	-0.352012	0.072936
C92	C	1.286108	-0.018678	0.406270
C93	C	1.619442	0.314655	0.739603
C94	C	0.911785	-0.402548	-0.000082
C95	C	1.245118	-0.069215	0.333251
C96	C	1.578452	0.264118	0.666584
C97	C	0.995405	-0.207716	-0.000057
C98	C	1.328739	0.125617	0.333277
C99	C	1.662072	0.458951	0.666610
C100	C	0.989079	-0.562622	-0.000030
C101	C	1.322412	-0.229288	0.333303
C102	C	1.655746	0.104045	0.666636
C103	C	1.145818	0.108675	-0.000045
C104	C	1.479151	0.442008	0.333289
C105	C	1.812484	0.775342	0.666622
C106	C	1.239066	0.110320	-0.000054
C107	C	1.572399	0.443653	0.333279
C108	C	1.905732	0.776987	0.666612
C109	C	0.986088	0.268401	-0.000026
C110	C	1.319422	0.601735	0.333307
C111	C	1.652755	0.935068	0.666640
C112	C	0.987731	0.361650	-0.000021
C113	C	1.321064	0.694983	0.333312
C114	C	1.654398	1.028316	0.666646
N115	N	0.992218	0.114855	0.230642
N116	N	1.325551	0.448189	0.563976
N117	N	1.658885	0.781522	0.897309
N118	N	0.992276	0.114792	-0.230714
N119	N	1.325610	0.448126	0.102619
N120	N	1.658943	0.781459	0.435953
C121	C	0.932567	0.174468	0.470332
C122	C	1.265901	0.507801	0.803665
C123	C	1.599234	0.841134	1.136998
C124	C	1.008466	0.190761	0.529664
C125	C	1.341799	0.524095	0.862997
C126	C	1.675133	0.857428	1.196331
C127	C	0.992240	0.114834	0.412249
C128	C	1.325573	0.448168	0.745582
C129	C	1.658906	0.781501	1.078916
C130	C	0.916361	0.098560	0.529659
C131	C	1.249695	0.431893	0.862992
C132	C	1.583028	0.765226	1.196325
C133	C	0.992254	0.114816	0.587673
C134	C	1.325587	0.448149	0.921007
C135	C	1.658920	0.781483	1.254340
C136	C	1.068177	0.131165	0.470275
C137	C	1.401510	0.464499	0.803608
C138	C	1.734843	0.797832	1.136942
C139	C	0.976022	0.038931	0.470264
C140	C	1.309355	0.372264	0.803598
C141	C	1.642689	0.705598	1.136931
C142	C	1.051976	0.055192	0.529570
C143	C	1.385309	0.388525	0.862903
C144	C	1.718642	0.721859	1.196237
C145	C	0.992230	0.114847	0.311192
C146	C	1.325564	0.448180	0.644525
C147	C	1.658897	0.781514	0.977858
C148	C	0.992272	0.114803	0.688728
C149	C	1.325605	0.448136	1.022062
C150	C	1.658938	0.781469	1.355395
H151	H	0.420527	0.261416	-0.000100
H152	H	0.753860	0.594750	0.333233
H153	H	1.087193	0.928083	0.666567
Cl154	Cl	0.545858	0.208171	0.168227
Cl155	Cl	0.879191	0.541504	0.501561
Cl156	Cl	1.212525	0.874837	0.834894
Cl157	Cl	0.954788	-0.060130	0.429946
Cl158	Cl	1.288121	0.273204	0.763279
Cl159	Cl	1.621455	0.606537	1.096613
H160	H	1.102500	0.004751	0.555417
H161	H	1.435833	0.338084	0.888750
H162	H	1.769166	0.671418	1.222084
H163	H	0.919481	-0.323239	-0.134892
H164	H	1.252814	0.010095	0.198442
H165	H	1.586148	0.343428	0.531775
H166	H	1.065104	-0.447298	-0.134767
H167	H	1.398438	-0.113965	0.198566
H168	H	1.731771	0.219368	0.531899
Cl169	Cl	0.438500	0.021600	0.168223
Cl170	Cl	0.771833	0.354934	0.501556
Cl171	Cl	1.105166	0.688267	0.834889
H172	H	0.852187	0.084803	0.555746
H173	H	1.185520	0.418136	0.889079
H174	H	1.518853	0.751470	1.222412
Cl175	Cl	1.177694	-0.343655	-0.000160
Cl176	Cl	1.511027	-0.010322	0.333174
Cl177	Cl	1.844360	0.323011	0.666507
H178	H	0.843713	-0.418002	-0.000119
H179	H	1.177046	-0.084668	0.333214
H180	H	1.510379	0.248665	0.666547
H181	H	0.535018	0.189524	-0.134755
H182	H	0.868351	0.522857	0.198578
H183	H	1.201684	0.856191	0.531911
Cl184	Cl	1.083205	-0.462960	0.168215
Cl185	Cl	1.416539	-0.129626	0.501548
Cl186	Cl	1.749872	0.203707	0.834882
Cl187	Cl	0.438791	0.021566	-0.168511
Cl188	Cl	0.772125	0.354899	0.164822
Cl189	Cl	1.105458	0.688232	0.498155
Cl190	Cl	0.581851	-0.068398	-0.000161
Cl191	Cl	0.915184	0.264935	0.333172
Cl192	Cl	1.248517	0.598268	0.666506
H193	H	1.022196	0.254943	0.555754
H194	H	1.355529	0.588276	0.889088
H195	H	1.688862	0.921610	1.222421
H196	H	0.882155	0.224939	0.444321
H197	H	1.215489	0.558272	0.777655
H198	H	1.548822	0.891605	1.110988
Cl199	Cl	0.901336	-0.307254	0.168234
Cl200	Cl	1.234669	0.026080	0.501567
Cl201	Cl	1.568002	0.359413	0.834901
H202	H	1.132365	0.144999	0.444300
H203	H	1.465699	0.478333	0.777633
H204	H	1.799032	0.811666	1.110967
