data_functionalizedCrystal
_audit_creation_method	'MofGen! by Chris Wilmer'
_symmetry_space_group_name_H-M	'P1'
_symmetry_Int_Tables_number	1
_symmetry_cell_setting	triclinic
loop_
_symmetry_equiv_pos_as_xyz
  x,y,z
_cell_length_a	12.759401
_cell_length_b	16.994731
_cell_length_c	12.759393
_cell_angle_alpha	89.958827
_cell_angle_beta	90.018496
_cell_angle_gamma	89.948358
loop_
_atom_site_label
_atom_site_type_symbol
_atom_site_fract_x
_atom_site_fract_y
_atom_site_fract_z
Zn1	Zn	1.606741	-0.313979	0.594512
Zn2	Zn	1.606839	-0.445906	0.419056
Zn3	Zn	1.431043	-0.314020	0.418852
Zn4	Zn	1.431235	-0.445845	0.594697
O5	O	1.518965	-0.379937	0.506779
O6	O	1.753775	-0.331487	0.571246
O7	O	1.583480	-0.428454	0.272008
O8	O	1.454228	-0.203633	0.441991
O9	O	1.753847	-0.428414	0.442338
O10	O	1.583313	-0.203603	0.571048
O11	O	1.454323	-0.331558	0.271858
O12	O	1.284048	-0.331499	0.442170
O13	O	1.454556	-0.428310	0.741694
O14	O	1.284189	-0.428350	0.571363
O15	O	1.583499	-0.331428	0.741558
O16	O	1.583667	-0.556279	0.442517
O17	O	1.454651	-0.556234	0.571560
C18	C	1.245997	-0.379923	0.506765
C19	C	1.129221	-0.379936	0.506784
C20	C	1.519017	-0.674197	0.506861
C21	C	1.519111	-0.584875	0.506999
Zn22	Zn	1.606991	-0.813991	0.419163
Zn23	Zn	1.430731	-0.814008	0.594145
Zn24	Zn	1.606234	-0.946113	0.594609
Zn25	Zn	1.431196	-0.945637	0.418292
O26	O	1.518788	-0.879937	0.506552
O27	O	1.583732	-0.703612	0.442544
O28	O	1.453500	-0.831738	0.741226
O29	O	1.753355	-0.928779	0.571895
O30	O	1.454234	-0.703624	0.571103
O31	O	1.753911	-0.831709	0.442995
O32	O	1.582442	-0.928795	0.741568
O33	O	1.582893	-1.056431	0.571051
O34	O	1.455027	-0.927968	0.271388
O35	O	1.454293	-1.056081	0.441511
O36	O	1.584183	-0.831248	0.272027
O37	O	1.283772	-0.831276	0.570259
O38	O	1.284114	-0.927984	0.441060
C39	C	1.074460	-0.430447	0.573943
C40	C	0.964736	-0.430457	0.573955
C41	C	0.964543	-0.329442	0.439638
C42	C	1.074265	-0.329429	0.439633
C43	C	1.129416	-0.480954	0.641095
C44	C	1.074655	-0.531470	0.708259
C45	C	0.964931	-0.531480	0.708270
C46	C	0.909967	-0.480974	0.641117
C47	C	1.792998	-0.379952	0.506794
C48	C	1.909775	-0.379959	0.506801
C49	C	1.519038	-0.379858	0.780813
C50	C	1.519069	-0.379824	0.897589
C51	C	1.518730	-0.174197	0.506473
C52	C	1.518632	-0.084875	0.506342
C53	C	1.518952	-0.379960	0.233812
C54	C	1.519124	-0.379771	0.117035
C55	C	1.586219	-0.329373	0.952382
C56	C	1.586244	-0.329344	1.062106
C57	C	1.451966	-0.430225	1.062235
C58	C	1.451937	-0.430249	0.952513
C59	C	1.653352	-0.278948	0.897459
C60	C	1.720508	-0.228493	0.952252
C61	C	1.720533	-0.228465	1.061976
C62	C	1.653402	-0.278891	1.116907
C63	C	1.245822	-0.879578	0.505517
C64	C	1.129046	-0.879402	0.505105
C65	C	1.519741	-0.879553	0.232521
C66	C	1.520147	-0.879389	0.115745
C67	C	1.792820	-0.880295	0.507594
C68	C	1.909596	-0.880448	0.508038
C69	C	1.517912	-0.880276	0.779518
C70	C	1.517796	-0.880292	0.896294
C71	C	1.074042	-0.828928	0.572118
C72	C	0.964318	-0.828755	0.571712
C73	C	0.964614	-0.929536	0.437278
C74	C	1.074335	-0.929705	0.437679
C75	C	1.128753	-0.778625	0.639544
C76	C	1.073749	-0.728147	0.706563
C77	C	0.964025	-0.727974	0.706156
C78	C	0.909306	-0.778278	0.638731
C79	C	1.587577	-0.828956	0.061215
C80	C	1.587957	-0.828808	-0.048509
C81	C	1.453470	-0.929529	-0.049162
C82	C	1.453095	-0.929681	0.060560
C83	C	1.654629	-0.778664	0.116400
C84	C	1.722063	-0.728226	0.061869
C85	C	1.722443	-0.728078	-0.047854
C86	C	1.655390	-0.778368	-0.103047
H87	H	1.218758	-0.480953	0.641091
H88	H	1.397311	-0.471279	1.106968
H89	H	1.654324	-0.778777	0.205742
C90	C	1.319257	-0.529997	0.963652
C91	C	1.378154	-0.485727	0.892276
H92	H	1.273716	-0.564253	0.926461
H93	H	1.279021	-0.495625	1.006384
H94	H	1.365093	-0.560145	1.006505
H95	H	1.332317	-0.455573	0.849427
H96	H	1.418393	-0.520102	0.849526
H97	H	1.118852	-0.288292	0.384953
H98	H	1.218095	-0.778760	0.639882
C99	C	1.899888	-0.690078	0.096387
C100	C	1.795769	-0.672952	0.122535
H101	H	1.945391	-0.655956	0.133844
H102	H	1.909759	-0.682769	0.023246
H103	H	1.915131	-0.743122	0.114356
H104	H	1.780523	-0.619910	0.104558
H105	H	1.785894	-0.680255	0.195692
C106	C	1.773861	-0.594529	-0.081232
C107	C	1.796564	-0.672634	-0.107790
H108	H	1.819616	-0.560297	-0.118236
H109	H	1.783231	-0.587433	-0.007995
H110	H	1.703343	-0.582885	-0.099472
H111	H	1.867081	-0.684280	-0.089543
H112	H	1.787203	-0.679734	-0.181043
H113	H	1.119121	-0.970806	0.383112
C114	C	1.729158	-0.723321	-0.259869
C115	C	1.655809	-0.778207	-0.223657
H116	H	1.729408	-0.723218	-0.334328
H117	H	1.796845	-0.737087	-0.234815
H118	H	1.710951	-0.672432	-0.235036
H119	H	1.674020	-0.829097	-0.248484
H120	H	1.588107	-0.764446	-0.248722
H121	H	1.398877	-0.970472	-0.094108
H122	H	1.118308	-0.687187	0.761451
H123	H	0.919243	-0.686867	0.760719
H124	H	1.398189	-0.970748	0.104959
H125	H	1.653415	-0.278854	1.206252
C126	C	0.752893	-0.535944	0.714315
C127	C	0.789356	-0.480957	0.641166
H128	H	0.678435	-0.535930	0.714347
H129	H	0.777758	-0.522366	0.782099
H130	H	0.777747	-0.586833	0.696095
H131	H	0.764509	-0.430067	0.659391
H132	H	0.764481	-0.494531	0.573368
C133	C	0.796258	-0.284625	0.379993
C134	C	0.904129	-0.273940	0.365812
H135	H	0.758965	-0.250365	0.334405
H136	H	0.778289	-0.273138	0.450580
H137	H	0.778364	-0.337617	0.364592
H138	H	0.922025	-0.220949	0.381221
H139	H	0.922106	-0.285422	0.295208
C140	C	1.063824	-0.631312	0.841035
C141	C	1.135064	-0.586979	0.782078
H142	H	1.101119	-0.665577	0.886613
H143	H	1.021054	-0.661448	0.795246
H144	H	1.020995	-0.596975	0.881243
H145	H	1.177888	-0.621316	0.741863
H146	H	1.177852	-0.556842	0.827872
H147	H	0.920347	-0.572607	0.762966
C148	C	0.796546	-0.974032	0.376983
C149	C	0.904468	-0.984836	0.363179
H150	H	0.759419	-1.008178	0.331243
H151	H	0.778702	-0.921001	0.361561
H152	H	0.778327	-0.985604	0.447507
H153	H	0.922689	-0.973259	0.292656
H154	H	0.922321	-1.037879	0.378593
C155	C	1.680253	-0.354042	0.740427
C156	C	1.653382	-0.278988	0.776850
H157	H	1.680294	-0.354069	0.665969
H158	H	1.630646	-0.391280	0.765268
H159	H	1.748055	-0.367673	0.765331
H160	H	1.585576	-0.265360	0.751952
H161	H	1.702991	-0.241739	0.751998
C162	C	1.780092	-0.183741	0.783998
C163	C	1.794291	-0.173063	0.891876
H164	H	1.825648	-0.149521	0.746729
H165	H	1.709493	-0.172197	0.766001
H166	H	1.795526	-0.236747	0.766102
H167	H	1.778850	-0.120058	0.909774
H168	H	1.864906	-0.184602	0.909881
H169	H	1.775207	-0.187376	1.106586
H170	H	0.819962	-0.778116	0.638384
