data_functionalizedCrystal
_audit_creation_method	'MofGen! by Chris Wilmer'
_symmetry_space_group_name_H-M	'P1'
_symmetry_Int_Tables_number	1
_symmetry_cell_setting	triclinic
loop_
_symmetry_equiv_pos_as_xyz
  x,y,z
_cell_length_a	10.654550
_cell_length_b	10.540539
_cell_length_c	9.130313
_cell_angle_alpha	90.000859
_cell_angle_beta	89.996220
_cell_angle_gamma	84.505197
loop_
_atom_site_label
_atom_site_type_symbol
_atom_site_fract_x
_atom_site_fract_y
_atom_site_fract_z
O1	O	1.667897	0.178295	-0.121912
O2	O	1.302424	0.195282	-0.121888
O3	O	1.493499	0.002079	-0.121899
O4	O	1.476823	0.371498	-0.121902
O5	O	1.493496	0.002084	0.121700
O6	O	1.302422	0.195287	0.121711
O7	O	1.667894	0.178300	0.121686
Cu8	Cu	1.485158	0.186794	0.143941
Cu9	Cu	1.485161	0.186788	-0.144143
O10	O	1.476820	0.371503	0.121697
C11	C	1.255625	0.194038	-0.000086
C12	C	1.116180	0.190306	-0.000077
C13	C	1.036734	0.304061	-0.000099
C14	C	0.905712	0.300547	-0.000124
C15	C	0.933595	0.069513	-0.000111
C16	C	1.064614	0.073028	-0.000075
C17	C	1.020636	0.437446	-0.000113
C18	C	0.889614	0.433932	-0.000138
C19	C	1.492247	-0.045221	-0.000102
C20	C	1.488505	-0.186168	-0.000110
C21	C	1.345134	-0.369543	-0.000647
C22	C	1.348927	-0.222926	-0.000099
C23	C	1.555675	-0.247846	0.138993
C24	C	1.550912	-0.394389	0.139110
C25	C	1.553753	-0.394914	-0.137907
C26	C	1.555039	-0.247933	-0.139747
C27	C	1.714694	0.179545	-0.000119
C28	C	1.854139	0.183276	-0.000138
C29	C	1.478072	0.418803	-0.000103
C30	C	1.481813	0.559750	-0.000105
N31	N	1.485165	0.186798	0.346564
N32	N	1.485163	0.186774	-0.346765
C33	C	1.569795	0.101277	0.423211
C34	C	1.569791	0.101262	0.576548
C35	C	1.400525	0.272300	0.576577
C36	C	1.400523	0.272308	0.423243
C37	C	1.667523	0.002533	0.423195
C38	C	1.667520	0.002518	0.576532
H39	H	1.049984	0.489616	0.101838
O40	O	1.500053	-0.432481	-0.263831
C41	C	1.505602	-0.432898	-0.527673
C42	C	1.566576	-0.390302	-0.385190
H43	H	1.559344	-0.398791	-0.625829
H44	H	1.508940	-0.541309	-0.529940
H45	H	1.403311	-0.390051	-0.532724
H46	H	1.668888	-0.433058	-0.380046
H47	H	1.563137	-0.281885	-0.382982
O48	O	1.318259	0.355496	0.349014
C49	C	1.150302	0.525071	0.365230
C50	C	1.243423	0.430948	0.449476
H51	H	1.089755	0.586081	0.446417
H52	H	1.205010	0.589101	0.293482
H53	H	1.087140	0.469641	0.293406
H54	H	1.306608	0.486275	0.521380
H55	H	1.188637	0.366919	0.521131
H56	H	0.891593	-0.025971	-0.000133
H57	H	1.509013	-0.205228	0.242515
H58	H	1.129295	-0.019602	-0.000036
H59	H	0.843956	0.474245	0.105030
O60	O	1.776416	0.039384	0.366679
C61	C	1.980967	0.108806	0.417556
C62	C	1.857725	0.067062	0.481756
H63	H	2.046728	0.131222	0.510563
H64	H	2.028631	0.028712	0.347321
H65	H	1.958735	0.197484	0.347235
H66	H	1.879848	-0.021587	0.552142
H67	H	1.810096	0.147232	0.551907
H68	H	1.654570	-0.442177	-0.138850
H69	H	1.636975	-0.089688	0.624082
O70	O	1.676429	-0.219100	-0.150089
C71	C	1.869967	-0.243620	-0.288198
C72	C	1.732515	-0.276386	-0.276664
H73	H	1.915362	-0.289942	-0.390509
H74	H	1.871711	-0.135821	-0.295314
H75	H	1.924617	-0.280913	-0.187230
H76	H	1.677783	-0.239175	-0.377604
H77	H	1.730866	-0.384190	-0.269477
H78	H	1.331611	0.341919	0.639025
H79	H	1.290221	-0.399728	0.098554
H80	H	1.056307	0.479916	-0.105285
H81	H	0.847900	0.484188	-0.102092
O82	O	1.285773	-0.172272	-0.119085
C83	C	1.167548	-0.213092	-0.336228
C84	C	1.239020	-0.270615	-0.201520
H85	H	1.129751	-0.292577	-0.402930
H86	H	1.085628	-0.143116	-0.298734
H87	H	1.234439	-0.160992	-0.406803
H88	H	1.172228	-0.322779	-0.130887
H89	H	1.320955	-0.340523	-0.239115
H90	H	1.289998	-0.398125	-0.100399
H91	H	1.295701	-0.181149	0.099788
O92	O	1.670597	-0.451808	0.146852
C93	C	1.819535	-0.592387	0.282888
C94	C	1.683949	-0.527477	0.274266
H95	H	1.830382	-0.653559	0.385910
H96	H	1.839816	-0.655098	0.182300
H97	H	1.888818	-0.516472	0.286881
H98	H	1.614579	-0.603305	0.270320
H99	H	1.663773	-0.464740	0.374852
H100	H	1.501268	-0.422569	0.243099
H101	H	1.764039	0.024268	0.618142
H102	H	1.658178	-0.225529	0.144158
H103	H	1.646046	-0.095040	0.381578
H104	H	1.505891	-0.207059	-0.242651
