data_functionalizedCrystal
_audit_creation_method	'MofGen! by Chris Wilmer'
_symmetry_space_group_name_H-M	'P1'
_symmetry_Int_Tables_number	1
_symmetry_cell_setting	triclinic
loop_
_symmetry_equiv_pos_as_xyz
  x,y,z
_cell_length_a	12.827893
_cell_length_b	16.625545
_cell_length_c	12.827885
_cell_angle_alpha	90.032834
_cell_angle_beta	90.019082
_cell_angle_gamma	90.025719
loop_
_atom_site_label
_atom_site_type_symbol
_atom_site_fract_x
_atom_site_fract_y
_atom_site_fract_z
Zn1	Zn	1.597596	-0.320959	0.590821
Zn2	Zn	2.097596	0.179041	1.090821
Zn3	Zn	1.597459	-0.455813	0.416072
Zn4	Zn	2.097459	0.044187	0.916072
Zn5	Zn	1.422837	-0.320999	0.416095
Zn6	Zn	1.922837	0.179001	0.916095
Zn7	Zn	1.422791	-0.455754	0.590773
Zn8	Zn	1.922791	0.044246	1.090773
O9	O	1.510171	-0.388381	0.503440
O10	O	2.010171	0.111619	1.003440
O11	O	1.743814	-0.338856	0.567651
O12	O	2.243814	0.161144	1.067651
O13	O	1.574257	-0.437971	0.269839
O14	O	2.074257	0.062029	0.769839
O15	O	1.446096	-0.208161	0.439303
O16	O	1.946096	0.291839	0.939303
O17	O	1.743713	-0.437933	0.439264
O18	O	2.243713	0.062067	0.939264
O19	O	1.574490	-0.208132	0.567673
O20	O	2.074490	0.291868	1.067673
O21	O	1.445963	-0.338924	0.269856
O22	O	1.945963	0.161076	0.769856
O23	O	1.276595	-0.338866	0.439256
O24	O	1.776595	0.161134	0.939256
O25	O	1.446018	-0.437831	0.737015
O26	O	1.946018	0.062169	1.237015
O27	O	1.276562	-0.437870	0.567591
O28	O	1.776562	0.062130	1.067591
O29	O	1.574446	-0.338798	0.737051
O30	O	2.074446	0.161202	1.237051
O31	O	1.574212	-0.568638	0.439217
O32	O	2.074212	-0.068638	0.939217
O33	O	1.445885	-0.568594	0.567568
O34	O	1.945885	-0.068594	1.067568
C35	C	1.238661	-0.388366	0.503421
C36	C	1.738661	0.111634	1.003421
C37	C	1.122508	-0.388380	0.503438
C38	C	1.622508	0.111620	1.003438
C39	C	0.950690	-0.437459	0.566860
C40	C	1.450690	0.062541	1.066860
C41	C	1.070740	-0.437446	0.566844
C42	C	1.570740	0.062554	1.066844
C43	C	1.510057	-0.597872	0.503408
C44	C	2.010057	-0.097872	1.003408
C45	C	1.510104	-0.687493	0.503428
C46	C	2.010104	-0.187493	1.003428
C47	C	1.510145	-0.760276	0.503449
C48	C	2.010145	-0.260276	1.003449
C49	C	1.510206	-0.851584	0.503472
C50	C	2.010206	-0.351584	1.003472
C51	C	1.510260	-0.924361	0.503485
C52	C	2.010260	-0.424361	1.003485
C53	C	1.510320	-1.015675	0.503507
C54	C	2.010320	-0.515675	1.003507
C55	C	1.782741	-0.388397	0.503460
C56	C	2.282741	0.111603	1.003460
C57	C	1.898894	-0.388403	0.503468
C58	C	2.398894	0.111597	1.003468
C59	C	1.510242	-0.388304	0.776011
C60	C	2.010242	0.111696	1.276011
C61	C	1.510272	-0.388271	0.892164
C62	C	2.010272	0.111729	1.392164
C63	C	1.510313	-0.178072	0.503496
C64	C	2.010313	0.321928	1.003496
C65	C	1.510374	-0.088451	0.503520
C66	C	2.010374	0.411549	1.003520
C67	C	1.510160	-0.388400	0.231930
C68	C	2.010160	0.111600	0.731930
C69	C	1.510332	-0.388206	0.115778
C70	C	2.010332	0.111794	0.615778
C71	C	1.573829	-0.339257	0.943966
C72	C	2.073829	0.160743	1.443966
C73	C	1.573862	-0.339221	1.064017
C74	C	2.073862	0.160779	1.564017
H75	H	1.115283	-0.479441	0.621121
H76	H	1.615283	0.020559	1.121121
H77	H	0.906157	-0.479469	0.621139
H78	H	1.406157	0.020531	1.121139
C79	C	1.062350	-0.331637	0.430112
C80	C	1.562350	0.168363	0.930112
C81	C	0.987335	-0.268435	0.475615
C82	C	1.487335	0.231565	0.975615
C83	C	0.927168	-0.211692	0.402290
C84	C	1.427168	0.288308	0.902290
C85	C	0.942016	-0.218151	0.283461
C86	C	1.442016	0.281849	0.783461
C87	C	1.017034	-0.281356	0.237952
C88	C	1.517034	0.218644	0.737952
C89	C	1.077201	-0.338099	0.311277
C90	C	1.577201	0.161901	0.811277
H91	H	0.976341	-0.263651	0.563585
H92	H	1.476341	0.236349	1.063585
H93	H	0.871634	-0.164904	0.435979
H94	H	1.371634	0.335096	0.935979
H95	H	0.897477	-0.176147	0.229181
H96	H	1.397477	0.323853	0.729181
H97	H	1.028028	-0.286140	0.149982
H98	H	1.528028	0.213860	0.649982
H99	H	1.132734	-0.384887	0.277588
H100	H	1.632734	0.115113	0.777588
C101	C	1.647377	-0.282528	1.124189
C102	C	2.147377	0.217472	1.624189
C103	C	1.638921	-0.190859	1.109306
C104	C	2.138921	0.309141	1.609306
C105	C	1.712438	-0.134164	1.169481
C106	C	2.212438	0.365836	1.669481
C107	C	1.794411	-0.169137	1.244539
C108	C	2.294411	0.330863	1.744539
C109	C	1.802870	-0.260811	1.259426
C110	C	2.302870	0.239189	1.759426
C111	C	1.729353	-0.317506	1.199251
C112	C	2.229353	0.182494	1.699251
H113	H	1.578237	-0.164966	1.053741
H114	H	2.078237	0.335034	1.553741
H115	H	1.706176	-0.066301	1.158461
H116	H	2.206176	0.433699	1.658461
H117	H	1.848833	-0.127168	1.289085
H118	H	2.348833	0.372832	1.789085
H119	H	1.863554	-0.286704	1.314991
H120	H	2.363554	0.213296	1.814991
H121	H	1.735615	-0.385369	1.210271
H122	H	2.235615	0.114631	1.710271
H123	H	0.943427	-0.346399	0.449181
H124	H	1.443427	0.153601	0.949181
H125	H	1.455920	-0.430174	1.071236
H126	H	1.955920	0.069826	1.571236
C127	C	1.436791	-0.444929	0.952305
C128	C	1.936791	0.055071	1.452305
C129	C	1.482118	-0.508160	1.027354
C130	C	1.982118	-0.008160	1.527354
C131	C	1.408634	-0.564820	1.087492
C132	C	1.908634	-0.064820	1.587492
C133	C	1.289822	-0.558249	1.072582
C134	C	1.789822	-0.058249	1.572582
C135	C	1.244489	-0.495015	0.997529
C136	C	1.744489	0.004985	1.497529
C137	C	1.317973	-0.438355	0.937391
C138	C	1.817973	0.061645	1.437391
H139	H	1.570075	-0.513027	1.038395
H140	H	2.070075	-0.013027	1.538395
H141	H	1.442194	-0.611630	1.143051
H142	H	1.942194	-0.111630	1.643051
H143	H	1.235425	-0.600192	1.117100
H144	H	1.735425	-0.100192	1.617100
H145	H	1.156532	-0.490148	0.986489
H146	H	1.656532	0.009852	1.486489
H147	H	1.284413	-0.391545	0.881833
H148	H	1.784413	0.108455	1.381833
H149	H	1.628215	-0.297317	0.899439
H150	H	2.128215	0.202683	1.399439
