data_functionalizedCrystal
_audit_creation_method	'MofGen! by Chris Wilmer'
_symmetry_space_group_name_H-M	'P1'
_symmetry_Int_Tables_number	1
_symmetry_cell_setting	triclinic
loop_
_symmetry_equiv_pos_as_xyz
  x,y,z
_cell_length_a	14.853554
_cell_length_b	12.811438
_cell_length_c	11.295483
_cell_angle_alpha	91.289945
_cell_angle_beta	85.898772
_cell_angle_gamma	96.161371
loop_
_atom_site_label
_atom_site_type_symbol
_atom_site_fract_x
_atom_site_fract_y
_atom_site_fract_z
O1	O	-0.124562	1.389191	0.051019
O2	O	-0.135763	1.085964	0.018266
O3	O	0.000993	1.245684	0.035524
O4	O	-0.261317	1.229471	0.033761
O5	O	-0.011000	1.231655	0.232059
O6	O	-0.147756	1.071936	0.214801
O7	O	-0.136554	1.375162	0.247554
Cu8	Cu	-0.143250	1.222268	0.249123
Cu9	Cu	-0.129067	1.238858	0.016697
O10	O	-0.273310	1.215442	0.230296
C11	C	-0.140763	1.040144	0.112342
C12	C	-0.137784	0.924515	0.099852
C13	C	-0.127048	0.769184	-0.024869
C14	C	-0.129846	0.877829	-0.013144
C15	C	-0.142921	0.862549	0.201131
C16	C	-0.140123	0.753904	0.189406
C17	C	-0.132187	0.707226	0.076402
C18	C	-0.129396	0.598578	0.064678
C19	C	-0.142464	0.583301	0.278952
C20	C	-0.145262	0.691946	0.290677
C21	C	-0.300909	1.223189	0.132106
C22	C	-0.401013	1.225383	0.132338
C23	C	-0.817742	1.242356	0.026223
C24	C	-0.830802	1.227061	0.240493
C25	C	-0.736750	1.224987	0.240268
C26	C	-0.683189	1.231599	0.133019
C27	C	-0.723680	1.240285	0.025995
C28	C	-0.696250	1.216312	0.347291
C29	C	-0.602192	1.214239	0.347070
C30	C	-0.548630	1.220843	0.239819
C31	C	-0.589127	1.229528	0.132791
C32	C	-0.535566	1.236140	0.025542
C33	C	-0.576062	1.244818	-0.081489
C34	C	-0.670118	1.246889	-0.081256
C35	C	-0.454574	1.218771	0.239587
C36	C	-0.441505	1.234069	0.025314
C37	C	0.028592	1.237938	0.133712
C38	C	0.128697	1.235744	0.133472
C39	C	-0.131554	1.420983	0.153475
C40	C	-0.134533	1.536612	0.165957
N41	N	-0.153225	1.210607	0.412599
N42	N	-0.119085	1.250528	-0.146778
C43	C	-0.047229	1.334472	0.675272
C44	C	-0.054774	1.325667	0.798984
C45	C	-0.175854	1.184187	0.783737
C46	C	-0.168309	1.192992	0.660025
C47	C	-0.103996	1.268138	0.605797
C48	C	-0.096456	1.276947	0.482083
C49	C	-0.217531	1.135464	0.466838
C50	C	-0.225076	1.126659	0.590550
H51	H	-0.120596	0.731177	-0.116881
H52	H	-0.122938	0.560574	-0.027335
F53	F	0.021209	1.414456	0.617559
F54	F	0.005647	1.396266	0.872921
H55	H	-0.149371	0.900575	0.293133
H56	H	-0.263757	1.081453	0.410257
H57	H	-0.874416	1.221686	0.327811
H58	H	-0.125661	0.928272	-0.095609
F59	F	-0.384509	1.241099	-0.088839
H60	H	-0.228211	1.122999	0.827906
F61	F	-0.153708	0.741636	0.410937
F62	F	-0.293518	1.046684	0.648274
H63	H	-0.739865	1.210937	0.434608
F64	F	-0.147940	0.517352	0.386739
H65	H	-0.569229	1.207172	0.434221
H66	H	-0.532440	1.250207	-0.168810
H67	H	-0.703099	1.253958	-0.168394
H68	H	-0.850719	1.249417	-0.060919
H69	H	-0.421606	1.211710	0.326730
F70	F	-0.028011	1.356926	0.424373
