data_functionalizedCrystal
_audit_creation_method	'MofGen! by Chris Wilmer'
_symmetry_space_group_name_H-M	'P1'
_symmetry_Int_Tables_number	1
_symmetry_cell_setting	triclinic
loop_
_symmetry_equiv_pos_as_xyz
  x,y,z
_cell_length_a	18.215407
_cell_length_b	16.120531
_cell_length_c	18.215399
_cell_angle_alpha	87.136265
_cell_angle_beta	89.985640
_cell_angle_gamma	87.070360
loop_
_atom_site_label
_atom_site_type_symbol
_atom_site_fract_x
_atom_site_fract_y
_atom_site_fract_z
Zn1	Zn	1.110153	0.331952	-0.430896
Zn2	Zn	1.610153	0.831952	0.069104
Zn3	Zn	1.103811	0.471379	-0.314058
Zn4	Zn	1.603811	0.971379	0.185942
Zn5	Zn	0.987091	0.331978	-0.307850
Zn6	Zn	1.487091	0.831978	0.192150
Zn7	Zn	0.980797	0.471319	-0.437086
Zn8	Zn	1.480797	0.971319	0.062914
O9	O	1.045463	0.401657	-0.372473
O10	O	1.545463	0.901657	0.127527
O11	O	1.212296	0.350461	-0.415405
O12	O	1.712296	0.850461	0.084595
O13	O	1.088308	0.452923	-0.210252
O14	O	1.588308	0.952923	0.289748
O15	O	1.008704	0.215309	-0.318984
O16	O	1.508704	0.715309	0.181016
O17	O	1.207636	0.452898	-0.329565
O18	O	1.707636	0.952898	0.170435
O19	O	1.099117	0.215290	-0.409385
O20	O	1.599117	0.715290	0.090615
O21	O	1.002554	0.350505	-0.205691
O22	O	1.502554	0.850505	0.294309
O23	O	0.883273	0.350448	-0.324986
O24	O	1.383273	0.850448	0.175014
O25	O	0.997977	0.452796	-0.539248
O26	O	1.497977	0.952796	-0.039248
O27	O	0.878649	0.452821	-0.419935
O28	O	1.378649	0.952821	0.080065
O29	O	1.093014	0.350404	-0.534700
O30	O	1.593014	0.850404	-0.034700
O31	O	1.082205	0.588036	-0.335567
O32	O	1.582205	1.088036	0.164433
O33	O	0.991827	0.587992	-0.425955
O34	O	1.491827	1.087992	0.074045
C35	C	0.854258	0.401631	-0.372459
C36	C	1.354258	0.901631	0.127541
C37	C	0.772459	0.401640	-0.372471
C38	C	1.272459	0.901640	0.127529
C39	C	1.035665	0.618264	-0.382122
C40	C	1.535665	1.118264	0.117878
C41	C	1.031540	0.710930	-0.386275
C42	C	1.531540	1.210930	0.113725
C43	C	0.586685	0.348412	-0.417247
C44	C	1.086685	0.848412	0.082753
C45	C	0.509826	0.348419	-0.417250
C46	C	1.009826	0.848419	0.082750
C47	C	0.504992	0.454926	-0.327712
C48	C	1.004992	0.954926	0.172288
C49	C	0.581850	0.454914	-0.327706
C50	C	1.081850	0.954914	0.172294
C51	C	0.622695	0.401658	-0.372478
C52	C	1.122695	0.901658	0.127522
C53	C	0.468978	0.401677	-0.372487
C54	C	0.968978	0.901677	0.127513
C55	C	0.385644	0.401685	-0.372489
C56	C	0.885644	0.901685	0.127511
C57	C	0.706034	0.401648	-0.372474
C58	C	1.206034	0.901648	0.127526
C59	C	1.024015	0.880591	-0.393872
C60	C	1.524015	1.380591	0.106128
C61	C	1.066939	0.921882	-0.351032
C62	C	1.566939	1.421882	0.148968
C63	C	1.062752	1.016288	-0.355259
C64	C	1.562752	1.516288	0.144741
C65	C	1.028201	0.786177	-0.389646
C66	C	1.528201	1.286177	0.110354
C67	C	1.237415	0.401683	-0.372487
C68	C	1.737415	0.901683	0.127513
C69	C	1.319213	0.401694	-0.372493
C70	C	1.819213	0.901694	0.127507
C71	C	1.045501	0.401590	-0.564423
C72	C	1.545501	0.901590	-0.064423
C73	C	1.045517	0.401562	-0.646220
C74	C	1.545517	0.901562	-0.146220
C75	C	1.055294	1.184204	-0.362788
C76	C	1.555294	1.684204	0.137212
C77	C	1.059416	1.091538	-0.358627
C78	C	1.559416	1.591538	0.141373
C79	C	1.000906	0.348197	-0.832039
C80	C	1.500906	0.848197	-0.332039
C81	C	1.000920	0.348180	-0.908897
C82	C	1.500920	0.848180	-0.408897
C83	C	1.090220	0.454827	-0.913636
C84	C	1.590220	0.954827	-0.413636
C85	C	1.090202	0.454847	-0.836779
C86	C	1.590202	0.954847	-0.336779
C87	C	1.045547	0.401528	-0.795982
C88	C	1.545547	0.901528	-0.295982
C89	C	1.045578	0.401491	-0.949697
C90	C	1.545578	0.901491	-0.449697
C91	C	1.045593	0.401473	-1.033030
C92	C	1.545593	0.901473	-0.533030
C93	C	1.045530	0.401547	-0.712644
C94	C	1.545530	0.901547	-0.212644
C95	C	1.045471	0.401663	-0.181267
C96	C	1.545471	0.901663	0.318733
C97	C	1.045608	0.401457	-0.099459
C98	C	1.545608	0.901457	0.400541
H99	H	0.619939	0.305045	-0.453701
H100	H	1.119939	0.805045	0.046299
C101	C	0.470219	0.289846	-0.466502
C102	C	0.970219	0.789846	0.033498
N103	N	0.440388	0.245726	-0.503602
N104	N	0.940388	0.745726	-0.003602
H105	H	0.964569	0.304754	-0.938250
H106	H	1.464569	0.804754	-0.438250
C107	C	0.970115	0.928615	-0.447697
C108	C	1.470115	1.428615	0.052303
N109	N	0.929516	0.964797	-0.488235
N110	N	1.429516	1.464797	0.011765
C111	C	0.460056	0.513509	-0.278471
C112	C	0.960056	1.013509	0.221529
N113	N	0.426211	0.557638	-0.241383
N114	N	0.926211	1.057638	0.258617
C115	C	1.139327	0.513503	-0.797114
C116	C	1.639327	1.013503	-0.297114
N117	N	1.176329	0.557676	-0.767239
N118	N	1.676329	1.057676	-0.267239
H119	H	0.964545	0.304781	-0.798824
H120	H	1.464545	0.804781	-0.298824
H121	H	1.106833	0.886332	-0.311181
H122	H	1.606833	1.386332	0.188819
H123	H	0.611169	0.498274	-0.291245
H124	H	1.111169	0.998274	0.208755
C125	C	1.139169	0.513658	-0.958527
C126	C	1.639169	1.013658	-0.458527
N127	N	1.175977	0.558036	-0.992341
N128	N	1.675977	1.058036	-0.492341
