data_functionalizedCrystal
_audit_creation_method	'MofGen! by Chris Wilmer'
_symmetry_space_group_name_H-M	'P1'
_symmetry_Int_Tables_number	1
_symmetry_cell_setting	triclinic
loop_
_symmetry_equiv_pos_as_xyz
  x,y,z
_cell_length_a	17.699083
_cell_length_b	10.654550
_cell_length_c	16.776229
_cell_angle_alpha	89.994543
_cell_angle_beta	89.998886
_cell_angle_gamma	83.883959
loop_
_atom_site_label
_atom_site_type_symbol
_atom_site_fract_x
_atom_site_fract_y
_atom_site_fract_z
O1	O	1.005088	0.158809	-0.066174
O2	O	0.784841	0.179470	-0.066200
O3	O	0.900029	-0.013689	-0.066184
O4	O	0.889901	0.351967	-0.066191
O5	O	0.900013	-0.013700	0.066393
O6	O	0.784826	0.179458	0.066376
O7	O	1.005073	0.158797	0.066402
Zn8	Zn	0.894947	0.169126	0.087439
Zn9	Zn	0.894967	0.169141	-0.087237
O10	O	0.889885	0.351955	0.066386
C11	C	0.756632	0.178724	0.000085
C12	C	0.672599	0.176503	0.000075
C13	C	0.899277	-0.060479	0.000103
C14	C	0.897052	-0.199884	0.000100
C15	C	0.624699	0.289883	0.000073
C16	C	0.545743	0.287788	0.000083
C17	C	0.514688	0.172313	0.000090
C18	C	0.562594	0.058924	0.000094
C19	C	0.641549	0.061020	0.000090
C20	C	0.244177	0.050470	0.000114
C21	C	0.165216	0.048383	0.000116
C22	C	0.148371	0.277239	0.000108
C23	C	0.227326	0.279334	0.000103
C24	C	0.275225	0.165946	0.000112
C25	C	0.360839	0.168219	0.000102
C26	C	0.429076	0.170039	0.000094
C27	C	0.964873	-0.280557	0.000111
C28	C	0.962778	-0.411541	0.000105
C29	C	0.825036	-0.381166	0.000082
C30	C	0.827132	-0.250185	0.000082
C31	C	1.034794	-0.230256	0.000129
C32	C	1.102620	-0.310930	0.000141
C33	C	1.100525	-0.441914	0.000135
C34	C	1.030603	-0.492224	0.000118
C35	C	1.033282	0.159543	0.000115
C36	C	1.117314	0.161764	0.000120
C37	C	0.890637	0.398746	0.000097
C38	C	0.892861	0.538151	0.000095
N39	N	0.894938	0.169114	0.206650
N40	N	0.894981	0.169143	-0.206448
C41	C	0.945959	0.083619	0.248374
C42	C	0.945963	0.083618	0.331826
C43	C	0.894950	0.169119	0.373553
C44	C	0.843923	0.254619	0.331822
C45	C	0.843916	0.254613	0.248372
C46	C	0.843951	0.254643	0.668370
C47	C	0.843964	0.254645	0.751826
C48	C	0.945998	0.083648	0.751824
C49	C	0.945991	0.083642	0.668374
C50	C	0.894962	0.169137	0.626651
C51	C	0.894957	0.169135	0.536162
C52	C	0.894958	0.169128	0.464040
H53	H	0.649978	0.383916	0.000067
O54	O	0.290774	-0.059591	0.000006
C55	C	0.336933	-0.065240	-0.068669
H56	H	0.341454	0.034428	-0.091559
H57	H	0.396018	-0.112213	-0.053230
H58	H	0.310654	-0.122500	-0.116748
H59	H	0.252606	0.373366	0.000094
H60	H	0.109361	0.369564	0.000105
O61	O	1.170555	-0.262123	0.000011
C62	C	1.211957	-0.303379	-0.068637
H63	H	1.171090	-0.330491	-0.116635
H64	H	1.244576	-0.224123	-0.091679
H65	H	1.253681	-0.388880	-0.053111
H66	H	0.680549	-0.031306	0.000091
H67	H	0.987503	0.013999	0.214406
O68	O	1.166355	-0.520410	0.000246
C69	C	1.169262	-0.597078	0.068916
H70	H	1.109150	-0.603520	0.091797
H71	H	1.196939	-0.695608	0.053474
H72	H	1.204049	-0.554103	0.117004
H73	H	0.537303	-0.035099	0.000111
H74	H	1.036507	-0.123604	0.000137
H75	H	0.987508	0.014000	0.365798
H76	H	0.987533	0.014023	0.634403
H77	H	0.506745	0.380114	0.000081
H78	H	1.028903	-0.598881	0.000104
H79	H	0.768109	-0.422140	0.000069
H80	H	0.771906	-0.184498	0.000074
O81	O	0.995491	0.000634	0.792479
C82	C	0.984573	0.018983	0.875082
H83	H	0.924649	0.066039	0.886486
H84	H	0.992504	-0.076139	0.906802
H85	H	1.027739	0.081884	0.898755
O86	O	0.794328	0.337746	0.792237
C87	C	0.749298	0.413223	0.737518
H88	H	0.748169	0.361737	0.678035
H89	H	0.688961	0.432494	0.761640
H90	H	0.774348	0.506471	0.728631
H91	H	0.802403	0.324258	0.634405
H92	H	0.139935	-0.045657	0.000123
O93	O	0.794441	0.337628	0.372476
C94	C	0.805375	0.319285	0.455080
H95	H	0.865301	0.272225	0.466474
H96	H	0.797455	0.414410	0.486786
H97	H	0.762213	0.256390	0.478775
O98	O	0.794329	0.337788	0.207962
C99	C	0.749291	0.413237	0.262683
H100	H	0.780333	0.414598	0.322165
H101	H	0.738265	0.513549	0.238562
H102	H	0.692859	0.372575	0.271570
