data_functionalizedCrystal
_audit_creation_method	'MofGen! by Chris Wilmer'
_symmetry_space_group_name_H-M	'P1'
_symmetry_Int_Tables_number	1
_symmetry_cell_setting	triclinic
loop_
_symmetry_equiv_pos_as_xyz
  x,y,z
_cell_length_a	16.109301
_cell_length_b	17.699092
_cell_length_c	14.586319
_cell_angle_alpha	90.010680
_cell_angle_beta	90.005889
_cell_angle_gamma	83.373976
loop_
_atom_site_label
_atom_site_type_symbol
_atom_site_fract_x
_atom_site_fract_y
_atom_site_fract_z
O1	O	1.102971	0.097294	0.076186
O2	O	1.436304	0.430627	0.409520
O3	O	1.769638	0.763961	0.742853
O4	O	0.860888	0.109401	0.076199
O5	O	1.194222	0.442734	0.409532
O6	O	1.527555	0.776067	0.742866
O7	O	0.988765	-0.006832	0.076190
O8	O	1.322099	0.326502	0.409524
O9	O	1.655432	0.659835	0.742857
O10	O	0.975094	0.213526	0.076195
O11	O	1.308427	0.546860	0.409528
O12	O	1.641760	0.880193	0.742862
O13	O	0.988747	-0.006851	-0.076291
O14	O	1.322081	0.326482	0.257043
O15	O	1.655414	0.659815	0.590376
O16	O	0.860870	0.109381	-0.076282
O17	O	1.194204	0.442714	0.257051
O18	O	1.527537	0.776048	0.590385
O19	O	1.102953	0.097274	-0.076294
O20	O	1.436286	0.430608	0.257039
O21	O	1.769619	0.763941	0.590372
Cu22	Cu	0.981910	0.103326	-0.090211
Cu23	Cu	1.315243	0.436659	0.243123
Cu24	Cu	1.648577	0.769993	0.576456
Cu25	Cu	0.981931	0.103349	0.090115
Cu26	Cu	1.315265	0.436682	0.423449
Cu27	Cu	1.648598	0.770016	0.756782
O28	O	0.975076	0.213507	-0.076286
O29	O	1.308409	0.546840	0.257048
O30	O	1.641742	0.880173	0.590381
C31	C	0.829905	0.108900	-0.000040
C32	C	1.163239	0.442234	0.333294
C33	C	1.496572	0.775567	0.666627
C34	C	0.737613	0.107430	-0.000035
C35	C	1.070946	0.440763	0.333298
C36	C	1.404279	0.774097	0.666632
C37	C	0.428506	0.171593	-0.000050
C38	C	0.761839	0.504927	0.333284
C39	C	1.095173	0.838260	0.666617
C40	C	0.515224	0.172982	-0.000044
C41	C	0.848557	0.506315	0.333289
C42	C	1.181890	0.839649	0.666622
C43	C	0.535330	0.035076	-0.000035
C44	C	0.868663	0.368410	0.333298
C45	C	1.201997	0.701743	0.666632
C46	C	0.448614	0.033688	-0.000034
C47	C	0.781947	0.367022	0.333300
C48	C	1.115280	0.700355	0.666633
C49	C	0.395203	0.101949	-0.000046
C50	C	0.728537	0.435283	0.333288
C51	C	1.061870	0.768616	0.666621
C52	C	0.568638	0.104726	-0.000042
C53	C	0.901971	0.438059	0.333292
C54	C	1.235304	0.771392	0.666625
C55	C	0.662661	0.106231	-0.000036
C56	C	0.995995	0.439564	0.333298
C57	C	1.329328	0.772898	0.666631
C58	C	0.301174	0.100444	-0.000050
C59	C	0.634507	0.433778	0.333284
C60	C	0.967841	0.767111	0.666617
C61	C	0.988265	-0.035039	-0.000049
C62	C	1.321599	0.298294	0.333285
C63	C	1.654932	0.631628	0.666618
C64	C	0.986792	-0.119059	-0.000044
C65	C	1.320126	0.214274	0.333289
C66	C	1.653459	0.547608	0.666622
C67	C	0.986112	-0.158517	0.083074
C68	C	1.319445	0.174817	0.416407
C69	C	1.652779	0.508150	0.749741
C70	C	0.984722	-0.237462	0.083075
C71	C	1.318056	0.095872	0.416408
C72	C	1.651389	0.429205	0.749742
C73	C	0.984019	-0.276948	-0.000043
C74	C	1.317353	0.056385	0.333290
C75	C	1.650686	0.389719	0.666624
C76	C	0.984697	-0.237484	-0.083168
C77	C	1.318030	0.095849	0.250165
C78	C	1.651364	0.429182	0.583499
C79	C	0.986081	-0.158540	-0.083168
C80	C	1.319414	0.174793	0.250165
C81	C	1.652747	0.508126	0.583499
C82	C	0.979116	-0.555857	-0.083169
C83	C	1.312450	-0.222524	0.250164
C84	C	1.645783	0.110809	0.583498
C85	C	0.977735	-0.634808	-0.083162
C86	C	1.311069	-0.301474	0.250171
C87	C	1.644402	0.031859	0.583504
C88	C	0.977758	-0.634779	0.083074
C89	C	1.311091	-0.301445	0.416408
C90	C	1.644425	0.031888	0.749741
C91	C	0.979142	-0.555835	0.083074
C92	C	1.312475	-0.222501	0.416407
C93	C	1.645808	0.110832	0.749741
C94	C	0.979815	-0.516377	-0.000050
C95	C	1.313148	-0.183044	0.333283
C96	C	1.646482	0.150289	0.666617
C97	C	0.981320	-0.430776	-0.000050
C98	C	1.314654	-0.097443	0.333283
C99	C	1.647987	0.235891	0.666616
C100	C	0.982520	-0.362549	-0.000044
C101	C	1.315853	-0.029215	0.333290
C102	C	1.649187	0.304118	0.666623
C103	C	1.133936	0.097775	-0.000054
C104	C	1.467269	0.431108	0.333280
C105	C	1.800603	0.764441	0.666613
C106	C	1.226229	0.099245	-0.000052
C107	C	1.559562	0.432578	0.333281
C108	C	1.892895	0.765912	0.666614
C109	C	0.975576	0.241714	-0.000045
C110	C	1.308909	0.575047	0.333289
C111	C	1.642242	0.908381	0.666622
C112	C	0.977049	0.325734	-0.000043
C113	C	1.310382	0.659067	0.333290
C114	C	1.643716	0.992401	0.666624
N115	N	0.981901	0.103309	-0.217043
N116	N	1.315234	0.436643	0.116291
N117	N	1.648568	0.769976	0.449624
C118	C	0.931596	0.057424	-0.548070
C119	C	1.264929	0.390757	-0.214736
C120	C	1.598263	0.724091	0.118597
C121	C	0.931589	0.057413	-0.452089
C122	C	1.264923	0.390747	-0.118755
C123	C	1.598256	0.724080	0.214578
C124	C	1.032258	0.149247	-0.452032
C125	C	1.365591	0.482580	-0.118699
C126	C	1.698924	0.815914	0.214634
C127	C	1.032268	0.149253	-0.548012
C128	C	1.365601	0.482586	-0.214678
C129	C	1.698935	0.815920	0.118655
C130	C	0.981932	0.103343	-0.596028
C131	C	1.315266	0.436676	-0.262695
C132	C	1.648599	0.770009	0.070639
C133	C	0.981915	0.103326	-0.404067
C134	C	1.315249	0.436660	-0.070734
C135	C	1.648582	0.769993	0.262599
C136	C	0.981909	0.103315	-0.300000
C137	C	1.315242	0.436649	0.033333
C138	C	1.648575	0.769982	0.366666
C139	C	0.981940	0.103353	-0.700102
C140	C	1.315274	0.436686	-0.366768
C141	C	1.648607	0.770019	-0.033435
N142	N	0.981947	0.103360	0.216947
N143	N	1.315280	0.436693	0.550281
N144	N	1.648613	0.770027	0.883614
H145	H	0.578827	-0.020499	-0.000027
H146	H	0.912160	0.312834	0.333306
H147	H	1.245494	0.646168	0.666639
Cl148	Cl	0.983803	-0.287124	-0.187660
Cl149	Cl	1.317136	0.046210	0.145673
Cl150	Cl	1.650470	0.379543	0.479007
H151	H	0.890610	0.020040	-0.587162
H152	H	1.223944	0.353374	-0.253829
H153	H	1.557277	0.686707	0.079505
H154	H	0.977206	-0.666914	0.150758
H155	H	1.310539	-0.333581	0.484091
H156	H	1.643872	-0.000247	0.817425
Cl157	Cl	0.868302	-0.000312	-0.391802
Cl158	Cl	1.201635	0.333022	-0.058469
Cl159	Cl	1.534968	0.666355	0.274864
Cl160	Cl	0.976849	-0.684447	-0.187662
Cl161	Cl	1.310183	-0.351113	0.145671
Cl162	Cl	1.643516	-0.017780	0.479005
Cl163	Cl	1.095529	0.206963	-0.391662
Cl164	Cl	1.428862	0.540296	-0.058329
Cl165	Cl	1.762196	0.873630	0.275004
Cl166	Cl	0.986935	-0.108936	-0.187664
Cl167	Cl	1.320268	0.224398	0.145669
Cl168	Cl	1.653601	0.557731	0.479002
Cl169	Cl	1.095557	0.206981	-0.608307
Cl170	Cl	1.428890	0.540314	-0.274973
Cl171	Cl	1.762224	0.873648	0.058360
H172	H	0.979681	-0.523743	-0.150854
H173	H	1.313015	-0.190410	0.182480
H174	H	1.646348	0.142924	0.515813
Cl175	Cl	0.406745	-0.053872	-0.000017
Cl176	Cl	0.740078	0.279462	0.333316
Cl177	Cl	1.073411	0.612795	0.666650
H178	H	0.542334	0.229693	-0.000047
H179	H	0.875667	0.563026	0.333287
H180	H	1.209000	0.896360	0.666620
Cl181	Cl	0.983869	-0.287063	0.187572
Cl182	Cl	1.317202	0.046271	0.520905
Cl183	Cl	1.650535	0.379604	0.854238
Cl184	Cl	0.987002	-0.108885	0.187572
Cl185	Cl	1.320335	0.224448	0.520905
Cl186	Cl	1.653668	0.557782	0.854239
Cl187	Cl	0.980030	-0.506199	0.187570
Cl188	Cl	1.313363	-0.172866	0.520903
Cl189	Cl	1.646696	0.160467	0.854236
Cl190	Cl	0.361365	0.257407	-0.000060
Cl191	Cl	0.694698	0.590740	0.333273
Cl192	Cl	1.028031	0.924074	0.666607
