data_functionalizedCrystal
_audit_creation_method	'MofGen! by Chris Wilmer'
_symmetry_space_group_name_H-M	'P1'
_symmetry_Int_Tables_number	1
_symmetry_cell_setting	triclinic
loop_
_symmetry_equiv_pos_as_xyz
  x,y,z
_cell_length_a	12.759395
_cell_length_b	12.759394
_cell_length_c	18.215399
_cell_angle_alpha	90.023582
_cell_angle_beta	90.018218
_cell_angle_gamma	90.014544
loop_
_atom_site_label
_atom_site_type_symbol
_atom_site_fract_x
_atom_site_fract_y
_atom_site_fract_z
Zn1	Zn	1.606242	-0.418258	0.416107
Zn2	Zn	1.606145	-0.593955	0.293050
Zn3	Zn	1.430550	-0.418293	0.293057
Zn4	Zn	1.430535	-0.593898	0.416078
O5	O	1.518368	-0.506101	0.354573
O6	O	1.753250	-0.441574	0.399791
O7	O	1.582817	-0.570692	0.190066
O8	O	1.453902	-0.271267	0.309395
O9	O	1.753179	-0.570658	0.309382
O10	O	1.582982	-0.271242	0.399799
O11	O	1.453808	-0.441634	0.190072
O12	O	1.283527	-0.441578	0.309368
O13	O	1.453877	-0.570560	0.519066
O14	O	1.283516	-0.570594	0.399750
O15	O	1.582968	-0.441518	0.519087
O16	O	1.582803	-0.740969	0.309354
O17	O	1.453783	-0.740926	0.399743
C18	C	1.245400	-0.506084	0.354557
C19	C	1.128623	-0.506102	0.354568
C20	C	0.909227	-0.640688	0.448559
C21	C	0.964113	-0.707959	0.495537
C22	C	1.073834	-0.707946	0.495528
C23	C	1.128673	-0.640657	0.448534
C24	C	1.073787	-0.573386	0.401555
C25	C	0.964063	-0.573404	0.401572
C26	C	1.073738	-0.438831	0.307590
C27	C	0.964016	-0.438837	0.307602
C28	C	1.128577	-0.371542	0.260595
C29	C	1.073691	-0.304265	0.213620
C30	C	0.963963	-0.304279	0.213632
C31	C	0.909131	-0.371566	0.260624
C32	C	1.518309	-0.779069	0.354561
C33	C	1.518380	-0.895845	0.354580
C34	C	1.652691	-0.895660	0.448788
C35	C	1.719879	-0.950428	0.495898
C36	C	1.719942	-1.060150	0.495914
C37	C	1.652806	-1.115106	0.448816
C38	C	1.585618	-1.060338	0.401707
C39	C	1.585565	-0.950613	0.401695
C40	C	1.451304	-1.060523	0.307504
C41	C	1.451245	-0.950801	0.307483
C42	C	1.384168	-1.115478	0.260407
C43	C	1.316984	-1.060710	0.213292
C44	C	1.316925	-0.950982	0.213278
C45	C	1.384057	-0.896033	0.260373
C46	C	1.792401	-0.506119	0.354589
C47	C	1.909178	-0.506126	0.354596
C48	C	1.518432	-0.506029	0.546526
C49	C	1.518459	-0.505998	0.628325
C50	C	1.518455	-0.232068	0.354601
C51	C	1.518492	-0.115291	0.354613
C52	C	1.518364	-0.506097	0.163367
C53	C	1.518541	-0.505832	0.081568
C54	C	1.585701	-0.438743	0.816531
C55	C	1.585713	-0.438712	0.893390
C56	C	1.451291	-0.573090	0.893357
C57	C	1.451274	-0.573115	0.816499
C58	C	1.518485	-0.505943	0.778088
C59	C	1.518515	-0.505887	0.931805
C60	C	1.518528	-0.505855	1.015138
C61	C	1.518471	-0.505974	0.694749
H62	H	0.919451	-0.762746	0.533797
H63	H	1.262208	-0.906395	0.174918
Cl64	Cl	1.366761	-0.657595	0.768168
H65	H	1.396573	-0.627781	0.924640
Cl66	Cl	1.383972	-0.758096	0.260371
H67	H	1.640445	-0.383990	0.924686
H68	H	1.774641	-1.104742	0.534282
H69	H	1.652854	-1.204447	0.448840
Cl70	Cl	0.771194	-0.371587	0.260645
H71	H	0.819886	-0.640695	0.448579
H72	H	1.218014	-0.640662	0.448524
H73	H	1.118522	-0.762726	0.533780
Cl74	Cl	1.266513	-0.371530	0.260580
H75	H	1.118349	-0.249488	0.175358
Cl76	Cl	0.894973	-0.219711	0.154565
H77	H	1.652657	-0.806319	0.448773
H78	H	1.640425	-0.384044	0.785259
H79	H	1.262322	-1.105464	0.174953
H80	H	1.774539	-0.905674	0.534245
H81	H	1.384220	-1.204820	0.260426
