data_functionalizedCrystal
_audit_creation_method	'MofGen! by Chris Wilmer'
_symmetry_space_group_name_H-M	'P1'
_symmetry_Int_Tables_number	1
_symmetry_cell_setting	triclinic
loop_
_symmetry_equiv_pos_as_xyz
  x,y,z
_cell_length_a	17.000383
_cell_length_b	17.038272
_cell_length_c	9.130313
_cell_angle_alpha	89.995195
_cell_angle_beta	89.993268
_cell_angle_gamma	83.355929
loop_
_atom_site_label
_atom_site_type_symbol
_atom_site_fract_x
_atom_site_fract_y
_atom_site_fract_z
O1	O	1.057998	0.028052	-0.121900
O2	O	0.828179	0.056295	-0.121882
O3	O	0.941723	-0.071548	-0.121879
O4	O	0.944454	0.155895	-0.121903
O5	O	0.941714	-0.071551	0.121719
O6	O	0.828170	0.056292	0.121717
O7	O	1.057990	0.028049	0.121698
Cu8	Cu	0.943079	0.042170	0.143950
Cu9	Cu	0.943089	0.042174	-0.144134
O10	O	0.944446	0.155893	0.121696
C11	C	0.798624	0.057810	-0.000080
C12	C	0.710571	0.062321	-0.000073
C13	C	0.212326	0.091445	-0.000130
C14	C	0.295061	0.087201	-0.000129
C15	C	0.341068	0.013535	-0.000110
C16	C	0.304335	-0.055892	-0.000108
C17	C	0.221601	-0.051647	-0.000120
C18	C	0.591103	-0.002861	-0.000083
C19	C	0.673843	-0.007101	-0.000066
C20	C	0.664564	0.135993	-0.000090
C21	C	0.581828	0.140231	-0.000093
C22	C	0.545103	0.070804	-0.000098
C23	C	0.425637	0.009195	-0.000104
C24	C	0.460535	0.075145	-0.000115
C25	C	0.939234	-0.100508	-0.000080
C26	C	0.931821	-0.186793	-0.000080
C27	C	0.999879	-0.241568	-0.000084
C28	C	0.992910	-0.322641	-0.000097
C29	C	0.917881	-0.348938	-0.000096
C30	C	0.849817	-0.294156	-0.000096
C31	C	0.856788	-0.213085	-0.000094
C32	C	0.893255	-0.593009	-0.000114
C33	C	0.886289	-0.674088	-0.000113
C34	C	1.029382	-0.702567	-0.000116
C35	C	1.036346	-0.621493	-0.000104
C36	C	0.968283	-0.566718	-0.000112
C37	C	0.910755	-0.431807	-0.000105
C38	C	0.975410	-0.483850	-0.000114
C39	C	1.087545	0.026534	-0.000107
C40	C	1.175598	0.022024	-0.000124
C41	C	0.946935	0.184852	-0.000107
C42	C	0.954348	0.271137	-0.000117
N43	N	0.943078	0.042167	0.346573
N44	N	0.943097	0.042171	-0.346756
C45	C	0.993375	-0.014421	0.423226
C46	C	0.993382	-0.014421	0.576563
C47	C	0.892794	0.098762	0.576580
C48	C	0.892783	0.098758	0.423246
H49	H	0.324961	0.143731	-0.000148
Br50	Br	0.824512	0.175556	0.319205
H51	H	0.423073	0.135124	-0.000137
Br52	Br	0.488081	-0.090778	-0.000067
H53	H	1.036498	-0.462436	-0.000147
Br54	Br	0.149896	0.191426	-0.000138
H55	H	1.034327	-0.060501	0.360802
Br56	Br	0.824541	0.175562	0.680641
Br57	Br	0.519396	0.240210	-0.000126
Br58	Br	0.714410	0.230209	-0.000091
H59	H	0.711300	-0.067092	-0.000058
H60	H	0.561212	-0.059393	-0.000083
Br61	Br	0.808932	-0.467503	-0.000118
Br62	Br	1.101709	-0.205888	-0.000064
Br63	Br	0.784458	-0.709775	-0.000096
Br64	Br	0.366771	-0.155869	-0.000091
Br65	Br	0.747991	-0.329843	-0.000120
Br66	Br	0.764419	-0.138745	-0.000100
Br67	Br	1.061641	-0.091226	0.680589
Br68	Br	1.085279	-0.396977	-0.000103
H69	H	0.191699	-0.108177	-0.000117
H70	H	1.097443	-0.600089	-0.000105
H71	H	1.084795	-0.747173	-0.000112
H72	H	0.837832	-0.548421	-0.000120
