data_functionalizedCrystal
_audit_creation_method	'MofGen! by Chris Wilmer'
_symmetry_space_group_name_H-M	'P1'
_symmetry_Int_Tables_number	1
_symmetry_cell_setting	triclinic
loop_
_symmetry_equiv_pos_as_xyz
  x,y,z
_cell_length_a	10.654549
_cell_length_b	10.654551
_cell_length_c	9.130313
_cell_angle_alpha	89.997246
_cell_angle_beta	89.997498
_cell_angle_gamma	84.485103
loop_
_atom_site_label
_atom_site_type_symbol
_atom_site_fract_x
_atom_site_fract_y
_atom_site_fract_z
O1	O	1.667840	0.176396	-0.121759
O2	O	1.302362	0.193203	-0.121769
O3	O	1.493503	0.002061	-0.121761
O4	O	1.476699	0.367539	-0.121768
O5	O	1.493490	0.002055	0.121838
O6	O	1.302349	0.193197	0.121830
O7	O	1.667827	0.176391	0.121839
Cu8	Cu	1.485087	0.184794	0.144077
Cu9	Cu	1.485102	0.184800	-0.144007
O10	O	1.476686	0.367533	0.121831
C11	C	1.255557	0.191966	0.000029
C12	C	1.116114	0.188275	0.000025
C13	C	0.905600	0.297338	0.000029
C14	C	1.036621	0.300816	0.000020
C15	C	1.064581	0.072247	0.000024
C16	C	0.933563	0.068770	0.000022
C17	C	1.492263	-0.044740	0.000036
C18	C	1.488570	-0.184183	0.000029
C19	C	1.714632	0.177628	0.000038
C20	C	1.854075	0.181319	0.000032
C21	C	1.486844	-0.249684	-0.132758
C22	C	1.483364	-0.380704	-0.132759
C23	C	1.483341	-0.380712	0.132826
C24	C	1.486812	-0.249693	0.132825
N25	N	1.485085	0.184788	0.346700
C26	C	1.477927	0.414334	0.000031
C27	C	1.481619	0.553777	0.000028
N28	N	1.485114	0.184796	-0.346629
C29	C	1.569751	0.100186	0.423355
C30	C	1.569763	0.100187	0.576692
C31	C	1.400439	0.269402	0.576704
C32	C	1.400422	0.269394	0.423370
H33	H	0.891612	-0.025712	0.000020
C34	C	1.307312	0.362461	0.661056
N35	N	1.237166	0.432555	0.724589
C36	C	1.152029	-0.051550	0.000039
N37	N	1.217894	-0.144797	0.000060
C38	C	1.662873	0.007107	0.339023
N39	N	1.733012	-0.063007	0.275508
H40	H	1.638705	0.031295	0.639101
H41	H	1.331470	0.338288	0.360953
C42	C	0.818168	0.421145	0.000027
N43	N	0.752317	0.514401	0.000019
C44	C	1.093291	0.428446	0.000028
N45	N	1.135973	0.524582	0.000037
H46	H	1.488272	-0.196349	-0.240889
H47	H	1.481956	-0.434029	-0.240888
C48	C	1.481413	-0.452786	0.278893
N49	N	1.479962	-0.507071	0.388915
C50	C	1.488710	-0.177638	0.278909
N51	N	1.490135	-0.123366	0.388935
