data_functionalizedCrystal
_audit_creation_method	'MofGen! by Chris Wilmer'
_symmetry_space_group_name_H-M	'P1'
_symmetry_Int_Tables_number	1
_symmetry_cell_setting	triclinic
loop_
_symmetry_equiv_pos_as_xyz
  x,y,z
_cell_length_a	16.625548
_cell_length_b	16.625546
_cell_length_c	19.805399
_cell_angle_alpha	89.970726
_cell_angle_beta	89.984078
_cell_angle_gamma	90.023536
loop_
_atom_site_label
_atom_site_type_symbol
_atom_site_fract_x
_atom_site_fract_y
_atom_site_fract_z
Zn1	Zn	1.232643	-0.320986	-0.382701
Zn2	Zn	1.565977	0.012347	-0.049368
Zn3	Zn	1.899310	0.345681	0.283966
Zn4	Zn	1.232558	-0.455827	-0.269512
Zn5	Zn	1.565891	-0.122493	0.063821
Zn6	Zn	1.899224	0.210840	0.397155
Zn7	Zn	1.097816	-0.321014	-0.269527
Zn8	Zn	1.431150	0.012319	0.063806
Zn9	Zn	1.764483	0.345652	0.397139
Zn10	Zn	1.097776	-0.455783	-0.382661
Zn11	Zn	1.431109	-0.122450	-0.049327
Zn12	Zn	1.764442	0.210884	0.284006
O13	O	1.165198	-0.388402	-0.326100
O14	O	1.498532	-0.055069	0.007233
O15	O	1.831865	0.278264	0.340566
O16	O	1.345464	-0.338880	-0.367697
O17	O	1.678798	-0.005546	-0.034363
O18	O	2.012131	0.327787	0.298970
O19	O	1.214665	-0.437973	-0.174798
O20	O	1.547998	-0.104640	0.158536
O21	O	1.881332	0.228693	0.491869
O22	O	1.115754	-0.208178	-0.284563
O23	O	1.449088	0.125155	0.048770
O24	O	1.782421	0.458489	0.382103
O25	O	1.345401	-0.437946	-0.284537
O26	O	1.678735	-0.104613	0.048796
O27	O	2.012068	0.228720	0.382129
O28	O	1.214811	-0.208157	-0.367711
O29	O	1.548145	0.125176	-0.034378
O30	O	1.881478	0.458509	0.298955
O31	O	1.115671	-0.338927	-0.174809
O32	O	1.449004	-0.005594	0.158525
O33	O	1.782338	0.327739	0.491858
O34	O	0.984978	-0.338885	-0.284524
O35	O	1.318312	-0.005552	0.048809
O36	O	1.651645	0.327782	0.382142
O37	O	1.115685	-0.437872	-0.477383
O38	O	1.449019	-0.104539	-0.144049
O39	O	1.782352	0.228795	0.189284
O40	O	0.984949	-0.437899	-0.367643
O41	O	1.318282	-0.104566	-0.034310
O42	O	1.651615	0.228768	0.299024
O43	O	1.214772	-0.338837	-0.477412
O44	O	1.548105	-0.005504	-0.144079
O45	O	1.881439	0.327829	0.189254
O46	O	1.214626	-0.568653	-0.284498
O47	O	1.547959	-0.235320	0.048835
O48	O	1.881292	0.098013	0.382168
O49	O	1.115602	-0.568621	-0.367628
O50	O	1.448935	-0.235288	-0.034295
O51	O	1.782269	0.098045	0.299039
C52	C	0.955707	-0.388391	-0.326081
C53	C	1.289041	-0.055058	0.007252
C54	C	1.622374	0.278276	0.340585
C55	C	0.866086	-0.388405	-0.326089
C56	C	1.199420	-0.055072	0.007244
C57	C	1.532753	0.278261	0.340577
C58	C	0.537911	-0.388411	-0.326118
C59	C	0.871244	-0.055077	0.007215
C60	C	1.204577	0.278256	0.340548
C61	C	0.629219	-0.388407	-0.326108
C62	C	0.962552	-0.055074	0.007225
C63	C	1.295886	0.278260	0.340559
C64	C	0.701996	-0.388409	-0.326103
C65	C	1.035329	-0.055075	0.007230
C66	C	1.368662	0.278258	0.340563
C67	C	0.793310	-0.388404	-0.326094
C68	C	1.126643	-0.055071	0.007239
C69	C	1.459977	0.278263	0.340573
C70	C	1.165122	-0.597893	-0.326072
C71	C	1.498455	-0.264560	0.007261
C72	C	1.831789	0.068773	0.340595
C73	C	1.165163	-0.687514	-0.326082
C74	C	1.498496	-0.354181	0.007251
C75	C	1.831830	-0.020848	0.340584
C76	C	1.165304	-1.015690	-0.326153
C77	C	1.498637	-0.682357	0.007180
C78	C	1.831970	-0.349023	0.340514
C79	C	1.165262	-0.924382	-0.326135
C80	C	1.498595	-0.591048	0.007198
C81	C	1.831929	-0.257715	0.340531
C82	C	1.165233	-0.851605	-0.326117
C83	C	1.498566	-0.518272	0.007216
C84	C	1.831899	-0.184938	0.340549
C85	C	1.165192	-0.760291	-0.326100
C86	C	1.498526	-0.426958	0.007233
C87	C	1.831859	-0.093624	0.340566
C88	C	1.375507	-0.388415	-0.326120
C89	C	1.708840	-0.055081	0.007214
C90	C	2.042174	0.278252	0.340547
C91	C	1.465128	-0.388420	-0.326128
C92	C	1.798462	-0.055086	0.007205
C93	C	2.131795	0.278247	0.340539
C94	C	1.165234	-0.388347	-0.502643
C95	C	1.498567	-0.055013	-0.169310
C96	C	1.831900	0.278320	0.164024
C97	C	1.165249	-0.388323	-0.577875
C98	C	1.498582	-0.054989	-0.244542
C99	C	1.831915	0.278344	0.088792
C100	C	1.165297	-0.178094	-0.326144
C101	C	1.498630	0.155240	0.007190
C102	C	1.831964	0.488573	0.340523
C103	C	1.165339	-0.088472	-0.326162
C104	C	1.498672	0.244861	0.007171
C105	C	1.832006	0.578194	0.340505
C106	C	1.113717	-0.336745	-0.613225
C107	C	1.447051	-0.003411	-0.279891
C108	C	1.780384	0.329922	0.053442
C109	C	1.113728	-0.336729	-0.683913
C110	C	1.447062	-0.003396	-0.350580
C111	C	1.780395	0.329938	-0.017246
C112	C	1.165276	-0.388288	-0.719251
C113	C	1.498609	-0.054955	-0.385917
C114	C	1.831942	0.278379	-0.052584
C115	C	1.216809	-0.439872	-0.683896
C116	C	1.550143	-0.106538	-0.350563
C117	C	1.883476	0.226795	-0.017230
C118	C	1.216794	-0.439891	-0.613209
C119	C	1.550127	-0.106558	-0.279876
C120	C	1.883460	0.226776	0.053458
C121	C	1.216873	-0.439796	-0.968970
C122	C	1.550207	-0.106463	-0.635636
C123	C	1.883540	0.226870	-0.302303
C124	C	1.216887	-0.439771	-1.039662
C125	C	1.550220	-0.106438	-0.706329
C126	C	1.883553	0.226895	-0.372995
C127	C	1.113808	-0.336634	-1.039674
C128	C	1.447141	-0.003301	-0.706340
C129	C	1.780475	0.330032	-0.373007
C130	C	1.113792	-0.336653	-0.968987
C131	C	1.447126	-0.003320	-0.635653
C132	C	1.780459	0.330013	-0.302320
C133	C	1.165323	-0.388240	-0.933638
C134	C	1.498656	-0.054907	-0.600305
C135	C	1.831989	0.278427	-0.266972
C136	C	1.165309	-0.388257	-0.856990
C137	C	1.498642	-0.054924	-0.523656
C138	C	1.831976	0.278409	-0.190323
C139	C	1.165294	-0.388267	-0.795898
C140	C	1.498627	-0.054934	-0.462565
C141	C	1.831961	0.278400	-0.129231
C142	C	1.165209	-0.388400	-0.150244
C143	C	1.498543	-0.055067	0.183089
C144	C	1.831876	0.278267	0.516422
C145	C	1.165351	-0.388197	-0.075013
C146	C	1.498684	-0.054863	0.258321
C147	C	1.832017	0.278470	0.591654
H148	H	1.071746	-0.294755	-0.584458
H149	H	1.405079	0.038579	-0.251124
H150	H	1.738413	0.371912	0.082209
Br151	Br	1.286760	-0.509853	-0.731854
Br152	Br	1.620093	-0.176520	-0.398520
Br153	Br	1.953427	0.156814	-0.065187
H154	H	1.071820	-0.294666	-0.940218
H155	H	1.405153	0.038667	-0.606885
H156	H	1.738487	0.372001	-0.273551
H157	H	1.258762	-0.481885	-0.584428
H158	H	1.592095	-0.148552	-0.251095
H159	H	1.925428	0.184782	0.082238
H160	H	1.071763	-0.294732	-0.712692
H161	H	1.405097	0.038602	-0.379358
H162	H	1.738430	0.371935	-0.046025
H163	H	1.071847	-0.294632	-1.068463
H164	H	1.405180	0.038701	-0.735129
H165	H	1.738514	0.372034	-0.401796
H166	H	1.258865	-0.481760	-1.068432
H167	H	1.592198	-0.148427	-0.735099
H168	H	1.925531	0.184907	-0.401765
H169	H	1.258824	-0.481810	-0.940198
H170	H	1.592157	-0.148477	-0.606864
H171	H	1.925490	0.184857	-0.273531
