data_functionalizedCrystal
_audit_creation_method	'MofGen! by Chris Wilmer'
_symmetry_space_group_name_H-M	'P1'
_symmetry_Int_Tables_number	1
_symmetry_cell_setting	triclinic
loop_
_symmetry_equiv_pos_as_xyz
  x,y,z
_cell_length_a	15.624803
_cell_length_b	15.538191
_cell_length_c	9.130313
_cell_angle_alpha	89.998786
_cell_angle_beta	71.910502
_cell_angle_gamma	66.736403
loop_
_atom_site_label
_atom_site_type_symbol
_atom_site_fract_x
_atom_site_fract_y
_atom_site_fract_z
O1	O	1.156105	0.122854	-0.735984
O2	O	0.888809	0.137517	-0.593979
O3	O	1.074488	-0.006880	-0.692631
O4	O	0.970425	0.267250	-0.637332
O5	O	1.074480	-0.006884	-0.449028
O6	O	0.888801	0.137513	-0.350376
O7	O	1.156097	0.122850	-0.492380
Cu8	Cu	1.022448	0.130181	-0.399135
Cu9	Cu	1.022458	0.130186	-0.687224
O10	O	0.970417	0.267246	-0.393729
C11	C	0.855431	0.136854	-0.454448
C12	C	0.755990	0.134872	-0.401619
C13	C	0.429074	0.128315	-0.891970
C14	C	0.335643	0.126434	-0.842331
C15	C	0.335612	0.126429	-0.576753
C16	C	0.429047	0.128305	-0.626370
C17	C	0.475770	0.129249	-0.783980
C18	C	0.475743	0.129239	-0.518380
C19	C	0.569168	0.131120	-0.567993
C20	C	0.615896	0.132067	-0.725596
C21	C	0.569195	0.131130	-0.833593
C22	C	0.429014	0.128303	-0.360770
C23	C	0.475711	0.129237	-0.252780
C24	C	0.569140	0.131111	-0.302394
C25	C	0.615869	0.132057	-0.459996
C26	C	0.615841	0.132048	-0.194397
C27	C	0.709266	0.133928	-0.244010
C28	C	0.709294	0.133938	-0.509609
C29	C	1.085372	-0.041964	-0.576618
C30	C	1.117803	-0.146497	-0.593862
C31	C	0.795610	-0.434687	-0.422662
C32	C	0.826107	-0.532915	-0.438861
C33	C	0.997642	-0.555145	-0.529991
C34	C	0.967160	-0.456917	-0.513808
C35	C	0.866143	-0.396695	-0.460141
C36	C	1.037693	-0.418926	-0.551287
C37	C	1.007213	-0.320706	-0.535097
C38	C	0.906200	-0.260478	-0.481428
C39	C	0.835663	-0.298476	-0.443951
C40	C	1.138710	-0.479149	-0.604943
C41	C	1.209243	-0.441158	-0.642422
C42	C	1.178763	-0.342937	-0.626242
C43	C	1.077750	-0.282709	-0.572573
C44	C	1.249301	-0.304939	-0.663719
C45	C	1.218820	-0.206719	-0.647529
C46	C	1.047270	-0.184489	-0.556383
C47	C	1.189475	0.123513	-0.631915
C48	C	1.288916	0.125494	-0.684753
C49	C	0.959534	0.302330	-0.509745
C50	C	0.927103	0.406864	-0.492511
N51	N	1.022448	0.130177	-0.196513
N52	N	1.022467	0.130182	-0.889852
C53	C	1.104679	0.066265	-0.163550
C54	C	1.104687	0.066265	-0.010218
C55	C	0.940229	0.194097	0.077178
C56	C	0.940218	0.194092	-0.076150
H57	H	0.747285	0.134694	-0.156072
Br58	Br	1.134733	-0.636883	-0.602805
H59	H	1.171646	0.014221	0.016613
H60	H	1.291492	-0.490204	-0.686112
H61	H	1.163524	-0.559125	-0.618137
H62	H	0.607242	0.131895	-0.961935
H63	H	0.753404	-0.249439	-0.400261
H64	H	0.768663	-0.563842	-0.408315
Br65	Br	0.828637	0.280838	0.240530
H66	H	0.747340	0.134703	-0.637951
H67	H	0.873252	0.246137	-0.102985
H68	H	0.691966	0.133604	-0.765986
H69	H	0.713352	-0.385650	-0.378972
H70	H	0.297625	0.125677	-0.930281
Br71	Br	0.492501	0.129579	-1.105876
Br72	Br	0.302218	0.125759	-0.293434
Br73	Br	0.412289	0.127963	-0.038886
H74	H	0.297555	0.125664	-0.448425
H75	H	0.577781	0.131288	-0.066068
H76	H	0.881385	-0.180502	-0.468238
Br77	Br	1.386390	-0.386679	-0.736514
Br78	Br	0.910173	-0.102750	-0.483570
H79	H	1.276255	-0.175787	-0.678046
Br80	Br	1.216275	-0.020479	-0.326893
