data_functionalizedCrystal
_audit_creation_method	'MofGen! by Chris Wilmer'
_symmetry_space_group_name_H-M	'P1'
_symmetry_Int_Tables_number	1
_symmetry_cell_setting	triclinic
loop_
_symmetry_equiv_pos_as_xyz
  x,y,z
_cell_length_a	11.792241
_cell_length_b	27.732048
_cell_length_c	10.268362
_cell_angle_alpha	89.989776
_cell_angle_beta	89.999626
_cell_angle_gamma	83.418036
loop_
_atom_site_label
_atom_site_type_symbol
_atom_site_fract_x
_atom_site_fract_y
_atom_site_fract_z
O1	O	1.504790	0.066248	-0.108189
O2	O	2.004790	0.566248	0.391811
O3	O	1.174230	0.073076	-0.108221
O4	O	1.674230	0.573076	0.391779
O5	O	1.349776	-0.000675	-0.108179
O6	O	1.849776	0.499325	0.391821
O7	O	1.329243	0.139999	-0.108231
O8	O	1.829243	0.639999	0.391769
O9	O	1.349761	-0.000678	0.108421
O10	O	1.849761	0.499322	0.608421
O11	O	1.174215	0.073073	0.108379
O12	O	1.674215	0.573073	0.608379
O13	O	1.504775	0.066245	0.108411
O14	O	2.004775	0.566245	0.608411
Cu15	Cu	1.339493	0.069659	0.128173
Cu16	Cu	1.839493	0.569659	0.628173
Cu17	Cu	1.339511	0.069662	-0.127983
Cu18	Cu	1.839511	0.569662	0.372017
O19	O	1.329228	0.139996	0.108370
O20	O	1.829228	0.639996	0.608370
C21	C	1.131945	0.072645	0.000075
C22	C	1.631945	0.572645	0.500075
C23	C	1.005973	0.071362	0.000064
C24	C	1.505973	0.571362	0.500064
C25	C	0.775336	0.069001	0.000103
C26	C	1.275336	0.569001	0.500103
C27	C	0.903679	0.070313	0.000082
C28	C	1.403679	0.570313	0.500082
C29	C	1.349338	-0.018686	0.000124
C30	C	1.849338	0.481314	0.500124
C31	C	1.348040	-0.072348	0.000135
C32	C	1.848040	0.427652	0.500135
C33	C	1.443606	-0.410609	0.000077
C34	C	1.943606	0.089391	0.500077
C35	C	1.438790	-0.612297	0.000059
C36	C	1.938790	-0.112297	0.500059
O37	O	1.526178	-0.643045	0.000010
O38	O	2.026178	-0.143045	0.500010
N39	N	1.334698	-0.632024	0.000050
N40	N	1.834698	-0.132024	0.500050
C41	C	1.231803	-0.601327	0.000037
C42	C	1.731803	-0.101327	0.500037
O43	O	1.143157	-0.622734	0.000016
O44	O	1.643157	-0.122734	0.500016
C45	C	1.236620	-0.399640	0.000046
C46	C	1.736620	0.100360	0.500046
C47	C	1.340718	-0.379915	0.000069
C48	C	1.840718	0.120085	0.500069
C49	C	1.547695	-0.390884	0.000098
C50	C	2.047695	0.109116	0.500098
C51	C	1.548898	-0.340465	0.000110
C52	C	2.048898	0.159535	0.500110
C53	C	1.446011	-0.309771	0.000101
C54	C	1.946011	0.190229	0.500101
C55	C	1.341921	-0.329496	0.000080
C56	C	1.841921	0.170504	0.500080
C57	C	1.133726	-0.368943	0.000024
C58	C	1.633726	0.131057	0.500024
C59	C	1.134940	-0.318519	0.000023
C60	C	1.634940	0.181481	0.500023
C61	C	1.239038	-0.298794	0.000045
C62	C	1.739038	0.201206	0.500045
C63	C	1.240237	-0.248384	0.000083
C64	C	1.740237	0.251616	0.500083
N65	N	1.344328	-0.228656	0.000092
N66	N	1.844328	0.271344	0.500092
C67	C	1.447215	-0.259350	0.000101
C68	C	1.947215	0.240650	0.500101
C69	C	1.229282	-0.707215	0.000035
C70	C	1.729282	-0.207215	0.500035
C71	C	1.228077	-0.757637	0.000035
C72	C	1.728077	-0.257637	0.500035
C73	C	1.435065	-0.768603	0.000054
C74	C	1.935065	-0.268603	0.500054
C75	C	1.436268	-0.718181	0.000063
C76	C	1.936268	-0.218181	0.500063
C77	C	1.333374	-0.687488	0.000044
C78	C	1.833374	-0.187488	0.500044
C79	C	1.449733	-0.153466	0.000127
C80	C	1.949733	0.346534	0.500127
C81	C	1.450927	-0.103042	0.000144
C82	C	1.950927	0.396958	0.500144
C83	C	1.243941	-0.092080	0.000118
C84	C	1.743941	0.407920	0.500118
C85	C	1.242746	-0.142500	0.000108
C86	C	1.742746	0.357500	0.500108
C87	C	1.345652	-0.173192	0.000108
C88	C	1.845652	0.326808	0.500108
O89	O	1.152896	-0.217607	0.000117
O90	O	1.652896	0.282393	0.500117
O91	O	1.535849	-0.237933	0.000093
O92	O	2.035849	0.262067	0.500093
C93	C	1.442403	-0.461028	0.000066
C94	C	1.942403	0.038972	0.500066
C95	C	1.338313	-0.480753	0.000045
C96	C	1.838313	0.019247	0.500045
C97	C	1.235426	-0.450060	0.000036
C98	C	1.735426	0.049940	0.500036
C99	C	1.337108	-0.531175	0.000045
C100	C	1.837108	-0.031175	0.500045
C101	C	1.439996	-0.561868	0.000054
C102	C	1.939996	-0.061868	0.500054
C103	C	1.544087	-0.542141	0.000063
C104	C	2.044087	-0.042141	0.500063
C105	C	1.545290	-0.491722	0.000074
C106	C	2.045290	0.008278	0.500074
C107	C	1.131334	-0.469787	0.000027
C108	C	1.631334	0.030213	0.500027
C109	C	1.130140	-0.520207	0.000017
C110	C	1.630140	-0.020207	0.500017
C111	C	1.233027	-0.550900	0.000026
C112	C	1.733027	-0.050900	0.500026
C113	C	1.547059	0.066676	0.000112
C114	C	2.047059	0.566676	0.500112
C115	C	1.673032	0.067959	0.000114
C116	C	2.173032	0.567959	0.500114
C117	C	1.329667	0.158007	0.000063
C118	C	1.829667	0.658007	0.500063
C119	C	1.330965	0.211669	0.000044
C120	C	1.830965	0.711669	0.500044
N121	N	1.339489	0.069656	0.308339
N122	N	1.839489	0.569656	0.808339
N123	N	1.339525	0.069661	-0.308148
N124	N	1.839525	0.569661	0.191852
C125	C	1.339506	0.069661	0.574009
C126	C	1.839506	0.569661	1.074009
C127	C	1.339493	0.069660	0.426171
C128	C	1.839493	0.569660	0.926171
H129	H	1.535700	-0.086985	0.000165
H130	H	2.035700	0.413015	0.500165
O131	O	1.020357	-0.436685	0.000022
O132	O	1.520357	0.063315	0.500022
H133	H	1.015954	-0.413457	0.088308
H134	H	1.515954	0.086543	0.588308
O135	O	1.655057	-0.575254	0.000079
O136	O	2.155057	-0.075254	0.500079
H137	H	1.727652	-0.553072	0.000101
H138	H	2.227652	-0.053072	0.500101
O139	O	1.017850	-0.541475	0.000003
O140	O	1.517850	-0.041475	0.500003
H141	H	1.034285	-0.581693	0.000005
H142	H	1.534285	-0.081693	0.500005
O143	O	1.560721	-0.186567	0.000146
O144	O	2.060721	0.313433	0.500146
H145	H	1.633294	-0.164372	0.000178
H146	H	2.133294	0.335628	0.500178
O147	O	1.657567	-0.470449	0.000072
O148	O	2.157567	0.029551	0.500072
H149	H	1.728899	-0.500270	0.000060
H150	H	2.228899	-0.000270	0.500060
O151	O	1.115802	-0.778910	0.000028
O152	O	1.615802	-0.278910	0.500028
H153	H	1.044466	-0.749091	0.000010
H154	H	1.544466	-0.249091	0.500010
O155	O	1.021446	-0.390210	0.000001
O156	O	1.521446	0.109790	0.500001
H157	H	0.972074	-0.377894	-0.088296
H158	H	1.472074	0.122106	0.411704
O159	O	1.661175	-0.319193	0.000096
O160	O	2.161175	0.180807	0.500096
H161	H	1.732507	-0.349013	0.000079
H162	H	2.232507	0.150987	0.500079
O163	O	1.130474	-0.163779	0.000088
O164	O	1.630474	0.336221	0.500088
H165	H	1.059133	-0.133963	0.000078
H166	H	1.559133	0.366037	0.500078
O167	O	1.132971	-0.058971	0.000107
O168	O	1.632971	0.441029	0.500107
H169	H	1.151306	-0.020597	0.000103
H170	H	1.651306	0.479403	0.500103
H171	H	1.518839	-0.793603	0.000062
H172	H	2.018839	-0.293603	0.500062
O173	O	1.023953	-0.285417	0.000017
O174	O	1.523953	0.214583	0.500017
H175	H	1.019545	-0.262176	-0.088266
H176	H	1.519545	0.237824	0.411734
O177	O	1.658679	-0.423984	0.000129
O178	O	2.158679	0.076016	0.500129
H179	H	1.708555	-0.416926	-0.088136
H180	H	2.208555	0.083074	0.411864
O181	O	1.548547	-0.696910	0.000061
O182	O	2.048547	-0.196910	0.500061
H183	H	1.597942	-0.709227	0.088341
H184	H	2.097942	-0.209227	0.588341
O185	O	1.118297	-0.674112	0.000042
O186	O	1.618297	-0.174112	0.500042
H187	H	1.045723	-0.696306	0.000055
H188	H	1.545723	-0.196306	0.500055
