data_functionalizedCrystal
_audit_creation_method	'MofGen! by Chris Wilmer'
_symmetry_space_group_name_H-M	'P1'
_symmetry_Int_Tables_number	1
_symmetry_cell_setting	triclinic
loop_
_symmetry_equiv_pos_as_xyz
  x,y,z
_cell_length_a	10.540539
_cell_length_b	10.654549
_cell_length_c	9.130307
_cell_angle_alpha	90.001779
_cell_angle_beta	90.002583
_cell_angle_gamma	84.506205
loop_
_atom_site_label
_atom_site_type_symbol
_atom_site_fract_x
_atom_site_fract_y
_atom_site_fract_z
O1	O	0.178331	1.667894	0.121828
O2	O	0.195312	1.302423	0.121822
O3	O	0.002112	1.493497	0.121823
O4	O	0.371531	1.476820	0.121827
O5	O	0.002105	1.493494	-0.121776
O6	O	0.195304	1.302420	-0.121777
O7	O	0.178324	1.667891	-0.121771
Cu8	Cu	0.186813	1.485155	-0.144017
Cu9	Cu	0.186822	1.485159	0.144067
O10	O	0.371523	1.476817	-0.121772
C11	C	0.194060	1.255623	0.000022
C12	C	0.190326	1.116178	0.000020
C13	C	0.414338	0.826273	0.000063
C14	C	0.531608	0.877851	0.000058
C15	C	0.535121	1.008870	0.000039
C16	C	0.421352	1.088316	0.000029
C17	C	0.304082	1.036737	0.000034
C18	C	0.300582	0.905714	0.000049
C19	C	0.073056	1.064600	0.000025
C20	C	0.069541	0.933581	0.000034
C21	C	-0.040713	1.144046	0.000015
C22	C	-0.157985	1.092468	0.000010
C23	C	-0.161493	0.961440	0.000027
C24	C	-0.047729	0.882003	0.000039
C25	C	-0.045194	1.492244	0.000026
C26	C	-0.186141	1.488503	0.000034
C27	C	-0.369519	1.345132	0.000579
C28	C	-0.222902	1.348925	0.000030
C29	C	-0.247826	1.555672	-0.139072
C30	C	-0.394369	1.550909	-0.139189
C31	C	-0.394880	1.553751	0.137828
C32	C	-0.247898	1.555037	0.139668
C33	C	0.418830	1.478070	0.000028
C34	C	0.559776	1.481811	0.000029
C35	C	0.179575	1.714691	0.000032
C36	C	0.183310	1.854136	0.000044
N37	N	0.186819	1.485162	0.346690
N38	N	0.186806	1.485162	-0.346639
C39	C	0.016062	1.654696	0.346681
C40	C	-0.069325	1.739458	0.423343
C41	C	-0.069339	1.739457	0.576677
C42	C	0.016046	1.654688	0.653352
C43	C	0.101433	1.569925	0.576689
C44	C	0.101436	1.569932	0.423352
C45	C	0.272194	1.400399	0.576698
C46	C	0.272204	1.400392	0.423365
C47	C	0.357579	1.315630	0.653373
C48	C	0.442962	1.230859	0.576711
C49	C	0.442972	1.230862	0.423368
C50	C	0.357591	1.315630	0.346703
H51	H	0.424222	1.194997	0.000031
F52	F	-0.431213	1.486016	-0.275102
F53	F	-0.036971	1.283488	0.000005
F54	F	0.533832	1.140658	0.658319
F55	F	0.652683	0.793292	0.000079
H56	H	-0.138864	1.808483	0.639096
F57	F	-0.457116	1.682113	-0.147451
H58	H	-0.256988	0.919454	0.000039
F59	F	-0.218656	1.689651	-0.145836
F60	F	-0.279052	1.177024	0.000008
F61	F	0.016054	1.654691	0.183490
F62	F	0.659931	1.063765	0.000043
F63	F	-0.192133	1.494683	-0.274383
H64	H	0.357587	1.315635	0.221850
H65	H	-0.050574	0.775318	0.000040
H66	H	-0.442140	1.654568	0.138766
F67	F	-0.160191	1.829677	0.341734
F68	F	0.016042	1.654703	0.816543
H69	H	-0.223711	1.656800	0.148069
H70	H	0.357569	1.315638	0.778225
F71	F	-0.168298	1.279351	-0.130523
F72	F	-0.167185	1.279842	0.130367
F73	F	0.533862	1.140650	0.341790
H74	H	-0.399711	1.290218	-0.098619
F75	F	0.410609	0.686829	0.000058
F76	F	-0.436083	1.494698	0.275639
F77	F	-0.406869	1.273061	0.130967
F78	F	-0.193873	1.491301	0.274195
