data_functionalizedCrystal
_audit_creation_method	'MofGen! by Chris Wilmer'
_symmetry_space_group_name_H-M	'P1'
_symmetry_Int_Tables_number	1
_symmetry_cell_setting	triclinic
loop_
_symmetry_equiv_pos_as_xyz
  x,y,z
_cell_length_a	16.109295
_cell_length_b	16.109302
_cell_length_c	16.053942
_cell_angle_alpha	92.559981
_cell_angle_beta	92.569458
_cell_angle_gamma	96.539375
loop_
_atom_site_label
_atom_site_type_symbol
_atom_site_fract_x
_atom_site_fract_y
_atom_site_fract_z
O1	O	-1.106630	0.103353	-0.069371
O2	O	-0.606630	0.603353	0.430629
O3	O	-0.864568	0.116657	-0.069385
O4	O	-0.364568	0.616657	0.430615
O5	O	-0.992248	-0.011026	-0.069372
O6	O	-0.492248	0.488974	0.430628
O7	O	-0.978951	0.231036	-0.069383
O8	O	-0.478951	0.731036	0.430617
O9	O	-0.985241	-0.004041	0.069483
O10	O	-0.485241	0.495959	0.569483
O11	O	-0.857562	0.123642	0.069471
O12	O	-0.357562	0.623642	0.569471
O13	O	-1.099624	0.110338	0.069485
O14	O	-0.599624	0.610338	0.569485
Zn15	Zn	-0.977480	0.118099	0.091524
Zn16	Zn	-0.477480	0.618099	0.591524
Zn17	Zn	-0.986712	0.108896	-0.091424
Zn18	Zn	-0.486712	0.608896	0.408576
O19	O	-0.971944	0.238021	0.069472
O20	O	-0.471944	0.738021	0.569472
C21	C	-0.830090	0.119611	0.000041
C22	C	-0.330090	0.619611	0.500041
C23	C	-0.737795	0.117998	0.000036
C24	C	-0.237795	0.617998	0.500036
C25	C	-0.988206	-0.038508	0.000055
C26	C	-0.488206	0.461492	0.500055
C27	C	-0.986590	-0.130803	0.000054
C28	C	-0.486590	0.369197	0.500054
C29	C	-0.515522	0.190010	0.000041
C30	C	-0.015522	0.690010	0.500041
C31	C	-0.428801	0.188488	0.000047
C32	C	0.071199	0.688488	0.500047
C33	C	-0.448675	0.036999	0.000050
C34	C	0.051325	0.536999	0.500050
C35	C	-0.535394	0.038522	0.000051
C36	C	-0.035394	0.538522	0.500051
C37	C	-0.568815	0.115030	0.000042
C38	C	-0.068815	0.615030	0.500042
C39	C	-0.395375	0.111985	0.000047
C40	C	0.104625	0.611985	0.500047
C41	C	-0.301349	0.110334	0.000052
C42	C	0.198651	0.610334	0.500052
C43	C	-0.662847	0.116681	0.000038
C44	C	-0.162847	0.616681	0.500038
C45	C	-0.134101	0.107389	0.000056
C46	C	0.365899	0.607389	0.500056
C47	C	-0.226395	0.109017	0.000053
C48	C	0.273605	0.609017	0.500053
N49	N	-0.993013	0.102610	-0.216281
N50	N	-0.493013	0.602610	0.283719
C51	C	-0.975986	0.265503	0.000043
C52	C	-0.475986	0.765503	0.500043
C53	C	-0.977602	0.357798	0.000039
C54	C	-0.477602	0.857798	0.500039
C55	C	-0.985156	0.566332	-0.075645
C56	C	-0.485156	1.066332	0.424355
C57	C	-0.986682	0.653052	-0.075644
C58	C	-0.486682	1.153052	0.424356
C59	C	-0.979039	0.660657	0.075744
C60	C	-0.479039	1.160657	0.575744
C61	C	-0.977518	0.573937	0.075741
C62	C	-0.477518	1.073937	0.575741
C63	C	-0.980573	0.526778	0.000044
C64	C	-0.480573	1.026778	0.500044
C65	C	-0.983620	0.700217	0.000049
C66	C	-0.483620	1.200217	0.500049
C67	C	-0.985275	0.794243	0.000051
C68	C	-0.485275	1.294243	0.500051
C69	C	-0.978919	0.432745	0.000041
C70	C	-0.478919	0.932745	0.500041
C71	C	-1.025613	0.070159	-0.739898
C72	C	-0.525613	0.570159	-0.239898
C73	C	-1.021182	0.074563	-0.652493
C74	C	-0.521182	0.574563	-0.152493
C75	C	-0.962327	0.133191	-0.608811
C76	C	-0.462327	0.633191	-0.108811
C77	C	-0.907895	0.187414	-0.652539
C78	C	-0.407895	0.687414	-0.152539
C79	C	-0.912322	0.183005	-0.739941
C80	C	-0.412322	0.683005	-0.239941
C81	C	-0.943008	0.152423	-0.347411
C82	C	-0.443008	0.652423	0.152589
C83	C	-0.938586	0.156830	-0.260002
C84	C	-0.438586	0.656830	0.239998
C85	C	-1.051872	0.043977	-0.259963
C86	C	-0.551872	0.543977	0.240037
C87	C	-1.056298	0.039577	-0.347367
C88	C	-0.556298	0.539577	0.152633
C89	C	-1.001863	0.093796	-0.391087
C90	C	-0.501863	0.593796	0.108913
N91	N	-0.957798	0.137696	-0.519470
N92	N	-0.457798	0.637696	-0.019470
N93	N	-1.006388	0.089287	-0.480427
N94	N	-0.506388	0.589287	0.019573
N95	N	-0.971186	0.124379	0.216381
N96	N	-0.471186	0.624379	0.716381
H97	H	-0.542730	0.252308	0.000041
H98	H	-0.042730	0.752308	0.500041
O99	O	-0.377153	0.261399	0.000006
O100	O	0.122847	0.761399	0.500006
C101	C	-0.425251	0.329249	0.000021
C102	C	0.074749	0.829249	0.500021
H103	H	-0.491304	0.306805	-0.026268
H104	H	0.008696	0.806805	0.473732
H105	H	-0.395278	0.379756	-0.040294
H106	H	0.104722	0.879756	0.459706
H107	H	-0.428063	0.356051	0.066635
H108	H	0.071937	0.856051	0.566635
O109	O	-0.988233	0.520423	-0.149125
O110	O	-0.488233	1.020423	0.350875
C111	C	-1.059554	0.460607	-0.153670
C112	C	-0.559554	0.960607	0.346330
H113	H	-1.080001	0.447757	-0.087952
H114	H	-0.580001	0.947757	0.412048
H115	H	-1.043915	0.400145	-0.185719
H116	H	-0.543915	0.900145	0.314281
H117	H	-1.112417	0.485547	-0.191013
H118	H	-0.612417	0.985547	0.308987
O119	O	-1.082810	0.013133	-0.782197
O120	O	-0.582810	0.513133	-0.282197
C121	C	-1.129910	-0.033765	-0.724860
C122	C	-0.629910	0.466235	-0.224860
H123	H	-1.092677	-0.031633	-0.662565
H124	H	-0.592677	0.468367	-0.162565
H125	H	-1.144012	-0.101423	-0.750099
H126	H	-0.644012	0.398577	-0.250099
H127	H	-1.191127	-0.006163	-0.715554
H128	H	-0.691127	0.493837	-0.215554
O129	O	-0.587196	-0.034288	0.000197
O130	O	-0.087196	0.465712	0.500197
C131	C	-0.634341	-0.034313	0.072102
C132	C	-0.134341	0.465687	0.572102
H133	H	-0.600032	0.010734	0.122365
H134	H	-0.100032	0.510734	0.622365
H135	H	-0.642901	-0.100074	0.096241
H136	H	-0.142901	0.399926	0.596241
H137	H	-0.698212	-0.013622	0.055844
H138	H	-0.198212	0.486378	0.555844
O139	O	-0.890216	0.205215	-0.389831
O140	O	-0.390216	0.705215	0.110169
C141	C	-0.902462	0.288638	-0.368460
C142	C	-0.402462	0.788638	0.131540
H143	H	-0.967795	0.290392	-0.344426
H144	H	-0.467795	0.790392	0.155574
H145	H	-0.895718	0.327461	-0.425943
H146	H	-0.395718	0.827461	0.074057
H147	H	-0.853777	0.315520	-0.317733
H148	H	-0.353777	0.815520	0.182267
O149	O	-0.850797	0.244341	-0.609979
O150	O	-0.350797	0.744341	-0.109979
C151	C	-0.858546	0.236595	-0.523459
C152	C	-0.358546	0.736595	-0.023459
H153	H	-0.924090	0.206259	-0.511501
H154	H	-0.424090	0.706259	-0.011501
H155	H	-0.847482	0.301228	-0.490255
H156	H	-0.347482	0.801228	0.009745
H157	H	-0.810334	0.196038	-0.498658
H158	H	-0.310334	0.696038	0.001342
H159	H	-0.990415	0.685253	-0.137278
H160	H	-0.490415	1.185253	0.362722
O161	O	-0.973027	0.535646	0.149346
O162	O	-0.473027	1.035646	0.649346
C163	C	-0.970671	0.595862	0.216159
C164	C	-0.470671	1.095862	0.716159
H165	H	-0.946567	0.660015	0.193972
H166	H	-0.446567	1.160015	0.693972
H167	H	-0.927220	0.578751	0.269092
H168	H	-0.427220	1.078751	0.769092
H169	H	-1.036318	0.597511	0.239438
H170	H	-0.536318	1.097511	0.739438
O171	O	-0.416071	-0.037246	0.000015
O172	O	0.083929	0.462754	0.500015
C173	C	-0.328102	-0.022514	0.000032
C174	C	0.171898	0.477486	0.500032
H175	H	-0.309043	0.041052	-0.026257
H176	H	0.190957	0.541052	0.473743
H177	H	-0.303523	-0.073492	-0.040282
H178	H	0.196477	0.426508	0.459718
H179	H	-0.300604	-0.023189	0.066648
H180	H	0.199396	0.476811	0.566648
O181	O	-0.881294	0.213692	-0.217601
O182	O	-0.381294	0.713692	0.282399
C183	C	-0.800127	0.198921	-0.238984
C184	C	-0.300127	0.698921	0.261016
H185	H	-0.801089	0.131131	-0.263009
H186	H	-0.301089	0.631131	0.236991
H187	H	-0.755487	0.211282	-0.181510
H188	H	-0.255487	0.711282	0.318490
H189	H	-0.778171	0.242406	-0.289723
H190	H	-0.278171	0.742406	0.210277
O191	O	-0.976034	0.706599	0.149198
O192	O	-0.476034	1.206599	0.649198
C193	C	-0.978377	0.791620	0.132972
C194	C	-0.478377	1.291620	0.632972
H195	H	-0.955564	0.803646	0.067918
H196	H	-0.455564	1.303646	0.567918
H197	H	-0.936171	0.832296	0.181310
H198	H	-0.436171	1.332296	0.681310
H199	H	-1.045286	0.807669	0.136569
H200	H	-0.545286	1.307669	0.636569
O201	O	-1.113179	-0.017736	-0.389702
O202	O	-0.613179	0.482264	0.110298
C203	C	-1.071015	-0.071646	-0.439978
C204	C	-0.571015	0.428354	0.060022
H205	H	-1.006741	-0.039034	-0.453272
H206	H	-0.506741	0.460966	0.046728
H207	H	-1.108830	-0.088349	-0.501356
H208	H	-0.608830	0.411651	-0.001356
H209	H	-1.063380	-0.131147	-0.405962
H210	H	-0.563380	0.368853	0.094038
H211	H	-1.065499	0.030412	-0.616896
H212	H	-0.565499	0.530412	-0.116896
O213	O	-1.104655	-0.008655	-0.217364
O214	O	-0.604655	0.491345	0.282636
C215	C	-1.088145	0.007818	-0.130853
C216	C	-0.588145	0.507818	0.369147
H217	H	-1.021393	0.039361	-0.118934
H218	H	-0.521393	0.539361	0.381066
H219	H	-1.095843	-0.053464	-0.097625
H220	H	-0.595843	0.446536	0.402375
H221	H	-1.133847	0.050875	-0.106045
H222	H	-0.633847	0.550875	0.393955
O223	O	-0.859417	0.235763	-0.782286
O224	O	-0.359417	0.735763	-0.282286
C225	C	-0.806507	0.288443	-0.724991
C226	C	-0.306507	0.788443	-0.224991
H227	H	-0.837427	0.292600	-0.662680
H228	H	-0.337427	0.792600	-0.162680
H229	H	-0.794962	0.353553	-0.750260
H230	H	-0.294962	0.853553	-0.250260
H231	H	-0.744350	0.261777	-0.715705
H232	H	-0.244350	0.761777	-0.215705
