data_functionalizedCrystal
_audit_creation_method	'MofGen! by Chris Wilmer'
_symmetry_space_group_name_H-M	'P1'
_symmetry_Int_Tables_number	1
_symmetry_cell_setting	triclinic
loop_
_symmetry_equiv_pos_as_xyz
  x,y,z
_cell_length_a	10.489741
_cell_length_b	8.965430
_cell_length_c	10.489741
_cell_angle_alpha	90.000707
_cell_angle_beta	95.460826
_cell_angle_gamma	90.001157
loop_
_atom_site_label
_atom_site_type_symbol
_atom_site_fract_x
_atom_site_fract_y
_atom_site_fract_z
O1	O	-1.694053	-0.123946	0.179958
O2	O	-1.322858	-0.123969	0.196851
O3	O	-1.516902	-0.123948	0.002807
O4	O	-1.500009	-0.123967	0.374003
O5	O	-1.516886	0.124130	0.002820
O6	O	-1.322841	0.124110	0.196864
O7	O	-1.694037	0.124133	0.179971
Cu8	Cu	-1.508438	0.146773	0.188419
Cu9	Cu	-1.508457	-0.146609	0.188404
O10	O	-1.499993	0.124112	0.374016
C11	C	-1.275318	0.000067	0.195582
C12	C	-1.133688	0.000059	0.191765
C13	C	-1.515618	0.000090	-0.044718
C14	C	-1.511801	0.000087	-0.186348
N15	N	-1.508433	0.353122	0.188429
C16	C	-1.741577	0.000093	0.181241
C17	C	-1.883206	0.000092	0.185058
C18	C	-1.065548	0.000079	0.068300
C19	C	-0.973430	-0.122237	0.126617
C20	C	-0.973447	0.122349	0.126659
C21	C	-1.043435	-0.122358	0.250133
C22	C	-1.043462	0.122338	0.250158
C23	C	-0.951371	-0.000007	0.308564
N24	N	-1.508471	-0.352958	0.188384
C25	C	-1.418666	0.450418	0.278138
C26	C	-1.534163	0.549838	0.303949
C27	C	-1.392986	0.549830	0.162629
C28	C	-1.623988	0.450352	0.214298
C29	C	-1.482735	0.450336	0.072927
C30	C	-1.598314	0.549711	0.098690
C31	C	-1.388336	0.000069	-0.254488
C32	C	-1.446652	0.122388	-0.346604
C33	C	-1.446697	-0.122198	-0.346591
C34	C	-1.570167	0.122508	-0.276599
C35	C	-1.570195	-0.122189	-0.276576
C36	C	-1.628600	0.000161	-0.368665
C37	C	-1.501277	0.000070	0.421541
C38	C	-1.505094	0.000063	0.563170
H39	H	-1.115238	-0.000069	-0.033196
O40	O	-1.384123	0.245640	-0.383519
C41	C	-1.257494	0.245222	-0.324815
H42	H	-1.228150	0.126190	-0.297382
H43	H	-1.251625	0.317715	-0.235157
C44	C	-1.202778	0.453827	-0.452558
C45	C	-1.166733	0.307629	-0.418873
H46	H	-1.146792	0.492328	-0.510574
H47	H	-1.288091	0.454113	-0.492105
H48	H	-1.197887	0.514219	-0.377833
H49	H	-1.171640	0.247236	-0.493595
H50	H	-1.081418	0.307334	-0.379341
H51	H	-1.342824	0.406821	0.354072
H52	H	-1.674327	0.593034	0.022803
O53	O	-1.749881	0.000046	-0.427457
C54	C	-1.815246	-0.127792	-0.390150
H55	H	-1.768243	-0.170011	-0.294468
H56	H	-1.810848	-0.218463	-0.465804
C57	C	-2.013813	-0.036065	-0.493968
C58	C	-1.956090	-0.087912	-0.376445
H59	H	-2.100694	-0.011470	-0.485519
H60	H	-1.969775	0.050059	-0.519108
H61	H	-2.010135	-0.111634	-0.557001
H62	H	-1.959754	-0.012338	-0.313418
H63	H	-2.000132	-0.174023	-0.351294
H64	H	-1.555925	0.593543	0.401606
O65	O	-1.632491	-0.245438	-0.239321
C66	C	-1.636199	-0.242981	-0.105330
H67	H	-1.625107	-0.123274	-0.069331
H68	H	-1.554758	-0.313997	-0.058148
C69	C	-1.778869	-0.453096	-0.115545
C70	C	-1.765256	-0.306068	-0.071332
H71	H	-1.858474	-0.492017	-0.094571
H72	H	-1.776367	-0.454756	-0.205817
H73	H	-1.710994	-0.512257	-0.076222
H74	H	-1.833121	-0.246906	-0.110667
H75	H	-1.767772	-0.304400	0.018934
O76	O	-1.740412	0.398425	0.240733
C77	C	-1.725963	0.310966	0.352886
H78	H	-1.633902	0.344037	0.412767
H79	H	-1.721157	0.188079	0.325818
C80	C	-1.954101	0.296138	0.357522
C81	C	-1.841036	0.336766	0.431074
H82	H	-2.025086	0.312046	0.405750
H83	H	-1.963837	0.355056	0.281960
H84	H	-1.950079	0.193734	0.334971
H85	H	-1.845053	0.439172	0.453610
H86	H	-1.831303	0.277865	0.506642
O87	O	-1.456889	0.398317	-0.043642
C88	C	-1.550437	0.451072	-0.138341
H89	H	-1.596213	0.556545	-0.102602
H90	H	-1.627134	0.362045	-0.159533
C91	C	-1.430960	0.356941	-0.305331
C92	C	-1.487175	0.486492	-0.261440
H93	H	-1.391940	0.378784	-0.381266
H94	H	-1.367936	0.321394	-0.241531
H95	H	-1.494884	0.282764	-0.322981
H96	H	-1.423249	0.560660	-0.243775
H97	H	-1.550187	0.522053	-0.325240
H98	H	-0.901947	-0.000079	0.410168
H99	H	-0.942422	-0.225643	0.074371
O100	O	-1.276391	0.601777	0.136760
C101	C	-1.182035	0.551214	0.231624
H102	H	-1.217672	0.446524	0.278689
H103	H	-1.161686	0.641811	0.307085
C104	C	-1.014545	0.643602	0.111928
C105	C	-1.058310	0.515012	0.169727
H106	H	-0.938223	0.621277	0.073751
H107	H	-1.078113	0.677673	0.048018
H108	H	-0.997597	0.719088	0.174823
H109	H	-1.075272	0.439537	0.106830
H110	H	-0.994741	0.480928	0.233625
H111	H	-1.074270	-0.225883	0.302327
H112	H	-1.286824	0.000185	-0.204837
H113	H	-0.942463	0.225758	0.074402
H114	H	-1.622355	0.226035	-0.245761
H115	H	-1.074502	0.225749	0.302361
H116	H	-1.394447	-0.225620	-0.377561
