data_functionalizedCrystal
_audit_creation_method	'MofGen! by Chris Wilmer'
_symmetry_space_group_name_H-M	'P1'
_symmetry_Int_Tables_number	1
_symmetry_cell_setting	triclinic
loop_
_symmetry_equiv_pos_as_xyz
  x,y,z
_cell_length_a	18.050590
_cell_length_b	18.050590
_cell_length_c	18.050582
_cell_angle_alpha	89.976663
_cell_angle_beta	90.000767
_cell_angle_gamma	90.007719
loop_
_atom_site_label
_atom_site_type_symbol
_atom_site_fract_x
_atom_site_fract_y
_atom_site_fract_z
Zn1	Zn	1.135342	-0.295921	-0.419598
Zn2	Zn	1.385342	-0.045921	-0.169598
Zn3	Zn	1.635342	0.204079	0.080402
Zn4	Zn	1.885342	0.454079	0.330402
Zn5	Zn	1.135274	-0.420105	-0.295406
Zn6	Zn	1.385274	-0.170105	-0.045406
Zn7	Zn	1.635274	0.079895	0.204594
Zn8	Zn	1.885274	0.329895	0.454594
Zn9	Zn	1.011162	-0.295910	-0.295456
Zn10	Zn	1.261162	-0.045910	-0.045456
Zn11	Zn	1.511162	0.204090	0.204544
Zn12	Zn	1.761162	0.454090	0.454544
Zn13	Zn	1.011131	-0.420051	-0.419589
Zn14	Zn	1.261131	-0.170051	-0.169589
Zn15	Zn	1.511131	0.079949	0.080411
Zn16	Zn	1.761131	0.329949	0.330411
O17	O	1.073227	-0.357997	-0.357512
O18	O	1.323227	-0.107997	-0.107512
O19	O	1.573227	0.142003	0.142488
O20	O	1.823227	0.392003	0.392488
O21	O	1.239258	-0.312422	-0.403106
O22	O	1.489258	-0.062422	-0.153106
O23	O	1.739258	0.187578	0.096894
O24	O	1.989258	0.437578	0.346894
O25	O	1.118795	-0.403648	-0.191488
O26	O	1.368795	-0.153648	0.058512
O27	O	1.618795	0.096352	0.308512
O28	O	1.868795	0.346352	0.558512
O29	O	1.027676	-0.191987	-0.311948
O30	O	1.277676	0.058013	-0.061948
O31	O	1.527676	0.308013	0.188052
O32	O	1.777676	0.558013	0.438052
O33	O	1.239208	-0.403659	-0.311863
O34	O	1.489208	-0.153659	-0.061863
O35	O	1.739208	0.096341	0.188137
O36	O	1.989208	0.346341	0.438137
O37	O	1.118911	-0.191995	-0.403155
O38	O	1.368911	0.058005	-0.153155
O39	O	1.618911	0.308005	0.096845
O40	O	1.868911	0.558005	0.346845
O41	O	1.027610	-0.312402	-0.191525
O42	O	1.277610	-0.062402	0.058475
O43	O	1.527610	0.187598	0.308475
O44	O	1.777610	0.437598	0.558475
O45	O	0.907233	-0.312350	-0.311939
O46	O	1.157233	-0.062350	-0.061939
O47	O	1.407233	0.187650	0.188061
O48	O	1.657233	0.437650	0.438061
O49	O	1.027623	-0.403567	-0.523514
O50	O	1.277623	-0.153567	-0.273514
O51	O	1.527623	0.096433	-0.023514
O52	O	1.777623	0.346433	0.226486
O53	O	0.907210	-0.403555	-0.403139
O54	O	1.157210	-0.153555	-0.153139
O55	O	1.407210	0.096445	0.096861
O56	O	1.657210	0.346445	0.346861
O57	O	1.118881	-0.312370	-0.523521
O58	O	1.368881	-0.062370	-0.273521
O59	O	1.618881	0.187630	-0.023521
O60	O	1.868881	0.437630	0.226479
O61	O	1.118765	-0.524022	-0.311854
O62	O	1.368765	-0.274022	-0.061854
O63	O	1.618765	-0.024022	0.188146
O64	O	1.868765	0.225978	0.438146
O65	O	1.027557	-0.523982	-0.403091
O66	O	1.277557	-0.273982	-0.153091
O67	O	1.527557	-0.023982	0.096909
O68	O	1.777557	0.226018	0.346909
C69	C	0.880275	-0.357946	-0.357544
C70	C	1.130275	-0.107946	-0.107544
C71	C	1.380275	0.142054	0.142456
C72	C	1.630275	0.392054	0.392456
C73	C	0.797729	-0.357942	-0.357575
C74	C	1.047729	-0.107942	-0.107575
C75	C	1.297729	0.142058	0.142425
C76	C	1.547729	0.392058	0.392425
C77	C	0.598288	-0.407682	-0.407052
C78	C	0.848288	-0.157682	-0.157052
C79	C	1.098288	0.092318	0.092948
C80	C	1.348288	0.342318	0.342948
C81	C	0.548883	-0.339967	-0.425328
C82	C	0.798883	-0.089967	-0.175328
C83	C	1.048883	0.160033	0.074672
C84	C	1.298883	0.410033	0.324672
C85	C	0.646599	-0.357984	-0.357539
C86	C	0.896599	-0.107984	-0.107539
C87	C	1.146599	0.142016	0.142461
C88	C	1.396599	0.392016	0.392461
C89	C	0.548922	-0.425737	-0.339262
C90	C	0.798922	-0.175737	-0.089262
C91	C	1.048922	0.074263	0.160738
C92	C	1.298922	0.324263	0.410738
C93	C	0.500614	-0.358030	-0.357505
C94	C	0.750614	-0.108030	-0.107505
C95	C	1.000614	0.141970	0.142495
C96	C	1.250614	0.391970	0.392495
C97	C	0.598282	-0.290233	-0.375850
C98	C	0.848282	-0.040233	-0.125850
C99	C	1.098282	0.209767	0.124150
C100	C	1.348282	0.459767	0.374150
C101	C	0.598324	-0.376049	-0.289753
C102	C	0.848324	-0.126049	-0.039753
C103	C	1.098324	0.123951	0.210247
C104	C	1.348324	0.373951	0.460247
C105	C	0.548942	-0.308287	-0.308004
C106	C	0.798942	-0.058287	-0.058004
C107	C	1.048942	0.191713	0.191996
C108	C	1.298942	0.441713	0.441996
C109	C	0.730697	-0.357958	-0.357560
C110	C	0.980697	-0.107958	-0.107560
C111	C	1.230697	0.142042	0.142440
C112	C	1.480697	0.392042	0.392440
C113	C	0.416517	-0.358047	-0.357484
C114	C	0.666517	-0.108047	-0.107484
C115	C	0.916517	0.141953	0.142516
C116	C	1.166517	0.391953	0.392516
C117	C	1.073170	-0.550949	-0.357482
C118	C	1.323170	-0.300949	-0.107482
C119	C	1.573170	-0.050949	0.142518
C120	C	1.823170	0.199051	0.392518
C121	C	1.073214	-0.633494	-0.357495
C122	C	1.323214	-0.383494	-0.107495
C123	C	1.573214	-0.133494	0.142505
C124	C	1.823214	0.116506	0.392505
C125	C	1.122915	-0.832940	-0.307949
C126	C	1.372915	-0.582940	-0.057949
C127	C	1.622915	-0.332940	0.192051
C128	C	1.872915	-0.082940	0.442051
C129	C	1.141051	-0.882282	-0.375725
C130	C	1.391051	-0.632282	-0.125725
C131	C	1.641051	-0.382282	0.124275
C132	C	1.891051	-0.132282	0.374275
C133	C	1.073256	-0.784625	-0.357524
C134	C	1.323256	-0.534625	-0.107524
C135	C	1.573256	-0.284625	0.142476
C136	C	1.823256	-0.034625	0.392476
C137	C	1.055196	-0.882364	-0.289779
C138	C	1.305196	-0.632364	-0.039779
C139	C	1.555196	-0.382364	0.210221
C140	C	1.805196	-0.132364	0.460221
C141	C	1.073298	-0.930610	-0.357547
C142	C	1.323298	-0.680610	-0.107547
C143	C	1.573298	-0.430610	0.142453
C144	C	1.823298	-0.180610	0.392453
C145	C	1.091426	-0.832880	-0.425335
C146	C	1.341426	-0.582880	-0.175335
C147	C	1.591426	-0.332880	0.074665
C148	C	1.841426	-0.082880	0.324665
C149	C	1.005539	-0.832958	-0.339344
C150	C	1.255539	-0.582958	-0.089344
C151	C	1.505539	-0.332958	0.160656
C152	C	1.755539	-0.082958	0.410656
C153	C	1.023649	-0.882278	-0.407166
C154	C	1.273649	-0.632278	-0.157166
C155	C	1.523649	-0.382278	0.092834
C156	C	1.773649	-0.132278	0.342834
C157	C	1.073233	-0.700527	-0.357510
C158	C	1.323233	-0.450527	-0.107510
C159	C	1.573233	-0.200527	0.142490
C160	C	1.823233	0.049473	0.392490
C161	C	1.073320	-1.014706	-0.357568
C162	C	1.323320	-0.764706	-0.107568
C163	C	1.573320	-0.514706	0.142432
C164	C	1.823320	-0.264706	0.392432
C165	C	1.266933	-0.358048	-0.357480
C166	C	1.516933	-0.108048	-0.107480
C167	C	1.766933	0.141952	0.142520
C168	C	2.016933	0.391952	0.392520
C169	C	1.349478	-0.358070	-0.357467
C170	C	1.599478	-0.108070	-0.107467
C171	C	1.849478	0.141930	0.142533
C172	C	2.099478	0.391930	0.392533
C173	C	1.073256	-0.357964	-0.551218
C174	C	1.323256	-0.107964	-0.301218
C175	C	1.573256	0.142036	-0.051218
C176	C	1.823256	0.392036	0.198782
C177	C	1.073269	-0.357950	-0.633763
C178	C	1.323269	-0.107950	-0.383763
C179	C	1.573269	0.142050	-0.133763
C180	C	1.823269	0.392050	0.116237
C181	C	1.073305	-0.164291	-0.357558
C182	C	1.323305	0.085709	-0.107558
C183	C	1.573305	0.335709	0.142442
C184	C	1.823305	0.585709	0.392442
C185	C	1.073338	-0.081745	-0.357578
C186	C	1.323338	0.168255	-0.107578
C187	C	1.573338	0.418255	0.142422
C188	C	1.823338	0.668255	0.392422
C189	C	1.023680	-0.407475	-0.833211
C190	C	1.273680	-0.157475	-0.583211
C191	C	1.523680	0.092525	-0.333211
C192	C	1.773680	0.342525	-0.083211
C193	C	1.091439	-0.425641	-0.882583
C194	C	1.341439	-0.175641	-0.632583
C195	C	1.591439	0.074359	-0.382583
C196	C	1.841439	0.324359	-0.132583
C197	C	1.073305	-0.357893	-0.784894
C198	C	1.323305	-0.107893	-0.534894
C199	C	1.573305	0.142107	-0.284894
C200	C	1.823305	0.392107	-0.034894
C201	C	1.005584	-0.339706	-0.882603
C202	C	1.255584	-0.089706	-0.632603
C203	C	1.505584	0.160294	-0.382603
C204	C	1.755584	0.410294	-0.132603
C205	C	1.073335	-0.357840	-0.930879
C206	C	1.323335	-0.107840	-0.680879
C207	C	1.573335	0.142160	-0.430879
C208	C	1.823335	0.392160	-0.180879
C209	C	1.141099	-0.376095	-0.833179
C210	C	1.391099	-0.126095	-0.583179
C211	C	1.641099	0.123905	-0.333179
C212	C	1.891099	0.373905	-0.083179
C213	C	1.055199	-0.290128	-0.833195
C214	C	1.305199	-0.040128	-0.583195
C215	C	1.555199	0.209872	-0.333195
C216	C	1.805199	0.459872	-0.083195
C217	C	1.123004	-0.308269	-0.882545
C218	C	1.373004	-0.058269	-0.632545
C219	C	1.623004	0.191731	-0.382545
C220	C	1.873004	0.441731	-0.132545
C221	C	1.073287	-0.357926	-0.700796
C222	C	1.323287	-0.107926	-0.450796
C223	C	1.573287	0.142074	-0.200796
C224	C	1.823287	0.392074	0.049204
C225	C	1.073360	-0.357807	-1.014976
C226	C	1.323360	-0.107807	-0.764976
C227	C	1.573360	0.142193	-0.514976
C228	C	1.823360	0.392193	-0.264976
C229	C	1.073241	-0.357976	-0.164560
C230	C	1.323241	-0.107976	0.085440
C231	C	1.573241	0.142024	0.335440
C232	C	1.823241	0.392024	0.585440
C233	C	1.073372	-0.357781	-0.082014
C234	C	1.323372	-0.107781	0.167986
C235	C	1.573372	0.142219	0.417986
C236	C	1.823372	0.392219	0.667986
H237	H	0.619873	-0.232937	-0.391360
H238	H	0.869873	0.017063	-0.141360
H239	H	1.119873	0.267063	0.108640
H240	H	1.369873	0.517063	0.358640
H241	H	0.981754	-0.449460	-0.811549
H242	H	1.231754	-0.199460	-0.561549
H243	H	1.481754	0.050540	-0.311549
H244	H	1.731754	0.300540	-0.061549
H245	H	1.106771	-0.482926	-0.904277
H246	H	1.356771	-0.232926	-0.654277
H247	H	1.606771	0.017074	-0.404277
H248	H	1.856771	0.267074	-0.154277
H249	H	1.039903	-0.904100	-0.232479
H250	H	1.289903	-0.654100	0.017521
H251	H	1.539903	-0.404100	0.267521
H252	H	1.789903	-0.154100	0.517521
H253	H	1.198399	-0.391520	-0.811561
H254	H	1.448399	-0.141520	-0.561561
H255	H	1.698399	0.108480	-0.311561
H256	H	1.948399	0.358480	-0.061561
H257	H	1.039846	-0.232860	-0.811484
H258	H	1.289846	0.017140	-0.561484
H259	H	1.539846	0.267140	-0.311484
H260	H	1.789846	0.517140	-0.061484
H261	H	0.620058	-0.391334	-0.232459
H262	H	0.870058	-0.141334	0.017541
H263	H	1.120058	0.108666	0.267541
H264	H	1.370058	0.358666	0.517541
H265	H	1.164925	-0.811275	-0.266069
H266	H	1.414925	-0.561275	-0.016069
H267	H	1.664925	-0.311275	0.233931
H268	H	1.914925	-0.061275	0.483931
H269	H	0.527412	-0.266230	-0.266118
H270	H	0.777412	-0.016230	-0.016118
H271	H	1.027412	0.233770	0.233882
H272	H	1.277412	0.483770	0.483882
H273	H	0.527236	-0.483016	-0.323820
H274	H	0.777236	-0.233016	-0.073820
H275	H	1.027236	0.016984	0.176180
H276	H	1.277236	0.266984	0.426180
H277	H	1.165031	-0.266316	-0.904070
H278	H	1.415031	-0.016316	-0.654070
H279	H	1.665031	0.233684	-0.404070
H280	H	1.915031	0.483684	-0.154070
H281	H	1.198335	-0.903949	-0.391116
H282	H	1.448335	-0.653949	-0.141116
H283	H	1.698335	-0.403949	0.108884
H284	H	1.948335	-0.153949	0.358884
H285	H	0.948301	-0.324346	-0.904313
H286	H	1.198301	-0.074346	-0.654313
H287	H	1.448301	0.175654	-0.404313
H288	H	1.698301	0.425654	-0.154313
H289	H	1.106662	-0.811235	-0.482685
H290	H	1.356662	-0.561235	-0.232685
H291	H	1.606662	-0.311235	0.017315
H292	H	1.856662	-0.061235	0.267315
H293	H	0.981672	-0.903805	-0.449148
H294	H	1.231672	-0.653805	-0.199148
H295	H	1.481672	-0.403805	0.050852
H296	H	1.731672	-0.153805	0.300852
H297	H	0.619957	-0.449636	-0.448970
H298	H	0.869957	-0.199636	-0.198970
H299	H	1.119957	0.050364	0.051030
H300	H	1.369957	0.300364	0.301030
H301	H	0.527166	-0.324702	-0.482639
H302	H	0.777166	-0.074702	-0.232639
H303	H	1.027166	0.175298	0.017361
H304	H	1.277166	0.425298	0.267361
H305	H	0.948271	-0.811275	-0.323932
H306	H	1.198271	-0.561275	-0.073932
H307	H	1.448271	-0.311275	0.176068
H308	H	1.698271	-0.061275	0.426068
