data_functionalizedCrystal
_audit_creation_method	'MofGen! by Chris Wilmer'
_symmetry_space_group_name_H-M	'P1'
_symmetry_Int_Tables_number	1
_symmetry_cell_setting	triclinic
loop_
_symmetry_equiv_pos_as_xyz
  x,y,z
_cell_length_a	19.188931
_cell_length_b	14.519709
_cell_length_c	12.996460
_cell_angle_alpha	90.007090
_cell_angle_beta	89.995944
_cell_angle_gamma	96.587537
loop_
_atom_site_label
_atom_site_type_symbol
_atom_site_fract_x
_atom_site_fract_y
_atom_site_fract_z
O1	O	0.926556	-0.115137	-0.085532
O2	O	0.723300	-0.130636	-0.085542
O3	O	0.830317	0.011385	-0.085528
O4	O	0.819539	-0.257159	-0.085547
O5	O	0.830305	0.011393	0.085606
O6	O	0.723288	-0.130629	0.085591
O7	O	0.926544	-0.115129	0.085602
Cu8	Cu	0.824915	-0.122878	0.101222
Cu9	Cu	0.824929	-0.122887	-0.101163
O10	O	0.819527	-0.257151	0.085587
C11	C	0.697281	-0.130130	0.000023
C12	C	0.619771	-0.128624	0.000019
C13	C	0.829809	0.045746	0.000039
C14	C	0.828304	0.148118	0.000040
C15	C	0.952563	-0.115635	0.000034
C16	C	1.030073	-0.117142	0.000031
C17	C	1.074700	-0.033808	0.000028
C18	C	1.147529	-0.035224	0.000034
C19	C	1.175727	-0.119978	0.000022
C20	C	1.131090	-0.203322	0.000031
C21	C	1.058263	-0.201904	0.000035
N22	N	1.283956	-0.184764	-0.058239
N23	N	1.353140	-0.186105	-0.058246
C24	C	1.395151	-0.124255	0.000012
N25	N	1.365367	-0.060998	0.058263
N26	N	1.296177	-0.059654	0.058264
C27	C	1.254695	-0.121524	0.000018
C28	C	1.518748	-0.042450	0.000017
C29	C	1.591578	-0.043869	0.000029
C30	C	1.575138	-0.211970	0.000016
C31	C	1.502309	-0.210549	0.000014
C32	C	1.474119	-0.125786	0.000010
C33	C	0.820035	-0.291511	0.000018
C34	C	0.821541	-0.393883	0.000010
N35	N	0.824911	-0.122871	0.243570
C36	C	0.822762	0.522979	0.000013
C37	C	0.824301	0.418681	0.000021
C38	C	0.825533	0.335552	0.000027
C39	C	0.827072	0.231247	0.000033
N40	N	0.824938	-0.122887	-0.243510
C41	C	0.824928	-0.122888	0.663384
C42	C	0.824921	-0.122887	0.546579
C43	C	0.824920	-0.122880	0.453480
C44	C	0.824912	-0.122877	0.336668
H45	H	1.051753	0.035212	0.000028
O46	O	1.458925	-0.291474	0.000183
C47	C	1.367124	-0.387402	0.088795
C48	C	1.416229	-0.295726	0.088743
H49	H	1.332582	-0.390860	0.160378
H50	H	1.399749	-0.448261	0.088852
H51	H	1.332653	-0.390925	0.017143
H52	H	1.450710	-0.292112	0.160384
H53	H	1.383562	-0.234910	0.088633
O54	O	1.634832	0.037171	-0.000016
C55	C	1.643449	0.204050	0.000043
C56	C	1.594384	0.112341	0.000070
H57	H	1.610767	0.264849	0.000135
H58	H	1.677948	0.207645	-0.071591
H59	H	1.677966	0.207546	0.071647
H60	H	1.559823	0.108784	-0.071486
H61	H	1.559933	0.108785	0.071752
O62	O	1.158363	-0.285733	0.000062
C63	C	1.134372	-0.452313	-0.000010
C64	C	1.103395	-0.359045	-0.000027
H65	H	1.089945	-0.511610	-0.000103
H66	H	1.168033	-0.457239	0.071621
H67	H	1.168080	-0.457132	-0.071617
H68	H	1.069655	-0.354163	0.071532
H69	H	1.069774	-0.354159	-0.071705
H70	H	1.183871	0.032639	0.000028
H71	H	1.021927	-0.269767	0.000039
O72	O	1.491324	0.039859	-0.000157
C73	C	1.418608	0.138989	-0.088774
C74	C	1.449630	0.045753	-0.088718
H75	H	1.384880	0.143776	-0.160357
H76	H	1.462989	0.198348	-0.088830
H77	H	1.384948	0.143840	-0.017122
H78	H	1.483282	0.040811	-0.160358
H79	H	1.405216	-0.013562	-0.088608
H80	H	1.598096	-0.280978	0.000013
