data_functionalizedCrystal
_audit_creation_method	'MofGen! by Chris Wilmer'
_symmetry_space_group_name_H-M	'P1'
_symmetry_Int_Tables_number	1
_symmetry_cell_setting	triclinic
loop_
_symmetry_equiv_pos_as_xyz
  x,y,z
_cell_length_a	8.559649
_cell_length_b	10.654550
_cell_length_c	7.681215
_cell_angle_alpha	83.623661
_cell_angle_beta	82.929706
_cell_angle_gamma	77.131784
loop_
_atom_site_label
_atom_site_type_symbol
_atom_site_fract_x
_atom_site_fract_y
_atom_site_fract_z
O1	O	-2.133244	0.033273	0.146406
O2	O	-1.668759	-0.031514	0.146415
O3	O	-1.911680	0.184722	0.146404
O4	O	-1.890323	-0.182963	0.146417
O5	O	-1.884478	0.203299	-0.146466
O6	O	-1.641557	-0.012937	-0.146456
O7	O	-2.106042	0.051850	-0.146464
Zn8	Zn	-1.869480	0.022406	-0.192959
Zn9	Zn	-1.905321	-0.002070	0.192910
O10	O	-1.863121	-0.164387	-0.146453
C11	C	-1.595683	-0.027135	-0.000019
C12	C	-1.418465	-0.041750	-0.000016
C13	C	-1.896511	0.240647	-0.000029
C14	C	-1.891820	0.379605	-0.000023
C15	C	-2.179119	0.047471	-0.000026
C16	C	-2.356338	0.062085	-0.000018
C17	C	-1.878290	-0.220311	-0.000016
C18	C	-1.882983	-0.359270	-0.000011
N19	N	-1.845032	0.039111	-0.456305
C20	C	-2.034848	0.473866	-0.000031
C21	C	-2.030431	0.604429	-0.000018
C22	C	-1.739944	0.546458	0.000002
C23	C	-1.744364	0.415896	0.000003
C24	C	-2.202558	0.507337	-0.000050
C25	C	-2.198140	0.637900	-0.000038
N26	N	-1.929781	-0.018764	0.456256
H27	H	-1.438726	0.162163	-0.000012
C28	C	-1.588893	0.313751	-0.000063
C29	C	-1.458815	0.373486	-0.000090
C30	C	-1.315563	0.279432	-0.000174
H31	H	-1.593845	0.255087	0.102040
H32	H	-1.574990	0.268104	-0.102234
H33	H	-1.472715	0.419112	0.102070
H34	H	-1.453811	0.432142	-0.102186
H35	H	-1.301660	0.233785	-0.102344
H36	H	-1.320532	0.220774	0.101931
H37	H	-1.227287	0.319950	-0.000208
C38	C	-2.044964	-0.097746	-0.443655
C39	C	-1.998332	-0.225568	-0.488413
C40	C	-2.104408	-0.298357	-0.396265
H41	H	-2.042372	-0.096087	-0.320668
H42	H	-2.151152	-0.062081	-0.473804
H43	H	-1.892171	-0.261223	-0.458252
H44	H	-2.000932	-0.227266	-0.611384
H45	H	-2.210596	-0.262693	-0.426414
H46	H	-2.101808	-0.296688	-0.273283
H47	H	-2.072792	-0.385089	-0.426632
H48	H	-1.336069	-0.141836	-0.000003
C49	C	-1.580006	0.586129	-0.000068
C50	C	-1.606740	0.720647	-0.000107
C51	C	-1.459438	0.757236	-0.000197
H52	H	-1.530416	0.546468	0.102036
H53	H	-1.511544	0.559377	-0.102238
H54	H	-1.675176	0.747385	0.102052
H55	H	-1.656306	0.760339	-0.102204
H56	H	-1.390976	0.730484	-0.102367
H57	H	-1.409860	0.717567	0.101909
H58	H	-1.477556	0.848510	-0.000240
H59	H	-2.279539	0.476981	0.122506
H60	H	-2.244217	0.485248	-0.126507
H61	H	-2.260570	0.680758	0.126414
H62	H	-2.249948	0.693962	-0.122602
H63	H	-1.758567	0.098188	-0.531543
