data_functionalizedCrystal
_audit_creation_method	'MofGen! by Chris Wilmer'
_symmetry_space_group_name_H-M	'P1'
_symmetry_Int_Tables_number	1
_symmetry_cell_setting	triclinic
loop_
_symmetry_equiv_pos_as_xyz
  x,y,z
_cell_length_a	19.805407
_cell_length_b	12.759394
_cell_length_c	19.805399
_cell_angle_alpha	89.976033
_cell_angle_beta	89.980427
_cell_angle_gamma	90.014837
loop_
_atom_site_label
_atom_site_type_symbol
_atom_site_fract_x
_atom_site_fract_y
_atom_site_fract_z
Zn1	Zn	1.034790	-0.418291	-0.382737
Zn2	Zn	1.034728	-0.593984	-0.269556
Zn3	Zn	0.921605	-0.418320	-0.269561
Zn4	Zn	0.921591	-0.593928	-0.382702
O5	O	0.978178	-0.506131	-0.326139
O6	O	1.129498	-0.441608	-0.367735
O7	O	1.019701	-0.570717	-0.174840
O8	O	0.936651	-0.271295	-0.284591
O9	O	1.129453	-0.570689	-0.284581
O10	O	1.019808	-0.271274	-0.367740
O11	O	0.936590	-0.441658	-0.174844
O12	O	0.826886	-0.441603	-0.284558
O13	O	0.936628	-0.570594	-0.477423
O14	O	0.826876	-0.570622	-0.367682
O15	O	1.019794	-0.441554	-0.477449
O16	O	1.019688	-0.740998	-0.284548
O17	O	0.936567	-0.740957	-0.367676
C18	C	0.802322	-0.506111	-0.326117
C19	C	0.727090	-0.506127	-0.326124
C20	C	0.978138	-0.779098	-0.326123
C21	C	0.978182	-0.895875	-0.326138
C22	C	0.691759	-0.573409	-0.369336
C23	C	0.621070	-0.573411	-0.369346
C24	C	0.585715	-0.506136	-0.326139
C25	C	0.621051	-0.438847	-0.282924
C26	C	0.691739	-0.438841	-0.282919
C27	C	0.335978	-0.438870	-0.282947
C28	C	0.265286	-0.438884	-0.282954
C29	C	0.265310	-0.573440	-0.369374
C30	C	0.335997	-0.573434	-0.369368
C31	C	0.371327	-0.506142	-0.326157
C32	C	0.447976	-0.506139	-0.326148
C33	C	0.509068	-0.506143	-0.326144
C34	C	1.064801	-0.895864	-0.239641
C35	C	1.108128	-0.950720	-0.196401
C36	C	1.108168	-1.060441	-0.196419
C37	C	1.064877	-1.115310	-0.239684
C38	C	1.021550	-1.060455	-0.282925
C39	C	1.021514	-0.950730	-0.282900
C40	C	0.934936	-1.060465	-0.369424
C41	C	0.934892	-0.950744	-0.369403
C42	C	0.891645	-1.115334	-0.412689
C43	C	0.848314	-1.060478	-0.455927
C44	C	0.848275	-0.950750	-0.455906
C45	C	0.891565	-0.895888	-0.412644
C46	C	1.154721	-0.506152	-0.326161
C47	C	1.229953	-0.506161	-0.326171
C48	C	0.978216	-0.506065	-0.502682
C49	C	0.978233	-0.506036	-0.577914
C50	C	0.978238	-0.232097	-0.326170
C51	C	0.978263	-0.115321	-0.326183
C52	C	1.021539	-0.438842	-0.613272
C53	C	1.021545	-0.438811	-0.683961
C54	C	0.978249	-0.505982	-0.719289
C55	C	0.934939	-0.573179	-0.683926
C56	C	0.934929	-0.573203	-0.613239
C57	C	0.934977	-0.573081	-0.969000
C58	C	0.934992	-0.573054	-1.039692
C59	C	1.021594	-0.438689	-1.039721
C60	C	1.021584	-0.438713	-0.969034
C61	C	0.978271	-0.505907	-0.933677
C62	C	0.978263	-0.505937	-0.857028
C63	C	0.978260	-0.505957	-0.795937
C64	C	0.978180	-0.506121	-0.150283
C65	C	0.978295	-0.505853	-0.075051
H66	H	0.592306	-0.628199	-0.404534
C67	C	1.069207	-0.364823	-0.930176
H68	H	1.094995	-0.324791	-0.961359
H69	H	1.098685	-0.405021	-0.902599
H70	H	1.043313	-0.319051	-0.902604
C71	C	0.800702	-1.120828	-0.503515
H72	H	0.774893	-1.072447	-0.529267
H73	H	0.771242	-1.163705	-0.477610
H74	H	0.826603	-1.163557	-0.533040
H75	H	1.056859	-0.383973	-1.068518
H76	H	0.899684	-0.627866	-0.712696
C77	C	1.155825	-1.120790	-0.148858
H78	H	1.149648	-1.193993	-0.155071
H79	H	1.145938	-1.102872	-0.103368
H80	H	1.201294	-1.102745	-0.158803
C81	C	1.155745	-0.890368	-0.148811
H82	H	1.181558	-0.938754	-0.123067
H83	H	1.129854	-0.847630	-0.119291
H84	H	1.185212	-0.847503	-0.174724
C85	C	0.891687	-1.236024	-0.412708
H86	H	0.923685	-1.260838	-0.380755
H87	H	0.903377	-1.260788	-0.456400
H88	H	0.848019	-1.260905	-0.400968
H89	H	0.899732	-0.627754	-1.068454
C90	C	0.374836	-0.364859	-0.235414
H91	H	0.421999	-0.374476	-0.241601
H92	H	0.363231	-0.380141	-0.189921
H93	H	0.363261	-0.294288	-0.245406
H94	H	0.899719	-0.627809	-0.940220
H95	H	1.064919	-1.204651	-0.239701
H96	H	0.812996	-0.906092	-0.491120
C97	C	0.582162	-0.364849	-0.235395
H98	H	0.535003	-0.374497	-0.241581
H99	H	0.593758	-0.294276	-0.245376
H100	H	0.593728	-0.380142	-0.189899
H101	H	0.891533	-0.806547	-0.412618
H102	H	0.720505	-0.384048	-0.247734
H103	H	0.364780	-0.628219	-0.404550
C104	C	1.069162	-0.364949	-0.574417
H105	H	1.094948	-0.324918	-0.605602
H106	H	1.098642	-0.405144	-0.546840
H107	H	1.043269	-0.319175	-0.546845
H108	H	1.056811	-0.384097	-0.712746
C109	C	0.887309	-0.647143	-0.574345
H110	H	0.861533	-0.687158	-0.605508
H111	H	0.857818	-0.606981	-0.546761
H112	H	0.913205	-0.692929	-0.546777
C113	C	0.730644	-0.647411	-0.416866
H114	H	0.699475	-0.687473	-0.442608
H115	H	0.758203	-0.693134	-0.390924
H116	H	0.758235	-0.607270	-0.446402
C117	C	0.226445	-0.647451	-0.416914
H118	H	0.179282	-0.637815	-0.410737
H119	H	0.238015	-0.718020	-0.406928
H120	H	0.238054	-0.632160	-0.462409
H121	H	0.236502	-0.384094	-0.247770
C122	C	1.064756	-0.775174	-0.239616
H123	H	1.096745	-0.750353	-0.207660
H124	H	1.021075	-0.750421	-0.227873
H125	H	1.076437	-0.750289	-0.283301
