data_functionalizedCrystal
_audit_creation_method	'MofGen! by Chris Wilmer'
_symmetry_space_group_name_H-M	'P1'
_symmetry_Int_Tables_number	1
_symmetry_cell_setting	triclinic
loop_
_symmetry_equiv_pos_as_xyz
  x,y,z
_cell_length_a	19.188930
_cell_length_b	13.339070
_cell_length_c	11.804402
_cell_angle_alpha	105.125353
_cell_angle_beta	101.785304
_cell_angle_gamma	80.612963
loop_
_atom_site_label
_atom_site_type_symbol
_atom_site_fract_x
_atom_site_fract_y
_atom_site_fract_z
O1	O	0.339586	-1.361238	-0.099122
O2	O	0.293684	-1.066911	-0.099108
O3	O	0.216645	-1.222563	-0.099092
O4	O	0.416625	-1.205586	-0.099138
O5	O	0.236898	-1.181585	0.098959
O6	O	0.313937	-1.025932	0.098944
O7	O	0.359839	-1.320259	0.098929
Cu8	Cu	0.338738	-1.169354	0.117020
Cu9	Cu	0.314786	-1.217816	-0.117199
O10	O	0.436878	-1.164607	0.098914
C11	C	0.200653	-1.201523	-0.000063
C12	C	0.122826	-1.199870	-0.000053
C13	C	0.296057	-1.008766	-0.000080
C14	C	0.272945	-0.896565	-0.000074
C15	C	0.357466	-1.378404	-0.000101
C16	C	0.380578	-1.490607	-0.000115
C17	C	0.095789	-1.291203	-0.000051
C18	C	0.022659	-1.289655	-0.000070
C19	C	-0.023428	-1.196765	-0.000067
C20	C	0.003617	-1.105421	-0.000075
C21	C	0.076744	-1.106973	-0.000068
N22	N	-0.138445	-1.111815	0.067337
N23	N	-0.207912	-1.110345	0.067333
C24	C	-0.243757	-1.192082	-0.000091
N25	N	-0.207508	-1.275355	-0.067495
N26	N	-0.138034	-1.276826	-0.067486
C27	C	-0.102723	-1.195071	-0.000075
C28	C	-0.350090	-1.281744	-0.000112
C29	C	-0.423222	-1.280194	-0.000138
C30	C	-0.442262	-1.095954	-0.000131
C31	C	-0.369132	-1.097509	-0.000116
C32	C	-0.323050	-1.190405	-0.000101
C33	C	0.452870	-1.185648	-0.000118
C34	C	0.530696	-1.187303	-0.000136
C35	C	0.452652	-0.530990	-0.000134
C36	C	0.474369	-0.636408	-0.000143
C37	C	0.424015	-0.701453	-0.000126
C38	C	0.351940	-0.661068	-0.000099
C39	C	0.330220	-0.555641	-0.000098
C40	C	0.301582	-0.726104	-0.000090
C41	C	0.229508	-0.685720	-0.000064
C42	C	0.207791	-0.580303	-0.000062
C43	C	0.258146	-0.515258	-0.000080
C44	C	0.323302	-0.831531	-0.000091
C45	C	0.200870	-0.856183	-0.000056
C46	C	0.179154	-0.750764	-0.000046
N47	N	0.355585	-1.135276	0.281757
C48	C	0.257467	-1.333727	0.655726
C49	C	0.244718	-1.359506	0.531067
C50	C	0.272434	-1.303450	0.468734
C51	C	0.312900	-1.221612	0.531071
C52	C	0.325655	-1.195836	0.655743
C53	C	0.340622	-1.165559	0.468750
C54	C	0.381088	-1.083721	0.531088
C55	C	0.393840	-1.057948	0.655747
C56	C	0.366125	-1.114004	0.718080
C57	C	0.327867	-1.191335	0.344079
C58	C	0.396055	-1.053444	0.344095
C59	C	0.408804	-1.027665	0.468754
N60	N	0.297937	-1.251895	0.718064
H61	H	0.133305	-1.366847	-0.000043
N62	N	0.101419	-0.707201	-0.000009
H63	H	0.095305	-0.630547	-0.000007
H64	H	0.070968	-0.746198	-0.073419
H65	H	-0.033912	-1.029789	-0.000075
N66	N	0.552098	-0.679969	-0.000190
H67	H	0.580702	-0.622771	-0.000203
H68	H	0.571292	-0.707985	0.073223
N69	N	-0.300381	-1.381933	-0.000098
H70	H	-0.316437	-1.437129	-0.073519
H71	H	-0.249968	-1.368957	-0.000037
N72	N	-0.006517	-1.388160	-0.000049
H73	H	-0.043935	-1.406820	-0.073465
H74	H	0.033812	-1.447181	0.000008
N75	N	0.234711	-0.401557	-0.000075
H76	H	0.212953	-0.365819	0.073351
H77	H	0.277574	-0.366560	-0.000128
H78	H	0.493641	-0.478024	-0.000158
N79	N	-0.452388	-1.378706	-0.000129
H80	H	-0.489801	-1.397369	-0.073552
H81	H	-0.412054	-1.437719	-0.000069
N82	N	0.130055	-0.536739	-0.000043
H83	H	0.099563	-0.575669	-0.073451
H84	H	0.114646	-0.545281	0.073433
N85	N	0.379876	-1.086205	0.852538
H86	H	0.433197	-1.094488	0.882553
H87	H	0.359429	-1.011376	0.882491
H88	H	0.426797	-0.991319	0.706502
H89	H	0.418626	-1.007800	0.293344
N90	N	0.146552	-0.926325	-0.000043
H91	H	0.171248	-0.999236	-0.000044
H92	H	0.123531	-0.898089	0.073383
N93	N	0.105911	-1.008460	-0.000070
H94	H	0.065621	-0.949377	-0.000075
H95	H	0.143335	-0.989899	0.073356
N96	N	0.447442	-0.815150	-0.000119
H97	H	0.436149	-0.830182	0.073311
H98	H	0.421123	-0.860511	-0.073574
H99	H	0.441753	-0.961031	0.519525
N100	N	0.227572	-1.394170	0.722958
H101	H	0.199998	-1.449922	0.664556
H102	H	0.268244	-1.428039	0.774663
N103	N	0.284221	-1.279589	0.276837
H104	H	0.308396	-1.346806	0.298506
H105	H	0.234679	-1.263590	0.298574
N106	N	-0.491961	-0.995765	-0.000140
H107	H	-0.542391	-1.008639	-0.000148
H108	H	-0.475838	-0.940616	0.073282
H109	H	0.381986	-0.864400	-0.000108
H110	H	0.262052	-1.324443	0.367230
H111	H	-0.347118	-1.023134	-0.000110
H112	H	0.211772	-1.426138	0.480316
