data_functionalizedCrystal
_audit_creation_method	'MofGen! by Chris Wilmer'
_symmetry_space_group_name_H-M	'P1'
_symmetry_Int_Tables_number	1
_symmetry_cell_setting	triclinic
loop_
_symmetry_equiv_pos_as_xyz
  x,y,z
_cell_length_a	21.395362
_cell_length_b	25.639239
_cell_length_c	21.395355
_cell_angle_alpha	89.980666
_cell_angle_beta	89.956060
_cell_angle_gamma	90.054564
loop_
_atom_site_label
_atom_site_type_symbol
_atom_site_fract_x
_atom_site_fract_y
_atom_site_fract_z
Zn1	Zn	0.957825	-0.207990	-0.354582
Zn2	Zn	0.957713	-0.295409	-0.249803
Zn3	Zn	0.853040	-0.208014	-0.249783
Zn4	Zn	0.852994	-0.295420	-0.354508
O5	O	0.905393	-0.251708	-0.302169
O6	O	1.045488	-0.219571	-0.340722
O7	O	0.943800	-0.283822	-0.162122
O8	O	0.867006	-0.134846	-0.263708
O9	O	1.045405	-0.283798	-0.263742
O10	O	0.943991	-0.134828	-0.340703
O11	O	0.866897	-0.219613	-0.162108
O12	O	0.765356	-0.219623	-0.263636
O13	O	0.866928	-0.283817	-0.442196
O14	O	0.765322	-0.283840	-0.340576
O15	O	0.943947	-0.219582	-0.442250
O16	O	0.943756	-0.368576	-0.263669
O17	O	0.866820	-0.368584	-0.340596
C18	C	0.742605	-0.251736	-0.302096
C19	C	0.672964	-0.251760	-0.302080
C20	C	0.640250	-0.285243	-0.342083
C21	C	0.574814	-0.285230	-0.342111
C22	C	0.542096	-0.251740	-0.302125
C23	C	0.574818	-0.218252	-0.262119
C24	C	0.640252	-0.218262	-0.262097
C25	C	0.438372	-0.247528	-0.245720
C26	C	0.372939	-0.247522	-0.245741
C27	C	0.340275	-0.251706	-0.302194
C28	C	0.373052	-0.255908	-0.358627
C29	C	0.438486	-0.255918	-0.358605
C30	C	0.471143	-0.251725	-0.302145
C31	C	0.236608	-0.285176	-0.342231
C32	C	0.171172	-0.285160	-0.342260
C33	C	0.171176	-0.218185	-0.262262
C34	C	0.236612	-0.218198	-0.262239
C35	C	0.269324	-0.251697	-0.302222
C36	C	0.905288	-0.387551	-0.302140
C37	C	0.905300	-0.445665	-0.302149
C38	C	0.945558	-0.806011	-0.262182
C39	C	0.945582	-0.860616	-0.262190
O40	O	0.979702	-0.888838	-0.228177
N41	N	0.905503	-0.887947	-0.302211
C42	C	0.865401	-0.860672	-0.342230
O43	O	0.831313	-0.888934	-0.376271
C44	C	0.865381	-0.806069	-0.342224
C45	C	0.905458	-0.778740	-0.302196
C46	C	0.985633	-0.778682	-0.222158
C47	C	0.985608	-0.724082	-0.222149
C48	C	0.945508	-0.696810	-0.262164
C49	C	0.905433	-0.724139	-0.302187
C50	C	0.825282	-0.778794	-0.382246
C51	C	0.825266	-0.724187	-0.382237
C52	C	0.865343	-0.696858	-0.342209
C53	C	0.865308	-0.642267	-0.342193
N54	N	0.905387	-0.614935	-0.302173
C55	C	0.945487	-0.642207	-0.262158
C56	C	0.865448	-0.975343	-0.342239
C57	C	0.865465	-1.029945	-0.342242
C58	C	0.945648	-1.029885	-0.262204
C59	C	0.945627	-0.975281	-0.262198
C60	C	0.905528	-0.948011	-0.302219
C61	C	0.945430	-0.527542	-0.262142
C62	C	0.945400	-0.472937	-0.262134
C63	C	0.865220	-0.473002	-0.342175
C64	C	0.865248	-0.527602	-0.342180
C65	C	0.905358	-0.554871	-0.302162
O66	O	0.831207	-0.614010	-0.376190
O67	O	0.979575	-0.613939	-0.228128
C68	C	1.068816	-0.251681	-0.302242
C69	C	1.138458	-0.251669	-0.302274
C70	C	0.905445	-0.251698	-0.465592
C71	C	0.905467	-0.251693	-0.535234
C72	C	0.905516	-0.115335	-0.302212
C73	C	0.905568	-0.057221	-0.302230
C74	C	0.945569	-0.218245	-0.567976
C75	C	0.945568	-0.218222	-0.633412
C76	C	0.905472	-0.251658	-0.666102
C77	C	0.865362	-0.285108	-0.633352
C78	C	0.865360	-0.285126	-0.567917
C79	C	0.900488	-0.298736	-0.769765
C80	C	0.900495	-0.298719	-0.835198
C81	C	0.905476	-0.251602	-0.867923
C82	C	0.910463	-0.204501	-0.835207
C83	C	0.910461	-0.204519	-0.769773
C84	C	0.905470	-0.251642	-0.737054
C85	C	0.945579	-0.218127	-0.971618
C86	C	0.945574	-0.218103	-1.037055
C87	C	0.865371	-0.284994	-1.036993
C88	C	0.865373	-0.285013	-0.971558
C89	C	0.905480	-0.251580	-0.938874
C90	C	0.905377	-0.251681	-0.139381
C91	C	0.905476	-0.251538	-0.069741
H92	H	0.978036	-0.450687	-0.229537
H93	H	0.263244	-0.312450	-0.374791
H94	H	0.978093	-0.549738	-0.229556
H95	H	0.978227	-0.191020	-0.541369
O96	O	0.470001	-0.243488	-0.190818
C97	C	0.427042	-0.239773	-0.141016
H98	H	0.380389	-0.257348	-0.155832
H99	H	0.445869	-0.261938	-0.098853
H100	H	0.420132	-0.197032	-0.128092
O101	O	0.671995	-0.317723	-0.381017
C102	C	0.656074	-0.306379	-0.443491
H103	H	0.638148	-0.264611	-0.446750
H104	H	0.699131	-0.310929	-0.474425
H105	H	0.618069	-0.334424	-0.459818
H106	H	0.465171	-0.259338	-0.404555
O107	O	0.826518	-0.948911	-0.381199
C108	C	0.840194	-0.962210	-0.443664
H109	H	0.864300	-1.001828	-0.444995
H110	H	0.794961	-0.964123	-0.471700
H111	H	0.872379	-0.931435	-0.464810
H112	H	0.666887	-0.190995	-0.229521
O113	O	1.024605	-0.697619	-0.183253
C114	C	1.059990	-0.733408	-0.147933
H115	H	1.062151	-0.772318	-0.173608
H116	H	1.109356	-0.717588	-0.141315
H117	H	1.037076	-0.739257	-0.100317
H118	H	0.144537	-0.312424	-0.374839
O119	O	0.826551	-1.056570	-0.381062
C120	C	0.835177	-1.110614	-0.372509
H121	H	0.855722	-1.118073	-0.324183
H122	H	0.788251	-1.131413	-0.376707
H123	H	0.868531	-1.126056	-0.409718
H124	H	0.978233	-0.190901	-0.945006
H125	H	0.832718	-0.312213	-1.063609
H126	H	0.144537	-0.190914	-0.229707
O127	O	0.268297	-0.185660	-0.223315
C128	C	0.225390	-0.156088	-0.188039
H129	H	0.178714	-0.177494	-0.185838
H130	H	0.244249	-0.150453	-0.138679
H131	H	0.218510	-0.116407	-0.211072
H132	H	0.346256	-0.244104	-0.199789
H133	H	0.832722	-0.312253	-0.944899
O134	O	0.543108	-0.185747	-0.223187
C135	C	0.559005	-0.197108	-0.160710
H136	H	0.606486	-0.217212	-0.159355
H137	H	0.561266	-0.159339	-0.132697
H138	H	0.522119	-0.223957	-0.139559
H139	H	0.978228	-0.190863	-1.063713
O140	O	1.024691	-0.805175	-0.183393
C141	C	1.065149	-0.836692	-0.219140
H142	H	1.068933	-0.820223	-0.268498
H143	H	1.113397	-0.837227	-0.196576
H144	H	1.045834	-0.878109	-0.221250
H145	H	0.792644	-0.801036	-0.414837
O146	O	0.984619	-0.948817	-0.223298
C147	C	1.020000	-0.984603	-0.187971
H148	H	1.022168	-1.023514	-0.213644
H149	H	1.069364	-0.968781	-0.181344
H150	H	0.997079	-0.990453	-0.140358
O151	O	0.984627	-1.056463	-0.223436
C152	C	0.976061	-1.110516	-0.232043
H153	H	0.955459	-1.117960	-0.280349
H154	H	1.023019	-1.131204	-0.227934
H155	H	0.942778	-1.126093	-0.194806
H156	H	0.792613	-0.701986	-0.414829
O157	O	0.826296	-0.554072	-0.381119
C158	C	0.790885	-0.518289	-0.416421
H159	H	0.816526	-0.479335	-0.418609
H160	H	0.784189	-0.534049	-0.465783
H161	H	0.743306	-0.512549	-0.393418
H162	H	0.896438	-0.337072	-0.861831
O163	O	0.895611	-0.344553	-0.738076
C164	C	0.891168	-0.386117	-0.780981
H165	H	0.912289	-0.373747	-0.827626
H166	H	0.917678	-0.421287	-0.762071
H167	H	0.839946	-0.396925	-0.787940
O168	O	0.826362	-0.446479	-0.381112
C169	C	0.862013	-0.414832	-0.421600
H170	H	0.911362	-0.431239	-0.425530
H171	H	0.839335	-0.414210	-0.469793
H172	H	0.864169	-0.373456	-0.402218
O173	O	0.984586	-0.185714	-0.665130
C174	C	1.019971	-0.156199	-0.622251
H175	H	1.022118	-0.177624	-0.575606
H176	H	1.069343	-0.150615	-0.641195
H177	H	0.997068	-0.116493	-0.615279
O178	O	0.915276	-0.158720	-0.738089
C179	C	0.919690	-0.117128	-0.780997
H180	H	0.898629	-0.129495	-0.827627
H181	H	0.893107	-0.081997	-0.762070
H182	H	0.970900	-0.106258	-0.787990
H183	H	0.548173	-0.312495	-0.374689
O184	O	0.826445	-0.317662	-0.665035
C185	C	0.840100	-0.369774	-0.649064
H186	H	0.864181	-0.370865	-0.601571
H187	H	0.794859	-0.393226	-0.646792
H188	H	0.872299	-0.387370	-0.685913
O189	O	0.341364	-0.260057	-0.413481
C190	C	0.357329	-0.307351	-0.443038
H191	H	0.375225	-0.336188	-0.406663
H192	H	0.314301	-0.324256	-0.467059
H193	H	0.395369	-0.299853	-0.479293
O194	O	0.826494	-0.317648	-0.536039
C195	C	0.862138	-0.351431	-0.498230
H196	H	0.909637	-0.332985	-0.488466
H197	H	0.836613	-0.358455	-0.452195
H198	H	0.868986	-0.390169	-0.523454
H199	H	0.914520	-0.166134	-0.861850
