data_functionalizedCrystal
_audit_creation_method	'MofGen! by Chris Wilmer'
_symmetry_space_group_name_H-M	'P1'
_symmetry_Int_Tables_number	1
_symmetry_cell_setting	triclinic
loop_
_symmetry_equiv_pos_as_xyz
  x,y,z
_cell_length_a	10.654556
_cell_length_b	10.967829
_cell_length_c	9.730223
_cell_angle_alpha	77.867717
_cell_angle_beta	89.998368
_cell_angle_gamma	84.601636
loop_
_atom_site_label
_atom_site_type_symbol
_atom_site_fract_x
_atom_site_fract_y
_atom_site_fract_z
O1	O	1.667810	0.175315	-0.155756
O2	O	1.302330	0.192006	-0.159722
O3	O	1.493498	0.002083	-0.114729
O4	O	1.476641	0.365238	-0.200749
O5	O	1.493486	0.002078	0.113852
O6	O	1.302318	0.192001	0.068859
O7	O	1.667797	0.175310	0.072826
Zn8	Zn	1.485056	0.183654	0.107134
Zn9	Zn	1.485072	0.183661	-0.194031
O10	O	1.476629	0.365233	0.027832
C11	C	1.255526	0.190776	-0.045143
C12	C	1.116084	0.187105	-0.044279
C13	C	0.919546	0.181938	-0.167643
C14	C	1.050568	0.185380	-0.168467
C15	C	1.050573	0.185374	0.080745
C16	C	0.919554	0.181923	0.081569
C17	C	1.492265	-0.044420	0.010573
C18	C	1.488592	-0.182977	0.043384
C19	C	1.486962	-0.244741	-0.060401
C20	C	1.483166	-0.387947	-0.026493
C21	C	1.714601	0.176540	-0.041757
C22	C	1.854044	0.180211	-0.042630
C23	C	1.477863	0.411736	-0.097473
C24	C	1.481535	0.550292	-0.130293
N25	N	1.485054	0.183649	0.312672
N26	N	1.485084	0.183657	-0.399567
C27	C	1.569732	0.099587	0.404513
C28	C	1.569745	0.099587	0.548395
C29	C	1.400396	0.267723	0.508582
C30	C	1.400379	0.267715	0.364703
H31	H	0.866211	0.180543	-0.268774
H32	H	1.638678	0.031133	0.362154
C33	C	1.122614	0.187288	-0.305983
H34	H	1.064828	0.185783	-0.379830
H35	H	1.182674	0.115990	-0.294286
H36	H	1.164772	0.261287	-0.328689
H37	H	1.638696	0.031135	0.623170
C38	C	1.488873	-0.172970	-0.214354
H39	H	1.487350	-0.230290	-0.275071
H40	H	1.563328	-0.131056	-0.229382
H41	H	1.417099	-0.113300	-0.233595
C42	C	1.481252	-0.459712	0.127467
H43	H	1.482758	-0.402390	0.188184
H44	H	1.553012	-0.519389	0.146713
H45	H	1.406783	-0.501616	0.142490
C46	C	1.486678	-0.254747	0.197336
H47	H	1.488184	-0.197425	0.258053
H48	H	1.558438	-0.314424	0.216581
H49	H	1.412210	-0.296651	0.212359
H50	H	1.482934	-0.396571	-0.244259
H51	H	1.331457	0.336170	0.550960
C52	C	1.307239	0.360194	0.263664
H53	H	1.319351	0.348141	0.170526
H54	H	1.321595	0.443610	0.267473
H55	H	1.223304	0.345863	0.290650
C56	C	1.122637	0.187274	0.217349
H57	H	1.210047	0.189591	0.198952
H58	H	1.110119	0.114067	0.285894
H59	H	1.092210	0.259363	0.251463
C60	C	0.847496	0.180028	0.219089
H61	H	0.905273	0.181560	0.292935
H62	H	0.805335	0.106039	0.241797
H63	H	0.787437	0.251336	0.207375
