data_functionalizedCrystal
_audit_creation_method	'MofGen! by Chris Wilmer'
_symmetry_space_group_name_H-M	'P1'
_symmetry_Int_Tables_number	1
_symmetry_cell_setting	triclinic
loop_
_symmetry_equiv_pos_as_xyz
  x,y,z
_cell_length_a	10.654550
_cell_length_b	15.072220
_cell_length_c	10.654550
_cell_angle_alpha	89.999884
_cell_angle_beta	84.484903
_cell_angle_gamma	90.016055
loop_
_atom_site_label
_atom_site_type_symbol
_atom_site_fract_x
_atom_site_fract_y
_atom_site_fract_z
O1	O	1.667857	0.073853	0.176390
O2	O	1.302378	0.073839	0.193197
O3	O	1.493520	0.073843	0.002054
O4	O	1.476714	0.073849	0.367533
O5	O	1.493473	-0.073722	0.002065
O6	O	1.302331	-0.073726	0.193207
O7	O	1.667809	-0.073712	0.176401
Zn8	Zn	1.485062	-0.097148	0.184805
Zn9	Zn	1.485125	0.097275	0.184792
O10	O	1.476667	-0.073716	0.367543
C11	C	1.255556	0.000054	0.191968
C12	C	1.116113	0.000049	0.188276
N13	N	1.485029	-0.229837	0.184814
C14	C	1.036627	0.000063	0.300817
C15	C	0.905607	0.000079	0.297341
C16	C	0.933570	0.000068	0.068771
C17	C	1.064588	0.000047	0.072249
C18	C	1.020482	0.000073	0.432780
C19	C	0.889461	0.000089	0.429304
C20	C	1.485122	-0.589039	0.184787
C21	C	1.382496	-0.551434	0.286714
C22	C	1.382737	-0.448608	0.287092
C23	C	1.485075	-0.410835	0.184801
C24	C	1.616368	-0.448120	0.214563
C25	C	1.615794	-0.550978	0.215289
C26	C	1.457621	-0.551143	0.052802
C27	C	1.454622	-0.448279	0.053655
C28	C	1.485056	-0.310121	0.184806
C29	C	1.485150	-0.689752	0.184785
C30	C	1.714631	0.000074	0.177630
C31	C	1.854074	0.000086	0.181321
C32	C	1.492263	0.000061	-0.044739
C33	C	1.488571	0.000064	-0.184182
N34	N	1.485168	0.229964	0.184773
C35	C	1.601112	0.000066	-0.263668
C36	C	1.597636	0.000072	-0.394688
C37	C	1.369066	0.000071	-0.366725
C38	C	1.372544	0.000071	-0.235707
C39	C	1.733075	0.000063	-0.279813
C40	C	1.729599	0.000069	-0.410834
C41	C	1.477925	0.000067	0.414336
C42	C	1.481616	0.000070	0.553779
H43	H	0.891602	0.000080	-0.025694
Br44	Br	1.172460	0.000001	-0.080492
Br45	Br	1.069348	-0.102853	0.518816
H46	H	0.847748	0.061850	0.479021
Br47	Br	1.657386	-0.405167	0.373235
Br48	Br	1.079958	0.106261	0.502801
H49	H	1.784711	0.061816	-0.250459
Br50	Br	1.220114	-0.406590	0.257343
Br51	Br	1.211609	0.000086	-0.436660
H52	H	1.280902	0.000082	-0.170993
H53	H	0.843769	-0.063619	0.469189
Br54	Br	1.803051	-0.106137	-0.220408
H55	H	1.358036	-0.423911	0.031094
H56	H	1.284628	-0.576200	0.269091
H57	H	1.399940	-0.577270	0.384082
H58	H	1.769500	0.063785	-0.456481
Br59	Br	1.655896	-0.590950	0.375778
Br60	Br	1.412145	-0.407571	0.450316
Br61	Br	1.746867	-0.592441	0.096220
H62	H	1.694607	-0.423649	0.142347
Br63	Br	1.301386	-0.594436	0.005596
H64	H	1.524427	-0.422569	-0.025837
H65	H	1.779301	-0.061684	-0.452590
H66	H	1.532448	-0.575459	-0.023063
