data_functionalizedCrystal
_audit_creation_method	'MofGen! by Chris Wilmer'
_symmetry_space_group_name_H-M	'P1'
_symmetry_Int_Tables_number	1
_symmetry_cell_setting	triclinic
loop_
_symmetry_equiv_pos_as_xyz
  x,y,z
_cell_length_a	14.971486
_cell_length_b	16.992695
_cell_length_c	14.048226
_cell_angle_alpha	89.993436
_cell_angle_beta	89.998499
_cell_angle_gamma	87.141176
loop_
_atom_site_label
_atom_site_type_symbol
_atom_site_fract_x
_atom_site_fract_y
_atom_site_fract_z
O1	O	1.194127	0.102190	-0.079052
O2	O	0.934587	0.114427	-0.079078
O3	O	1.063316	-0.005835	-0.079057
O4	O	1.065397	0.222452	-0.079072
O5	O	1.063299	-0.005842	0.079264
O6	O	0.934570	0.114420	0.079244
O7	O	1.194110	0.102183	0.079270
Zn8	Zn	1.064337	0.108300	0.104394
Zn9	Zn	1.064359	0.108310	-0.104201
O10	O	1.065380	0.222445	0.079249
C11	C	0.901215	0.113876	0.000080
C12	C	0.801803	0.112236	0.000070
C13	C	0.749541	0.182887	0.000067
C14	C	0.656133	0.181341	0.000081
C15	C	0.614988	0.109144	0.000092
C16	C	0.667257	0.038488	0.000098
C17	C	0.760663	0.040034	0.000091
C18	C	0.472568	0.035269	0.000111
C19	C	0.379155	0.033723	0.000117
C20	C	0.368038	0.176577	0.000102
C21	C	0.461445	0.178123	0.000094
C22	C	0.513707	0.107466	0.000099
C23	C	1.060631	-0.035054	0.000103
C24	C	1.052644	-0.122105	0.000102
C25	C	1.129708	-0.172274	0.000111
C26	C	1.122198	-0.254067	0.000101
C27	C	1.037623	-0.285691	0.000089
C28	C	0.960553	-0.235517	0.000078
C29	C	0.968064	-0.153724	0.000081
C30	C	1.006493	-0.529318	0.000073
C31	C	0.998988	-0.611117	0.000073
C32	C	1.160634	-0.629662	0.000094
C33	C	1.168138	-0.547867	0.000103
C34	C	1.091068	-0.497700	0.000087
N35	N	1.029945	-0.369297	0.000082
N36	N	1.098747	-0.414095	0.000087
C37	C	1.227482	0.102733	0.000110
C38	C	1.326894	0.104373	0.000114
C39	C	1.068066	0.251664	0.000087
C40	C	1.076053	0.338715	0.000082
N41	N	1.064328	0.108293	0.246754
N42	N	1.064375	0.108310	-0.246562
C43	C	1.121350	0.055063	0.296581
C44	C	1.121356	0.055063	0.396239
C45	C	1.064344	0.108297	0.446068
C46	C	1.007316	0.161529	0.396234
C47	C	1.007306	0.161526	0.296578
C48	C	1.007342	0.161535	0.603948
C49	C	1.007353	0.161540	0.703611
C50	C	1.121393	0.055072	0.703609
C51	C	1.121383	0.055068	0.603953
C52	C	1.064355	0.108302	0.554126
H53	H	0.633749	-0.020297	0.000120
C54	C	1.206967	-0.309253	0.000101
H55	H	1.190383	-0.362494	0.000082
H56	H	1.241404	-0.299671	0.055313
H57	H	1.241405	-0.299645	-0.055114
H58	H	1.167826	0.011728	0.744184
H59	H	0.325482	0.234108	0.000103
C60	C	0.921722	-0.474141	0.000054
H61	H	0.938302	-0.420898	0.000045
H62	H	0.887272	-0.483738	0.055258
H63	H	0.887298	-0.483736	-0.055170
C64	C	0.506703	0.257538	0.000085
H65	H	0.462202	0.299397	0.000093
H66	H	0.542910	0.261112	-0.055126
H67	H	0.542910	0.261103	0.055301
C68	C	0.818150	-0.037681	0.000085
H69	H	0.780270	-0.080902	0.000082
H70	H	0.854824	-0.040053	0.055290
H71	H	0.854814	-0.040042	-0.055137
C72	C	0.333892	-0.045690	0.000142
H73	H	0.270778	-0.036489	0.000137
H74	H	0.351485	-0.074781	0.055359
H75	H	0.351480	-0.074790	-0.055069
C76	C	0.944581	0.220046	0.758421
H77	H	0.910590	0.251728	0.714475
H78	H	0.979038	0.252758	0.797316
H79	H	0.905356	0.191727	0.797277
C80	C	0.530054	-0.042451	0.000105
H81	H	0.492174	-0.085671	0.000099
H82	H	0.566731	-0.044827	0.055308
H83	H	0.566714	-0.044807	-0.055119
C84	C	0.944617	0.220095	0.549140
H85	H	0.910671	0.251806	0.593087
H86	H	0.905362	0.191835	0.510272
H87	H	0.979132	0.252784	0.510257
H88	H	1.198578	-0.146533	0.000126
C89	C	1.261170	-0.513087	0.000104
H90	H	1.305993	-0.554681	0.000097
H91	H	1.267458	-0.481569	0.055312
H92	H	1.267460	-0.481562	-0.055115
C93	C	1.245403	-0.684846	0.000099
H94	H	1.228821	-0.738088	0.000087
H95	H	1.279841	-0.675260	0.055310
H96	H	1.279842	-0.675243	-0.055117
H97	H	0.930114	-0.636861	0.000079
C98	C	0.867522	-0.270301	0.000068
H99	H	0.874085	-0.326198	0.000078
H100	H	0.835548	-0.253081	-0.055144
H101	H	0.835543	-0.253089	0.055283
H102	H	0.905310	-0.112878	0.000073
C103	C	0.944585	0.220082	0.241768
H104	H	0.910638	0.251792	0.285715
H105	H	0.905332	0.191818	0.202903
H106	H	0.979096	0.252772	0.202882
H107	H	0.783034	0.241679	0.000057
H108	H	1.167780	0.011717	0.256017
H109	H	1.167788	0.011718	0.436808
C110	C	1.184094	-0.003488	0.549143
H111	H	1.218052	-0.035197	0.593089
H112	H	1.223337	0.024773	0.510253
H113	H	1.149571	-0.036180	0.510282
H114	H	0.613586	0.238873	0.000077
H115	H	0.960891	0.204871	0.436810
