data_functionalizedCrystal
_audit_creation_method	'MofGen! by Chris Wilmer'
_symmetry_space_group_name_H-M	'P1'
_symmetry_Int_Tables_number	1
_symmetry_cell_setting	triclinic
loop_
_symmetry_equiv_pos_as_xyz
  x,y,z
_cell_length_a	10.489716
_cell_length_b	15.944551
_cell_length_c	9.565339
_cell_angle_alpha	89.999279
_cell_angle_beta	89.996780
_cell_angle_gamma	84.013937
loop_
_atom_site_label
_atom_site_type_symbol
_atom_site_fract_x
_atom_site_fract_y
_atom_site_fract_z
O1	O	1.692430	0.118403	-0.116252
O2	O	1.321075	0.129548	-0.116258
O3	O	1.516893	0.001761	-0.116242
O4	O	1.496612	0.246190	-0.116268
O5	O	1.516878	0.001769	0.116278
O6	O	1.321060	0.129556	0.116262
O7	O	1.692414	0.118410	0.116268
Zn8	Zn	1.506735	0.123984	0.153183
Zn9	Zn	1.506755	0.123974	-0.153172
O10	O	1.496596	0.246198	0.116253
C11	C	1.273547	0.128714	0.000002
C12	C	1.131951	0.126209	0.000000
C13	C	1.033191	0.204572	-0.000011
C14	C	0.956411	0.163167	0.114644
C15	C	0.956433	0.163141	-0.114603
C16	C	1.057036	0.084837	0.114750
C17	C	1.057064	0.084822	-0.114600
C18	C	0.980334	0.043360	0.000084
C19	C	1.516044	-0.029534	0.000018
C20	C	1.513519	-0.122795	0.000019
C21	C	1.386109	-0.338411	-0.000002
C22	C	1.445266	-0.399072	0.114645
C23	C	1.508953	-0.293548	0.000008
C24	C	1.445311	-0.399063	-0.114601
C25	C	1.504533	-0.458487	-0.000008
C26	C	1.568144	-0.352981	0.114750
C27	C	1.568171	-0.352966	-0.114599
C28	C	1.627418	-0.413609	0.000076
C29	C	1.511496	-0.198531	0.000019
C30	C	1.501999	-0.553504	-0.000009
C31	C	1.739942	0.119244	0.000005
C32	C	1.881539	0.121749	-0.000002
C33	C	1.497446	0.277493	-0.000011
C34	C	1.499970	0.370754	-0.000021
N35	N	1.506730	0.123991	0.362262
N36	N	1.506770	0.123961	-0.362252
C37	C	1.416143	0.183068	0.453458
C38	C	1.531406	0.200058	0.546637
C39	C	1.391517	0.107009	0.546639
C40	C	1.622051	0.141018	0.453389
C41	C	1.482086	0.047936	0.453383
C42	C	1.597432	0.064893	0.546520
H43	H	1.056915	0.272736	0.000089
H44	H	1.461179	-0.016349	0.412390
H45	H	1.620052	-0.332678	0.211782
H46	H	1.393343	-0.419452	-0.211534
H47	H	0.956849	-0.024854	0.000157
H48	H	1.100804	0.051779	0.211777
C49	C	1.116479	0.040174	-0.245537
H50	H	1.081863	0.068110	-0.326921
H51	H	1.097470	-0.016784	-0.246356
H52	H	1.206769	0.041671	-0.244129
C53	C	1.312758	0.250618	0.398238
H54	H	1.330499	0.304613	0.430169
H55	H	1.231062	0.239097	0.431533
H56	H	1.312954	0.249826	0.298929
H57	H	1.294067	0.092658	0.587603
C58	C	1.559609	0.286921	0.601984
H59	H	1.635654	0.280718	0.656595
H60	H	1.489968	0.310195	0.658048
H61	H	1.570622	0.323439	0.525436
H62	H	1.620091	-0.332530	-0.211528
C63	C	0.897098	0.207838	-0.245542
H64	H	0.914809	0.265068	-0.245399
H65	H	0.806989	0.205461	-0.245061
H66	H	0.932917	0.180568	-0.326950
C67	C	1.248370	-0.294228	0.000146
H68	H	1.204923	-0.309906	0.081708
H69	H	1.204297	-0.310665	-0.080470
H70	H	1.250921	-0.234847	-0.000676
C71	C	0.897027	0.207854	0.245574
H72	H	0.854925	0.168997	0.299558
H73	H	0.836816	0.253505	0.218014
H74	H	0.962720	0.228618	0.299937
C75	C	1.375072	-0.426656	0.245576
H76	H	1.289350	-0.400666	0.245437
H77	H	1.417880	-0.410115	0.326988
H78	H	1.374656	-0.486208	0.245057
C79	C	1.753727	0.160511	0.398306
H80	H	1.808707	0.168607	0.474968
H81	H	1.743505	0.210257	0.343037
H82	H	1.790216	0.114683	0.342945
C83	C	1.765277	-0.457592	0.000164
H84	H	1.808698	-0.441818	0.081676
H85	H	1.809243	-0.441109	-0.080502
H86	H	1.762934	-0.516991	-0.000597
C87	C	1.701048	-0.002615	0.601390
H88	H	1.782818	0.009578	0.569287
H89	H	1.684224	-0.056489	0.568048
H90	H	1.700042	-0.002568	0.700701
