data_functionalizedCrystal
_audit_creation_method	'MofGen! by Chris Wilmer'
_symmetry_space_group_name_H-M	'P1'
_symmetry_Int_Tables_number	1
_symmetry_cell_setting	triclinic
loop_
_symmetry_equiv_pos_as_xyz
  x,y,z
_cell_length_a	14.971482
_cell_length_b	17.019294
_cell_length_c	13.448316
_cell_angle_alpha	86.114424
_cell_angle_beta	89.993798
_cell_angle_gamma	83.503209
loop_
_atom_site_label
_atom_site_type_symbol
_atom_site_fract_x
_atom_site_fract_y
_atom_site_fract_z
O1	O	1.186694	0.102787	-0.091479
O2	O	0.926263	0.115101	-0.092538
O3	O	1.063743	-0.005882	-0.082171
O4	O	1.049214	0.223770	-0.101845
O5	O	1.063726	-0.005890	0.083213
O6	O	0.926246	0.115093	0.072847
O7	O	1.186677	0.102779	0.073906
Cu8	Cu	1.056460	0.108936	0.088477
Cu9	Cu	1.056480	0.108944	-0.107109
O10	O	1.049196	0.223763	0.063539
C11	C	0.892931	0.114547	-0.009799
C12	C	0.793638	0.112898	-0.009660
C13	C	0.746986	0.112117	0.080559
C14	C	0.653691	0.110556	0.080694
C15	C	0.607049	0.109780	-0.009391
C16	C	0.653708	0.110559	-0.099617
C17	C	0.747002	0.112115	-0.099750
C18	C	0.459254	0.107317	-0.099333
C19	C	0.365954	0.105763	-0.099200
C20	C	0.365943	0.105758	0.081111
C21	C	0.459237	0.107314	0.080978
C22	C	0.505889	0.108094	-0.009248
C23	C	1.063183	-0.035276	0.003037
C24	C	1.061530	-0.122848	0.010533
C25	C	1.060765	-0.163981	-0.076096
C26	C	1.059206	-0.246264	-0.069050
C27	C	1.058419	-0.287413	0.024626
C28	C	1.059181	-0.246274	0.111261
C29	C	1.060734	-0.163992	0.104214
C30	C	1.053724	-0.535851	0.050414
C31	C	1.052174	-0.618139	0.057455
C32	C	1.052198	-0.618123	-0.122857
C33	C	1.053756	-0.535840	-0.129896
C34	C	1.054513	-0.494708	-0.043261
C35	C	1.056828	-0.371519	0.031831
C36	C	1.056098	-0.410602	-0.050466
C37	C	1.220009	0.103333	-0.008835
C38	C	1.319302	0.104982	-0.008981
C39	C	1.049756	0.253156	-0.021671
C40	C	1.051409	0.340728	-0.029174
N41	N	1.056452	0.108929	0.226042
N42	N	1.056495	0.108945	-0.244674
C43	C	1.117347	0.055380	0.282671
C44	C	1.117352	0.055379	0.386774
C45	C	1.056467	0.108932	0.434246
C46	C	0.995565	0.162484	0.377610
C47	C	0.995556	0.162480	0.273509
C48	C	0.995590	0.162489	0.594589
C49	C	0.995600	0.162494	0.698698
C50	C	1.117386	0.055388	0.707855
C51	C	1.117377	0.055384	0.603754
C52	C	1.056477	0.108937	0.547124
H53	H	0.497236	0.107952	-0.172804
H54	H	0.784985	0.112752	-0.173216
H55	H	0.327981	0.105132	-0.172555
N56	N	0.603400	0.109715	-0.196777
H57	H	0.557377	0.157933	-0.204928
H58	H	0.647171	0.110414	-0.253894
N59	N	0.603370	0.109711	0.177999
H60	H	0.647152	0.109883	0.235095
H61	H	0.557773	0.158213	0.178072
H62	H	1.054398	-0.502342	-0.206177
H63	H	1.166931	0.011774	0.244026
N64	N	0.797281	0.112954	0.177729
H65	H	0.843307	0.064738	0.185880
H66	H	0.828613	0.162494	0.177448
N67	N	1.061622	-0.119603	-0.177133
H68	H	1.060899	-0.158149	-0.230942
H69	H	1.006846	-0.079120	-0.184531
H70	H	0.945995	0.206095	0.548485
H71	H	1.051579	-0.651622	-0.193390
H72	H	1.061344	-0.130501	0.174757
N73	N	1.051328	-0.662524	0.158496
H74	H	1.052043	-0.623982	0.212311
H75	H	0.995264	-0.690325	0.164796
N76	N	0.929872	0.220232	0.212426
H77	H	0.891302	0.254159	0.258293
H78	H	0.964058	0.255156	0.166224
H79	H	1.058587	-0.279751	-0.139592
H80	H	1.166937	0.011775	0.432881
H81	H	1.056733	-0.377094	-0.126737
H82	H	1.166959	0.011781	0.565102
H83	H	0.497209	0.107951	0.154333
H84	H	1.056190	-0.405032	0.108102
N85	N	1.054553	-0.491494	0.143852
H86	H	1.053825	-0.530050	0.204262
H87	H	1.110620	-0.463699	0.145396
N88	N	0.929920	0.220253	0.749888
H89	H	0.890368	0.190048	0.795684
H90	H	0.964112	0.255226	0.790010
H91	H	1.166973	0.011783	0.753968
H92	H	1.058535	-0.279783	0.187535
H93	H	0.327955	0.105124	0.154577
N94	N	0.929892	0.220239	0.428815
H95	H	0.964028	0.255219	0.468994
H96	H	0.891326	0.254108	0.377087
