data_functionalizedCrystal
_audit_creation_method	'MofGen! by Chris Wilmer'
_symmetry_space_group_name_H-M	'P1'
_symmetry_Int_Tables_number	1
_symmetry_cell_setting	triclinic
loop_
_symmetry_equiv_pos_as_xyz
  x,y,z
_cell_length_a	15.944545
_cell_length_b	15.944551
_cell_length_c	9.730223
_cell_angle_alpha	90.002284
_cell_angle_beta	89.997420
_cell_angle_gamma	83.497455
loop_
_atom_site_label
_atom_site_type_symbol
_atom_site_fract_x
_atom_site_fract_y
_atom_site_fract_z
O1	O	1.114523	0.108303	0.114204
O2	O	0.869972	0.121665	0.114227
O3	O	0.998926	-0.007291	0.114202
O4	O	0.985569	0.237259	0.114228
O5	O	0.998924	-0.007288	-0.114378
O6	O	0.869971	0.121668	-0.114353
O7	O	1.114521	0.108307	-0.114376
Zn8	Zn	0.992246	0.114988	-0.150657
Zn9	Zn	0.992248	0.114984	0.150507
O10	O	0.985568	0.237262	-0.114352
C11	C	0.838677	0.121113	-0.000061
C12	C	0.745431	0.119453	-0.000052
C13	C	0.474798	0.034559	-0.000076
C14	C	0.525379	0.075490	-0.112777
C15	C	0.409787	0.113532	-0.000077
C16	C	0.525361	0.075508	0.112585
C17	C	0.574701	0.116437	-0.000062
C18	C	0.459140	0.154441	-0.112870
C19	C	0.459119	0.154448	0.112593
C20	C	0.509667	0.195436	-0.000136
C21	C	0.314785	0.111856	-0.000086
C22	C	0.669700	0.118119	-0.000063
C23	C	0.998370	-0.038583	-0.000088
C24	C	0.996708	-0.131829	-0.000089
C25	C	0.912803	-0.346684	-0.000062
C26	C	0.951765	-0.407700	-0.112769
C27	C	0.993701	-0.302555	-0.000078
C28	C	0.951786	-0.407687	0.112593
C29	C	0.990790	-0.467468	-0.000061
C30	C	1.032685	-0.362343	-0.112878
C31	C	1.032694	-0.362324	0.112585
C32	C	1.071715	-0.423322	-0.000150
C33	C	0.995375	-0.207553	-0.000088
C34	C	0.989122	-0.562469	-0.000060
C35	C	1.145816	0.108859	-0.000086
C36	C	1.239062	0.110519	-0.000085
C37	C	0.986123	0.268555	-0.000059
C38	C	0.987785	0.361801	-0.000049
N39	N	0.992250	0.114990	-0.356193
C40	C	1.049366	0.057908	-0.428130
C41	C	1.049363	0.057898	-0.572013
C42	C	0.935128	0.172060	-0.572010
C43	C	0.935127	0.172065	-0.428129
C44	C	1.106489	0.000833	-0.356194
C45	C	1.163609	-0.056254	-0.428131
C46	C	1.163607	-0.056264	-0.572014
C47	C	1.106485	0.000813	-0.643960
N48	N	0.992250	0.114975	0.356044
H49	H	0.554310	0.042138	-0.208064
C50	C	1.106486	0.000798	-0.802236
N51	N	1.106491	0.000790	-0.921448
C52	C	0.872299	0.234840	-0.651156
N53	N	0.824976	0.282129	-0.710769
H54	H	0.430330	0.187770	-0.208252
C55	C	1.226428	-0.119070	-0.651140
N56	N	1.273747	-0.166379	-0.710736
C57	C	0.822092	-0.301678	-0.000207
N58	N	0.753771	-0.267776	-0.000326
H59	H	0.525159	0.263501	-0.000194
H60	H	0.917548	-0.427807	-0.208048
H61	H	0.917559	-0.427765	0.207885
H62	H	1.210112	-0.102728	-0.369545
H63	H	0.888618	0.218546	-0.369558
H64	H	0.554279	0.042140	0.207859
C65	C	0.453643	-0.057319	-0.000236
N66	N	0.437706	-0.126520	-0.000365
H67	H	1.066872	-0.342352	-0.208268
C68	C	1.162505	-0.468129	-0.000247
N69	N	1.230887	-0.501880	-0.000329
C70	C	0.420007	0.199460	0.241327
N71	N	0.390546	0.233357	0.338301
C72	C	1.078879	-0.335127	0.241311
N73	N	1.113660	-0.314641	0.338278
H74	H	1.106497	0.000838	-0.239037
