data_functionalizedCrystal
_audit_creation_method	'MofGen! by Chris Wilmer'
_symmetry_space_group_name_H-M	'P1'
_symmetry_Int_Tables_number	1
_symmetry_cell_setting	triclinic
loop_
_symmetry_equiv_pos_as_xyz
  x,y,z
_cell_length_a	15.944493
_cell_length_b	15.944493
_cell_length_c	15.021413
_cell_angle_alpha	90.009890
_cell_angle_beta	89.993251
_cell_angle_gamma	83.475044
loop_
_atom_site_label
_atom_site_type_symbol
_atom_site_fract_x
_atom_site_fract_y
_atom_site_fract_z
O1	O	1.114537	0.108092	-0.074008
O2	O	1.614537	0.608092	0.425992
O3	O	0.869978	0.121499	-0.074011
O4	O	1.369978	0.621499	0.425989
O5	O	0.998961	-0.007484	-0.074017
O6	O	1.498961	0.492516	0.425983
O7	O	0.985553	0.237075	-0.074003
O8	O	1.485553	0.737075	0.425997
O9	O	0.998940	-0.007466	0.074047
O10	O	1.498940	0.492534	0.574047
O11	O	0.869957	0.121518	0.074053
O12	O	1.369957	0.621518	0.574053
O13	O	1.114516	0.108110	0.074056
O14	O	1.614516	0.608110	0.574056
Zn15	Zn	0.992233	0.114817	0.097563
Zn16	Zn	1.492233	0.614817	0.597563
Zn17	Zn	0.992260	0.114793	-0.097518
Zn18	Zn	1.492260	0.614793	0.402482
O19	O	0.985533	0.237094	0.074062
O20	O	1.485533	0.737094	0.574062
C21	C	0.838673	0.120961	0.000020
C22	C	1.338673	0.620961	0.500020
C23	C	0.745424	0.119318	0.000018
C24	C	1.245424	0.619318	0.500018
C25	C	0.509649	0.195240	0.000022
C26	C	1.009649	0.695240	0.500022
C27	C	0.459089	0.154307	0.073027
C28	C	0.959089	0.654307	0.573027
C29	C	0.574704	0.116273	0.000020
C30	C	1.074704	0.616273	0.500020
C31	C	0.459114	0.154270	-0.072953
C32	C	0.959114	0.654270	0.427047
C33	C	0.409795	0.113339	0.000018
C34	C	0.909795	0.613339	0.500018
C35	C	0.525372	0.075362	0.073085
C36	C	1.025372	0.575362	0.573085
C37	C	0.525400	0.075337	-0.072960
C38	C	1.025400	0.575337	0.427040
C39	C	0.474873	0.034346	0.000062
C40	C	0.974873	0.534346	0.500062
C41	C	0.669704	0.117966	0.000022
C42	C	1.169704	0.617966	0.500022
C43	C	0.314798	0.111640	0.000022
C44	C	0.814798	0.611640	0.500022
C45	C	0.998403	-0.038769	0.000011
C46	C	1.498403	0.461231	0.500011
C47	C	0.996760	-0.132018	-0.000000
C48	C	1.496760	0.367982	0.500000
C49	C	1.072682	-0.367793	0.000017
C50	C	1.572682	0.132207	0.500017
C51	C	1.031750	-0.418362	-0.072986
C52	C	1.531750	0.081638	0.427014
C53	C	0.993716	-0.302738	0.000011
C54	C	1.493716	0.197262	0.500011
C55	C	1.031712	-0.418320	0.072994
C56	C	1.531712	0.081680	0.572994
C57	C	0.990781	-0.467647	0.000025
C58	C	1.490781	0.032353	0.500025
C59	C	0.952805	-0.352078	-0.073053
C60	C	1.452805	0.147922	0.426947
C61	C	0.952778	-0.352033	0.072992
C62	C	1.452778	0.147967	0.572992
C63	C	0.911788	-0.402569	-0.000029
C64	C	1.411788	0.097431	0.499971
C65	C	0.995408	-0.207739	0.000002
C66	C	1.495408	0.292261	0.500002
C67	C	0.989082	-0.562644	0.000028
C68	C	1.489082	-0.062644	0.500028
C69	C	1.145821	0.108649	0.000022
C70	C	1.645821	0.608649	0.500022
C71	C	1.239069	0.110292	0.000018
C72	C	1.739069	0.610292	0.500018
C73	C	0.986091	0.268379	0.000031
C74	C	1.486091	0.768379	0.500031
C75	C	0.987734	0.361627	0.000037
C76	C	1.487734	0.861627	0.500037
N77	N	0.992221	0.114833	0.230700
N78	N	1.492221	0.614833	0.730700
N79	N	0.992279	0.114770	-0.230656
N80	N	1.492279	0.614770	0.269344
C81	C	0.932570	0.174447	0.470386
C82	C	1.432570	0.674447	0.970386
C83	C	1.008469	0.190739	0.529723
C84	C	1.508469	0.690739	1.029723
C85	C	0.992243	0.114812	0.412307
C86	C	1.492243	0.614812	0.912307
C87	C	0.916364	0.098539	0.529712
C88	C	1.416364	0.598539	1.029712
C89	C	0.992256	0.114794	0.587731
C90	C	1.492256	0.614794	1.087731
C91	C	1.068180	0.131141	0.470337
C92	C	1.568180	0.631141	0.970337
C93	C	0.976025	0.038909	0.470321
C94	C	1.476025	0.538909	0.970321
C95	C	1.051979	0.055168	0.529631
C96	C	1.551979	0.555168	1.029631
C97	C	0.992233	0.114825	0.311250
C98	C	1.492233	0.614825	0.811250
C99	C	0.992274	0.114780	0.688786
C100	C	1.492274	0.614780	1.188786
H101	H	0.459422	-0.033727	0.000100
H102	H	0.959422	0.466273	0.500100
H103	H	1.140702	-0.352179	-0.000055
H104	H	1.640702	0.147821	0.499945
O105	O	0.420730	0.198483	0.154787
O106	O	0.920730	0.698483	0.654787
H107	H	0.434349	0.265221	0.154641
H108	H	0.934349	0.765221	0.654641
O109	O	0.420789	0.198452	-0.154700
O110	O	0.920789	0.698452	0.345300
H111	H	0.351456	0.196288	-0.154272
H112	H	0.851456	0.696288	0.345728
H113	H	0.919449	-0.323058	0.134713
H114	H	1.419449	0.176942	0.634713
O115	O	0.563778	0.031184	-0.154718
O116	O	1.063778	0.531184	0.345282
H117	H	0.537109	0.064098	-0.215229
H118	H	1.037109	0.564098	0.284771
O119	O	0.530350	0.285333	0.000120
O120	O	1.030350	0.785333	0.500120
H121	H	0.470913	0.328944	0.000800
H122	H	0.970913	0.828944	0.500800
O123	O	1.153208	0.149470	0.435949
O124	O	1.653208	0.649470	0.935949
H125	H	1.152523	0.149367	0.362062
H126	H	1.652523	0.649367	0.862062
H127	H	0.962272	-0.025252	0.444210
H128	H	1.462272	0.474748	0.944210
H129	H	1.065107	-0.447322	-0.134705
H130	H	1.565107	0.052678	0.365295
H131	H	0.554198	0.042041	0.134866
H132	H	1.054198	0.542041	0.634866
O133	O	1.026672	0.275739	0.564310
O134	O	1.526672	0.775739	1.064310
H135	H	1.027117	0.274732	0.638192
H136	H	1.527117	0.774732	1.138192
H137	H	1.065068	-0.447250	0.134709
H138	H	1.565068	0.052750	0.634709
H139	H	0.852189	0.084784	0.555795
H140	H	1.352189	0.584784	1.055795
H141	H	1.102503	0.004726	0.555481
H142	H	1.602503	0.504726	1.055481
H143	H	0.919484	-0.323259	-0.134838
H144	H	1.419484	0.176741	0.365162
H145	H	0.843715	-0.418021	-0.000070
H146	H	1.343715	0.081979	0.499930
H147	H	0.882158	0.224919	0.444373
H148	H	1.382158	0.724919	0.944373
