data_functionalizedCrystal
_audit_creation_method	'MofGen! by Chris Wilmer'
_symmetry_space_group_name_H-M	'P1'
_symmetry_Int_Tables_number	1
_symmetry_cell_setting	triclinic
loop_
_symmetry_equiv_pos_as_xyz
  x,y,z
_cell_length_a	21.295417
_cell_length_b	16.120530
_cell_length_c	16.120297
_cell_angle_alpha	90.128140
_cell_angle_beta	92.867002
_cell_angle_gamma	87.125778
loop_
_atom_site_label
_atom_site_type_symbol
_atom_site_fract_x
_atom_site_fract_y
_atom_site_fract_z
Zn1	Zn	-0.318915	1.247391	-0.534523
Zn2	Zn	0.181085	1.747391	-0.034523
Zn3	Zn	-0.419125	1.254326	-0.395453
Zn4	Zn	0.080875	1.754326	0.104547
Zn5	Zn	-0.308278	1.115383	-0.388443
Zn6	Zn	0.191722	1.615383	0.111557
Zn7	Zn	-0.418545	1.108282	-0.527422
Zn8	Zn	0.081455	1.608282	-0.027422
O9	O	-0.366216	1.181345	-0.461460
O10	O	0.133784	1.681345	0.038540
O11	O	-0.336903	1.364676	-0.521981
O12	O	0.163097	1.864676	-0.021981
O13	O	-0.400212	1.241769	-0.278158
O14	O	0.099788	1.741769	0.221842
O15	O	-0.221604	1.132963	-0.407859
O16	O	0.278396	1.632963	0.092141
O17	O	-0.410526	1.369771	-0.419806
O18	O	0.089474	1.869771	0.080194
O19	O	-0.229419	1.229949	-0.515184
O20	O	0.270581	1.729949	-0.015184
O21	O	-0.318773	1.139688	-0.273008
O22	O	0.181227	1.639688	0.226992
O23	O	-0.318211	0.998075	-0.400973
O24	O	0.181789	1.498075	0.099027
O25	O	-0.409538	1.120862	-0.644729
O26	O	0.090462	1.620862	-0.144729
O27	O	-0.399224	0.992859	-0.503081
O28	O	0.100776	1.492859	-0.003081
O29	O	-0.336340	1.223064	-0.649946
O30	O	0.163660	1.723064	-0.149946
O31	O	-0.507133	1.234884	-0.412921
O32	O	-0.007133	1.734884	0.087079
O33	O	-0.506707	1.127586	-0.509878
O34	O	-0.006707	1.627586	-0.009878
C35	C	-0.357501	0.965295	-0.450496
C36	C	0.142499	1.465295	0.049504
C37	C	-0.353788	0.872866	-0.445825
C38	C	0.146212	1.372866	0.054175
C39	C	-0.529761	1.181239	-0.461409
C40	C	-0.029761	1.681239	0.038591
C41	C	-0.599731	1.181268	-0.461418
C42	C	-0.099731	1.681268	0.038582
C43	C	-0.346996	0.703638	-0.437305
C44	C	0.153004	1.203638	0.062695
C45	C	-0.385485	0.659891	-0.485677
C46	C	0.114515	1.159891	0.014323
C47	C	-0.381705	0.565726	-0.480936
C48	C	0.118295	1.065726	0.019064
C49	C	-0.350774	0.797811	-0.442045
C50	C	0.149226	1.297811	0.057955
C51	C	-0.632802	1.237182	-0.410990
C52	C	-0.132802	1.737182	0.089010
C53	C	-0.698547	1.237220	-0.411010
C54	C	-0.198547	1.737220	0.088990
C55	C	-0.731217	1.181329	-0.461450
C56	C	-0.231217	1.681329	0.038550
C57	C	-0.698138	1.125411	-0.511889
C58	C	-0.198138	1.625411	-0.011889
C59	C	-0.632395	1.125380	-0.511873
C60	C	-0.132395	1.625380	-0.011873
N61	N	-0.831783	1.108264	-0.464098
N62	N	-0.331783	1.608264	0.035902
N63	N	-0.894236	1.108296	-0.464108
N64	N	-0.394236	1.608296	0.035892
C65	C	-0.929297	1.181420	-0.461503
C66	C	-0.429297	1.681420	0.038497
N67	N	-0.899546	1.254514	-0.458870
N68	N	-0.399546	1.754514	0.041130
N69	N	-0.837087	1.254481	-0.458855
N70	N	-0.337087	1.754481	0.041145
C71	C	-0.802504	1.181357	-0.461473
C72	C	-0.302504	1.681357	0.038527
C73	C	-1.033657	1.237380	-0.411094
C74	C	-0.533657	1.737380	0.088906
C75	C	-1.099403	1.237419	-0.411120
C76	C	-0.599403	1.737419	0.088880
C77	C	-1.098992	1.125603	-0.511994
C78	C	-0.598992	1.625603	-0.011994
C79	C	-1.033248	1.125571	-0.511973
C80	C	-0.533248	1.625571	-0.011973
C81	C	-1.000584	1.181459	-0.461518
C82	C	-0.500584	1.681459	0.038482
C83	C	-0.202033	1.181474	-0.461531
C84	C	0.297967	1.681474	0.038469
C85	C	-0.132068	1.181529	-0.461562
C86	C	0.367932	1.681529	0.038438
C87	C	-0.374061	1.170397	-0.678353
C88	C	0.125939	1.670397	-0.178353
C89	C	-0.377404	1.165731	-0.770780
C90	C	0.122596	1.665731	-0.270780
C91	C	-0.374966	1.398240	-0.472468
C92	C	0.125034	1.898240	0.027532
C93	C	-0.378694	1.490667	-0.477159
C94	C	0.121306	1.990667	0.022841
C95	C	-0.383493	1.157183	-0.940004
C96	C	0.116507	1.657183	-0.440004
C97	C	-0.348757	1.205672	-0.983777
C98	C	0.151243	1.705672	-0.483777
C99	C	-0.352144	1.200915	-1.077938
C100	C	0.147856	1.700915	-0.577938
C101	C	-0.380106	1.161938	-0.845834
C102	C	0.119894	1.661938	-0.345834
C103	C	-0.358358	1.192299	-0.245413
C104	C	0.141642	1.692299	0.254587
C105	C	-0.354844	1.197126	-0.152995
C106	C	0.145156	1.697126	0.347005
H107	H	-0.311209	0.670373	-0.392335
H108	H	0.188791	1.170373	0.107665
H109	H	-0.316473	1.250756	-0.950533
H110	H	0.183527	1.750756	-0.450533
O111	O	-0.422081	1.103521	-0.979699
O112	O	0.077919	1.603521	-0.479699
C113	C	-0.510053	1.087423	-1.077345
C114	C	-0.010053	1.587423	-0.577345
C115	C	-0.466405	1.148283	-1.032419
C116	C	0.033595	1.648283	-0.532419
H117	H	-0.545890	1.123588	-1.119992
H118	H	-0.045890	1.623588	-0.619992
H119	H	-0.535726	1.051674	-1.029576
H120	H	-0.035726	1.551674	-0.529576
H121	H	-0.480820	1.041937	-1.115769
H122	H	0.019180	1.541937	-0.615769
H123	H	-0.495591	1.193819	-0.993995
H124	H	0.004409	1.693819	-0.493995
H125	H	-0.440728	1.183972	-1.080229
H126	H	0.059272	1.683972	-0.580229
O127	O	-0.428167	0.699703	-0.539256
O128	O	0.071833	1.199703	-0.039256
C129	C	-0.470854	0.831219	-0.592947
C130	C	0.029146	1.331219	-0.092947
C131	C	-0.422499	0.786234	-0.532223
C132	C	0.077501	1.286234	-0.032223
H133	H	-0.466278	0.901186	-0.587294
H134	H	0.033722	1.401186	-0.087294
H135	H	-0.520407	0.814971	-0.577377
H136	H	-0.020407	1.314971	-0.077377
H137	H	-0.461644	0.810793	-0.659177
H138	H	0.038356	1.310793	-0.159177
H139	H	-0.431650	0.806636	-0.465973
H140	H	0.068350	1.306636	0.034027
H141	H	-0.372961	0.802483	-0.547865
H142	H	0.127039	1.302483	-0.047865
H143	H	-1.006319	1.080037	-0.553033
H144	H	-0.506319	1.580037	-0.053033
H145	H	-0.606210	1.282691	-0.369908
H146	H	-0.106210	1.782691	0.130092
H147	H	-0.725479	1.282755	-0.369945
H148	H	-0.225479	1.782755	0.130055
H149	H	-0.724742	1.079906	-0.552959
H150	H	-0.224742	1.579906	-0.052959
O151	O	-1.001861	1.291708	-0.362208
O152	O	-0.501861	1.791708	0.137792
C153	C	-0.931714	1.404545	-0.356793
C154	C	-0.431714	1.904545	0.143207
C155	C	-0.967674	1.343053	-0.412250
C156	C	-0.467674	1.843053	0.087750
H157	H	-0.904076	1.446085	-0.397230
H158	H	-0.404076	1.946085	0.102770
H159	H	-0.897829	1.368631	-0.311349
H160	H	-0.397829	1.868631	0.188651
H161	H	-0.966660	1.444483	-0.320738
H162	H	-0.466660	1.944483	0.179262
H163	H	-0.932775	1.303100	-0.448358
H164	H	-0.432775	1.803100	0.051642
H165	H	-1.001569	1.379018	-0.457641
H166	H	-0.501569	1.879018	0.042359
H167	H	-0.605468	1.079847	-0.552939
H168	H	-0.105468	1.579847	-0.052939
H169	H	-1.126329	1.282957	-0.370057
H170	H	-0.626329	1.782957	0.129943
H171	H	-1.125592	1.080099	-0.553068
H172	H	-0.625592	1.580099	-0.053068
