data_functionalizedCrystal
_audit_creation_method	'MofGen! by Chris Wilmer'
_symmetry_space_group_name_H-M	'P1'
_symmetry_Int_Tables_number	1
_symmetry_cell_setting	triclinic
loop_
_symmetry_equiv_pos_as_xyz
  x,y,z
_cell_length_a	6.817900
_cell_length_b	17.078472
_cell_length_c	11.168136
_cell_angle_alpha	95.135010
_cell_angle_beta	108.508683
_cell_angle_gamma	99.306020
loop_
_atom_site_label
_atom_site_type_symbol
_atom_site_fract_x
_atom_site_fract_y
_atom_site_fract_z
V1	V	-4.063423	-0.109779	-0.393572
O2	O	-4.071694	0.005263	-0.386211
O3	O	-3.994055	-0.217662	-0.390755
O4	O	-4.040426	-0.108096	-0.565280
O5	O	-4.025001	-0.105061	-0.210478
V6	V	-4.546477	-0.096018	-0.371688
O7	O	-4.325712	-0.139965	-0.441577
O8	O	-4.734385	-0.065832	-0.323683
O9	O	-4.392638	0.011865	-0.374505
O10	O	-4.655603	-0.211060	-0.379050
O11	O	-4.702295	-0.100736	-0.554783
O12	O	-4.346267	-0.097701	-0.199980
C13	C	-3.833133	-0.243961	-0.384514
C14	C	-3.857872	-0.332157	-0.383355
C15	C	-3.892283	-0.104198	-0.607136
C16	C	-3.954625	-0.103536	-0.747507
C17	C	-4.051755	-0.377632	-0.389104
C18	C	-4.074992	-0.460502	-0.388023
C19	C	-3.904339	-0.497893	-0.381183
C20	C	-3.710443	-0.452412	-0.375437
C21	C	-3.687213	-0.369545	-0.376528
C22	C	-3.954275	-0.745297	-0.377255
C23	C	-3.977519	-0.828170	-0.376161
C24	C	-4.342068	-0.836254	-0.388749
C25	C	-4.318817	-0.753384	-0.389831
C26	C	-4.124927	-0.707911	-0.384092
N27	N	-3.928085	-0.582599	-0.380074
N28	N	-4.101188	-0.623208	-0.385211
C29	C	-4.155666	-0.107003	-0.816195
C30	C	-4.220103	-0.106319	-0.961276
C31	C	-4.216901	0.038160	-0.380743
C32	C	-4.171401	0.126354	-0.381910
C33	C	-4.157751	-0.101602	-0.158117
C34	C	-4.074648	-0.102260	-0.017745
H35	H	-4.190717	-0.347193	-0.394662
O36	O	-3.806333	-0.099284	-0.805593
C37	C	-3.633557	-0.024911	-0.930097
C38	C	-3.801607	-0.029638	-0.864402
H39	H	-3.629650	0.031401	-0.977638
H40	H	-3.674283	-0.080164	-1.005395
H41	H	-3.472205	-0.022447	-0.855804
H42	H	-3.963021	-0.032077	-0.938601
H43	H	-3.760699	0.025614	-0.789081
H44	H	-3.796397	-0.708282	-0.372574
O45	O	-4.304083	-0.111290	-0.758202
C46	C	-4.476670	-0.185607	-0.633557
C47	C	-4.308549	-0.180860	-0.699199
H48	H	-4.480305	-0.241841	-0.585813
H49	H	-4.638137	-0.188165	-0.707794
H50	H	-4.435923	-0.130286	-0.558387
H51	H	-4.349096	-0.236167	-0.774362
H52	H	-4.147129	-0.178263	-0.624886
O53	O	-4.530590	-0.880361	-0.394510
C54	C	-4.901513	-0.923437	-0.514870
C55	C	-4.688144	-0.873440	-0.508488
H56	H	-5.028944	-0.917872	-0.607027
H57	H	-4.944781	-0.900430	-0.429489
H58	H	-4.888732	-0.989076	-0.512853
H59	H	-4.700761	-0.807790	-0.510544
H60	H	-4.644953	-0.896513	-0.593863
O61	O	-3.869201	-0.098865	-0.947426
C62	C	-3.567199	-0.161327	-0.913003
C63	C	-3.799889	-0.165276	-0.992723
H64	H	-3.511076	-0.215005	-0.949613
H65	H	-3.551699	-0.162562	-0.808535
H66	H	-3.466506	-0.103450	-0.921899
H67	H	-3.900725	-0.223146	-0.983934
H68	H	-3.815222	-0.163997	-1.097158
H69	H	-4.457788	-0.722947	-0.395410
O70	O	-4.263140	-0.504733	-0.393401
C71	C	-4.448655	-0.592144	-0.289488
C72	C	-4.235428	-0.542107	-0.283264
H73	H	-4.426331	-0.622360	-0.200442
H74	H	-4.510944	-0.639898	-0.377993
H75	H	-4.566591	-0.551163	-0.294604
H76	H	-4.117340	-0.583024	-0.278100
H77	H	-4.173314	-0.494345	-0.194773
O78	O	-3.811699	-0.864512	-0.369299
C79	C	-3.574203	-0.942655	-0.250916
C80	C	-3.761953	-0.901516	-0.258517
H81	H	-3.533954	-0.972598	-0.161370
H82	H	-3.431519	-0.895950	-0.246918
H83	H	-3.618244	-0.989924	-0.338898
H84	H	-3.718115	-0.854253	-0.170556
H85	H	-3.904585	-0.948269	-0.262577
O86	O	-3.498895	-0.325266	-0.370774
C87	C	-3.208775	-0.216270	-0.254773
C88	C	-3.422051	-0.266338	-0.261142
H89	H	-3.146562	-0.168627	-0.166129
H90	H	-3.230933	-0.185914	-0.343678
H91	H	-3.090859	-0.257249	-0.249757
H92	H	-3.540076	-0.225415	-0.266116
H93	H	-3.399726	-0.296703	-0.172239
H94	H	-3.571500	-0.482864	-0.369876
H95	H	-4.392330	-0.109291	-1.020324
