data_functionalizedCrystal
_audit_creation_method	'MofGen! by Chris Wilmer'
_symmetry_space_group_name_H-M	'P1'
_symmetry_Int_Tables_number	1
_symmetry_cell_setting	triclinic
loop_
_symmetry_equiv_pos_as_xyz
  x,y,z
_cell_length_a	8.559649
_cell_length_b	14.044220
_cell_length_c	7.088929
_cell_angle_alpha	83.206932
_cell_angle_beta	95.325015
_cell_angle_gamma	81.483771
loop_
_atom_site_label
_atom_site_type_symbol
_atom_site_fract_x
_atom_site_fract_y
_atom_site_fract_z
O1	O	2.100735	-0.021003	-0.158955
O2	O	2.600735	0.478997	0.341045
O3	O	1.642435	0.027448	-0.158968
O4	O	2.142435	0.527448	0.341032
O5	O	1.864708	-0.134262	-0.158943
O6	O	2.364708	0.365738	0.341057
O7	O	1.878463	0.140708	-0.158981
O8	O	2.378463	0.640708	0.341019
O9	O	1.894406	-0.155917	0.159035
O10	O	2.394406	0.344083	0.659035
O11	O	1.672134	0.005793	0.159010
O12	O	2.172134	0.505793	0.659010
O13	O	2.130433	-0.042657	0.159023
O14	O	2.630433	0.457343	0.659023
Cu15	Cu	1.903995	-0.020409	0.188051
Cu16	Cu	2.403995	0.479591	0.688051
Cu17	Cu	1.868874	0.005200	-0.187996
Cu18	Cu	2.368874	0.505200	0.312004
O19	O	1.908161	0.119053	0.158998
O20	O	2.408161	0.619053	0.658998
C21	C	1.598278	0.020292	0.000019
C22	C	2.098278	0.520292	0.500019
C23	C	1.422455	0.031222	0.000015
C24	C	1.922455	0.531222	0.500015
C25	C	1.873535	-0.179966	0.000047
C26	C	2.373535	0.320034	0.500047
C27	C	1.855571	-0.283884	0.000048
C28	C	2.355571	0.216116	0.500048
C29	C	1.822727	-0.474153	0.000020
C30	C	2.322727	0.025847	0.500020
C31	C	1.950133	-0.541060	0.000018
C32	C	2.450133	-0.041060	0.500018
C33	C	1.931858	-0.646933	0.000002
C34	C	2.431858	-0.146933	0.500002
C35	C	1.841000	-0.368270	0.000036
C36	C	2.341000	0.131730	0.500036
C37	C	2.174590	-0.035501	0.000031
C38	C	2.674590	0.464499	0.500031
C39	C	2.350412	-0.046430	0.000023
C40	C	2.850412	0.453570	0.500023
C41	C	1.899334	0.164757	0.000004
C42	C	2.399334	0.664757	0.500004
C43	C	1.917296	0.268676	-0.000011
C44	C	2.417296	0.768676	0.499989
N45	N	1.928709	-0.038422	0.452541
N46	N	2.428709	0.461578	0.952541
N47	N	1.844171	0.023205	-0.452487
N48	N	2.344171	0.523205	0.047513
H49	H	1.423242	-0.121272	0.000024
H50	H	1.923242	0.378728	0.500024
H51	H	1.699936	-0.496383	0.000012
H52	H	2.199936	0.003617	0.500012
H53	H	1.349615	0.106070	-0.000005
H54	H	1.849615	0.606070	0.499995
H55	H	2.072921	-0.518820	-0.000107
H56	H	2.572921	-0.018820	0.499893
Cl57	Cl	1.708895	0.121809	0.421445
Cl58	Cl	2.208895	0.621809	0.921445
H59	H	2.016343	-0.102285	0.534207
H60	H	2.516343	0.397715	1.034207
