data_functionalizedCrystal
_audit_creation_method	'MofGen! by Chris Wilmer'
_symmetry_space_group_name_H-M	'P1'
_symmetry_Int_Tables_number	1
_symmetry_cell_setting	triclinic
loop_
_symmetry_equiv_pos_as_xyz
  x,y,z
_cell_length_a	17.699083
_cell_length_b	10.268362
_cell_length_c	17.699083
_cell_angle_alpha	89.997763
_cell_angle_beta	96.716985
_cell_angle_gamma	89.998576
loop_
_atom_site_label
_atom_site_type_symbol
_atom_site_fract_x
_atom_site_fract_y
_atom_site_fract_z
O1	O	1.004076	0.108120	-0.095707
O2	O	1.504076	0.608120	0.404293
O3	O	0.783698	0.108163	-0.108160
O4	O	1.283698	0.608163	0.391840
O5	O	0.900113	0.108129	0.008256
O6	O	1.400113	0.608129	0.508256
O7	O	0.887661	0.108154	-0.212123
O8	O	1.387661	0.608154	0.287877
O9	O	0.900102	-0.108472	0.008252
O10	O	1.400102	0.391528	0.508252
O11	O	0.783687	-0.108437	-0.108164
O12	O	1.283687	0.391563	0.391836
O13	O	1.004065	-0.108480	-0.095711
O14	O	1.504065	0.391520	0.404289
Cu15	Cu	0.893875	-0.128236	-0.101938
Cu16	Cu	1.393875	0.371764	0.398062
Cu17	Cu	0.893888	0.127919	-0.101933
Cu18	Cu	1.393888	0.627919	0.398067
O19	O	0.887650	-0.108446	-0.212127
O20	O	1.387650	0.391554	0.287873
C21	C	0.755495	-0.000132	-0.107716
C22	C	1.255495	0.499868	0.392284
C23	C	0.671477	-0.000116	-0.106377
C24	C	1.171477	0.499884	0.393623
C25	C	0.622856	-0.000108	-0.174710
C26	C	1.122856	0.499892	0.325290
C27	C	0.543913	-0.000125	-0.173448
C28	C	1.043913	0.499875	0.326552
C29	C	0.513592	-0.000140	-0.103852
C30	C	1.013592	0.499860	0.396148
C31	C	0.562219	-0.000152	-0.035513
C32	C	1.062219	0.499848	0.464487
C33	C	0.641161	-0.000144	-0.036776
C34	C	1.141161	0.499856	0.463224
C35	C	0.243856	-0.000184	-0.030418
C36	C	0.743856	0.499816	0.469582
C37	C	0.164908	-0.000188	-0.029160
C38	C	0.664908	0.499812	0.470840
C39	C	0.146608	-0.000166	-0.167090
C40	C	0.646608	0.499834	0.332910
C41	C	0.225550	-0.000158	-0.168353
C42	C	0.725550	0.499842	0.331647
C43	C	0.274170	-0.000176	-0.100015
C44	C	0.774170	0.499824	0.399985
C45	C	0.359769	-0.000160	-0.101384
C46	C	0.859769	0.499840	0.398616
C47	C	0.427995	-0.000147	-0.102481
C48	C	0.927995	0.499853	0.397519
N49	N	0.893871	-0.308402	-0.101941
N50	N	1.393871	0.191598	0.398059
C51	C	0.893877	-0.426244	-0.101941
C52	C	1.393877	0.073756	0.398059
C53	C	0.893886	-0.574082	-0.101934
C54	C	1.393886	-0.074082	0.398066
C55	C	1.032268	-0.000183	-0.096156
C56	C	1.532268	0.499817	0.403844
C57	C	1.116286	-0.000190	-0.097494
C58	C	1.616286	0.499810	0.402506
C59	C	0.899662	-0.000171	0.036451
C60	C	1.399662	0.499829	0.536451
C61	C	0.898323	-0.000172	0.120469
C62	C	1.398323	0.499828	0.620469
N63	N	0.893898	0.308085	-0.101924
N64	N	1.393898	0.808085	0.398076
C65	C	0.888102	-0.000143	-0.240322
C66	C	1.388102	0.499857	0.259678
C67	C	0.889440	-0.000134	-0.324340
C68	C	1.389440	0.499866	0.175660
C69	C	0.966656	-0.000187	0.169090
C70	C	1.466656	0.499813	0.669090
C71	C	0.965394	-0.000175	0.248033
C72	C	1.465394	0.499825	0.748033
C73	C	0.895798	-0.000157	0.278354
C74	C	1.395798	0.499843	0.778354
C75	C	0.827459	-0.000138	0.229727
C76	C	1.327459	0.499862	0.729727
C77	C	0.828722	-0.000141	0.150785
C78	C	1.328722	0.499859	0.650785
C79	C	0.822364	-0.000127	0.548090
C80	C	1.322364	0.499873	1.048090
C81	C	0.821106	-0.000128	0.627038
C82	C	1.321106	0.499872	1.127038
C83	C	0.959036	-0.000161	0.645338
C84	C	1.459036	0.499839	1.145338
C85	C	0.960299	-0.000163	0.566396
C86	C	1.460299	0.499837	1.066396
C87	C	0.891961	-0.000138	0.517776
C88	C	1.391961	0.499862	1.017776
C89	C	0.893330	-0.000148	0.432177
C90	C	1.393330	0.499852	0.932177
C91	C	0.894427	-0.000156	0.363951
C92	C	1.394427	0.499844	0.863951
H93	H	0.504328	-0.000118	-0.229092
H94	H	1.004328	0.499882	0.270908
H95	H	1.014680	-0.000175	0.684934
H96	H	1.514680	0.499825	1.184934
O97	O	1.027924	0.000052	0.536980
O98	O	1.527924	0.500052	1.036980
C99	C	1.069583	0.112209	0.561851
C100	C	1.569583	0.612209	1.061851
H101	H	1.028886	0.190622	0.578196
H102	H	1.528886	0.690622	1.078196
H103	H	1.101698	0.149859	0.514086
H104	H	1.601698	0.649859	1.014086
H105	H	1.111853	0.086841	0.613380
H106	H	1.611853	0.586841	1.113380
H107	H	1.023330	-0.000209	0.144409
H108	H	1.523330	0.499791	0.644409
O109	O	0.652216	0.000082	-0.242365
O110	O	1.152216	0.500082	0.257635
C111	C	0.627365	0.112280	-0.284002
C112	C	1.127365	0.612280	0.215998
H113	H	0.572650	0.149671	-0.263472
H114	H	1.072650	0.649671	0.236528
H115	H	0.616289	0.087057	-0.347051
H116	H	1.116289	0.587057	0.152949
H117	H	0.673060	0.190836	-0.275153
H118	H	1.173060	0.690836	0.224847
O119	O	0.291187	-0.000240	0.035893
O120	O	0.791187	0.499760	0.535893
C121	C	0.367366	-0.000197	0.019863
C122	C	0.867366	0.499803	0.519863
H123	H	0.370290	-0.041206	-0.039578
H124	H	0.870290	0.458794	0.460422
H125	H	0.403215	-0.063075	0.063433
H126	H	0.903215	0.436925	0.563433
H127	H	0.390195	0.103721	0.022770
H128	H	0.890195	0.603721	0.522770
O129	O	0.532894	-0.000220	0.032160
O130	O	1.032894	0.499780	0.532160
C131	C	0.592739	-0.000191	0.092202
C132	C	1.092739	0.499809	0.592202
H133	H	0.646329	-0.041198	0.071084
H134	H	1.146329	0.458802	0.571084
H135	H	0.576333	-0.063079	0.140802
H136	H	1.076333	0.436921	0.640802
H137	H	0.603948	0.103722	0.113273
H138	H	1.103948	0.603722	0.613273
H139	H	0.764429	-0.000116	0.651721
H140	H	1.264429	0.499884	1.151721
O141	O	0.688472	0.000028	0.029553
O142	O	1.188472	0.500028	0.529553
C143	C	0.734666	0.112225	0.032961
C144	C	1.234666	0.612225	0.532961
H145	H	0.738543	0.149636	-0.027107
H146	H	1.238543	0.649636	0.472893
H147	H	0.794053	0.086994	0.061259
H148	H	1.294053	0.586994	0.561259
H149	H	0.708758	0.190770	0.067485
H150	H	1.208758	0.690770	0.567485
O151	O	1.031843	-0.000257	0.295155
O152	O	1.531843	0.499743	0.795155
C153	C	1.093541	-0.000252	0.251465
C154	C	1.593541	0.499748	0.751465
H155	H	1.074217	-0.041254	0.192511
H156	H	1.574217	0.458746	0.692511
H157	H	1.141404	-0.063154	0.280676
H158	H	1.641404	0.436846	0.780676
H159	H	1.114893	0.103654	0.245881
H160	H	1.614893	0.603654	0.745881
O161	O	0.755913	-0.000177	0.500975
O162	O	1.255913	0.499823	1.000975
C163	C	0.694218	-0.000138	0.544668
C164	C	1.194218	0.499862	1.044668
H165	H	0.713540	-0.041144	0.603625
H166	H	1.213540	0.458856	1.103625
H167	H	0.646346	-0.063021	0.515464
H168	H	1.146346	0.436979	1.015464
H169	H	0.672879	0.103778	0.550247
H170	H	1.172879	0.603778	1.050247
O171	O	0.759918	-0.000178	0.259303
O172	O	1.259918	0.499822	0.759303
C173	C	0.773455	-0.000151	0.339406
C174	C	1.273455	0.499849	0.839406
H175	H	0.832551	-0.041171	0.358054
H176	H	1.332551	0.458829	0.858054
H177	H	0.728926	-0.063028	0.363563
H178	H	1.228926	0.436972	0.863563
H179	H	0.769832	0.103763	0.361373
H180	H	1.269832	0.603763	0.861373
H181	H	0.773078	-0.000128	0.111198
H182	H	1.273078	0.499872	0.611198
H183	H	0.140225	-0.000202	0.027517
H184	H	0.640225	0.499798	0.527517
H185	H	0.250232	-0.000140	-0.225025
H186	H	0.750232	0.499860	0.274975
H187	H	0.107012	-0.000158	-0.222734
H188	H	0.607012	0.499842	0.277266
