data_functionalizedCrystal
_audit_creation_method	'MofGen! by Chris Wilmer'
_symmetry_space_group_name_H-M	'P1'
_symmetry_Int_Tables_number	1
_symmetry_cell_setting	triclinic
loop_
_symmetry_equiv_pos_as_xyz
  x,y,z
_cell_length_a	14.519709
_cell_length_b	9.065218
_cell_length_c	8.140239
_cell_angle_alpha	89.996984
_cell_angle_beta	89.995169
_cell_angle_gamma	95.651985
loop_
_atom_site_label
_atom_site_type_symbol
_atom_site_fract_x
_atom_site_fract_y
_atom_site_fract_z
O1	O	1.225278	-0.193395	0.136393
O2	O	1.725278	0.306605	0.636393
O3	O	0.956968	-0.216170	0.136442
O4	O	1.456968	0.283830	0.636442
O5	O	1.096669	0.009964	0.136413
O6	O	1.596669	0.509964	0.636413
O7	O	1.085578	-0.419529	0.136422
O8	O	1.585578	0.080471	0.636422
O9	O	1.096667	0.009973	-0.136814
O10	O	1.596667	0.509973	0.363186
O11	O	0.956966	-0.216161	-0.136785
O12	O	1.456966	0.283839	0.363215
O13	O	1.225276	-0.193386	-0.136835
O14	O	1.725276	0.306614	0.363165
Zn15	Zn	1.091121	-0.204772	-0.180191
Zn16	Zn	1.591121	0.295228	0.319809
Zn17	Zn	1.091124	-0.204784	0.179798
Zn18	Zn	1.591124	0.295216	0.679798
O19	O	1.085575	-0.419520	-0.136806
O20	O	1.585575	0.080480	0.363194
C21	C	0.922600	-0.215104	-0.000165
C22	C	1.422600	0.284896	0.499835
C23	C	0.820195	-0.211923	-0.000146
C24	C	1.320195	0.288077	0.499854
N25	N	1.091126	-0.204763	-0.425873
N26	N	1.591126	0.295237	0.074127
C27	C	1.095602	0.064935	-0.000198
C28	C	1.595602	0.564935	0.499802
C29	C	1.092415	0.228718	-0.000189
C30	C	1.592415	0.728718	0.499811
C31	C	0.445214	-0.200214	-0.000221
C32	C	0.945214	0.299786	0.499779
C33	C	0.549545	-0.203466	-0.000200
C34	C	1.049545	0.296534	0.499800
C35	C	0.632701	-0.206068	-0.000182
C36	C	1.132701	0.293932	0.499818
C37	C	0.737039	-0.209321	-0.000164
C38	C	1.237039	0.290679	0.499836
C39	C	1.259645	-0.194452	-0.000224
C40	C	1.759645	0.305548	0.499776
C41	C	1.362049	-0.197633	-0.000232
C42	C	1.862049	0.302367	0.499768
C43	C	1.086642	-0.474491	-0.000191
C44	C	1.586642	0.025509	0.499809
C45	C	1.089830	-0.638274	-0.000189
C46	C	1.589830	-0.138274	0.499811
N47	N	1.091126	-0.204782	0.425480
N48	N	1.591126	0.295218	0.925480
