data_functionalizedCrystal
_audit_creation_method	'MofGen! by Chris Wilmer'
_symmetry_space_group_name_H-M	'P1'
_symmetry_Int_Tables_number	1
_symmetry_cell_setting	triclinic
loop_
_symmetry_equiv_pos_as_xyz
  x,y,z
_cell_length_a	16.625548
_cell_length_b	12.827892
_cell_length_c	12.827885
_cell_angle_alpha	89.970214
_cell_angle_beta	89.978764
_cell_angle_gamma	90.016460
loop_
_atom_site_label
_atom_site_type_symbol
_atom_site_fract_x
_atom_site_fract_y
_atom_site_fract_z
Zn1	Zn	1.232725	-0.415953	-0.590903
Zn2	Zn	1.566059	-0.082619	-0.257570
Zn3	Zn	1.899392	0.250714	0.075763
Zn4	Zn	1.232644	-0.590730	-0.416164
Zn5	Zn	1.565977	-0.257397	-0.082830
Zn6	Zn	1.899310	0.075937	0.250503
Zn7	Zn	1.097886	-0.416007	-0.416171
Zn8	Zn	1.431219	-0.082674	-0.082838
Zn9	Zn	1.764552	0.250660	0.250496
Zn10	Zn	1.097874	-0.590656	-0.590858
Zn11	Zn	1.431208	-0.257322	-0.257524
Zn12	Zn	1.764541	0.076011	0.075809
O13	O	1.165282	-0.503336	-0.503524
O14	O	1.498616	-0.170003	-0.170191
O15	O	1.831949	0.163330	0.163143
O16	O	1.345547	-0.439146	-0.567740
O17	O	1.678880	-0.105812	-0.234407
O18	O	2.012214	0.227521	0.098927
O19	O	1.214738	-0.567606	-0.269929
O20	O	1.548072	-0.234273	0.063405
O21	O	1.881405	0.099060	0.396738
O22	O	1.115811	-0.269764	-0.439372
O23	O	1.449145	0.063570	-0.106039
O24	O	1.782478	0.396903	0.227295
O25	O	1.345487	-0.567554	-0.439359
O26	O	1.678820	-0.234221	-0.106026
O27	O	2.012154	0.099113	0.227307
O28	O	1.214878	-0.269724	-0.567747
O29	O	1.548211	0.063610	-0.234414
O30	O	1.881544	0.396943	0.098920
O31	O	1.115732	-0.439238	-0.269934
O32	O	1.449066	-0.105905	0.063399
O33	O	1.782399	0.227429	0.396733
O34	O	0.985052	-0.439166	-0.439328
O35	O	1.318385	-0.105833	-0.105994
O36	O	1.651718	0.227501	0.227339
O37	O	1.115792	-0.567427	-0.737100
O38	O	1.449125	-0.234094	-0.403767
O39	O	1.782459	0.099240	-0.070433
O40	O	0.985043	-0.567480	-0.567669
O41	O	1.318377	-0.234146	-0.234336
O42	O	1.651710	0.099187	0.098998
O43	O	1.214867	-0.439074	-0.737134
O44	O	1.548200	-0.105740	-0.403800
O45	O	1.881533	0.227593	-0.070467
O46	O	1.214727	-0.736956	-0.439315
O47	O	1.548061	-0.403623	-0.105982
O48	O	1.881394	-0.070290	0.227352
O49	O	1.115713	-0.736901	-0.567662
O50	O	1.449046	-0.403568	-0.234329
O51	O	1.782379	-0.070235	0.099005
C52	C	1.165232	-0.774846	-0.503506
C53	C	1.498565	-0.441513	-0.170172
C54	C	1.831899	-0.108180	0.163161
C55	C	1.165284	-0.890999	-0.503533
C56	C	1.498617	-0.557666	-0.170199
C57	C	1.831951	-0.224333	0.163134
C58	C	0.955791	-0.503321	-0.503495
C59	C	1.289125	-0.169988	-0.170161
C60	C	1.622458	0.163345	0.163172
C61	C	0.866170	-0.503340	-0.503507
C62	C	1.199504	-0.170007	-0.170174
C63	C	1.532837	0.163327	0.163160
C64	C	1.214338	-0.942776	-0.440093
C65	C	1.547671	-0.609443	-0.106760
C66	C	1.881004	-0.276110	0.226574
C67	C	1.214393	-1.062827	-0.440120
C68	C	1.547726	-0.729493	-0.106786
C69	C	1.881059	-0.396160	0.226547
C70	C	0.537995	-0.503347	-0.503552
C71	C	0.871328	-0.170014	-0.170218
C72	C	1.204661	0.163320	0.163115
C73	C	0.629303	-0.503342	-0.503536
C74	C	0.962636	-0.170009	-0.170203
C75	C	1.295970	0.163324	0.163131
C76	C	0.702080	-0.503344	-0.503529
C77	C	1.035413	-0.170011	-0.170195
C78	C	1.368746	0.163323	0.163138
C79	C	0.793394	-0.503338	-0.503514
C80	C	1.126727	-0.170005	-0.170181
C81	C	1.460061	0.163328	0.163152
C82	C	1.375591	-0.503352	-0.503554
C83	C	1.708924	-0.170019	-0.170221
C84	C	2.042258	0.163315	0.163113
C85	C	1.465212	-0.503359	-0.503567
C86	C	1.798546	-0.170025	-0.170233
C87	C	2.131879	0.163308	0.163100
C88	C	1.165337	-0.503236	-0.776094
C89	C	1.498670	-0.169903	-0.442761
C90	C	1.832004	0.163431	-0.109428
C91	C	1.165361	-0.503193	-0.892248
C92	C	1.498694	-0.169860	-0.558914
C93	C	1.832027	0.163474	-0.225581
C94	C	1.165355	-0.230766	-0.503565
C95	C	1.498688	0.102567	-0.170232
C96	C	1.832022	0.435901	0.163101
C97	C	1.165386	-0.114613	-0.503583
C98	C	1.498719	0.218720	-0.170250
C99	C	1.832052	0.552054	0.163084
C100	C	1.214391	-0.439667	-0.944049
C101	C	1.547724	-0.106334	-0.610716
C102	C	1.881058	0.226999	-0.277382
C103	C	1.214416	-0.439622	-1.064099
C104	C	1.547750	-0.106288	-0.730766
C105	C	1.881083	0.227045	-0.397433
C106	C	1.165274	-0.503361	-0.232014
C107	C	1.498607	-0.170027	0.101319
C108	C	1.831941	0.163306	0.434653
C109	C	1.165407	-0.503109	-0.115861
C110	C	1.498740	-0.169776	0.217472
C111	C	1.832074	0.163557	0.550805
H112	H	1.256297	-0.898231	-0.385764
H113	H	1.589631	-0.564897	-0.052430
H114	H	1.922964	-0.231564	0.280903
Cl115	Cl	1.279232	-1.131567	-0.356254
Cl116	Cl	1.612565	-0.798234	-0.022921
Cl117	Cl	1.945898	-0.464901	0.310412
H118	H	1.256346	-0.385311	-0.899521
H119	H	1.589680	-0.051977	-0.566188
H120	H	1.923013	0.281356	-0.232855
H121	H	1.123331	-0.935548	-0.557869
H122	H	1.456665	-0.602214	-0.224536
H123	H	1.789998	-0.268881	0.108797
Cl124	Cl	1.279233	-0.355654	-1.132872
Cl125	Cl	1.612567	-0.022320	-0.799539
Cl126	Cl	1.945900	0.311013	-0.466205
Cl127	Cl	1.100573	-0.587109	-0.960986
Cl128	Cl	1.433906	-0.253775	-0.627653
Cl129	Cl	1.767239	0.079558	-0.294319
H130	H	1.123384	-1.070094	-0.557895
H131	H	1.456717	-0.736760	-0.224562
H132	H	1.790050	-0.403427	0.108771
H133	H	1.123431	-0.557503	-1.071320
H134	H	1.456764	-0.224169	-0.737987
H135	H	1.790097	0.109164	-0.404654
