data_functionalizedCrystal
_audit_creation_method	'MofGen! by Chris Wilmer'
_symmetry_space_group_name_H-M	'P1'
_symmetry_Int_Tables_number	1
_symmetry_cell_setting	triclinic
loop_
_symmetry_equiv_pos_as_xyz
  x,y,z
_cell_length_a	13.897448
_cell_length_b	17.077404
_cell_length_c	17.077396
_cell_angle_alpha	90.017060
_cell_angle_beta	89.971029
_cell_angle_gamma	89.982083
loop_
_atom_site_label
_atom_site_type_symbol
_atom_site_fract_x
_atom_site_fract_y
_atom_site_fract_z
Zn1	Zn	-0.383994	-1.200064	-0.443849
Zn2	Zn	-0.050661	-0.866731	-0.110515
Zn3	Zn	0.282673	-0.533397	0.222818
Zn4	Zn	-0.545311	-1.199989	-0.312585
Zn5	Zn	-0.211978	-0.866655	0.020748
Zn6	Zn	0.121356	-0.533322	0.354081
Zn7	Zn	-0.384032	-1.068801	-0.312597
Zn8	Zn	-0.050699	-0.735468	0.020737
Zn9	Zn	0.282634	-0.402135	0.354070
Zn10	Zn	-0.545249	-1.068776	-0.443809
Zn11	Zn	-0.211916	-0.735442	-0.110476
Zn12	Zn	0.121417	-0.402109	0.222858
O13	O	-0.464647	-1.134407	-0.378210
O14	O	-0.131313	-0.801074	-0.044877
O15	O	0.202020	-0.467741	0.288457
O16	O	-0.405403	-1.309901	-0.426448
O17	O	-0.072069	-0.976568	-0.093115
O18	O	0.261264	-0.643234	0.240218
O19	O	-0.523959	-1.182566	-0.202740
O20	O	-0.190626	-0.849232	0.130593
O21	O	0.142708	-0.515899	0.463927
O22	O	-0.249045	-1.086256	-0.330029
O23	O	0.084288	-0.752923	0.003304
O24	O	0.417621	-0.419589	0.336638
O25	O	-0.523922	-1.309846	-0.330010
O26	O	-0.190588	-0.976512	0.003324
O27	O	0.142745	-0.643179	0.336657
O28	O	-0.249017	-1.182694	-0.426459
O29	O	0.084316	-0.849361	-0.093126
O30	O	0.417649	-0.516027	0.240207
O31	O	-0.405468	-1.086183	-0.202748
O32	O	-0.072135	-0.752850	0.130585
O33	O	0.261199	-0.419516	0.463918
O34	O	-0.405408	-0.958951	-0.329990
O35	O	-0.072075	-0.625618	0.003343
O36	O	0.261258	-0.292284	0.336676
O37	O	-0.523816	-1.086212	-0.553661
O38	O	-0.190483	-0.752879	-0.220328
O39	O	0.142850	-0.419546	0.113005
O40	O	-0.523854	-0.958932	-0.426391
O41	O	-0.190520	-0.625599	-0.093058
O42	O	0.142813	-0.292266	0.240275
O43	O	-0.405343	-1.182669	-0.553690
O44	O	-0.072009	-0.849336	-0.220357
O45	O	0.261324	-0.516003	0.112976
O46	O	-0.680284	-1.182541	-0.329971
O47	O	-0.346951	-0.849207	0.003362
O48	O	-0.013618	-0.515874	0.336696
O49	O	-0.680239	-1.086139	-0.426380
O50	O	-0.346906	-0.752806	-0.093047
O51	O	-0.013572	-0.419472	0.240286
C52	C	-0.715261	-1.134350	-0.378187
C53	C	-0.381928	-0.801017	-0.044854
C54	C	-0.048594	-0.467684	0.288479
C55	C	-0.822475	-1.134397	-0.378204
C56	C	-0.489141	-0.801064	-0.044870
C57	C	-0.155808	-0.467731	0.288463
C58	C	-0.464629	-0.930460	-0.378188
C59	C	-0.131296	-0.597126	-0.044855
C60	C	0.202038	-0.263793	0.288478
C61	C	-0.464645	-0.843210	-0.378198
C62	C	-0.131311	-0.509876	-0.044864
C63	C	0.202022	-0.176543	0.288469
C64	C	-0.464568	-1.134446	-0.582954
C65	C	-0.131235	-0.801113	-0.249621
C66	C	0.202098	-0.467780	0.083712
C67	C	-0.464535	-1.134463	-0.670204
C68	C	-0.131202	-0.801129	-0.336871
C69	C	0.202132	-0.467796	-0.003538
C70	C	-1.018770	-1.134480	-0.378253
C71	C	-0.685437	-0.801147	-0.044920
C72	C	-0.352103	-0.467813	0.288414
C73	C	-0.909537	-1.134432	-0.378228
C74	C	-0.576204	-0.801099	-0.044895
C75	C	-0.242871	-0.467765	0.288439
C76	C	-0.213054	-1.134486	-0.378250
C77	C	0.120280	-0.801153	-0.044917
C78	C	0.453613	-0.467820	0.288417
C79	C	-0.105840	-1.134520	-0.378267
C80	C	0.227494	-0.801187	-0.044934
C81	C	0.560827	-0.467853	0.288400
C82	C	-0.464665	-1.339152	-0.378232
C83	C	-0.131331	-1.005818	-0.044899
C84	C	0.202002	-0.672485	0.288435
C85	C	-0.464673	-1.426401	-0.378242
C86	C	-0.131339	-1.093068	-0.044908
C87	C	0.201994	-0.759735	0.288425
C88	C	-0.526412	-0.802230	-0.428313
C89	C	-0.193079	-0.468897	-0.094980
C90	C	0.140254	-0.135564	0.238354
C91	C	-0.526415	-0.720250	-0.428326
C92	C	-0.193081	-0.386917	-0.094992
C93	C	0.140252	-0.053583	0.238341
C94	C	-0.464653	-0.679250	-0.378218
C95	C	-0.131320	-0.345917	-0.044885
C96	C	0.202014	-0.012584	0.288448
C97	C	-0.402879	-0.720236	-0.328100
C98	C	-0.069545	-0.386902	0.005233
C99	C	0.263788	-0.053569	0.338566
C100	C	-0.402873	-0.802215	-0.328092
C101	C	-0.069539	-0.468881	0.005241
C102	C	0.263794	-0.135548	0.338574
C103	C	-0.402898	-0.549366	-0.328119
C104	C	-0.069564	-0.216032	0.005214
C105	C	0.263769	0.117301	0.338547
C106	C	-0.402905	-0.467381	-0.328126
C107	C	-0.069572	-0.134048	0.005207
C108	C	0.263762	0.199286	0.338541
C109	C	-0.526440	-0.467401	-0.428353
C110	C	-0.193106	-0.134068	-0.095019
C111	C	0.140227	0.199266	0.238314
C112	C	-0.526433	-0.549380	-0.428345
C113	C	-0.193100	-0.216047	-0.095011
C114	C	0.140233	0.117287	0.238322
C115	C	-0.464660	-0.590359	-0.378226
C116	C	-0.131327	-0.257026	-0.044892
C117	C	0.202007	0.076307	0.288441
C118	C	-0.526121	-1.184721	-1.046017
C119	C	-0.192788	-0.851387	-0.712683
C120	C	0.140546	-0.518054	-0.379350
C121	C	-0.526149	-1.184701	-0.964036
C122	C	-0.192816	-0.851367	-0.630703
C123	C	0.140518	-0.518034	-0.297370
C124	C	-0.464467	-1.134513	-0.923053
C125	C	-0.131134	-0.801180	-0.589720
C126	C	0.202200	-0.467847	-0.256387
C127	C	-0.402760	-1.084337	-0.964055
C128	C	-0.069426	-0.751003	-0.630722
C129	C	0.263907	-0.417670	-0.297388
C130	C	-0.402737	-1.084353	-1.046034
C131	C	-0.069404	-0.751020	-0.712701
C132	C	0.263930	-0.417687	-0.379367
C133	C	-0.402809	-1.084307	-0.793185
C134	C	-0.069476	-0.750974	-0.459851
C135	C	0.263857	-0.417641	-0.126518
C136	C	-0.402831	-1.084292	-0.711200
C137	C	-0.069497	-0.750958	-0.377867
C138	C	0.263836	-0.417625	-0.044533
C139	C	-0.526221	-1.184655	-0.711187
C140	C	-0.192888	-0.851322	-0.377854
C141	C	0.140445	-0.517988	-0.044520
C142	C	-0.526199	-1.184671	-0.793166
C143	C	-0.192866	-0.851338	-0.459833
C144	C	0.140468	-0.518005	-0.126500
C145	C	-0.464490	-1.134496	-0.834162
C146	C	-0.131157	-0.801162	-0.500829
C147	C	0.202177	-0.467829	-0.167496
C148	C	-0.464655	-1.134414	-0.174262
C149	C	-0.131321	-0.801081	0.159071
C150	C	0.202012	-0.467747	0.492405
C151	C	-0.464416	-1.134550	-0.087013
C152	C	-0.131083	-0.801216	0.246321
C153	C	0.202250	-0.467883	0.579654
H154	H	-0.576709	-0.835606	-0.469114
H155	H	-0.243376	-0.502273	-0.135781
H156	H	0.089958	-0.168940	0.197553
Br157	Br	-0.319034	-1.016235	-0.908436
Br158	Br	0.014299	-0.682901	-0.575103
Br159	Br	0.347632	-0.349568	-0.241769
Br160	Br	-0.319060	-0.604980	-0.260102
Br161	Br	0.014274	-0.271647	0.073231
Br162	Br	0.347607	0.061686	0.406565
Br163	Br	-0.318989	-1.016264	-1.101672
Br164	Br	0.014345	-0.682931	-0.768339
Br165	Br	0.347678	-0.349597	-0.435006
Br166	Br	-0.319093	-0.411739	-0.260116
Br167	Br	0.014241	-0.078405	0.073217
Br168	Br	0.347574	0.254928	0.406550
Br169	Br	-0.610243	-0.664638	-0.496345
Br170	Br	-0.276910	-0.331304	-0.163011
Br171	Br	0.056423	0.002029	0.170322
H172	H	-0.352601	-1.043427	-0.677834
H173	H	-0.019267	-0.710094	-0.344501
H174	H	0.314066	-0.376761	-0.011167
H175	H	-0.352587	-0.686847	-0.287305
H176	H	-0.019254	-0.353514	0.046028
H177	H	0.314079	-0.020181	0.379361
Br178	Br	-0.609829	-1.252843	-1.101629
Br179	Br	-0.276495	-0.919509	-0.768295
Br180	Br	0.056838	-0.586176	-0.434962
Br181	Br	-0.610263	-0.605022	-0.496341
Br182	Br	-0.276929	-0.271689	-0.163007
Br183	Br	0.056404	0.061644	0.170326
Br184	Br	-0.609907	-1.252787	-0.848786
Br185	Br	-0.276573	-0.919454	-0.515453
Br186	Br	0.056760	-0.586120	-0.182120
Br187	Br	-0.319036	-0.857831	-0.260080
Br188	Br	0.014297	-0.524497	0.073253
Br189	Br	0.347630	-0.191164	0.406586
Br190	Br	-0.609895	-1.252793	-0.908402
Br191	Br	-0.276562	-0.919459	-0.575068
Br192	Br	0.056772	-0.586126	-0.241735
Br193	Br	-0.610263	-0.411787	-0.496382
Br194	Br	-0.276930	-0.078454	-0.163048
Br195	Br	0.056404	0.254879	0.170285
Br196	Br	-0.609971	-1.252750	-0.655551
Br197	Br	-0.276637	-0.919416	-0.322218
Br198	Br	0.056696	-0.586083	0.011116
H199	H	-0.352560	-1.043449	-0.826561
H200	H	-0.019226	-0.710116	-0.493228
H201	H	0.314107	-0.376782	-0.159895
