data_functionalizedCrystal
_audit_creation_method	'MofGen! by Chris Wilmer'
_symmetry_space_group_name_H-M	'P1'
_symmetry_Int_Tables_number	1
_symmetry_cell_setting	triclinic
loop_
_symmetry_equiv_pos_as_xyz
  x,y,z
_cell_length_a	17.699097
_cell_length_b	16.776229
_cell_length_c	17.699083
_cell_angle_alpha	89.992455
_cell_angle_beta	83.285722
_cell_angle_gamma	89.989262
loop_
_atom_site_label
_atom_site_type_symbol
_atom_site_fract_x
_atom_site_fract_y
_atom_site_fract_z
O1	O	1.004072	-0.066356	0.095761
O2	O	1.504072	0.433644	0.595761
O3	O	0.783695	-0.066343	0.108203
O4	O	1.283695	0.433657	0.608203
O5	O	0.900110	-0.066343	-0.008207
O6	O	1.400110	0.433657	0.491793
O7	O	0.887657	-0.066356	0.212171
O8	O	1.387657	0.433644	0.712171
O9	O	0.900094	0.066234	-0.008214
O10	O	1.400094	0.566234	0.491786
O11	O	0.783680	0.066233	0.108196
O12	O	1.283680	0.566233	0.608196
O13	O	1.004057	0.066221	0.095754
O14	O	1.504057	0.566221	0.595754
Zn15	Zn	0.893866	0.087276	0.101974
Zn16	Zn	1.393866	0.587276	0.601974
Zn17	Zn	0.893886	-0.087399	0.101983
Zn18	Zn	1.393886	0.412601	0.601983
O19	O	0.887642	0.066220	0.212164
O20	O	1.387642	0.566220	0.712164
C21	C	0.755491	-0.000053	0.107752
C22	C	1.255491	0.499947	0.607752
C23	C	0.671473	-0.000048	0.106409
C24	C	1.171473	0.499952	0.606409
C25	C	0.155763	-0.072347	0.098184
C26	C	0.655763	0.427653	0.598184
C27	C	0.234707	-0.072343	0.099440
C28	C	0.734707	0.427657	0.599440
C29	C	0.274165	-0.000073	0.100065
C30	C	0.774165	0.499927	0.600065
C31	C	0.234675	0.072199	0.099427
C32	C	0.734675	0.572199	0.599427
C33	C	0.155733	0.072194	0.098165
C34	C	0.655733	0.572194	0.598165
C35	C	0.553039	0.072219	0.104514
C36	C	1.053039	0.572219	0.604514
C37	C	0.631987	0.072219	0.105778
C38	C	1.131987	0.572219	0.605778
C39	C	0.632013	-0.072318	0.105789
C40	C	1.132013	0.427682	0.605789
C41	C	0.553071	-0.072323	0.104527
C42	C	1.053071	0.427677	0.604527
C43	C	0.513589	-0.000052	0.103885
C44	C	1.013589	0.499948	0.603885
C45	C	0.427989	-0.000057	0.102521
C46	C	0.927989	0.499943	0.602521
C47	C	0.359763	-0.000067	0.101434
C48	C	0.859763	0.499933	0.601434
C49	C	0.899656	-0.000055	-0.036408
C50	C	1.399656	0.499945	0.463592
C51	C	0.898317	-0.000054	-0.120426
C52	C	1.398317	0.499946	0.379574
C53	C	1.032261	-0.000071	0.096205
C54	C	1.532261	0.499929	0.596205
C55	C	1.116279	-0.000081	0.097547
C56	C	1.616279	0.499919	0.597547
N57	N	0.893857	0.206488	0.101967
N58	N	1.393857	0.706488	0.601967
N59	N	0.893900	-0.206610	0.101984
N60	N	1.393900	0.293390	0.601984
C61	C	0.945422	0.248205	0.050441
C62	C	1.445422	0.748205	0.550441
C63	C	0.945426	0.331657	0.050441
C64	C	1.445426	0.831657	0.550441
C65	C	0.893869	0.373390	0.101970
C66	C	1.393869	0.873390	0.601970
C67	C	0.842299	0.331667	0.153497
C68	C	1.342299	0.831667	0.653497
C69	C	0.842292	0.248217	0.153494
C70	C	1.342292	0.748217	0.653494
C71	C	0.842327	0.668215	0.153512
C72	C	1.342327	1.168215	0.653512
C73	C	0.842339	0.751671	0.153513
C74	C	1.342339	1.251671	0.653513
C75	C	0.945460	0.751655	0.050459
C76	C	1.445460	1.251655	0.550459
C77	C	0.945453	0.668204	0.050456
C78	C	1.445453	1.168204	0.550456
C79	C	0.893881	0.626488	0.101980
C80	C	1.393881	1.126488	0.601980
C81	C	0.893876	0.536000	0.101979
C82	C	1.393876	1.036000	0.601979
C83	C	0.893877	0.463877	0.101975
C84	C	1.393877	0.963877	0.601975
C85	C	0.966650	-0.000057	-0.169044
C86	C	1.466650	0.499943	0.330956
C87	C	0.965388	-0.000064	-0.247987
C88	C	1.465388	0.499936	0.252013
C89	C	0.895792	-0.000062	-0.278311
C90	C	1.395792	0.499938	0.221689
C91	C	0.827454	-0.000062	-0.229687
C92	C	1.327454	0.499938	0.270313
C93	C	0.828717	-0.000061	-0.150745
C94	C	1.328717	0.499939	0.349255
C95	C	0.822359	-0.000068	-0.548050
C96	C	1.322359	0.499932	-0.048050
C97	C	0.821101	-0.000067	-0.626998
C98	C	1.321101	0.499933	-0.126998
C99	C	0.959030	-0.000071	-0.645292
C100	C	1.459030	0.499929	-0.145292
C101	C	0.960293	-0.000070	-0.566350
C102	C	1.460293	0.499930	-0.066350
C103	C	0.891955	-0.000074	-0.517733
C104	C	1.391955	0.499926	-0.017733
C105	C	0.893325	-0.000068	-0.432134
C106	C	1.393325	0.499932	0.067866
C107	C	0.894422	-0.000063	-0.363909
C108	C	1.394422	0.499937	0.136091
C109	C	0.888096	-0.000070	0.240364
C110	C	1.388096	0.499930	0.740364
C111	C	0.889435	-0.000076	0.324382
C112	C	1.389435	0.499924	0.824382
H113	H	0.123585	0.131040	0.097655
H114	H	0.623585	0.631040	0.597655
H115	H	1.021032	-0.000065	-0.287569
H116	H	1.521032	0.499935	0.212431
F117	F	1.000305	0.376056	-0.004399
F118	F	1.500305	0.876056	0.495601
F119	F	1.000346	0.796058	-0.004381
F120	F	1.500346	1.296058	0.495619
H121	H	1.016965	-0.000067	-0.541665
H122	H	1.516965	0.499933	-0.041665
F123	F	1.031762	-0.000070	-0.697040
F124	F	1.531762	0.499930	-0.197040
H125	H	0.773073	-0.000059	-0.111161
H126	H	1.273073	0.499941	0.388839
F127	F	1.000300	0.203797	-0.004400
F128	F	1.500300	0.703797	0.495600
F129	F	0.113776	-0.149269	0.097523
F130	F	0.613776	0.350731	0.597523
F131	F	0.787408	0.203819	0.208332
F132	F	1.287408	0.703819	0.708332
F133	F	1.000329	0.623792	-0.004385
F134	F	1.500329	1.123792	0.495615
H135	H	0.764424	-0.000064	-0.651685
H136	H	1.264424	0.499936	-0.151685
H137	H	0.766714	-0.000071	-0.508475
H138	H	1.266714	0.499929	-0.008475
H139	H	0.520904	0.131067	0.103980
H140	H	1.020904	0.631067	0.603980
F141	F	0.276727	-0.149259	0.100114
F142	F	0.776727	0.350741	0.600114
F143	F	0.276671	0.149115	0.100090
F144	F	0.776671	0.649115	0.600090
F145	F	0.787462	0.796085	0.208359
F146	F	1.287462	1.296085	0.708359
F147	F	0.753384	-0.000069	-0.261962
F148	F	1.253384	0.499931	0.238038
H149	H	0.520948	-0.131173	0.104022
H150	H	1.020948	0.368827	0.604022
F151	F	1.040725	-0.000051	-0.136778
F152	F	1.540725	0.499949	0.363222
H153	H	0.800336	0.634256	0.195466
H154	H	1.300336	1.134256	0.695466
F155	F	0.787424	0.376084	0.208335
F156	F	1.287424	0.876084	0.708335
F157	F	0.674040	-0.149236	0.106468
F158	F	1.174040	0.350764	0.606468
H159	H	0.664111	0.131074	0.106287
H160	H	1.164111	0.631074	0.606287
