data_functionalizedCrystal
_audit_creation_method	'MofGen! by Chris Wilmer'
_symmetry_space_group_name_H-M	'P1'
_symmetry_Int_Tables_number	1
_symmetry_cell_setting	triclinic
loop_
_symmetry_equiv_pos_as_xyz
  x,y,z
_cell_length_a	29.839131
_cell_length_b	12.645331
_cell_length_c	12.645323
_cell_angle_alpha	89.973618
_cell_angle_beta	90.032712
_cell_angle_gamma	89.964326
loop_
_atom_site_label
_atom_site_type_symbol
_atom_site_fract_x
_atom_site_fract_y
_atom_site_fract_z
Zn1	Zn	-0.178919	-1.620556	0.599493
Zn2	Zn	0.321081	-1.120556	1.099493
Zn3	Zn	-0.254050	-1.620365	0.422209
Zn4	Zn	0.245950	-1.120365	0.922209
Zn5	Zn	-0.178928	-1.443271	0.422226
Zn6	Zn	0.321072	-0.943271	0.922226
Zn7	Zn	-0.254015	-1.443179	0.599413
Zn8	Zn	0.245985	-0.943179	1.099413
O9	O	-0.216478	-1.531843	0.510835
O10	O	0.283522	-1.031843	1.010835
O11	O	-0.188896	-1.768878	0.576002
O12	O	0.311104	-1.268878	1.076002
O13	O	-0.244104	-1.596831	0.273864
O14	O	0.255896	-1.096831	0.773864
O15	O	-0.116059	-1.466907	0.445782
O16	O	0.383941	-0.966907	0.945782
O17	O	-0.244095	-1.768737	0.445753
O18	O	0.255905	-1.268737	0.945753
O19	O	-0.116053	-1.597158	0.576019
O20	O	0.383947	-1.097158	1.076019
O21	O	-0.188911	-1.466721	0.273876
O22	O	0.311089	-0.966721	0.773876
O23	O	-0.188877	-1.294912	0.445704
O24	O	0.311123	-0.794912	0.945704
O25	O	-0.244035	-1.466751	0.747771
O26	O	0.255965	-0.966751	1.247771
O27	O	-0.244043	-1.294844	0.575882
O28	O	0.255957	-0.794844	1.075882
O29	O	-0.188862	-1.597069	0.747830
O30	O	0.311138	-1.097069	1.247830
O31	O	-0.316913	-1.596742	0.445675
O32	O	0.183087	-1.096742	0.945675
O33	O	-0.316887	-1.466565	0.575866
O34	O	0.183113	-0.966565	1.075866
C35	C	-0.216458	-1.256413	0.510787
C36	C	0.283542	-0.756413	1.010787
C37	C	-0.216460	-1.138583	0.510791
C38	C	0.283540	-0.638583	1.010791
C39	C	-0.181589	-0.971026	0.429337
C40	C	0.318411	-0.471026	0.929337
C41	C	-0.181684	-1.093586	0.428986
C42	C	0.318316	-0.593586	0.928986
C43	C	-0.263784	-1.094017	0.480258
C44	C	0.236216	-0.594017	0.980258
C45	C	-0.263589	-0.971418	0.479695
C46	C	0.236411	-0.471418	0.979695
C47	C	-0.204443	-0.971445	0.623068
C48	C	0.295557	-0.471445	1.123068
C49	C	-0.203390	-1.094052	0.622453
C50	C	0.296610	-0.594052	1.122453
C51	C	-0.333200	-1.531651	0.510783
C52	C	0.166800	-1.031651	1.010783
C53	C	-0.383135	-1.531667	0.510796
C54	C	0.116865	-1.031667	1.010796
C55	C	-0.692779	-1.599749	0.443144
C56	C	-0.192779	-1.099749	0.943144
C57	C	-0.880452	-1.599880	0.443185
C58	C	-0.380452	-1.099880	0.943185
O59	O	-0.904718	-1.657615	0.385625
O60	O	-0.404718	-1.157615	0.885625
N61	N	-0.903920	-1.532063	0.510915
N62	N	-0.403920	-1.032063	1.010915
C63	C	-0.880466	-1.464212	0.578645
C64	C	-0.380466	-0.964212	1.078645
O65	O	-0.904733	-1.406540	0.636262
O66	O	-0.404733	-0.906540	1.136262
C67	C	-0.692794	-1.464088	0.578608
C68	C	-0.192794	-0.964088	1.078608
C69	C	-0.669329	-1.531902	0.510866
C70	C	-0.169329	-1.031902	1.010866
C71	C	-0.669314	-1.667559	0.375408
C72	C	-0.169314	-1.167559	0.875408
C73	C	-0.622398	-1.667522	0.375394
C74	C	-0.122398	-1.167522	0.875394
C75	C	-0.598948	-1.599674	0.443117
C76	C	-0.098948	-1.099674	0.943117
C77	C	-0.622414	-1.531865	0.510852
C78	C	-0.122414	-1.031865	1.010852
C79	C	-0.669342	-1.396244	0.646342
C80	C	-0.169342	-0.896244	1.146342
C81	C	-0.622421	-1.396220	0.646329
C82	C	-0.122421	-0.896220	1.146329
C83	C	-0.598955	-1.464035	0.578587
C84	C	-0.098955	-0.964035	1.078587
C85	C	-0.552048	-1.463980	0.578561
C86	C	-0.052048	-0.963980	1.078561
N87	N	-0.528580	-1.531798	0.510831
N88	N	-0.028580	-1.031798	1.010831
C89	C	-0.552030	-1.599645	0.443109
C90	C	-0.052030	-1.099645	0.943109
C91	C	-0.978997	-1.464281	0.578658
C92	C	-0.478997	-0.964281	1.078658
C93	C	-1.025915	-1.464311	0.578666
C94	C	-0.525915	-0.964311	1.078666
C95	C	-1.025897	-1.599980	0.443207
C96	C	-0.525897	-1.099980	0.943207
C97	C	-0.978979	-1.599945	0.443195
C98	C	-0.478979	-1.099945	0.943195
C99	C	-0.955529	-1.532099	0.510928
C100	C	-0.455529	-1.032099	1.010928
C101	C	-0.453505	-1.599560	0.443084
C102	C	0.046495	-1.099560	0.943084
C103	C	-0.406585	-1.599514	0.443074
C104	C	0.093415	-1.099514	0.943074
C105	C	-0.406607	-1.463849	0.578536
C106	C	0.093393	-0.963849	1.078536
C107	C	-0.453522	-1.463891	0.578543
C108	C	0.046478	-0.963891	1.078543
C109	C	-0.476970	-1.531755	0.510814
C110	C	0.023030	-1.031755	1.010814
O111	O	-0.527753	-1.406284	0.636100
O112	O	-0.027753	-0.906284	1.136100
O113	O	-0.527755	-1.657325	0.385516
O114	O	-0.027755	-1.157325	0.885516
C115	C	-0.739695	-1.599787	0.443158
C116	C	-0.239695	-1.099787	0.943158
C117	C	-0.763160	-1.531977	0.510893
C118	C	-0.263160	-1.031977	1.010893
C119	C	-0.739710	-1.464130	0.578616
C120	C	-0.239710	-0.964130	1.078616
C121	C	-0.810078	-1.532007	0.510901
C122	C	-0.310078	-1.032007	1.010901
C123	C	-0.833528	-1.599854	0.443179
C124	C	-0.333528	-1.099854	0.943179
C125	C	-0.810060	-1.667672	0.375449
C126	C	-0.310060	-1.167672	0.875449
C127	C	-0.763145	-1.667634	0.375435
C128	C	-0.263145	-1.167634	0.875435
C129	C	-0.763177	-1.396312	0.646346
C130	C	-0.263177	-0.896312	1.146346
C131	C	-0.810093	-1.396354	0.646353
C132	C	-0.310093	-0.896354	1.146353
C133	C	-0.833543	-1.464202	0.578631
C134	C	-0.333543	-0.964202	1.078631
C135	C	-0.099299	-1.532064	0.510911
C136	C	0.400701	-1.032064	1.010911
C137	C	-0.049365	-1.532158	0.510944
C138	C	0.450635	-1.032158	1.010944
C139	C	-0.216443	-1.531921	0.787341
C140	C	0.283557	-1.031921	1.287341
C141	C	-0.216428	-1.531954	0.905171
C142	C	0.283572	-1.031954	1.405171
C143	C	-0.216490	-0.808348	0.510868
C144	C	0.283510	-0.308348	1.010868
C145	C	-0.216472	-0.926178	0.510841
C146	C	0.283528	-0.426178	1.010841
C147	C	-0.216480	-1.531826	0.235406
C148	C	0.283520	-1.031826	0.735406
C149	C	-0.216368	-1.531998	0.117576
C150	C	0.283632	-1.031998	0.617576
C151	C	-0.250974	-1.449718	1.072698
C152	C	0.249026	-0.949718	1.572698
C153	C	-0.251145	-1.449933	0.950138
C154	C	0.248855	-0.949933	1.450138
C155	C	-0.229282	-1.643641	0.949694
C156	C	0.270718	-1.143641	1.449694
C157	C	-0.229498	-1.643190	1.072292
C158	C	0.270502	-1.143190	1.572292
C159	C	-0.168836	-1.503559	1.072382
C160	C	0.331164	-1.003559	1.572382
C161	C	-0.169121	-1.501067	0.949776
C162	C	0.330879	-1.001067	1.449776
H163	H	-0.273790	-0.942763	0.397650
H164	H	0.226210	-0.442763	0.897650
H165	H	-1.045016	-1.409080	0.633818
H166	H	-0.545016	-0.909080	1.133818
F167	F	-0.381641	-1.391647	0.650610
F168	F	0.118359	-0.891647	1.150610
F169	F	-0.381614	-1.671694	0.370969
F170	F	0.118386	-1.171694	0.870969
F171	F	-0.135136	-1.581890	1.110319
F172	F	0.364864	-1.081890	1.610319
H173	H	-0.146591	-1.123721	0.448126
H174	H	0.353409	-0.623721	0.948126
F175	F	-0.298712	-0.932633	0.553896
F176	F	0.201288	-0.432633	1.053896
F177	F	-0.298667	-1.132097	0.555425
F178	F	0.201333	-0.632097	1.055425
F179	F	-0.694264	-1.739780	0.303324
F180	F	-0.194264	-1.239780	0.803324
H181	H	-0.959908	-1.409030	0.633816
H182	H	-0.459908	-0.909030	1.133816
F183	F	-0.240560	-1.341139	1.111208
F184	F	0.259440	-0.841139	1.611208
F185	F	-0.240629	-1.341682	0.910786
F186	F	0.259371	-0.841682	1.410786
H187	H	-0.274162	-1.124662	0.399099
H188	H	0.225838	-0.624662	0.899099
F189	F	-0.197964	-1.725989	1.111103
F190	F	0.302036	-1.225989	1.611103
F191	F	-0.296739	-1.473963	1.113028
F192	F	0.203261	-0.973963	1.613028
H193	H	-0.603330	-1.340973	0.701489
H194	H	-0.103330	-0.840973	1.201489
F195	F	-0.157874	-1.132151	0.652557
F196	F	0.342126	-0.632151	1.152557
F197	F	-0.297198	-1.474517	0.911804
F198	F	0.202802	-0.974517	1.411804
H199	H	-0.170535	-0.940582	0.650829
H200	H	0.329465	-0.440582	1.150829
F201	F	-0.135578	-0.932561	0.454078
F202	F	0.364422	-0.432561	0.954078
F203	F	-0.192076	-1.131849	0.320288
F204	F	0.307924	-0.631849	0.820288
F205	F	-0.274915	-1.674703	1.109679
F206	F	0.225085	-1.174703	1.609679
F207	F	-0.197379	-1.725920	0.911631
F208	F	0.302621	-1.225920	1.411631
H209	H	-0.141975	-1.556621	0.919167
H210	H	0.358025	-1.056621	1.419167
H211	H	-0.263664	-1.668166	0.918996
H212	H	0.236336	-1.168166	1.418996
H213	H	-0.157121	-1.423538	1.103285
H214	H	0.342879	-0.923538	1.603285
F215	F	-0.156453	-1.393631	0.911750
F216	F	0.343547	-0.893631	1.411750
F217	F	-1.050863	-1.672186	0.371129
F218	F	-0.550863	-1.172186	0.871129
H219	H	-0.688439	-1.341017	0.701501
H220	H	-0.188439	-0.841017	1.201501
H221	H	-0.189451	-0.940171	0.346662
H222	H	0.310549	-0.440171	0.846662
H223	H	-0.744043	-1.722855	0.320274
H224	H	-0.244043	-1.222855	0.820274
H225	H	-0.226947	-1.124687	0.686433
H226	H	0.273053	-0.624687	1.186433
H227	H	-0.829162	-1.722912	0.320304
H228	H	-0.329162	-1.222912	0.820304
F229	F	-0.835061	-1.324169	0.718456
F230	F	-0.335061	-0.824169	1.218456
H231	H	-0.959876	-1.655165	0.388034
H232	H	-0.459876	-1.155165	0.888034
H233	H	-0.229851	-0.942442	0.683796
H234	H	0.270149	-0.442442	1.183796
F235	F	-0.478453	-1.671789	0.370999
F236	F	0.021547	-1.171789	0.870999
H237	H	-0.472628	-1.408674	0.633707
H238	H	0.027372	-0.908674	1.133707
F239	F	-0.738226	-1.324097	0.718430
F240	F	-0.238226	-0.824097	1.218430
F241	F	-0.597431	-1.739712	0.303305
F242	F	-0.097431	-1.239712	0.803305
