data_functionalizedCrystal
_audit_creation_method	'MofGen! by Chris Wilmer'
_symmetry_space_group_name_H-M	'P1'
_symmetry_Int_Tables_number	1
_symmetry_cell_setting	triclinic
loop_
_symmetry_equiv_pos_as_xyz
  x,y,z
_cell_length_a	10.654562
_cell_length_b	9.730223
_cell_length_c	10.654550
_cell_angle_alpha	89.999807
_cell_angle_beta	95.512497
_cell_angle_gamma	90.003039
loop_
_atom_site_label
_atom_site_type_symbol
_atom_site_fract_x
_atom_site_fract_y
_atom_site_fract_z
O1	O	1.667825	0.114377	-0.176469
O2	O	1.302348	0.114359	-0.193259
O3	O	1.493489	0.114363	-0.002125
O4	O	1.476683	0.114373	-0.367603
O5	O	1.493487	-0.114217	-0.002130
O6	O	1.302346	-0.114221	-0.193264
O7	O	1.667822	-0.114203	-0.176474
Zn8	Zn	1.485084	-0.150504	-0.184870
Zn9	Zn	1.485087	0.150660	-0.184863
O10	O	1.476681	-0.114207	-0.367608
C11	C	1.255549	0.000067	-0.192025
C12	C	1.116107	0.000060	-0.188327
N13	N	1.485091	-0.356040	-0.184873
C14	C	1.569750	-0.427965	-0.100268
C15	C	1.569747	-0.571848	-0.100253
C16	C	1.400421	-0.571869	-0.269459
C17	C	1.400419	-0.427989	-0.269467
C18	C	1.654422	-0.356016	-0.015674
C19	C	1.739089	-0.427940	0.068937
C20	C	1.739086	-0.571823	0.068952
C21	C	1.654415	-0.643782	-0.015644
C22	C	1.050575	-0.124528	-0.186604
C23	C	0.919553	-0.124505	-0.183139
C24	C	0.919605	0.124705	-0.183125
C25	C	1.050626	0.124681	-0.186581
C26	C	1.116056	-0.249149	-0.188351
C27	C	1.050524	-0.373747	-0.186630
C28	C	0.919501	-0.373724	-0.183165
C29	C	0.854011	-0.249103	-0.181421
C30	C	1.714621	0.000092	-0.177708
C31	C	1.854064	0.000108	-0.181406
C32	C	1.492254	0.000075	0.044671
C33	C	1.488563	0.000079	0.184114
N34	N	1.485089	0.356196	-0.184850
C35	C	1.477916	0.000084	-0.414403
C36	C	1.481608	0.000088	-0.553847
C37	C	1.601103	0.000081	0.263595
C38	C	1.597627	0.000090	0.394615
C39	C	1.369059	0.000091	0.366662
C40	C	1.372537	0.000092	0.235644
C41	C	1.717129	0.000068	0.212064
C42	C	1.829680	0.000068	0.291546
C43	C	1.826203	0.000077	0.422567
C44	C	1.710176	0.000087	0.474106
H45	H	1.654435	-0.238859	-0.015682
H46	H	1.707355	0.000110	0.580794
H47	H	0.866272	0.226166	-0.181708
C48	C	0.847419	-0.510773	-0.181269
H49	H	0.905185	-0.584990	-0.182814
H50	H	0.805236	-0.515956	-0.106813
H51	H	0.787378	-0.515933	-0.253040
C52	C	1.122557	-0.510818	-0.188545
H53	H	1.209972	-0.492991	-0.190867
H54	H	1.110008	-0.562019	-0.114873
H55	H	1.092138	-0.562002	-0.261099
H56	H	1.331481	-0.369428	-0.338359
H57	H	1.222740	-0.249181	-0.191176
C58	C	1.949999	0.000080	0.509993
H59	H	2.019593	0.000063	0.460534
H60	H	1.953405	0.079791	0.561685
H61	H	1.953385	-0.079641	0.561683
H62	H	1.331487	-0.630467	-0.338334
C63	C	0.709890	-0.249079	-0.177607
H64	H	0.680237	-0.341129	-0.176835
H65	H	0.689189	-0.203056	-0.103716
H66	H	0.671330	-0.203056	-0.249943
C67	C	1.122715	0.261725	-0.188486
H68	H	1.064952	0.335948	-0.186971
H69	H	1.182759	0.266893	-0.116728
H70	H	1.164893	0.266890	-0.262954
H71	H	1.808016	-0.630383	0.137853
C72	C	1.720958	0.000066	0.067947
H73	H	1.806175	0.000069	0.048638
H74	H	1.679528	-0.079642	0.033146
H75	H	1.679548	0.079790	0.033148
H76	H	1.924144	0.000094	0.249574
C77	C	1.241442	0.000085	0.423354
H78	H	1.255490	0.000071	0.512767
H79	H	1.195052	0.079792	0.396143
H80	H	1.195060	-0.079639	0.396138
H81	H	1.280896	0.000089	0.170928
H82	H	1.808018	-0.369344	0.137819
C83	C	1.654403	-0.802050	-0.015626
H84	H	1.591851	-0.834600	-0.078121
H85	H	1.734816	-0.834604	-0.033559
H86	H	1.636511	-0.834585	0.064816
