data_functionalizedCrystal
_audit_creation_method	'MofGen! by Chris Wilmer'
_symmetry_space_group_name_H-M	'P1'
_symmetry_Int_Tables_number	1
_symmetry_cell_setting	triclinic
loop_
_symmetry_equiv_pos_as_xyz
  x,y,z
_cell_length_a	19.121102
_cell_length_b	19.121111
_cell_length_c	19.120915
_cell_angle_alpha	85.259367
_cell_angle_beta	90.090244
_cell_angle_gamma	89.871671
loop_
_atom_site_label
_atom_site_type_symbol
_atom_site_fract_x
_atom_site_fract_y
_atom_site_fract_z
Zn1	Zn	1.039554	0.343482	-0.456049
Zn2	Zn	1.539554	0.843482	0.043951
Zn3	Zn	1.039469	0.456131	-0.343401
Zn4	Zn	1.539469	0.956131	0.156599
Zn5	Zn	0.927772	0.333500	-0.333427
Zn6	Zn	1.427772	0.833500	0.166573
Zn7	Zn	0.917297	0.455653	-0.455583
Zn8	Zn	1.417297	0.955653	0.044417
O9	O	0.981023	0.397192	-0.397115
O10	O	1.481023	0.897192	0.102885
O11	O	1.137454	0.362803	-0.445475
O12	O	1.637454	0.862803	0.054525
O13	O	1.029000	0.435887	-0.243811
O14	O	1.529000	0.935887	0.256189
O15	O	0.947019	0.236559	-0.345714
O16	O	1.447019	0.736559	0.154286
O17	O	1.137391	0.445565	-0.362713
O18	O	1.637391	0.945565	0.137287
O19	O	1.029145	0.243893	-0.435804
O20	O	1.529145	0.743893	0.064196
O21	O	0.946937	0.345790	-0.236483
O22	O	1.446937	0.845790	0.263517
O23	O	0.828472	0.345327	-0.345262
O24	O	1.328472	0.845327	0.154738
O25	O	0.929167	0.444751	-0.553912
O26	O	1.429167	0.944751	-0.053912
O27	O	0.820776	0.435072	-0.435010
O28	O	1.320776	0.935072	0.064990
O29	O	1.018989	0.362339	-0.554254
O30	O	1.518989	0.862339	-0.054254
O31	O	1.018843	0.554333	-0.362261
O32	O	1.518843	1.054333	0.137739
O33	O	0.929084	0.553982	-0.444681
O34	O	1.429084	1.053982	0.055319
C35	C	0.799237	0.389065	-0.389004
C36	C	1.299237	0.889065	0.110996
C37	C	0.721466	0.385606	-0.385551
C38	C	1.221466	0.885606	0.114449
C39	C	0.972836	0.579638	-0.404519
C40	C	1.472836	1.079638	0.095481
C41	C	0.969397	0.657694	-0.407712
C42	C	1.469397	1.157694	0.092288
C43	C	0.680941	0.430771	-0.430588
C44	C	1.180941	0.930771	0.069412
C45	C	0.607868	0.427512	-0.427347
C46	C	1.107868	0.927512	0.072653
C47	C	0.575321	0.379090	-0.379065
C48	C	1.075321	0.879090	0.120935
C49	C	0.615851	0.333920	-0.334026
C50	C	1.115851	0.833920	0.165974
C51	C	0.688923	0.337176	-0.337271
C52	C	1.188923	0.837176	0.162729
C53	C	0.354890	0.366914	-0.366935
C54	C	0.854890	0.866914	0.133065
C55	C	0.281813	0.363662	-0.363692
C56	C	0.781813	0.863662	0.136308
C57	C	0.273835	0.457254	-0.457014
C58	C	0.773835	0.957254	0.042986
C59	C	0.346909	0.460509	-0.460252
C60	C	0.846909	0.960509	0.039748
C61	C	0.387432	0.415336	-0.415216
C62	C	0.887432	0.915336	0.084784
C63	C	0.500628	0.375759	-0.375749
C64	C	1.000628	0.875759	0.124251
C65	C	0.462124	0.418664	-0.418535
C66	C	0.962124	0.918664	0.081465
C67	C	1.014547	0.694527	-0.366340
C68	C	1.514547	1.194527	0.133660
C69	C	1.011316	0.767868	-0.369348
C70	C	1.511316	1.267868	0.130652
C71	C	0.962931	0.804375	-0.413725
C72	C	1.462931	1.304375	0.086275
C73	C	0.917779	0.767537	-0.455102
C74	C	1.417779	1.267537	0.044898
C75	C	0.921014	0.694197	-0.452098
C76	C	1.421014	1.194197	0.047902
C77	C	0.950828	1.025806	-0.424946
C78	C	1.450828	1.525806	0.075054
C79	C	0.947596	1.099151	-0.427946
C80	C	1.447596	1.599151	0.072054
C81	C	1.041133	1.099477	-0.342192
C82	C	1.541133	1.599477	0.157808
C83	C	1.044361	1.026136	-0.339188
C84	C	1.544361	1.526136	0.160812
C85	C	0.999212	0.989304	-0.380568
C86	C	1.499212	1.489304	0.119432
C87	C	0.959626	0.879342	-0.416799
C88	C	1.459626	1.379342	0.083201
C89	C	1.002520	0.914339	-0.377497
C90	C	1.502520	1.414339	0.122503
C91	C	1.163519	0.405351	-0.405259
C92	C	1.663519	0.905351	0.094741
C93	C	1.241288	0.408828	-0.408729
C94	C	1.741288	0.908828	0.091271
C95	C	0.972919	0.404605	-0.580275
C96	C	1.472919	0.904605	-0.080275
C97	C	0.969466	0.407765	-0.658327
C98	C	1.469466	0.907765	-0.158327
C99	C	0.989254	1.214034	-0.389707
C100	C	1.489254	1.714034	0.110293
C101	C	0.992746	1.135984	-0.386573
C102	C	1.492746	1.635984	0.113427
C103	C	0.947593	0.427824	-1.099765
C104	C	1.447593	0.927824	-0.599765
C105	C	0.950835	0.424845	-1.026426
C106	C	1.450835	0.924845	-0.526426
C107	C	0.999225	0.380453	-0.989939
C108	C	1.499225	0.880453	-0.489939
C109	C	1.044371	0.339031	-1.026794
C110	C	1.544371	0.839031	-0.526794
C111	C	1.041124	0.342007	-1.100131
C112	C	1.541124	0.842007	-0.600131
C113	C	1.011364	0.369319	-0.768518
C114	C	1.511364	0.869319	-0.268518
C115	C	1.014609	0.366348	-0.695176
C116	C	1.514609	0.866348	-0.195176
C117	C	0.921072	0.452161	-0.694814
C118	C	1.421072	0.952161	-0.194814
C119	C	0.917833	0.455136	-0.768152
C120	C	1.417833	0.955136	-0.268152
C121	C	0.962976	0.413712	-0.805000
C122	C	1.462976	0.913712	-0.305000
C123	C	1.002542	0.377408	-0.914975
C124	C	1.502542	0.877408	-0.414975
C125	C	0.959655	0.416753	-0.879962
C126	C	1.459655	0.916753	-0.379962
C127	C	0.989138	0.389758	-0.214668
C128	C	1.489138	0.889758	0.285332
C129	C	0.992736	0.386407	-0.136614
C130	C	1.492736	0.886407	0.363386
H131	H	0.707436	0.470204	-0.469902
H132	H	1.207436	0.970204	0.030098
Cl133	Cl	1.068151	0.317280	-0.814835
Cl134	Cl	1.568151	0.817280	-0.314835
H135	H	0.373403	0.499940	-0.499567
H136	H	0.873403	0.999940	0.000433
Cl137	Cl	0.574935	0.273042	-0.273332
Cl138	Cl	1.074935	0.773042	0.226668
Cl139	Cl	0.459706	0.314888	-0.315053
Cl140	Cl	0.959706	0.814888	0.184947
Cl141	Cl	1.063355	0.321582	-0.869098
Cl142	Cl	1.563355	0.821582	-0.369098
H143	H	0.914065	0.995823	-0.458637
H144	H	1.414065	1.495823	0.041363
Cl145	Cl	0.739869	0.280393	-0.280652
Cl146	Cl	1.239869	0.780393	0.219348
H147	H	1.083760	0.996413	-0.303052
H148	H	1.583760	1.496413	0.196948
H149	H	0.908191	0.463977	-1.129467
H150	H	1.408191	0.963977	-0.629467
Cl151	Cl	0.240898	0.302790	-0.302985
Cl152	Cl	0.740898	0.802790	0.197015
Cl153	Cl	0.222887	0.514039	-0.513626
Cl154	Cl	0.722887	1.014039	-0.013626
H155	H	0.574876	0.464291	-0.464020
H156	H	1.074876	0.964291	0.035980
Cl157	Cl	0.886756	1.145044	-0.483729
Cl158	Cl	1.386756	1.645044	0.016271
H159	H	0.488627	0.458086	-0.457849
H160	H	0.988627	0.958086	0.042151
Cl161	Cl	1.105188	0.283205	-0.980923
Cl162	Cl	1.605188	0.783205	-0.480923
H163	H	1.048081	0.797854	-0.335657
H164	H	1.548081	1.297854	0.164343
H165	H	1.053944	0.664807	-0.330200
H166	H	1.553944	1.164807	0.169800
Cl167	Cl	1.097893	1.145784	-0.290180
Cl168	Cl	1.597893	1.645784	0.209820
Cl169	Cl	0.856956	0.813432	-0.510895
Cl170	Cl	1.356956	1.313432	-0.010895
H171	H	1.041918	0.884613	-0.341368
H172	H	1.541918	1.384613	0.158632
Cl173	Cl	0.864254	0.647893	-0.504114
Cl174	Cl	1.364254	1.147893	-0.004114
H175	H	0.387876	0.330136	-0.330258
H176	H	0.887876	0.830136	0.169742
H177	H	0.920230	0.909073	-0.452930
H178	H	1.420230	1.409073	0.047070
Cl179	Cl	1.097870	0.289928	-1.146455
Cl180	Cl	1.597870	0.789928	-0.646455
H181	H	0.878429	0.491286	-0.797855
H182	H	1.378429	0.991286	-0.297855
Cl183	Cl	0.898822	0.472556	-0.925832
Cl184	Cl	1.398822	0.972556	-0.425832
H185	H	0.914082	0.458579	-0.996427
H186	H	1.414082	0.958579	-0.496427
H187	H	0.884319	0.485886	-0.664804
H188	H	1.384319	0.985886	-0.164804
Cl189	Cl	1.075448	0.310537	-0.649308
Cl190	Cl	1.575448	0.810537	-0.149308
