data_functionalizedCrystal
_audit_creation_method	'MofGen! by Chris Wilmer'
_symmetry_space_group_name_H-M	'P1'
_symmetry_Int_Tables_number	1
_symmetry_cell_setting	triclinic
loop_
_symmetry_equiv_pos_as_xyz
  x,y,z
_cell_length_a	12.594516
_cell_length_b	16.625547
_cell_length_c	16.625539
_cell_angle_alpha	89.972942
_cell_angle_beta	90.023327
_cell_angle_gamma	89.984761
loop_
_atom_site_label
_atom_site_type_symbol
_atom_site_fract_x
_atom_site_fract_y
_atom_site_fract_z
Zn1	Zn	-0.423763	-1.232716	0.456077
Zn2	Zn	-0.090430	-0.899383	0.789410
Zn3	Zn	0.242903	-0.566050	1.122744
Zn4	Zn	-0.601765	-1.232635	0.321256
Zn5	Zn	-0.268431	-0.899301	0.654589
Zn6	Zn	0.064902	-0.565968	0.987922
Zn7	Zn	-0.423798	-1.097878	0.321242
Zn8	Zn	-0.090465	-0.764545	0.654575
Zn9	Zn	0.242869	-0.431212	0.987909
Zn10	Zn	-0.601698	-1.097864	0.456030
Zn11	Zn	-0.268364	-0.764530	0.789364
Zn12	Zn	0.064969	-0.431197	1.122697
O13	O	-0.512756	-1.165273	0.388651
O14	O	-0.179422	-0.831940	0.721985
O15	O	0.153911	-0.498607	1.055318
O16	O	-0.447389	-1.345538	0.438218
O17	O	-0.114056	-1.012205	0.771551
O18	O	0.219278	-0.678871	1.104884
O19	O	-0.578199	-1.214731	0.208422
O20	O	-0.244866	-0.881398	0.541755
O21	O	0.088467	-0.548064	0.875088
O22	O	-0.274848	-1.115805	0.339142
O23	O	0.058486	-0.782472	0.672475
O24	O	0.391819	-0.449138	1.005809
O25	O	-0.578166	-1.345478	0.339165
O26	O	-0.244832	-1.012145	0.672499
O27	O	0.088501	-0.678811	1.005832
O28	O	-0.274822	-1.214870	0.438204
O29	O	0.058511	-0.881537	0.771538
O30	O	0.391845	-0.548203	1.104871
O31	O	-0.447448	-1.115726	0.208411
O32	O	-0.114115	-0.782393	0.541745
O33	O	0.219219	-0.449059	0.875078
O34	O	-0.447383	-0.985044	0.339097
O35	O	-0.114050	-0.651711	0.672430
O36	O	0.219283	-0.318377	1.005764
O37	O	-0.578052	-1.115780	0.568869
O38	O	-0.244718	-0.782447	0.902202
O39	O	0.088615	-0.449114	1.235536
O40	O	-0.578085	-0.985033	0.438125
O41	O	-0.244752	-0.651700	0.771459
O42	O	0.088581	-0.318367	1.104792
O43	O	-0.447324	-1.214856	0.568903
O44	O	-0.113991	-0.881523	0.902236
O45	O	0.219343	-0.548189	1.235570
O46	O	-0.750701	-1.214717	0.339120
O47	O	-0.417368	-0.881384	0.672454
O48	O	-0.084035	-0.548050	1.005787
O49	O	-0.750652	-1.115701	0.438139
O50	O	-0.417319	-0.782368	0.771472
O51	O	-0.083986	-0.449035	1.104805
C52	C	-0.512732	-0.955782	0.388605
C53	C	-0.179398	-0.622449	0.721938
C54	C	0.153935	-0.289116	1.055272
C55	C	-0.512747	-0.866161	0.388604
C56	C	-0.179413	-0.532828	0.721938
C57	C	0.153920	-0.199495	1.055271
C58	C	-0.512748	-0.793379	0.388611
C59	C	-0.179414	-0.460046	0.721945
C60	C	0.153919	-0.126712	1.055278
C61	C	-0.512752	-0.702070	0.388628
C62	C	-0.179418	-0.368737	0.721961
C63	C	0.153915	-0.035404	1.055295
C64	C	-0.512760	-0.629294	0.388646
C65	C	-0.179427	-0.295961	0.721979
C66	C	0.153907	0.037373	1.055312
C67	C	-0.512766	-0.537980	0.388662
C68	C	-0.179433	-0.204646	0.721995
C69	C	0.153901	0.128687	1.055328
C70	C	-0.789297	-1.165220	0.388643
C71	C	-0.455963	-0.831887	0.721977
C72	C	-0.122630	-0.498554	1.055310
C73	C	-0.907602	-1.165272	0.388667
C74	C	-0.574269	-0.831938	0.722000
C75	C	-0.240936	-0.498605	1.055334
C76	C	-0.976867	-1.111412	0.442485
C77	C	-0.643534	-0.778078	0.775819
C78	C	-0.310201	-0.444745	1.109152
C79	C	-1.047727	-1.091767	0.368908
C80	C	-0.714394	-0.758433	0.702242
C81	C	-0.381061	-0.425100	1.035575
C82	C	-1.047541	-1.184990	0.462256
C83	C	-0.714208	-0.851657	0.795590
C84	C	-0.380874	-0.518323	1.128923
C85	C	-0.976904	-1.145588	0.315051
C86	C	-0.643571	-0.812254	0.648385
C87	C	-0.310237	-0.478921	0.981718
C88	C	-0.976712	-1.238845	0.408449
C89	C	-0.643378	-0.905512	0.741782
C90	C	-0.310045	-0.572179	1.075115
C91	C	-1.047540	-1.219228	0.334821
C92	C	-0.714206	-0.885895	0.668155
C93	C	-0.380873	-0.552562	1.001488
C94	C	-0.235135	-1.165348	0.388677
C95	C	0.098198	-0.832015	0.722010
C96	C	0.431532	-0.498682	1.055344
C97	C	-0.116829	-1.165380	0.388688
C98	C	0.216504	-0.832047	0.722021
C99	C	0.549837	-0.498714	1.055354
C100	C	-0.512677	-1.165326	0.598960
C101	C	-0.179343	-0.831992	0.932294
C102	C	0.153990	-0.498659	1.265627
C103	C	-0.512643	-1.165348	0.688581
C104	C	-0.179309	-0.832015	1.021915
C105	C	0.154024	-0.498681	1.355248
C106	C	-0.512777	-0.375582	0.388688
C107	C	-0.179443	-0.042249	0.722022
C108	C	0.153890	0.291084	1.055355
C109	C	-0.512774	-0.465203	0.388679
C110	C	-0.179441	-0.131870	0.722013
C111	C	0.153892	0.201463	1.055346
C112	C	-0.512758	-1.165268	0.179160
C113	C	-0.179425	-0.831934	0.512494
C114	C	0.153909	-0.498601	0.845827
C115	C	-0.512492	-1.165401	0.089540
C116	C	-0.179159	-0.832068	0.422873
C117	C	0.154175	-0.498735	0.756206
C118	C	-0.512524	-1.165385	1.016757
C119	C	-0.179190	-0.832052	1.350091
C120	C	0.154143	-0.498719	1.683424
C121	C	-0.512560	-1.165373	0.925449
C122	C	-0.179227	-0.832039	1.258782
C123	C	0.154107	-0.498706	1.592115
C124	C	-0.512584	-1.165367	0.852672
C125	C	-0.179251	-0.832034	1.186006
C126	C	0.154083	-0.498700	1.519339
C127	C	-0.512619	-1.165354	0.761358
C128	C	-0.179286	-0.832020	1.094691
C129	C	0.154048	-0.498687	1.428025
H130	H	-1.078944	-1.029598	0.352194
H131	H	-0.745611	-0.696264	0.685527
H132	H	-0.412278	-0.362931	1.018860
O133	O	-0.939965	-1.057032	0.496803
O134	O	-0.606632	-0.723699	0.830136
O135	O	-0.273299	-0.390365	1.163470
C136	C	-0.977480	-1.077137	0.574130
C137	C	-0.644147	-0.743803	0.907464
C138	C	-0.310813	-0.410470	1.240797
H139	H	-1.052472	-1.115093	0.568434
H140	H	-0.719139	-0.781760	0.901767
H141	H	-0.385806	-0.448427	1.235100
H142	H	-0.996279	-1.019765	0.608853
H143	H	-0.662946	-0.686432	0.942186
H144	H	-0.329612	-0.353099	1.275520
H145	H	-0.914026	-1.112807	0.607633
H146	H	-0.580692	-0.779473	0.940967
H147	H	-0.247359	-0.446140	1.274300
O148	O	-0.939513	-1.312970	0.428569
O149	O	-0.606180	-0.979637	0.761902
O150	O	-0.272846	-0.646304	1.095236
C151	C	-0.975459	-1.333480	0.506218
C152	C	-0.642126	-1.000146	0.839551
C153	C	-0.308793	-0.666813	1.172884
H154	H	-0.995389	-1.276333	0.540947
H155	H	-0.662055	-0.943000	0.874280
H156	H	-0.328722	-0.609667	1.207614
H157	H	-0.910599	-1.368051	0.539319
H158	H	-0.577265	-1.034718	0.872652
H159	H	-0.243932	-0.701385	1.205986
H160	H	-1.049455	-1.372639	0.501177
H161	H	-0.716122	-1.039305	0.834510
H162	H	-0.382788	-0.705972	1.167843
H163	H	-1.078375	-1.264822	0.289265
H164	H	-0.745042	-0.931489	0.622599
H165	H	-0.411709	-0.598156	0.955932
O166	O	-0.939872	-1.125632	0.240852
O167	O	-0.606539	-0.792299	0.574186
O168	O	-0.273206	-0.458965	0.907519
C169	C	-0.827930	-1.125801	0.241741
C170	C	-0.494596	-0.792468	0.575074
C171	C	-0.161263	-0.459135	0.908407
H172	H	-0.798594	-1.116783	0.305982
H173	H	-0.465261	-0.783450	0.639315
H174	H	-0.131927	-0.450116	0.972649
H175	H	-0.797110	-1.074944	0.202107
H176	H	-0.463777	-0.741611	0.535441
H177	H	-0.130444	-0.408278	0.868774
H178	H	-0.797565	-1.185811	0.217851
H179	H	-0.464231	-0.852478	0.551185
H180	H	-0.130898	-0.519144	0.884518
O181	O	-1.084380	-1.204887	0.536527
O182	O	-0.751047	-0.871553	0.869860
O183	O	-0.417713	-0.538220	1.203193
C184	C	-0.997905	-1.218019	0.588796
C185	C	-0.664572	-0.884685	0.922129
C186	C	-0.331238	-0.551352	1.255463
H187	H	-0.924424	-1.234001	0.552110
H188	H	-0.591090	-0.900668	0.885444
H189	H	-0.257757	-0.567335	1.218777
H190	H	-1.017418	-1.269589	0.631515
H191	H	-0.684085	-0.936255	0.964849
H192	H	-0.350752	-0.602922	1.298182
H193	H	-0.981947	-1.161087	0.625028
H194	H	-0.648613	-0.827754	0.958362
H195	H	-0.315280	-0.494420	1.291695
