data_functionalizedCrystal
_audit_creation_method	'MofGen! by Chris Wilmer'
_symmetry_space_group_name_H-M	'P1'
_symmetry_Int_Tables_number	1
_symmetry_cell_setting	triclinic
loop_
_symmetry_equiv_pos_as_xyz
  x,y,z
_cell_length_a	14.519709
_cell_length_b	15.995350
_cell_length_c	12.996460
_cell_angle_alpha	89.996249
_cell_angle_beta	89.999498
_cell_angle_gamma	83.586260
loop_
_atom_site_label
_atom_site_type_symbol
_atom_site_fract_x
_atom_site_fract_y
_atom_site_fract_z
O1	O	1.223670	0.109760	-0.085428
O2	O	1.557003	0.443093	0.247906
O3	O	1.890337	0.776426	0.581239
O4	O	0.955170	0.122685	-0.085458
O5	O	1.288503	0.456019	0.247875
O6	O	1.621836	0.789352	0.581208
O7	O	1.096760	-0.005654	-0.085441
O8	O	1.430093	0.327679	0.247892
O9	O	1.763426	0.661013	0.581225
O10	O	1.082080	0.238099	-0.085445
O11	O	1.415414	0.571433	0.247889
O12	O	1.748747	0.904766	0.581222
O13	O	1.096743	-0.005661	0.085693
O14	O	1.430077	0.327673	0.419026
O15	O	1.763410	0.661006	0.752359
O16	O	0.955154	0.122679	0.085675
O17	O	1.288487	0.456012	0.419009
O18	O	1.621820	0.789345	0.752342
O19	O	1.223654	0.109753	0.085706
O20	O	1.556987	0.443087	0.419040
O21	O	1.890321	0.776420	0.752373
Cu22	Cu	1.089402	0.116215	0.101317
Cu23	Cu	1.422736	0.449549	0.434650
Cu24	Cu	1.756069	0.782882	0.767983
Cu25	Cu	1.089421	0.116223	-0.101069
Cu26	Cu	1.422755	0.449557	0.232264
Cu27	Cu	1.756088	0.782890	0.565598
O28	O	1.082064	0.238093	0.085689
O29	O	1.415397	0.571426	0.419022
O30	O	1.748731	0.904759	0.752356
C31	C	0.920803	0.122080	0.000104
C32	C	1.254136	0.455413	0.333438
C33	C	1.587470	0.788746	0.666771
C34	C	0.818425	0.120275	0.000092
C35	C	1.151758	0.453608	0.333426
C36	C	1.485092	0.786941	0.666759
C37	C	1.096145	-0.036853	0.000124
C38	C	1.429478	0.296480	0.333457
C39	C	1.762811	0.629814	0.666790
C40	C	1.094325	-0.129806	0.000118
C41	C	1.427659	0.203527	0.333451
C42	C	1.760992	0.536861	0.666784
C43	C	0.443541	0.113629	0.000139
C44	C	0.776875	0.446962	0.333473
C45	C	1.110208	0.780296	0.666806
C46	C	0.547846	0.115475	0.000126
C47	C	0.881179	0.448808	0.333459
C48	C	1.214513	0.782141	0.666793
C49	C	0.630980	0.116952	0.000115
C50	C	0.964313	0.450285	0.333448
C51	C	1.297646	0.783618	0.666782
C52	C	0.735291	0.118797	0.000104
C53	C	1.068624	0.452131	0.333437
C54	C	1.401958	0.785464	0.666770
C55	C	1.087791	-0.467563	0.000120
C56	C	1.421125	-0.134230	0.333454
C57	C	1.754458	0.199103	0.666787
C58	C	0.986954	-0.420280	-0.000275
C59	C	1.320287	-0.086947	0.333058
C60	C	1.653620	0.246386	0.666392
C61	C	0.988773	-0.323587	0.000111
C62	C	1.322107	0.009746	0.333444
C63	C	1.655440	0.343079	0.666778
C64	C	1.091032	-0.299998	0.000118
C65	C	1.424366	0.033335	0.333452
C66	C	1.757699	0.366669	0.666785
C67	C	1.140760	-0.341005	0.097848
C68	C	1.474093	-0.007671	0.431181
C69	C	1.807426	0.325662	0.764515
C70	C	1.138227	-0.437644	0.097930
C71	C	1.471560	-0.104311	0.431263
C72	C	1.804893	0.229022	0.764596
C73	C	1.140328	-0.437992	-0.096681
C74	C	1.473661	-0.104658	0.236652
C75	C	1.806995	0.228675	0.569985
C76	C	1.140304	-0.341046	-0.097973
C77	C	1.473638	-0.007713	0.235361
C78	C	1.806971	0.325620	0.568694
C79	C	1.092869	-0.205298	0.000121
C80	C	1.426203	0.128036	0.333454
C81	C	1.759536	0.461369	0.666787
C82	C	1.085957	-0.562264	0.000125
C83	C	1.419291	-0.228931	0.333458
C84	C	1.752624	0.104403	0.666792
C85	C	1.258021	0.110359	0.000141
C86	C	1.591354	0.443692	0.333474
C87	C	1.924687	0.777026	0.666808
C88	C	1.360399	0.112164	0.000146
C89	C	1.693732	0.445497	0.333480
C90	C	2.027065	0.778831	0.666813
C91	C	1.082679	0.269292	0.000122
C92	C	1.416012	0.602625	0.333455
C93	C	1.749346	0.935958	0.666788
C94	C	1.084498	0.362245	0.000121
C95	C	1.417832	0.695578	0.333454
C96	C	1.751165	1.028911	0.666788
N97	N	1.089395	0.116209	0.243664
N98	N	1.422729	0.449543	0.576997
N99	N	1.756062	0.782876	0.910330
C100	C	1.089413	0.116226	0.663478
C101	C	1.422747	0.449560	0.996811
C102	C	1.756080	0.782893	1.330145
C103	C	1.089406	0.116225	0.546673
C104	C	1.422739	0.449558	0.880006
C105	C	1.756072	0.782891	1.213340
C106	C	1.089405	0.116219	0.453575
C107	C	1.422738	0.449552	0.786908
C108	C	1.756072	0.782885	1.120241
C109	C	1.089396	0.116215	0.336762
C110	C	1.422730	0.449549	0.670095
C111	C	1.756063	0.782882	1.003429
N112	N	1.089427	0.116226	0.756584
N113	N	1.422760	0.449559	1.089917
N114	N	1.756093	0.782892	1.423251
H115	H	0.949684	-0.295221	-0.069946
H116	H	1.283017	0.038112	0.263387
H117	H	1.616350	0.371445	0.596721
H118	H	0.946657	-0.438870	-0.070359
H119	H	1.279990	-0.105536	0.262974
H120	H	1.613323	0.227797	0.596307
H121	H	1.106208	-0.312678	0.170570
H122	H	1.439542	0.020655	0.503903
H123	H	1.772875	0.353989	0.837236
N124	N	1.240269	-0.322138	0.102685
N125	N	1.573603	0.011196	0.436019
N126	N	1.906936	0.344529	0.769352
H127	H	1.270880	-0.349103	0.166106
H128	H	1.604213	-0.015770	0.499440
H129	H	1.937546	0.317564	0.832773
H130	H	1.274353	-0.345404	0.039342
H131	H	1.607686	-0.012071	0.372675
H132	H	1.941019	0.321263	0.706008
N133	N	1.092229	-0.304957	-0.193755
N134	N	1.425562	0.028377	0.139579
N135	N	1.758896	0.361710	0.472912
H136	H	1.068138	-0.351649	-0.234580
H137	H	1.401472	-0.018315	0.098753
H138	H	1.734805	0.315018	0.432086
H139	H	1.038789	-0.262183	-0.173626
H140	H	1.372122	0.071150	0.159707
H141	H	1.705456	0.404483	0.493041
H142	H	1.107366	-0.458578	-0.170754
H143	H	1.440700	-0.125245	0.162579
H144	H	1.774033	0.208089	0.495913
H145	H	0.949408	-0.295784	0.070278
H146	H	1.282741	0.037549	0.403612
H147	H	1.616074	0.370882	0.736945
N148	N	0.933787	-0.446309	0.092028
N149	N	1.267121	-0.112976	0.425361
N150	N	1.600454	0.220357	0.758694
H151	H	0.974737	-0.488597	0.134098
H152	H	1.308070	-0.155263	0.467431
H153	H	1.641404	0.178070	0.800764
H154	H	0.913674	-0.395231	0.135586
H155	H	1.247008	-0.061898	0.468919
H156	H	1.580341	0.271436	0.802252
H157	H	1.214876	-0.325573	-0.103868
H158	H	1.548210	0.007761	0.229466
H159	H	1.881543	0.341094	0.562799
H160	H	1.101952	-0.456003	0.170979
H161	H	1.435285	-0.122670	0.504312
H162	H	1.768618	0.210664	0.837645
H163	H	1.212260	-0.469782	0.102369
H164	H	1.545593	-0.136448	0.435702
H165	H	1.878926	0.196885	0.769036
N166	N	1.238810	-0.479909	-0.097552
N167	N	1.572143	-0.146576	0.235782
N168	N	1.905476	0.186757	0.569115
H169	H	1.249383	-0.517873	-0.035581
H170	H	1.582716	-0.184540	0.297752
H171	H	1.916050	0.148793	0.631086
H172	H	1.249831	-0.514334	-0.162424
H173	H	1.583164	-0.181000	0.170909
H174	H	1.916497	0.152333	0.504242
