data_functionalizedCrystal
_audit_creation_method	'MofGen! by Chris Wilmer'
_symmetry_space_group_name_H-M	'P1'
_symmetry_Int_Tables_number	1
_symmetry_cell_setting	triclinic
loop_
_symmetry_equiv_pos_as_xyz
  x,y,z
_cell_length_a	10.654550
_cell_length_b	16.109301
_cell_length_c	9.130313
_cell_angle_alpha	90.003969
_cell_angle_beta	90.003144
_cell_angle_gamma	83.973192
loop_
_atom_site_label
_atom_site_type_symbol
_atom_site_fract_x
_atom_site_fract_y
_atom_site_fract_z
O1	O	1.666249	0.116772	0.121925
O2	O	1.300619	0.127897	0.121902
O3	O	1.493478	0.001363	0.121899
O4	O	1.473390	0.243306	0.121928
O5	O	1.493478	0.001363	-0.121700
O6	O	1.300620	0.127897	-0.121697
O7	O	1.666249	0.116772	-0.121674
Cu8	Cu	1.483434	0.122335	-0.143928
Cu9	Cu	1.483434	0.122335	0.144156
O10	O	1.473390	0.243306	-0.121671
C11	C	1.253832	0.127080	0.000099
C12	C	1.114422	0.124636	0.000090
C13	C	1.033926	0.199138	0.000120
C14	C	0.902936	0.196836	0.000145
C15	C	0.932952	0.045526	0.000116
C16	C	1.063939	0.047828	0.000081
C17	C	1.016595	0.286496	0.000143
C18	C	0.885606	0.284194	0.000168
C19	C	1.492665	-0.029616	0.000099
C20	C	1.490225	-0.121926	0.000097
C21	C	1.598991	-0.343552	0.000127
C22	C	1.596689	-0.430286	0.000139
C23	C	1.367868	-0.411772	0.000119
C24	C	1.370172	-0.325040	0.000117
C25	C	1.485737	-0.290932	0.000114
C26	C	1.481131	-0.464399	0.000127
C27	C	1.478634	-0.558440	0.000140
C28	C	1.488234	-0.196885	0.000104
C29	C	1.713036	0.117589	0.000132
C30	C	1.852446	0.120033	0.000151
C31	C	1.474204	0.274286	0.000132
C32	C	1.476643	0.366595	0.000144
N33	N	1.483444	0.122334	-0.346551
C34	C	1.559575	0.173222	-0.576555
C35	C	1.559577	0.173228	-0.423218
C36	C	1.407294	0.071438	-0.423228
C37	C	1.407286	0.071438	-0.576562
C38	C	1.647499	0.231987	-0.576548
C39	C	1.647501	0.231992	-0.423211
N40	N	1.483434	0.122328	0.346779
H41	H	1.129476	-0.012838	0.000035
C42	C	1.247241	-0.267863	0.000406
C43	C	1.241867	-0.217541	0.125753
C44	C	1.128641	-0.164868	0.126086
H45	H	1.243264	-0.233567	-0.084441
H46	H	1.178049	-0.300568	0.000478
H47	H	1.311039	-0.184838	0.125667
H48	H	1.245822	-0.251813	0.210620
H49	H	1.059450	-0.197573	0.126158
H50	H	1.124675	-0.130578	0.041234
H51	H	1.124974	-0.130723	0.211139
H52	H	1.742432	0.205854	-0.624111
H53	H	1.273779	-0.439553	0.000118
C54	C	0.877895	-0.037780	0.000190
C55	C	0.745953	-0.023852	0.000259
C56	C	0.695195	-0.100575	0.000350
H57	H	0.905372	-0.068551	-0.084744
H58	H	0.905476	-0.068496	0.085164
H59	H	0.718384	0.006851	-0.084705
H60	H	0.718442	0.006906	0.085187
H61	H	0.722776	-0.131291	0.085323
H62	H	0.722680	-0.131341	-0.084586
H63	H	0.605668	-0.091136	0.000410
H64	H	1.345273	0.030003	-0.638978
H65	H	1.607140	0.294599	-0.375649
C66	C	1.055058	0.331906	-0.135965
C67	C	1.019431	0.289788	-0.260939
C68	C	1.054857	0.331586	-0.386344
H69	H	1.014375	0.387275	-0.136161
H70	H	1.143952	0.333446	-0.136073
H71	H	0.930553	0.288257	-0.260831
H72	H	1.060109	0.234421	-0.260791
H73	H	1.143752	0.333126	-0.386453
H74	H	1.014172	0.386954	-0.386526
H75	H	1.030700	0.303011	-0.471153
C76	C	1.324407	0.016295	-0.340073
C77	C	1.197853	0.038467	-0.377349
C78	C	1.121459	-0.012307	-0.300766
H79	H	1.347599	-0.040474	-0.365142
H80	H	1.335225	0.023594	-0.237758
H81	H	1.187042	0.031161	-0.479642
H82	H	1.174622	0.095227	-0.352277
H83	H	1.132277	-0.005008	-0.198451
H84	H	1.144663	-0.069073	-0.325841
H85	H	1.035584	0.002735	-0.326037
C86	C	0.824017	0.319477	-0.139885
C87	C	0.736522	0.387759	-0.105827
C88	C	0.679746	0.420265	-0.234804
H89	H	0.886812	0.337019	-0.203281
H90	H	0.782036	0.277664	-0.187075
H91	H	0.778502	0.429564	-0.058660
H92	H	0.673704	0.370237	-0.042451
H93	H	0.637765	0.378452	-0.281993
H94	H	0.742549	0.437803	-0.298190
H95	H	0.620366	0.466592	-0.211712
H96	H	1.615681	0.297550	-0.618152
C97	C	1.063393	0.323650	0.140449
C98	C	0.960876	0.345909	0.233442
C99	C	1.003937	0.380144	0.362697
H100	H	1.121524	0.283635	0.187811
H101	H	1.103999	0.371803	0.117684
H102	H	0.920290	0.297762	0.256209
H103	H	0.902736	0.385932	0.186126
H104	H	1.044543	0.428297	0.339932
H105	H	1.062068	0.340125	0.410046
H106	H	0.934386	0.395259	0.425803
H107	H	0.843426	0.317109	0.102126
C108	C	1.724585	-0.306680	0.000219
C109	C	1.823274	-0.371331	0.000277
C110	C	1.938992	-0.337399	0.000389
H111	H	1.730431	-0.273245	-0.084704
H112	H	1.730299	-0.273251	0.085204
H113	H	1.817563	-0.404746	-0.084699
H114	H	1.817470	-0.404771	0.085193
H115	H	1.944706	-0.303970	0.085374
H116	H	1.944824	-0.303965	-0.084535
H117	H	2.005966	-0.381259	0.000442
H118	H	1.746834	0.211557	-0.381597
H119	H	1.688912	-0.473126	0.000152
