data_functionalizedCrystal
_audit_creation_method	'MofGen! by Chris Wilmer'
_symmetry_space_group_name_H-M	'P1'
_symmetry_Int_Tables_number	1
_symmetry_cell_setting	triclinic
loop_
_symmetry_equiv_pos_as_xyz
  x,y,z
_cell_length_a	11.169417
_cell_length_b	19.120786
_cell_length_c	11.169409
_cell_angle_alpha	87.520807
_cell_angle_beta	89.979436
_cell_angle_gamma	92.466141
loop_
_atom_site_label
_atom_site_type_symbol
_atom_site_fract_x
_atom_site_fract_y
_atom_site_fract_z
Zn1	Zn	1.814465	-0.279559	-0.658103
Zn2	Zn	1.805734	-0.397041	-0.448830
Zn3	Zn	1.613745	-0.279602	-0.457434
Zn4	Zn	1.605145	-0.396984	-0.649479
O5	O	1.709772	-0.338297	-0.553462
O6	O	1.981256	-0.295150	-0.630351
O7	O	1.780211	-0.381504	-0.282019
O8	O	1.647624	-0.181305	-0.491263
O9	O	1.974841	-0.381463	-0.476599
O10	O	1.795092	-0.181274	-0.638694
O11	O	1.639158	-0.295222	-0.288340
O12	O	1.444655	-0.295167	-0.482901
O13	O	1.632966	-0.381365	-0.818576
O14	O	1.438336	-0.381407	-0.623996
O15	O	1.786753	-0.295094	-0.824912
O16	O	1.771872	-0.495324	-0.468237
O17	O	1.624500	-0.495282	-0.615653
C18	C	1.397948	-0.338286	-0.553447
C19	C	1.264547	-0.338298	-0.553468
C20	C	1.696338	-0.520789	-0.540102
C21	C	1.690701	-0.598860	-0.534427
C22	C	1.764774	-0.635462	-0.608582
C23	C	1.759472	-0.708818	-0.603251
C24	C	1.680103	-0.745571	-0.523759
C25	C	1.606022	-0.708965	-0.449601
C26	C	1.611318	-0.635610	-0.454938
C27	C	1.660267	-0.967059	-0.503806
C28	C	1.654979	-1.040419	-0.498471
C29	C	1.808429	-1.040267	-0.652125
C30	C	1.813723	-0.966911	-0.657450
C31	C	1.739638	-0.930311	-0.583296
C32	C	1.674684	-0.820553	-0.518306
C33	C	1.745051	-0.855330	-0.588756
C34	C	2.022814	-0.338308	-0.553477
C35	C	2.156213	-0.338313	-0.553484
C36	C	1.709874	-0.338219	-0.866510
C37	C	1.709917	-0.338186	-0.999913
C38	C	1.723291	-0.155091	-0.566900
C39	C	1.729052	-0.077020	-0.572627
C40	C	1.709743	-0.338323	-0.241635
C41	C	1.709947	-0.338159	-0.108248
H42	H	1.819800	-0.738615	-0.663627
H43	H	1.541392	-0.738895	-0.384881
H44	H	1.878352	-0.936987	-0.722179
O45	O	1.578043	-1.076151	-0.421116
C46	C	1.643352	-1.118590	-0.340585
H47	H	1.739478	-1.096435	-0.334867
H48	H	1.599925	-1.119486	-0.248120
H49	H	1.643462	-1.174167	-0.373648
O50	O	1.539315	-0.600162	-0.382784
C51	C	1.468103	-0.648329	-0.311500
H52	H	1.513493	-0.700595	-0.303574
H53	H	1.456863	-0.627181	-0.218469
H54	H	1.376369	-0.656161	-0.354810
O55	O	1.588184	-0.931484	-0.431939
C56	C	1.513704	-0.889049	-0.503278
H57	H	1.504650	-0.911112	-0.596195
H58	H	1.421419	-0.888293	-0.459841
H59	H	1.554814	-0.833432	-0.511483
O60	O	1.880204	-1.075855	-0.724286
C61	C	1.808761	-1.118298	-0.798630
H62	H	1.715826	-1.096233	-0.807560
H63	H	1.852059	-1.119068	-0.890978
H64	H	1.800628	-1.173910	-0.757471
O65	O	1.597657	-0.856178	-0.440919
C66	C	1.625264	-0.838312	-0.322621
H67	H	1.675246	-0.785028	-0.324047
H68	H	1.538852	-0.835874	-0.268902
H69	H	1.684014	-0.879584	-0.279258
H70	H	1.809669	-0.825403	-0.653484
H71	H	1.829410	-0.605542	-0.673308
