data_functionalizedCrystal
_audit_creation_method	'MofGen! by Chris Wilmer'
_symmetry_space_group_name_H-M	'P1'
_symmetry_Int_Tables_number	1
_symmetry_cell_setting	triclinic
loop_
_symmetry_equiv_pos_as_xyz
  x,y,z
_cell_length_a	10.723024
_cell_length_b	10.654550
_cell_length_c	9.730223
_cell_angle_alpha	90.000193
_cell_angle_beta	89.999921
_cell_angle_gamma	84.476386
loop_
_atom_site_label
_atom_site_type_symbol
_atom_site_fract_x
_atom_site_fract_y
_atom_site_fract_z
O1	O	-1.657207	-0.176144	-0.114277
O2	O	-1.294058	-0.193005	-0.114282
O3	O	-1.483982	-0.001834	-0.114274
O4	O	-1.467283	-0.367315	-0.114285
O5	O	-1.483980	-0.001839	0.114306
O6	O	-1.294055	-0.193010	0.114298
O7	O	-1.657205	-0.176149	0.114303
Zn8	Zn	-1.475630	-0.184580	0.150593
Zn9	Zn	-1.475633	-0.184574	-0.150571
O10	O	-1.467281	-0.367320	0.114295
C11	C	-1.247557	-0.191780	0.000008
C12	C	-1.109002	-0.188109	0.000006
C13	C	-1.703706	-0.177373	0.000010
C14	C	-1.842261	-0.181045	0.000003
C15	C	-1.482755	0.044961	0.000014
C16	C	-1.479086	0.184404	0.000009
C17	C	-1.034035	-0.295078	0.000002
C18	C	-0.890831	-0.291287	0.000001
C19	C	-1.468508	-0.414115	0.000004
C20	C	-1.472176	-0.553558	-0.000000
N21	N	-1.475637	-0.184584	0.356129
C22	C	-1.590911	0.263907	0.000015
C23	C	-1.587456	0.394927	0.000005
C24	C	-1.360343	0.366929	-0.000010
C25	C	-1.363799	0.235912	-0.000010
C26	C	-1.722033	0.280072	0.000029
C27	C	-1.718579	0.411092	0.000020
N28	N	-1.475636	-0.184560	-0.356108
C29	C	-1.559757	-0.099962	0.428058
C30	C	-1.559754	-0.099947	0.571941
C31	C	-1.391506	-0.269186	0.571953
C32	C	-1.391504	-0.269194	0.428073
C33	C	-1.656898	-0.002257	0.428053
C34	C	-1.656895	-0.002242	0.571936
H35	H	-1.075871	-0.389466	0.000007
H36	H	-0.826412	-0.382860	-0.000008
H37	H	-1.752791	-0.023746	0.610987
Cl38	Cl	-0.941705	-0.039648	-0.000003
H39	H	-1.635592	0.094272	0.389001
H40	H	-1.067166	-0.093722	-0.000026
H41	H	-1.272741	0.171184	-0.000033
Cl42	Cl	-1.786475	0.225060	0.152416
Cl43	Cl	-1.796771	-0.049478	0.359142
Cl44	Cl	-1.215419	0.431691	-0.000037
H45	H	-1.773320	0.250724	-0.095624
Cl46	Cl	-1.779759	0.481585	-0.152350
H47	H	-1.767983	0.452858	0.095679
H48	H	-1.323007	-0.338072	0.630545
Cl49	Cl	-1.285734	-0.375561	0.337646
H50	H	-1.626576	0.088976	0.616553
