data_functionalizedCrystal
_audit_creation_method	'MofGen! by Chris Wilmer'
_symmetry_space_group_name_H-M	'P1'
_symmetry_Int_Tables_number	1
_symmetry_cell_setting	triclinic
loop_
_symmetry_equiv_pos_as_xyz
  x,y,z
_cell_length_a	17.077404
_cell_length_b	18.215405
_cell_length_c	17.077396
_cell_angle_alpha	90.031591
_cell_angle_beta	90.019501
_cell_angle_gamma	90.025110
loop_
_atom_site_label
_atom_site_type_symbol
_atom_site_fract_x
_atom_site_fract_y
_atom_site_fract_z
Zn1	Zn	1.200044	-0.292980	0.443826
Zn2	Zn	1.199946	-0.416053	0.312553
Zn3	Zn	1.068776	-0.293006	0.312574
Zn4	Zn	1.068739	-0.416010	0.443776
O5	O	1.134376	-0.354512	0.378182
O6	O	1.309878	-0.309313	0.426424
O7	O	1.182521	-0.399760	0.202708
O8	O	1.086245	-0.190018	0.330014
O9	O	1.309806	-0.399735	0.329978
O10	O	1.182687	-0.189999	0.426444
O11	O	1.086150	-0.309357	0.202724
O12	O	0.958924	-0.309315	0.329966
O13	O	1.086182	-0.399660	0.553630
O14	O	0.958897	-0.399685	0.426360
O15	O	1.182651	-0.309271	0.553666
O16	O	1.182485	-0.519032	0.329930
O17	O	1.086088	-0.519000	0.426340
C18	C	0.930428	-0.354499	0.378160
C19	C	0.843178	-0.354511	0.378170
C20	C	0.802195	-0.401638	0.428282
C21	C	0.720214	-0.401639	0.428294
C22	C	0.679219	-0.354517	0.378190
C23	C	0.720208	-0.307385	0.328076
C24	C	0.802187	-0.307380	0.328068
C25	C	0.549338	-0.307400	0.328095
C26	C	0.467354	-0.307405	0.328102
C27	C	0.467365	-0.401659	0.428321
C28	C	0.549344	-0.401654	0.428313
C29	C	0.590328	-0.354522	0.378198
C30	C	1.134293	-0.545718	0.378144
C31	C	1.134330	-0.627517	0.378154
C32	C	1.184642	-0.815703	0.328046
C33	C	1.184677	-0.892562	0.328065
C34	C	1.084211	-0.892569	0.428374
C35	C	1.084180	-0.815711	0.428359
C36	C	1.134395	-0.777281	0.378190
C37	C	1.134460	-0.930997	0.378225
C38	C	1.134498	-1.014330	0.378246
C39	C	1.134358	-0.693942	0.378170
C40	C	1.339120	-0.354526	0.378204
C41	C	1.426370	-0.354532	0.378214
C42	C	1.134424	-0.354458	0.582926
C43	C	1.134444	-0.354435	0.670176
C44	C	1.134481	-0.162559	0.378237
C45	C	1.134525	-0.080760	0.378261
C46	C	1.134374	-0.354513	0.174234
C47	C	1.134506	-0.354329	0.086985
C48	C	1.184677	-0.307365	0.711187
C49	C	1.184687	-0.307341	0.793167
C50	C	1.134466	-0.354390	0.834136
C51	C	1.084227	-0.401462	0.793120
C52	C	1.084214	-0.401482	0.711141
C53	C	1.084259	-0.401418	0.963990
C54	C	1.084273	-0.401399	1.045974
C55	C	1.184731	-0.307276	1.046016
C56	C	1.184718	-0.307296	0.964037
C57	C	1.134480	-0.354369	0.923027
H58	H	0.835567	-0.440013	0.469079
Cl59	Cl	1.247888	-0.248100	1.097572
H60	H	1.225575	-0.269054	0.677836
Cl61	Cl	1.247875	-0.248197	0.844720
H62	H	1.043327	-0.923868	0.469218
H63	H	1.043301	-0.439804	0.677751
Cl64	Cl	0.668671	-0.248140	0.265093
H65	H	1.225616	-0.268989	0.930683
H66	H	1.043377	-0.439709	1.079329
H67	H	1.225530	-0.784415	0.287197
Cl68	Cl	1.021101	-0.460595	0.912435
H69	H	1.043263	-0.784426	0.469195
Cl70	Cl	0.415818	-0.248168	0.265110
H71	H	1.043334	-0.439768	0.826483
Cl72	Cl	0.853710	-0.248131	0.265070
Cl73	Cl	0.668695	-0.460887	0.491295
Cl74	Cl	0.600880	-0.460899	0.491296
H75	H	0.433993	-0.440032	0.469129
Cl76	Cl	1.247849	-0.940862	0.265027
Cl77	Cl	0.600859	-0.248148	0.265092
