data_functionalizedCrystal
_audit_creation_method	'MofGen! by Chris Wilmer'
_symmetry_space_group_name_H-M	'P1'
_symmetry_Int_Tables_number	1
_symmetry_cell_setting	triclinic
loop_
_symmetry_equiv_pos_as_xyz
  x,y,z
_cell_length_a	13.032891
_cell_length_b	15.299816
_cell_length_c	13.033352
_cell_angle_alpha	72.071039
_cell_angle_beta	89.095298
_cell_angle_gamma	74.595482
loop_
_atom_site_label
_atom_site_type_symbol
_atom_site_fract_x
_atom_site_fract_y
_atom_site_fract_z
Zn1	Zn	1.607825	-0.636916	0.922494
Zn2	Zn	1.653766	-0.777322	0.781755
Zn3	Zn	1.450951	-0.597471	0.719967
Zn4	Zn	1.459107	-0.772276	0.930752
O5	O	1.542912	-0.695996	0.838742
O6	O	1.761037	-0.674160	0.926227
O7	O	1.642676	-0.739069	0.626444
O8	O	1.449120	-0.470787	0.717519
O9	O	1.794790	-0.777316	0.822826
O10	O	1.564375	-0.499766	0.866315
O11	O	1.493668	-0.606933	0.581049
O12	O	1.304915	-0.602040	0.725526
O13	O	1.463022	-0.768716	1.076771
O14	O	1.310908	-0.730468	0.880388
O15	O	1.572284	-0.669267	1.070704
O16	O	1.650585	-0.908569	0.830833
O17	O	1.507569	-0.904862	0.940301
C18	C	1.269765	-0.661427	0.797149
C19	C	1.152913	-0.646663	0.779386
C20	C	0.983061	-0.688449	0.829664
C21	C	1.103835	-0.703712	0.848023
C22	C	1.584973	-0.940926	0.893195
C23	C	1.603060	-1.045724	0.916540
C24	C	1.414298	-1.281096	0.672353
C25	C	1.397299	-1.182633	0.650421
C26	C	1.448738	-1.148401	0.716949
C27	C	1.517178	-1.212641	0.805413
C28	C	1.534172	-1.311114	0.827352
C29	C	1.568612	-1.178418	0.871947
C30	C	1.637052	-1.242659	0.960412
C31	C	1.654043	-1.341122	0.982346
C32	C	1.602605	-1.375354	0.915819
C33	C	1.551618	-1.079946	0.850008
C34	C	1.671492	-1.109964	1.005007
C35	C	1.688491	-1.208427	1.026939
C36	C	1.817126	-0.730701	0.880498
C37	C	1.933980	-0.745490	0.898292
C38	C	1.513438	-0.722828	1.112949
C39	C	1.500878	-0.734263	1.229799
C40	C	1.500713	-0.450116	0.784104
C41	C	1.482730	-0.345336	0.760820
C42	C	1.549339	-0.690155	1.278893
C43	C	1.536359	-0.701972	1.399665
C44	C	1.572267	-0.669289	1.565605
C45	C	1.584826	-0.657859	1.448755
H46	H	0.981370	-0.805621	0.970641
H47	H	1.713376	-1.082094	1.059181
Br48	Br	1.746898	-1.428304	1.102426
H49	H	1.495894	-1.027649	0.777980
Br50	Br	1.415696	-0.811777	1.308754
Br51	Br	1.425213	-1.014759	0.687531
Br52	Br	1.182808	-0.803943	0.968621
H53	H	1.744215	-1.260745	1.098968
Br54	Br	1.451173	-0.779490	1.478615
H55	H	1.600434	-0.643641	1.231513
H56	H	1.635923	-0.611339	1.401379
H57	H	1.105525	-0.586520	0.707038
Br58	Br	1.304404	-1.095456	0.530381
H59	H	0.935668	-0.628311	0.757322
Br60	Br	1.625945	-1.508994	0.945372
Br61	Br	1.344474	-1.327558	0.582094
