data_functionalizedCrystal
_audit_creation_method	'MofGen! by Chris Wilmer'
_symmetry_space_group_name_H-M	'P1'
_symmetry_Int_Tables_number	1
_symmetry_cell_setting	triclinic
loop_
_symmetry_equiv_pos_as_xyz
  x,y,z
_cell_length_a	25.639239
_cell_length_b	16.625548
_cell_length_c	16.625539
_cell_angle_alpha	90.022345
_cell_angle_beta	89.968745
_cell_angle_gamma	89.961455
loop_
_atom_site_label
_atom_site_type_symbol
_atom_site_fract_x
_atom_site_fract_y
_atom_site_fract_z
Zn1	Zn	-0.208152	-1.232590	-0.455931
Zn2	Zn	0.125182	-0.899256	-0.122598
Zn3	Zn	0.458515	-0.565923	0.210736
Zn4	Zn	-0.295590	-1.232455	-0.321091
Zn5	Zn	0.037744	-0.899121	0.012242
Zn6	Zn	0.371077	-0.565788	0.345575
Zn7	Zn	-0.208170	-1.097751	-0.321107
Zn8	Zn	0.125163	-0.764418	0.012226
Zn9	Zn	0.458497	-0.431085	0.345559
Zn10	Zn	-0.295558	-1.097684	-0.455877
Zn11	Zn	0.037775	-0.764350	-0.122544
Zn12	Zn	0.371109	-0.431017	0.210790
O13	O	-0.251867	-1.165120	-0.388502
O14	O	0.081466	-0.831786	-0.055168
O15	O	0.414799	-0.498453	0.278165
O16	O	-0.219756	-1.345404	-0.438060
O17	O	0.113577	-1.012071	-0.104727
O18	O	0.446910	-0.678737	0.228607
O19	O	-0.284014	-1.214558	-0.208261
O20	O	0.049319	-0.881224	0.125072
O21	O	0.382652	-0.547891	0.458406
O22	O	-0.135002	-1.115723	-0.339021
O23	O	0.198331	-0.782389	-0.005688
O24	O	0.531664	-0.449056	0.327645
O25	O	-0.283997	-1.345305	-0.338994
O26	O	0.049337	-1.011972	-0.005661
O27	O	0.382670	-0.678638	0.327673
O28	O	-0.134989	-1.214788	-0.438076
O29	O	0.198344	-0.881455	-0.104742
O30	O	0.531678	-0.548121	0.228591
O31	O	-0.219787	-1.115592	-0.208273
O32	O	0.113546	-0.782259	0.125061
O33	O	0.446879	-0.448925	0.458394
O34	O	-0.219756	-0.984910	-0.338969
O35	O	0.113577	-0.651577	-0.005636
O36	O	0.446910	-0.318243	0.327698
O37	O	-0.283942	-1.115607	-0.568717
O38	O	0.049391	-0.782274	-0.235383
O39	O	0.382724	-0.448941	0.097950
O40	O	-0.283960	-0.984860	-0.437984
O41	O	0.049373	-0.651527	-0.104650
O42	O	0.382707	-0.318194	0.228683
O43	O	-0.219726	-1.214722	-0.568756
O44	O	0.113608	-0.881389	-0.235423
O45	O	0.446941	-0.548056	0.097910
O46	O	-0.368751	-1.214492	-0.338942
O47	O	-0.035417	-0.881159	-0.005608
O48	O	0.297916	-0.547825	0.327725
O49	O	-0.368727	-1.115477	-0.437968
O50	O	-0.035394	-0.782143	-0.104635
O51	O	0.297939	-0.448810	0.228699
C52	C	-0.251857	-0.955629	-0.388473
C53	C	0.081476	-0.622296	-0.055139
C54	C	0.414810	-0.288962	0.278194
C55	C	-0.251865	-0.866008	-0.388479
C56	C	0.081468	-0.532675	-0.055146
C57	C	0.414802	-0.199341	0.278187
C58	C	-0.251864	-0.537832	-0.388504
C59	C	0.081469	-0.204499	-0.055170
C60	C	0.414803	0.128834	0.278163
C61	C	-0.251863	-0.629141	-0.388494
C62	C	0.081470	-0.295807	-0.055161
C63	C	0.414804	0.037526	0.278172
C64	C	-0.251865	-0.701917	-0.388491
C65	C	0.081468	-0.368584	-0.055157
C66	C	0.414802	-0.035250	0.278176
C67	C	-0.251863	-0.793231	-0.388483
C68	C	0.081470	-0.459898	-0.055149
C69	C	0.414803	-0.126565	0.278184
C70	C	-0.387710	-1.164984	-0.388465
C71	C	-0.054377	-0.831651	-0.055131
C72	C	0.278957	-0.498318	0.278202
C73	C	-0.445824	-1.165000	-0.388476
C74	C	-0.112491	-0.831667	-0.055143
C75	C	0.220843	-0.498333	0.278191
C76	C	-0.806187	-1.216812	-0.337026
C77	C	-0.472853	-0.883478	-0.003693
C78	C	-0.139520	-0.550145	0.329640
C79	C	-0.860791	-1.216843	-0.337037
C80	C	-0.527458	-0.883510	-0.003704
C81	C	-0.194124	-0.550176	0.329629
O82	O	-0.889027	-1.260755	-0.293253
O83	O	-0.555694	-0.927421	0.040081
O84	O	-0.222361	-0.594088	0.373414
N85	N	-0.888106	-1.165262	-0.388555
N86	N	-0.554773	-0.831928	-0.055222
N87	N	-0.221440	-0.498595	0.278112
C88	C	-0.860815	-1.113651	-0.440071
C89	C	-0.527481	-0.780318	-0.106738
C90	C	-0.194148	-0.446985	0.226595
O91	O	-0.889063	-1.069780	-0.483893
O92	O	-0.555729	-0.736447	-0.150559
O93	O	-0.222396	-0.403114	0.182774
C94	C	-0.806211	-1.113625	-0.440064
C95	C	-0.472878	-0.780291	-0.106731
C96	C	-0.139545	-0.446958	0.226603
C97	C	-0.778899	-1.165204	-0.388537
C98	C	-0.445565	-0.831870	-0.055204
C99	C	-0.112232	-0.498537	0.278130
C100	C	-0.778874	-1.268387	-0.285504
C101	C	-0.445541	-0.935054	0.047829
C102	C	-0.112207	-0.601721	0.381162
C103	C	-0.724273	-1.268355	-0.285493
C104	C	-0.390940	-0.935022	0.047841
C105	C	-0.057607	-0.601688	0.381174
C106	C	-0.696985	-1.216747	-0.337003
C107	C	-0.363652	-0.883413	-0.003670
C108	C	-0.030319	-0.550080	0.329664
C109	C	-0.724298	-1.165171	-0.388525
C110	C	-0.390965	-0.831838	-0.055192
C111	C	-0.057632	-0.498505	0.278141
C112	C	-0.778921	-1.062019	-0.491584
C113	C	-0.445587	-0.728686	-0.158250
C114	C	-0.112254	-0.395352	0.175083
C115	C	-0.724314	-1.061997	-0.491572
C116	C	-0.390980	-0.728664	-0.158239
C117	C	-0.057647	-0.395331	0.175094
C118	C	-0.697001	-1.113576	-0.440045
C119	C	-0.363668	-0.780243	-0.106712
C120	C	-0.030334	-0.446910	0.226621
C121	C	-0.642410	-1.113531	-0.440024
C122	C	-0.309076	-0.780197	-0.106691
C123	C	0.024257	-0.446864	0.226642
N124	N	-0.615094	-1.165112	-0.388506
N125	N	-0.281761	-0.831779	-0.055173
N126	N	0.051572	-0.498445	0.278160
C127	C	-0.642382	-1.216720	-0.336996
C128	C	-0.309049	-0.883387	-0.003662
C129	C	0.024284	-0.550054	0.329671
C130	C	-0.975485	-1.113712	-0.440084
C131	C	-0.642152	-0.780379	-0.106750
C132	C	-0.308819	-0.447045	0.226583
C133	C	-1.030088	-1.113734	-0.440088
C134	C	-0.696754	-0.780401	-0.106754
C135	C	-0.363421	-0.447067	0.226579
C136	C	-1.030060	-1.216927	-0.337054
C137	C	-0.696727	-0.883594	-0.003721
C138	C	-0.363393	-0.550260	0.329612
C139	C	-0.975457	-1.216900	-0.337047
C140	C	-0.642123	-0.883567	-0.003714
C141	C	-0.308790	-0.550234	0.329620
C142	C	-0.948170	-1.165293	-0.388566
C143	C	-0.614836	-0.831960	-0.055233
C144	C	-0.281503	-0.498627	0.278101
C145	C	-0.527717	-1.216648	-0.336975
C146	C	-0.194384	-0.883314	-0.003641
C147	C	0.138950	-0.549981	0.329692
C148	C	-0.473112	-1.216608	-0.336965
C149	C	-0.139778	-0.883275	-0.003632
C150	C	0.193555	-0.549941	0.329701
C151	C	-0.473144	-1.113418	-0.440001
C152	C	-0.139811	-0.780085	-0.106668
C153	C	0.193523	-0.446752	0.226665
C154	C	-0.527745	-1.113454	-0.440008
C155	C	-0.194411	-0.780121	-0.106675
C156	C	0.138922	-0.446788	0.226659
C157	C	-0.555030	-1.165076	-0.388492
C158	C	-0.221697	-0.831742	-0.055159
C159	C	0.111637	-0.498409	0.278175
O160	O	-0.614139	-1.069644	-0.483789
O161	O	-0.280805	-0.736310	-0.150456
O162	O	0.052528	-0.402977	0.182878
O163	O	-0.614128	-1.260591	-0.293189
O164	O	-0.280794	-0.927258	0.040144
O165	O	0.052539	-0.593924	0.373477
C166	C	-0.115494	-1.165278	-0.388556
C167	C	0.217839	-0.831945	-0.055223
C168	C	0.551172	-0.498611	0.278110
C169	C	-0.057380	-1.165345	-0.388580
C170	C	0.275953	-0.832012	-0.055246
C171	C	0.609286	-0.498679	0.278087
C172	C	-0.251828	-1.165172	-0.598811
C173	C	0.081505	-0.831839	-0.265477
C174	C	0.414838	-0.498506	0.067856
C175	C	-0.251812	-1.165195	-0.688432
C176	C	0.081522	-0.831861	-0.355098
C177	C	0.414855	-0.498528	-0.021765
C178	C	-0.251875	-0.375429	-0.388523
C179	C	0.081459	-0.042095	-0.055190
C180	C	0.414792	0.291238	0.278143
C181	C	-0.251869	-0.465050	-0.388513
C182	C	0.081464	-0.131716	-0.055180
C183	C	0.414798	0.201617	0.278154
C184	C	-0.251753	-1.165232	-1.016608
C185	C	0.081580	-0.831898	-0.683274
C186	C	0.414913	-0.498565	-0.349941
C187	C	-0.251771	-1.165219	-0.925299
C188	C	0.081562	-0.831886	-0.591966
C189	C	0.414895	-0.498553	-0.258632
C190	C	-0.251783	-1.165214	-0.852523
C191	C	0.081550	-0.831880	-0.519189
C192	C	0.414884	-0.498547	-0.185856
C193	C	-0.251800	-1.165200	-0.761208
C194	C	0.081533	-0.831867	-0.427875
C195	C	0.414867	-0.498534	-0.094542
C196	C	-0.251868	-1.165114	-0.179011
C197	C	0.081465	-0.831781	0.154323
C198	C	0.414798	-0.498447	0.487656
C199	C	-0.251738	-1.165248	-0.089390
C200	C	0.081596	-0.831915	0.243943
C201	C	0.414929	-0.498581	0.577277
H202	H	-0.549926	-1.258684	-0.295027
H203	H	-0.216593	-0.925351	0.038306
H204	H	0.116740	-0.592017	0.371639
H205	H	-0.702039	-1.310357	-0.243537
H206	H	-0.368705	-0.977024	0.089796
H207	H	-0.035372	-0.643691	0.423129
H208	H	-0.801086	-1.310417	-0.243558
H209	H	-0.467752	-0.977084	0.089775
H210	H	-0.134419	-0.643751	0.423109
H211	H	-0.450918	-1.071397	-0.481938
H212	H	-0.117585	-0.738064	-0.148605
H213	H	0.215749	-0.404730	0.184729
C214	C	-0.945900	-1.272992	-0.281076
C215	C	-0.612566	-0.939659	0.052257
C216	C	-0.279233	-0.606326	0.385591
C217	C	-0.981491	-1.318202	-0.235982
C218	C	-0.648158	-0.984868	0.097351
C219	C	-0.314825	-0.651535	0.430684
C220	C	-0.954286	-1.369892	-0.184420
C221	C	-0.620952	-1.036559	0.148913
C222	C	-0.287619	-0.703225	0.482247
H223	H	-0.924631	-1.242250	-0.245839
H224	H	-0.591297	-0.908917	0.087494
H225	H	-0.257964	-0.575584	0.420827
H226	H	-0.924576	-1.308144	-0.311930
H227	H	-0.591243	-0.974811	0.021403
H228	H	-0.257910	-0.641477	0.354737
H229	H	-1.002806	-1.283054	-0.205131
H230	H	-0.669472	-0.949721	0.128203
H231	H	-0.336139	-0.616388	0.461536
H232	H	-1.002762	-1.348960	-0.271198
H233	H	-0.669428	-1.015627	0.062136
H234	H	-0.336095	-0.682293	0.395469
H235	H	-0.932962	-1.405044	-0.215274
H236	H	-0.599629	-1.071710	0.118059
H237	H	-0.266296	-0.738377	0.451393
H238	H	-0.933017	-1.339144	-0.149189
H239	H	-0.599684	-1.005810	0.184145
H240	H	-0.266351	-0.672477	0.517478
H241	H	-0.978430	-1.400578	-0.153823
H242	H	-0.645097	-1.067245	0.179510
H243	H	-0.311764	-0.733911	0.512844
H244	H	-0.450875	-1.258610	-0.295003
H245	H	-0.117542	-0.925277	0.038330
H246	H	0.215791	-0.591943	0.371664
C247	C	-0.557428	-1.057349	-0.495812
C248	C	-0.224094	-0.724016	-0.162479
C249	C	0.109239	-0.390682	0.170855
C250	C	-0.588824	-1.005699	-0.450121
C251	C	-0.255491	-0.672366	-0.116787
C252	C	0.077842	-0.339032	0.216546
C253	C	-0.616165	-0.954001	-0.501505
C254	C	-0.282832	-0.620668	-0.168172
C255	C	0.050501	-0.287335	0.165161
H256	H	-0.578732	-1.088092	-0.530997
H257	H	-0.245399	-0.754758	-0.197664
H258	H	0.087935	-0.421425	0.135669
H259	H	-0.533369	-1.026561	-0.526470
H260	H	-0.200035	-0.693227	-0.193136
H261	H	0.133298	-0.359894	0.140197
H262	H	-0.612881	-1.036484	-0.419476
H263	H	-0.279547	-0.703151	-0.086143
H264	H	0.053786	-0.369817	0.247190
H265	H	-0.567533	-0.974938	-0.414937
H266	H	-0.234200	-0.641605	-0.081604
H267	H	0.099133	-0.308272	0.251730
H268	H	-0.592106	-0.923213	-0.532163
H269	H	-0.258773	-0.589880	-0.198830
H270	H	0.074560	-0.256546	0.134503
H271	H	-0.637467	-0.984751	-0.536688
H272	H	-0.304133	-0.651417	-0.203355
H273	H	0.029200	-0.318084	0.129978
H274	H	-0.637468	-0.918946	-0.470511
H275	H	-0.304134	-0.585613	-0.137178
H276	H	0.029199	-0.252279	0.196155
H277	H	-1.052288	-1.258952	-0.295114
H278	H	-0.718954	-0.925619	0.038219
H279	H	-0.385621	-0.592285	0.371552
H280	H	-1.052321	-1.071725	-0.482038
H281	H	-0.718988	-0.738392	-0.148705
H282	H	-0.385654	-0.405059	0.184628
H283	H	-0.953271	-1.071681	-0.482034
H284	H	-0.619938	-0.738347	-0.148701
H285	H	-0.286604	-0.405014	0.184633
C286	C	-0.808471	-1.005990	-0.547621
C287	C	-0.475137	-0.672656	-0.214288
C288	C	-0.141804	-0.339323	0.119046
C289	C	-0.772875	-0.960814	-0.592741
C290	C	-0.439542	-0.627481	-0.259408
C291	C	-0.106209	-0.294148	0.073925
C292	C	-0.800076	-0.909198	-0.644383
C293	C	-0.466743	-0.575864	-0.311050
C294	C	-0.133410	-0.242531	0.022283
H295	H	-0.829811	-0.970807	-0.516848
H296	H	-0.496477	-0.637474	-0.183515
H297	H	-0.163144	-0.304141	0.149819
H298	H	-0.829723	-1.036809	-0.582831
H299	H	-0.496390	-0.703475	-0.249498
H300	H	-0.163056	-0.370142	0.083836
H301	H	-0.751632	-0.929998	-0.557536
H302	H	-0.418299	-0.596665	-0.224202
H303	H	-0.084965	-0.263331	0.109131
H304	H	-0.751534	-0.995976	-0.623531
H305	H	-0.418201	-0.662642	-0.290197
H306	H	-0.084867	-0.329309	0.043136
H307	H	-0.821329	-0.940016	-0.679593
H308	H	-0.487995	-0.606683	-0.346260
H309	H	-0.154662	-0.273350	-0.012927
H310	H	-0.821416	-0.874021	-0.613604
H311	H	-0.488082	-0.540687	-0.280270
H312	H	-0.154749	-0.207354	0.053063
H313	H	-0.775929	-0.878545	-0.675009
H314	H	-0.442596	-0.545212	-0.341675
H315	H	-0.109263	-0.211879	-0.008342
H316	H	-0.702099	-1.019973	-0.533528
H317	H	-0.368766	-0.686640	-0.200194
H318	H	-0.035433	-0.353307	0.133139
