data_functionalizedCrystal
_audit_creation_method	'MofGen! by Chris Wilmer'
_symmetry_space_group_name_H-M	'P1'
_symmetry_Int_Tables_number	1
_symmetry_cell_setting	triclinic
loop_
_symmetry_equiv_pos_as_xyz
  x,y,z
_cell_length_a	17.640112
_cell_length_b	17.077402
_cell_length_c	17.639158
_cell_angle_alpha	101.204931
_cell_angle_beta	92.192862
_cell_angle_gamma	78.751909
loop_
_atom_site_label
_atom_site_type_symbol
_atom_site_fract_x
_atom_site_fract_y
_atom_site_fract_z
Zn1	Zn	1.247715	0.100977	0.195080
Zn2	Zn	1.221985	0.211880	0.068093
Zn3	Zn	1.095079	0.111294	0.093725
Zn4	Zn	1.120676	0.262886	0.220676
O5	O	1.171364	0.171759	0.144394
O6	O	1.350578	0.090025	0.156796
O7	O	1.183670	0.181509	-0.034781
O8	O	1.115382	0.000070	0.107185
O9	O	1.331674	0.171505	0.063499
O10	O	1.227523	-0.007509	0.181650
O11	O	1.090433	0.107609	-0.015950
O12	O	0.992198	0.157067	0.132004
O13	O	1.159009	0.258437	0.323555
O14	O	1.011004	0.268441	0.225274
O15	O	1.252343	0.139483	0.304750
O16	O	1.208490	0.328501	0.088318
O17	O	1.134059	0.365975	0.200421
C18	C	0.974045	0.219409	0.184198
C19	C	0.889635	0.239815	0.201245
C20	C	1.171284	0.375720	0.144378
C21	C	1.171325	0.462963	0.144383
C22	C	1.211402	0.203499	0.342479
C23	C	1.228463	0.217024	0.426891
C24	C	0.563034	0.016721	0.014898
C25	C	0.483720	0.035914	0.030926
C26	C	0.503323	0.151999	0.127881
C27	C	0.582641	0.132814	0.111864
C28	C	0.612490	0.065174	0.055371
C29	C	0.632097	0.181267	0.152337
C30	C	0.711407	0.162086	0.136318
C31	C	0.741262	0.094451	0.079825
C32	C	0.691800	0.045993	0.039351
C33	C	0.602246	0.248909	0.208826
C34	C	0.651702	0.297362	0.249299
C35	C	0.731014	0.278178	0.233284
C36	C	0.760869	0.210543	0.176791
C37	C	0.780476	0.326636	0.273757
C38	C	0.859786	0.307455	0.257738
C39	C	0.840179	0.191362	0.160772
C40	C	1.369453	0.123924	0.104434
C41	C	1.453867	0.103540	0.087405
C42	C	1.171468	-0.033000	0.144422
C43	C	1.171512	-0.120256	0.144433
C44	C	1.210141	0.484411	0.086053
C45	C	1.210182	0.566385	0.086065
C46	C	1.171402	0.626911	0.144404
C47	C	1.132585	0.605459	0.202739
C48	C	1.132549	0.523485	0.202730
C49	C	1.132661	0.776316	0.202754
C50	C	1.132695	0.858296	0.202763
C51	C	1.210294	0.819216	0.086089
C52	C	1.210259	0.737243	0.086080
C53	C	1.171440	0.715796	0.144414
C54	C	1.301051	0.274559	0.536064
C55	C	1.285013	0.261846	0.456747
C56	C	1.187932	0.184895	0.476347
C57	C	1.203964	0.197598	0.555666
C58	C	1.260524	0.242432	0.585518
C59	C	1.163438	0.165471	0.605121
C60	C	1.179466	0.178177	0.684434
C61	C	1.236022	0.223011	0.714293
C62	C	1.276552	0.255138	0.664831
C63	C	1.106875	0.120642	0.575268
C64	C	1.066348	0.088515	0.624723
C65	C	1.082380	0.101216	0.704037
C66	C	1.138935	0.146050	0.733895
C67	C	1.041849	0.069088	0.753498
C68	C	1.057878	0.081795	0.832811
C69	C	1.154964	0.158756	0.813208
C70	C	1.131482	0.140160	0.947079
C71	C	1.114437	0.126629	0.862663
H72	H	0.864486	0.136274	0.114781
Cl73	Cl	1.259086	0.846177	0.012748
Cl74	Cl	1.086715	0.104681	0.475560
H75	H	1.020295	0.052014	0.600406
H76	H	1.322615	0.291639	0.689137
H77	H	1.141879	0.148394	0.452030
Cl78	Cl	0.465789	0.237035	0.198890
Cl79	Cl	1.226081	0.215104	0.850740
Cl80	Cl	1.372167	0.330908	0.573595
H81	H	0.537666	0.264524	0.221867
H82	H	1.241717	0.435134	0.038544
H83	H	1.241790	0.583842	0.038567
H84	H	1.241832	0.687962	0.038573
H85	H	1.101134	0.907574	0.250279
H86	H	0.995794	0.032592	0.729181
H87	H	0.443455	-0.003553	-0.002031
H88	H	1.100942	0.506025	0.250228
H89	H	1.024879	0.055631	0.873078
Cl90	Cl	0.921963	0.368369	0.308617
Cl91	Cl	0.614168	0.382399	0.320307
Cl92	Cl	1.083837	0.681548	0.276084
Cl93	Cl	1.335964	0.302245	0.394577
H94	H	0.805842	0.078836	0.066782
Cl95	Cl	1.256173	0.238987	0.814002
Cl96	Cl	0.729331	-0.039045	-0.031665
H97	H	0.756160	0.381712	0.319749
Cl98	Cl	0.600565	-0.068317	-0.056118
Cl99	Cl	1.083861	0.749357	0.276091
