data_functionalizedCrystal
_audit_creation_method	'MofGen! by Chris Wilmer'
_symmetry_space_group_name_H-M	'P1'
_symmetry_Int_Tables_number	1
_symmetry_cell_setting	triclinic
loop_
_symmetry_equiv_pos_as_xyz
  x,y,z
_cell_length_a	19.288867
_cell_length_b	9.198806
_cell_length_c	19.288865
_cell_angle_alpha	90.008409
_cell_angle_beta	83.136658
_cell_angle_gamma	90.002449
loop_
_atom_site_label
_atom_site_type_symbol
_atom_site_fract_x
_atom_site_fract_y
_atom_site_fract_z
O1	O	0.921347	0.120858	0.086653
O2	O	0.719087	0.120874	0.098340
O3	O	0.826061	0.120837	-0.008634
O4	O	0.814372	0.120896	0.193627
O5	O	0.826053	-0.120948	-0.008634
O6	O	0.719078	-0.120911	0.098340
O7	O	0.921339	-0.120927	0.086653
Cu8	Cu	0.820208	-0.142996	0.092496
Cu9	Cu	0.820218	0.142943	0.092496
O10	O	0.814364	-0.120890	0.193626
C11	C	0.693206	-0.000016	0.097964
C12	C	0.616102	-0.000011	0.096834
C13	C	0.060542	0.131766	0.088698
C14	C	0.132989	0.131772	0.089755
C15	C	0.169213	-0.000024	0.090287
C16	C	0.132986	-0.131836	0.089743
C17	C	0.060541	-0.131838	0.088679
C18	C	0.278537	-0.100986	0.132654
C19	C	0.350980	-0.100978	0.133723
C20	C	0.392659	-0.000024	0.093566
C21	C	0.361884	0.100947	0.052350
C22	C	0.289439	0.100946	0.051285
C23	C	0.247768	-0.000037	0.091440
C24	C	0.507434	0.131786	0.095251
C25	C	0.579883	0.131786	0.096304
C26	C	0.579878	-0.131826	0.096299
C27	C	0.507431	-0.131822	0.095239
C28	C	0.471213	-0.000012	0.094718
N29	N	0.820206	-0.344110	0.092496
C30	C	0.865123	-0.416322	0.047385
C31	C	0.865134	-0.583735	0.047382
C32	C	0.947219	-0.000033	0.087029
C33	C	1.024323	-0.000028	0.088159
C34	C	0.825681	-0.000060	-0.034510
C35	C	0.824552	-0.000073	-0.111614
N36	N	0.820225	0.344057	0.092492
C37	C	0.887320	-0.000085	-0.156310
C38	C	0.886259	-0.000062	-0.228757
C39	C	0.822427	-0.000056	-0.256505
C40	C	0.759651	-0.000035	-0.211799
C41	C	0.760713	-0.000044	-0.139354
C42	C	0.772244	-0.084744	-0.364793
C43	C	0.771185	-0.084744	-0.437237
C44	C	0.819147	-0.000023	-0.479951
C45	C	0.868182	0.084680	-0.450212
C46	C	0.869244	0.084672	-0.377767
C47	C	0.821268	-0.000045	-0.335059
C48	C	0.880769	-0.000008	-0.603202
C49	C	0.879706	0.000024	-0.675650
C50	C	0.753096	0.000036	-0.658691
C51	C	0.754161	0.000019	-0.586245
C52	C	0.818000	-0.000010	-0.558505
C53	C	0.814744	0.000010	0.219503
C54	C	0.815873	0.000033	0.296607
H55	H	0.609372	0.239114	0.096737
H56	H	0.932750	-0.000025	-0.580616
F57	F	0.915404	-0.664900	-0.003097
F58	F	0.685160	0.000050	-0.688218
H59	H	0.709598	-0.000034	-0.102962
H60	H	0.907237	0.153669	-0.484988
H61	H	0.477944	0.239114	0.094824
F62	F	0.769960	-0.574787	0.142980
F63	F	0.021993	-0.272119	0.088107
F64	F	0.687354	0.000026	-0.538674
F65	F	0.234187	-0.208455	0.175391
F66	F	0.022000	0.272051	0.088140
F67	F	0.171544	0.272052	0.090330
F68	F	0.721193	-0.174924	-0.319340
F69	F	0.915256	-0.335140	-0.003218
H70	H	0.930821	0.000022	-0.712042
F71	F	0.691716	-0.000019	-0.241331
F72	F	0.256688	0.208399	0.007419
F73	F	0.406235	0.208404	0.009611
H74	H	0.731255	-0.153706	-0.461444
F75	F	0.618426	-0.272095	0.096856
H76	H	0.781755	-0.406224	0.131113
H77	H	0.162484	-0.239146	0.090175
F78	F	0.468881	-0.272098	0.094674
F79	F	0.955263	-0.000084	-0.126791
F80	F	0.921425	0.174823	-0.346119
F81	F	0.383726	-0.208429	0.177594
F82	F	0.953068	-0.000072	-0.276334
