data_functionalizedCrystal
_audit_creation_method	'MofGen! by Chris Wilmer'
_symmetry_space_group_name_H-M	'P1'
_symmetry_Int_Tables_number	1
_symmetry_cell_setting	triclinic
loop_
_symmetry_equiv_pos_as_xyz
  x,y,z
_cell_length_a	10.540539
_cell_length_b	14.044220
_cell_length_c	12.503572
_cell_angle_alpha	93.843168
_cell_angle_beta	86.448196
_cell_angle_gamma	88.857185
loop_
_atom_site_label
_atom_site_type_symbol
_atom_site_fract_x
_atom_site_fract_y
_atom_site_fract_z
O1	O	1.706103	0.128248	-0.089273
O2	O	2.206103	0.628248	0.410727
O3	O	1.337964	0.140843	-0.089286
O4	O	1.837964	0.640843	0.410714
O5	O	1.516507	-0.003476	-0.089269
O6	O	2.016507	0.496524	0.410731
O7	O	1.527560	0.272567	-0.089290
O8	O	2.027560	0.772567	0.410710
O9	O	1.503082	0.007396	0.089372
O10	O	2.003082	0.507396	0.589372
O11	O	1.324539	0.151715	0.089355
O12	O	1.824539	0.651715	0.589355
O13	O	1.692677	0.139120	0.089368
O14	O	2.192677	0.639120	0.589368
Cu15	Cu	1.507382	0.146410	0.105673
Cu16	Cu	2.007382	0.646410	0.605673
Cu17	Cu	1.523259	0.133553	-0.105591
Cu18	Cu	2.023259	0.633553	0.394409
O19	O	1.514135	0.283439	0.089351
O20	O	2.014135	0.783439	0.589351
C21	C	1.504957	-0.033387	0.000052
C22	C	2.004957	0.466613	0.500052
C23	C	1.490527	-0.138711	0.000052
C24	C	1.990527	0.361289	0.500052
C25	C	1.283853	0.145334	0.000033
C26	C	1.783853	0.645334	0.500033
C27	C	1.142620	0.142508	0.000028
C28	C	1.642620	0.642508	0.500028
C29	C	1.464147	-0.331552	0.000036
C30	C	1.964147	0.168448	0.500036
C31	C	1.566490	-0.388492	0.000036
C32	C	2.066490	0.111508	0.500036
C33	C	1.551812	-0.495795	0.000027
C34	C	2.051812	0.004205	0.500027
C35	C	1.478823	-0.224238	0.000045
C36	C	1.978823	0.275762	0.500045
C37	C	0.948213	0.034244	0.000453
C38	C	1.448213	0.534244	0.500453
C39	C	1.095152	0.037084	0.000039
C40	C	1.595152	0.537084	0.500039
C41	C	1.093743	0.187034	-0.101985
C42	C	1.593743	0.687034	0.398015
C43	C	0.946840	0.183432	-0.102059
C44	C	1.446840	0.683432	0.397941
C45	C	0.931301	0.197940	0.101089
C46	C	1.431301	0.697940	0.601089
C47	C	1.078281	0.198992	0.102426
C48	C	1.578281	0.698992	0.602426
C49	C	1.746789	0.134629	0.000047
C50	C	2.246789	0.634629	0.500047
C51	C	1.888023	0.137454	0.000045
C52	C	2.388023	0.637454	0.500045
C53	C	1.525685	0.313350	0.000028
C54	C	2.025685	0.813350	0.500028
C55	C	1.540116	0.418673	0.000020
C56	C	2.040116	0.918673	0.500020
N57	N	1.496224	0.155452	0.254264
N58	N	1.996224	0.655452	0.754264
N59	N	1.534427	0.124503	-0.254182
N60	N	2.034427	0.624503	0.245818
C61	C	1.479811	0.168762	0.473377
C62	C	1.979811	0.668762	0.973377
C63	C	1.550836	0.111196	0.526711
C64	C	2.050836	0.611196	1.026711
C65	C	1.541703	0.118602	0.648634
C66	C	2.041703	0.618602	1.148634
C67	C	1.488942	0.161358	0.351444
C68	C	1.988942	0.661358	0.851444
H69	H	1.365513	-0.363389	0.000030
H70	H	1.865513	0.136611	0.500030
O71	O	1.697150	-0.346317	0.000052
O72	O	2.197150	0.153683	0.500052
H73	H	1.754951	-0.374709	-0.072761
H74	H	2.254951	0.125291	0.427239
H75	H	0.906885	0.258969	-0.106695
H76	H	1.406885	0.758969	0.393305
H77	H	1.128234	0.001614	0.073166
H78	H	1.628234	0.501614	0.573166
H79	H	1.138338	-0.007575	-0.073209
H80	H	1.638338	0.492425	0.426791
H81	H	1.412152	0.223605	0.519278
H82	H	1.912152	0.723605	1.019278
O83	O	0.897491	-0.015031	0.097361
O84	O	1.397491	0.484969	0.597361
H85	H	0.792710	-0.020446	0.095717
H86	H	1.292710	0.479554	0.595717
O87	O	0.909883	-0.026570	-0.095893
O88	O	1.409883	0.473430	0.404107
H89	H	0.848153	0.016395	-0.144071
H90	H	1.348153	0.516395	0.355929
O91	O	1.640466	0.038545	0.465910
O92	O	2.140466	0.538545	0.965910
H93	H	1.739308	0.052501	0.487418
H94	H	2.239308	0.552501	0.987418
O95	O	0.912024	0.127598	-0.203044
O96	O	1.412024	0.627598	0.296956
H97	H	1.000064	0.103418	-0.251365
H98	H	1.500064	0.603418	0.248635
O99	O	1.134101	0.289278	-0.107040
O100	O	1.634101	0.789278	0.392960
H101	H	1.189561	0.309489	-0.036732
H102	H	1.689561	0.809489	0.463268
H103	H	0.890495	0.168527	0.178413
H104	H	1.390495	0.668527	0.678413
O105	O	1.152968	0.134229	-0.202551
O106	O	1.652968	0.634229	0.297449
H107	H	1.217218	0.076266	-0.180135
H108	H	1.717218	0.576266	0.319865
O109	O	1.120056	0.155991	0.202402
O110	O	1.620056	0.655991	0.702402
H111	H	1.186370	0.094648	0.179271
H112	H	1.686370	0.594648	0.679271
H113	H	1.109815	0.276228	0.108579
H114	H	1.609815	0.776228	0.608579
O115	O	0.878862	0.298858	0.102015
O116	O	1.378862	0.798858	0.602015
H117	H	0.822245	0.305952	0.030901
H118	H	1.322245	0.805952	0.530901
