data_functionalizedCrystal
_audit_creation_method	'MofGen! by Chris Wilmer'
_symmetry_space_group_name_H-M	'P1'
_symmetry_Int_Tables_number	1
_symmetry_cell_setting	triclinic
loop_
_symmetry_equiv_pos_as_xyz
  x,y,z
_cell_length_a	17.699083
_cell_length_b	15.944551
_cell_length_c	16.176319
_cell_angle_alpha	89.992246
_cell_angle_beta	89.998611
_cell_angle_gamma	83.390877
loop_
_atom_site_label
_atom_site_type_symbol
_atom_site_fract_x
_atom_site_fract_y
_atom_site_fract_z
O1	O	1.004260	0.106222	-0.068632
O2	O	0.783905	0.120042	-0.068660
O3	O	0.900100	-0.009156	-0.068638
O4	O	0.888065	0.235419	-0.068654
O5	O	0.900084	-0.009164	0.068855
O6	O	0.783889	0.120033	0.068833
O7	O	1.004244	0.106214	0.068861
Cu8	Cu	0.894065	0.113123	0.081401
Cu9	Cu	0.894084	0.113133	-0.081200
O10	O	0.888049	0.235411	0.068839
C11	C	0.755700	0.119542	0.000083
C12	C	0.671679	0.118057	0.000073
C13	C	0.623187	0.193893	0.000068
C14	C	0.544242	0.192492	0.000079
C15	C	0.513789	0.115254	0.000089
C16	C	0.562287	0.039412	0.000096
C17	C	0.641231	0.040814	0.000091
C18	C	0.243914	0.033758	0.000117
C19	C	0.164964	0.032362	0.000119
C20	C	0.146925	0.185436	0.000105
C21	C	0.225869	0.186837	0.000100
C22	C	0.274360	0.110996	0.000112
C23	C	0.359962	0.112516	0.000102
C24	C	0.428189	0.113733	0.000093
C25	C	0.899593	-0.040453	0.000109
C26	C	0.898095	-0.133696	0.000109
C27	C	0.822492	-0.348393	0.000088
C28	C	0.857591	-0.409488	0.067885
C29	C	0.895385	-0.304416	0.000102
C30	C	0.857624	-0.409464	-0.067672
C31	C	0.892762	-0.469323	0.000092
C32	C	0.930505	-0.364283	0.067955
C33	C	0.930527	-0.364252	-0.067663
C34	C	0.965680	-0.425329	0.000150
C35	C	0.896894	-0.209417	0.000109
C36	C	0.891259	-0.564321	0.000092
C37	C	1.032450	0.106713	0.000116
C38	C	1.116471	0.108199	0.000121
C39	C	0.888557	0.266708	0.000090
C40	C	0.890055	0.359951	0.000085
N41	N	0.894058	0.113116	0.195767
N42	N	0.894098	0.113133	-0.195565
C43	C	0.945524	0.055930	0.239040
C44	C	0.945528	0.055929	0.325588
C45	C	0.894068	0.113118	0.368859
C46	C	0.842596	0.170306	0.325579
C47	C	0.842589	0.170303	0.239034
C48	C	0.842622	0.170322	0.674608
C49	C	0.842634	0.170323	0.761159
C50	C	0.945561	0.055949	0.761161
C51	C	0.945554	0.055945	0.674616
C52	C	0.894080	0.113130	0.631343
C53	C	0.894075	0.113129	0.537499
C54	C	0.894076	0.113124	0.462702
H55	H	0.504763	0.254246	0.000074
H56	H	0.826754	-0.429535	0.125194
C57	C	1.002179	-0.006964	0.808762
C58	C	1.002191	-0.006972	0.903959
C59	C	1.058809	-0.069881	0.951556
C60	C	1.115416	-0.132782	0.903958
C61	C	1.115407	-0.132777	0.808756
C62	C	1.058788	-0.069868	0.761158
H63	H	0.960285	0.039594	0.939199
H64	H	1.058816	-0.069884	1.022032
H65	H	1.157329	-0.179351	0.939192
H66	H	1.157313	-0.179342	0.773515
H67	H	1.058781	-0.069864	0.690683
H68	H	0.961339	-0.344183	-0.124975
C69	C	0.972109	-0.337377	0.145476
C70	C	0.981179	-0.243586	0.159825
C71	C	1.022779	-0.216679	0.237345
C72	C	1.055309	-0.283562	0.300518
C73	C	1.046239	-0.377358	0.286171
C74	C	1.004639	-0.404266	0.208650
H75	H	0.957099	-0.194070	0.113059
H76	H	1.029493	-0.147244	0.247966
H77	H	1.086103	-0.263643	0.357903
H78	H	1.070319	-0.426875	0.332936
H79	H	0.997925	-0.473701	0.198030
C80	C	0.259366	0.271800	0.000091
C81	C	0.206027	0.355221	0.000091
C82	C	0.239522	0.440185	0.000086
C83	C	0.326358	0.441729	0.000080
C84	C	0.379702	0.358305	0.000080
C85	C	0.346207	0.273340	0.000085
H86	H	0.141741	0.354081	0.000095
H87	H	0.200033	0.501941	0.000086
H88	H	0.351153	0.504624	0.000076
H89	H	0.443988	0.359445	0.000076
H90	H	0.385696	0.211585	0.000085
H91	H	0.140173	-0.030538	0.000128
H92	H	0.761987	-0.314958	0.000149
H93	H	0.800727	0.216895	0.796389
H94	H	1.026238	-0.458615	0.000196
C95	C	0.786010	0.233228	0.627011
C96	C	0.729428	0.296162	0.674604
C97	C	0.672814	0.359072	0.627001
C98	C	0.672782	0.359047	0.531804
C99	C	0.729366	0.296110	0.484205
C100	C	0.785979	0.233201	0.531809
H101	H	0.729450	0.296183	0.745079
H102	H	0.630928	0.405662	0.662237
H103	H	0.630873	0.405616	0.496565
H104	H	0.729344	0.296090	0.413730
H105	H	0.827866	0.186611	0.496572
C106	C	0.815971	-0.436510	-0.145103
C107	C	0.732168	-0.402121	-0.159986
C108	C	0.690509	-0.429162	-0.237412
C109	C	0.732653	-0.490593	-0.299955
C110	C	0.816461	-0.524986	-0.285074
C111	C	0.858120	-0.497944	-0.207648
H112	H	0.700966	-0.356643	-0.113687
H113	H	0.628468	-0.403703	-0.248428
H114	H	0.701814	-0.510611	-0.357270
H115	H	0.847663	-0.570463	-0.331373
H116	H	0.920161	-0.523404	-0.196632
H117	H	0.987432	0.009364	0.203814
H118	H	0.107434	0.247189	0.000100
H119	H	0.680713	-0.020940	0.000095
H120	H	0.283386	-0.027997	0.000127
H121	H	0.800693	0.216868	0.360816
H122	H	0.537486	-0.023476	0.000116
C123	C	1.002143	-0.006971	0.373193
C124	C	1.058771	-0.069857	0.325604
C125	C	1.115388	-0.132760	0.373211
C126	C	1.115377	-0.132776	0.468407
C127	C	1.058747	-0.069887	0.516002
C128	C	1.002131	-0.006984	0.468395
H129	H	1.058781	-0.069848	0.255129
H130	H	1.157309	-0.179315	0.337977
H131	H	1.157288	-0.179340	0.503649
H132	H	1.058738	-0.069896	0.586477
H133	H	0.960210	0.039571	0.503628
C134	C	0.785976	0.233209	0.191430
C135	C	0.729398	0.296146	0.239024
C136	C	0.672780	0.359052	0.191422
C137	C	0.672741	0.359021	0.096225
C138	C	0.729322	0.296082	0.048625
C139	C	0.785939	0.233176	0.096228
H140	H	0.729424	0.296171	0.309499
H141	H	0.630895	0.405643	0.226658
H142	H	0.630829	0.405587	0.060987
H143	H	0.729295	0.296057	-0.021850
H144	H	0.827824	0.186585	0.060991
H145	H	0.647975	0.256789	0.000060
H146	H	0.987460	0.009379	0.639387
