data_functionalizedCrystal
_audit_creation_method	'MofGen! by Chris Wilmer'
_symmetry_space_group_name_H-M	'P1'
_symmetry_Int_Tables_number	1
_symmetry_cell_setting	triclinic
loop_
_symmetry_equiv_pos_as_xyz
  x,y,z
_cell_length_a	12.759401
_cell_length_b	14.908178
_cell_length_c	12.759393
_cell_angle_alpha	93.331433
_cell_angle_beta	90.018713
_cell_angle_gamma	93.315511
loop_
_atom_site_label
_atom_site_type_symbol
_atom_site_fract_x
_atom_site_fract_y
_atom_site_fract_z
Zn1	Zn	1.582087	-0.359109	0.569852
Zn2	Zn	1.571835	-0.510006	0.384017
Zn3	Zn	1.406390	-0.359157	0.394184
Zn4	Zn	1.396232	-0.509943	0.559658
O5	O	1.489136	-0.434554	0.476928
O6	O	1.727748	-0.379132	0.545212
O7	O	1.549849	-0.490042	0.238341
O8	O	1.438238	-0.232895	0.426008
O9	O	1.720216	-0.489995	0.408679
O10	O	1.567322	-0.232860	0.555071
O11	O	1.428297	-0.379214	0.245811
O12	O	1.258022	-0.379153	0.416123
O13	O	1.420926	-0.489888	0.708035
O14	O	1.250559	-0.489934	0.537697
O15	O	1.557473	-0.379071	0.715524
O16	O	1.539999	-0.636253	0.398795
O17	O	1.410984	-0.636207	0.527838
C18	C	1.216169	-0.434543	0.476908
C19	C	1.099392	-0.434560	0.476923
C20	C	1.040665	-0.492331	0.540114
C21	C	0.930941	-0.492335	0.540135
C22	C	0.938679	-0.376792	0.413763
C23	C	1.048402	-0.376785	0.413749
C24	C	0.778863	-0.524709	0.661816
C25	C	0.720132	-0.582495	0.724998
C26	C	0.749806	-0.670544	0.735020
C27	C	0.838208	-0.700825	0.681844
C28	C	0.896933	-0.643044	0.618655
C29	C	0.867261	-0.554982	0.608653
C30	C	1.200481	-0.344420	0.292065
C31	C	1.259208	-0.286643	0.228870
C32	C	1.229536	-0.198592	0.218837
C33	C	1.141130	-0.168314	0.271994
C34	C	1.082403	-0.226092	0.335190
C35	C	1.112083	-0.314141	0.345224
C36	C	1.473306	-0.668966	0.461130
C37	C	1.466629	-0.769249	0.454407
C38	C	1.588398	-0.957505	0.576310
C39	C	1.582128	-1.051729	0.569996
C40	C	1.447817	-1.051925	0.435472
C41	C	1.454086	-0.957700	0.441786
C42	C	1.524380	-0.910493	0.512206
C43	C	1.530654	-0.816267	0.518513
C44	C	1.396338	-0.816464	0.383995
C45	C	1.390069	-0.910689	0.377681
C46	C	1.763168	-0.434565	0.476949
C47	C	1.879945	-0.434570	0.476957
C48	C	1.489210	-0.434467	0.750967
C49	C	1.489241	-0.434430	0.867746
C50	C	1.505057	-0.199225	0.492810
C51	C	1.511842	-0.098943	0.499579
C52	C	1.489127	-0.434575	0.203959
C53	C	1.489317	-0.434358	0.087198
C54	C	1.418166	-0.492105	0.918712
C55	C	1.418205	-0.492072	1.028439
C56	C	1.560400	-0.376680	1.036224
C57	C	1.560364	-0.376718	0.926500
C58	C	1.373515	-0.598422	1.171216
C59	C	1.302423	-0.656089	1.222186
C60	C	1.198960	-0.669948	1.185637
C61	C	1.166569	-0.626126	1.098122
C62	C	1.237656	-0.568451	1.047158
C63	C	1.341132	-0.554610	1.083703
C64	C	1.605044	-0.270368	0.783721
C65	C	1.676126	-0.212688	0.732755
C66	C	1.779591	-0.198820	0.769302
C67	C	1.811980	-0.242627	0.856822
C68	C	1.740898	-0.300306	0.907788
C69	C	1.637434	-0.314175	0.871233
H70	H	0.968908	-0.667698	0.575360
C71	C	0.622897	-0.549180	0.783496
N72	N	0.549659	-0.524091	0.827556
H73	H	1.344213	-0.778177	0.331794
C74	C	1.665723	-0.905575	0.653769
N75	N	1.723965	-0.866463	0.712114
C76	C	1.312815	-0.962627	0.300158
N77	N	1.254653	-1.001746	0.241739
H78	H	1.360247	-0.539092	0.870879
C79	C	1.096751	-0.555879	0.609615
N80	N	1.138991	-0.603742	0.661969
C81	C	1.370624	-1.103868	0.357892
N82	N	1.312530	-1.142994	0.299411
C83	C	1.487364	-0.583267	1.211350
N84	N	1.573128	-0.571878	1.241561
C85	C	1.925798	-0.227373	0.897026
N86	N	2.011528	-0.215881	0.927306
C87	C	1.491225	-0.285620	0.743510
N88	N	1.405497	-0.297104	0.713223
C89	C	1.857780	-0.135366	0.713236
N90	N	1.916673	-0.087577	0.671008
H91	H	1.634253	-1.090002	0.622202
C92	C	1.638617	-0.313188	1.100864
N93	N	1.697526	-0.265359	1.149549
C94	C	0.882579	-0.313248	0.344270
N95	N	0.840326	-0.265387	0.291924
H96	H	0.754701	-0.453009	0.653674
H97	H	1.010424	-0.201429	0.378481
C98	C	1.202033	-0.520253	0.950892
N99	N	1.175200	-0.483955	0.878378
H100	H	0.862355	-0.772527	0.690000
H101	H	1.082315	-0.637406	1.068379
H102	H	1.141077	-0.716902	1.227145
H103	H	0.701980	-0.717593	0.786465
H104	H	1.116958	-0.096622	0.263808
H105	H	1.277356	-0.151554	0.167368
H106	H	1.331192	-0.311303	0.185585
C107	C	1.233130	-0.441282	0.303099
N108	N	1.257722	-0.514238	0.311405
C109	C	1.776531	-0.348499	1.004059
N110	N	1.803371	-0.384798	1.076569
C111	C	1.607977	-0.764341	0.595977
N112	N	1.666217	-0.725233	0.654328
H113	H	1.328806	-0.691769	1.293441
H114	H	1.649744	-0.177012	0.661497
