data_functionalizedCrystal
_audit_creation_method	'MofGen! by Chris Wilmer'
_symmetry_space_group_name_H-M	'P1'
_symmetry_Int_Tables_number	1
_symmetry_cell_setting	triclinic
loop_
_symmetry_equiv_pos_as_xyz
  x,y,z
_cell_length_a	13.897447
_cell_length_b	25.639242
_cell_length_c	13.897441
_cell_angle_alpha	89.971480
_cell_angle_beta	89.971646
_cell_angle_gamma	90.015058
loop_
_atom_site_label
_atom_site_type_symbol
_atom_site_fract_x
_atom_site_fract_y
_atom_site_fract_z
Zn1	Zn	-0.384108	0.799328	-0.545645
Zn2	Zn	0.115892	1.299328	-0.045645
Zn3	Zn	-0.545427	0.799271	-0.384350
Zn4	Zn	-0.045427	1.299271	0.115650
Zn5	Zn	-0.384135	0.711894	-0.384335
Zn6	Zn	0.115865	1.211894	0.115665
Zn7	Zn	-0.545351	0.711878	-0.545575
Zn8	Zn	-0.045351	1.211878	-0.045575
O9	O	-0.464755	0.755593	-0.464976
O10	O	0.035245	1.255593	0.035024
O11	O	-0.405529	0.872485	-0.524284
O12	O	0.094471	1.372485	-0.024284
O13	O	-0.524075	0.787663	-0.249366
O14	O	-0.024075	1.287663	0.250634
O15	O	-0.249150	0.723523	-0.405757
O16	O	0.250850	1.223523	0.094243
O17	O	-0.524049	0.872443	-0.405782
O18	O	-0.024049	1.372443	0.094218
O19	O	-0.249130	0.787760	-0.524270
O20	O	0.250870	1.287760	-0.024270
O21	O	-0.405575	0.723468	-0.249356
O22	O	0.094425	1.223468	0.250644
O23	O	-0.405500	0.638727	-0.405689
O24	O	0.094500	1.138727	0.094311
O25	O	-0.523918	0.723496	-0.680566
O26	O	-0.023918	1.223496	-0.180566
O27	O	-0.523944	0.638715	-0.524150
O28	O	-0.023944	1.138715	-0.024150
O29	O	-0.405454	0.787744	-0.680617
O30	O	0.094546	1.287744	-0.180617
O31	O	-0.680399	0.787647	-0.405713
O32	O	-0.180399	1.287647	0.094287
O33	O	-0.680342	0.723440	-0.524165
O34	O	-0.180342	1.223440	-0.024165
C35	C	-0.464717	0.619750	-0.464911
C36	C	0.035283	1.119750	0.035089
C37	C	-0.464724	0.561636	-0.464906
C38	C	0.035276	1.061636	0.035094
C39	C	-0.715370	0.755550	-0.464954
C40	C	-0.215370	1.255550	0.035046
C41	C	-0.822584	0.755580	-0.464977
C42	C	-0.322584	1.255580	0.035023
C43	C	-0.909653	0.755605	-0.464999
C44	C	-0.409653	1.255605	0.035001
C45	C	-1.018886	0.755642	-0.465023
C46	C	-0.518886	1.255642	0.034977
C47	C	-0.526532	0.201276	-0.526601
C48	C	-0.026532	0.701276	-0.026601
C49	C	-0.526538	0.146671	-0.526616
C50	C	-0.026538	0.646671	-0.026616
O51	O	-0.579042	0.118437	-0.579016
O52	O	-0.079042	0.618437	-0.079016
N53	N	-0.464782	0.119353	-0.465039
N54	N	0.035218	0.619353	0.034961
C55	C	-0.403009	0.146643	-0.403450
C56	C	0.096991	0.646643	0.096550
O57	O	-0.350480	0.118393	-0.351076
O58	O	0.149520	0.618393	0.148924
C59	C	-0.402999	0.201246	-0.403440
C60	C	0.097001	0.701246	0.096560
C61	C	-0.464766	0.228561	-0.465014
C62	C	0.035234	0.728561	0.034986
C63	C	-0.588294	0.228591	-0.588171
C64	C	-0.088294	0.728591	-0.088171
C65	C	-0.588289	0.283191	-0.588154
C66	C	-0.088289	0.783191	-0.088154
C67	C	-0.526523	0.310477	-0.526567
C68	C	-0.026523	0.810477	-0.026567
C69	C	-0.464761	0.283162	-0.464998
C70	C	0.035239	0.783162	0.035002
C71	C	-0.341222	0.228534	-0.341857
C72	C	0.158778	0.728534	0.158143
C73	C	-0.341216	0.283141	-0.341853
C74	C	0.158784	0.783141	0.158147
C75	C	-0.402984	0.310456	-0.403427
C76	C	0.097016	0.810456	0.096573
C77	C	-0.402990	0.365048	-0.403394
C78	C	0.097010	0.865048	0.096606
N79	N	-0.464746	0.392366	-0.464971
N80	N	0.035254	0.892366	0.035029
C81	C	-0.526513	0.365080	-0.526558
C82	C	-0.026513	0.865080	-0.026558
C83	C	-0.403033	0.031972	-0.403476
C84	C	0.096967	0.531972	0.096524
C85	C	-0.403048	-0.022630	-0.403480
C86	C	0.096952	0.477370	0.096520
C87	C	-0.526576	-0.022598	-0.526648
C88	C	-0.026576	0.477402	-0.026648
C89	C	-0.526566	0.032006	-0.526638
C90	C	-0.026566	0.532006	-0.026638
C91	C	-0.464790	0.059290	-0.465053
C92	C	0.035210	0.559290	0.034947
C93	C	-0.526498	0.479745	-0.526517
C94	C	-0.026498	0.979745	-0.026517
C95	C	-0.526491	0.534351	-0.526492
C96	C	-0.026491	1.034351	-0.026492
C97	C	-0.402959	0.534313	-0.403329
C98	C	0.097041	1.034313	0.096671
C99	C	-0.402970	0.479713	-0.403350
C100	C	0.097030	0.979713	0.096650
C101	C	-0.464743	0.452430	-0.464952
C102	C	0.035257	0.952430	0.035048
O103	O	-0.350510	0.393317	-0.351024
O104	O	0.149490	0.893317	0.148976
O105	O	-0.579023	0.393337	-0.578932
O106	O	-0.079023	0.893337	-0.078932
C107	C	-0.213162	0.755649	-0.465020
C108	C	0.286838	1.255649	0.034980
C109	C	-0.105948	0.755674	-0.465038
C110	C	0.394052	1.255674	0.034962
C111	C	-0.464674	0.755625	-0.716569
C112	C	0.035326	1.255625	-0.216569
C113	C	-0.464640	0.755638	-0.823783
C114	C	0.035360	1.255638	-0.323783
C115	C	-0.464794	0.891966	-0.465043
C116	C	0.035206	1.391966	0.034957
C117	C	-0.464811	0.950080	-0.465071
C118	C	0.035189	1.450080	0.034929
C119	C	-0.464613	0.755649	-0.910853
C120	C	0.035387	1.255649	-0.410853
C121	C	-0.464569	0.755664	-1.020086
C122	C	0.035431	1.255664	-0.520086
C123	C	-0.464766	0.755591	-0.214362
C124	C	0.035234	1.255591	0.285638
C125	C	-0.464529	0.755678	-0.107149
C126	C	0.035471	1.255678	0.392851
H127	H	-0.576793	0.556588	-0.576634
H128	H	-0.076793	1.056588	-0.076634
H129	H	-0.638592	0.206381	-0.638327
H130	H	-0.138592	0.706381	-0.138327
Br131	Br	-0.672116	0.320253	-0.671727
Br132	Br	-0.172116	0.820253	-0.171727
Br133	Br	-0.610333	0.442727	-0.610121
Br134	Br	-0.110333	0.942727	-0.110121
H135	H	-0.576861	0.054242	-0.576779
H136	H	-0.076861	0.554242	-0.076779
Br137	Br	-0.257384	0.191478	-0.258292
Br138	Br	0.242616	0.691478	0.241708
H139	H	-0.290904	0.305354	-0.291708
H140	H	0.209096	0.805354	0.208292
Br141	Br	-0.319192	0.068996	-0.319882
Br142	Br	0.180808	0.568996	0.180118
H143	H	-0.576867	-0.044824	-0.576798
H144	H	-0.076867	0.455176	-0.076798
H145	H	-0.352676	0.457472	-0.353209
H146	H	0.147324	0.957472	0.146791
H147	H	-0.352760	-0.044866	-0.353331
H148	H	0.147240	0.455134	0.146669
H149	H	-0.352674	0.556539	-0.353184
H150	H	0.147326	1.056539	0.146816
