data_functionalizedCrystal
_audit_creation_method	'MofGen! by Chris Wilmer'
_symmetry_space_group_name_H-M	'P1'
_symmetry_Int_Tables_number	1
_symmetry_cell_setting	triclinic
loop_
_symmetry_equiv_pos_as_xyz
  x,y,z
_cell_length_a	25.639242
_cell_length_b	25.639239
_cell_length_c	25.639233
_cell_angle_alpha	90.018747
_cell_angle_beta	90.022166
_cell_angle_gamma	90.034213
loop_
_atom_site_label
_atom_site_type_symbol
_atom_site_fract_x
_atom_site_fract_y
_atom_site_fract_z
Zn1	Zn	0.799225	-0.208277	0.295742
Zn2	Zn	1.049225	0.041723	0.545742
Zn3	Zn	1.299225	0.291723	0.795742
Zn4	Zn	1.549225	0.541723	1.045742
Zn5	Zn	0.799149	-0.295696	0.208307
Zn6	Zn	1.049149	-0.045696	0.458307
Zn7	Zn	1.299149	0.204304	0.708307
Zn8	Zn	1.549149	0.454304	0.958307
Zn9	Zn	0.711801	-0.208269	0.208306
Zn10	Zn	0.961801	0.041731	0.458306
Zn11	Zn	1.211801	0.291731	0.708306
Zn12	Zn	1.461801	0.541731	0.958306
Zn13	Zn	0.711746	-0.295676	0.295696
Zn14	Zn	0.961746	-0.045676	0.545696
Zn15	Zn	1.211746	0.204324	0.795696
Zn16	Zn	1.461746	0.454324	1.045696
O17	O	0.755480	-0.251979	0.252013
O18	O	1.005480	-0.001979	0.502013
O19	O	1.255480	0.248021	0.752013
O20	O	1.505480	0.498021	1.002013
O21	O	0.872380	-0.219884	0.284163
O22	O	1.122380	0.030116	0.534163
O23	O	1.372380	0.280116	0.784163
O24	O	1.622380	0.530116	1.034163
O25	O	0.787553	-0.284103	0.135141
O26	O	1.037553	-0.034103	0.385141
O27	O	1.287553	0.215897	0.635141
O28	O	1.537553	0.465897	0.885141
O29	O	0.723453	-0.135105	0.219924
O30	O	0.973453	0.114895	0.469924
O31	O	1.223453	0.364895	0.719924
O32	O	1.473453	0.614895	0.969924
O33	O	0.872324	-0.284111	0.219924
O34	O	1.122324	-0.034111	0.469924
O35	O	1.372324	0.215889	0.719924
O36	O	1.622324	0.465889	0.969924
O37	O	0.787683	-0.135111	0.284163
O38	O	1.037683	0.114889	0.534163
O39	O	1.287683	0.364889	0.784163
O40	O	1.537683	0.614889	1.034163
O41	O	0.723379	-0.219871	0.135141
O42	O	0.973379	0.030129	0.385141
O43	O	1.223379	0.280129	0.635141
O44	O	1.473379	0.530129	0.885141
O45	O	0.638629	-0.219853	0.219880
O46	O	0.888629	0.030147	0.469880
O47	O	1.138629	0.280147	0.719880
O48	O	1.388629	0.530147	0.969880
O49	O	0.723360	-0.284078	0.368868
O50	O	0.973360	-0.034078	0.618868
O51	O	1.223360	0.215922	0.868868
O52	O	1.473360	0.465922	1.118868
O53	O	0.638589	-0.284070	0.284085
O54	O	0.888589	-0.034070	0.534085
O55	O	1.138589	0.215930	0.784085
O56	O	1.388589	0.465930	1.034085
O57	O	0.787630	-0.219866	0.368901
O58	O	1.037630	0.030134	0.618901
O59	O	1.287630	0.280134	0.868901
O60	O	1.537630	0.530134	1.118901
O61	O	0.787499	-0.368858	0.219880
O62	O	1.037499	-0.118858	0.469880
O63	O	1.287499	0.131142	0.719880
O64	O	1.537499	0.381142	0.969880
O65	O	0.723286	-0.368844	0.284085
O66	O	0.973286	-0.118844	0.534085
O67	O	1.223286	0.131156	0.784085
O68	O	1.473286	0.381156	1.034085
C69	C	0.619638	-0.251959	0.251977
C70	C	0.869638	-0.001959	0.501977
C71	C	1.119638	0.248041	0.751977
C72	C	1.369638	0.498041	1.001977
C73	C	0.561524	-0.251963	0.251975
C74	C	0.811524	-0.001963	0.501975
C75	C	1.061524	0.248037	0.751975
C76	C	1.311524	0.498037	1.001975
C77	C	0.755392	-0.387822	0.251989
C78	C	1.005392	-0.137822	0.501989
C79	C	1.255392	0.112178	0.751989
C80	C	1.505392	0.362178	1.001989
C81	C	0.755403	-0.445936	0.251996
C82	C	1.005403	-0.195936	0.501996
C83	C	1.255403	0.054064	0.751996
C84	C	1.505403	0.304064	1.001996
C85	C	0.201149	-0.285473	0.285413
C86	C	0.451149	-0.035473	0.535413
C87	C	0.701149	0.214527	0.785413
C88	C	0.951149	0.464527	1.035413
C89	C	0.146544	-0.285477	0.285421
C90	C	0.396544	-0.035477	0.535421
C91	C	0.646544	0.214523	0.785421
C92	C	0.896544	0.464523	1.035421
O93	O	0.118297	-0.313943	0.313821
O94	O	0.368297	-0.063943	0.563821
O95	O	0.618297	0.186057	0.813821
O96	O	0.868297	0.436057	1.063821
N97	N	0.119241	-0.251994	0.252047
N98	N	0.369241	-0.001994	0.502047
N99	N	0.619241	0.248006	0.752047
N100	N	0.869241	0.498006	1.002047
C101	C	0.146545	-0.218502	0.218666
C102	C	0.396545	0.031498	0.468666
C103	C	0.646545	0.281498	0.718666
C104	C	0.896545	0.531498	0.968666
O105	O	0.118308	-0.190022	0.190280
O106	O	0.368308	0.059978	0.440280
O107	O	0.618308	0.309978	0.690280
O108	O	0.868308	0.559978	0.940280
C109	C	0.201149	-0.218496	0.218661
C110	C	0.451149	0.031504	0.468661
C111	C	0.701149	0.281504	0.718661
C112	C	0.951149	0.531504	0.968661
C113	C	0.228449	-0.251985	0.252034
C114	C	0.478449	-0.001985	0.502034
C115	C	0.728449	0.248015	0.752034
C116	C	0.978449	0.498015	1.002034
C117	C	0.228449	-0.318959	0.318783
C118	C	0.478449	-0.068959	0.568783
C119	C	0.728449	0.181041	0.818783
C120	C	0.978449	0.431041	1.068783
C121	C	0.283049	-0.318956	0.318774
C122	C	0.533049	-0.068956	0.568774
C123	C	0.783049	0.181044	0.818774
C124	C	1.033049	0.431044	1.068774
C125	C	0.310350	-0.285468	0.285395
C126	C	0.560350	-0.035468	0.535395
C127	C	0.810350	0.214532	0.785395
C128	C	1.060350	0.464532	1.035395
C129	C	0.283049	-0.251983	0.252024
C130	C	0.533049	-0.001983	0.502024
C131	C	0.783049	0.248017	0.752024
C132	C	1.033049	0.498017	1.002024
C133	C	0.228452	-0.185002	0.185283
C134	C	0.478452	0.064998	0.435283
C135	C	0.728452	0.314998	0.685283
C136	C	0.978452	0.564998	0.935283
C137	C	0.283059	-0.185000	0.185281
C138	C	0.533059	0.065000	0.435281
C139	C	0.783059	0.315000	0.685281
C140	C	1.033059	0.565000	0.935281
C141	C	0.310359	-0.218488	0.218654
C142	C	0.560359	0.031512	0.468654
C143	C	0.810359	0.281512	0.718654
C144	C	1.060359	0.531512	0.968654
C145	C	0.364950	-0.218492	0.218636
C146	C	0.614950	0.031508	0.468636
C147	C	0.864950	0.281508	0.718636
C148	C	1.114950	0.531508	0.968636
N149	N	0.392253	-0.251974	0.252010
N150	N	0.642253	-0.001974	0.502010
N151	N	0.892253	0.248026	0.752010
N152	N	1.142253	0.498026	1.002010
C153	C	0.364953	-0.285463	0.285389
C154	C	0.614953	-0.035463	0.535389
C155	C	0.864953	0.214537	0.785389
C156	C	1.114953	0.464537	1.035389
C157	C	0.031875	-0.218515	0.218680
C158	C	0.281875	0.031485	0.468680
C159	C	0.531875	0.281485	0.718680
C160	C	0.781875	0.531485	0.968680
C161	C	-0.022728	-0.218523	0.218683
C162	C	0.227272	0.031477	0.468683
C163	C	0.477272	0.281477	0.718683
C164	C	0.727272	0.531477	0.968683
C165	C	-0.022725	-0.285497	0.285438
C166	C	0.227275	-0.035497	0.535438
C167	C	0.477275	0.214503	0.785438
C168	C	0.727275	0.464503	1.035438
C169	C	0.031878	-0.285492	0.285433
C170	C	0.281878	-0.035492	0.535433
C171	C	0.531878	0.214508	0.785433
C172	C	0.781878	0.464508	1.035433
C173	C	0.059178	-0.251998	0.252054
C174	C	0.309178	-0.001998	0.502054
C175	C	0.559178	0.248002	0.752054
C176	C	0.809178	0.498002	1.002054
C177	C	0.479618	-0.285455	0.285368
C178	C	0.729618	-0.035455	0.535368
C179	C	0.979618	0.214545	0.785368
C180	C	1.229618	0.464545	1.035368
C181	C	0.534223	-0.285451	0.285354
C182	C	0.784223	-0.035451	0.535354
C183	C	1.034223	0.214549	0.785354
C184	C	1.284223	0.464549	1.035354
C185	C	0.534216	-0.218475	0.218601
C186	C	0.784216	0.031525	0.468601
C187	C	1.034216	0.281525	0.718601
C188	C	1.284216	0.531525	0.968601
C189	C	0.479615	-0.218481	0.218612
C190	C	0.729615	0.031519	0.468612
C191	C	0.979615	0.281519	0.718612
C192	C	1.229615	0.531519	0.968612
C193	C	0.452318	-0.251972	0.252000
C194	C	0.702318	-0.001972	0.502000
C195	C	0.952318	0.248028	0.752000
C196	C	1.202318	0.498028	1.002000
O197	O	0.393232	-0.190038	0.190252
O198	O	0.643232	0.059962	0.440252
O199	O	0.893232	0.309962	0.690252
O200	O	1.143232	0.559962	0.940252
O201	O	0.393197	-0.313933	0.313776
O202	O	0.643197	-0.063933	0.563776
O203	O	0.893197	0.186067	0.813776
O204	O	1.143197	0.436067	1.063776
C205	C	0.789004	-0.806294	0.218638
C206	C	1.039004	-0.556294	0.468638
C207	C	1.289004	-0.306294	0.718638
C208	C	1.539004	-0.056294	0.968638
C209	C	0.789024	-0.860898	0.218645
C210	C	1.039024	-0.610898	0.468645
C211	C	1.289024	-0.360898	0.718645
C212	C	1.539024	-0.110898	0.968645
O213	O	0.817502	-0.889131	0.190257
O214	O	1.067502	-0.639131	0.440257
O215	O	1.317502	-0.389131	0.690257
O216	O	1.567502	-0.139131	0.940257
N217	N	0.755572	-0.888218	0.252048
N218	N	1.005572	-0.638218	0.502048
N219	N	1.255572	-0.388218	0.752048
N220	N	1.505572	-0.138218	1.002048
C221	C	0.722102	-0.860932	0.285449
C222	C	0.972102	-0.610932	0.535449
C223	C	1.222102	-0.360932	0.785449
C224	C	1.472102	-0.110932	1.035449
O225	O	0.693651	-0.889184	0.313861
O226	O	0.943651	-0.639184	0.563861
O227	O	1.193651	-0.389184	0.813861
O228	O	1.443651	-0.139184	1.063861
C229	C	0.722085	-0.806328	0.285444
C230	C	0.972085	-0.556328	0.535444
C231	C	1.222085	-0.306328	0.785444
C232	C	1.472085	-0.056328	1.035444
C233	C	0.755535	-0.779011	0.252036
C234	C	1.005535	-0.529011	0.502036
C235	C	1.255535	-0.279011	0.752036
C236	C	1.505535	-0.029011	1.002036
C237	C	0.822452	-0.778976	0.185233
C238	C	1.072452	-0.528976	0.435233
C239	C	1.322452	-0.278976	0.685233
C240	C	1.572452	-0.028976	0.935233
C241	C	0.822431	-0.724376	0.185226
C242	C	1.072431	-0.474376	0.435226
C243	C	1.322431	-0.224376	0.685226
C244	C	1.572431	0.025624	0.935226
C245	C	0.788962	-0.697093	0.218623
C246	C	1.038962	-0.447093	0.468623
C247	C	1.288962	-0.197093	0.718623
C248	C	1.538962	0.052907	0.968623
C249	C	0.755514	-0.724410	0.252028
C250	C	1.005514	-0.474410	0.502028
C251	C	1.255514	-0.224410	0.752028
C252	C	1.505514	0.025590	1.002028
C253	C	0.688617	-0.779042	0.318847
C254	C	0.938617	-0.529042	0.568847
C255	C	1.188617	-0.279042	0.818847
C256	C	1.438617	-0.029042	1.068847
C257	C	0.688603	-0.724435	0.318840
C258	C	0.938603	-0.474435	0.568840
C259	C	1.188603	-0.224435	0.818840
C260	C	1.438603	0.025565	1.068840
C261	C	0.722053	-0.697118	0.285432
C262	C	0.972053	-0.447118	0.535432
C263	C	1.222053	-0.197118	0.785432
C264	C	1.472053	0.052882	1.035432
C265	C	0.722024	-0.642527	0.285418
C266	C	0.972024	-0.392527	0.535418
C267	C	1.222024	-0.142527	0.785418
C268	C	1.472024	0.107473	1.035418
N269	N	0.755475	-0.615206	0.252016
N270	N	1.005475	-0.365206	0.502016
N271	N	1.255475	-0.115206	0.752016
N272	N	1.505475	0.134794	1.002016
C273	C	0.788944	-0.642490	0.218618
C274	C	1.038944	-0.392490	0.468618
C275	C	1.288944	-0.142490	0.718618
C276	C	1.538944	0.107510	0.968618
C277	C	0.722141	-0.975602	0.285457
C278	C	0.972141	-0.725602	0.535457
C279	C	1.222141	-0.475602	0.785457
C280	C	1.472141	-0.225602	1.035457
C281	C	0.722155	-1.030204	0.285459
C282	C	0.972155	-0.780204	0.535459
C283	C	1.222155	-0.530204	0.785459
C284	C	1.472155	-0.280204	1.035459
C285	C	0.789078	-1.030167	0.218656
C286	C	1.039078	-0.780167	0.468656
C287	C	1.289078	-0.530167	0.718656
C288	C	1.539078	-0.280167	0.968656
C289	C	0.789061	-0.975564	0.218652
C290	C	1.039061	-0.725564	0.468652
C291	C	1.289061	-0.475564	0.718652
C292	C	1.539061	-0.225564	0.968652
C293	C	0.755593	-0.948282	0.252055
C294	C	1.005593	-0.698282	0.502055
C295	C	1.255593	-0.448282	0.752055
C296	C	1.505593	-0.198282	1.002055
C297	C	0.788897	-0.527824	0.218605
C298	C	1.038897	-0.277824	0.468605
C299	C	1.288897	-0.027824	0.718605
C300	C	1.538897	0.222176	0.968605
C301	C	0.788872	-0.473219	0.218599
C302	C	1.038872	-0.223219	0.468599
C303	C	1.288872	0.026781	0.718599
C304	C	1.538872	0.276781	0.968599
C305	C	0.721951	-0.473261	0.285403
C306	C	0.971951	-0.223261	0.535403
C307	C	1.221951	0.026739	0.785403
C308	C	1.471951	0.276739	1.035403
C309	C	0.721974	-0.527862	0.285408
C310	C	0.971974	-0.277862	0.535408
C311	C	1.221974	-0.027862	0.785408
C312	C	1.471974	0.222138	1.035408
C313	C	0.755452	-0.555142	0.252007
C314	C	1.005452	-0.305142	0.502007
C315	C	1.255452	-0.055142	0.752007
C316	C	1.505452	0.194858	1.002007
O317	O	0.693562	-0.614260	0.313793
O318	O	0.943562	-0.364260	0.563793
O319	O	1.193562	-0.114260	0.813793
O320	O	1.443562	0.135740	1.063793
O321	O	0.817396	-0.614231	0.190216
O322	O	1.067396	-0.364231	0.440216
O323	O	1.317396	-0.114231	0.690216
O324	O	1.567396	0.135769	0.940216
C325	C	0.891853	-0.252000	0.252049
C326	C	1.141853	-0.002000	0.502049
C327	C	1.391853	0.248000	0.752049
C328	C	1.641853	0.498000	1.002049
C329	C	0.949967	-0.252009	0.252064
C330	C	1.199967	-0.002009	0.502064
C331	C	1.449967	0.247991	0.752064
C332	C	1.699967	0.497991	1.002064
C333	C	0.755497	-0.251970	0.388386
C334	C	1.005497	-0.001970	0.638386
C335	C	1.255497	0.248030	0.888386
C336	C	1.505497	0.498030	1.138386
C337	C	0.755504	-0.251966	0.446500
C338	C	1.005504	-0.001966	0.696500
C339	C	1.255504	0.248034	0.946500
C340	C	1.505504	0.498034	1.196500
C341	C	0.755583	-0.115606	0.252048
C342	C	1.005583	0.134394	0.502048
C343	C	1.255583	0.384394	0.752048
C344	C	1.505583	0.634394	1.002048
C345	C	0.755627	-0.057492	0.252064
C346	C	1.005627	0.192508	0.502064
C347	C	1.255627	0.442508	0.752064
C348	C	1.505627	0.692508	1.002064
C349	C	0.755494	-0.251951	0.116170
C350	C	1.005494	-0.001951	0.366170
C351	C	1.255494	0.248049	0.616170
C352	C	1.505494	0.498049	0.866170
C353	C	0.755588	-0.251807	0.058057
C354	C	1.005588	-0.001807	0.308057
C355	C	1.255588	0.248193	0.558057
C356	C	1.505588	0.498193	0.808057
C357	C	0.789012	-0.218432	0.806886
C358	C	1.039012	0.031568	1.056886
C359	C	1.289012	0.281568	1.306886
C360	C	1.539012	0.531568	1.556886
C361	C	0.789019	-0.218417	0.861491
C362	C	1.039019	0.031583	1.111491
C363	C	1.289019	0.281583	1.361491
C364	C	1.539019	0.531583	1.611491
O365	O	0.817466	-0.189967	0.889747
O366	O	1.067466	0.060033	1.139747
O367	O	1.317466	0.310033	1.389747
O368	O	1.567466	0.560033	1.639747
N369	N	0.755562	-0.251844	0.888783
N370	N	1.005562	-0.001844	1.138783
N371	N	1.255562	0.248156	1.388783
N372	N	1.505562	0.498156	1.638783
C373	C	0.722093	-0.285283	0.861468
C374	C	0.972093	-0.035283	1.111468
C375	C	1.222093	0.214717	1.361468
C376	C	1.472093	0.464717	1.611468
O377	O	0.693636	-0.313713	0.889695
O378	O	0.943636	-0.063713	1.139695
O379	O	1.193636	0.186287	1.389695
O380	O	1.443636	0.436287	1.639695
C381	C	0.722084	-0.285294	0.806864
C382	C	0.972084	-0.035294	1.056864
C383	C	1.222084	0.214706	1.306864
C384	C	1.472084	0.464706	1.556864
C385	C	0.755547	-0.251870	0.779575
C386	C	1.005547	-0.001870	1.029575
C387	C	1.255547	0.248130	1.279575
C388	C	1.505547	0.498130	1.529575
C389	C	0.822472	-0.185009	0.779597
C390	C	1.072472	0.064991	1.029597
C391	C	1.322472	0.314991	1.279597
C392	C	1.572472	0.564991	1.529597
C393	C	0.822466	-0.185025	0.724997
C394	C	1.072466	0.064975	0.974997
C395	C	1.322466	0.314975	1.224997
C396	C	1.572466	0.564975	1.474997
C397	C	0.789000	-0.218462	0.697685
C398	C	1.039000	0.031538	0.947685
C399	C	1.289000	0.281538	1.197685
C400	C	1.539000	0.531538	1.447685
C401	C	0.755541	-0.251885	0.724974
C402	C	1.005541	-0.001885	0.974974
C403	C	1.255541	0.248115	1.224974
C404	C	1.505541	0.498115	1.474974
C405	C	0.688613	-0.318731	0.779550
C406	C	0.938613	-0.068731	1.029550
C407	C	1.188613	0.181269	1.279550
C408	C	1.438613	0.431269	1.529550
C409	C	0.688607	-0.318739	0.724943
C410	C	0.938607	-0.068739	0.974943
C411	C	1.188607	0.181261	1.224943
C412	C	1.438607	0.431261	1.474943
C413	C	0.722069	-0.285314	0.697654
C414	C	0.972069	-0.035314	0.947654
C415	C	1.222069	0.214686	1.197654
C416	C	1.472069	0.464686	1.447654
C417	C	0.722070	-0.285338	0.643063
C418	C	0.972070	-0.035338	0.893063
C419	C	1.222070	0.214662	1.143063
C420	C	1.472070	0.464662	1.393063
N421	N	0.755526	-0.251912	0.615771
N422	N	1.005526	-0.001912	0.865771
N423	N	1.255526	0.248088	1.115771
N424	N	1.505526	0.498088	1.365771
C425	C	0.788992	-0.218474	0.643082
C426	C	1.038992	0.031526	0.893082
C427	C	1.288992	0.281526	1.143082
C428	C	1.538992	0.531526	1.393082
C429	C	0.722113	-0.285256	0.976138
C430	C	0.972113	-0.035256	1.226138
C431	C	1.222113	0.214744	1.476138
C432	C	1.472113	0.464744	1.726138
C433	C	0.722124	-0.285247	1.030741
C434	C	0.972124	-0.035247	1.280741
C435	C	1.222124	0.214753	1.530741
C436	C	1.472124	0.464753	1.780741
C437	C	0.789049	-0.218381	1.030760
C438	C	1.039049	0.031619	1.280760
C439	C	1.289049	0.281619	1.530760
C440	C	1.539049	0.531619	1.780760
C441	C	0.789041	-0.218392	0.976157
C442	C	1.039041	0.031608	1.226157
C443	C	1.289041	0.281608	1.476157
C444	C	1.539041	0.531608	1.726157
C445	C	0.755570	-0.251829	0.948846
C446	C	1.005570	-0.001829	1.198846
C447	C	1.255570	0.248171	1.448846
C448	C	1.505570	0.498171	1.698846
C449	C	0.788977	-0.218509	0.528417
C450	C	1.038977	0.031491	0.778417
C451	C	1.288977	0.281491	1.028417
C452	C	1.538977	0.531491	1.278417
C453	C	0.788970	-0.218529	0.473811
C454	C	1.038970	0.031471	0.723811
C455	C	1.288970	0.281471	0.973811
C456	C	1.538970	0.531471	1.223811
C457	C	0.722043	-0.285393	0.473797
C458	C	0.972043	-0.035393	0.723797
C459	C	1.222043	0.214607	0.973797
C460	C	1.472043	0.464607	1.223797
C461	C	0.722052	-0.285375	0.528397
C462	C	0.972052	-0.035375	0.778397
C463	C	1.222052	0.214625	1.028397
C464	C	1.472052	0.464625	1.278397
C465	C	0.755521	-0.251929	0.555706
C466	C	1.005521	-0.001929	0.805706
C467	C	1.255521	0.248071	1.055706
C468	C	1.505521	0.498071	1.305706
O469	O	0.693635	-0.313773	0.614771
O470	O	0.943635	-0.063773	0.864771
O471	O	1.193635	0.186227	1.114771
O472	O	1.443635	0.436227	1.364771
O473	O	0.817439	-0.190044	0.614847
O474	O	1.067439	0.059956	0.864847
O475	O	1.317439	0.309956	1.114847
O476	O	1.567439	0.559956	1.364847
H477	H	0.556449	-0.312723	0.312530
H478	H	0.806449	-0.062723	0.562530
H479	H	1.056449	0.187277	0.812530
H480	H	1.306449	0.437277	1.062530
C481	C	0.449599	-0.322301	0.322092
C482	C	0.699599	-0.072301	0.572092
C483	C	0.949599	0.177699	0.822092
C484	C	1.199599	0.427699	1.072092
N485	N	0.426988	-0.350057	0.349750
N486	N	0.676988	-0.100057	0.599750
N487	N	0.926988	0.149943	0.849750
N488	N	1.176988	0.399943	1.099750
H489	H	0.661364	-0.345949	0.801759
H490	H	0.911364	-0.095949	1.051759
H491	H	1.161364	0.154051	1.301759
H492	H	1.411364	0.404051	1.551759
C493	C	0.685176	-0.557912	0.322156
C494	C	0.935176	-0.307912	0.572156
C495	C	1.185176	-0.057912	0.822156
C496	C	1.435176	0.192088	1.072156
N497	N	0.657462	-0.580542	0.349840
N498	N	0.907462	-0.330542	0.599840
N499	N	1.157462	-0.080542	0.849840
N500	N	1.407462	0.169458	1.099840
C501	C	0.061903	-0.322328	0.322148
C502	C	0.311903	-0.072328	0.572148
C503	C	0.561903	0.177672	0.822148
C504	C	0.811903	0.427672	1.072148
N505	N	0.084516	-0.350074	0.349805
N506	N	0.334516	-0.100074	0.599805
N507	N	0.584516	0.149926	0.849805
N508	N	0.834516	0.399926	1.099805
H509	H	0.556454	-0.191211	0.191422
H510	H	0.806454	0.058789	0.441422
H511	H	1.056454	0.308789	0.691422
H512	H	1.306454	0.558789	0.941422
H513	H	0.849709	-0.801185	0.158037
H514	H	1.099709	-0.551185	0.408037
H515	H	1.349709	-0.301185	0.658037
H516	H	1.599709	-0.051185	0.908037
C517	C	0.859270	-0.148247	0.694986
C518	C	1.109270	0.101753	0.944986
C519	C	1.359270	0.351753	1.194986
C520	C	1.609270	0.601753	1.444986
N521	N	0.886991	-0.120541	0.672385
N522	N	1.136991	0.129459	0.922385
N523	N	1.386991	0.379459	1.172385
N524	N	1.636991	0.629459	1.422385
C525	C	0.198427	-0.355808	0.355501
C526	C	0.448427	-0.105808	0.605501
C527	C	0.698427	0.144192	0.855501
C528	C	0.948427	0.394192	1.105501
N529	N	0.175818	-0.383569	0.383154
N530	N	0.425818	-0.133569	0.633154
N531	N	0.675818	0.116431	0.883154
N532	N	0.925818	0.366431	1.133154
H533	H	0.816300	-0.953325	0.191448
H534	H	1.066300	-0.703325	0.441448
H535	H	1.316300	-0.453325	0.691448
H536	H	1.566300	-0.203325	0.941448
H537	H	0.694798	-0.312619	0.451550
H538	H	0.944798	-0.062619	0.701550
H539	H	1.194798	0.187381	0.951550
H540	H	1.444798	0.437381	1.201550
H541	H	0.816221	-0.191310	0.451595
H542	H	1.066221	0.058690	0.701595
H543	H	1.316221	0.308690	0.951595
H544	H	1.566221	0.558690	1.201595
H545	H	0.661345	-0.345963	0.702710
H546	H	0.911345	-0.095963	0.952710
H547	H	1.161345	0.154037	1.202710
H548	H	1.411345	0.404037	1.452710
C549	C	0.685245	-0.322147	0.558416
C550	C	0.935245	-0.072147	0.808416
C551	C	1.185245	0.177853	1.058416
C552	C	1.435245	0.427853	1.308416
N553	N	0.657517	-0.349841	0.581023
N554	N	0.907517	-0.099841	0.831023
N555	N	1.157517	0.150159	1.081023
N556	N	1.407517	0.400159	1.331023
H557	H	0.694912	-1.052442	0.312659
H558	H	0.944912	-0.802442	0.562659
H559	H	1.194912	-0.552442	0.812659
H560	H	1.444912	-0.302442	1.062659
H561	H	0.816333	-1.052391	0.191464
H562	H	1.066333	-0.802391	0.441464
H563	H	1.316333	-0.552391	0.691464
H564	H	1.566333	-0.302391	0.941464
C565	C	0.685323	-0.945597	0.322207
C566	C	0.935323	-0.695597	0.572207
C567	C	1.185323	-0.445597	0.822207
C568	C	1.435323	-0.195597	1.072207
N569	N	0.657595	-0.922999	0.349890
N570	N	0.907595	-0.672999	0.599890
N571	N	1.157595	-0.422999	0.849890
N572	N	1.407595	-0.172999	1.099890
H573	H	-0.044963	-0.312763	0.312619
H574	H	0.205037	-0.062763	0.562619
H575	H	0.455037	0.187237	0.812619
H576	H	0.705037	0.437237	1.062619
H577	H	0.206233	-0.157734	0.158106
H578	H	0.456233	0.092266	0.408106
H579	H	0.706233	0.342266	0.658106
H580	H	0.956233	0.592266	0.908106
C581	C	0.313072	-0.355794	0.355489
C582	C	0.563072	-0.105794	0.605489
C583	C	0.813072	0.144206	0.855489
C584	C	1.063072	0.394206	1.105489
N585	N	0.335682	-0.383542	0.383146
N586	N	0.585682	-0.133542	0.633146
N587	N	0.835682	0.116458	0.883146
N588	N	1.085682	0.366458	1.133146
C589	C	0.449584	-0.181646	0.181897
C590	C	0.699584	0.068354	0.431897
C591	C	0.949584	0.318354	0.681897
C592	C	1.199584	0.568354	0.931897
N593	N	0.426969	-0.153897	0.154245
N594	N	0.676969	0.096103	0.404245
N595	N	0.926969	0.346103	0.654245
N596	N	1.176969	0.596103	0.904245
C597	C	0.825798	-0.181719	0.558448
C598	C	1.075798	0.068281	0.808448
C599	C	1.325798	0.318281	1.058448
C600	C	1.575798	0.568281	1.308448
N601	N	0.853534	-0.154012	0.581068
N602	N	1.103534	0.095988	0.831068
N603	N	1.353534	0.345988	1.081068
N604	N	1.603534	0.595988	1.331068
H605	H	0.816111	-0.450979	0.191392
H606	H	1.066111	-0.200979	0.441392
H607	H	1.316111	0.049021	0.691392
H608	H	1.566111	0.299021	0.941392
H609	H	0.849670	-0.702137	0.158024
H610	H	1.099670	-0.452137	0.408024
H611	H	1.349670	-0.202137	0.658024
H612	H	1.599670	0.047863	0.908024
C613	C	-0.052752	-0.181686	0.181967
C614	C	0.197248	0.068314	0.431967
C615	C	0.447248	0.318314	0.681967
C616	C	0.697248	0.568314	0.931967
N617	N	-0.075364	-0.153936	0.154314
N618	N	0.174636	0.096064	0.404314
N619	N	0.424636	0.346064	0.654314
N620	N	0.674636	0.596064	0.904314
H621	H	0.661376	-0.801275	0.346049
H622	H	0.911376	-0.551275	0.596049
H623	H	1.161376	-0.301275	0.846049
H624	H	1.411376	-0.051275	1.096049
H625	H	0.694699	-0.451039	0.312594
H626	H	0.944699	-0.201039	0.562594
H627	H	1.194699	0.048961	0.812594
H628	H	1.444699	0.298961	1.062594
H629	H	0.661350	-0.702225	0.346042
H630	H	0.911350	-0.452225	0.596042
H631	H	1.161350	-0.202225	0.846042
H632	H	1.411350	0.047775	1.096042
H633	H	0.849723	-0.157777	0.801828
H634	H	1.099723	0.092223	1.051828
H635	H	1.349723	0.342223	1.301828
H636	H	1.599723	0.592223	1.551828
H637	H	0.816288	-0.191174	0.953941
H638	H	1.066288	0.058826	1.203941
H639	H	1.316288	0.308826	1.453941
H640	H	1.566288	0.558826	1.703941
H641	H	0.816298	-0.191153	1.053007
H642	H	1.066298	0.058847	1.303007
H643	H	1.316298	0.308847	1.553007
H644	H	1.566298	0.558847	1.803007
H645	H	0.694881	-0.312471	1.052955
H646	H	0.944881	-0.062471	1.302955
H647	H	1.194881	0.187529	1.552955
H648	H	1.444881	0.437529	1.802955
H649	H	0.694857	-0.312487	0.953905
H650	H	0.944857	-0.062487	1.203905
H651	H	1.194857	0.187513	1.453905
H652	H	1.444857	0.437513	1.703905
C653	C	0.061899	-0.181674	0.181953
C654	C	0.311899	0.068326	0.431953
C655	C	0.561899	0.318326	0.681953
C656	C	0.811899	0.568326	0.931953
N657	N	0.084511	-0.153925	0.154289
N658	N	0.334511	0.096075	0.404289
N659	N	0.584511	0.346075	0.654289
N660	N	0.834511	0.596075	0.904289
C661	C	0.825721	-0.557825	0.181859
C662	C	1.075721	-0.307825	0.431859
C663	C	1.325721	-0.057825	0.681859
C664	C	1.575721	0.192175	0.931859
N665	N	0.853454	-0.580421	0.154179
N666	N	1.103454	-0.330421	0.404179
N667	N	1.353454	-0.080421	0.654179
N668	N	1.603454	0.169579	0.904179
C669	C	0.313085	-0.148154	0.148559
C670	C	0.563085	0.101846	0.398559
C671	C	0.813085	0.351846	0.648559
C672	C	1.063085	0.601846	0.898559
N673	N	0.335699	-0.120404	0.120899
N674	N	0.585699	0.129596	0.370899
N675	N	0.835699	0.379596	0.620899
N676	N	1.085699	0.629596	0.870899
