data_functionalizedCrystal
_audit_creation_method	'MofGen! by Chris Wilmer'
_symmetry_space_group_name_H-M	'P1'
_symmetry_Int_Tables_number	1
_symmetry_cell_setting	triclinic
loop_
_symmetry_equiv_pos_as_xyz
  x,y,z
_cell_length_a	14.908571
_cell_length_b	16.625545
_cell_length_c	14.908308
_cell_angle_alpha	86.733823
_cell_angle_beta	89.824947
_cell_angle_gamma	86.721711
loop_
_atom_site_label
_atom_site_type_symbol
_atom_site_fract_x
_atom_site_fract_y
_atom_site_fract_z
Zn1	Zn	1.345254	-0.420777	0.587574
Zn2	Zn	1.845254	0.079223	1.087574
Zn3	Zn	1.353821	-0.548312	0.437212
Zn4	Zn	1.853821	-0.048312	0.937212
Zn5	Zn	1.203571	-0.405290	0.428572
Zn6	Zn	1.703571	0.094710	0.928572
Zn7	Zn	1.194849	-0.547354	0.578863
Zn8	Zn	1.694849	-0.047354	1.078863
O9	O	1.274374	-0.480433	0.508055
O10	O	1.774374	0.019567	1.008055
O11	O	1.472216	-0.444577	0.574889
O12	O	1.972216	0.055423	1.074889
O13	O	1.341126	-0.523259	0.310241
O14	O	1.841126	-0.023259	0.810241
O15	O	1.222429	-0.294517	0.449694
O16	O	1.722429	0.205483	0.949694
O17	O	1.478510	-0.538276	0.464419
O18	O	1.978510	-0.038276	0.964419
O19	O	1.326523	-0.305895	0.566512
O20	O	1.826523	0.194105	1.066512
O21	O	1.230737	-0.418182	0.303894
O22	O	1.730737	0.081818	0.803894
O23	O	1.076588	-0.417253	0.441247
O24	O	1.576588	0.082747	0.941247
O25	O	1.207565	-0.536644	0.705843
O26	O	1.707565	-0.036644	1.205843
O27	O	1.070181	-0.521626	0.551666
O28	O	1.570181	-0.021626	1.051666
O29	O	1.318067	-0.443648	0.712243
O30	O	1.818067	0.056352	1.212243
O31	O	1.332669	-0.661012	0.455973
O32	O	1.832669	-0.161012	0.955973
O33	O	1.215873	-0.660308	0.560043
O34	O	1.715873	-0.160308	1.060043
C35	C	1.040760	-0.467656	0.494574
C36	C	1.540760	0.032344	0.994574
C37	C	0.940817	-0.462210	0.488829
C38	C	1.440817	0.037790	0.988829
C39	C	0.746400	-0.560813	0.592856
C40	C	1.246400	-0.060813	1.092856
C41	C	0.652495	-0.555699	0.587460
C42	C	1.152495	-0.055699	1.087460
C43	C	0.659100	-0.446864	0.472647
C44	C	1.159100	0.053136	0.972647
C45	C	0.753005	-0.451979	0.478042
C46	C	1.253005	0.048021	0.978042
C47	C	0.796652	-0.508956	0.538148
C48	C	1.296652	-0.008956	1.038148
C49	C	0.890559	-0.514073	0.543538
C50	C	1.390559	-0.014073	1.043538
C51	C	0.897162	-0.405235	0.428730
C52	C	1.397162	0.094765	0.928730
C53	C	0.803257	-0.400121	0.423335
C54	C	1.303257	0.099879	0.923335
C55	C	1.274278	-0.689917	0.508021
C56	C	1.774278	-0.189917	1.008021
C57	C	1.274317	-0.779542	0.508042
C58	C	1.774317	-0.279542	1.008042
C59	C	1.274351	-0.852327	0.508062
C60	C	1.774351	-0.352327	1.008062
C61	C	1.274402	-0.943639	0.508084
C62	C	1.774402	-0.443639	1.008084
C63	C	1.274448	-1.016419	0.508098
C64	C	1.774448	-0.516419	1.008098
C65	C	1.274499	-1.107737	0.508120
C66	C	1.774499	-0.607737	1.008120
C67	C	1.508900	-0.493261	0.521589
C68	C	2.008900	0.006739	1.021589
C69	C	1.608841	-0.498728	0.527357
C70	C	2.108841	0.001272	1.027357
C71	C	1.260888	-0.491767	0.742580
C72	C	1.760888	0.008233	1.242580
C73	C	1.255140	-0.496596	0.842521
C74	C	1.755140	0.003404	1.342521
C75	C	1.274494	-0.270133	0.508110
C76	C	1.774494	0.229867	1.008110
C77	C	1.274545	-0.180516	0.508134
C78	C	1.774545	0.319484	1.008134
C79	C	1.287859	-0.469089	0.274446
C80	C	1.787859	0.030911	0.774446
C81	C	1.293781	-0.464041	0.174516
C82	C	1.793781	0.035959	0.674516
C83	C	1.359404	-0.408817	1.036985
C84	C	1.859404	0.091183	1.536985
C85	C	1.354007	-0.413352	1.130889
C86	C	1.854007	0.086648	1.630889
C87	C	1.238945	-0.510197	1.124232
C88	C	1.738945	-0.010197	1.624232
C89	C	1.244342	-0.505662	1.030329
C90	C	1.744342	-0.005662	1.530329
C91	C	1.304575	-0.454971	0.986709
C92	C	1.804575	0.045029	1.486709
C93	C	1.309976	-0.450441	0.892804
C94	C	1.809976	0.049559	1.392804
C95	C	1.194910	-0.547281	0.886149
C96	C	1.694910	-0.047281	1.386149
C97	C	1.189513	-0.551816	0.980053
C98	C	1.689513	-0.051816	1.480053
H99	H	0.938087	-0.363010	0.384181
H100	H	1.438087	0.136990	0.884181
H101	H	0.781938	-0.607211	0.641791
H102	H	1.281938	-0.107211	1.141791
C103	C	1.220309	-0.623052	1.229112
C104	C	1.720309	-0.123052	1.729112
C105	C	1.172733	-0.565901	1.172195
C106	C	1.672733	-0.065901	1.672195
H107	H	1.179429	-0.657440	1.258719
H108	H	1.679429	-0.157440	1.758719
H109	H	1.252190	-0.596209	1.272482
H110	H	1.752190	-0.096209	1.772482
H111	H	1.261565	-0.654276	1.194730
H112	H	1.761565	-0.154276	1.694730
H113	H	1.131482	-0.534673	1.206578
H114	H	1.631482	-0.034673	1.706578
H115	H	1.140838	-0.592746	1.128819
H116	H	1.640838	-0.092746	1.628819
C117	C	0.655402	-0.663791	0.701488
C118	C	1.155402	-0.163791	1.201488
C119	C	0.597257	-0.612704	0.647595
C120	C	1.097257	-0.112704	1.147595
H121	H	0.621299	-0.698986	0.738611
H122	H	1.121299	-0.198986	1.238611
H123	H	0.690065	-0.632366	0.738049
H124	H	1.190065	-0.132366	1.238049
H125	H	0.694268	-0.694678	0.664348
H126	H	1.194268	-0.194678	1.164348
H127	H	0.558396	-0.581812	0.684735
H128	H	1.058396	-0.081812	1.184735
H129	H	0.562579	-0.644132	0.611030
H130	H	1.062579	-0.144132	1.111030
C131	C	0.910748	-0.562472	0.697382
C132	C	1.410748	-0.062472	1.197382
C133	C	0.938540	-0.576696	0.609608
C134	C	1.438540	-0.076696	1.109608
H135	H	0.940373	-0.601130	0.738173
H136	H	1.440373	-0.101130	1.238173
H137	H	0.847638	-0.566851	0.701992
H138	H	1.347638	-0.066851	1.201992
H139	H	0.925401	-0.509791	0.711513
H140	H	1.425401	-0.009791	1.211513
H141	H	0.923881	-0.629375	0.595475
H142	H	1.423881	-0.129375	1.095475
H143	H	1.001664	-0.572325	0.604995
H144	H	1.501664	-0.072325	1.104995
H145	H	0.623546	-0.400472	0.423718
H146	H	1.123546	0.099528	0.923718
C147	C	1.170899	-0.664688	1.084910
C148	C	1.670899	-0.164688	1.584910
C149	C	1.123311	-0.607536	1.028004
C150	C	1.623311	-0.107536	1.528004
H151	H	1.130028	-0.699091	1.114507
H152	H	1.630028	-0.199091	1.614507
H153	H	1.202770	-0.637846	1.128289
H154	H	1.702770	-0.137846	1.628289
H155	H	1.212165	-0.695896	1.050522
H156	H	1.712165	-0.195896	1.550522
H157	H	1.082050	-0.576324	1.062394
H158	H	1.582050	-0.076324	1.562394
H159	H	1.091425	-0.634380	0.984620
H160	H	1.591425	-0.134380	1.484620
H161	H	0.767707	-0.353730	0.374401
H162	H	1.267707	0.146270	0.874401
C163	C	1.423157	-0.355161	0.908819
C164	C	1.923157	0.144839	1.408819
C165	C	1.376177	-0.394719	0.844854
C166	C	1.876177	0.105281	1.344854
H167	H	1.464021	-0.320755	0.879216
H168	H	1.964021	0.179245	1.379216
H169	H	1.455429	-0.393937	0.947417
H170	H	1.955429	0.106063	1.447417
H171	H	1.381878	-0.323953	0.943193
H172	H	1.881878	0.176047	1.443193
H173	H	1.417455	-0.425931	0.810484
H174	H	1.917455	0.074069	1.310484
H175	H	1.343903	-0.355938	0.806240
H176	H	1.843903	0.144062	1.306240
C177	C	1.360482	-0.310676	1.237226
C178	C	1.860482	0.189324	1.737226
C179	C	1.414277	-0.362616	1.186151
C180	C	1.914277	0.137384	1.686151
H181	H	1.397693	-0.279348	1.271337
H182	H	1.897693	0.220652	1.771337
H183	H	1.323853	-0.341513	1.276644
H184	H	1.823853	0.158487	1.776644
H185	H	1.323429	-0.275930	1.198329
H186	H	1.823429	0.224070	1.698329
H187	H	1.451325	-0.397366	1.225048
H188	H	1.951325	0.102634	1.725048
H189	H	1.450922	-0.331776	1.146728
H190	H	1.950922	0.168224	1.646728
C191	C	1.152090	-0.583335	0.739248
C192	C	1.652090	-0.083335	1.239248
C193	C	1.134635	-0.598017	0.830883
C194	C	1.634635	-0.098017	1.330883
H195	H	1.114878	-0.614656	0.705131
H196	H	1.614878	-0.114656	1.205131
H197	H	1.213376	-0.597694	0.727349
H198	H	1.713376	-0.097694	1.227349
H199	H	1.139840	-0.527698	0.723118
H200	H	1.639840	-0.027698	1.223118
H201	H	1.146892	-0.653653	0.847015
H202	H	1.646892	-0.153653	1.347015
H203	H	1.073336	-0.583663	0.842788
H204	H	1.573336	-0.083663	1.342788
H205	H	1.408452	-0.367547	1.001470
H206	H	1.908452	0.132453	1.501470
