data_functionalizedCrystal
_audit_creation_method	'MofGen! by Chris Wilmer'
_symmetry_space_group_name_H-M	'P1'
_symmetry_Int_Tables_number	1
_symmetry_cell_setting	triclinic
loop_
_symmetry_equiv_pos_as_xyz
  x,y,z
_cell_length_a	19.188930
_cell_length_b	19.188940
_cell_length_c	18.266242
_cell_angle_alpha	89.994424
_cell_angle_beta	90.022820
_cell_angle_gamma	96.853253
loop_
_atom_site_label
_atom_site_type_symbol
_atom_site_fract_x
_atom_site_fract_y
_atom_site_fract_z
O1	O	0.926152	-0.087167	0.061117
O2	O	1.426152	0.412833	0.561117
O3	O	0.722841	-0.098901	0.061067
O4	O	1.222841	0.401099	0.561067
O5	O	0.830361	0.008621	0.061088
O6	O	1.330361	0.508621	0.561088
O7	O	0.818633	-0.194689	0.061096
O8	O	1.318633	0.305311	0.561096
O9	O	0.830342	0.008624	-0.060674
O10	O	1.330342	0.508624	0.439326
O11	O	0.722823	-0.098898	-0.060695
O12	O	1.222823	0.401102	0.439305
O13	O	0.926134	-0.087164	-0.060645
O14	O	1.426134	0.412836	0.439355
Zn15	Zn	0.824476	-0.093031	-0.080002
Zn16	Zn	1.324476	0.406969	0.419998
Zn17	Zn	0.824500	-0.093035	0.080424
Zn18	Zn	1.324500	0.406965	0.580424
O19	O	0.818615	-0.194686	-0.060666
O20	O	1.318615	0.305314	0.439334
C21	C	0.696821	-0.098520	0.000179
C22	C	1.196821	0.401480	0.500179
C23	C	0.619317	-0.097379	0.000160
C24	C	1.119317	0.402621	0.500160
C25	C	0.829970	0.034633	0.000207
C26	C	1.329970	0.534633	0.500207
C27	C	0.828827	0.112138	0.000207
C28	C	1.328827	0.612138	0.500207
C29	C	0.819005	-0.220699	0.000217
C30	C	1.319005	0.279301	0.500217
C31	C	0.820148	-0.298203	0.000221
C32	C	1.320148	0.201797	0.500221
C33	C	0.574395	-0.160470	0.000174
C34	C	1.074395	0.339530	0.500174
C35	C	0.501571	-0.159398	0.000182
C36	C	1.001571	0.340602	0.500182
C37	C	0.473672	-0.095232	0.000191
C38	C	0.973672	0.404768	0.500191
C39	C	0.518604	-0.032133	0.000173
C40	C	1.018604	0.467867	0.500173
C41	C	0.591426	-0.033207	0.000157
C42	C	1.091426	0.466793	0.500157
N43	N	0.365697	-0.046186	0.041659
N44	N	0.865697	0.453814	0.541659
N45	N	0.296518	-0.045171	0.041675
N46	N	0.796518	0.454829	0.541675
C47	C	0.254264	-0.091994	0.000236
C48	C	0.754264	0.408006	0.500236
N49	N	0.283800	-0.139882	-0.041212
N50	N	0.783800	0.360118	0.458788
N51	N	0.352985	-0.140899	-0.041225
N52	N	0.852985	0.359101	0.458775
C53	C	0.394710	-0.094061	0.000207
C54	C	0.894710	0.405939	0.500207
C55	C	0.130377	-0.153927	0.000257
C56	C	0.630377	0.346073	0.500257
C57	C	0.057553	-0.152853	0.000261
C58	C	0.557553	0.347147	0.500261
C59	C	0.074587	-0.025586	0.000259
C60	C	0.574587	0.474414	0.500259
C61	C	0.147410	-0.026662	0.000248
C62	C	0.647410	0.473338	0.500248
C63	C	0.175301	-0.090835	0.000251
C64	C	0.675301	0.409165	0.500251
C65	C	0.952154	-0.087546	0.000244
C66	C	1.452154	0.412454	0.500244
C67	C	1.029659	-0.088686	0.000268
C68	C	1.529659	0.411314	0.500268
C69	C	0.820683	0.665399	-0.066150
C70	C	1.320683	1.165399	0.433850
C71	C	0.821749	0.592574	-0.066154
C72	C	1.321749	1.092574	0.433846
C73	C	0.822296	0.556153	0.000218
C74	C	1.322296	1.056153	0.500218
C75	C	0.821758	0.592560	0.066598
C76	C	1.321758	1.092560	0.566598
C77	C	0.820684	0.665382	0.066600
C78	C	1.320684	1.165382	0.566600
N79	N	0.863720	0.447128	0.049630
N80	N	1.363720	0.947128	0.549630
N81	N	0.864741	0.377950	0.049623
N82	N	1.364741	0.877950	0.549623
C83	C	0.825530	0.336744	0.000216
C84	C	1.325530	0.836744	0.500216
N85	N	0.785267	0.367330	-0.049196
N86	N	1.285267	0.867330	0.450804
N87	N	0.784248	0.436514	-0.049192
N88	N	1.284248	0.936514	0.450808
C89	C	0.823460	0.477189	0.000223
C90	C	1.323460	0.977189	0.500223
C91	C	0.827219	0.221380	-0.066164
C92	C	1.327219	0.721380	0.433836
C93	C	0.828282	0.148554	-0.066166
C94	C	1.328282	0.648554	0.433834
C95	C	0.828297	0.148542	0.066589
C96	C	1.328297	0.648542	0.566589
C97	C	0.827228	0.221366	0.066588
C98	C	1.327228	0.721366	0.566588
C99	C	0.826692	0.257781	0.000209
C100	C	1.326692	0.757781	0.500209
N101	N	0.824464	-0.093028	-0.189489
N102	N	1.324464	0.406972	0.310511
C103	C	0.866675	-0.135273	-0.227779
C104	C	1.366675	0.364727	0.272221
C105	C	0.866687	-0.135271	-0.304424
C106	C	1.366687	0.364729	0.195576
C107	C	0.824475	-0.093032	-0.342776
C108	C	1.324475	0.406968	0.157224
C109	C	0.782261	-0.050778	-0.304477
C110	C	1.282261	0.449222	0.195523
C111	C	0.782256	-0.050776	-0.227834
C112	C	1.282256	0.449224	0.272166
N113	N	0.763327	-0.091312	-0.463144
N114	N	1.263327	0.408688	0.036856
N115	N	0.763333	-0.091318	-0.535952
N116	N	1.263333	0.408682	-0.035952
C117	C	0.824488	-0.093034	-0.573699
C118	C	1.324488	0.406966	-0.073699
N119	N	0.885637	-0.094758	-0.535887
N120	N	1.385637	0.405242	-0.035887
N121	N	0.885630	-0.094756	-0.463072
N122	N	1.385630	0.405244	0.036928
C123	C	0.824476	-0.093029	-0.425883
C124	C	1.324476	0.406971	0.074117
C125	C	0.866715	-0.135280	-0.695096
C126	C	1.366715	0.364720	-0.195096
C127	C	0.866728	-0.135273	-0.771742
C128	C	1.366728	0.364727	-0.271742
C129	C	0.782297	-0.050784	-0.771793
C130	C	1.282297	0.449216	-0.271793
C131	C	0.782290	-0.050787	-0.695149
C132	C	1.282290	0.449213	-0.195149
C133	C	0.824498	-0.093038	-0.656804
C134	C	1.324498	0.406962	-0.156804
N135	N	0.824517	-0.093032	0.189911
N136	N	1.324517	0.406968	0.689911
H137	H	0.597098	-0.212724	0.000178
H138	H	1.097098	0.287276	0.500178
O139	O	0.822287	0.557317	-0.130696
O140	O	1.322287	1.057317	0.369304
C141	C	0.821557	0.605070	-0.189282
C142	C	1.321557	1.105070	0.310718
H143	H	0.842901	0.659936	-0.169823
H144	H	1.342901	1.159936	0.330177
H145	H	0.855742	0.588562	-0.235698
H146	H	1.355742	1.088562	0.264302
H147	H	0.765437	0.605327	-0.209698
H148	H	1.265437	1.105327	0.290302
O149	O	0.741170	-0.009837	-0.657988
O150	O	1.241170	0.490163	-0.157988
C151	C	0.670251	-0.029353	-0.676771
C152	C	1.170251	0.470647	-0.176771
H153	H	0.663336	-0.085677	-0.697833
H154	H	1.163336	0.414323	-0.197833
H155	H	0.635906	-0.025369	-0.626390
H156	H	1.135906	0.474631	-0.126390
H157	H	0.654163	0.007206	-0.721277
H158	H	1.154163	0.507206	-0.221277
H159	H	0.826777	0.251030	-0.120214
H160	H	1.326777	0.751030	0.379786
O161	O	0.741311	-0.009816	-0.809153
O162	O	1.241311	0.490184	-0.309153
C163	C	0.750338	-0.018904	-0.885012
C164	C	1.250338	0.481096	-0.385012
H165	H	0.770050	-0.071755	-0.895447
H166	H	1.270050	0.428245	-0.395447
H167	H	0.698007	-0.017266	-0.914143
H168	H	1.198007	0.482734	-0.414143
H169	H	0.790255	0.024960	-0.906788
H170	H	1.290255	0.524960	-0.406788
O171	O	0.013813	-0.214078	0.000245
O172	O	0.513813	0.285922	0.500245
C173	C	-0.056443	-0.199373	0.000274
C174	C	0.443557	0.300627	0.500274
H175	H	-0.059084	-0.144544	-0.022787
H176	H	0.440916	0.355456	0.477213
H177	H	-0.089578	-0.239607	-0.035063
H178	H	0.410422	0.260393	0.464937
H179	H	-0.077479	-0.202076	0.058694
H180	H	0.422521	0.297924	0.558694
O181	O	0.458023	-0.220751	0.000235
O182	O	0.958023	0.279249	0.500235
C183	C	0.498256	-0.277620	0.000215
C184	C	0.998256	0.222380	0.500215
H185	H	0.552679	-0.259732	0.023248
H186	H	1.052679	0.240268	0.523248
H187	H	0.471280	-0.321807	0.035581
H188	H	0.971280	0.178193	0.535581
H189	H	0.503343	-0.297308	-0.058199
H190	H	1.003343	0.202692	0.441801
O191	O	0.491473	0.030180	0.000313
O192	O	0.991473	0.530180	0.500313
C193	C	0.449883	0.034599	0.063376
C194	C	0.949883	0.534599	0.563376
H195	H	0.467024	-0.001833	0.107448
H196	H	0.967024	0.498167	0.607448
H197	H	0.456601	0.090889	0.084542
H198	H	0.956601	0.590889	0.584542
H199	H	0.392396	0.018318	0.049133
H200	H	0.892396	0.518318	0.549133
O201	O	0.634968	0.028147	0.000181
O202	O	1.134968	0.528147	0.500181
C203	C	0.594732	0.085014	0.000168
C204	C	1.094732	0.585014	0.500168
H205	H	0.540337	0.067126	0.023228
H206	H	1.040337	0.567126	0.523228
H207	H	0.621748	0.129205	0.035515
H208	H	1.121748	0.629205	0.535515
H209	H	0.589577	0.104695	-0.058247
H210	H	1.089577	0.604695	0.441753
O211	O	0.828686	0.113208	0.131097
O212	O	1.328686	0.613208	0.631097
C213	C	0.767973	0.122957	0.171435
C214	C	1.267973	0.622957	0.671435
H215	H	0.725435	0.137313	0.132560
H216	H	1.225435	0.637313	0.632560
H217	H	0.748370	0.072367	0.201561
H218	H	1.248370	0.572367	0.701561
H219	H	0.781019	0.167074	0.212803
H220	H	1.281019	0.667074	0.712803
H221	H	0.051873	0.026659	0.000311
H222	H	0.551873	0.526659	0.500311
H223	H	0.901106	-0.169672	-0.802916
H224	H	1.401106	0.330328	-0.302916
H225	H	0.153087	-0.206180	0.000249
H226	H	0.653087	0.293820	0.500249
H227	H	0.820246	0.695043	-0.120201
H228	H	1.320246	1.195043	0.379799
O229	O	0.190952	0.034689	0.000275
O230	O	0.690952	0.534689	0.500275
C231	C	0.150715	0.091555	0.000265
C232	C	0.650715	0.591555	0.500265
H233	H	0.096321	0.073666	0.023328
H234	H	0.596321	0.573666	0.523328
H235	H	0.177732	0.135747	0.035611
H236	H	0.677732	0.635747	0.535611
H237	H	0.145557	0.111236	-0.058149
H238	H	0.645557	0.611236	0.441851
H239	H	0.828715	0.118919	-0.120216
H240	H	1.328715	0.618919	0.379784
H241	H	0.822200	0.562901	0.120638
H242	H	1.322200	1.062901	0.620638
O243	O	0.826595	0.256741	0.131045
O244	O	1.326595	0.756741	0.631045
C245	C	0.765530	0.290790	0.134998
C246	C	1.265530	0.790790	0.634998
H247	H	0.723592	0.263196	0.097321
H248	H	1.223592	0.763196	0.597321
H249	H	0.745235	0.288892	0.193698
H250	H	1.245235	0.788892	0.693698
H251	H	0.778383	0.347812	0.117173
H252	H	1.278383	0.847812	0.617173
O253	O	0.741183	-0.009722	-0.190749
O254	O	1.241183	0.490278	0.309251
C255	C	0.703942	0.027578	-0.241030
C256	C	1.203942	0.527578	0.258970
H257	H	0.699783	-0.001333	-0.295664
H258	H	1.199783	0.498667	0.204336
H259	H	0.649053	0.031774	-0.218914
H260	H	1.149053	0.531774	0.281086
H261	H	0.732874	0.082455	-0.249170
H262	H	1.232874	0.582455	0.250830
H263	H	0.820248	0.695017	0.120650
H264	H	1.320248	1.195017	0.620650
H265	H	0.901047	-0.169675	-0.196564
H266	H	1.401047	0.330325	0.303436
H267	H	0.901060	-0.169674	-0.335606
H268	H	1.401060	0.330326	0.164394
H269	H	0.747893	-0.016386	-0.335708
H270	H	1.247893	0.483614	0.164292
H271	H	0.901084	-0.169683	-0.663874
H272	H	1.401084	0.330317	-0.163874
