data_functionalizedCrystal
_audit_creation_method	'MofGen! by Chris Wilmer'
_symmetry_space_group_name_H-M	'P1'
_symmetry_Int_Tables_number	1
_symmetry_cell_setting	triclinic
loop_
_symmetry_equiv_pos_as_xyz
  x,y,z
_cell_length_a	8.497374
_cell_length_b	12.827893
_cell_length_c	12.827892
_cell_angle_alpha	89.984638
_cell_angle_beta	89.992687
_cell_angle_gamma	90.001575
loop_
_atom_site_label
_atom_site_type_symbol
_atom_site_fract_x
_atom_site_fract_y
_atom_site_fract_z
Zn1	Zn	0.891962	1.597487	0.416215
Zn2	Zn	0.628170	1.597435	0.590924
Zn3	Zn	0.628190	1.422782	0.416197
Zn4	Zn	0.891902	1.422714	0.590915
O5	O	0.760056	1.510105	0.503563
O6	O	0.856986	1.743716	0.439402
O7	O	0.407411	1.574274	0.567742
O8	O	0.663214	1.446008	0.269964
O9	O	0.663179	1.743678	0.567760
O10	O	0.857006	1.574363	0.269977
O11	O	0.407425	1.445958	0.439372
O12	O	0.663156	1.276537	0.439363
O13	O	1.112673	1.445891	0.567744
O14	O	0.856904	1.276487	0.567727
O15	O	1.112717	1.574296	0.439393
O16	O	0.663121	1.574207	0.737159
O17	O	0.856884	1.445840	0.737152
C18	C	0.760026	1.238595	0.503543
C19	C	0.760051	1.122442	0.503559
C20	C	0.855776	1.070659	0.567177
C21	C	0.855803	0.950609	0.567195
C22	C	0.760028	1.510039	0.775073
C23	C	0.760069	1.510107	0.891226
C24	C	1.171537	1.510097	0.503564
C25	C	1.350181	1.510099	0.503575
C26	C	0.760087	1.782675	0.503584
C27	C	0.760101	1.898828	0.503593
C28	C	0.760119	1.510199	0.230993
C29	C	0.760145	1.510239	0.114839
C30	C	0.664296	1.573702	0.942979
C31	C	0.664336	1.573774	1.063030
H32	H	0.678124	1.077897	0.449103
C33	C	0.555225	1.646374	1.122553
C34	C	0.577032	1.632061	1.229791
C35	C	0.476584	1.698951	1.284658
H36	H	0.449094	1.631251	1.104900
H37	H	0.578450	1.716590	1.104692
H38	H	0.553795	1.561861	1.247644
H39	H	0.683142	1.647192	1.247475
H40	H	0.499809	1.769167	1.266797
H41	H	0.370459	1.683822	1.266996
H42	H	0.491376	1.689255	1.357424
C43	C	0.869554	1.437522	1.055699
C44	C	0.957927	1.378905	1.126772
C45	C	1.058717	1.311900	1.072322
H46	H	0.938409	1.477357	1.013066
H47	H	0.809112	1.391978	1.013195
H48	H	1.018365	1.424443	1.169257
H49	H	0.889114	1.339049	1.169407
H50	H	0.998274	1.266356	1.029818
H51	H	1.127561	1.351743	1.029691
H52	H	1.118679	1.272114	1.120536
C53	C	0.965153	0.891429	0.639934
C54	C	1.053415	0.962475	0.698623
C55	C	1.154155	0.907996	0.765651
H56	H	1.034080	0.848860	0.600112
H57	H	0.904680	0.848860	0.685431
H58	H	1.113883	1.005027	0.653133
H59	H	0.984529	1.005047	0.738467
H60	H	1.093682	0.865426	0.811147
H61	H	1.223072	0.865428	0.725820
H62	H	1.214042	0.956192	0.805486
H63	H	0.937714	1.115204	0.621625
C64	C	0.650636	0.958001	0.430924
C65	C	0.562322	0.886955	0.372270
C66	C	0.461451	0.941434	0.305328
H67	H	0.710968	1.000599	0.385394
H68	H	0.581759	1.000542	0.470839
H69	H	0.631190	0.844432	0.332357
H70	H	0.501958	0.844354	0.417772
H71	H	0.392574	0.983975	0.345244
H72	H	0.521796	0.984031	0.259805
H73	H	0.401508	0.893238	0.265530
H74	H	0.582276	1.628101	0.898413
H75	H	0.842100	1.455718	0.935794
