data_functionalizedCrystal
_audit_creation_method	'MofGen! by Chris Wilmer'
_symmetry_space_group_name_H-M	'P1'
_symmetry_Int_Tables_number	1
_symmetry_cell_setting	triclinic
loop_
_symmetry_equiv_pos_as_xyz
  x,y,z
_cell_length_a	16.109293
_cell_length_b	19.188930
_cell_length_c	14.586319
_cell_angle_alpha	89.991095
_cell_angle_beta	90.006918
_cell_angle_gamma	96.698474
loop_
_atom_site_label
_atom_site_type_symbol
_atom_site_fract_x
_atom_site_fract_y
_atom_site_fract_z
O1	O	-1.102838	0.089718	-0.076323
O2	O	-0.602838	0.589718	0.423677
O3	O	-0.860738	0.100892	-0.076311
O4	O	-0.360738	0.600892	0.423689
O5	O	-0.988774	-0.006335	-0.076299
O6	O	-0.488774	0.493665	0.423701
O7	O	-0.974801	0.196944	-0.076334
O8	O	-0.474801	0.696944	0.423666
O9	O	-0.988765	-0.006336	0.076181
O10	O	-0.488765	0.493664	0.576181
O11	O	-0.860729	0.100890	0.076170
O12	O	-0.360729	0.600890	0.576170
O13	O	-1.102829	0.089716	0.076158
O14	O	-0.602829	0.589716	0.576158
Cu15	Cu	-0.981778	0.095303	0.090087
Cu16	Cu	-0.481778	0.595303	0.590087
Cu17	Cu	-0.981788	0.095305	-0.090240
Cu18	Cu	-0.481788	0.595305	0.409760
O19	O	-0.974792	0.196943	0.076146
O20	O	-0.474792	0.696943	0.576146
C21	C	-0.829760	0.100440	-0.000068
C22	C	-0.329760	0.600440	0.499932
C23	C	-0.737469	0.099085	-0.000063
C24	C	-0.237469	0.599085	0.499937
C25	C	-0.525132	0.095953	0.083052
C26	C	-0.025132	0.595953	0.583052
C27	C	-0.438416	0.094673	0.083052
C28	C	0.061584	0.594673	0.583052
C29	C	-0.438436	0.094679	-0.083191
C30	C	0.061564	0.594679	0.416809
C31	C	-0.525152	0.095954	-0.083190
C32	C	-0.025152	0.595954	0.416810
C33	C	-0.568497	0.096594	-0.000065
C34	C	-0.068497	0.596594	0.499935
C35	C	-0.395065	0.094040	-0.000067
C36	C	0.104935	0.594040	0.499933
C37	C	-0.301044	0.092652	-0.000068
C38	C	0.198956	0.592652	0.499932
C39	C	-0.662525	0.097981	-0.000064
C40	C	-0.162525	0.597981	0.499936
C41	C	-0.988317	-0.032347	-0.000056
C42	C	-0.488317	0.467653	0.499944
C43	C	-0.986959	-0.109855	-0.000048
C44	C	-0.486959	0.390145	0.499952
C45	C	-1.062086	-0.154605	-0.000048
C46	C	-0.562086	0.345395	0.499952
C47	C	-1.060810	-0.227432	-0.000063
C48	C	-0.560810	0.272568	0.499937
C49	C	-0.984402	-0.255505	-0.000059
C50	C	-0.484402	0.244495	0.499941
C51	C	-0.909265	-0.210745	-0.000065
C52	C	-0.409265	0.289255	0.499935
C53	C	-0.910543	-0.137920	-0.000059
C54	C	-0.410543	0.362080	0.499941
N55	N	-0.925995	-0.363646	0.051836
N56	N	-0.425995	0.136354	0.551836
N57	N	-0.924785	-0.432827	0.051833
N58	N	-0.424785	0.067173	0.551833
C59	C	-0.980546	-0.474923	-0.000077
C60	C	-0.480546	0.025077	0.499923
N61	N	-1.037575	-0.445225	-0.051973
N62	N	-0.537575	0.054775	0.448027
N63	N	-1.038787	-0.376037	-0.051966
N64	N	-0.538787	0.123963	0.448034
C65	C	-0.983008	-0.334471	-0.000066
C66	C	-0.483008	0.165529	0.499934
C67	C	-1.054296	-0.598641	-0.000094
C68	C	-0.554296	-0.098641	0.499906
C69	C	-1.053016	-0.671468	-0.000115
C70	C	-0.553016	-0.171468	0.499885
C71	C	-0.901469	-0.654780	-0.000108
C72	C	-0.401469	-0.154780	0.499892
C73	C	-0.902750	-0.581954	-0.000096
C74	C	-0.402750	-0.081954	0.499904
C75	C	-0.979166	-0.553889	-0.000085
C76	C	-0.479166	-0.053889	0.499915
C77	C	-0.133806	0.090175	-0.000080
C78	C	0.366194	0.590175	0.499920
C79	C	-0.226094	0.091549	-0.000070
C80	C	0.273906	0.591549	0.499930
C81	C	-0.975249	0.222956	-0.000099
C82	C	-0.475249	0.722956	0.499901
C83	C	-0.976608	0.300463	-0.000113
C84	C	-0.476608	0.800463	0.499887
N85	N	-0.981777	0.095301	0.216918
N86	N	-0.481777	0.595301	0.716918
N87	N	-0.981796	0.095301	-0.217071
N88	N	-0.481796	0.595301	0.282929
C89	C	-1.038490	0.047837	0.451930
C90	C	-0.538490	0.547837	0.951930
C91	C	-1.038492	0.047836	0.547911
C92	C	-0.538492	0.547836	1.047911
C93	C	-0.925077	0.142768	0.547911
C94	C	-0.425077	0.642768	1.047911
C95	C	-0.925071	0.142765	0.451931
C96	C	-0.425071	0.642765	0.951931
C97	C	-0.981782	0.095301	0.403943
C98	C	-0.481782	0.595301	0.903943
C99	C	-0.981791	0.095302	0.595904
C100	C	-0.481791	0.595302	1.095904
C101	C	-0.981793	0.095300	0.699971
C102	C	-0.481793	0.595300	1.199971
C103	C	-0.981779	0.095302	0.299869
C104	C	-0.481779	0.595302	0.799869
H105	H	-0.403134	0.094158	-0.150868
H106	H	0.096866	0.594158	0.349132
N107	N	-0.833791	-0.092215	-0.000065
N108	N	-0.333791	0.407785	0.499935
N109	N	-0.765572	-0.117285	-0.000071
N110	N	-0.265572	0.382715	0.499929
H111	H	-0.711364	-0.085004	-0.000074
H112	H	-0.211364	0.414996	0.499926
H113	H	-1.124310	-0.131760	-0.000042
H114	H	-0.624310	0.368240	0.499958
H115	H	-0.560460	0.096474	-0.150878
H116	H	-0.060460	0.596474	0.349122
H117	H	-1.084667	0.009186	0.586979
H118	H	-0.584667	0.509186	1.086979
H119	H	-0.847053	-0.233607	-0.000064
H120	H	-0.347053	0.266393	0.499936
N121	N	-0.569395	0.096617	0.167966
N122	N	-0.069395	0.596617	0.667966
N123	N	-0.530661	0.096050	0.242172
N124	N	-0.030661	0.596050	0.742172
H125	H	-0.561918	0.096520	0.302146
H126	H	-0.061918	0.596520	0.802146
N127	N	-0.394134	0.094014	0.167963
N128	N	0.105866	0.594014	0.667963
N129	N	-0.432850	0.094582	0.242169
N130	N	0.067150	0.594582	0.742169
H131	H	-0.401577	0.094114	0.302143
H132	H	0.098423	0.594114	0.802143
H133	H	-0.878905	0.181413	0.586992
H134	H	-0.378905	0.681413	1.086992
N135	N	-0.867156	0.191263	0.402909
N136	N	-0.367156	0.691263	0.902909
N137	N	-0.893375	0.234606	0.349337
N138	N	-0.393375	0.734606	0.849337
H139	H	-0.852474	0.268857	0.314715
H140	H	-0.352474	0.768857	0.814715
H141	H	-1.121990	-0.263875	-0.000066
H142	H	-0.621990	0.236125	0.499934
N143	N	-1.132355	-0.569979	-0.000081
N144	N	-0.632355	-0.069979	0.499919
N145	N	-1.199431	-0.609947	-0.000086
N146	N	-0.699431	-0.109947	0.499914
H147	H	-1.254562	-0.589707	-0.000075
H148	H	-0.754562	-0.089707	0.499925
N149	N	-1.129769	-0.717173	-0.000127
N150	N	-0.629769	-0.217173	0.499873
N151	N	-1.197987	-0.692101	-0.000120
N152	N	-0.697987	-0.192101	0.499880
H153	H	-1.252196	-0.724380	-0.000130
H154	H	-0.752196	-0.224380	0.499870
H155	H	-0.839256	-0.677637	-0.000109
H156	H	-0.339256	-0.177637	0.499891
N157	N	-0.826008	-0.536238	-0.000066
N158	N	-0.326008	-0.036238	0.499934
N159	N	-0.809814	-0.493752	0.064216
N160	N	-0.309814	0.006248	0.564216
H161	H	-0.755611	-0.461465	0.064237
H162	H	-0.255611	0.038535	0.564237
N163	N	-1.096372	-0.000691	0.402925
N164	N	-0.596372	0.499309	0.902925
N165	N	-1.146965	-0.043094	0.445786
N166	N	-0.646965	0.456906	0.945786
H167	H	-1.187826	-0.077386	0.411180
H168	H	-0.687826	0.422614	0.911180
