data_functionalizedCrystal
_audit_creation_method	'MofGen! by Chris Wilmer'
_symmetry_space_group_name_H-M	'P1'
_symmetry_Int_Tables_number	1
_symmetry_cell_setting	triclinic
loop_
_symmetry_equiv_pos_as_xyz
  x,y,z
_cell_length_a	17.639617
_cell_length_b	17.640280
_cell_length_c	17.640968
_cell_angle_alpha	65.682561
_cell_angle_beta	109.666032
_cell_angle_gamma	92.178814
loop_
_atom_site_label
_atom_site_type_symbol
_atom_site_fract_x
_atom_site_fract_y
_atom_site_fract_z
Zn1	Zn	1.336780	-0.104539	0.738792
Zn2	Zn	1.336715	0.061146	0.573137
Zn3	Zn	1.182350	-0.037559	0.561820
Zn4	Zn	1.226792	0.061069	0.683033
O5	O	1.270659	-0.004971	0.639195
O6	O	1.447404	-0.110559	0.744889
O7	O	1.297612	0.076116	0.451580
O8	O	1.184263	-0.157061	0.603895
O9	O	1.447357	0.011169	0.623183
O10	O	1.297722	-0.206270	0.733916
O11	O	1.184200	0.003597	0.443266
O12	O	1.077612	0.003523	0.549827
O13	O	1.260008	0.011037	0.810484
O14	O	1.110263	0.075985	0.638882
O15	O	1.340816	-0.110634	0.851451
O16	O	1.340706	0.171752	0.569116
O17	O	1.259945	0.171695	0.649855
C18	C	1.065252	0.047014	0.587076
C19	C	0.977384	0.069267	0.564796
C20	C	0.688625	-0.174095	0.808667
C21	C	0.606061	-0.153161	0.787711
C22	C	0.605980	-0.026536	0.660849
C23	C	0.688547	-0.047458	0.681797
C24	C	0.729863	-0.121239	0.755706
C25	C	0.729785	0.005398	0.628836
C26	C	0.812344	-0.015525	0.649779
C27	C	0.853665	-0.089303	0.723684
C28	C	0.812422	-0.142162	0.776650
C29	C	0.688467	0.079176	0.554923
C30	C	0.729705	0.132032	0.501962
C31	C	0.812267	0.111113	0.522909
C32	C	0.853587	0.037334	0.596814
C33	C	0.853510	0.163971	0.469943
C34	C	0.936069	0.143049	0.490887
C35	C	0.936146	0.016411	0.617757
C36	C	1.305165	0.200395	0.604687
C37	C	1.320004	0.288227	0.589971
C38	C	1.305377	-0.057278	0.862967
C39	C	1.320171	-0.079569	0.958325
C40	C	1.476868	-0.057158	0.691519
C41	C	1.564743	-0.079397	0.713816
C42	C	1.236043	-0.211149	0.673863
C43	C	1.221291	-0.299010	0.688636
C44	C	1.158304	0.577213	0.751384
C45	C	1.172244	0.659750	0.737529
C46	C	1.256420	0.659702	0.653582
C47	C	1.242490	0.577162	0.667433
C48	C	1.193430	0.535924	0.716334
C49	C	1.277616	0.535873	0.632383
C50	C	1.263684	0.453341	0.646229
C51	C	1.214624	0.412099	0.695126
C52	C	1.179498	0.453392	0.730180
C53	C	1.326671	0.577114	0.583477
C54	C	1.361797	0.535825	0.548427
C55	C	1.347870	0.453290	0.562278
C56	C	1.298810	0.412047	0.611175
C57	C	1.382996	0.411996	0.527224
C58	C	1.369063	0.329465	0.541070
C59	C	1.284878	0.329516	0.625021
C60	C	1.236113	0.047065	0.416315
C61	C	1.221434	0.069093	0.321034
C62	C	1.158498	0.163860	1.165307
C63	C	1.172414	0.142900	1.254917
C64	C	1.256553	0.016214	1.297561
C65	C	1.242640	0.037161	1.207953
C66	C	1.193612	0.110985	1.141833
C67	C	1.277754	-0.015713	1.184479
C68	C	1.263846	0.005235	1.094879
C69	C	1.214823	0.079056	1.028754
C70	C	1.179704	0.131933	1.052233
C71	C	1.326786	-0.089534	1.250601
C72	C	1.361901	-0.142408	1.227126
C73	C	1.347988	-0.121464	1.137525
C74	C	1.298965	-0.047642	1.071400
C75	C	1.383107	-0.174340	1.114045
C76	C	1.369198	-0.153393	1.024446
C77	C	1.285056	-0.026694	0.981800
H78	H	0.621236	0.096195	0.537857
H79	H	1.244935	0.295936	0.664849
H80	H	1.139759	0.192034	0.998391
Br81	Br	1.449654	-0.274518	1.203789
Br82	Br	0.868504	-0.242288	0.876966
H83	H	1.422934	0.445587	0.487402
H84	H	1.203275	0.344899	0.706391
H85	H	0.696053	0.192103	0.441782
H86	H	1.143816	0.185963	1.274023
H87	H	0.572486	-0.196212	0.830841
H88	H	1.139555	0.419812	0.770008
H89	H	1.397791	-0.196449	1.005333
H90	H	1.203503	0.096113	0.955797
H91	H	1.296473	-0.043891	1.351408
Br92	Br	0.797425	0.264090	0.369630
Br93	Br	0.549901	0.073589	0.560543
H94	H	0.969645	0.186090	0.447760
H95	H	1.338111	-0.106585	1.323558
Br96	Br	1.428377	0.591797	0.482064
H97	H	1.118361	0.543633	0.791212
Br98	Br	1.124553	0.715790	0.785086
H99	H	0.722268	-0.234173	0.868855
Br100	Br	1.322999	0.715674	0.587219
Br101	Br	1.416723	0.273430	0.493488
H102	H	1.118553	0.223960	1.111466
Br103	Br	1.218507	0.073490	0.892056
H104	H	0.920889	-0.106339	0.740733
Br105	Br	1.428440	-0.242591	1.316867
H106	H	1.338016	0.644315	0.572208
Br107	Br	0.992228	-0.083715	0.718073
