data_functionalizedCrystal
_audit_creation_method	'MofGen! by Chris Wilmer'
_symmetry_space_group_name_H-M	'P1'
_symmetry_Int_Tables_number	1
_symmetry_cell_setting	triclinic
loop_
_symmetry_equiv_pos_as_xyz
  x,y,z
_cell_length_a	23.532355
_cell_length_b	22.610064
_cell_length_c	17.699083
_cell_angle_alpha	89.998006
_cell_angle_beta	96.944744
_cell_angle_gamma	89.990547
loop_
_atom_site_label
_atom_site_type_symbol
_atom_site_fract_x
_atom_site_fract_y
_atom_site_fract_z
O1	O	0.755551	-0.049096	-0.091689
O2	O	0.589722	-0.049114	-0.105024
O3	O	0.677322	-0.049110	0.011858
O4	O	0.667951	-0.049100	-0.208570
O5	O	0.677296	0.049259	0.011858
O6	O	0.589696	0.049255	-0.105024
O7	O	0.755526	0.049273	-0.091689
Zn8	Zn	0.672607	0.064882	-0.098356
Zn9	Zn	0.672641	-0.064723	-0.098356
O10	O	0.667926	0.049270	-0.208570
C11	C	0.568492	0.000068	-0.104690
C12	C	0.505270	0.000061	-0.103688
N13	N	0.672588	0.153335	-0.098356
C14	C	0.113224	0.053707	-0.097391
C15	C	0.053822	0.053709	-0.096438
O16	O	0.023090	0.099311	-0.095919
N17	N	0.024126	0.000088	-0.095965
C18	C	0.053836	-0.053539	-0.096438
O19	O	0.023123	-0.099147	-0.095948
C20	C	0.113238	-0.053540	-0.097386
C21	C	0.142930	0.000084	-0.097867
C22	C	0.142916	0.107327	-0.097871
C23	C	0.202314	0.107324	-0.098826
C24	C	0.232020	0.053702	-0.099301
C25	C	0.202328	0.000082	-0.098821
C26	C	0.142947	-0.107166	-0.097854
C27	C	0.202353	-0.107163	-0.098801
C28	C	0.232045	-0.053539	-0.099282
C29	C	0.291431	-0.053543	-0.100251
N30	N	0.321127	0.000078	-0.100724
C31	C	0.291422	0.053700	-0.100249
C32	C	-0.070911	-0.053531	-0.094446
C33	C	-0.130312	-0.053530	-0.093503
C34	C	-0.130322	0.053718	-0.093502
C35	C	-0.070920	0.053716	-0.094450
C36	C	-0.041215	0.000090	-0.094919
C37	C	0.416161	0.053691	-0.102255
C38	C	0.475564	0.053684	-0.103213
C39	C	0.475570	-0.053564	-0.103210
C40	C	0.416171	-0.053557	-0.102256
C41	C	0.386469	0.000075	-0.101776
O42	O	0.322201	-0.099122	-0.100768
O43	O	0.322143	0.099301	-0.100729
N44	N	0.672664	-0.153176	-0.098351
C45	C	0.776756	0.000090	-0.092022
C46	C	0.839977	0.000093	-0.093024
C47	C	0.707117	0.561983	-0.144011
C48	C	0.707124	0.623903	-0.144009
O49	O	0.736460	0.655927	-0.182822
N50	N	0.672652	0.654872	-0.098347
C51	C	0.638174	0.623918	-0.052679
O52	O	0.608853	0.655946	-0.013839
C53	C	0.638170	0.562000	-0.052677
C54	C	0.672641	0.531033	-0.098348
C55	C	0.741586	0.531016	-0.189678
C56	C	0.741578	0.469101	-0.189680
C57	C	0.707101	0.438151	-0.144017
C58	C	0.672633	0.469118	-0.098350
C59	C	0.603695	0.531047	-0.007004
C60	C	0.603695	0.469124	-0.007006
C61	C	0.638166	0.438158	-0.052677
C62	C	0.638148	0.376253	-0.052690
N63	N	0.672621	0.345283	-0.098352
C64	C	0.707097	0.376233	-0.144015
C65	C	0.638185	0.753952	-0.052684
C66	C	0.638185	0.815870	-0.052690
C67	C	0.707137	0.815850	-0.144020
C68	C	0.707133	0.753931	-0.144018
C69	C	0.672658	0.722983	-0.098346
C70	C	0.707077	0.246205	-0.144018
C71	C	0.707065	0.184284	-0.144019
C72	C	0.638115	0.184310	-0.052687
C73	C	0.638126	0.246225	-0.052688
C74	C	0.672611	0.277172	-0.098356
O75	O	0.608829	0.344189	-0.013894
O76	O	0.736419	0.344197	-0.182841
C77	C	0.668274	0.000086	-0.236765
C78	C	0.669282	0.000091	-0.320778
C79	C	0.617862	0.000085	-0.369673
C80	C	0.618812	0.000079	-0.448611
C81	C	0.671182	0.000081	-0.478653
C82	C	0.722605	0.000085	-0.429752
C83	C	0.721655	0.000088	-0.350816
C84	C	0.726439	0.000074	-0.748095
C85	C	0.727386	0.000073	-0.827038
C86	C	0.623597	0.000065	-0.845890
C87	C	0.622646	0.000067	-0.766954
C88	C	0.674069	0.000068	-0.718060
C89	C	0.673039	0.000074	-0.632466
C90	C	0.672213	0.000079	-0.564245
C91	C	0.676973	0.000072	0.040053
C92	C	0.675966	0.000063	0.124066
H93	H	0.499737	0.097353	-0.103607
H94	H	0.770034	0.000074	-0.851494
H95	H	0.735202	0.728722	-0.181208
Br96	Br	-0.170603	-0.126309	-0.092870
H97	H	0.763525	0.000090	-0.311006
Br98	Br	0.553807	0.000062	-0.912251
Br99	Br	0.375861	0.126478	-0.101601
Br100	Br	0.793679	0.000082	-0.470523
Br101	Br	0.591390	0.857888	0.009280
Br102	Br	0.796227	0.000079	-0.681749
Br103	Br	0.788382	0.573007	-0.251658
Br104	Br	0.788351	0.427084	-0.251681
Br105	Br	0.375872	-0.126333	-0.101620
Br106	Br	-0.170648	0.126492	-0.092856
H107	H	0.575217	0.000090	-0.345219
H108	H	0.499766	-0.097222	-0.103601
Br109	Br	-0.030603	-0.126317	-0.095089
Br110	Br	0.102666	-0.179947	-0.097201
Br111	Br	0.549026	0.000063	-0.514966
H112	H	0.610044	0.159100	-0.015511
Br113	Br	0.102612	0.180110	-0.097229
Br114	Br	0.242602	0.180104	-0.099474
H115	H	0.226536	-0.150833	-0.099183
H116	H	0.735209	0.841060	-0.181202
H117	H	0.575626	0.556249	0.030187
H118	H	-0.046749	0.097382	-0.094842
H119	H	0.735135	0.159074	-0.181213
H120	H	0.735159	0.271394	-0.181205
Br121	Br	0.591385	0.711957	0.009296
Br122	Br	0.556910	0.427127	0.054989
Br123	Br	0.591337	0.288253	0.009285
H124	H	0.580002	0.000068	-0.742498
