data_functionalizedCrystal
_audit_creation_method	'MofGen! by Chris Wilmer'
_symmetry_space_group_name_H-M	'P1'
_symmetry_Int_Tables_number	1
_symmetry_cell_setting	triclinic
loop_
_symmetry_equiv_pos_as_xyz
  x,y,z
_cell_length_a	27.440280
_cell_length_b	23.196402
_cell_length_c	23.196401
_cell_angle_alpha	119.990204
_cell_angle_beta	89.980662
_cell_angle_gamma	59.998982
loop_
_atom_site_label
_atom_site_type_symbol
_atom_site_fract_x
_atom_site_fract_y
_atom_site_fract_z
Zr1	Zr	0.469498	0.630935	0.075558
O2	O	0.391660	0.751213	0.167617
O3	O	0.493358	0.510665	0.047341
O4	O	0.493332	0.630934	0.167607
O5	O	0.391708	0.630942	-0.047521
O6	O	0.573534	0.630923	0.167595
O7	O	0.391686	0.630945	0.047351
O8	O	0.573581	0.415785	-0.047539
O9	O	0.391662	0.846080	0.167613
O10	O	0.563390	0.560122	0.035293
O11	O	0.503553	0.560129	-0.035500
O12	O	0.503522	0.701729	0.106098
O13	O	0.443685	0.701736	0.035305
Zr14	Zr	0.597448	0.630913	-0.075770
Zr15	Zr	0.597412	0.630917	0.075539
Zr16	Zr	0.469534	0.630931	-0.075752
Zr17	Zr	0.469501	0.782237	0.075552
Zr18	Zr	0.597445	0.479611	-0.075764
O19	O	0.573589	0.751182	-0.047553
O20	O	0.573537	0.751188	0.167590
O21	O	0.391711	0.751208	-0.047526
O22	O	0.675287	0.510635	-0.167829
O23	O	0.675235	0.510640	0.047314
O24	O	0.493409	0.510660	-0.167802
O25	O	0.675238	0.630905	0.047309
O26	O	0.573615	0.630914	-0.167819
O27	O	0.493412	0.630925	-0.167807
O28	O	0.675261	0.630903	-0.047563
O29	O	0.493337	0.846066	0.167598
O30	O	0.573610	0.415781	-0.167810
O31	O	0.675284	0.415767	-0.167825
O32	O	0.675256	0.415770	-0.047554
O33	O	0.391691	0.846077	0.047342
O34	O	0.493365	0.846063	0.047326
O35	O	0.563424	0.560119	-0.106310
O36	O	0.623262	0.560112	-0.035517
O37	O	0.563394	0.701719	0.035287
O38	O	0.503556	0.701725	-0.035506
C39	C	0.533469	0.441668	-0.000098
C40	C	0.533467	0.377436	-0.000095
C41	C	0.564698	0.347262	0.036861
C42	C	0.564703	0.286901	0.036855
C43	C	0.533467	0.256728	-0.000097
C44	C	0.502235	0.286905	-0.037061
C45	C	0.502235	0.347259	-0.037060
C46	C	0.481132	0.194706	0.005185
C47	C	0.481131	0.134356	0.005189
C48	C	0.533468	0.070573	-0.000104
C49	C	0.585806	0.067154	-0.005388
C50	C	0.585806	0.127508	-0.005387
C51	C	0.533464	0.191283	-0.000103
C52	C	0.564707	-0.025052	0.036847
C53	C	0.564715	-0.085418	0.036836
C54	C	0.502241	-0.085407	-0.037075
C55	C	0.502239	-0.025048	-0.037069
C56	C	0.533471	0.005129	-0.000104
C57	C	0.373472	0.630946	-0.000082
C58	C	0.319169	0.630954	-0.000074
C59	C	0.013722	0.556993	-0.037085
C60	C	-0.037297	0.556989	-0.037091
O61	O	-0.037107	0.494125	-0.068545
N62	N	-0.094064	0.630905	-0.000131
C63	C	-0.099812	0.704831	0.036832
O64	O	-0.152782	0.767702	0.068268
C65	C	-0.048794	0.704835	0.036833
C66	C	0.007973	0.630913	-0.000123
C67	C	0.070486	0.483078	-0.074039
C68	C	0.121501	0.483083	-0.074032
C69	C	0.115752	0.557003	-0.037070
C70	C	0.058987	0.630918	-0.000116
C71	C	-0.054543	0.778760	0.073792
C72	C	-0.003519	0.778757	0.073790
C73	C	0.053248	0.704836	0.036833
C74	C	0.104253	0.704843	0.036853
N75	N	0.161020	0.630926	-0.000107
C76	C	0.166769	0.557006	-0.037068
C77	C	-0.206951	0.704818	0.036824
C78	C	-0.257968	0.704815	0.036827
C79	C	-0.195449	0.556972	-0.037097
C80	C	-0.144431	0.556976	-0.037095
C81	C	-0.150183	0.630901	-0.000136
C82	C	0.273902	0.557022	-0.037049
C83	C	0.324918	0.557033	-0.037036
C84	C	0.262395	0.704876	0.036885
C85	C	0.211383	0.704865	0.036875
C86	C	0.217140	0.630931	-0.000097
O87	O	0.104109	0.767675	0.068289
O88	O	0.219741	0.494146	-0.068507
C89	C	0.693474	0.630902	-0.000130
C90	C	0.747777	0.630894	-0.000138
C91	C	0.533428	0.630929	0.189159
C92	C	0.533412	0.630930	0.253394
C93	C	0.533478	0.820180	-0.000114
C94	C	0.533479	0.884412	-0.000117
C95	C	0.502164	0.704846	0.320526
C96	C	0.502177	0.704847	0.380882
C97	C	0.533430	0.630929	0.374101
C98	C	0.564686	0.557004	0.306956
C99	C	0.564677	0.557005	0.246603
C100	C	0.528988	0.574303	0.441422
C101	C	0.528993	0.574305	0.501775
C102	C	0.533461	0.630925	0.560250
C103	C	0.537912	0.687556	0.558369
C104	C	0.537904	0.687556	0.498016
C105	C	0.533444	0.630921	0.439540
C106	C	0.502225	0.704847	0.692829
C107	C	0.502242	0.704846	0.753184
C108	C	0.564747	0.557001	0.679256
C109	C	0.564734	0.557004	0.618903
C110	C	0.533469	0.630930	0.625694
C111	C	0.533509	0.630922	0.810630
C112	C	0.533496	0.630927	0.746399
C113	C	0.693470	0.441645	-0.000122
C114	C	0.747771	0.377406	-0.000127
C115	C	0.533514	0.441663	-0.189363
C116	C	0.533528	0.377429	-0.253596
C117	C	0.693515	0.441641	-0.189387
C118	C	0.747832	0.377400	-0.253627
C119	C	0.373431	0.820207	0.189175
C120	C	0.319114	0.884448	0.253415
C121	C	0.373476	0.820202	-0.000091
C122	C	0.319175	0.884442	-0.000085
C123	C	0.533432	0.820185	0.189151
C124	C	0.533418	0.884418	0.253383
C125	C	0.742020	0.347244	0.036839
C126	C	0.793037	0.286892	0.036848
C127	C	0.849805	0.256700	-0.000113
C128	C	0.855555	0.286868	-0.037081
C129	C	0.804539	0.347223	-0.037085
C130	C	0.564787	0.347259	-0.320728
C131	C	0.564798	0.286914	-0.381087
C132	C	0.533553	0.256735	-0.374311
C133	C	0.502290	0.286911	-0.307171
C134	C	0.502276	0.347259	-0.246814
C135	C	0.804580	0.347228	-0.246842
C136	C	0.855621	0.286875	-0.307197
C137	C	0.849913	0.256691	-0.374336
C138	C	0.793160	0.286868	-0.381120
C139	C	0.742120	0.347224	-0.320766
C140	C	0.262367	0.914627	0.246630
C141	C	0.211325	0.974999	0.306984
C142	C	0.217033	1.005186	0.374124
C143	C	0.273787	0.975005	0.380908
C144	C	0.324827	0.914638	0.320554
C145	C	0.324927	0.914610	-0.037045
C146	C	0.273910	0.974978	-0.037038
C147	C	0.217141	1.005172	-0.000074
C148	C	0.211391	0.975001	0.036891
C149	C	0.262407	0.914639	0.036887
C150	C	0.564669	0.914578	0.246585
C151	C	0.564668	0.974924	0.306932
C152	C	0.533412	1.005114	0.374077
C153	C	0.502160	0.974948	0.380874
C154	C	0.502165	0.914599	0.320527
H155	H	0.476803	0.262334	-0.067148
H156	H	0.371146	0.890031	-0.067150
H157	H	0.438513	0.137149	0.009495
H158	H	0.165163	0.999595	0.066985
C159	C	0.524092	0.512014	0.503839
N160	N	0.520402	0.465094	0.505391
C161	C	0.256070	0.881451	0.077539
N162	N	0.251293	0.856455	0.108159
H163	H	-0.211643	0.765020	0.066924
H164	H	0.590141	-0.000484	0.066944
C165	C	0.524070	0.512014	0.377103
N166	N	0.520366	0.465101	0.328659
C167	C	0.467775	0.881441	0.328018
N168	N	0.441869	0.856471	0.333664
H169	H	0.590122	0.890007	0.191918
C170	C	0.467882	0.380446	-0.077721
N171	N	0.442008	0.405442	-0.108350
H172	H	-0.304186	0.765009	0.066930
C173	C	0.076824	0.401752	-0.114696
N174	N	0.081603	0.340493	-0.145315
H175	H	0.278427	0.999591	0.435580
C176	C	0.918044	0.253683	-0.299719
N177	N	0.965060	0.228683	-0.294084
C178	C	0.599045	1.008099	0.299440
N179	N	0.624938	1.033085	0.293794
C180	C	0.148902	1.008186	0.299506
N181	N	0.101886	1.033181	0.293872
H182	H	0.901783	0.262277	-0.067173
H183	H	-0.098212	0.496782	-0.067195
C184	C	0.679698	0.380405	-0.328242
N185	N	0.632683	0.405395	-0.333878
C186	C	0.533411	1.071501	0.440453
N187	N	0.533411	1.121506	0.490446
C188	C	0.280244	0.475691	-0.077715
N189	N	0.285021	0.414433	-0.108339
C190	C	0.599050	0.475688	0.172752
N191	N	0.624939	0.414440	0.117125
H192	H	0.371140	0.496835	-0.067133
C193	C	0.467805	1.008137	0.454740
N194	N	0.441936	1.033128	0.510378
C195	C	0.467851	0.786163	0.827035
N196	N	0.441940	0.847413	0.882661
H197	H	0.590136	0.262329	0.066950
C198	C	0.643379	0.123740	-0.011207
N199	N	0.686745	0.120899	-0.015594
H200	H	0.628426	0.015214	-0.009707
C201	C	0.599065	-0.118600	0.077502
N202	N	0.624934	-0.143588	0.108137
H203	H	0.278604	0.999533	-0.067141
C204	C	0.161027	1.071570	-0.000081
N205	N	0.118764	1.121578	-0.000091
H206	H	0.476729	0.765040	0.435552
C207	C	0.467840	0.786166	0.700298
N208	N	0.441942	0.847416	0.705925
C209	C	0.467890	0.008136	-0.077732
N210	N	0.442022	0.033124	-0.108368
H211	H	0.788343	0.262337	0.066952
C212	C	0.905919	0.190303	-0.000107
N213	N	0.948182	0.140289	-0.000102
H214	H	0.541530	0.733665	0.496488
H215	H	0.476808	-0.109973	-0.067162
H216	H	0.590130	0.371828	0.066957
C217	C	0.467926	0.253701	-0.299730
N218	N	0.442047	0.228681	-0.294127
H219	H	-0.100757	0.838954	0.103885
C220	C	0.542830	0.749841	0.622688
N221	N	0.546534	0.796752	0.671135
H222	H	0.438507	0.246648	0.009510
H223	H	0.257708	0.890052	0.191967
H224	H	0.371032	0.890067	0.326087
H225	H	0.590257	0.262351	-0.435749
H226	H	0.809231	0.371773	-0.067192
H227	H	0.165160	0.765057	0.066977
C228	C	0.183940	0.401762	-0.114694
N229	N	0.230968	0.340508	-0.145325
H230	H	0.476824	0.371816	-0.192154
H231	H	0.809238	0.371795	-0.192179
C232	C	0.599103	0.475690	0.545053
N233	N	0.624992	0.414441	0.489427
C234	C	-0.189133	0.475658	-0.077762
N235	N	-0.184380	0.414416	-0.108389
C236	C	0.786891	0.253650	-0.454980
N237	N	0.782172	0.228624	-0.510613
C238	C	-0.009853	0.860083	0.114452
N239	N	-0.014625	0.921337	0.145082
H240	H	0.175468	1.054340	0.423262
C241	C	0.599063	0.475694	0.299498
N242	N	0.624958	0.414449	0.293879
C243	C	0.906065	0.190291	-0.440721
N244	N	0.948361	0.140276	-0.490720
H245	H	0.476708	0.765042	0.326062
H246	H	0.257724	0.765059	0.066980
H247	H	0.695801	0.371826	0.066947
H248	H	0.590195	0.496815	0.673734
H249	H	0.590230	0.371824	-0.326259
H250	H	0.533569	0.207595	-0.423464
