data_functionalizedCrystal
_audit_creation_method	'MofGen! by Chris Wilmer'
_symmetry_space_group_name_H-M	'P1'
_symmetry_Int_Tables_number	1
_symmetry_cell_setting	triclinic
loop_
_symmetry_equiv_pos_as_xyz
  x,y,z
_cell_length_a	11.169417
_cell_length_b	12.827892
_cell_length_c	11.169409
_cell_angle_alpha	89.966914
_cell_angle_beta	89.980176
_cell_angle_gamma	90.016270
loop_
_atom_site_label
_atom_site_type_symbol
_atom_site_fract_x
_atom_site_fract_y
_atom_site_fract_z
Zn1	Zn	1.834920	-0.415924	-0.678536
Zn2	Zn	1.834792	-0.590711	-0.477851
Zn3	Zn	1.634206	-0.415988	-0.477871
Zn4	Zn	1.634196	-0.590626	-0.678496
O5	O	1.734528	-0.503312	-0.578188
O6	O	2.002853	-0.439119	-0.651924
O7	O	1.808134	-0.567596	-0.309904
O8	O	1.660889	-0.269743	-0.504515
O9	O	2.002759	-0.567534	-0.504481
O10	O	1.808353	-0.269696	-0.651943
O11	O	1.660765	-0.439227	-0.309918
O12	O	1.466255	-0.439145	-0.504475
O13	O	1.660872	-0.567389	-0.846451
O14	O	1.466248	-0.567451	-0.651874
O15	O	1.808343	-0.439036	-0.846481
O16	O	1.808124	-0.736936	-0.504441
O17	O	1.660747	-0.736874	-0.651854
C18	C	1.422704	-0.503296	-0.578173
C19	C	1.289304	-0.503315	-0.578195
C20	C	1.734453	-0.774822	-0.578167
C21	C	1.734531	-0.890975	-0.578198
C22	C	1.807545	-0.942756	-0.505335
C23	C	1.807626	-1.062807	-0.505365
C24	C	2.047571	-0.503329	-0.578205
C25	C	2.180971	-0.503336	-0.578212
C26	C	1.734621	-0.503196	-0.891231
C27	C	1.734660	-0.503147	-1.024631
C28	C	1.734637	-0.230742	-0.578236
C29	C	1.734683	-0.114589	-0.578256
C30	C	1.734506	-0.503352	-0.266364
C31	C	1.734699	-0.503108	-0.132964
H32	H	1.869999	-0.898214	-0.442935
O33	O	1.660155	-0.944060	-0.652823
C34	C	1.686255	-0.917340	-0.772482
H35	H	1.782079	-0.887189	-0.778648
H36	H	1.621782	-0.854095	-0.803847
C37	C	1.554723	-1.051350	-0.844922
C38	C	1.672420	-1.014326	-0.852496
H39	H	1.546184	-1.111173	-0.894280
H40	H	1.537135	-1.069350	-0.764305
H41	H	1.501009	-0.998637	-0.871057
H42	H	1.726130	-1.067034	-0.826347
H43	H	1.690017	-0.996337	-0.933111
H44	H	1.672165	-1.070066	-0.640637
O45	O	1.882367	-1.115952	-0.431132
C46	C	1.959802	-1.178979	-0.499640
H47	H	1.967123	-1.145951	-0.594134
H48	H	1.922695	-1.261696	-0.503828
C49	C	2.075633	-1.221269	-0.325110
C50	C	2.084633	-1.180698	-0.441168
H51	H	2.152633	-1.222334	-0.289040
H52	H	2.023461	-1.178810	-0.278953
H53	H	2.044706	-1.290196	-0.328616
H54	H	2.115545	-1.111768	-0.437659
H55	H	2.136813	-1.223146	-0.487323
