data_functionalizedCrystal
_audit_creation_method	'MofGen! by Chris Wilmer'
_symmetry_space_group_name_H-M	'P1'
_symmetry_Int_Tables_number	1
_symmetry_cell_setting	triclinic
loop_
_symmetry_equiv_pos_as_xyz
  x,y,z
_cell_length_a	16.109318
_cell_length_b	17.019294
_cell_length_c	14.586319
_cell_angle_alpha	86.117240
_cell_angle_beta	90.000075
_cell_angle_gamma	83.431560
loop_
_atom_site_label
_atom_site_type_symbol
_atom_site_fract_x
_atom_site_fract_y
_atom_site_fract_z
O1	O	1.103030	0.101460	-0.084173
O2	O	1.603030	0.601460	0.415827
O3	O	0.860959	0.114064	-0.085186
O4	O	1.360959	0.614064	0.414814
O5	O	0.988748	-0.007072	-0.075609
O6	O	1.488748	0.492928	0.424391
O7	O	0.975242	0.222596	-0.093750
O8	O	1.475242	0.722596	0.406250
O9	O	0.988739	-0.007074	0.076872
O10	O	1.488739	0.492926	0.576872
O11	O	0.860950	0.114062	0.067295
O12	O	1.360950	0.614062	0.567295
O13	O	1.103022	0.101458	0.068308
O14	O	1.603022	0.601458	0.568308
Cu15	Cu	0.981985	0.107760	0.081724
Cu16	Cu	1.481985	0.607760	0.581724
Cu17	Cu	0.981996	0.107762	-0.098602
Cu18	Cu	1.481996	0.607762	0.401398
O19	O	0.975233	0.222594	0.058731
O20	O	1.475233	0.722594	0.558731
C21	C	0.829980	0.113550	-0.008907
C22	C	1.329980	0.613550	0.491093
C23	C	0.737687	0.112012	-0.008793
C24	C	1.237687	0.612012	0.491207
C25	C	0.438623	0.107046	-0.091502
C26	C	0.938623	0.607046	0.408498
C27	C	0.525343	0.108486	-0.091621
C28	C	1.025343	0.608486	0.408379
C29	C	0.525352	0.108473	0.074623
C30	C	1.025352	0.608473	0.574623
C31	C	0.438634	0.107028	0.074742
C32	C	0.938634	0.607028	0.574742
C33	C	0.395272	0.106318	-0.008324
C34	C	0.895272	0.606318	0.491676
C35	C	0.568709	0.109204	-0.008562
C36	C	1.068709	0.609204	0.491438
C37	C	0.662735	0.110765	-0.008691
C38	C	1.162735	0.610765	0.491309
C39	C	0.301240	0.104756	-0.008195
C40	C	0.801240	0.604756	0.491805
C41	C	0.988231	-0.036462	0.002951
C42	C	1.488231	0.463538	0.502951
C43	C	0.986695	-0.124032	0.009862
C44	C	1.486695	0.375968	0.509862
C45	C	0.985980	-0.165167	-0.070008
C46	C	1.485980	0.334833	0.429992
C47	C	0.984531	-0.247448	-0.063512
C48	C	1.484531	0.252552	0.436488
C49	C	0.983803	-0.288593	0.022856
C50	C	1.483803	0.211407	0.522856
C51	C	0.984516	-0.247452	0.102731
C52	C	1.484516	0.252548	0.602731
C53	C	0.985959	-0.165172	0.096234
C54	C	1.485959	0.334828	0.596234
C55	C	0.979441	-0.537025	0.046631
C56	C	1.479441	-0.037025	0.546631
C57	C	0.978001	-0.619311	0.053122
C58	C	1.478001	-0.119311	0.553122
C59	C	0.978014	-0.619301	-0.113122
C60	C	1.478014	-0.119301	0.386878
C61	C	0.979462	-0.537020	-0.119611
C62	C	1.479462	-0.037020	0.380389
C63	C	0.980170	-0.495886	-0.039735
C64	C	1.480170	0.004114	0.460265
C65	C	0.982325	-0.372697	0.029498
C66	C	1.482325	0.127303	0.529498
C67	C	0.981643	-0.411782	-0.046379
C68	C	1.481643	0.088218	0.453621
C69	C	1.134000	0.101972	-0.007972
C70	C	1.634000	0.601972	0.492028
C71	C	1.226293	0.103510	-0.008093
C72	C	1.726293	0.603510	0.491907
C73	C	0.975749	0.251984	-0.019831
C74	C	1.475749	0.751984	0.480169
C75	C	0.977286	0.339554	-0.026748
C76	C	1.477286	0.839554	0.473252
N77	N	0.981984	0.107758	0.208556
N78	N	1.481984	0.607758	0.708556
N79	N	0.982003	0.107758	-0.225433
N80	N	1.482003	0.607758	0.274567
C81	C	1.038587	0.054137	0.447802
C82	C	1.538587	0.554137	0.947802
C83	C	1.038590	0.054135	0.543784
C84	C	1.538590	0.554135	1.043784
C85	C	0.925394	0.161381	0.535314
C86	C	1.425394	0.661381	1.035314
C87	C	0.925388	0.161379	0.439334
C88	C	1.425388	0.661379	0.939334
C89	C	0.981990	0.107758	0.395581
C90	C	1.481990	0.607758	0.895581
C91	C	0.981998	0.107758	0.587542
C92	C	1.481998	0.607758	1.087542
C93	C	0.982000	0.107757	0.691609
C94	C	1.482000	0.607757	1.191609
C95	C	0.981987	0.107758	0.291507
C96	C	1.481987	0.607758	0.791507
H97	H	0.403320	0.106468	-0.159139
H98	H	0.903320	0.606468	0.340861
F99	F	0.571477	0.109258	-0.180151
F100	F	1.071477	0.609258	0.319849
F101	F	0.865143	0.218449	0.383753
F102	F	1.365143	0.718449	0.883753
H103	H	0.560668	0.109053	0.142251
H104	H	1.060668	0.609053	0.642251
H105	H	0.403337	0.106434	0.142479
H106	H	0.903337	0.606434	0.642479
F107	F	0.982419	-0.367992	-0.138294
F108	F	1.482419	0.132008	0.361706
H109	H	0.986577	-0.131674	-0.140338
H110	H	1.486577	0.368326	0.359662
H111	H	1.084674	0.010474	0.412181
H112	H	1.584674	0.510474	0.912181
H113	H	0.983952	-0.280937	-0.128551
H114	H	1.483952	0.219063	0.371449
H115	H	0.986529	-0.131679	0.161273
H116	H	1.486529	0.368321	0.661273
H117	H	0.980056	-0.503526	-0.189941
H118	H	1.480056	-0.003526	0.310059
F119	F	0.977260	-0.663085	-0.198125
F120	F	1.477260	-0.163085	0.301875
H121	H	0.981735	-0.406207	0.099818
H122	H	1.481735	0.093793	0.599818
H123	H	0.879311	0.205040	0.570947
H124	H	1.379311	0.705040	1.070947
H125	H	0.977404	-0.652808	0.123456
H126	H	1.477404	-0.152808	0.623456
H127	H	0.980034	-0.503545	0.111672
H128	H	1.480034	-0.003545	0.611672
F129	F	0.983732	-0.291242	0.194650
F130	F	1.483732	0.208758	0.694650
H131	H	1.084676	0.010471	0.586300
H132	H	1.584676	0.510471	1.086300
