data_functionalizedCrystal
_audit_creation_method	'MofGen! by Chris Wilmer'
_symmetry_space_group_name_H-M	'P1'
_symmetry_Int_Tables_number	1
_symmetry_cell_setting	triclinic
loop_
_symmetry_equiv_pos_as_xyz
  x,y,z
_cell_length_a	21.395362
_cell_length_b	12.759399
_cell_length_c	21.395355
_cell_angle_alpha	89.989355
_cell_angle_beta	90.043940
_cell_angle_gamma	89.968588
loop_
_atom_site_label
_atom_site_type_symbol
_atom_site_fract_x
_atom_site_fract_y
_atom_site_fract_z
Zn1	Zn	0.957926	0.417943	0.354620
Zn2	Zn	0.957856	0.593607	0.249857
Zn3	Zn	0.853140	0.417992	0.249821
Zn4	Zn	0.853137	0.593629	0.354562
O5	O	0.905515	0.505793	0.302215
O6	O	1.045594	0.441215	0.340762
O7	O	0.943937	0.570323	0.162174
O8	O	0.867071	0.270964	0.263732
O9	O	1.045543	0.570275	0.263793
O10	O	0.944056	0.270928	0.340728
O11	O	0.867003	0.441299	0.162148
O12	O	0.765462	0.441320	0.263676
O13	O	0.867066	0.570312	0.442247
O14	O	0.765460	0.570360	0.340628
O15	O	0.944053	0.441236	0.442290
O16	O	0.943934	0.740631	0.263737
O17	O	0.866998	0.740647	0.340663
C18	C	0.742727	0.505848	0.302142
C19	C	0.673086	0.505897	0.302126
C20	C	0.905475	0.778760	0.302211
C21	C	0.905516	0.895537	0.302230
C22	C	0.640388	0.573177	0.342135
C23	C	0.574953	0.573152	0.342163
C24	C	0.542218	0.505857	0.302171
C25	C	0.574923	0.438564	0.262159
C26	C	0.640357	0.438584	0.262136
C27	C	0.438492	0.497393	0.245765
C28	C	0.373059	0.497380	0.245786
C29	C	0.340397	0.505788	0.302240
C30	C	0.373176	0.514231	0.358674
C31	C	0.438610	0.514251	0.358652
C32	C	0.471265	0.505827	0.302191
C33	C	0.236746	0.573044	0.342282
C34	C	0.171310	0.573011	0.342311
C35	C	0.171282	0.438428	0.262302
C36	C	0.236717	0.438456	0.262278
C37	C	0.269446	0.505769	0.302268
C38	C	0.945620	0.950355	0.262221
C39	C	0.945658	1.060079	0.262244
C40	C	0.865481	1.060156	0.342287
C41	C	0.865447	0.950434	0.342267
C42	C	0.985689	0.895458	0.222184
C43	C	1.025796	0.950277	0.182171
C44	C	1.025834	1.060001	0.182194
C45	C	0.985764	1.114906	0.222230
C46	C	1.068938	0.505738	0.302288
C47	C	1.138579	0.505714	0.302319
C48	C	0.905567	0.505771	0.465638
C49	C	0.905589	0.505762	0.535279
C50	C	0.905569	1.231759	0.302241
C51	C	0.905587	1.114983	0.302273
C52	C	0.905499	0.505738	0.139427
C53	C	0.905598	0.505451	0.069786
C54	C	0.945675	0.438550	0.568016
C55	C	0.945674	0.438504	0.633451
C56	C	0.905594	0.505691	0.666148
C57	C	0.865500	0.572908	0.633404
C58	C	0.865498	0.572944	0.567969
C59	C	0.900633	0.600292	0.769819
C60	C	0.900640	0.600258	0.835252
C61	C	0.905598	0.505580	0.867969
C62	C	0.910562	0.410932	0.835244
C63	C	0.910560	0.410968	0.769810
C64	C	0.905592	0.505659	0.737100
C65	C	0.945685	0.438312	0.971658
C66	C	0.945679	0.438265	1.037094
C67	C	0.865509	0.572678	1.037045
C68	C	0.865511	0.572716	0.971610
C69	C	0.905602	0.505534	0.938920
H70	H	0.667031	0.627988	0.374699
H71	H	0.832873	0.627454	0.944956
H72	H	0.832790	0.905800	0.374847
O73	O	0.337709	0.488268	0.184920
H74	H	0.350211	0.554988	0.154079
H75	H	0.263340	0.383674	0.229695
O76	O	0.985641	0.777114	0.222163
H77	H	1.032880	0.748072	0.234880
O78	O	0.675632	0.366020	0.218980
H79	H	0.705389	0.412982	0.187052
O80	O	0.473713	0.488321	0.184869
H81	H	0.524720	0.489742	0.194333
H82	H	0.548266	0.383770	0.229598
O83	O	1.069025	0.891068	0.139002
H84	H	1.062262	0.805561	0.145706
H85	H	0.896428	0.677371	0.743187
H86	H	0.978321	0.383527	1.063747
O87	O	0.985806	1.233252	0.222258
H88	H	0.938563	1.262280	0.209546
O89	O	1.069089	1.119133	0.139041
H90	H	1.096940	1.062522	0.111196
H91	H	0.832869	0.627372	1.063666
H92	H	0.832857	1.104869	0.374882
H93	H	0.144688	0.627796	0.374895
H94	H	0.978319	0.383844	0.541404
O95	O	0.988915	0.366018	0.668773
H96	H	1.016795	0.319315	0.635048
O97	O	0.915911	0.308895	0.734511
H98	H	0.919356	0.243048	0.768248
O99	O	0.915893	0.308800	0.870519
H100	H	0.915048	0.324669	0.921517
O101	O	0.822268	0.645373	0.668663
H102	H	0.829008	0.634064	0.719664
O103	O	0.337963	0.523283	0.419574
H104	H	0.308110	0.594434	0.418528
O105	O	0.272054	0.645627	0.385419
H106	H	0.238321	0.692395	0.413254
O107	O	0.988915	0.365846	0.936392
H108	H	1.016782	0.319086	0.970152
O109	O	0.895279	0.702333	0.870548
H110	H	0.891815	0.768173	0.836807
O111	O	0.539673	0.645761	0.385292
H112	H	0.573424	0.692587	0.413085
O113	O	0.822246	0.645426	0.532663
H114	H	0.832963	0.727879	0.545231
O115	O	0.473968	0.523335	0.419515
H116	H	0.440269	0.529169	0.458778
O117	O	0.135986	0.365851	0.219159
H118	H	0.084991	0.377146	0.225891
