data_functionalizedCrystal
_audit_creation_method	'MofGen! by Chris Wilmer'
_symmetry_space_group_name_H-M	'P1'
_symmetry_Int_Tables_number	1
_symmetry_cell_setting	triclinic
loop_
_symmetry_equiv_pos_as_xyz
  x,y,z
_cell_length_a	9.065218
_cell_length_b	10.654550
_cell_length_c	9.730223
_cell_angle_alpha	90.000043
_cell_angle_beta	89.997438
_cell_angle_gamma	95.249592
loop_
_atom_site_label
_atom_site_type_symbol
_atom_site_fract_x
_atom_site_fract_y
_atom_site_fract_z
O1	O	0.207235	-1.668660	-0.114181
O2	O	0.707235	-1.168660	0.385819
O3	O	0.226979	-1.303260	-0.114206
O4	O	0.726979	-0.803260	0.385794
O5	O	0.002423	-1.493512	-0.114190
O6	O	0.502423	-0.993512	0.385810
O7	O	0.431790	-1.478407	-0.114197
O8	O	0.931790	-0.978407	0.385803
O9	O	0.002417	-1.493500	0.114390
O10	O	0.502417	-0.993500	0.614390
O11	O	0.226972	-1.303247	0.114374
O12	O	0.726972	-0.803247	0.614374
O13	O	0.207228	-1.668647	0.114399
O14	O	0.707228	-1.168647	0.614399
Zn15	Zn	0.217099	-1.485945	0.150678
Zn16	Zn	0.717099	-0.985945	0.650678
Zn17	Zn	0.217108	-1.485962	-0.150486
Zn18	Zn	0.717108	-0.985962	0.349514
O19	O	0.431784	-1.478395	0.114383
O20	O	0.931784	-0.978395	0.614383
C21	C	-0.052559	-1.492055	0.000097
C22	C	0.447441	-0.992055	0.500097
C23	C	-0.216378	-1.487714	0.000091
C24	C	0.283622	-0.987714	0.500091
C25	C	0.225526	-1.256450	0.000081
C26	C	0.725526	-0.756450	0.500081
C27	C	0.221188	-1.116989	0.000071
C28	C	0.721188	-0.616989	0.500071
C29	C	0.208681	-1.715457	0.000109
C30	C	0.708681	-1.215457	0.500109
C31	C	0.213019	-1.854918	0.000109
C32	C	0.713019	-1.354918	0.500109
C33	C	0.486766	-1.479852	0.000092
C34	C	0.986766	-0.979852	0.500092
C35	C	0.650585	-1.484193	0.000090
C36	C	1.150585	-0.984193	0.500090
N37	N	0.217093	-1.485943	0.356215
N38	N	0.717093	-0.985943	0.856215
C39	C	0.353403	-1.038027	0.000073
C40	C	0.853403	-0.538027	0.500073
C41	C	0.349319	-0.906990	0.000097
C42	C	0.849319	-0.406990	0.500097
C43	C	0.080794	-0.933890	0.000112
C44	C	0.580794	-0.433890	0.500112
C45	C	0.084879	-1.064924	0.000098
C46	C	0.584879	-0.564924	0.500098
N47	N	0.217102	-1.485973	-0.356022
N48	N	0.717102	-0.985973	0.143978
C49	C	0.117702	-1.570217	0.428148
C50	C	0.617702	-1.070217	0.928148
C51	C	0.117703	-1.570229	0.572031
C52	C	0.617703	-1.070229	1.072031
C53	C	0.316498	-1.401691	0.572035
C54	C	0.816498	-0.901691	1.072035
C55	C	0.316489	-1.401674	0.428155
C56	C	0.816489	-0.901674	0.928155
H57	H	0.464395	-1.080414	0.000062
H58	H	0.964395	-0.580414	0.500062
Br59	Br	0.451374	-1.287285	0.330520
Br60	Br	0.951374	-0.787285	0.830520
H61	H	0.036768	-1.638850	0.630594
H62	H	0.536768	-1.138850	1.130594
Br63	Br	0.528762	-0.799831	0.000107
Br64	Br	1.028762	-0.299831	0.500107
H65	H	-0.030185	-0.891482	0.000141
H66	H	0.469815	-0.391482	0.500141
H67	H	-0.022793	-1.129219	0.000100
H68	H	0.477207	-0.629219	0.500100
H69	H	0.036766	-1.638832	0.369577
H70	H	0.536766	-1.138832	0.869577
Br71	Br	0.451391	-1.287332	0.669673
Br72	Br	0.951391	-0.787332	1.169673
