data_functionalizedCrystal
_audit_creation_method	'MofGen! by Chris Wilmer'
_symmetry_space_group_name_H-M	'P1'
_symmetry_Int_Tables_number	1
_symmetry_cell_setting	triclinic
loop_
_symmetry_equiv_pos_as_xyz
  x,y,z
_cell_length_a	19.288867
_cell_length_b	27.731996
_cell_length_c	17.766277
_cell_angle_alpha	89.987644
_cell_angle_beta	89.992126
_cell_angle_gamma	82.879228
loop_
_atom_site_label
_atom_site_type_symbol
_atom_site_fract_x
_atom_site_fract_y
_atom_site_fract_z
O1	O	0.920960	0.060306	-0.062578
O2	O	1.420960	0.560306	0.437422
O3	O	0.718646	0.068439	-0.062586
O4	O	1.218646	0.568439	0.437414
O5	O	0.826105	-0.006007	-0.062565
O6	O	1.326105	0.493993	0.437435
O7	O	0.813501	0.134752	-0.062598
O8	O	1.313501	0.634752	0.437402
O9	O	0.826087	-0.006010	0.062623
O10	O	1.326087	0.493990	0.562623
O11	O	0.718628	0.068436	0.062602
O12	O	1.218628	0.568436	0.562602
O13	O	0.920941	0.060302	0.062611
O14	O	1.420941	0.560302	0.562611
Cu15	Cu	0.819783	0.064369	0.074037
Cu16	Cu	1.319783	0.564369	0.574037
Cu17	Cu	0.819805	0.064373	-0.074013
Cu18	Cu	1.319805	0.564373	0.425987
O19	O	0.813482	0.134748	0.062590
O20	O	1.313482	0.634748	0.562590
C21	C	0.692762	0.068176	0.000007
C22	C	1.192762	0.568176	0.500007
C23	C	0.615664	0.067390	0.000005
C24	C	1.115664	0.567390	0.500005
C25	C	0.060146	0.061729	-0.068226
C26	C	0.560146	0.561729	0.431774
C27	C	0.132588	0.062465	-0.068229
C28	C	0.632588	0.562465	0.431771
C29	C	0.168804	0.062833	0.000011
C30	C	0.668804	0.562833	0.500011
C31	C	0.132574	0.062453	0.068259
C32	C	0.632574	0.562453	0.568259
C33	C	0.060134	0.061712	0.068260
C34	C	0.560134	0.561712	0.568260
C35	C	0.277932	0.092317	0.052285
C36	C	0.777932	0.592317	0.552285
C37	C	0.350370	0.093060	0.052281
C38	C	0.850370	0.593060	0.552281
C39	C	0.392235	0.065115	0.000011
C40	C	0.892235	0.565115	0.500011
C41	C	0.361651	0.036433	-0.052268
C42	C	0.861651	0.536433	0.447732
C43	C	0.289211	0.035692	-0.052267
C44	C	0.789211	0.535692	0.447733
C45	C	0.247354	0.063636	0.000018
C46	C	0.747354	0.563636	0.500018
C47	C	0.507008	0.066290	-0.068236
C48	C	1.007008	0.566290	0.431764
C49	C	0.579453	0.067022	-0.068236
C50	C	1.079453	0.567022	0.431764
C51	C	0.579436	0.067015	0.068254
C52	C	1.079436	0.567015	0.568254
C53	C	0.506994	0.066278	0.068252
C54	C	1.006994	0.566278	0.568252
C55	C	0.470784	0.065917	0.000005
C56	C	0.970784	0.565917	0.500005
C57	C	0.825837	-0.024017	0.000031
C58	C	1.325837	0.475983	0.500031
C59	C	0.825057	-0.077675	0.000039
C60	C	1.325057	0.422325	0.500039
C61	C	0.820161	-0.410404	-0.068238
C62	C	1.320161	0.089596	0.431762
C63	C	0.817199	-0.612072	-0.068252
C64	C	1.317199	-0.112072	0.431748
O65	O	0.816795	-0.638142	-0.126288
O66	O	1.316795	-0.138142	0.373712
N67	N	0.816821	-0.637292	-0.000012
N68	N	1.316821	-0.137292	0.499988
C69	C	0.817179	-0.612092	0.068236
C70	C	1.317179	-0.112092	0.568236
O71	O	0.816782	-0.638170	0.126278
O72	O	1.316782	-0.138170	0.626278
C73	C	0.820135	-0.410425	0.068248
C74	C	1.320135	0.089575	0.568248
C75	C	0.820520	-0.385208	0.000004
C76	C	1.320520	0.114792	0.500004
C77	C	0.820545	-0.385187	-0.136477
C78	C	1.320545	0.114813	0.363523
C79	C	0.821289	-0.334774	-0.136473
C80	C	1.321289	0.165226	0.363527
C81	C	0.821649	-0.309578	-0.068230
C82	C	1.321649	0.190422	0.431770
C83	C	0.821265	-0.334795	0.000008
C84	C	1.321265	0.165205	0.500008
C85	C	0.820488	-0.385226	0.136495
C86	C	1.320488	0.114774	0.636495
C87	C	0.821226	-0.334806	0.136493
C88	C	1.321226	0.165194	0.636493
C89	C	0.821611	-0.309589	0.068248
C90	C	1.321611	0.190411	0.568248
C91	C	0.822369	-0.259185	0.068255
C92	C	1.322369	0.240815	0.568255
N93	N	0.822747	-0.233965	0.000015
N94	N	1.322747	0.266035	0.500015
C95	C	0.822387	-0.259161	-0.068227
C96	C	1.322387	0.240839	0.431773
C97	C	0.815628	-0.717970	0.068224
C98	C	1.315628	-0.217970	0.568224
C99	C	0.814890	-0.768387	0.068221
C100	C	1.314890	-0.268387	0.568221
C101	C	0.814909	-0.768363	-0.068266
C102	C	1.314909	-0.268363	0.431734
C103	C	0.815652	-0.717946	-0.068262
C104	C	1.315652	-0.217946	0.431738
C105	C	0.816006	-0.692750	-0.000015
C106	C	1.316006	-0.192750	0.499985
C107	C	0.823950	-0.153289	-0.068214
C108	C	1.323950	0.346711	0.431786
C109	C	0.824697	-0.102872	-0.068203
C110	C	1.324697	0.397128	0.431797
C111	C	0.824675	-0.102900	0.068284
C112	C	1.324675	0.397100	0.568284
C113	C	0.823931	-0.153313	0.068274
C114	C	1.323931	0.346687	0.568274
C115	C	0.823567	-0.178507	0.000019
C116	C	1.323567	0.321493	0.500019
O117	O	0.822765	-0.233083	0.126261
O118	O	1.322765	0.266917	0.626261
O119	O	0.822768	-0.233073	-0.126260
O120	O	1.322768	0.266927	0.373740
C121	C	0.819416	-0.460818	-0.068242
C122	C	1.319416	0.039182	0.431758
C123	C	0.819032	-0.486035	-0.000004
C124	C	1.319032	0.013965	0.499996
C125	C	0.819392	-0.460839	0.068239
C126	C	1.319392	0.039161	0.568239
C127	C	0.818294	-0.536452	-0.000007
C128	C	1.318294	-0.036452	0.499993
C129	C	0.817934	-0.561648	-0.068249
C130	C	1.317934	-0.061648	0.431751
C131	C	0.818312	-0.536428	-0.136489
C132	C	1.318312	-0.036428	0.363511
C133	C	0.819057	-0.486014	-0.136485
C134	C	1.319057	0.013986	0.363515
C135	C	0.819014	-0.486059	0.136478
C136	C	1.319014	0.013941	0.636478
C137	C	0.818271	-0.536473	0.136469
C138	C	1.318271	-0.036473	0.636469
C139	C	0.817911	-0.561669	0.068226
C140	C	1.317911	-0.061669	0.568226
C141	C	0.946825	0.060566	0.000016
C142	C	1.446825	0.560566	0.500016
C143	C	1.023923	0.061352	0.000013
C144	C	1.523923	0.561352	0.500013
C145	C	0.813750	0.152759	-0.000008
C146	C	1.313750	0.652759	0.499992
C147	C	0.814530	0.206417	-0.000021
C148	C	1.314530	0.706417	0.499979
N149	N	0.819772	0.064365	0.178168
N150	N	1.319772	0.564365	0.678168
N151	N	0.819821	0.064373	-0.178143
N152	N	1.319821	0.564373	0.321857
C153	C	0.867370	0.031417	0.217564
C154	C	1.367370	0.531417	0.717564
C155	C	0.867374	0.031414	0.296366
C156	C	1.367374	0.531414	0.796366
C157	C	0.819787	0.064369	0.335768
C158	C	1.319787	0.564369	0.835768
C159	C	0.772180	0.097320	0.296363
C160	C	1.272180	0.597320	0.796363
C161	C	0.772173	0.097318	0.217562
C162	C	1.272173	0.597318	0.717562
C163	C	0.810201	0.108413	0.460596
C164	C	1.310201	0.608413	0.960596
C165	C	0.810214	0.108415	0.539394
C166	C	1.310214	0.608415	1.039394
C167	C	0.819805	0.064375	0.578815
C168	C	1.319805	0.564375	1.078815
C169	C	0.829400	0.020330	0.539426
C170	C	1.329400	0.520330	1.039426
C171	C	0.829392	0.020328	0.460626
C172	C	1.329392	0.520328	0.960626
C173	C	0.819789	0.064375	0.421214
C174	C	1.319789	0.564375	0.921214
C175	C	0.867410	0.031421	0.703657
C176	C	1.367410	0.531421	1.203657
C177	C	0.867409	0.031418	0.782460
C178	C	1.367409	0.531418	1.282460
C179	C	0.772218	0.097328	0.782455
C180	C	1.272218	0.597328	1.282455
C181	C	0.772216	0.097327	0.703654
C182	C	1.272216	0.597327	1.203654
C183	C	0.819816	0.064374	0.664259
C184	C	1.319816	0.564374	1.164259
H185	H	0.608944	0.067326	-0.123807
H186	H	1.108944	0.567326	0.376193
Cl187	Cl	0.798157	0.163785	0.588903
Cl188	Cl	1.298157	0.663785	1.088903
Cl189	Cl	0.821766	-0.303079	-0.222270
Cl190	Cl	1.321766	0.196921	0.277730
H191	H	0.820249	-0.405697	-0.192051
H192	H	1.320249	0.094303	0.307949
H193	H	0.477501	0.065972	0.123820
H194	H	0.977501	0.565972	0.623820
H195	H	0.906127	0.004583	0.185491
H196	H	1.406127	0.504583	0.685491
H197	H	0.733460	0.124159	0.671575
H198	H	1.233460	0.624159	1.171575
Cl199	Cl	0.388811	0.129121	0.117997
Cl200	Cl	0.888811	0.629121	0.617997
H201	H	0.815964	-0.697417	-0.123833
H202	H	1.315964	-0.197417	0.376167
H203	H	0.802379	0.144278	0.428506
H204	H	1.302379	0.644278	0.928506
H205	H	0.243852	0.115070	0.094858
H206	H	0.743852	0.615070	0.594858
H207	H	0.906167	0.004587	0.671580
H208	H	1.406167	0.504587	1.171580
Cl209	Cl	0.814420	-0.800083	0.154018
Cl210	Cl	1.314420	-0.300083	0.654018
H211	H	0.820176	-0.405749	0.192067
H212	H	1.320176	0.094251	0.692067
Cl213	Cl	0.178102	0.062914	0.154047
Cl214	Cl	0.678102	0.562914	0.654047
H215	H	0.477525	0.065995	-0.123807
H216	H	0.977525	0.565995	0.376193
Cl217	Cl	0.250765	-0.000366	-0.117983
Cl218	Cl	0.750765	0.499634	0.382017
Cl219	Cl	0.414273	0.001302	-0.117987
Cl220	Cl	0.914273	0.501302	0.382013
Cl221	Cl	0.825127	-0.071215	0.154070
Cl222	Cl	1.325127	0.428785	0.654070
H223	H	0.906135	0.004582	0.328448
H224	H	1.406135	0.504582	0.828448
H225	H	0.733412	0.124150	0.185485
H226	H	1.233412	0.624150	0.685485
Cl227	Cl	0.927248	-0.010009	0.831990
Cl228	Cl	1.427248	0.489991	1.331990
Cl229	Cl	0.819539	-0.454320	-0.222282
Cl230	Cl	1.319539	0.045680	0.277718
Cl231	Cl	0.841464	-0.035039	0.588974
Cl232	Cl	1.341464	0.464961	1.088974
H233	H	0.162086	0.062775	-0.123799
H234	H	0.662086	0.562775	0.376201
H235	H	0.733432	0.124152	0.328448
H236	H	1.233432	0.624152	0.828448
H237	H	0.837202	-0.015535	0.428559
H238	H	1.337202	0.484465	0.928559
Cl239	Cl	0.014629	0.061272	-0.154022
Cl240	Cl	0.514629	0.561272	0.345978
Cl241	Cl	0.624960	0.067470	0.154043
Cl242	Cl	1.124960	0.567470	0.654043
Cl243	Cl	0.014594	0.061240	0.154054
Cl244	Cl	0.514594	0.561240	0.654054
Cl245	Cl	0.814452	-0.800047	-0.154056
Cl246	Cl	1.314452	-0.300047	0.345944
Cl247	Cl	0.825183	-0.071174	-0.154002
Cl248	Cl	1.325183	0.428826	0.345998
H249	H	0.817963	-0.557001	0.192046
H250	H	1.317963	-0.057001	0.692046
H251	H	0.823650	-0.173795	-0.123793
H252	H	1.323650	0.326205	0.376207
Cl253	Cl	0.712389	0.138754	0.831984
Cl254	Cl	1.212389	0.638754	1.331984
H255	H	0.821504	-0.314293	0.192069
H256	H	1.321504	0.185707	0.692069
Cl257	Cl	0.816070	-0.686302	0.154030
Cl258	Cl	1.316070	-0.186302	0.654030
H259	H	0.823624	-0.173847	0.123844
H260	H	1.323624	0.326153	0.623844
H261	H	0.818023	-0.556952	-0.192054
H262	H	1.318023	-0.056952	0.307946
Cl263	Cl	0.819461	-0.454391	0.222278
Cl264	Cl	1.319461	0.045609	0.722278
