data_functionalizedCrystal
_audit_creation_method	'MofGen! by Chris Wilmer'
_symmetry_space_group_name_H-M	'P1'
_symmetry_Int_Tables_number	1
_symmetry_cell_setting	triclinic
loop_
_symmetry_equiv_pos_as_xyz
  x,y,z
_cell_length_a	14.853558
_cell_length_b	14.853567
_cell_length_c	13.330367
_cell_angle_alpha	90.005342
_cell_angle_beta	90.002539
_cell_angle_gamma	83.633032
loop_
_atom_site_label
_atom_site_type_symbol
_atom_site_fract_x
_atom_site_fract_y
_atom_site_fract_z
O1	O	1.196362	0.117657	-0.083403
O2	O	1.696362	0.617657	0.416597
O3	O	0.933902	0.131687	-0.083406
O4	O	1.433902	0.631687	0.416594
O5	O	1.072143	-0.006558	-0.083407
O6	O	1.572143	0.493442	0.416593
O7	O	1.058121	0.255902	-0.083401
O8	O	1.558121	0.755902	0.416599
O9	O	1.072146	-0.006548	0.083440
O10	O	1.572146	0.493452	0.583440
O11	O	0.933905	0.131698	0.083441
O12	O	1.433905	0.631698	0.583441
O13	O	1.196366	0.117667	0.083445
O14	O	1.696366	0.617667	0.583445
Cu15	Cu	1.065136	0.124683	0.098677
Cu16	Cu	1.565136	0.624683	0.598677
Cu17	Cu	1.065132	0.124671	-0.098639
Cu18	Cu	1.565132	0.624671	0.401361
O19	O	1.058125	0.255912	0.083446
O20	O	1.558125	0.755912	0.583446
C21	C	0.900314	0.131058	0.000017
C22	C	1.400314	0.631058	0.500017
C23	C	0.800230	0.129158	0.000015
C24	C	1.300230	0.629158	0.500015
C25	C	0.753208	0.128261	-0.090937
C26	C	1.253208	0.628261	0.409063
C27	C	0.753210	0.128261	0.090966
C28	C	1.253210	0.628261	0.590966
C29	C	0.659177	0.126471	0.090968
C30	C	1.159177	0.626471	0.590968
C31	C	0.612155	0.125574	0.000015
C32	C	1.112155	0.625574	0.500015
C33	C	0.659166	0.126467	-0.090938
C34	C	1.159166	0.626467	0.409062
C35	C	0.612159	0.125568	0.181920
C36	C	1.112159	0.625568	0.681920
C37	C	0.518120	0.123777	0.181925
C38	C	1.018120	0.623777	0.681925
C39	C	0.471095	0.122886	0.090972
C40	C	0.971095	0.622886	0.590972
C41	C	0.518113	0.123781	0.000014
C42	C	1.018113	0.623781	0.500014
C43	C	0.471091	0.122884	-0.090938
C44	C	0.971091	0.622884	0.409062
C45	C	0.518105	0.123785	-0.181897
C46	C	1.018105	0.623785	0.318103
C47	C	0.612142	0.125577	-0.181892
C48	C	1.112142	0.625577	0.318108
C49	C	0.377059	0.121094	0.090967
C50	C	0.877059	0.621094	0.590967
C51	C	0.377049	0.121090	-0.090939
C52	C	0.877049	0.621090	0.409061
C53	C	1.071509	-0.040141	0.000013
C54	C	1.571509	0.459859	0.500013
C55	C	1.069605	-0.140225	0.000005
C56	C	1.569605	0.359775	0.500005
C57	C	0.979439	-0.552756	0.000022
C58	C	1.479439	-0.052756	0.500022
C59	C	1.143673	-0.574042	0.000025
C60	C	1.643673	-0.074042	0.500025
C61	C	1.145463	-0.480009	0.000019
C62	C	1.645463	0.019991	0.500019
C63	C	1.064240	-0.422344	0.000016
C64	C	1.564240	0.077656	0.500016
C65	C	0.981227	-0.458713	0.000020
C66	C	1.481227	0.041287	0.500020
C67	C	1.228474	-0.443632	0.000026
C68	C	1.728474	0.056368	0.500026
C69	C	1.230268	-0.349593	0.000021
C70	C	1.730268	0.150407	0.500021
C71	C	1.149044	-0.291927	0.000011
C72	C	1.649044	0.208073	0.500011
C73	C	1.066027	-0.328301	0.000013
C74	C	1.566027	0.171699	0.500013
C75	C	0.984805	-0.270637	0.000011
C76	C	1.484805	0.229363	0.500011
C77	C	0.901787	-0.307009	0.000006
C78	C	1.401787	0.192991	0.500006
C79	C	0.900003	-0.401047	0.000010
C80	C	1.400003	0.098953	0.500010
C81	C	1.150828	-0.197890	0.000007
C82	C	1.650828	0.302110	0.500007
C83	C	0.986592	-0.176594	0.000008
C84	C	1.486592	0.323406	0.500008
C85	C	1.229953	0.118296	0.000019
C86	C	1.729953	0.618296	0.500019
C87	C	1.330037	0.120197	0.000015
C88	C	1.830037	0.620197	0.500015
C89	C	1.058758	0.289496	0.000023
C90	C	1.558758	0.789496	0.500023
C91	C	1.060662	0.389580	0.000025
C92	C	1.560662	0.889580	0.500025
N93	N	1.065129	0.124656	-0.237420
N94	N	1.565129	0.624656	0.262580
C95	C	1.010516	0.069793	-0.710046
C96	C	1.510516	0.569793	-0.210046
C97	C	1.119771	0.179582	-0.710009
C98	C	1.619771	0.679582	-0.210009
C99	C	1.119767	0.179577	-0.604990
C100	C	1.619767	0.679577	-0.104990
C101	C	1.065139	0.124678	-0.552495
C102	C	1.565139	0.624678	-0.052495
C103	C	1.010513	0.069784	-0.605018
C104	C	1.510513	0.569784	-0.105018
C105	C	1.174398	0.234462	-0.552459
C106	C	1.674398	0.734462	-0.052459
C107	C	1.174398	0.234459	-0.447435
C108	C	1.674398	0.734459	0.052565
C109	C	1.119764	0.179564	-0.394937
C110	C	1.619764	0.679564	0.105063
C111	C	1.065136	0.124669	-0.447467
C112	C	1.565136	0.624669	0.052533
C113	C	1.010507	0.069771	-0.394971
C114	C	1.510507	0.569771	0.105029
C115	C	0.955873	0.014880	-0.447499
C116	C	1.455873	0.514880	0.052501
C117	C	0.955879	0.014890	-0.552521
C118	C	1.455879	0.514890	-0.052521
C119	C	1.119758	0.179554	-0.289916
C120	C	1.619758	0.679554	0.210084
C121	C	1.010504	0.069762	-0.289943
C122	C	1.510504	0.569762	0.210057
N123	N	1.065145	0.124692	0.237459
N124	N	1.565145	0.624692	0.737459
H125	H	0.650453	0.126290	0.255968
H126	H	1.150453	0.626290	0.755968
H127	H	1.164243	0.224242	-0.247152
H128	H	1.664243	0.724242	0.252848
H129	H	0.832414	-0.430670	0.000007
H130	H	1.332414	0.069330	0.500007
H131	H	0.791491	0.128998	-0.164993
H132	H	1.291491	0.628998	0.335007
H133	H	0.911399	-0.029823	-0.404744
H134	H	1.411399	0.470177	0.095256
H135	H	0.911401	-0.029801	-0.595298
H136	H	1.411401	0.470199	-0.095298
H137	H	1.218419	-0.168279	0.000018
H138	H	1.718419	0.331721	0.500018
Br139	Br	0.675953	0.126789	-0.305324
Br140	Br	1.175953	0.626789	0.194676
H141	H	0.966032	0.025105	-0.752819
H142	H	1.466032	0.525105	-0.252819
H143	H	0.966014	0.025060	-0.247209
H144	H	1.466014	0.525060	0.252791
Br145	Br	0.817027	0.129474	0.214395
Br146	Br	1.317027	0.629474	0.714395
H147	H	0.338769	0.120365	-0.165005
H148	H	0.838769	0.620365	0.334995
H149	H	0.479849	0.123042	0.255989
H150	H	0.979849	0.623042	0.755989
H151	H	0.338783	0.120369	0.165024
H152	H	0.838783	0.620369	0.665024
Br153	Br	0.454282	0.122541	-0.305327
Br154	Br	0.954282	0.622541	0.194673
Br155	Br	0.876355	-0.098341	-0.000008
Br156	Br	1.376355	0.401659	0.499992
H157	H	0.835656	-0.260047	0.000011
H158	H	1.335656	0.239953	0.500011
H159	H	1.164252	0.224272	-0.752756
H160	H	1.664252	0.724272	-0.252756
H161	H	1.218880	0.279152	-0.595209
H162	H	1.718880	0.779152	-0.095209
Br163	Br	1.248539	0.308955	-0.376156
Br164	Br	1.748539	0.808955	0.123844
H165	H	0.911848	-0.582375	0.000014
H166	H	1.411848	-0.082375	0.500014
H167	H	1.209801	-0.620998	0.000035
H168	H	1.709801	-0.120998	0.500035
Br169	Br	1.342931	-0.300238	0.000012
Br170	Br	1.842931	0.199762	0.500012
H171	H	1.294601	-0.490589	0.000037
H172	H	1.794601	0.009411	0.500037
