data_functionalizedCrystal
_audit_creation_method	'MofGen! by Chris Wilmer'
_symmetry_space_group_name_H-M	'P1'
_symmetry_Int_Tables_number	1
_symmetry_cell_setting	triclinic
loop_
_symmetry_equiv_pos_as_xyz
  x,y,z
_cell_length_a	19.188930
_cell_length_b	23.532407
_cell_length_c	18.266242
_cell_angle_alpha	89.988983
_cell_angle_beta	89.977082
_cell_angle_gamma	82.996728
loop_
_atom_site_label
_atom_site_type_symbol
_atom_site_fract_x
_atom_site_fract_y
_atom_site_fract_z
O1	O	0.925922	0.071102	-0.061124
O2	O	0.722581	0.080673	-0.061074
O3	O	0.830383	-0.007031	-0.061087
O4	O	0.818120	0.158806	-0.061111
O5	O	0.830365	-0.007035	0.060675
O6	O	0.722562	0.080669	0.060688
O7	O	0.925904	0.071097	0.060638
Zn8	Zn	0.824230	0.075882	0.079995
Zn9	Zn	0.824254	0.075888	-0.080431
O10	O	0.818102	0.158802	0.060651
C11	C	0.696561	0.080361	-0.000187
C12	C	0.619060	0.079431	-0.000168
C13	C	0.573972	0.130893	-0.000187
C14	C	0.501151	0.130019	-0.000194
C15	C	0.473421	0.077680	-0.000198
C16	C	0.518519	0.026211	-0.000175
C17	C	0.591339	0.027086	-0.000160
N18	N	0.365575	0.037674	-0.041663
N19	N	0.296399	0.036846	-0.041679
C20	C	0.254021	0.075038	-0.000243
N21	N	0.283431	0.114099	0.041201
N22	N	0.352613	0.114929	0.041214
C23	C	0.394462	0.076724	-0.000214
C24	C	0.129971	0.125556	-0.000269
C25	C	0.057149	0.124680	-0.000272
C26	C	0.074520	0.020870	-0.000260
C27	C	0.147340	0.021748	-0.000250
C28	C	0.175061	0.074092	-0.000257
C29	C	0.830062	-0.028250	-0.000204
C30	C	0.829123	-0.091469	-0.000198
C31	C	0.887029	-0.490449	-0.000252
C32	C	0.886157	-0.549851	-0.000258
O33	O	0.939837	-0.586482	-0.000298
N34	N	0.822068	-0.572613	-0.000242
C35	C	0.758848	-0.535970	-0.000228
O36	O	0.704255	-0.560786	-0.000215
C37	C	0.759721	-0.476569	-0.000228
C38	C	0.823814	-0.453810	-0.000236
C39	C	0.951117	-0.467690	-0.000262
C40	C	0.951989	-0.408292	-0.000255
C41	C	0.888773	-0.371653	-0.000239
C42	C	0.824685	-0.394412	-0.000230
C43	C	0.696501	-0.439927	-0.000219
C44	C	0.697379	-0.380523	-0.000219
C45	C	0.761472	-0.357764	-0.000228
C46	C	0.762342	-0.298376	-0.000207
N47	N	0.826430	-0.275614	-0.000223
C48	C	0.889646	-0.312252	-0.000239
C49	C	0.757019	-0.660717	-0.000229
C50	C	0.756146	-0.720116	-0.000224
C51	C	0.883455	-0.733993	-0.000256
C52	C	0.884328	-0.674592	-0.000255
C53	C	0.821108	-0.637954	-0.000245
C54	C	0.891472	-0.187512	-0.000224
C55	C	0.892339	-0.128108	-0.000214
C56	C	0.765029	-0.114236	-0.000187
C57	C	0.764163	-0.173634	-0.000193
C58	C	0.827390	-0.210272	-0.000214
O59	O	0.708690	-0.261710	-0.000170
O60	O	0.944230	-0.287428	-0.000261
C61	C	0.951923	0.071410	-0.000251
C62	C	1.029425	0.072340	-0.000275
C63	C	0.818423	0.180021	-0.000234
C64	C	0.819362	0.243240	-0.000244
N65	N	0.824219	0.075878	0.189482
N66	N	0.824271	0.075888	-0.189918
C67	C	0.871970	0.037062	0.227785
C68	C	0.871974	0.037059	0.304430
C69	C	0.824235	0.075883	0.342769
C70	C	0.776475	0.114702	0.304457
C71	C	0.776468	0.114700	0.227813
N72	N	0.814998	0.126298	0.463096
N73	N	0.815010	0.126298	0.535904
C74	C	0.824254	0.075891	0.573691
N75	N	0.833500	0.025481	0.535921
N76	N	0.833492	0.025482	0.463106
C77	C	0.824238	0.075889	0.425876
C78	C	0.872012	0.037068	0.695102
C79	C	0.872012	0.037065	0.771748
C80	C	0.776516	0.114713	0.771773
C81	C	0.776513	0.114711	0.695128
C82	C	0.824265	0.075890	0.656797
H83	H	0.944533	-0.109581	-0.000220
Cl84	Cl	0.932039	-0.011739	0.646913
H85	H	1.002598	-0.497516	-0.000278
Cl86	Cl	0.608818	0.196697	-0.000193
H87	H	0.644310	-0.458446	-0.000216
Cl88	Cl	0.932042	-0.011741	0.819904
Cl89	Cl	0.444458	0.194719	-0.000216
Cl90	Cl	0.483660	-0.039587	-0.000176
H91	H	0.737643	0.146322	0.802988
H92	H	0.152543	0.168178	-0.000265
Cl93	Cl	0.648024	-0.037614	-0.000137
Cl94	Cl	0.716485	0.163515	0.646971
Cl95	Cl	1.032567	-0.379690	-0.000287
H96	H	0.934929	-0.763836	-0.000272
H97	H	0.020438	0.166588	-0.000284
H98	H	0.051943	-0.021745	-0.000309
Cl99	Cl	0.932009	-0.011743	0.352591
Cl100	Cl	0.964905	-0.645988	-0.000267
H101	H	0.737604	0.146312	0.335676
H102	H	0.737582	0.146309	0.196626
Cl103	Cl	0.931995	-0.011745	0.179599
H104	H	0.703955	-0.738641	-0.000205
Cl105	Cl	0.677534	-0.614662	-0.000208
Cl106	Cl	0.617897	-0.334466	-0.000208
H107	H	0.184052	-0.020158	-0.000238
H108	H	0.711973	-0.192165	-0.000165
Cl109	Cl	0.970959	-0.233560	-0.000249
H110	H	0.713561	-0.084394	-0.000171
