data_functionalizedCrystal
_audit_creation_method	'MofGen! by Chris Wilmer'
_symmetry_space_group_name_H-M	'P1'
_symmetry_Int_Tables_number	1
_symmetry_cell_setting	triclinic
loop_
_symmetry_equiv_pos_as_xyz
  x,y,z
_cell_length_a	14.853566
_cell_length_b	15.712078
_cell_length_c	13.930277
_cell_angle_alpha	89.998459
_cell_angle_beta	89.995631
_cell_angle_gamma	101.607781
loop_
_atom_site_label
_atom_site_type_symbol
_atom_site_fract_x
_atom_site_fract_y
_atom_site_fract_z
O1	O	1.233446	0.112890	-0.079764
O2	O	0.975403	0.126340	-0.079779
O3	O	1.070096	-0.006254	-0.079769
O4	O	1.138753	0.245484	-0.079774
O5	O	1.070076	-0.006257	0.079893
O6	O	0.975383	0.126337	0.079883
O7	O	1.233425	0.112887	0.079898
Zn8	Zn	1.104401	0.119612	0.105240
Zn9	Zn	1.104428	0.119615	-0.105121
O10	O	1.138733	0.245481	0.079887
C11	C	0.941604	0.125729	0.000050
C12	C	0.840921	0.123903	0.000044
C13	C	0.415211	0.116183	-0.086971
C14	C	0.415211	0.116181	0.087098
C15	C	0.509808	0.117895	0.087096
C16	C	0.557111	0.118755	0.000058
C17	C	0.509817	0.117900	-0.086977
C18	C	0.557110	0.118758	0.174128
C19	C	0.651713	0.120474	0.174129
C20	C	0.699017	0.121328	0.087090
C21	C	0.651717	0.120472	0.000052
C22	C	0.699021	0.121332	-0.086985
C23	C	0.651722	0.120470	-0.174025
C24	C	0.557121	0.118754	-0.174015
C25	C	0.793618	0.123044	0.087081
C26	C	0.793627	0.123049	-0.086991
C27	C	1.058870	-0.038472	0.000061
C28	C	1.025438	-0.134467	0.000056
C29	C	1.309280	-0.501224	0.000064
C30	C	1.277845	-0.591423	0.000062
C31	C	1.120333	-0.570996	0.000052
C32	C	1.151755	-0.480793	0.000058
C33	C	1.246229	-0.445914	0.000063
C34	C	1.088704	-0.425483	0.000058
C35	C	1.120124	-0.335288	0.000059
C36	C	1.214594	-0.300403	0.000061
C37	C	1.277649	-0.355719	0.000064
C38	C	0.994231	-0.460363	0.000046
C39	C	0.931180	-0.405054	0.000046
C40	C	0.962599	-0.314857	0.000054
C41	C	1.057069	-0.279972	0.000056
C42	C	0.899544	-0.259540	0.000050
C43	C	0.930964	-0.169345	0.000052
C44	C	1.088489	-0.189777	0.000057
C45	C	1.267224	0.113498	0.000067
C46	C	1.367908	0.115323	0.000067
C47	C	1.149959	0.277699	0.000056
C48	C	1.183390	0.373694	0.000054
N49	N	1.104389	0.119608	0.248806
N50	N	1.104444	0.119612	-0.248687
C51	C	1.062488	0.178305	0.701071
C52	C	1.146390	0.060919	0.701049
C53	C	1.146379	0.060916	0.600554
C54	C	1.104422	0.119610	0.550312
C55	C	1.062477	0.178305	0.600566
C56	C	1.188331	0.002227	0.550292
C57	C	1.188322	0.002223	0.449790
C58	C	1.146359	0.060913	0.399547
C59	C	1.104411	0.119610	0.449807
C60	C	1.062455	0.178304	0.399565
C61	C	1.020501	0.236998	0.449823
C62	C	1.020514	0.236995	0.550322
C63	C	1.146346	0.060915	0.299048
C64	C	1.062444	0.178304	0.299060
H65	H	1.165419	-0.161377	0.000071
O66	O	0.839443	-0.439082	0.000086
C67	C	0.825229	-0.530551	0.000059
H68	H	0.888624	-0.551652	0.030283
H69	H	0.812583	-0.555657	-0.076540
C70	C	0.663284	-0.542134	0.025552
C71	C	0.741144	-0.568050	0.062681
H72	H	0.611414	-0.565266	0.064176
H73	H	0.672859	-0.480509	0.025567
H74	H	0.652758	-0.563057	-0.038280
H75	H	0.751675	-0.547117	0.126507
H76	H	0.731569	-0.629672	0.062678
H77	H	1.028326	0.226090	0.741993
H78	H	0.879621	-0.124311	0.000052
H79	H	1.329196	-0.636455	0.000056
H80	H	0.376692	0.115487	0.157960
O81	O	1.187070	0.003942	0.749999
C82	C	1.178109	0.016546	0.849479
H83	H	1.117053	0.048740	0.863217
H84	H	1.243467	0.060007	0.877981
C85	C	1.237499	-0.111428	0.884212
C86	C	1.162504	-0.071892	0.901086
H87	H	1.227878	-0.165980	0.916048
H88	H	1.243540	-0.119918	0.817191
H89	H	1.291957	-0.075202	0.907964
H90	H	1.108050	-0.108113	0.877323
H91	H	1.156454	-0.063411	0.968105
H92	H	0.518590	0.118064	0.244990
O93	O	0.807799	-0.293530	-0.000088
C94	C	0.784925	-0.345064	-0.082797
H95	H	0.848608	-0.367438	-0.110362
H96	H	0.758174	-0.305256	-0.140698
C97	C	0.631833	-0.397426	-0.023837
C98	C	0.710048	-0.424912	-0.057688
H99	H	0.585642	-0.446678	-0.008351
H100	H	0.647242	-0.362704	0.031885
H101	H	0.609552	-0.364252	-0.072094
H102	H	0.732334	-0.458075	-0.009427
H103	H	0.694641	-0.459641	-0.113401
O104	O	1.228927	-0.054867	0.599146
C105	C	1.163032	-0.108279	0.657304
H106	H	1.091418	-0.109865	0.627016
H107	H	1.167221	-0.081217	0.733467
C108	C	1.270090	-0.199088	0.696065
C109	C	1.182132	-0.201043	0.658859
H110	H	1.281874	-0.256308	0.697028
H111	H	1.314487	-0.163102	0.656886
H112	H	1.273570	-0.176533	0.759530
H113	H	1.178657	-0.223587	0.595391
H114	H	1.137736	-0.237035	0.698028
H115	H	0.832126	0.123754	0.157947
O116	O	0.697506	0.121263	0.258760
C117	C	0.635473	0.120160	0.335580
H118	H	0.562751	0.091588	0.310068
H119	H	0.638813	0.189295	0.362342
C120	C	0.750752	0.099256	0.449143
C121	C	0.661434	0.064156	0.417810
H122	H	0.766768	0.064713	0.499868
H123	H	0.792547	0.100002	0.397388
H124	H	0.753525	0.156867	0.471437
H125	H	0.658666	0.006550	0.395504
H126	H	0.619639	0.063398	0.469562
O127	O	0.697800	0.121425	-0.258509
C128	C	0.766964	0.197264	-0.263725
H129	H	0.785943	0.222470	-0.188158
H130	H	0.740634	0.248998	-0.306682
C131	C	0.829134	0.145214	-0.406287
C132	C	0.852450	0.176168	-0.313473
H133	H	0.881865	0.132204	-0.436977
H134	H	0.782535	0.094121	-0.402775
H135	H	0.807192	0.188331	-0.442072
H136	H	0.874381	0.133048	-0.277687
H137	H	0.899055	0.227254	-0.316980
H138	H	0.518602	0.118051	-0.244878
H139	H	1.386210	-0.472824	0.000077
H140	H	0.968652	-0.533807	0.000040
H141	H	0.832135	0.123746	-0.157869
H142	H	1.222481	-0.045569	0.408876
H143	H	1.180509	0.013131	0.258132
H144	H	1.240174	-0.226960	0.000062
H145	H	1.354579	-0.327320	0.000078
O146	O	1.021816	0.235441	0.250302
C147	C	1.064684	0.321066	0.274877
H148	H	1.137043	0.321616	0.302492
H149	H	1.023064	0.346371	0.333221
C150	C	0.981115	0.378997	0.151686
C151	C	1.069991	0.379673	0.185596
H152	H	0.984385	0.415150	0.096615
H153	H	0.952230	0.321310	0.135132
H154	H	0.946441	0.400082	0.200315
H155	H	1.104659	0.358577	0.136972
H156	H	1.098881	0.437358	0.202140
O157	O	0.369259	0.115502	-0.171491
C158	C	0.328977	0.189325	-0.176689
H159	H	0.367591	0.242145	-0.127301
H160	H	0.254010	0.171102	-0.153303
C161	C	0.286659	0.158357	-0.341330
C162	C	0.334090	0.223234	-0.280677
H163	H	0.289808	0.179272	-0.405475
H164	H	0.313794	0.108618	-0.337828
H165	H	0.224191	0.143176	-0.321830
H166	H	0.396559	0.238405	-0.300170
H167	H	0.306965	0.272976	-0.284185
O168	O	1.028588	-0.604984	-0.000078
C169	C	1.005702	-0.656522	-0.082782
H170	H	1.069381	-0.678900	-0.110354
H171	H	0.978945	-0.616717	-0.140682
C172	C	0.852616	-0.708876	-0.023801
C173	C	0.930826	-0.736367	-0.057660
H174	H	0.806426	-0.758126	-0.008307
H175	H	0.868033	-0.674152	0.031917
H176	H	0.830331	-0.675704	-0.072057
H177	H	0.953116	-0.769528	-0.009401
H178	H	0.915411	-0.771099	-0.113370
O179	O	0.979876	0.294132	0.401057
C180	C	1.022742	0.379759	0.425625
H181	H	1.095099	0.380311	0.453250
H182	H	0.981116	0.405070	0.483960
C183	C	0.939186	0.437678	0.302414
C184	C	1.028058	0.438358	0.336336
H185	H	0.942462	0.473827	0.247339
H186	H	0.910303	0.379990	0.285864
H187	H	0.904507	0.458769	0.351036
H188	H	1.062731	0.417257	0.287720
H189	H	1.056947	0.496044	0.352876
H190	H	0.986358	0.284783	0.591248
