data_functionalizedCrystal
_audit_creation_method	'MofGen! by Chris Wilmer'
_symmetry_space_group_name_H-M	'P1'
_symmetry_Int_Tables_number	1
_symmetry_cell_setting	triclinic
loop_
_symmetry_equiv_pos_as_xyz
  x,y,z
_cell_length_a	16.959455
_cell_length_b	13.897448
_cell_length_c	16.959447
_cell_angle_alpha	89.971905
_cell_angle_beta	89.982031
_cell_angle_gamma	90.014639
loop_
_atom_site_label
_atom_site_type_symbol
_atom_site_fract_x
_atom_site_fract_y
_atom_site_fract_z
Zn1	Zn	1.208425	-0.384087	-0.446914
Zn2	Zn	1.208345	-0.545401	-0.314738
Zn3	Zn	1.076245	-0.384113	-0.314751
Zn4	Zn	1.076224	-0.545333	-0.446876
O5	O	1.142310	-0.464733	-0.380820
O6	O	1.319025	-0.405503	-0.429390
O7	O	1.190797	-0.524046	-0.204128
O8	O	1.093822	-0.249128	-0.332305
O9	O	1.318966	-0.524020	-0.332281
O10	O	1.190934	-0.249108	-0.429404
O11	O	1.093744	-0.405548	-0.204139
O12	O	0.965632	-0.405482	-0.332268
O13	O	1.093785	-0.523903	-0.557492
O14	O	0.965616	-0.523929	-0.429340
O15	O	1.190913	-0.405436	-0.557520
O16	O	1.190776	-0.680374	-0.332244
O17	O	1.093707	-0.680323	-0.429326
C18	C	0.936944	-0.464702	-0.380802
C19	C	0.849087	-0.464711	-0.380813
C20	C	0.477595	-0.403007	-0.330380
C21	C	0.477628	-0.526539	-0.431305
C22	C	0.560173	-0.526525	-0.431300
C23	C	0.601434	-0.464752	-0.380834
C24	C	0.560149	-0.402994	-0.330372
C25	C	0.601465	-0.588289	-0.481754
C26	C	0.684016	-0.588279	-0.481751
C27	C	0.725278	-0.526501	-0.431288
C28	C	0.683988	-0.464739	-0.380825
C29	C	0.725248	-0.402966	-0.330359
C30	C	0.683959	-0.341199	-0.279900
C31	C	0.601411	-0.341216	-0.279909
C32	C	0.807826	-0.526484	-0.431279
C33	C	0.807802	-0.402952	-0.330351
C34	C	1.142252	-0.715348	-0.380797
C35	C	1.142300	-0.822562	-0.380814
C36	C	1.142383	-1.018857	-0.380863
C37	C	1.142334	-0.909624	-0.380838
C38	C	1.348478	-0.464766	-0.380838
C39	C	1.436335	-0.464780	-0.380846
C40	C	1.142356	-0.464659	-0.586988
C41	C	1.142375	-0.464628	-0.674845
C42	C	1.142389	-0.213140	-0.380860
C43	C	1.142423	-0.105926	-0.380877
C44	C	1.192917	-0.526308	-0.716115
C45	C	1.091848	-0.402923	-0.716128
C46	C	1.091861	-0.402895	-0.798674
C47	C	1.142403	-0.464575	-0.839944
C48	C	1.192930	-0.526283	-0.798669
C49	C	1.041329	-0.341194	-0.839956
C50	C	1.041340	-0.341164	-0.922507
C51	C	1.091886	-0.402840	-0.963779
C52	C	1.142416	-0.464550	-0.922498
C53	C	1.192957	-0.526230	-0.963768
C54	C	1.243492	-0.587936	-0.922489
C55	C	1.243476	-0.587959	-0.839940
C56	C	1.091902	-0.402818	-1.046327
C57	C	1.192971	-0.526206	-1.046322
C58	C	1.142310	-0.464738	-0.175454
C59	C	1.142443	-0.464498	-0.087597
H60	H	0.841440	-0.576777	-0.472360
C61	C	0.729351	-0.273252	-0.224391
H62	H	0.784426	-0.282093	-0.231619
H63	H	0.715800	-0.287282	-0.171262
H64	H	0.715841	-0.208457	-0.236061
C65	C	0.432244	-0.594482	-0.486813
H66	H	0.377167	-0.585642	-0.479593
H67	H	0.445762	-0.659273	-0.475156
H68	H	0.445793	-0.580434	-0.539943
C69	C	1.248498	-0.594182	-0.670713
H70	H	1.241252	-0.585370	-0.615639
H71	H	1.301612	-0.580068	-0.684256
H72	H	1.236907	-0.658990	-0.684227
H73	H	1.050695	-0.352712	-0.682521
C74	C	0.985741	-0.273352	-0.794559
H75	H	0.992979	-0.282197	-0.739484
H76	H	0.932629	-0.287458	-0.808071
H77	H	0.997333	-0.208536	-0.808104
H78	H	0.567786	-0.290929	-0.238827
C79	C	0.729430	-0.656230	-0.537241
H80	H	0.784503	-0.647384	-0.530003
H81	H	0.715929	-0.642215	-0.590375
H82	H	0.715885	-0.721022	-0.525562
H83	H	0.443974	-0.352715	-0.289300
C84	C	1.248568	-0.594054	-1.091713
H85	H	1.278656	-0.630807	-1.055304
H86	H	1.283020	-0.557149	-1.123931
H87	H	1.218322	-0.636078	-1.123899
C88	C	1.299087	-0.655780	-0.967888
H89	H	1.329180	-0.692536	-0.931486
H90	H	1.333535	-0.618870	-1.000107
H91	H	1.268838	-0.697801	-1.000074
C92	C	0.853186	-0.335001	-0.274840
H93	H	0.908263	-0.343833	-0.282063
H94	H	0.839632	-0.349032	-0.221713
H95	H	0.839670	-0.270208	-0.286512
H96	H	1.000192	-0.290919	-0.956109
C97	C	1.036322	-0.334954	-1.091734
H98	H	1.043565	-0.343775	-1.146808
H99	H	1.047898	-0.270148	-1.078219
H100	H	0.983205	-0.349084	-1.078197
C101	C	0.556079	-0.656232	-0.537262
H102	H	0.501003	-0.647384	-0.530046
H103	H	0.569591	-0.721024	-0.525601
H104	H	0.569632	-0.642190	-0.590392
H105	H	1.284617	-0.638198	-0.806324
