data_functionalizedCrystal
_audit_creation_method	'MofGen! by Chris Wilmer'
_symmetry_space_group_name_H-M	'P1'
_symmetry_Int_Tables_number	1
_symmetry_cell_setting	triclinic
loop_
_symmetry_equiv_pos_as_xyz
  x,y,z
_cell_length_a	16.109318
_cell_length_b	9.130313
_cell_length_c	16.109301
_cell_angle_alpha	90.002670
_cell_angle_beta	83.465022
_cell_angle_gamma	89.996653
loop_
_atom_site_label
_atom_site_type_symbol
_atom_site_fract_x
_atom_site_fract_y
_atom_site_fract_z
O1	O	1.103118	0.121682	0.106932
O2	O	0.861058	0.121712	0.120216
O3	O	0.988738	0.121682	-0.007456
O4	O	0.975439	0.121713	0.234605
O5	O	0.988736	-0.121917	-0.007453
O6	O	0.861057	-0.121886	0.120220
O7	O	1.103117	-0.121917	0.106935
Cu8	Cu	0.982086	-0.144144	0.113578
Cu9	Cu	0.982088	0.143940	0.113574
O10	O	0.975437	-0.121886	0.234608
C11	C	0.830083	-0.000083	0.119677
C12	C	0.737788	-0.000072	0.118057
C13	C	0.438715	0.132687	0.112820
C14	C	0.525437	0.132696	0.114337
C15	C	0.525454	-0.132889	0.114329
C16	C	0.438735	-0.132896	0.112806
C17	C	0.395367	-0.000104	0.112056
C18	C	0.568807	-0.000087	0.115096
C19	C	0.662835	-0.000078	0.116742
C20	C	0.301334	-0.000113	0.110409
N21	N	0.982091	-0.346767	0.113580
C22	C	1.038642	-0.423432	0.057066
C23	C	1.038640	-0.576769	0.057056
C24	C	0.925533	-0.576761	0.170082
C25	C	0.925532	-0.423427	0.170087
C26	C	1.095201	-0.346772	0.000559
C27	C	1.151757	-0.423438	-0.055960
C28	C	1.151755	-0.576775	-0.055970
C29	C	1.095197	-0.653446	0.000539
C30	C	1.134092	-0.000118	0.107474
C31	C	1.226387	-0.000119	0.109095
C32	C	0.988198	-0.000119	-0.038430
C33	C	0.986583	-0.000120	-0.130725
N34	N	0.982090	0.346562	0.113565
C35	C	1.058590	-0.000106	-0.352993
C36	C	1.057066	-0.000094	-0.439713
C37	C	0.905579	-0.000081	-0.419848
C38	C	0.907104	-0.000083	-0.333130
C39	C	0.983612	-0.000103	-0.299704
C40	C	0.980563	-0.000089	-0.473144
C41	C	0.978910	-0.000075	-0.567170
C42	C	0.985265	-0.000113	-0.205672
C43	C	0.975976	-0.000083	0.265581
C44	C	0.977592	-0.000071	0.357877
H45	H	0.403440	-0.241037	0.112183
C46	C	0.863305	-0.339090	0.232238
N47	N	0.816425	-0.275567	0.279043
H48	H	1.120888	-0.000120	-0.325781
H49	H	1.197801	-0.361004	-0.101972
H50	H	0.879486	-0.639197	0.216090
H51	H	1.095210	-0.221917	0.000563
C52	C	1.095198	-0.822122	0.000525
N53	N	1.095203	-0.949167	0.000517
H54	H	1.197799	-0.639194	-0.101994
C55	C	1.139549	-0.000111	-0.498328
N56	N	1.201678	-0.000127	-0.542476
C57	C	0.573116	0.278777	0.115175
N58	N	0.609028	0.388812	0.115805
C59	C	0.391016	0.278762	0.111983
N60	N	0.355091	0.388790	0.111349
H61	H	0.846043	-0.000075	-0.289740
C62	C	0.821424	-0.000087	-0.456625
N63	N	0.758037	-0.000103	-0.484324
H64	H	0.560774	-0.241003	0.114942
