data_functionalizedCrystal
_audit_creation_method	'MofGen! by Chris Wilmer'
_symmetry_space_group_name_H-M	'P1'
_symmetry_Int_Tables_number	1
_symmetry_cell_setting	triclinic
loop_
_symmetry_equiv_pos_as_xyz
  x,y,z
_cell_length_a	10.723024
_cell_length_b	10.654550
_cell_length_c	9.130313
_cell_angle_alpha	90.001966
_cell_angle_beta	90.002785
_cell_angle_gamma	95.523614
loop_
_atom_site_label
_atom_site_type_symbol
_atom_site_fract_x
_atom_site_fract_y
_atom_site_fract_z
O1	O	1.657213	-0.176140	0.121786
O2	O	1.294063	-0.193000	0.121790
O3	O	1.483988	-0.001829	0.121783
O4	O	1.467289	-0.367310	0.121794
O5	O	1.483974	-0.001843	-0.121816
O6	O	1.294050	-0.193014	-0.121808
O7	O	1.657200	-0.176153	-0.121813
Cu8	Cu	1.475623	-0.184585	-0.144053
Cu9	Cu	1.475639	-0.184569	0.144031
O10	O	1.467275	-0.367324	-0.121805
C11	C	1.247557	-0.191780	-0.000008
C12	C	1.109002	-0.188109	-0.000007
C13	C	1.034035	-0.295078	-0.000002
C14	C	0.890831	-0.291287	-0.000001
C15	C	1.482755	0.044961	-0.000015
C16	C	1.479086	0.184404	-0.000010
C17	C	1.703706	-0.177373	-0.000011
C18	C	1.842261	-0.181045	-0.000003
C19	C	1.468508	-0.414115	-0.000004
C20	C	1.472176	-0.553558	0.000000
N21	N	1.475621	-0.184596	-0.346676
C22	C	1.590911	0.263907	-0.000016
C23	C	1.587456	0.394927	-0.000005
C24	C	1.360343	0.366929	0.000010
C25	C	1.363799	0.235912	0.000011
C26	C	1.722033	0.280072	-0.000031
C27	C	1.718579	0.411092	-0.000021
C28	C	1.399304	-0.107693	-0.576679
C29	C	1.399292	-0.107714	-0.423342
C30	C	1.551977	-0.261454	-0.423354
C31	C	1.551995	-0.261426	-0.576688
C32	C	1.311148	-0.018937	-0.576671
C33	C	1.311136	-0.018957	-0.423334
N34	N	1.475651	-0.184548	0.346653
H35	H	0.906672	-0.089466	0.000003
Br36	Br	1.039287	-0.030781	-0.000028
Br37	Br	1.203889	0.436841	0.000047
H38	H	1.763781	0.244445	-0.105213
H39	H	1.272741	0.171184	0.000036
H40	H	1.341879	0.080116	-0.618249
Br41	Br	1.784629	0.487200	0.175278
Br42	Br	1.103750	-0.452406	-0.000007
Br43	Br	1.807523	0.231149	0.169864
H44	H	1.767978	0.452854	-0.101965
H45	H	1.614177	-0.323996	-0.639105
Br46	Br	1.655585	-0.365779	-0.319309
H47	H	1.217175	-0.058415	-0.624259
Br48	Br	1.376583	0.138654	-0.344000
H49	H	0.826412	-0.382860	0.000009
Br50	Br	1.147076	-0.070367	-0.354002
