data_functionalizedCrystal
_audit_creation_method	'MofGen! by Chris Wilmer'
_symmetry_space_group_name_H-M	'P1'
_symmetry_Int_Tables_number	1
_symmetry_cell_setting	triclinic
loop_
_symmetry_equiv_pos_as_xyz
  x,y,z
_cell_length_a	17.038272
_cell_length_b	16.992694
_cell_length_c	16.053802
_cell_angle_alpha	87.249047
_cell_angle_beta	87.248391
_cell_angle_gamma	89.110110
loop_
_atom_site_label
_atom_site_type_symbol
_atom_site_fract_x
_atom_site_fract_y
_atom_site_fract_z
O1	O	0.163385	-1.054593	0.069325
O2	O	0.161558	-0.826187	0.069350
O3	O	0.048571	-0.939032	0.069331
O4	O	0.276372	-0.941748	0.069344
O5	O	0.054763	-0.932819	-0.069527
O6	O	0.167750	-0.819974	-0.069508
O7	O	0.169577	-1.048380	-0.069533
Zn8	Zn	0.169646	-0.933190	-0.091567
Zn9	Zn	0.161489	-0.941376	0.091384
O10	O	0.282564	-0.935535	-0.069514
C11	C	0.022384	-0.933456	-0.000098
C12	C	-0.064871	-0.926089	-0.000097
C13	C	0.162304	-0.793711	-0.000076
C14	C	0.155293	-0.706200	-0.000067
C15	C	0.168831	-1.080856	-0.000105
C16	C	0.175841	-1.168367	-0.000109
C17	C	-0.110741	-0.993729	-0.000105
C18	C	-0.192727	-0.986802	-0.000096
C19	C	-0.228840	-0.912235	-0.000085
C20	C	-0.182964	-0.844590	-0.000075
C21	C	-0.100981	-0.851518	-0.000077
C22	C	-0.476135	-0.887761	-0.000071
C23	C	-0.558124	-0.880838	-0.000071
C24	C	-0.567881	-1.023051	-0.000091
C25	C	-0.485895	-1.029972	-0.000099
C26	C	-0.440026	-0.962328	-0.000084
C27	C	-0.312643	-0.905153	-0.000079
C28	C	-0.356226	-0.969410	-0.000084
C29	C	0.308751	-0.941111	-0.000084
C30	C	0.396006	-0.948478	-0.000079
N31	N	0.175214	-0.927609	-0.216427
C32	C	0.222933	-0.660472	-0.000064
C33	C	0.216342	-0.578245	-0.000076
C34	C	0.142110	-0.541748	-0.000085
C35	C	0.074465	-0.587482	-0.000091
C36	C	0.081057	-0.669707	-0.000085
C37	C	0.114789	-0.296327	-0.000109
C38	C	0.108201	-0.214096	-0.000112
C39	C	0.250079	-0.204864	-0.000099
C40	C	0.256665	-0.287091	-0.000088
C41	C	0.189020	-0.332818	-0.000098
N42	N	0.135371	-0.457699	-0.000094
N43	N	0.195760	-0.416865	-0.000095
C44	C	0.127157	-0.975645	-0.260129
C45	C	0.131060	-0.971749	-0.347535
C46	C	0.183023	-0.919820	-0.391237
C47	C	0.231082	-0.871779	-0.347529
C48	C	0.227175	-0.875672	-0.260125
C49	C	0.200067	-0.902815	-0.652644
C50	C	0.203972	-0.898928	-0.740055
C51	C	0.103948	-0.998897	-0.740054
C52	C	0.100050	-1.002788	-0.652648
C53	C	0.148105	-0.954744	-0.608948
N54	N	0.187015	-0.915838	-0.480580
N55	N	0.144109	-0.958723	-0.519606
N56	N	0.155915	-0.946963	0.216243
H57	H	-0.230071	-1.041882	-0.000105
H58	H	-0.438798	-0.832680	-0.000059
H59	H	-0.587524	-0.820113	-0.000076
C60	C	0.218634	-0.788538	-0.838379
C61	C	0.261088	-0.841842	-0.788102
H62	H	0.253896	-0.753303	-0.868046
H63	H	0.182651	-0.759555	-0.804293
H64	H	0.190574	-0.816607	-0.876905
H65	H	0.289144	-0.813774	-0.749572
H66	H	0.297085	-0.870828	-0.822192
C67	C	0.233061	-0.774026	-0.161848
C68	C	0.280001	-0.822870	-0.212085
H69	H	0.265675	-0.741423	-0.132196
H70	H	0.201563	-0.805510	-0.123316
H71	H	0.200121	-0.742011	-0.195966
H72	H	0.312938	-0.854890	-0.177967
H73	H	0.311513	-0.791383	-0.250621
C74	C	-0.041022	-0.706088	0.071297
C75	C	0.006707	-0.719978	-0.000082
H76	H	-0.086921	-0.737127	0.071298
H77	H	-0.055571	-0.651902	0.071287
H78	H	-0.012944	-0.719827	0.119717
H79	H	-0.021369	-0.706233	-0.048501
H80	H	0.021255	-0.774176	-0.000079
H81	H	0.047750	-0.184383	-0.000119
C82	C	-0.026111	-0.297181	-0.000116
C83	C	0.040434	-0.346583	-0.000113
H84	H	-0.072016	-0.328212	-0.000114
H85	H	-0.023569	-0.262759	-0.048537
H86	H	-0.027884	-0.267078	0.048309
H87	H	0.042209	-0.376682	-0.048542
H88	H	0.037891	-0.381019	0.048312
C89	C	-0.196701	-0.718045	-0.071433
C90	C	-0.222655	-0.762622	-0.000060
H91	H	-0.221199	-0.667438	-0.071420
H92	H	-0.209992	-0.743955	-0.119851
H93	H	-0.141308	-0.712500	-0.071423
H94	H	-0.278047	-0.768172	-0.000073
H95	H	-0.209369	-0.736706	0.048371
C96	C	-0.006303	-0.780004	0.071316
C97	C	-0.050557	-0.777166	-0.000068
H98	H	0.024821	-0.734098	0.071325
H99	H	0.026933	-0.825399	0.071302
H100	H	-0.040655	-0.782425	0.119732
H101	H	-0.016205	-0.774751	-0.048485
H102	H	-0.083797	-0.731759	-0.000063
C103	C	-0.668911	-1.100958	0.071289
C104	C	-0.618300	-1.097404	-0.000096
H105	H	-0.700034	-1.146865	0.071290
H106	H	-0.702149	-1.055563	0.071287
H107	H	-0.638871	-1.102867	0.119704
H108	H	-0.648341	-1.095488	-0.048511
H109	H	-0.585058	-1.142810	-0.000101
C110	C	0.331869	-0.866844	-0.625735
C111	C	0.252899	-0.850013	-0.604620
H112	H	0.364487	-0.834248	-0.596081
H113	H	0.341621	-0.857098	-0.684039
H114	H	0.343057	-0.920601	-0.611392
H115	H	0.241710	-0.796257	-0.618969
H116	H	0.243143	-0.859752	-0.546303
C117	C	-0.128629	-1.133603	-0.000110
C118	C	-0.071049	-1.075697	-0.000111
H119	H	-0.104125	-1.184207	-0.000105
H120	H	-0.158243	-1.125780	-0.048530
H121	H	-0.162561	-1.130099	0.048316
H122	H	-0.037121	-1.079197	-0.048541
H123	H	-0.041422	-1.083523	0.048314
C124	C	0.342710	-0.681088	0.071327
C125	C	0.304534	-0.700582	-0.000053
H126	H	0.393090	-0.705845	0.071327
H127	H	0.312487	-0.698626	0.119740
H128	H	0.348455	-0.625571	0.071314
H129	H	0.298784	-0.756099	-0.000037
H130	H	0.334764	-0.683049	-0.048479
C131	C	0.281490	-0.821430	-0.481513
C132	C	0.288203	-0.814700	-0.395565
H133	H	0.316761	-0.786195	-0.511165
H134	H	0.229199	-0.808746	-0.495845
H135	H	0.293971	-0.873913	-0.495817
H136	H	0.275716	-0.762218	-0.381260
H137	H	0.340507	-0.827379	-0.381227
H138	H	-0.456497	-1.090692	-0.000108
H139	H	-0.326819	-1.030124	-0.000074
C140	C	0.112428	-1.086015	-0.161779
C141	C	0.070015	-1.032690	-0.212073
H142	H	0.077141	-1.121223	-0.132111
H143	H	0.140503	-1.057964	-0.123261
H144	H	0.148398	-1.115032	-0.195860
H145	H	0.034049	-1.003669	-0.177991
H146	H	0.041927	-1.060745	-0.250595
C147	C	0.288046	-0.483604	0.071314
C148	C	0.290695	-0.527982	-0.000063
H149	H	0.333950	-0.452571	0.071318
H150	H	0.285504	-0.518032	0.119729
H151	H	0.242892	-0.450100	0.071293
H152	H	0.335846	-0.561489	-0.000039
H153	H	0.293245	-0.493550	-0.048491
H154	H	0.014024	-0.557760	-0.000110
H155	H	0.317112	-0.316801	-0.000071
H156	H	0.091928	-1.010863	-0.383116
C157	C	0.365792	-0.174857	0.071293
C158	C	0.324430	-0.154597	-0.000094
H159	H	0.411692	-0.143820	0.071295
H160	H	0.380339	-0.229043	0.071291
H161	H	0.333397	-0.165434	0.119707
H162	H	0.356824	-0.164026	-0.048508
H163	H	0.309885	-0.100398	-0.000099
C164	C	0.001564	-1.101204	-0.661430
C165	C	0.042925	-1.059865	-0.604613
H166	H	-0.033704	-1.136438	-0.631773
H167	H	0.037554	-1.130187	-0.695509
H168	H	-0.027219	-1.065020	-0.695533
H169	H	0.071713	-1.096049	-0.570514
H170	H	0.006930	-1.030881	-0.570520
H171	H	-0.342056	-0.844440	-0.000072
H172	H	0.064823	-1.038011	-0.775643
