data_functionalizedCrystal
_audit_creation_method	'MofGen! by Chris Wilmer'
_symmetry_space_group_name_H-M	'P1'
_symmetry_Int_Tables_number	1
_symmetry_cell_setting	triclinic
loop_
_symmetry_equiv_pos_as_xyz
  x,y,z
_cell_length_a	6.817900
_cell_length_b	7.190401
_cell_length_c	7.076148
_cell_angle_alpha	96.846389
_cell_angle_beta	62.297619
_cell_angle_gamma	119.389243
loop_
_atom_site_label
_atom_site_type_symbol
_atom_site_fract_x
_atom_site_fract_y
_atom_site_fract_z
V1	V	4.298442	0.663532	-0.291680
V2	V	4.798442	1.163532	0.208320
O3	O	4.202197	0.652427	0.017543
O4	O	4.702197	1.152427	0.517543
O5	O	4.323682	0.657526	-0.581743
O6	O	4.823682	1.157526	-0.081743
O7	O	4.334048	0.953590	-0.285646
O8	O	4.834048	1.453590	0.214354
O9	O	4.191759	0.354313	-0.280604
O10	O	4.691759	0.854313	0.219396
V11	V	4.761642	0.626725	-0.254876
V12	V	5.261642	1.126725	0.245124
O13	O	4.604279	0.744270	-0.372411
O14	O	5.104279	1.244270	0.127589
O15	O	4.906002	0.545986	-0.174144
O16	O	5.406002	1.045986	0.325856
O17	O	4.513195	0.632731	0.035187
O18	O	5.013195	1.132731	0.535187
O19	O	4.975284	0.637830	-0.564098
O20	O	5.475284	1.137830	-0.064098
O21	O	4.985721	0.935944	-0.265951
O22	O	5.485721	1.435944	0.234049
O23	O	4.502830	0.336666	-0.260910
O24	O	5.002830	0.836666	0.239090
C25	C	4.310096	1.265910	-0.271769
C26	C	4.810096	1.765910	0.228231
C27	C	4.197103	1.024334	-0.274819
C28	C	4.697103	1.524334	0.225181
C29	C	4.316356	0.643573	0.105936
C30	C	4.816356	1.143573	0.605936
C31	C	4.190818	0.646651	0.347507
C32	C	4.690818	1.146651	0.847507
