data_functionalizedCrystal
_audit_creation_method	'MofGen! by Chris Wilmer'
_symmetry_space_group_name_H-M	'P1'
_symmetry_Int_Tables_number	1
_symmetry_cell_setting	triclinic
loop_
_symmetry_equiv_pos_as_xyz
  x,y,z
_cell_length_a	27.440280
_cell_length_b	17.917603
_cell_length_c	17.917559
_cell_angle_alpha	60.139256
_cell_angle_beta	90.006995
_cell_angle_gamma	63.032973
loop_
_atom_site_label
_atom_site_type_symbol
_atom_site_fract_x
_atom_site_fract_y
_atom_site_fract_z
Zr1	Zr	0.497305	0.806773	-0.128964
O2	O	0.427375	0.951814	-0.249512
O3	O	0.515400	0.654543	-0.087309
O4	O	0.524230	0.796390	-0.242714
O5	O	0.415382	0.820665	0.023133
O6	O	0.604431	0.796377	-0.242699
O7	O	0.418545	0.809967	-0.094106
O8	O	0.588637	0.542639	0.035292
O9	O	0.431177	1.074402	-0.254858
O10	O	0.587009	0.719810	-0.075211
O11	O	0.524794	0.727803	0.012272
O12	O	0.535190	0.894809	-0.170697
O13	O	0.472975	0.902802	-0.083214
Zr14	Zr	0.620172	0.823813	0.058045
Zr15	Zr	0.625217	0.806752	-0.128939
Zr16	Zr	0.492259	0.823834	0.058020
Zr17	Zr	0.503368	1.002287	-0.137491
Zr18	Zr	0.614109	0.628299	0.066572
O19	O	0.602077	0.976043	0.016390
O20	O	0.609251	0.951784	-0.249477
O21	O	0.420201	0.976072	0.016356
O22	O	0.690101	0.678772	0.178593
O23	O	0.697275	0.654514	-0.087274
O24	O	0.508226	0.678802	0.178558
O25	O	0.702095	0.809921	-0.094052
O26	O	0.593247	0.834196	0.171796
O27	O	0.513045	0.834209	0.171780
O28	O	0.698931	0.820619	0.023188
O29	O	0.532850	1.074386	-0.254839
O30	O	0.584626	0.556200	0.183920
O31	O	0.686300	0.556184	0.183939
O32	O	0.690310	0.542623	0.035312
O33	O	0.427166	1.087963	-0.106231
O34	O	0.528840	1.087947	-0.106211
O35	O	0.582287	0.735777	0.099778
O36	O	0.644502	0.727784	0.012295
O37	O	0.592683	0.902783	-0.083191
O38	O	0.530468	0.910776	0.004292
C39	C	0.551154	0.570735	-0.024793
C40	C	0.548581	0.487734	-0.021174
C41	C	0.543878	0.335768	-0.014563
C42	C	0.573597	0.294813	-0.056354
C43	C	0.570981	0.210254	-0.052675
C44	C	0.546494	0.420335	-0.018240
C45	C	0.398739	0.815319	-0.035490
C46	C	0.344437	0.815328	-0.035500
C47	C	0.034784	0.723930	0.014408
C48	C	-0.016235	0.723925	0.014416
O49	O	-0.019619	0.646240	0.056832
N50	N	-0.068800	0.815272	-0.035427
C51	C	-0.070346	0.906630	-0.085275
O52	O	-0.119742	0.984327	-0.127670
C53	C	-0.019328	0.906634	-0.085277
C54	C	0.033237	0.815281	-0.035438
C55	C	0.087347	0.632585	0.064245
C56	C	0.138362	0.632590	0.064235
C57	C	0.136815	0.723941	0.014389
C58	C	0.084252	0.815287	-0.035447
C59	C	-0.020875	0.997992	-0.135119
C60	C	0.030149	0.997989	-0.135117
C61	C	0.082714	0.906636	-0.085277
C62	C	0.133720	0.906643	-0.085303
N63	N	0.186285	0.815296	-0.035459
C64	C	0.187833	0.723945	0.014387
C65	C	-0.177486	0.906613	-0.085265
C66	C	-0.228503	0.906610	-0.085268
C67	C	-0.174388	0.723905	0.014424
C68	C	-0.123370	0.723909	0.014422
C69	C	-0.124920	0.815267	-0.035421
C70	C	0.294967	0.723964	0.014363
C71	C	0.345984	0.723977	0.014346
C72	C	0.291864	0.906681	-0.085343
C73	C	0.240851	0.906669	-0.085330
C74	C	0.242406	0.815302	-0.035471
O75	O	0.137148	0.984289	-0.127694
O76	O	0.237231	0.646262	0.056784
C77	C	0.718738	0.815267	-0.035429
C78	C	0.773040	0.815258	-0.035418
C79	C	0.565049	0.793953	-0.269348
C80	C	0.567191	0.786710	-0.348727
C81	C	0.566322	1.059851	-0.046125
C82	C	0.568896	1.142852	-0.049745
C83	C	0.546362	0.857094	-0.576832
C84	C	0.571114	0.773496	-0.494084
C85	C	0.568931	0.780851	-0.413201
C86	C	0.548544	0.849742	-0.657724
C87	C	0.552427	0.836633	0.198429
C88	C	0.550285	0.843876	0.277809
C89	C	0.711154	0.570709	-0.024763
C90	C	0.762882	0.487699	-0.021133
C91	C	0.544843	0.592075	0.209095
C92	C	0.540128	0.516317	0.292095
C93	C	0.704843	0.592049	0.209126
C94	C	0.754429	0.516282	0.292136
C95	C	0.412634	1.038537	-0.280044
C96	C	0.363047	1.114304	-0.363054
C97	C	0.406323	1.059877	-0.046156
C98	C	0.354594	1.142887	-0.049786
C99	C	0.572633	1.038511	-0.280014
C100	C	0.577349	1.114269	-0.363013
C101	C	0.757164	0.444554	-0.065113
C102	C	0.805764	0.366567	-0.061720
C103	C	0.860082	0.331721	-0.014341
C104	C	0.865799	0.374874	0.029641
C105	C	0.817200	0.452865	0.026242
C106	C	0.567923	0.484903	0.376757
C107	C	0.563490	0.413732	0.454751
C108	C	0.531264	0.373971	0.448080
C109	C	0.503465	0.405391	0.363408
C110	C	0.507895	0.476567	0.285416
C111	C	0.810197	0.476529	0.285452
C112	C	0.856794	0.405348	0.363441
C113	C	0.847622	0.373917	0.448113
C114	C	0.791850	0.413677	0.454794
C115	C	0.745254	0.484862	0.376806
C116	C	0.307280	1.154066	-0.356372
C117	C	0.260684	1.225271	-0.434362
C118	C	0.269855	1.256707	-0.519033
C119	C	0.325628	1.216941	-0.525714
C120	C	0.372224	1.145743	-0.447725
C121	C	0.360313	1.186039	-0.005814
C122	C	0.311714	1.264046	-0.009229
C123	C	0.257396	1.298894	-0.056611
C124	C	0.251679	1.255738	-0.100588
C125	C	0.300278	1.177737	-0.097179
C126	C	0.609580	1.154008	-0.356313
C127	C	0.614022	1.225181	-0.434293
C128	C	0.586230	1.256619	-0.518971
C129	C	0.553998	1.216872	-0.525669
C130	C	0.549560	1.145695	-0.447690
H131	H	0.388784	0.649583	0.054934
N132	N	0.525623	1.248931	-0.612151
N133	N	0.472488	1.290407	-0.636347
H134	H	0.452455	1.313025	-0.697420
N135	N	0.599741	0.676787	-0.481423
N136	N	0.572700	0.652719	-0.512013
H137	H	0.592915	0.584421	-0.503076
H138	H	0.586131	0.388158	0.523686
N139	N	0.415797	1.150439	0.042587
N140	N	0.446650	1.060180	0.106912
H141	H	0.485835	1.035042	0.141094
H142	H	0.523312	1.113347	-0.453158
H143	H	0.640267	1.257536	-0.428822
N144	N	0.782484	0.381544	0.541287
N145	N	0.753926	0.340042	0.565435
H146	H	0.747312	0.317340	0.626523
N147	N	0.207751	1.378573	-0.060101
N148	N	0.175624	1.459202	-0.134237
H149	H	0.140563	1.515475	-0.136700
N150	N	0.509484	0.300119	0.033772
N151	N	0.481534	0.338580	0.073059
H152	H	0.457241	0.313399	0.107193
H153	H	0.801098	0.331441	-0.097535
N154	N	0.895215	0.301188	0.527782
N155	N	0.887025	0.273120	0.603380
H156	H	0.920639	0.221751	0.659645
H157	H	0.699847	0.517220	0.382260
H158	H	0.296241	0.649564	0.054964
N159	N	0.297893	1.121972	-0.269895
N160	N	0.248093	1.157498	-0.263958
H161	H	0.241458	1.134840	-0.202886
H162	H	-0.080572	0.649522	0.055014
N163	N	0.429190	1.105101	-0.454542
N164	N	0.470794	1.041523	-0.384911
H165	H	0.511027	1.012820	-0.389730
H166	H	0.527662	0.316016	0.511593
N167	N	0.517726	0.953796	-0.589489
N168	N	0.515973	0.959699	-0.522802
H169	H	0.495748	1.027993	-0.531731
N170	N	0.701688	0.480118	-0.113509
N171	N	0.696601	0.441575	-0.152769
H172	H	0.657422	0.466688	-0.186953
N173	N	0.479497	0.508638	0.198944
N174	N	0.450729	0.473122	0.193011
H175	H	0.430670	0.495769	0.131941
N176	N	0.909712	0.251974	-0.010793
N177	N	0.904588	0.213409	-0.050007
H178	H	0.939635	0.157053	-0.047470
N179	N	-0.172822	0.630597	0.065331
N180	N	-0.218380	0.630616	0.065319
H181	H	-0.217277	0.564722	0.101266
N182	N	0.921290	0.339261	0.078033
N183	N	0.964672	0.269620	0.081060
H184	H	1.003863	0.244461	0.115241
H185	H	0.181159	0.558200	0.104816
N186	N	0.823056	0.496919	0.071176
N187	N	0.871560	0.465789	0.113475
H188	H	0.875700	0.496900	0.145212
H189	H	0.601005	0.323257	-0.094895
H190	H	0.207447	1.284123	-0.139166
H191	H	0.594165	0.517270	0.382206
N192	N	0.222262	1.329419	-0.598701
N193	N	0.230452	1.357477	-0.674299
H194	H	0.196838	1.408826	-0.730563
N195	N	0.334979	1.249058	-0.612215
N196	N	0.314592	1.235632	-0.663639
H197	H	0.321193	1.258313	-0.724733
H198	H	0.477227	0.373007	0.357990
H199	H	0.215276	1.257637	-0.428904
N200	N	0.913756	0.364753	0.356588
N201	N	0.921931	0.392822	0.280981
H202	H	0.962159	0.364154	0.276137
H203	H	0.295613	1.142605	-0.132984
H204	H	0.316380	1.299171	0.026587
H205	H	0.817675	0.502110	0.216516
H206	H	-0.271299	0.980997	-0.125864
H207	H	0.088617	0.558192	0.104840
N208	N	0.637975	1.121916	-0.269830
N209	N	0.666753	1.157410	-0.263877
H210	H	0.686812	1.134745	-0.202800
H211	H	0.589848	1.314577	-0.582459
H212	H	-0.178756	0.981012	-0.125858
H213	H	0.028880	1.072386	-0.175695
N214	N	-0.074560	1.091309	-0.186040
N215	N	-0.085629	1.147924	-0.269361
H216	H	-0.123545	1.213836	-0.305327
N217	N	0.187161	0.999988	-0.136261
N218	N	0.185790	1.081544	-0.180770
H219	H	0.147874	1.147454	-0.216738
N220	N	0.290301	0.999981	-0.136257
N221	N	0.335859	0.999961	-0.136248
H222	H	0.334757	1.065854	-0.172203
