data_functionalizedCrystal
_audit_creation_method	'MofGen! by Chris Wilmer'
_symmetry_space_group_name_H-M	'P1'
_symmetry_Int_Tables_number	1
_symmetry_cell_setting	triclinic
loop_
_symmetry_equiv_pos_as_xyz
  x,y,z
_cell_length_a	13.897449
_cell_length_b	12.594516
_cell_length_c	12.594509
_cell_angle_alpha	89.973801
_cell_angle_beta	89.980142
_cell_angle_gamma	90.017332
loop_
_atom_site_label
_atom_site_type_symbol
_atom_site_fract_x
_atom_site_fract_y
_atom_site_fract_z
Zn1	Zn	1.474705	-0.423674	-0.601833
Zn2	Zn	1.808039	-0.090340	-0.268500
Zn3	Zn	2.141372	0.242993	0.064833
Zn4	Zn	1.474606	-0.601684	-0.423861
Zn5	Zn	1.807940	-0.268351	-0.090528
Zn6	Zn	2.141273	0.064983	0.242806
Zn7	Zn	1.313397	-0.423724	-0.423867
Zn8	Zn	1.646730	-0.090390	-0.090533
Zn9	Zn	1.980064	0.242943	0.242800
Zn10	Zn	1.313381	-0.601615	-0.601796
Zn11	Zn	1.646714	-0.268281	-0.268462
Zn12	Zn	1.980047	0.065052	0.064871
O13	O	1.394022	-0.512674	-0.512839
O14	O	1.727356	-0.179341	-0.179506
O15	O	2.060689	0.153993	0.153827
O16	O	1.609674	-0.447295	-0.578238
O17	O	1.943007	-0.113962	-0.244905
O18	O	2.276340	0.219371	0.088428
O19	O	1.453187	-0.578127	-0.274916
O20	O	1.786520	-0.244794	0.058417
O21	O	2.119854	0.088540	0.391751
O22	O	1.334843	-0.274771	-0.447493
O23	O	1.668176	0.058562	-0.114159
O24	O	2.001510	0.391895	0.219174
O25	O	1.609601	-0.578079	-0.447483
O26	O	1.942934	-0.244745	-0.114150
O27	O	2.276268	0.088588	0.219184
O28	O	1.453356	-0.274735	-0.578244
O29	O	1.786689	0.058599	-0.244911
O30	O	2.120022	0.391932	0.088423
O31	O	1.334747	-0.447381	-0.274920
O32	O	1.668080	-0.114047	0.058413
O33	O	2.001414	0.219286	0.391747
O34	O	1.178413	-0.447313	-0.447456
O35	O	1.511746	-0.113980	-0.114123
O36	O	1.845080	0.219353	0.219211
O37	O	1.334815	-0.577960	-0.750747
O38	O	1.668149	-0.244627	-0.417413
O39	O	2.001482	0.088706	-0.084080
O40	O	1.178401	-0.578009	-0.578180
O41	O	1.511735	-0.244676	-0.244846
O42	O	1.845068	0.088658	0.088487
O43	O	1.453340	-0.447228	-0.750774
O44	O	1.786673	-0.113895	-0.417441
O45	O	2.120007	0.219439	-0.084108
O46	O	1.453171	-0.750621	-0.447446
O47	O	1.786505	-0.417287	-0.114113
O48	O	2.119838	-0.083954	0.219220
O49	O	1.334720	-0.750570	-0.578174
O50	O	1.668053	-0.417236	-0.244841
O51	O	2.001386	-0.083903	0.088492
C52	C	1.143408	-0.512660	-0.512815
C53	C	1.476741	-0.179326	-0.179482
C54	C	1.810075	0.154007	0.153852
C55	C	1.036194	-0.512679	-0.512830
C56	C	1.369527	-0.179346	-0.179497
C57	C	1.702861	0.153987	0.153837
C58	C	0.839899	-0.512683	-0.512858
C59	C	1.173232	-0.179350	-0.179524
C60	C	1.506566	0.153984	0.153809
C61	C	0.949131	-0.512678	-0.512839
C62	C	1.282465	-0.179344	-0.179506
C63	C	1.615798	0.153989	0.153827
C64	C	1.393959	-0.789215	-0.512829
C65	C	1.727292	-0.455882	-0.179496
C66	C	2.060626	-0.122548	0.153838
C67	C	1.394020	-0.907520	-0.512860
C68	C	1.727354	-0.574187	-0.179527
C69	C	2.060687	-0.240854	0.153807
C70	C	1.329588	-0.976784	-0.583913
C71	C	1.662921	-0.643451	-0.250579
C72	C	1.996255	-0.310118	0.082754
C73	C	1.306086	-1.047650	-0.486790
C74	C	1.639419	-0.714317	-0.153457
C75	C	1.972753	-0.380984	0.179876
C76	C	1.417610	-1.047453	-0.609999
C77	C	1.750944	-0.714120	-0.276666
C78	C	2.084277	-0.380787	0.056668
C79	C	1.370472	-0.976828	-0.415686
C80	C	1.703805	-0.643495	-0.082353
C81	C	2.037138	-0.310161	0.250981
C82	C	1.482037	-0.976625	-0.538960
C83	C	1.815370	-0.643292	-0.205627
C84	C	2.148703	-0.309958	0.127706
C85	C	1.458568	-1.047459	-0.441771
C86	C	1.791902	-0.714126	-0.108438
C87	C	2.125235	-0.380792	0.224896
C88	C	1.645615	-0.512689	-0.512864
C89	C	1.978949	-0.179356	-0.179531
C90	C	2.312282	0.153978	0.153802
C91	C	1.752829	-0.512695	-0.512875
C92	C	2.086162	-0.179362	-0.179542
C93	C	2.419496	0.153971	0.153792
C94	C	1.394087	-0.512581	-0.790460
C95	C	1.727420	-0.179247	-0.457127
C96	C	2.060754	0.154086	-0.123794
C97	C	1.394114	-0.512541	-0.908766
C98	C	1.727448	-0.179208	-0.575433
C99	C	2.060781	0.154126	-0.242099
C100	C	1.394112	-0.235053	-0.512873
C101	C	1.727445	0.098280	-0.179540
C102	C	2.060779	0.431614	0.153794
C103	C	1.394150	-0.116748	-0.512887
C104	C	1.727484	0.216586	-0.179554
C105	C	2.060817	0.549919	0.153779
C106	C	1.329669	-0.583606	-0.978004
C107	C	1.663003	-0.250273	-0.644671
C108	C	1.996336	0.083061	-0.311337
C109	C	1.417684	-0.609610	-1.048793
C110	C	1.751018	-0.276277	-0.715460
C111	C	2.084351	0.057057	-0.382126
C112	C	1.306168	-0.486473	-1.048776
C113	C	1.639501	-0.153139	-0.715443
C114	C	1.972835	0.180194	-0.382109
C115	C	1.482176	-0.538596	-0.977996
C116	C	1.815509	-0.205263	-0.644663
C117	C	2.148842	0.128071	-0.311330
C118	C	1.370600	-0.415414	-0.977974
C119	C	1.703933	-0.082080	-0.644640
C120	C	2.037266	0.251253	-0.311307
C121	C	1.458676	-0.441381	-1.048730
C122	C	1.792009	-0.108047	-0.715397
C123	C	2.125342	0.225286	-0.382064
C124	C	1.394013	-0.512690	-0.236298
C125	C	1.727347	-0.179357	0.097035
C126	C	2.060680	0.153977	0.430368
C127	C	1.394173	-0.512430	-0.117993
C128	C	1.727506	-0.179097	0.215340
C129	C	2.060839	0.154237	0.548673
H130	H	1.275003	-0.945751	-0.643912
H131	H	1.608336	-0.612418	-0.310579
H132	H	1.941669	-0.279085	0.022754
H133	H	1.350653	-0.333346	-0.946843
H134	H	1.683987	-0.000013	-0.613509
H135	H	2.017320	0.333320	-0.280176
F136	F	1.344351	-0.936451	-0.308294
F137	F	1.677684	-0.603117	0.025039
F138	F	2.011018	-0.269784	0.358373
H139	H	1.556597	-0.560691	-0.947036
H140	H	1.889930	-0.227358	-0.613703
H141	H	2.223264	0.105975	-0.280369
F142	F	1.579227	-0.935818	-0.567846
F143	F	1.912560	-0.602484	-0.234513
F144	F	2.245893	-0.269151	0.098821
H145	H	1.437510	-1.078477	-0.692138
H146	H	1.770844	-0.745143	-0.358804
H147	H	2.104177	-0.411810	-0.025471
F148	F	1.208870	-1.088425	-0.457940
F149	F	1.542203	-0.755092	-0.124606
F150	F	1.875537	-0.421759	0.208727
F151	F	1.529863	-1.087765	-0.363161
F152	F	1.863197	-0.754432	-0.029828
F153	F	2.196530	-0.421099	0.303506
F154	F	1.258490	-0.662276	-0.937410
F155	F	1.591824	-0.328943	-0.604077
F156	F	1.925157	0.004390	-0.270744
F157	F	1.443724	-0.716907	-1.089454
F158	F	1.777057	-0.383574	-0.756121
F159	F	2.110390	-0.050241	-0.422787
F160	F	1.530022	-0.362768	-1.089071
F161	F	1.863356	-0.029434	-0.755737
F162	F	2.196689	0.303899	-0.422404
F163	F	1.208923	-0.457713	-1.089416
F164	F	1.542257	-0.124379	-0.756082
F165	F	1.875590	0.208954	-0.422749
