data_functionalizedCrystal
_audit_creation_method	'MofGen! by Chris Wilmer'
_symmetry_space_group_name_H-M	'P1'
_symmetry_Int_Tables_number	1
_symmetry_cell_setting	triclinic
loop_
_symmetry_equiv_pos_as_xyz
  x,y,z
_cell_length_a	17.019383
_cell_length_b	12.837942
_cell_length_c	11.295483
_cell_angle_alpha	85.469583
_cell_angle_beta	82.036179
_cell_angle_gamma	90.898633
loop_
_atom_site_label
_atom_site_type_symbol
_atom_site_fract_x
_atom_site_fract_y
_atom_site_fract_z
O1	O	1.066670	-0.117430	-0.208298
O2	O	1.566670	0.382570	0.291702
O3	O	0.837135	-0.135911	-0.184786
O4	O	1.337135	0.364089	0.315214
O5	O	0.946812	0.024188	-0.196013
O6	O	1.446812	0.524188	0.303987
O7	O	0.956993	-0.277529	-0.197070
O8	O	1.456993	0.222471	0.302930
O9	O	0.937178	0.010148	0.003024
O10	O	1.437178	0.510148	0.503024
O11	O	0.827500	-0.149951	0.014251
O12	O	1.327500	0.350049	0.514251
O13	O	1.057035	-0.131470	-0.009261
O14	O	1.557035	0.368530	0.490739
Cu15	Cu	0.941388	-0.141993	0.020669
Cu16	Cu	1.441388	0.358007	0.520669
Cu17	Cu	0.952782	-0.125388	-0.214715
Cu18	Cu	1.452782	0.374612	0.285285
O19	O	0.947358	-0.291569	0.001967
O20	O	1.447358	0.208431	0.501967
C21	C	0.802734	-0.142504	-0.082237
C22	C	1.302734	0.357496	0.417763
C23	C	0.714584	-0.141220	-0.073207
C24	C	1.214584	0.358780	0.426793
C25	C	0.678415	-0.132967	-0.177451
C26	C	1.178415	0.367033	0.322549
C27	C	0.595588	-0.131778	-0.168949
C28	C	1.095588	0.368222	0.331051
C29	C	0.548930	-0.138835	-0.056202
C30	C	1.048930	0.361165	0.443798
C31	C	0.585105	-0.147093	0.048050
C32	C	1.085105	0.352907	0.548050
C33	C	0.667931	-0.148289	0.039547
C34	C	1.167931	0.351711	0.539547
C35	C	0.298587	-0.135614	-0.025101
C36	C	0.798587	0.364386	0.474899
C37	C	0.215755	-0.134414	-0.016605
C38	C	0.715755	0.365586	0.483395
C39	C	0.226244	-0.119101	-0.233605
C40	C	0.726244	0.380899	0.266395
C41	C	0.309071	-0.120291	-0.242099
C42	C	0.809071	0.379709	0.257901
C43	C	0.345238	-0.128554	-0.137847
C44	C	0.845238	0.371446	0.362153
C45	C	0.464267	-0.137617	-0.047509
C46	C	0.964267	0.362383	0.452491
C47	C	0.429900	-0.129780	-0.146541
C48	C	0.929900	0.370220	0.353459
C49	C	0.938556	0.055759	-0.096143
C50	C	1.438556	0.555759	0.403857
C51	C	0.928300	0.170747	-0.095094
C52	C	1.428300	0.670747	0.404906
C53	C	1.091436	-0.124877	-0.111812
C54	C	1.591436	0.375123	0.388188
C55	C	1.179586	-0.126160	-0.120850
C56	C	1.679586	0.373840	0.379150
C57	C	0.955614	-0.323140	-0.097906
C58	C	1.455614	0.176860	0.402094
C59	C	0.965870	-0.438128	-0.098962
C60	C	1.465870	0.061872	0.401038
N61	N	0.933380	-0.153671	0.186225
N62	N	1.433380	0.346329	0.686225
C63	C	1.051597	0.412772	-0.107749
C64	C	1.551597	0.912772	0.392251
C65	C	1.041964	0.520815	-0.106764
C66	C	1.541964	1.020815	0.393236
C67	C	0.899404	0.494879	-0.092149
C68	C	1.399404	0.994879	0.407851
C69	C	0.909036	0.386836	-0.093133
C70	C	1.409036	0.886836	0.406867
C71	C	0.985135	0.345787	-0.100932
C72	C	1.485135	0.845787	0.399068
C73	C	0.994767	0.237741	-0.101908
C74	C	1.494767	0.737741	0.398092
C75	C	0.852207	0.211808	-0.087301
C76	C	1.352207	0.711808	0.412699
C77	C	0.842575	0.319851	-0.086317
C78	C	1.342575	0.819851	0.413683
N79	N	0.960796	-0.113702	-0.380272
N80	N	1.460796	0.386298	0.119728
C81	C	1.018441	-0.029580	0.426807
C82	C	1.518441	0.470420	0.926807
C83	C	1.012395	-0.038413	0.552090
C84	C	1.512395	0.461587	1.052090
C85	C	0.915238	-0.180162	0.562076
C86	C	1.415238	0.319838	1.062076
C87	C	0.921284	-0.171330	0.436793
C88	C	1.421284	0.328670	0.936793
C89	C	0.972888	-0.096037	0.369163
C90	C	1.472888	0.403963	0.869163
C91	C	0.978938	-0.087211	0.243878
C92	C	1.478938	0.412789	0.743878
C93	C	0.881777	-0.228954	0.253866
C94	C	1.381777	0.271046	0.753866
C95	C	0.875731	-0.237787	0.379149
C96	C	1.375731	0.262213	0.879149
H97	H	0.177768	-0.140190	0.075211
H98	H	0.677768	0.359810	0.575211
Cl99	Cl	0.746913	0.371467	-0.076524
Cl100	Cl	1.246913	0.871467	0.423476
H101	H	0.426270	-0.143360	0.044290
H102	H	0.926270	0.356640	0.544290
H103	H	0.547109	-0.152845	0.139851
H104	H	1.047109	0.347155	0.639851
Cl105	Cl	0.768650	0.127590	-0.078716
Cl106	Cl	1.268650	0.627590	0.421284
H107	H	0.328024	-0.142335	0.059789
H108	H	0.828024	0.357665	0.559789
H109	H	0.566143	-0.125057	-0.253836
H110	H	1.066143	0.374943	0.246164
H111	H	0.844687	-0.283071	0.206918
H112	H	1.344687	0.216929	0.706918
Cl113	Cl	1.043812	0.007439	0.158859
Cl114	Cl	1.543812	0.507439	0.658859
H115	H	1.060464	0.031719	0.371741
H116	H	1.560464	0.531719	0.871741
Cl117	Cl	0.810859	-0.332433	0.464177
Cl118	Cl	1.310859	0.167567	0.964177
Cl119	Cl	0.713400	-0.158670	0.170602
Cl120	Cl	1.213400	0.341330	0.670602
Cl121	Cl	1.090432	0.186137	-0.111704
Cl122	Cl	1.590432	0.686137	0.388296
H123	H	1.049488	0.015704	0.599020
H124	H	1.549488	0.515704	1.099020
H125	H	0.716399	-0.127216	-0.269262
H126	H	1.216399	0.372784	0.230738
H127	H	1.096085	0.575351	-0.112319
H128	H	1.596085	1.075351	0.387681
H129	H	0.837448	0.528321	-0.085812
H130	H	1.337448	1.028321	0.414188
Cl131	Cl	1.147260	0.361161	-0.117522
Cl132	Cl	1.647260	0.861161	0.382478
H133	H	0.467892	-0.124040	-0.238339
H134	H	0.967892	0.375960	0.261661
Cl135	Cl	0.850360	-0.274799	0.647109
Cl136	Cl	1.350360	0.225201	1.147109
H137	H	0.347055	-0.114537	-0.333909
H138	H	0.847055	0.385463	0.166091
H139	H	0.196788	-0.112376	-0.318481
H140	H	0.696788	0.387624	0.181519
