data_functionalizedCrystal
_audit_creation_method	'MofGen! by Chris Wilmer'
_symmetry_space_group_name_H-M	'P1'
_symmetry_Int_Tables_number	1
_symmetry_cell_setting	triclinic
loop_
_symmetry_equiv_pos_as_xyz
  x,y,z
_cell_length_a	10.654549
_cell_length_b	27.731996
_cell_length_c	9.730223
_cell_angle_alpha	89.989651
_cell_angle_beta	89.997731
_cell_angle_gamma	83.553082
loop_
_atom_site_label
_atom_site_type_symbol
_atom_site_fract_x
_atom_site_fract_y
_atom_site_fract_z
O1	O	1.664953	0.067887	-0.114278
O2	O	1.299199	0.074355	-0.114290
O3	O	1.493469	0.000793	-0.114254
O4	O	1.470682	0.141448	-0.114314
O5	O	1.493457	0.000791	0.114326
O6	O	1.299187	0.074353	0.114290
O7	O	1.664940	0.067885	0.114302
Zn8	Zn	1.482062	0.071118	0.150588
Zn9	Zn	1.482078	0.071121	-0.150576
O10	O	1.470670	0.141446	0.114266
C11	C	1.252415	0.073879	-0.000001
C12	C	1.113032	0.072458	-0.000004
C13	C	0.900733	0.114431	-0.000016
C14	C	1.031696	0.115770	-0.000025
C15	C	1.063399	0.027804	0.000012
C16	C	0.932437	0.026466	0.000011
C17	C	1.492995	-0.017218	0.000041
C18	C	1.491585	-0.070883	0.000055
C19	C	1.482721	-0.403654	-0.124612
C20	C	1.477367	-0.605345	-0.124636
O21	O	1.476627	-0.631420	-0.230604
N22	N	1.476695	-0.630568	-0.000038
C23	C	1.477354	-0.605364	0.124574
O24	O	1.476647	-0.631444	0.230552
C25	C	1.482699	-0.403673	0.124597
C26	C	1.483383	-0.378454	-0.000009
C27	C	1.483404	-0.378435	-0.249208
C28	C	1.484749	-0.328015	-0.249200
C29	C	1.485412	-0.302815	-0.124597
C30	C	1.484729	-0.328034	-0.000001
C31	C	1.483349	-0.378469	0.249208
C32	C	1.484682	-0.328043	0.249203
C33	C	1.485366	-0.302824	0.124597
C34	C	1.486736	-0.252414	0.124609
N35	N	1.487408	-0.227192	0.000011
C36	C	1.486746	-0.252392	-0.124592
C37	C	1.474550	-0.711255	0.124553
C38	C	1.473216	-0.761677	0.124548
C39	C	1.473227	-0.761655	-0.124663
C40	C	1.474570	-0.711232	-0.124656
C41	C	1.475222	-0.686032	-0.000044
C42	C	1.489572	-0.146507	-0.124567
C43	C	1.490923	-0.096084	-0.124549
C44	C	1.490905	-0.096110	0.124662
C45	C	1.489561	-0.146529	0.124644
C46	C	1.488891	-0.171727	0.000019
O47	O	1.487464	-0.226308	0.230521
O48	O	1.487425	-0.226302	-0.230553
C49	C	1.481376	-0.454073	-0.124619
C50	C	1.480693	-0.479293	-0.000023
C51	C	1.481355	-0.454092	0.124580
C52	C	1.479359	-0.529715	-0.000029
C53	C	1.478697	-0.554916	-0.124632
C54	C	1.479368	-0.529693	-0.249230
C55	C	1.480714	-0.479274	-0.249222
C56	C	1.480683	-0.479315	0.249177
C57	C	1.479340	-0.529734	0.249160
C58	C	1.478677	-0.554935	0.124557
C59	C	1.711724	0.068360	0.000010
C60	C	1.851107	0.069781	0.000004
C61	C	1.471144	0.159457	-0.000032
C62	C	1.472554	0.213122	-0.000055
N63	N	1.482060	0.071116	0.356124
N64	N	1.482090	0.071119	-0.356113
C65	C	1.568111	0.038557	0.428066
C66	C	1.568124	0.038557	0.571949
C67	C	1.396029	0.103680	0.571936
C68	C	1.396012	0.103677	0.428055
H69	H	1.072094	0.152128	-0.000043
O70	O	1.312328	0.135327	0.641599
C71	C	1.236390	0.164071	0.547243
H72	H	1.235361	0.144247	0.444694
H73	H	1.135968	0.171084	0.588828
H74	H	1.276432	0.200125	0.531908
O75	O	1.485107	-0.303477	-0.370195
C76	C	1.376997	-0.269238	-0.377588
H77	H	1.341045	-0.259964	-0.269371
H78	H	1.402264	-0.234932	-0.430464
H79	H	1.300261	-0.285130	-0.438907
O80	O	1.651767	0.006996	0.641984
C81	C	1.728740	0.033161	0.725156
H82	H	1.677969	0.070804	0.746699
H83	H	1.749023	0.013058	0.826341
H84	H	1.821470	0.036779	0.669687
H85	H	0.834516	0.149701	-0.000023
O86	O	1.142276	-0.014302	0.000211
C87	C	1.119930	-0.041382	0.118621
H88	H	1.020335	-0.029846	0.158083
H89	H	1.129948	-0.081663	0.092012
H90	H	1.191437	-0.034534	0.201517
O91	O	0.884374	-0.016939	-0.000151
C92	C	0.925998	-0.043363	-0.118541
H93	H	1.016582	-0.029887	-0.158010
H94	H	0.944973	-0.083553	-0.091900
H95	H	0.850099	-0.038016	-0.201442
H96	H	1.491483	-0.075553	-0.226022
H97	H	1.478835	-0.550220	-0.350686
O98	O	1.491747	-0.071660	0.245738
C99	C	1.600176	-0.089102	0.321600
H100	H	1.675883	-0.106529	0.248724
H101	H	1.637540	-0.057660	0.378140
H102	H	1.574784	-0.117221	0.399279
O103	O	1.312590	0.135330	0.358013
C104	C	1.379231	0.165396	0.274778
H105	H	1.477872	0.146496	0.253221
H106	H	1.326657	0.172852	0.173604
H107	H	1.387051	0.201151	0.330200
O108	O	1.472352	-0.786150	-0.245669
C109	C	1.362796	-0.810212	-0.253086
H110	H	1.287164	-0.791444	-0.182372
H111	H	1.326251	-0.809065	-0.363285
H112	H	1.386380	-0.849583	-0.219599
O113	O	1.488957	-0.170907	-0.245749
C114	C	1.489804	-0.137825	-0.355704
H115	H	1.530550	-0.103760	-0.319160
H116	H	1.550386	-0.155251	-0.442872
H117	H	1.389163	-0.127713	-0.393994
O118	O	1.478447	-0.554194	0.370253
C119	C	1.369984	-0.536743	0.446038
H120	H	1.294331	-0.519305	0.373106
H121	H	1.332560	-0.568182	0.502570
H122	H	1.395353	-0.508631	0.523720
O123	O	1.482823	-0.402838	-0.370380
C124	C	1.483678	-0.369754	-0.480332
H125	H	1.524389	-0.335685	-0.443770
H126	H	1.544295	-0.387175	-0.567481
H127	H	1.383045	-0.359652	-0.518655
H128	H	1.475126	-0.690702	-0.226121
O129	O	1.651735	0.006879	0.358404
C130	C	1.727707	-0.021850	0.452763
H131	H	1.676247	-0.022578	0.555335
H132	H	1.747632	-0.060384	0.411217
H133	H	1.820674	-0.005822	0.468036
H134	H	1.472678	-0.782207	0.226015
H135	H	1.475087	-0.690742	0.226033
H136	H	1.482793	-0.398994	0.350676
H137	H	1.481270	-0.458745	-0.350689
H138	H	1.489016	-0.167064	0.226108
O139	O	1.485485	-0.303522	0.370172
C140	C	1.595070	-0.279481	0.377677
H141	H	1.631558	-0.273618	0.269502
H142	H	1.571536	-0.242880	0.430431
H143	H	1.670728	-0.302503	0.439166
H144	H	1.481225	-0.458802	0.350646
