data_functionalizedCrystal
_audit_creation_method	'MofGen! by Chris Wilmer'
_symmetry_space_group_name_H-M	'P1'
_symmetry_Int_Tables_number	1
_symmetry_cell_setting	triclinic
loop_
_symmetry_equiv_pos_as_xyz
  x,y,z
_cell_length_a	19.805407
_cell_length_b	21.295416
_cell_length_c	19.805399
_cell_angle_alpha	89.971630
_cell_angle_beta	90.019573
_cell_angle_gamma	89.969669
loop_
_atom_site_label
_atom_site_type_symbol
_atom_site_fract_x
_atom_site_fract_y
_atom_site_fract_z
Zn1	Zn	1.034717	0.250624	0.382716
Zn2	Zn	1.368051	0.583957	0.716049
Zn3	Zn	1.701384	0.917290	1.049383
Zn4	Zn	1.034624	0.355893	0.269526
Zn5	Zn	1.367958	0.689226	0.602859
Zn6	Zn	1.701291	1.022559	0.936193
Zn7	Zn	0.921532	0.250641	0.269541
Zn8	Zn	1.254865	0.583974	0.602874
Zn9	Zn	1.588199	0.917308	0.936207
Zn10	Zn	0.921488	0.355859	0.382673
Zn11	Zn	1.254821	0.689192	0.716006
Zn12	Zn	1.588154	1.022526	1.049340
O13	O	0.978090	0.303254	0.326114
O14	O	1.311424	0.636587	0.659447
O15	O	1.644757	0.969921	0.992781
O16	O	1.129421	0.264595	0.367713
O17	O	1.462755	0.597928	0.701046
O18	O	1.796088	0.931261	1.034380
O19	O	1.019602	0.341952	0.174811
O20	O	1.352935	0.675285	0.508145
O21	O	1.686269	1.008619	0.841478
O22	O	0.936604	0.162549	0.284578
O23	O	1.269937	0.495883	0.617911
O24	O	1.603270	0.829216	0.951244
O25	O	1.129353	0.341935	0.284553
O26	O	1.462687	0.675268	0.617886
O27	O	1.796020	1.008602	0.951220
O28	O	1.019760	0.162537	0.367727
O29	O	1.353094	0.495870	0.701060
O30	O	1.686427	0.829203	1.034394
O31	O	0.936513	0.264624	0.174822
O32	O	1.269847	0.597958	0.508155
O33	O	1.603180	0.931291	0.841489
O34	O	0.826809	0.264592	0.284536
O35	O	1.160143	0.597925	0.617869
O36	O	1.493476	0.931258	0.951202
O37	O	0.936528	0.341878	0.477395
O38	O	1.269861	0.675211	0.810729
O39	O	1.603195	1.008545	1.144062
O40	O	0.826777	0.341895	0.367654
O41	O	1.160110	0.675228	0.700987
O42	O	1.493444	1.008562	1.034320
O43	O	1.019717	0.264562	0.477427
O44	O	1.353051	0.597896	0.810760
O45	O	1.686384	0.931229	1.144093
O46	O	1.019559	0.443977	0.284511
O47	O	1.352892	0.777311	0.617845
O48	O	1.686226	1.110644	0.951178
O49	O	0.936438	0.443953	0.367640
O50	O	1.269771	0.777286	0.700973
O51	O	1.603105	1.110620	1.034306
C52	C	0.802234	0.303242	0.326092
C53	C	1.135568	0.636575	0.659425
C54	C	1.468901	0.969909	0.992759
C55	C	0.727002	0.303252	0.326099
C56	C	1.060336	0.636585	0.659432
C57	C	1.393669	0.969919	0.992765
C58	C	0.978002	0.466806	0.326084
C59	C	1.311335	0.800139	0.659417
C60	C	1.644669	1.133472	0.992751
C61	C	0.978026	0.536774	0.326094
C62	C	1.311360	0.870107	0.659427
C63	C	1.644693	1.203441	0.992760
C64	C	0.691659	0.343564	0.369308
C65	C	1.024992	0.676898	0.702641
C66	C	1.358326	1.010231	1.035975
C67	C	0.620970	0.343566	0.369318
C68	C	0.954304	0.676899	0.702651
C69	C	1.287637	1.010232	1.035984
C70	C	0.585627	0.303257	0.326114
C71	C	0.918960	0.636590	0.659447
C72	C	1.252293	0.969924	0.992780
C73	C	0.620975	0.262940	0.282903
C74	C	0.954308	0.596274	0.616236
C75	C	1.287642	0.929607	0.949569
C76	C	0.691662	0.262936	0.282897
C77	C	1.024995	0.596270	0.616230
C78	C	1.358329	0.929603	0.949564
C79	C	0.335902	0.262954	0.282925
C80	C	0.669235	0.596287	0.616258
C81	C	1.002568	0.929621	0.949592
C82	C	0.265210	0.262962	0.282932
C83	C	0.598543	0.596296	0.616266
C84	C	0.931876	0.929629	0.949599
C85	C	0.265210	0.343583	0.369346
C86	C	0.598543	0.676917	0.702679
C87	C	0.931877	1.010250	1.036012
C88	C	0.335897	0.343579	0.369340
C89	C	0.669230	0.676913	0.702673
C90	C	1.002564	1.010246	1.036007
C91	C	0.371239	0.303261	0.326132
C92	C	0.704573	0.636594	0.659465
C93	C	1.037906	0.969927	0.992798
C94	C	0.447888	0.303259	0.326123
C95	C	0.781221	0.636592	0.659456
C96	C	1.114554	0.969926	0.992789
C97	C	0.508980	0.303261	0.326119
C98	C	0.842313	0.636595	0.659452
C99	C	1.175646	0.969928	0.992785
C100	C	1.021346	0.569632	0.282855
C101	C	1.354679	0.902966	0.616188
C102	C	1.688013	1.236299	0.949521
C103	C	1.021378	0.635375	0.282873
C104	C	1.354711	0.968708	0.616206
C105	C	1.688045	1.302042	0.949540
C106	C	0.978078	0.668256	0.326123
C107	C	1.311411	1.001590	0.659457
C108	C	1.644745	1.334923	0.992790
C109	C	0.934755	0.635390	0.369371
C110	C	1.268089	0.968723	0.702704
C111	C	1.601422	1.302057	1.036037
C112	C	0.934729	0.569649	0.369356
C113	C	1.268063	0.902982	0.702689
C114	C	1.601396	1.236315	1.036023
N115	N	0.918868	0.771522	0.331281
N116	N	1.252201	1.104856	0.664614
N117	N	1.585535	1.438189	0.997947
N118	N	0.918895	0.833974	0.331291
N119	N	1.252228	1.167307	0.664624
N120	N	1.585561	1.500640	0.997957
C121	C	0.978155	0.866331	0.326171
C122	C	1.311488	1.199664	0.659505
C123	C	1.644821	1.532998	0.992838
N124	N	1.037388	0.833878	0.321028
N125	N	1.370722	1.167211	0.654362
N126	N	1.704055	1.500544	0.987695
N127	N	1.037361	0.771421	0.321015
N128	N	1.370694	1.104754	0.654348
N129	N	1.704028	1.438087	0.987681
C130	C	0.978102	0.739542	0.326144
C131	C	1.311435	1.072875	0.659478
C132	C	1.644768	1.406208	0.992811
C133	C	1.021513	0.970475	0.282950
C134	C	1.354846	1.303808	0.616283
C135	C	1.688179	1.637142	0.949616
C136	C	1.021546	1.036219	0.282973
C137	C	1.354879	1.369552	0.616306
C138	C	1.688212	1.702885	0.949639
C139	C	0.934917	1.036233	0.369467
C140	C	1.268250	1.369566	0.702800
C141	C	1.601584	1.702899	1.036134
C142	C	0.934890	0.970490	0.369447
C143	C	1.268223	1.303823	0.702781
C144	C	1.601557	1.637157	1.036114
C145	C	0.978187	0.937615	0.326185
C146	C	1.311520	1.270949	0.659519
C147	C	1.644853	1.604282	0.992852
C148	C	1.154633	0.303267	0.326136
C149	C	1.487966	0.636600	0.659470
C150	C	1.821300	0.969933	0.992803
C151	C	1.229865	0.303272	0.326146
C152	C	1.563198	0.636605	0.659479
C153	C	1.896532	0.969939	0.992812
C154	C	0.978128	0.303214	0.502657
C155	C	1.311462	0.636548	0.835990
C156	C	1.644795	0.969881	1.169323
C157	C	0.978144	0.303198	0.577889
C158	C	1.311478	0.636531	0.911222
C159	C	1.644811	0.969864	1.244555
C160	C	0.978198	1.139064	0.326170
C161	C	1.311531	1.472397	0.659504
C162	C	1.644865	1.805731	0.992837
C163	C	0.978246	1.069096	0.326224
C164	C	1.311579	1.402429	0.659558
C165	C	1.644913	1.735762	0.992891
C166	C	0.978091	0.303248	0.150258
C167	C	1.311425	0.636582	0.483591
C168	C	1.644758	0.969915	0.816925
C169	C	0.978206	0.303088	0.075026
C170	C	1.311540	0.636421	0.408360
C171	C	1.644873	0.969754	0.741693
C172	C	1.021462	0.262937	0.613250
C173	C	1.354795	0.596271	0.946584
C174	C	1.688129	0.929604	1.279917
C175	C	1.021469	0.262919	0.683939
C176	C	1.354802	0.596252	1.017272
C177	C	1.688136	0.929586	1.350606
C178	C	0.978161	0.303165	0.719264
C179	C	1.311495	0.636498	1.052598
C180	C	1.644828	0.969831	1.385931
C181	C	0.934839	0.343427	0.683898
C182	C	1.268172	0.676760	1.017231
C183	C	1.601505	1.010094	1.350564
C184	C	0.934829	0.343442	0.613210
C185	C	1.268162	0.676775	0.946544
C186	C	1.601496	1.010108	1.279877
C187	C	0.934877	0.343368	0.968971
C188	C	1.268210	0.676702	1.302304
C189	C	1.601544	1.010035	1.635638
C190	C	0.934892	0.343352	1.039663
C191	C	1.268225	0.676685	1.372997
C192	C	1.601558	1.010018	1.706330
C193	C	1.021517	0.262846	1.039700
C194	C	1.354850	0.596179	1.373033
C195	C	1.688184	0.929512	1.706366
C196	C	1.021507	0.262860	0.969012
C197	C	1.354841	0.596194	1.302346
C198	C	1.688174	0.929527	1.635679
C199	C	0.978183	0.303120	0.933652
C200	C	1.311516	0.636453	1.266985
C201	C	1.644849	0.969786	1.600318
C202	C	0.978175	0.303138	0.857003
C203	C	1.311508	0.636472	1.190337
C204	C	1.644841	0.969805	1.523670
C205	C	0.978172	0.303150	0.795912
C206	C	1.311505	0.636483	1.129245
C207	C	1.644839	0.969817	1.462578
H208	H	0.720431	0.376391	0.404487
H209	H	1.053764	0.709724	0.737821
H210	H	1.387097	1.043057	1.071154
H211	H	0.592197	0.376393	0.404502
H212	H	0.925530	0.709726	0.737836
H213	H	1.258864	1.043059	1.071169
H214	H	1.056730	0.230166	0.584493
H215	H	1.390064	0.563500	0.917827
H216	H	1.723397	0.896833	1.251160
Br217	Br	1.080115	0.525019	0.224151
Br218	Br	1.413448	0.858353	0.557485
Br219	Br	1.746781	1.191686	0.890818
Br220	Br	1.080291	0.208307	0.731928
Br221	Br	1.413625	0.541640	1.065261
Br222	Br	1.746958	0.874973	1.398594
Br223	Br	1.080269	0.925855	0.224236
Br224	Br	1.413602	1.259189	0.557570
Br225	Br	1.746935	1.592522	0.890903
Br226	Br	0.217242	0.398304	0.427986
Br227	Br	0.550575	0.731638	0.761319
Br228	Br	0.883909	1.064971	1.094652
Br229	Br	0.383857	0.208232	0.224289
Br230	Br	0.717191	0.541566	0.557622
Br231	Br	1.050524	0.874899	0.890955
Br232	Br	0.217243	0.208255	0.224294
Br233	Br	0.550576	0.541588	0.557628
Br234	Br	0.883910	0.874921	0.890961
H235	H	1.056775	0.230090	0.940254
H236	H	1.390108	0.563423	1.273587
H237	H	1.723442	0.896757	1.606920
Br238	Br	0.876094	0.925893	0.428131
Br239	Br	1.209427	1.259226	0.761464
Br240	Br	1.542761	1.592560	1.094798
H241	H	0.899622	0.376126	1.068423
H242	H	1.232956	0.709459	1.401757
H243	H	1.566289	1.042793	1.735090
H244	H	1.056792	0.230062	1.068499
H245	H	1.390125	0.563395	1.401832
H246	H	1.723458	0.896729	1.735165
H247	H	0.899548	0.376219	0.584420
H248	H	1.232882	0.709553	0.917753
H249	H	1.566215	1.042886	1.251087
H250	H	1.056826	1.062971	0.247764
H251	H	1.390159	1.396304	0.581097
H252	H	1.723493	1.729638	0.914430
H253	H	0.592192	0.230118	0.247728
H254	H	0.925526	0.563451	0.581062
H255	H	1.258859	0.896784	0.914395
Br256	Br	0.739629	0.208221	0.224257
Br257	Br	1.072963	0.541555	0.557590
Br258	Br	1.406296	0.874888	0.890924
Br259	Br	0.876059	0.398043	0.731839
Br260	Br	1.209392	0.731377	1.065172
Br261	Br	1.542726	1.064710	1.398505
Br262	Br	0.383860	0.398290	0.427972
Br263	Br	0.717194	0.731623	0.761305
Br264	Br	1.050527	1.064956	1.094638
Br265	Br	0.875996	0.680013	0.428073
Br266	Br	1.209329	1.013346	0.761407
Br267	Br	1.542663	1.346679	1.094740
Br268	Br	1.080173	0.679979	0.224187
Br269	Br	1.413507	1.013312	0.557521
Br270	Br	1.746840	1.346645	0.890854
H271	H	0.899609	0.376159	0.940189
H272	H	1.232943	0.709493	1.273522
H273	H	1.566276	1.042826	1.606856
H274	H	0.899453	0.542895	0.404567
H275	H	1.232786	0.876228	0.737901
H276	H	1.566119	1.209561	1.071234
Br277	Br	0.876159	1.080850	0.428172
Br278	Br	1.209492	1.414183	0.761505
Br279	Br	1.542825	1.747517	1.094839
