data_functionalizedCrystal
_audit_creation_method	'MofGen! by Chris Wilmer'
_symmetry_space_group_name_H-M	'P1'
_symmetry_Int_Tables_number	1
_symmetry_cell_setting	triclinic
loop_
_symmetry_equiv_pos_as_xyz
  x,y,z
_cell_length_a	19.805407
_cell_length_b	25.639240
_cell_length_c	25.639234
_cell_angle_alpha	89.971713
_cell_angle_beta	89.989828
_cell_angle_gamma	90.030074
loop_
_atom_site_label
_atom_site_type_symbol
_atom_site_fract_x
_atom_site_fract_y
_atom_site_fract_z
Zn1	Zn	1.034655	-0.208240	-0.295582
Zn2	Zn	1.367988	0.125094	0.037751
Zn3	Zn	1.701321	0.458427	0.371084
Zn4	Zn	1.034572	-0.295662	-0.208136
Zn5	Zn	1.367905	0.037671	0.125198
Zn6	Zn	1.701239	0.371005	0.458531
Zn7	Zn	0.921485	-0.208238	-0.208161
Zn8	Zn	1.254818	0.125095	0.125172
Zn9	Zn	1.588151	0.458428	0.458506
Zn10	Zn	0.921420	-0.295642	-0.295540
Zn11	Zn	1.254754	0.037692	0.037793
Zn12	Zn	1.588087	0.371025	0.371126
O13	O	0.978033	-0.251945	-0.251855
O14	O	1.311366	0.081388	0.081478
O15	O	1.644700	0.414721	0.414812
O16	O	1.129360	-0.219845	-0.283989
O17	O	1.462694	0.113488	0.049344
O18	O	1.796027	0.446821	0.382677
O19	O	1.019563	-0.284073	-0.134974
O20	O	1.352896	0.049260	0.198359
O21	O	1.686230	0.382594	0.531693
O22	O	0.936558	-0.135073	-0.219786
O23	O	1.269892	0.198260	0.113547
O24	O	1.603225	0.531593	0.446881
O25	O	1.129300	-0.284074	-0.219743
O26	O	1.462633	0.049259	0.113591
O27	O	1.795966	0.382592	0.446924
O28	O	1.019704	-0.135074	-0.284014
O29	O	1.353037	0.198259	0.049319
O30	O	1.686371	0.531592	0.382653
O31	O	0.936478	-0.219843	-0.134992
O32	O	1.269811	0.113490	0.198341
O33	O	1.603145	0.446823	0.531674
O34	O	0.826759	-0.219824	-0.219745
O35	O	1.160093	0.113510	0.113588
O36	O	1.493426	0.446843	0.446922
O37	O	0.936449	-0.284040	-0.368711
O38	O	1.269782	0.049294	-0.035378
O39	O	1.603116	0.382627	0.297956
O40	O	0.826712	-0.284039	-0.283942
O41	O	1.160046	0.049295	0.049391
O42	O	1.493379	0.382628	0.382724
O43	O	1.019642	-0.219826	-0.368742
O44	O	1.352975	0.113507	-0.035409
O45	O	1.686308	0.446841	0.297925
O46	O	1.019501	-0.368825	-0.219702
O47	O	1.352834	-0.035491	0.113631
O48	O	1.686168	0.297842	0.446965
O49	O	0.936369	-0.368810	-0.283918
O50	O	1.269702	-0.035476	0.049416
O51	O	1.603035	0.297857	0.382749
C52	C	0.802177	-0.251929	-0.251842
C53	C	1.135510	0.081404	0.081491
C54	C	1.468844	0.414738	0.414825
C55	C	0.726945	-0.251935	-0.251849
C56	C	1.060278	0.081399	0.081484
C57	C	1.393612	0.414732	0.414818
C58	C	0.691633	-0.218550	-0.285353
C59	C	1.024966	0.114783	0.047980
C60	C	1.358300	0.448117	0.381313
C61	C	0.620945	-0.218553	-0.285355
C62	C	0.954278	0.114781	0.047978
C63	C	1.287611	0.448114	0.381311
C64	C	0.585569	-0.251943	-0.251855
C65	C	0.918903	0.081390	0.081478
C66	C	1.252236	0.414723	0.414811
C67	C	0.620886	-0.285329	-0.218348
C68	C	0.954220	0.048004	0.114986
C69	C	1.287553	0.381337	0.448319
C70	C	0.691573	-0.285324	-0.218343
C71	C	1.024907	0.048010	0.114990
C72	C	1.358240	0.381343	0.448323
C73	C	0.335813	-0.285353	-0.218364
C74	C	0.669146	0.047980	0.114970
C75	C	1.002480	0.381314	0.448303
C76	C	0.265121	-0.285357	-0.218372
C77	C	0.598454	0.047976	0.114962
C78	C	0.931788	0.381309	0.448295
C79	C	0.265184	-0.218582	-0.285376
C80	C	0.598517	0.114751	0.047958
C81	C	0.931851	0.448085	0.381291
C82	C	0.335871	-0.218576	-0.285371
C83	C	0.669205	0.114757	0.047962
C84	C	1.002538	0.448091	0.381295
C85	C	0.371182	-0.251960	-0.251862
C86	C	0.704515	0.081373	0.081472
C87	C	1.037849	0.414706	0.414805
C88	C	0.447830	-0.251956	-0.251859
C89	C	0.781164	0.081377	0.081474
C90	C	1.114497	0.414711	0.414807
C91	C	0.508922	-0.251950	-0.251860
C92	C	0.842256	0.081383	0.081473
C93	C	1.175589	0.414716	0.414807
C94	C	0.977937	-0.387788	-0.251814
C95	C	1.311271	-0.054455	0.081519
C96	C	1.644604	0.278879	0.414853
C97	C	0.977958	-0.445902	-0.251814
C98	C	1.311292	-0.112569	0.081519
C99	C	1.644625	0.220765	0.414853
C100	C	1.021348	-0.806227	-0.285359
C101	C	1.354682	-0.472894	0.047975
C102	C	1.688015	-0.139561	0.381308
C103	C	1.021368	-0.860831	-0.285369
C104	C	1.354702	-0.527498	0.047964
C105	C	1.688035	-0.194165	0.381297
O106	O	1.058146	-0.889036	-0.313848
O107	O	1.391480	-0.555703	0.019485
O108	O	1.724813	-0.222369	0.352818
N109	N	0.978127	-0.888185	-0.251905
N110	N	1.311460	-0.554851	0.081428
N111	N	1.644794	-0.221518	0.414761
C112	C	0.934858	-0.860930	-0.218432
C113	C	1.268191	-0.527597	0.114901
C114	C	1.601524	-0.194264	0.448234
O115	O	0.898079	-0.889210	-0.189970
O116	O	1.231412	-0.555877	0.143363
O117	O	1.564745	-0.222544	0.476697
C118	C	0.934835	-0.806327	-0.218425
C119	C	1.268168	-0.472994	0.114909
C120	C	1.601502	-0.139660	0.448242
C121	C	0.978084	-0.778977	-0.251887
C122	C	1.311417	-0.445644	0.081446
C123	C	1.644751	-0.112310	0.414779
C124	C	1.064594	-0.778877	-0.318819
C125	C	1.397927	-0.445544	0.014515
C126	C	1.731260	-0.112210	0.347848
C127	C	1.064574	-0.724276	-0.318807
C128	C	1.397908	-0.390943	0.014526
C129	C	1.731241	-0.057610	0.347859
C130	C	1.021310	-0.697026	-0.285336
C131	C	1.354643	-0.363693	0.047998
C132	C	1.687977	-0.030359	0.381331
C133	C	0.978065	-0.724376	-0.251876
C134	C	1.311398	-0.391043	0.081458
C135	C	1.644731	-0.057710	0.414791
C136	C	0.891563	-0.779074	-0.184955
C137	C	1.224896	-0.445741	0.148379
C138	C	1.558229	-0.112407	0.481712
C139	C	0.891543	-0.724467	-0.184950
C140	C	1.224877	-0.391134	0.148383
C141	C	1.558210	-0.057800	0.481716
C142	C	0.934792	-0.697117	-0.218413
C143	C	1.268126	-0.363783	0.114921
C144	C	1.601459	-0.030450	0.448254
C145	C	0.934781	-0.642526	-0.218393
C146	C	1.268115	-0.309192	0.114941
C147	C	1.601448	0.024141	0.448274
N148	N	0.978023	-0.615173	-0.251857
N149	N	1.311356	-0.281839	0.081477
N150	N	1.644689	0.051494	0.414810
C151	C	1.021287	-0.642423	-0.285328
C152	C	1.354620	-0.309089	0.048005
C153	C	1.687954	0.024244	0.381338
C154	C	0.934908	-0.975601	-0.218452
C155	C	1.268242	-0.642268	0.114882
C156	C	1.601575	-0.308934	0.448215
C157	C	0.934934	-1.030203	-0.218456
C158	C	1.268267	-0.696870	0.114877
C159	C	1.601601	-0.363537	0.448211
C160	C	1.021444	-1.030101	-0.285394
C161	C	1.354777	-0.696767	0.047939
C162	C	1.688111	-0.363434	0.381273
C163	C	1.021421	-0.975497	-0.285386
C164	C	1.354754	-0.642164	0.047947
C165	C	1.688088	-0.308831	0.381280
C166	C	0.978150	-0.948248	-0.251915
C167	C	1.311483	-0.614915	0.081418
C168	C	1.644816	-0.281581	0.414751
C169	C	1.021244	-0.527758	-0.285301
C170	C	1.354577	-0.194424	0.048032
C171	C	1.687910	0.138909	0.381365
C172	C	1.021223	-0.473152	-0.285285
C173	C	1.354556	-0.139819	0.048048
C174	C	1.687889	0.193514	0.381381
C175	C	0.934711	-0.473260	-0.218350
C176	C	1.268044	-0.139927	0.114984
C177	C	1.601377	0.193407	0.448317
C178	C	0.934734	-0.527860	-0.218364
C179	C	1.268067	-0.194527	0.114970
C180	C	1.601401	0.138806	0.448303
C181	C	0.978003	-0.555108	-0.251844
C182	C	1.311336	-0.221775	0.081490
C183	C	1.644669	0.111559	0.414823
O184	O	0.898020	-0.614286	-0.189930
O185	O	1.231353	-0.280953	0.143404
O186	O	1.564687	0.052380	0.476737
O187	O	1.058054	-0.614136	-0.313791
O188	O	1.391387	-0.280803	0.019543
O189	O	1.724720	0.052530	0.352876
C190	C	1.154576	-0.251962	-0.251868
C191	C	1.487909	0.081371	0.081465
C192	C	1.821242	0.414704	0.414799
C193	C	1.229808	-0.251969	-0.251873
C194	C	1.563141	0.081364	0.081460
C195	C	1.896474	0.414697	0.414793
C196	C	0.978047	-0.251931	-0.388228
C197	C	1.311381	0.081403	-0.054895
C198	C	1.644714	0.414736	0.278439
C199	C	0.978054	-0.251924	-0.446342
C200	C	1.311387	0.081409	-0.113009
C201	C	1.644720	0.414742	0.220325
C202	C	0.978147	-0.115572	-0.251907
C203	C	1.311481	0.217761	0.081426
C204	C	1.644814	0.551094	0.414759
C205	C	0.978196	-0.057458	-0.251930
C206	C	1.311530	0.275875	0.081404
C207	C	1.644863	0.609208	0.414737
C208	C	0.934780	-0.285295	-0.697514
C209	C	1.268114	0.048038	-0.364180
C210	C	1.601447	0.381372	-0.030847
C211	C	0.934768	-0.285307	-0.642909
C212	C	1.268102	0.048027	-0.309576
C213	C	1.601435	0.381360	0.023757
O214	O	0.897911	-0.313732	-0.614654
O215	O	1.231244	0.019602	-0.281321
O216	O	1.564578	0.352935	0.052012
N217	N	0.978079	-0.251882	-0.615616
N218	N	1.311413	0.081451	-0.282283
N219	N	1.644746	0.414784	0.051051
C220	C	1.021400	-0.218440	-0.642930
C221	C	1.354734	0.114893	-0.309596
C222	C	1.688067	0.448227	0.023737
O223	O	1.058238	-0.190011	-0.614700
O224	O	1.391571	0.143323	-0.281367
O225	O	1.724905	0.476656	0.051966
C226	C	1.021408	-0.218426	-0.697533
C227	C	1.354741	0.114907	-0.364200
C228	C	1.688075	0.448241	-0.030866
C229	C	0.978099	-0.251856	-0.724824
C230	C	1.311432	0.081477	-0.391490
C231	C	1.644766	0.414810	-0.058157
C232	C	0.891474	-0.318722	-0.724804
C233	C	1.224808	0.014611	-0.391471
C234	C	1.558141	0.347945	-0.058138
C235	C	0.891487	-0.318711	-0.779405
C236	C	1.224821	0.014622	-0.446072
C237	C	1.558154	0.347956	-0.112738
C238	C	0.934806	-0.285272	-0.806715
C239	C	1.268139	0.048061	-0.473382
C240	C	1.601473	0.381394	-0.140048
C241	C	0.978112	-0.251845	-0.779424
C242	C	1.311445	0.081488	-0.446091
C243	C	1.644779	0.414821	-0.112758
C244	C	1.064725	-0.184982	-0.724846
C245	C	1.398058	0.148352	-0.391512
C246	C	1.731392	0.481685	-0.058179
C247	C	1.064729	-0.184970	-0.779453
C248	C	1.398062	0.148363	-0.446119
C249	C	1.731396	0.481697	-0.112786
C250	C	1.021420	-0.218401	-0.806743
C251	C	1.354753	0.114933	-0.473410
C252	C	1.688087	0.448266	-0.140077
C253	C	1.021444	-0.218395	-0.861335
C254	C	1.354777	0.114938	-0.528001
C255	C	1.688111	0.448271	-0.194668
N256	N	0.978133	-0.251820	-0.888628
N257	N	1.311466	0.081513	-0.555295
N258	N	1.644800	0.414847	-0.221961
C259	C	0.934814	-0.285258	-0.861318
C260	C	1.268147	0.048075	-0.527985
C261	C	1.601481	0.381408	-0.194652
C262	C	1.021379	-0.218471	-0.528259
C263	C	1.354713	0.114862	-0.194926
C264	C	1.688046	0.448195	0.138408
C265	C	1.021375	-0.218488	-0.473657
C266	C	1.354709	0.114846	-0.140323
C267	C	1.688042	0.448179	0.193010
C268	C	0.934742	-0.285354	-0.473640
C269	C	1.268076	0.047980	-0.140307
C270	C	1.601409	0.381313	0.193027
C271	C	0.934750	-0.285340	-0.528243
C272	C	1.268084	0.047994	-0.194910
C273	C	1.601417	0.381327	0.138423
C274	C	0.978068	-0.251896	-0.555552
C275	C	1.311402	0.081438	-0.222219
C276	C	1.644735	0.414771	0.111114
C277	C	0.934845	-0.285233	-0.975983
C278	C	1.268178	0.048101	-0.642650
C279	C	1.601512	0.381434	-0.309317
C280	C	0.934864	-0.285220	-1.030589
C281	C	1.268197	0.048113	-0.697255
C282	C	1.601530	0.381447	-0.363922
C283	C	1.021494	-0.218352	-1.030600
C284	C	1.354827	0.114981	-0.697267
C285	C	1.688160	0.448314	-0.363934
C286	C	1.021478	-0.218367	-0.976000
C287	C	1.354811	0.114967	-0.642667
C288	C	1.688144	0.448300	-0.309333
C289	C	0.978148	-0.251809	-0.948693
C290	C	1.311481	0.081525	-0.615359
C291	C	1.644815	0.414858	-0.282026
O292	O	1.058280	-0.189984	-0.889625
O293	O	1.391614	0.143350	-0.556291
O294	O	1.724947	0.476683	-0.222958
O295	O	0.897976	-0.313678	-0.889554
O296	O	1.231309	0.019655	-0.556221
O297	O	1.564643	0.352989	-0.222887
C298	C	0.978058	-0.251922	-0.116012
C299	C	1.311391	0.081411	0.217321
C300	C	1.644724	0.414744	0.550654
C301	C	0.978183	-0.251782	-0.057899
C302	C	1.311516	0.081552	0.275435
C303	C	1.644849	0.414885	0.608768
H304	H	0.236426	-0.191397	-0.312659
H305	H	0.569759	0.141936	0.020675
H306	H	0.903092	0.475270	0.354008
H307	H	0.899596	-0.312445	-1.052806
H308	H	1.232929	0.020888	-0.719473
H309	H	1.566263	0.354222	-0.386140
O310	O	0.226967	-0.321371	-0.182233
O311	O	0.560301	0.011962	0.151100
O312	O	0.893634	0.345296	0.484434
H313	H	0.171882	-0.315769	-0.187871
H314	H	0.505215	0.017564	0.145462
H315	H	0.838549	0.350898	0.478795
O316	O	1.111228	-0.694789	-0.354902
O317	O	1.444561	-0.361455	-0.021568
O318	O	1.777894	-0.028122	0.311765
H319	H	1.080910	-0.669910	-0.381481
H320	H	1.414243	-0.336576	-0.048148
H321	H	1.747576	-0.003243	0.285185
H322	H	0.364554	-0.312537	-0.191079
H323	H	0.697888	0.020796	0.142255
H324	H	1.031221	0.354130	0.475588
O325	O	0.374023	-0.182556	-0.321499
O326	O	0.707357	0.150777	0.011834
O327	O	1.040690	0.484111	0.345168
H328	H	0.360463	-0.191576	-0.362518
H329	H	0.693796	0.141757	-0.029185
H330	H	1.027130	0.475090	0.304148
H331	H	1.056638	-0.953232	-0.312635
H332	H	1.389971	-0.619899	0.020699
H333	H	1.723305	-0.286565	0.354032
O334	O	0.729784	-0.182530	-0.321482
O335	O	1.063117	0.150803	0.011851
O336	O	1.396450	0.484136	0.345184
H337	H	0.716221	-0.191552	-0.362501
H338	H	1.049555	0.141781	-0.029168
H339	H	1.382888	0.475115	0.304165
H340	H	0.592078	-0.312514	-0.191069
H341	H	0.925411	0.020819	0.142264
H342	H	1.258745	0.354153	0.475598
O343	O	0.888104	-0.321294	-0.946534
O344	O	1.221437	0.012039	-0.613200
O345	O	1.554770	0.345372	-0.279867
H346	H	0.857997	-0.344534	-0.974691
H347	H	1.191330	-0.011200	-0.641358
H348	H	1.524663	0.322133	-0.308025
O349	O	1.067916	-0.557137	-0.321411
O350	O	1.401249	-0.223804	0.011922
O351	O	1.734582	0.109529	0.345255
H352	H	1.037611	-0.582011	-0.348004
H353	H	1.370944	-0.248677	-0.014670
H354	H	1.704277	0.084656	0.318663
H355	H	1.099825	-0.801058	-0.346078
H356	H	1.433158	-0.467725	-0.012745
H357	H	1.766491	-0.134392	0.320588
H358	H	0.720323	-0.312509	-0.191061
H359	H	1.053657	0.020825	0.142273
H360	H	1.386990	0.354158	0.475606
O361	O	1.068095	-0.182434	-0.444227
O362	O	1.401428	0.150899	-0.110894
O363	O	1.734762	0.484232	0.222439
H364	H	1.102512	-0.205844	-0.419348
H365	H	1.435845	0.127489	-0.086015
H366	H	1.769179	0.460823	0.247318
O367	O	0.582860	-0.182542	-0.321492
O368	O	0.916194	0.150791	0.011842
O369	O	1.249527	0.484124	0.345175
H370	H	0.550644	-0.205983	-0.348046
H371	H	0.883978	0.127350	-0.014712
H372	H	1.217311	0.460684	0.318621
O373	O	1.067872	-0.443652	-0.321378
O374	O	1.401205	-0.110319	0.011955
O375	O	1.734539	0.223015	0.345289
H376	H	1.102324	-0.418775	-0.297992
H377	H	1.435658	-0.085442	0.035341
H378	H	1.768991	0.247891	0.368674
H379	H	1.056671	-1.052298	-0.312649
H380	H	1.390004	-0.718964	0.020684
H381	H	1.723338	-0.385631	0.354017
H382	H	0.899723	-1.052467	-0.191202
H383	H	1.233057	-0.719134	0.142131
H384	H	1.566390	-0.385801	0.475465
H385	H	0.899673	-0.953417	-0.191191
H386	H	1.233007	-0.620084	0.142142
H387	H	1.566340	-0.286751	0.475475
O388	O	0.844871	-0.695080	-0.148846
O389	O	1.178204	-0.361747	0.184487
O390	O	1.511537	-0.028413	0.517821
H391	H	0.852115	-0.652515	-0.154460
H392	H	1.185448	-0.319182	0.178874
H393	H	1.518781	0.014152	0.512207
H394	H	0.856345	-0.801333	-0.157706
H395	H	1.189678	-0.468000	0.175628
H396	H	1.523011	-0.134667	0.508961
O397	O	0.888090	-0.557365	-0.182272
O398	O	1.221424	-0.224032	0.151061
O399	O	1.554757	0.109302	0.484394
H400	H	0.858001	-0.529240	-0.158997
H401	H	1.191334	-0.195907	0.174336
H402	H	1.524668	0.137426	0.507669
H403	H	0.899487	-0.451064	-0.191096
H404	H	1.232820	-0.117731	0.142237
H405	H	1.566154	0.215602	0.475571
H406	H	0.856219	-0.345932	-0.801620
H407	H	1.189552	-0.012599	-0.468287
H408	H	1.522885	0.320735	-0.134953
O409	O	1.068111	-0.182397	-0.557705
O410	O	1.401444	0.150937	-0.224372
O411	O	1.734777	0.484270	0.108962
H412	H	1.037845	-0.155779	-0.582581
H413	H	1.371178	0.177554	-0.249248
H414	H	1.704512	0.510888	0.084086
H415	H	0.856195	-0.345952	-0.702574
H416	H	1.189528	-0.012618	-0.369241
H417	H	1.522861	0.320715	-0.035908
H418	H	0.899484	-0.312561	-0.550460
H419	H	1.232817	0.020772	-0.217127
H420	H	1.566150	0.354105	0.116207
O421	O	0.888010	-0.321416	-0.444180
O422	O	1.221343	0.011917	-0.110847
O423	O	1.554676	0.345250	0.222487
H424	H	0.895278	-0.315802	-0.401627
H425	H	1.228611	0.017532	-0.068294
H426	H	1.561944	0.350865	0.265040
H427	H	1.099992	-0.157759	-0.702635
H428	H	1.433326	0.175574	-0.369302
H429	H	1.766659	0.508907	-0.035968
O430	O	1.111455	-0.148901	-0.808909
O431	O	1.444789	0.184432	-0.475575
O432	O	1.778122	0.517766	-0.142242
H433	H	1.141570	-0.125663	-0.780755
H434	H	1.474903	0.207670	-0.447421
H435	H	1.808236	0.541003	-0.114088
O436	O	1.068189	-0.182312	-0.946560
O437	O	1.401522	0.151021	-0.613226
O438	O	1.734856	0.484354	-0.279893
H439	H	1.098311	-0.159057	-0.974726
H440	H	1.431644	0.174276	-0.641392
H441	H	1.764978	0.507609	-0.308059
O442	O	1.068195	-0.182271	-1.060060
O443	O	1.401529	0.151062	-0.726727
O444	O	1.734862	0.484396	-0.393394
H445	H	1.060911	-0.187873	-1.102614
H446	H	1.394244	0.145460	-0.769280
H447	H	1.727578	0.478794	-0.435947
