data_functionalizedCrystal
_audit_creation_method	'MofGen! by Chris Wilmer'
_symmetry_space_group_name_H-M	'P1'
_symmetry_Int_Tables_number	1
_symmetry_cell_setting	triclinic
loop_
_symmetry_equiv_pos_as_xyz
  x,y,z
_cell_length_a	29.839131
_cell_length_b	19.805407
_cell_length_c	19.805399
_cell_angle_alpha	90.019197
_cell_angle_beta	89.970435
_cell_angle_gamma	89.962430
loop_
_atom_site_label
_atom_site_type_symbol
_atom_site_fract_x
_atom_site_fract_y
_atom_site_fract_z
Zn1	Zn	-0.178910	-1.034665	-0.382703
Zn2	Zn	0.071090	-0.784665	-0.132703
Zn3	Zn	0.321090	-0.534665	0.117297
Zn4	Zn	0.571090	-0.284665	0.367297
Zn5	Zn	-0.254037	-1.034550	-0.269511
Zn6	Zn	-0.004037	-0.784550	-0.019511
Zn7	Zn	0.245963	-0.534550	0.230489
Zn8	Zn	0.495963	-0.284550	0.480489
Zn9	Zn	-0.178917	-0.921480	-0.269529
Zn10	Zn	0.071083	-0.671480	-0.019529
Zn11	Zn	0.321083	-0.421480	0.230471
Zn12	Zn	0.571083	-0.171480	0.480471
Zn13	Zn	-0.254009	-0.921414	-0.382659
Zn14	Zn	-0.004009	-0.671414	-0.132659
Zn15	Zn	0.245991	-0.421414	0.117341
Zn16	Zn	0.495991	-0.171414	0.367341
O17	O	-0.216468	-0.978027	-0.326101
O18	O	0.033532	-0.728027	-0.076101
O19	O	0.283532	-0.478027	0.173899
O20	O	0.533532	-0.228027	0.423899
O21	O	-0.188885	-1.129366	-0.367700
O22	O	0.061115	-0.879366	-0.117700
O23	O	0.311115	-0.629366	0.132300
O24	O	0.561115	-0.379366	0.382300
O25	O	-0.244088	-1.019531	-0.174797
O26	O	0.005912	-0.769531	0.075203
O27	O	0.255912	-0.519531	0.325203
O28	O	0.505912	-0.269531	0.575203
O29	O	-0.116049	-0.936570	-0.284568
O30	O	0.133951	-0.686570	-0.034568
O31	O	0.383951	-0.436570	0.215432
O32	O	0.633951	-0.186570	0.465432
O33	O	-0.244081	-1.129282	-0.284538
O34	O	0.005919	-0.879282	-0.034538
O35	O	0.255919	-0.629282	0.215462
O36	O	0.505919	-0.379282	0.465462
O37	O	-0.116044	-1.019726	-0.367717
O38	O	0.133956	-0.769726	-0.117717
O39	O	0.383956	-0.519726	0.132283
O40	O	0.633956	-0.269726	0.382283
O41	O	-0.188897	-0.936458	-0.174810
O42	O	0.061103	-0.686458	0.075190
O43	O	0.311103	-0.436458	0.325190
O44	O	0.561103	-0.186458	0.575190
O45	O	-0.188869	-0.826754	-0.284524
O46	O	0.061131	-0.576754	-0.034524
O47	O	0.311131	-0.326754	0.215476
O48	O	0.561131	-0.076754	0.465476
O49	O	-0.244031	-0.936457	-0.477381
O50	O	0.005969	-0.686457	-0.227381
O51	O	0.255969	-0.436457	0.022619
O52	O	0.505969	-0.186457	0.272619
O53	O	-0.244038	-0.826706	-0.367640
O54	O	0.005962	-0.576706	-0.117640
O55	O	0.255962	-0.326706	0.132360
O56	O	0.505962	-0.076706	0.382360
O57	O	-0.188857	-1.019662	-0.477414
O58	O	0.061143	-0.769662	-0.227414
O59	O	0.311143	-0.519662	0.022586
O60	O	0.561143	-0.269662	0.272586
O61	O	-0.316901	-1.019467	-0.284495
O62	O	-0.066901	-0.769467	-0.034495
O63	O	0.183099	-0.519467	0.215505
O64	O	0.433099	-0.269467	0.465505
O65	O	-0.316880	-0.936346	-0.367623
O66	O	-0.066880	-0.686346	-0.117623
O67	O	0.183120	-0.436346	0.132377
O68	O	0.433120	-0.186346	0.382377
C69	C	-0.216452	-0.802171	-0.326080
C70	C	0.033548	-0.552171	-0.076080
C71	C	0.283548	-0.302171	0.173920
C72	C	0.533548	-0.052171	0.423920
C73	C	-0.216456	-0.726939	-0.326087
C74	C	0.033544	-0.476939	-0.076087
C75	C	0.283544	-0.226939	0.173913
C76	C	0.533544	0.023061	0.423913
C77	C	-0.187765	-0.691640	-0.369454
C78	C	0.062235	-0.441640	-0.119454
C79	C	0.312235	-0.191640	0.130546
C80	C	0.562235	0.058360	0.380546
C81	C	-0.187767	-0.620951	-0.369455
C82	C	0.062233	-0.370951	-0.119455
C83	C	0.312233	-0.120951	0.130545
C84	C	0.562233	0.129049	0.380545
C85	C	-0.216461	-0.585564	-0.326092
C86	C	0.033539	-0.335564	-0.076092
C87	C	0.283539	-0.085564	0.173908
C88	C	0.533539	0.164436	0.423908
C89	C	-0.245152	-0.620868	-0.282720
C90	C	0.004848	-0.370868	-0.032720
C91	C	0.254848	-0.120868	0.217280
C92	C	0.504848	0.129132	0.467280
C93	C	-0.245148	-0.691555	-0.282716
C94	C	0.004852	-0.441555	-0.032716
C95	C	0.254852	-0.191555	0.217284
C96	C	0.504852	0.058445	0.467284
C97	C	-0.245169	-0.335795	-0.282733
C98	C	0.004831	-0.085795	-0.032733
C99	C	0.254831	0.164205	0.217267
C100	C	0.504831	0.414205	0.467267
C101	C	-0.245172	-0.265103	-0.282742
C102	C	0.004828	-0.015103	-0.032742
C103	C	0.254828	0.234897	0.217258
C104	C	0.504828	0.484897	0.467258
C105	C	-0.187787	-0.265191	-0.369473
C106	C	0.062213	-0.015191	-0.119473
C107	C	0.312213	0.234809	0.130527
C108	C	0.562213	0.484809	0.380527
C109	C	-0.187783	-0.335878	-0.369469
C110	C	0.062217	-0.085878	-0.119469
C111	C	0.312217	0.164122	0.130531
C112	C	0.562217	0.414122	0.380531
C113	C	-0.216473	-0.371176	-0.326095
C114	C	0.033527	-0.121176	-0.076095
C115	C	0.283527	0.128824	0.173905
C116	C	0.533527	0.378824	0.423905
C117	C	-0.216470	-0.447825	-0.326093
C118	C	0.033530	-0.197825	-0.076093
C119	C	0.283530	0.052175	0.173907
C120	C	0.533530	0.302175	0.423907
C121	C	-0.216466	-0.508916	-0.326096
C122	C	0.033534	-0.258916	-0.076096
C123	C	0.283534	-0.008916	0.173904
C124	C	0.533534	0.241084	0.423904
C125	C	-0.333191	-0.977905	-0.326067
C126	C	-0.083191	-0.727905	-0.076067
C127	C	0.166809	-0.477905	0.173933
C128	C	0.416809	-0.227905	0.423933
C129	C	-0.383125	-0.977915	-0.326075
C130	C	-0.133125	-0.727915	-0.076075
C131	C	0.116875	-0.477915	0.173925
C132	C	0.366875	-0.227915	0.423925
C133	C	-0.692767	-1.021387	-0.282879
C134	C	-0.442767	-0.771387	-0.032879
C135	C	-0.192767	-0.521387	0.217121
C136	C	0.057233	-0.271387	0.467121
C137	C	-0.880440	-1.021470	-0.282905
C138	C	-0.630440	-0.771470	-0.032905
C139	C	-0.380440	-0.521470	0.217095
C140	C	-0.130440	-0.271470	0.467095
O141	O	-0.904704	-1.058335	-0.246152
O142	O	-0.654704	-0.808335	0.003848
O143	O	-0.404704	-0.558335	0.253848
O144	O	-0.154704	-0.308335	0.503848
N145	N	-0.903910	-0.978167	-0.326152
N146	N	-0.653910	-0.728167	-0.076152
N147	N	-0.403910	-0.478167	0.173848
N148	N	-0.153910	-0.228167	0.423848
C149	C	-0.880459	-0.934844	-0.369398
C150	C	-0.630459	-0.684844	-0.119398
C151	C	-0.380459	-0.434844	0.130602
C152	C	-0.130459	-0.184844	0.380602
O153	O	-0.904729	-0.898019	-0.406188
O154	O	-0.654729	-0.648019	-0.156188
O155	O	-0.404729	-0.398019	0.093812
O156	O	-0.154729	-0.148019	0.343812
C157	C	-0.692787	-0.934764	-0.369375
C158	C	-0.442787	-0.684764	-0.119375
C159	C	-0.192787	-0.434764	0.130625
C160	C	0.057213	-0.184764	0.380625
C161	C	-0.669319	-0.978065	-0.326120
C162	C	-0.419319	-0.728065	-0.076120
C163	C	-0.169319	-0.478065	0.173880
C164	C	0.080681	-0.228065	0.423880
C165	C	-0.669299	-1.064685	-0.239628
C166	C	-0.419299	-0.814685	0.010372
C167	C	-0.169299	-0.564685	0.260372
C168	C	0.080701	-0.314685	0.510372
C169	C	-0.622384	-1.064661	-0.239619
C170	C	-0.372384	-0.814661	0.010381
C171	C	-0.122384	-0.564661	0.260381
C172	C	0.127616	-0.314661	0.510381
C173	C	-0.598936	-1.021339	-0.282861
C174	C	-0.348936	-0.771339	-0.032861
C175	C	-0.098936	-0.521339	0.217139
C176	C	0.151064	-0.271339	0.467139
C177	C	-0.622404	-0.978041	-0.326112
C178	C	-0.372404	-0.728041	-0.076112
C179	C	-0.122404	-0.478041	0.173888
C180	C	0.127596	-0.228041	0.423888
C181	C	-0.669337	-0.891444	-0.412624
C182	C	-0.419337	-0.641444	-0.162624
C183	C	-0.169337	-0.391444	0.087376
C184	C	0.080663	-0.141444	0.337376
C185	C	-0.622416	-0.891429	-0.412616
C186	C	-0.372416	-0.641429	-0.162616
C187	C	-0.122416	-0.391429	0.087384
C188	C	0.127584	-0.141429	0.337384
C189	C	-0.598948	-0.934730	-0.369361
C190	C	-0.348948	-0.684730	-0.119361
C191	C	-0.098948	-0.434730	0.130639
C192	C	0.151052	-0.184730	0.380639
C193	C	-0.552041	-0.934695	-0.369344
C194	C	-0.302041	-0.684695	-0.119344
C195	C	-0.052041	-0.434695	0.130656
C196	C	0.197959	-0.184695	0.380656
N197	N	-0.528571	-0.977998	-0.326098
N198	N	-0.278571	-0.727998	-0.076098
N199	N	-0.028571	-0.477998	0.173902
N200	N	0.221429	-0.227998	0.423902
C201	C	-0.552018	-1.021320	-0.282856
C202	C	-0.302018	-0.771320	-0.032856
C203	C	-0.052018	-0.521320	0.217144
C204	C	0.197982	-0.271320	0.467144
C205	C	-0.978990	-0.934888	-0.369406
C206	C	-0.728990	-0.684888	-0.119406
C207	C	-0.478990	-0.434888	0.130594
C208	C	-0.228990	-0.184888	0.380594
C209	C	-1.025908	-0.934906	-0.369411
C210	C	-0.775908	-0.684906	-0.119411
C211	C	-0.525908	-0.434906	0.130589
C212	C	-0.275908	-0.184906	0.380589
C213	C	-1.025885	-1.021534	-0.282919
C214	C	-0.775885	-0.771534	-0.032919
C215	C	-0.525885	-0.521534	0.217081
C216	C	-0.275885	-0.271534	0.467081
C217	C	-0.978967	-1.021512	-0.282911
C218	C	-0.728967	-0.771512	-0.032911
C219	C	-0.478967	-0.521512	0.217089
C220	C	-0.228967	-0.271512	0.467089
C221	C	-0.955520	-0.978191	-0.326160
C222	C	-0.705520	-0.728191	-0.076160
C223	C	-0.455520	-0.478191	0.173840
C224	C	-0.205520	-0.228191	0.423840
C225	C	-0.453493	-1.021266	-0.282840
C226	C	-0.203493	-0.771266	-0.032840
C227	C	0.046507	-0.521266	0.217160
C228	C	0.296507	-0.271266	0.467160
C229	C	-0.406573	-1.021236	-0.282834
C230	C	-0.156573	-0.771236	-0.032834
C231	C	0.093427	-0.521236	0.217166
C232	C	0.343427	-0.271236	0.467166
C233	C	-0.406600	-0.934611	-0.369328
C234	C	-0.156600	-0.684611	-0.119328
C235	C	0.093400	-0.434611	0.130672
C236	C	0.343400	-0.184611	0.380672
C237	C	-0.453515	-0.934638	-0.369333
C238	C	-0.203515	-0.684638	-0.119333
C239	C	0.046485	-0.434638	0.130667
C240	C	0.296485	-0.184638	0.380667
C241	C	-0.476960	-0.977971	-0.326087
C242	C	-0.226960	-0.727971	-0.076087
C243	C	0.023040	-0.477971	0.173913
C244	C	0.273040	-0.227971	0.423913
O245	O	-0.527749	-0.897855	-0.406084
O246	O	-0.277749	-0.647855	-0.156084
O247	O	-0.027749	-0.397855	0.093916
O248	O	0.222251	-0.147855	0.343916
O249	O	-0.527741	-1.058150	-0.246083
O250	O	-0.277741	-0.808150	0.003917
O251	O	-0.027741	-0.558150	0.253917
O252	O	0.222259	-0.308150	0.503917
C253	C	-0.739683	-1.021411	-0.282887
C254	C	-0.489683	-0.771411	-0.032887
C255	C	-0.239683	-0.521411	0.217113
C256	C	0.010317	-0.271411	0.467113
C257	C	-0.763150	-0.978113	-0.326138
C258	C	-0.513150	-0.728113	-0.076138
C259	C	-0.263150	-0.478113	0.173862
C260	C	-0.013150	-0.228113	0.423862
C261	C	-0.739703	-0.934791	-0.369379
C262	C	-0.489703	-0.684791	-0.119379
C263	C	-0.239703	-0.434791	0.130621
C264	C	0.010297	-0.184791	0.380621
C265	C	-0.810068	-0.978132	-0.326143
C266	C	-0.560068	-0.728132	-0.076143
C267	C	-0.310068	-0.478132	0.173857
C268	C	-0.060068	-0.228132	0.423857
C269	C	-0.833516	-1.021454	-0.282901
C270	C	-0.583516	-0.771454	-0.032901
C271	C	-0.333516	-0.521454	0.217099
C272	C	-0.083516	-0.271454	0.467099
C273	C	-0.810046	-1.064757	-0.239654
C274	C	-0.560046	-0.814757	0.010346
C275	C	-0.310046	-0.564757	0.260346
C276	C	-0.060046	-0.314757	0.510346
C277	C	-0.763130	-1.064733	-0.239646
C278	C	-0.513130	-0.814733	0.010354
C279	C	-0.263130	-0.564733	0.260354
C280	C	-0.013130	-0.314733	0.510354
C281	C	-0.763173	-0.891488	-0.412626
C282	C	-0.513173	-0.641488	-0.162626
C283	C	-0.263173	-0.391488	0.087374
C284	C	-0.013173	-0.141488	0.337374
C285	C	-0.810088	-0.891515	-0.412631
C286	C	-0.560088	-0.641515	-0.162631
C287	C	-0.310088	-0.391515	0.087369
C288	C	-0.060088	-0.141515	0.337369
C289	C	-0.833536	-0.934837	-0.369389
C290	C	-0.583536	-0.684837	-0.119389
C291	C	-0.333536	-0.434837	0.130611
C292	C	-0.083536	-0.184837	0.380611
C293	C	-0.099290	-0.978168	-0.326149
C294	C	0.150710	-0.728168	-0.076149
C295	C	0.400710	-0.478168	0.173851
C296	C	0.650710	-0.228168	0.423851
C297	C	-0.049355	-0.978228	-0.326170
C298	C	0.200645	-0.728228	-0.076170
C299	C	0.450645	-0.478228	0.173830
C300	C	0.700645	-0.228228	0.423830
C301	C	-0.216440	-0.978065	-0.502643
C302	C	0.033560	-0.728065	-0.252643
C303	C	0.283560	-0.478065	-0.002643
C304	C	0.533560	-0.228065	0.247357
C305	C	-0.216428	-0.978081	-0.577875
C306	C	0.033572	-0.728081	-0.327875
C307	C	0.283572	-0.478081	-0.077875
C308	C	0.533572	-0.228081	0.172125
C309	C	-0.216482	-0.154570	-0.326116
C310	C	0.033518	0.095430	-0.076116
C311	C	0.283518	0.345430	0.173884
C312	C	0.533518	0.595430	0.423884
C313	C	-0.216479	-0.229802	-0.326106
C314	C	0.033521	0.020198	-0.076106
C315	C	0.283521	0.270198	0.173894
C316	C	0.533521	0.520198	0.423894
C317	C	-0.187697	-1.021407	-0.613238
C318	C	0.062303	-0.771407	-0.363238
C319	C	0.312303	-0.521407	-0.113238
C320	C	0.562303	-0.271407	0.136762
C321	C	-0.187684	-1.021414	-0.683926
C322	C	0.062316	-0.771414	-0.433926
C323	C	0.312316	-0.521414	-0.183926
C324	C	0.562316	-0.271414	0.066074
C325	C	-0.216404	-0.978098	-0.719251
C326	C	0.033596	-0.728098	-0.469251
C327	C	0.283596	-0.478098	-0.219251
C328	C	0.533596	-0.228098	0.030749
C329	C	-0.245137	-0.934767	-0.683884
C330	C	0.004863	-0.684767	-0.433884
C331	C	0.254863	-0.434767	-0.183884
C332	C	0.504863	-0.184767	0.066116
C333	C	-0.245147	-0.934757	-0.613197
C334	C	0.004853	-0.684757	-0.363197
C335	C	0.254853	-0.434757	-0.113197
C336	C	0.504853	-0.184757	0.136803
C337	C	-0.245095	-0.934806	-0.968957
C338	C	0.004905	-0.684806	-0.718957
C339	C	0.254905	-0.434806	-0.468957
C340	C	0.504905	-0.184806	-0.218957
C341	C	-0.245083	-0.934820	-1.039649
C342	C	0.004917	-0.684820	-0.789649
C343	C	0.254917	-0.434820	-0.539649
C344	C	0.504917	-0.184820	-0.289649
C345	C	-0.187632	-1.021462	-1.039687
C346	C	0.062368	-0.771462	-0.789687
C347	C	0.312368	-0.521462	-0.539687
C348	C	0.562368	-0.271462	-0.289687
C349	C	-0.187642	-1.021452	-0.969000
C350	C	0.062358	-0.771452	-0.719000
C351	C	0.312358	-0.521452	-0.469000
C352	C	0.562358	-0.271452	-0.219000
C353	C	-0.216372	-0.978119	-0.933639
C354	C	0.033628	-0.728119	-0.683639
C355	C	0.283628	-0.478119	-0.433639
C356	C	0.533628	-0.228119	-0.183639
C357	C	-0.216386	-0.978112	-0.856990
C358	C	0.033614	-0.728112	-0.606990
C359	C	0.283614	-0.478112	-0.356990
C360	C	0.533614	-0.228112	-0.106990
C361	C	-0.216394	-0.978109	-0.795898
C362	C	0.033606	-0.728109	-0.545898
C363	C	0.283606	-0.478109	-0.295898
C364	C	0.533606	-0.228109	-0.045898
C365	C	-0.216464	-0.978028	-0.150245
C366	C	0.033536	-0.728028	0.099755
C367	C	0.283536	-0.478028	0.349755
C368	C	0.533536	-0.228028	0.599755
C369	C	-0.216350	-0.978143	-0.075013
C370	C	0.033650	-0.728143	0.174987
C371	C	0.283650	-0.478143	0.424987
C372	C	0.533650	-0.228143	0.674987
H373	H	-0.164400	-0.720447	-0.404768
H374	H	0.085600	-0.470447	-0.154768
H375	H	0.335600	-0.220447	0.095232
H376	H	0.585600	0.029553	0.345232
Br377	Br	-0.148666	-1.080244	-0.921062
Br378	Br	0.101334	-0.830244	-0.671062
Br379	Br	0.351334	-0.580244	-0.421062
Br380	Br	0.601334	-0.330244	-0.171062
Br381	Br	-0.284138	-0.875951	-0.565204
Br382	Br	-0.034138	-0.625951	-0.315204
Br383	Br	0.215862	-0.375951	-0.065204
Br384	Br	0.465862	-0.125951	0.184796
Br385	Br	-0.841932	-0.832741	-0.471337
Br386	Br	-0.591932	-0.582741	-0.221337
Br387	Br	-0.341932	-0.332741	0.028663
Br388	Br	-0.091932	-0.082741	0.278663
H389	H	-0.164311	-1.056682	-0.584481
H390	H	0.085689	-0.806682	-0.334481
H391	H	0.335689	-0.556682	-0.084481
H392	H	0.585689	-0.306682	0.165519
Br393	Br	-0.701112	-1.123489	-0.180936
Br394	Br	-0.451112	-0.873489	0.069064
Br395	Br	-0.201112	-0.623489	0.319064
Br396	Br	0.048888	-0.373489	0.569064
Br397	Br	-0.374727	-1.080005	-0.224126
Br398	Br	-0.124727	-0.830005	0.025874
Br399	Br	0.125273	-0.580005	0.275874
Br400	Br	0.375273	-0.330005	0.525874
Br401	Br	-0.284112	-0.875976	-0.731824
Br402	Br	-0.034112	-0.625976	-0.481824
Br403	Br	0.215888	-0.375976	-0.231824
Br404	Br	0.465888	-0.125976	0.018176
Br405	Br	-0.731358	-0.832689	-0.471319
Br406	Br	-0.481358	-0.582689	-0.221319
Br407	Br	-0.231358	-0.332689	0.028681
Br408	Br	0.018642	-0.082689	0.278681
Br409	Br	-0.148829	-0.573047	-0.428314
Br410	Br	0.101171	-0.323047	-0.178314
Br411	Br	0.351171	-0.073047	0.071686
Br412	Br	0.601171	0.176953	0.321686
H413	H	-0.164419	-0.364687	-0.404782
H414	H	0.085581	-0.114687	-0.154782
H415	H	0.335581	0.135313	0.095218
H416	H	0.585581	0.385313	0.345218
H417	H	-0.268511	-0.720295	-0.247401
H418	H	-0.018511	-0.470295	0.002599
H419	H	0.231489	-0.220295	0.252599
H420	H	0.481489	0.029705	0.502599
H421	H	-0.164425	-0.236442	-0.404788
H422	H	0.085575	0.013558	-0.154788
H423	H	0.335575	0.263558	0.095212
H424	H	0.585575	0.513558	0.345212
H425	H	-0.268539	-0.236292	-0.247428
H426	H	-0.018539	0.013708	0.002572
H427	H	0.231461	0.263708	0.252572
H428	H	0.481461	0.513708	0.502572
Br429	Br	-0.284085	-0.875995	-0.920976
Br430	Br	-0.034085	-0.625995	-0.670976
Br431	Br	0.215915	-0.375995	-0.420976
Br432	Br	0.465915	-0.125995	-0.170976
H433	H	-0.164290	-1.056696	-0.712715
H434	H	0.085710	-0.806696	-0.462715
H435	H	0.335710	-0.556696	-0.212715
H436	H	0.585710	-0.306696	0.037285
Br437	Br	-0.284093	-0.383691	-0.223851
Br438	Br	-0.034093	-0.133691	0.026149
Br439	Br	0.215907	0.116309	0.276149
Br440	Br	0.465907	0.366309	0.526149
Br441	Br	-0.590598	-0.832636	-0.471316
Br442	Br	-0.340598	-0.582636	-0.221316
Br443	Br	-0.090598	-0.332636	0.028684
Br444	Br	0.159402	-0.082636	0.278684
Br445	Br	-0.284092	-0.572843	-0.223863
Br446	Br	-0.034092	-0.322843	0.026137
Br447	Br	0.215908	-0.072843	0.276137
Br448	Br	0.465908	0.177157	0.526137
Br449	Br	-0.148639	-1.080272	-1.087681
Br450	Br	0.101361	-0.830272	-0.837681
Br451	Br	0.351361	-0.580272	-0.587681
Br452	Br	0.601361	-0.330272	-0.337681
Br453	Br	-0.485304	-1.080076	-0.224149
Br454	Br	-0.235304	-0.830076	0.025851
Br455	Br	0.014696	-0.580076	0.275851
Br456	Br	0.264696	-0.330076	0.525851
Br457	Br	-0.841877	-1.123547	-0.180967
Br458	Br	-0.591877	-0.873547	0.069033
Br459	Br	-0.341877	-0.623547	0.319033
Br460	Br	-0.091877	-0.373547	0.569033
Br461	Br	-0.590542	-1.123440	-0.180924
Br462	Br	-0.340542	-0.873440	0.069076
Br463	Br	-0.090542	-0.623440	0.319076
Br464	Br	0.159458	-0.373440	0.569076
H465	H	-0.959862	-1.056771	-0.247690
H466	H	-0.709862	-0.806771	0.002310
H467	H	-0.459862	-0.556771	0.252310
H468	H	-0.209862	-0.306771	0.502310
H469	H	-1.044984	-1.056809	-0.247710
H470	H	-0.794984	-0.806809	0.002290
H471	H	-0.544984	-0.556809	0.252290
H472	H	-0.294984	-0.306809	0.502290
Br473	Br	-0.284064	-0.876031	-1.087590
Br474	Br	-0.034064	-0.626031	-0.837590
Br475	Br	0.215936	-0.376031	-0.587590
Br476	Br	0.465936	-0.126031	-0.337590
H477	H	-1.045011	-0.899640	-0.404627
H478	H	-0.795011	-0.649640	-0.154627
H479	H	-0.545011	-0.399640	0.095373
H480	H	-0.295011	-0.149640	0.345373
Br481	Br	-0.947176	-0.876088	-0.428107
Br482	Br	-0.697176	-0.626088	-0.178107
Br483	Br	-0.447176	-0.376088	0.071893
Br484	Br	-0.197176	-0.126088	0.321893
Br485	Br	-0.485365	-0.875856	-0.428019
Br486	Br	-0.235365	-0.625856	-0.178019
Br487	Br	0.014635	-0.375856	0.071981
Br488	Br	0.264635	-0.125856	0.321981
Br489	Br	-0.374769	-0.875823	-0.428013
Br490	Br	-0.124769	-0.625823	-0.178013
Br491	Br	0.125231	-0.375823	0.071987
Br492	Br	0.375231	-0.125823	0.321987
H493	H	-0.688437	-0.856180	-0.447843
H494	H	-0.438437	-0.606180	-0.197843
H495	H	-0.188437	-0.356180	0.052157
H496	H	0.061563	-0.106180	0.302157
H497	H	-0.744026	-1.099993	-0.204424
H498	H	-0.494026	-0.849993	0.045576
H499	H	-0.244026	-0.599993	0.295576
H500	H	0.005974	-0.349993	0.545576
