data_functionalizedCrystal
_audit_creation_method	'MofGen! by Chris Wilmer'
_symmetry_space_group_name_H-M	'P1'
_symmetry_Int_Tables_number	1
_symmetry_cell_setting	triclinic
loop_
_symmetry_equiv_pos_as_xyz
  x,y,z
_cell_length_a	16.109302
_cell_length_b	10.654550
_cell_length_c	15.186229
_cell_angle_alpha	89.989221
_cell_angle_beta	90.009858
_cell_angle_gamma	96.026658
loop_
_atom_site_label
_atom_site_type_symbol
_atom_site_fract_x
_atom_site_fract_y
_atom_site_fract_z
O1	O	1.104094	-0.161438	0.073266
O2	O	0.862152	-0.181525	0.073259
O3	O	0.988686	0.011333	0.073259
O4	O	0.977561	-0.354296	0.073265
O5	O	0.988668	0.011365	-0.073198
O6	O	0.862134	-0.181494	-0.073199
O7	O	1.104077	-0.161406	-0.073191
Zn8	Zn	0.983103	-0.171445	-0.096448
Zn9	Zn	0.983126	-0.171486	0.096516
O10	O	0.977543	-0.354265	-0.073192
C11	C	0.831164	-0.180695	0.000029
C12	C	0.738854	-0.178255	0.000026
C13	C	0.526470	-0.172597	-0.079799
C14	C	0.439736	-0.170291	-0.079796
C15	C	0.439766	-0.170331	0.079880
C16	C	0.526499	-0.172628	0.079876
C17	C	0.569848	-0.173767	0.000034
C18	C	0.396381	-0.169164	0.000041
C19	C	0.302341	-0.166664	0.000045
C20	C	0.663895	-0.176265	0.000030
C21	C	0.987860	0.058136	0.000032
C22	C	0.985416	0.197546	0.000035
C23	C	1.135065	-0.162236	0.000040
C24	C	1.227375	-0.164676	0.000049
C25	C	0.978369	-0.401067	0.000038
C26	C	0.980813	-0.540477	0.000040
N27	N	0.983093	-0.171416	-0.228141
C28	C	1.059918	0.278042	0.000034
C29	C	1.057616	0.409032	0.000040
C30	C	0.906306	0.379016	0.000044
C31	C	0.908608	0.248029	0.000044
C32	C	1.147275	0.295373	0.000028
C33	C	1.144974	0.426362	0.000035
C34	C	0.932260	-0.095284	-0.546096
C35	C	0.932252	-0.095265	-0.453906
C36	C	1.033982	-0.247641	-0.453843
C37	C	1.033993	-0.247651	-0.546031
C38	C	0.983127	-0.171475	-0.592155
C39	C	0.983109	-0.171446	-0.407778
C40	C	0.983101	-0.171427	-0.307821
C41	C	0.983135	-0.171492	-0.692118
N42	N	0.983142	-0.171505	0.228208
H43	H	0.404421	-0.169338	-0.144804
H44	H	0.890842	-0.033255	-0.583647
C45	C	0.392077	-0.169095	0.167699
H46	H	0.334208	-0.167573	0.156269
H47	H	0.412214	-0.096293	0.200506
H48	H	0.400380	-0.242681	0.200496
C49	C	0.826657	0.159487	0.000050
H50	H	0.780586	0.208317	0.000047
H51	H	0.824420	0.107751	0.051122
H52	H	0.824400	0.107781	-0.051030
H53	H	1.075419	-0.309696	-0.583534
H54	H	0.561818	-0.173578	0.144889
H55	H	0.890832	-0.033221	-0.416409
C56	C	0.821824	0.434553	0.000047
H57	H	0.831121	0.524093	0.000042
H58	H	0.791122	0.406904	0.051118
H59	H	0.791111	0.406935	-0.051034
C60	C	1.184850	0.247763	-0.085391
H61	H	1.199993	0.317203	-0.123429
H62	H	1.144776	0.189617	-0.113774
H63	H	1.232975	0.207111	-0.071667
H64	H	1.181452	0.266465	0.061317
H65	H	1.171382	0.472350	0.063272
H66	H	1.177882	0.468582	-0.061255
H67	H	1.075394	-0.309662	-0.416278
H68	H	0.561762	-0.173524	-0.144811
