data_functionalizedCrystal
_audit_creation_method	'MofGen! by Chris Wilmer'
_symmetry_space_group_name_H-M	'P1'
_symmetry_Int_Tables_number	1
_symmetry_cell_setting	triclinic
loop_
_symmetry_equiv_pos_as_xyz
  x,y,z
_cell_length_a	21.395364
_cell_length_b	12.645324
_cell_length_c	21.395361
_cell_angle_alpha	89.959053
_cell_angle_beta	90.045659
_cell_angle_gamma	89.977228
loop_
_atom_site_label
_atom_site_type_symbol
_atom_site_fract_x
_atom_site_fract_y
_atom_site_fract_z
Zn1	Zn	0.957848	-0.599374	-0.249141
Zn2	Zn	0.957754	-0.422085	-0.353936
Zn3	Zn	0.853066	-0.422118	-0.249204
Zn4	Zn	0.853032	-0.599301	-0.353912
O5	O	0.905425	-0.510720	-0.301548
O6	O	1.045514	-0.575872	-0.263026
O7	O	0.943842	-0.273742	-0.340080
O8	O	0.867020	-0.445676	-0.161518
O9	O	1.045444	-0.445619	-0.340019
O10	O	0.944002	-0.575905	-0.161471
O11	O	0.866928	-0.273767	-0.263134
O12	O	0.765384	-0.445606	-0.263110
O13	O	0.866962	-0.747658	-0.339977
O14	O	0.765359	-0.575781	-0.340038
O15	O	0.943969	-0.747711	-0.263003
O16	O	0.943809	-0.445549	-0.441611
O17	O	0.866870	-0.575749	-0.441593
C18	C	0.742638	-0.510690	-0.301579
C19	C	0.672996	-0.510702	-0.301607
C20	C	0.640342	-0.578630	-0.261582
C21	C	0.574906	-0.578634	-0.261566
C22	C	0.542128	-0.510722	-0.301585
C23	C	0.574791	-0.442781	-0.341612
C24	C	0.640225	-0.442771	-0.341623
C25	C	0.438404	-0.502193	-0.358011
C26	C	0.372971	-0.502210	-0.358001
C27	C	0.340307	-0.510745	-0.301550
C28	C	0.373085	-0.519285	-0.245108
C29	C	0.438519	-0.519275	-0.245119
C30	C	0.471176	-0.510724	-0.301577
C31	C	0.236700	-0.578681	-0.261504
C32	C	0.171264	-0.578677	-0.261487
C33	C	0.171149	-0.442830	-0.341539
C34	C	0.236585	-0.442828	-0.341551
C35	C	0.269356	-0.510759	-0.301534
C36	C	0.905472	-0.787225	-0.301480
C37	C	0.905492	-0.905055	-0.301451
C38	C	0.954126	-1.072653	-0.253167
C39	C	0.953971	-0.950093	-0.252992
C40	C	0.839489	-0.949539	-0.283526
C41	C	0.839784	-1.072137	-0.283159
C42	C	0.922326	-1.072235	-0.367732
C43	C	0.923770	-0.949630	-0.367398
C44	C	1.068849	-0.510750	-0.301518
C45	C	1.138490	-0.510763	-0.301505
C46	C	0.905343	-0.510661	-0.464336
C47	C	0.905365	-0.510671	-0.533977
C48	C	0.905415	-0.235290	-0.301571
C49	C	0.905516	-0.117460	-0.301423
C50	C	0.945462	-0.442945	-0.566679
C51	C	0.945491	-0.442969	-0.632114
C52	C	0.905412	-0.510707	-0.664846
C53	C	0.865311	-0.578446	-0.632136
C54	C	0.865288	-0.578428	-0.566702
C55	C	0.848997	-0.519015	-0.768574
C56	C	0.849019	-0.519025	-0.834007
C57	C	0.905485	-0.510769	-0.866666
C58	C	0.961929	-0.502480	-0.833885
C59	C	0.961906	-0.502462	-0.768451
C60	C	0.905433	-0.510735	-0.735798
C61	C	0.945617	-0.443066	-0.970320
C62	C	0.945647	-0.443097	-1.035757
C63	C	0.865462	-0.578568	-1.035777
C64	C	0.865437	-0.578543	-0.970342
C65	C	0.905514	-0.510786	-0.937618
C66	C	0.905525	-0.510802	-0.138125
C67	C	0.905568	-0.510837	-0.068484
H68	H	0.346289	-0.495261	-0.403960
H69	H	1.007909	-0.495758	-0.860475
H70	H	0.464993	-0.495242	-0.403984
C71	C	0.989748	-0.368584	-1.071732
H72	H	0.984026	-0.378302	-1.115389
H73	H	0.980586	-0.297345	-1.061054
H74	H	1.031842	-0.384149	-1.060953
C75	C	0.676390	-0.653346	-0.217566
H76	H	0.720038	-0.643621	-0.223307
H77	H	0.665702	-0.637973	-0.175455
H78	H	0.665676	-0.724548	-0.226790
H79	H	0.886923	-1.101218	-0.403688
H80	H	0.969614	-1.103216	-0.384054
C81	C	0.337164	-0.528678	-0.183009
H82	H	0.293500	-0.527450	-0.191083
H83	H	0.347925	-0.593277	-0.163021
H84	H	0.347899	-0.471086	-0.156616
C85	C	0.989387	-0.910357	-0.385662
H86	H	1.005579	-0.866969	-0.353239
H87	H	1.016245	-0.969284	-0.391756
H88	H	0.986815	-0.870563	-0.423255
H89	H	0.943141	-1.103490	-0.204318
H90	H	0.978252	-0.387897	-0.943675
H91	H	0.548314	-0.633947	-0.228970
H92	H	0.802285	-0.920363	-0.317595
H93	H	0.890937	-0.918967	-0.405286
H94	H	0.465204	-0.526226	-0.199161
C95	C	0.989551	-0.368428	-0.530685
H96	H	1.013440	-0.328103	-0.559537
H97	H	0.965592	-0.322193	-0.505208
H98	H	1.016833	-0.409025	-0.505110
C99	C	0.272751	-0.653391	-0.217484
H100	H	0.243929	-0.693838	-0.193637
H101	H	0.298266	-0.699504	-0.241487
H102	H	0.298293	-0.612915	-0.190161
C103	C	1.020090	-0.909460	-0.268141
H104	H	1.047288	-0.967880	-0.274455
H105	H	1.018745	-0.867553	-0.304984
H106	H	1.035034	-0.867893	-0.234318
C107	C	0.789188	-1.112188	-0.328566
H108	H	0.789027	-1.187316	-0.328651
H109	H	0.749454	-1.086929	-0.315567
H110	H	0.797875	-1.087035	-0.369497
C111	C	0.989598	-0.368469	-0.668097
H112	H	0.983874	-0.378190	-0.711754
H113	H	0.980445	-0.297224	-0.657422
H114	H	1.031690	-0.384048	-0.657318
H115	H	0.832831	-0.633727	-1.062427
C116	C	0.821322	-0.653029	-0.934369
H117	H	0.797451	-0.693369	-0.963232
H118	H	0.845263	-0.699249	-0.908789
H119	H	0.794024	-0.612415	-0.908898
C120	C	0.938932	-0.910498	-0.186639
H121	H	0.938791	-0.835371	-0.186304
H122	H	0.899008	-0.935904	-0.174359
H123	H	0.969730	-0.935779	-0.158317
C124	C	0.135101	-0.368132	-0.385562
H125	H	0.091453	-0.377871	-0.379827
H126	H	0.145813	-0.296931	-0.376351
H127	H	0.145789	-0.383527	-0.427673
C128	C	0.821176	-0.652923	-0.530729
H129	H	0.797307	-0.693268	-0.559591
H130	H	0.845118	-0.699140	-0.505148
H131	H	0.793876	-0.612312	-0.505259
C132	C	1.023989	-0.493361	-0.732393
H133	H	1.057624	-0.488455	-0.761211
H134	H	1.023188	-0.431907	-0.706897
H135	H	1.029463	-0.554129	-0.706832
H136	H	0.548099	-0.387485	-0.374195
H137	H	0.803058	-0.525764	-0.860692
H138	H	0.263172	-0.387518	-0.374146
C139	C	0.819885	-0.908110	-0.218774
H140	H	0.851831	-0.863718	-0.202577
H141	H	0.782174	-0.868935	-0.222525
H142	H	0.813570	-0.966130	-0.191266
C143	C	0.786883	-0.528095	-0.732652
H144	H	0.794952	-0.526907	-0.688987
H145	H	0.760550	-0.470388	-0.743436
H146	H	0.766832	-0.592609	-0.743365
C147	C	0.135343	-0.653402	-0.217457
H148	H	0.164235	-0.693861	-0.193633
H149	H	0.109833	-0.612944	-0.190123
H150	H	0.109807	-0.699518	-0.241458
C151	C	0.676147	-0.368057	-0.385658
H152	H	0.647256	-0.327613	-0.409493
H153	H	0.701687	-0.321941	-0.361667
H154	H	0.701653	-0.408533	-0.412991
H155	H	0.832680	-0.633601	-0.658790
H156	H	1.003232	-1.102142	-0.264249
C157	C	0.820537	-1.110810	-0.217681
H158	H	0.812614	-1.051594	-0.191554
H159	H	0.783802	-1.152637	-0.220854
H160	H	0.853330	-1.152042	-0.200233
