data_functionalizedCrystal
_audit_creation_method	'MofGen! by Chris Wilmer'
_symmetry_space_group_name_H-M	'P1'
_symmetry_Int_Tables_number	1
_symmetry_cell_setting	triclinic
loop_
_symmetry_equiv_pos_as_xyz
  x,y,z
_cell_length_a	10.540535
_cell_length_b	14.519709
_cell_length_c	9.016244
_cell_angle_alpha	89.996820
_cell_angle_beta	90.004976
_cell_angle_gamma	95.898106
loop_
_atom_site_label
_atom_site_type_symbol
_atom_site_fract_x
_atom_site_fract_y
_atom_site_fract_z
O1	O	1.684570	-0.129944	0.123263
O2	O	2.184570	0.370056	0.623263
O3	O	1.315031	-0.142194	0.123284
O4	O	1.815031	0.357806	0.623284
O5	O	1.509598	-0.001883	0.123259
O6	O	2.009598	0.498117	0.623259
O7	O	1.490003	-0.270255	0.123287
O8	O	1.990003	0.229745	0.623287
O9	O	1.509570	-0.001886	-0.123421
O10	O	2.009570	0.498114	0.376579
O11	O	1.315003	-0.142197	-0.123397
O12	O	1.815003	0.357803	0.376603
O13	O	1.684541	-0.129947	-0.123418
O14	O	2.184541	0.370053	0.376582
Cu15	Cu	1.499769	-0.136072	-0.145931
Cu16	Cu	1.999769	0.363928	0.354069
Cu17	Cu	1.499803	-0.136069	0.145797
Cu18	Cu	1.999803	0.363931	0.645797
O19	O	1.489974	-0.270258	-0.123394
O20	O	1.989974	0.229742	0.376606
C21	C	1.267723	-0.141278	-0.000054
C22	C	1.767723	0.358722	0.499946
C23	C	1.126803	-0.138532	-0.000046
C24	C	1.626803	0.361468	0.499954
C25	C	1.091178	-0.036088	-0.000063
C26	C	1.591178	0.463912	0.499937
C27	C	0.944607	-0.033198	-0.000638
C28	C	1.444607	0.466802	0.499362
C29	C	0.916973	-0.185297	-0.140652
C30	C	1.416973	0.314703	0.359348
C31	C	1.063716	-0.187477	-0.140755
C32	C	1.563716	0.312523	0.359245
C33	C	1.063617	-0.188964	0.139777
C34	C	1.563617	0.311036	0.639777
C35	C	0.917320	-0.184226	0.141610
C36	C	1.417320	0.315774	0.641610
C37	C	1.508671	0.032480	-0.000081
C38	C	2.008671	0.532480	0.499919
C39	C	1.505934	0.134876	-0.000082
C40	C	2.005934	0.634876	0.499918
C41	C	1.731849	-0.130863	-0.000077
C42	C	2.231849	0.369137	0.499923
C43	C	1.872770	-0.133609	-0.000075
C44	C	2.372770	0.366391	0.499925
N45	N	1.499755	-0.136074	-0.351117
N46	N	1.999755	0.363926	0.148883
C47	C	1.490902	-0.304621	-0.000050
C48	C	1.990902	0.195379	0.499950
C49	C	1.493638	-0.407017	-0.000039
C50	C	1.993638	0.092983	0.499961
C51	C	1.495859	0.509826	-0.000043
C52	C	1.995859	1.009826	0.499957
C53	C	1.498657	0.405503	-0.000054
C54	C	1.998657	0.905503	0.499946
C55	C	1.500896	0.322354	-0.000064
C56	C	2.000896	0.822354	0.499936
C57	C	1.503695	0.218025	-0.000072
C58	C	2.003695	0.718025	0.499928
C59	C	1.395360	-0.210880	-0.586137
C60	C	1.895360	0.289120	-0.086137
C61	C	1.395586	-0.211160	-0.414246
C62	C	1.895586	0.288840	0.085754
C63	C	1.632255	-0.157964	-0.413461
C64	C	2.132255	0.342036	0.086539
C65	C	1.631684	-0.158494	-0.585406
C66	C	2.131684	0.341506	-0.085406
C67	C	1.472971	-0.039134	-0.585669
C68	C	1.972971	0.460866	-0.085669
C69	C	1.469919	-0.039763	-0.413715
C70	C	1.969919	0.460237	0.086285
N71	N	1.499828	-0.136059	0.350983
N72	N	1.999828	0.363941	0.850983
H73	H	0.868862	-0.259228	-0.145476
H74	H	1.368862	0.240772	0.354524
O75	O	1.147386	0.016054	0.133393
O76	O	1.647386	0.516054	0.633393
H77	H	1.201313	-0.030486	0.201168
H78	H	1.701313	0.469514	0.701168
H79	H	1.296567	-0.197911	-0.627526
H80	H	1.796567	0.302089	-0.127526
O81	O	1.737762	-0.089121	-0.640511
O82	O	2.237762	0.410879	-0.140511
H83	H	1.805047	-0.125219	-0.708679
H84	H	2.305047	0.374781	-0.208679
H85	H	1.135019	0.002592	-0.100733
H86	H	1.635019	0.502592	0.399267
O87	O	1.664300	-0.250575	-0.356406
O88	O	2.164300	0.249425	0.143594
H89	H	1.675779	-0.297544	-0.451505
H90	H	2.175779	0.202456	0.048495
O91	O	1.564150	0.037529	-0.356829
O92	O	2.064150	0.537529	0.143171
H93	H	1.559334	0.039803	-0.233925
H94	H	2.059334	0.539803	0.266075
O95	O	1.418331	-0.306408	-0.359712
O96	O	1.918331	0.193592	0.140288
H97	H	1.429224	-0.352446	-0.456153
H98	H	1.929224	0.147554	0.043847
O99	O	1.091970	-0.288807	0.141624
O100	O	1.591970	0.211193	0.641624
H101	H	1.196725	-0.291703	0.145888
H102	H	1.696725	0.208297	0.645888
O103	O	0.851383	-0.281306	0.153432
O104	O	1.351383	0.218694	0.653432
H105	H	0.884978	-0.315021	0.254563
H106	H	1.384978	0.184979	0.754563
O107	O	1.340812	-0.017773	-0.359753
O108	O	1.840812	0.482227	0.140247
H109	H	1.277783	-0.009435	-0.456413
H110	H	1.777783	0.490565	0.043587
H111	H	1.711851	-0.104957	-0.372566
H112	H	2.211851	0.395043	0.127434
O113	O	1.265133	-0.193733	-0.358396
O114	O	1.765133	0.306267	0.141604
H115	H	1.201313	-0.185032	-0.454201
H116	H	1.701313	0.314968	0.045799
H117	H	0.889113	-0.146611	0.245611
H118	H	1.389113	0.353389	0.745611
O119	O	1.093216	-0.286952	-0.148690
O120	O	1.593216	0.213048	0.351310
H121	H	1.149763	-0.297119	-0.250144
H122	H	1.649763	0.202881	0.249856
H123	H	1.106415	-0.156996	0.246367
H124	H	1.606415	0.343004	0.746367
H125	H	1.412297	-0.282382	-0.629324
H126	H	1.912297	0.217618	-0.129324
O127	O	1.662991	-0.252158	-0.638516
O128	O	2.162991	0.247842	-0.138516
H129	H	1.590388	-0.306535	-0.595975
H130	H	2.090388	0.193465	-0.095975
H131	H	0.886421	-0.149838	-0.245680
H132	H	1.386421	0.350162	0.254320
H133	H	1.378446	-0.018300	-0.629114
H134	H	1.878446	0.481700	-0.129114
O135	O	1.573862	0.034641	-0.639538
O136	O	2.073862	0.534641	-0.139538
H137	H	1.642809	0.002493	-0.711082
H138	H	2.142809	0.502493	-0.211082
H139	H	0.916553	0.007024	-0.102013
H140	H	1.416553	0.507024	0.397987
O141	O	0.906313	0.020369	0.132797
O142	O	1.406313	0.520369	0.632797
H143	H	0.935134	-0.014103	0.235532
H144	H	1.435134	0.485897	0.735532
O145	O	1.117400	-0.141247	-0.280491
O146	O	1.617400	0.358753	0.219509
H147	H	1.038514	-0.117543	-0.347352
H148	H	1.538514	0.382457	0.152648
