data_functionalizedCrystal
_audit_creation_method	'MofGen! by Chris Wilmer'
_symmetry_space_group_name_H-M	'P1'
_symmetry_Int_Tables_number	1
_symmetry_cell_setting	triclinic
loop_
_symmetry_equiv_pos_as_xyz
  x,y,z
_cell_length_a	18.050588
_cell_length_b	18.050591
_cell_length_c	18.050582
_cell_angle_alpha	89.980240
_cell_angle_beta	89.978848
_cell_angle_gamma	90.026009
loop_
_atom_site_label
_atom_site_type_symbol
_atom_site_fract_x
_atom_site_fract_y
_atom_site_fract_z
Zn1	Zn	-0.295777	1.135286	-0.420016
Zn2	Zn	-0.419960	1.135193	-0.295829
Zn3	Zn	-0.295781	1.011105	-0.295829
Zn4	Zn	-0.419922	1.011050	-0.419967
O5	O	-0.357860	1.073158	-0.357910
O6	O	-0.312265	1.239198	-0.403562
O7	O	-0.403505	1.118717	-0.191904
O8	O	-0.191856	1.027639	-0.312324
O9	O	-0.403502	1.239130	-0.312323
O10	O	-0.191853	1.118874	-0.403563
O11	O	-0.312271	1.027550	-0.191905
O12	O	-0.312234	0.907173	-0.312276
O13	O	-0.403436	1.027546	-0.523898
O14	O	-0.403440	0.907133	-0.403479
O15	O	-0.312227	1.118821	-0.523934
O16	O	-0.523880	1.118664	-0.312275
O17	O	-0.523852	1.027456	-0.403479
C18	C	-0.357834	0.880206	-0.357873
C19	C	-0.357841	0.797661	-0.357875
C20	C	-0.308192	0.548835	-0.308396
C21	C	-0.290110	0.598268	-0.376171
C22	C	-0.357879	0.500540	-0.357936
C23	C	-0.375906	0.598189	-0.290134
C24	C	-0.357858	0.646525	-0.357902
C25	C	-0.339763	0.548885	-0.425747
C26	C	-0.425589	0.548803	-0.339664
C27	C	-0.407534	0.598213	-0.407486
C28	C	-0.357888	0.416442	-0.357954
C29	C	-0.357848	0.730622	-0.357891
C30	C	-0.550812	1.073064	-0.357888
C31	C	-0.633358	1.073092	-0.357903
C32	C	-0.882195	1.023571	-0.407500
C33	C	-0.832731	1.091288	-0.425730
C34	C	-0.930478	1.073246	-0.357945
C35	C	-0.832861	1.005457	-0.339729
C36	C	-0.784493	1.073167	-0.357926
C37	C	-0.882101	1.140999	-0.376210
C38	C	-0.882236	1.055123	-0.290177
C39	C	-0.832794	1.122886	-0.308382
C40	C	-1.014577	1.073291	-0.357957
C41	C	-0.700397	1.073130	-0.357913
C42	C	-0.164154	1.073273	-0.357949
C43	C	-0.081609	1.073322	-0.357965
C44	C	-0.357887	1.266864	-0.357948
C45	C	-0.357898	1.349410	-0.357964
C46	C	-0.357827	1.073188	-0.551616
C47	C	-0.357813	1.073200	-0.634162
C48	C	-0.407345	1.023602	-0.833593
C49	C	-0.425502	1.091357	-0.882990
C50	C	-0.357756	1.073237	-0.785292
C51	C	-0.339578	1.005519	-0.882976
C52	C	-0.357703	1.073266	-0.931277
C53	C	-0.375950	1.141027	-0.833602
C54	C	-0.289994	1.055143	-0.833584
C55	C	-0.308126	1.122945	-0.882959
C56	C	-0.357789	1.073219	-0.701194
C57	C	-0.357670	1.073292	-1.015374
C58	C	-0.357839	1.073172	-0.164958
C59	C	-0.357644	1.073304	-0.082413
H60	H	-0.449544	0.619756	-0.449415
H61	H	-0.391162	0.619849	-0.232809
H62	H	-0.232728	1.039802	-0.811866
H63	H	-0.449335	0.981668	-0.811918
H64	H	-0.266168	1.164980	-0.904498
C65	C	-0.319057	0.519751	-0.503213
N66	N	-0.303458	0.497805	-0.561557
H67	H	-0.811228	0.948163	-0.324331
H68	H	-0.482844	0.527060	-0.324199
H69	H	-0.903884	0.981648	-0.449447
H70	H	-0.391368	1.198324	-0.812005
H71	H	-0.482785	1.106679	-0.904692
H72	H	-0.324225	0.948239	-0.904665
C73	C	-0.803359	1.111960	-0.503142
N74	N	-0.781241	1.127528	-0.561451
C75	C	-0.251396	0.519539	-0.251892
N76	N	-0.208616	0.497471	-0.209338
H77	H	-0.903996	1.039803	-0.232893
H78	H	-0.232837	0.619982	-0.391625
H79	H	-0.903642	1.198310	-0.391675
H80	H	-0.811240	1.164909	-0.266466
