data_functionalizedCrystal
_audit_creation_method	'MofGen! by Chris Wilmer'
_symmetry_space_group_name_H-M	'P1'
_symmetry_Int_Tables_number	1
_symmetry_cell_setting	triclinic
loop_
_symmetry_equiv_pos_as_xyz
  x,y,z
_cell_length_a	14.044220
_cell_length_b	19.188930
_cell_length_c	13.101039
_cell_angle_alpha	93.345801
_cell_angle_beta	86.340132
_cell_angle_gamma	88.166830
loop_
_atom_site_label
_atom_site_type_symbol
_atom_site_fract_x
_atom_site_fract_y
_atom_site_fract_z
O1	O	1.262233	0.164759	-0.085127
O2	O	0.986290	0.158685	-0.085152
O3	O	1.132223	0.060581	-0.085119
O4	O	1.116300	0.262863	-0.085160
O5	O	1.121753	0.067633	0.085309
O6	O	0.975820	0.165737	0.085275
O7	O	1.251762	0.171810	0.085300
Zn8	Zn	1.112128	0.169893	0.112347
Zn9	Zn	1.125924	0.160602	-0.112199
O10	O	1.105829	0.269914	0.085267
C11	C	0.945752	0.159553	0.000059
C12	C	0.840559	0.151623	0.000050
C13	C	0.647957	0.137129	0.000073
C14	C	0.590091	0.193363	0.000066
C15	C	0.482920	0.185298	0.000079
C16	C	0.755137	0.145193	0.000060
C17	C	1.126472	0.038063	0.000098
C18	C	1.124923	-0.039541	0.000106
C19	C	1.210553	-0.078939	0.000119
C20	C	1.209099	-0.151857	0.000103
C21	C	1.122010	-0.185374	0.000094
C22	C	1.036370	-0.145968	0.000075
C23	C	1.037827	-0.073051	0.000082
N24	N	1.051878	-0.295275	0.058088
N25	N	1.050500	-0.364543	0.058084
C26	C	1.117617	-0.405067	0.000073
N27	N	1.186177	-0.373707	-0.057921
N28	N	1.187558	-0.304433	-0.057913
C29	C	1.120421	-0.264440	0.000086
C30	C	1.201676	-0.523532	0.000066
C31	C	1.200219	-0.596452	0.000043
C32	C	1.027487	-0.590560	0.000026
C33	C	1.028947	-0.517642	0.000039
C34	C	1.116043	-0.484132	0.000064
C35	C	1.292301	0.170943	0.000087
C36	C	1.397494	0.178872	0.000089
C37	C	1.111580	0.292433	0.000048
C38	C	1.113129	0.370037	0.000033
N39	N	1.102720	0.176234	0.265593
N40	N	1.135340	0.154257	-0.265445
C41	C	1.089920	0.184867	0.474633
C42	C	1.148137	0.145626	0.525522
C43	C	1.141014	0.150429	0.641839
C44	C	1.097041	0.180064	0.358306
H45	H	0.617011	0.082932	0.000090
H46	H	1.281474	-0.051660	0.000136
H47	H	1.278831	-0.183941	0.000109
C48	C	0.957443	-0.255128	0.000074
C49	C	0.940640	-0.182807	0.000070
H50	H	0.898339	-0.277868	0.000074
H51	H	0.996334	-0.270736	-0.059350
H52	H	0.989038	-0.265827	0.059514
H53	H	0.909051	-0.172107	-0.059374
H54	H	0.901733	-0.167193	0.059501
C55	C	0.944643	0.008751	-0.087534
C56	C	0.943695	-0.029742	0.000072
H57	H	0.886526	0.035485	-0.087540
H58	H	0.996711	0.039143	-0.087514
H59	H	0.951318	-0.022274	-0.146963
H60	H	0.937027	0.001284	0.059501
H61	H	0.891611	-0.060137	0.000061
H62	H	1.034735	0.222068	0.518417
C63	C	1.372268	-0.536677	0.000057
C64	C	1.297411	-0.486693	0.000068
H65	H	1.431370	-0.513935	0.000049
H66	H	1.364465	-0.562542	0.059483
H67	H	1.371743	-0.567448	-0.059381
H68	H	1.297931	-0.455926	0.059510
H69	H	1.305216	-0.460817	-0.059364
H70	H	1.269952	-0.628529	0.000048
H71	H	0.956578	-0.617849	0.000014
H72	H	0.959218	-0.485564	0.000034
C73	C	1.175898	0.046844	0.405006
C74	C	1.222534	0.095251	0.466542
H75	H	1.221796	0.015705	0.368626
H76	H	1.133860	0.021166	0.446954
H77	H	1.140423	0.070833	0.357693
H78	H	1.258004	0.071263	0.513861
H79	H	1.264589	0.120932	0.424591
C80	C	0.731487	0.260465	-0.000016
C81	C	0.631863	0.266533	0.000009
H82	H	0.757277	0.305635	-0.000067
H83	H	0.748742	0.238306	0.059427
H84	H	0.756005	0.233348	-0.059437
H85	H	0.607344	0.293646	0.059435
H86	H	0.614600	0.288702	-0.059440
