data_functionalizedCrystal
_audit_creation_method	'MofGen! by Chris Wilmer'
_symmetry_space_group_name_H-M	'P1'
_symmetry_Int_Tables_number	1
_symmetry_cell_setting	triclinic
loop_
_symmetry_equiv_pos_as_xyz
  x,y,z
_cell_length_a	14.971486
_cell_length_b	16.992695
_cell_length_c	14.048226
_cell_angle_alpha	89.993436
_cell_angle_beta	89.998499
_cell_angle_gamma	87.141176
loop_
_atom_site_label
_atom_site_type_symbol
_atom_site_fract_x
_atom_site_fract_y
_atom_site_fract_z
O1	O	1.194127	0.102190	-0.079052
O2	O	1.694127	0.602190	0.420948
O3	O	0.934587	0.114427	-0.079078
O4	O	1.434587	0.614427	0.420922
O5	O	1.063316	-0.005835	-0.079057
O6	O	1.563316	0.494165	0.420943
O7	O	1.065397	0.222452	-0.079072
O8	O	1.565397	0.722452	0.420928
O9	O	1.063299	-0.005842	0.079264
O10	O	1.563299	0.494158	0.579264
O11	O	0.934570	0.114420	0.079244
O12	O	1.434570	0.614420	0.579244
O13	O	1.194110	0.102183	0.079270
O14	O	1.694110	0.602183	0.579270
Zn15	Zn	1.064337	0.108300	0.104394
Zn16	Zn	1.564337	0.608300	0.604394
Zn17	Zn	1.064359	0.108310	-0.104201
Zn18	Zn	1.564359	0.608310	0.395799
O19	O	1.065380	0.222445	0.079249
O20	O	1.565380	0.722445	0.579249
C21	C	0.901215	0.113876	0.000080
C22	C	1.401215	0.613876	0.500080
C23	C	0.801803	0.112236	0.000070
C24	C	1.301803	0.612236	0.500070
C25	C	0.749541	0.182887	0.000067
C26	C	1.249541	0.682887	0.500067
C27	C	0.656133	0.181341	0.000081
C28	C	1.156133	0.681341	0.500081
C29	C	0.614988	0.109144	0.000092
C30	C	1.114988	0.609144	0.500092
C31	C	0.667257	0.038488	0.000098
C32	C	1.167257	0.538488	0.500098
C33	C	0.760663	0.040034	0.000091
C34	C	1.260663	0.540034	0.500091
C35	C	0.472568	0.035269	0.000111
C36	C	0.972568	0.535269	0.500111
C37	C	0.379155	0.033723	0.000117
C38	C	0.879155	0.533723	0.500117
C39	C	0.368038	0.176577	0.000102
C40	C	0.868038	0.676577	0.500102
C41	C	0.461445	0.178123	0.000094
C42	C	0.961445	0.678123	0.500094
C43	C	0.513707	0.107466	0.000099
C44	C	1.013707	0.607466	0.500099
C45	C	1.060631	-0.035054	0.000103
C46	C	1.560631	0.464946	0.500103
C47	C	1.052644	-0.122105	0.000102
C48	C	1.552644	0.377895	0.500102
C49	C	1.129708	-0.172274	0.000111
C50	C	1.629708	0.327726	0.500111
C51	C	1.122198	-0.254067	0.000101
C52	C	1.622198	0.245933	0.500101
C53	C	1.037623	-0.285691	0.000089
C54	C	1.537623	0.214309	0.500089
C55	C	0.960553	-0.235517	0.000078
C56	C	1.460553	0.264483	0.500078
C57	C	0.968064	-0.153724	0.000081
C58	C	1.468064	0.346276	0.500081
C59	C	1.006493	-0.529318	0.000073
C60	C	1.506493	-0.029318	0.500073
C61	C	0.998988	-0.611117	0.000073
C62	C	1.498988	-0.111117	0.500073
C63	C	1.160634	-0.629662	0.000094
C64	C	1.660634	-0.129662	0.500094
C65	C	1.168138	-0.547867	0.000103
C66	C	1.668138	-0.047867	0.500103
C67	C	1.091068	-0.497700	0.000087
C68	C	1.591068	0.002300	0.500087
N69	N	1.029945	-0.369297	0.000082
N70	N	1.529945	0.130703	0.500082
N71	N	1.098747	-0.414095	0.000087
N72	N	1.598747	0.085905	0.500087
C73	C	1.227482	0.102733	0.000110
C74	C	1.727482	0.602733	0.500110
C75	C	1.326894	0.104373	0.000114
C76	C	1.826894	0.604373	0.500114
C77	C	1.068066	0.251664	0.000087
C78	C	1.568066	0.751664	0.500087
C79	C	1.076053	0.338715	0.000082
C80	C	1.576053	0.838715	0.500082
N81	N	1.064328	0.108293	0.246754
N82	N	1.564328	0.608293	0.746754
N83	N	1.064375	0.108310	-0.246562
N84	N	1.564375	0.608310	0.253438
C85	C	1.121350	0.055063	0.296581
C86	C	1.621350	0.555063	0.796581
C87	C	1.121356	0.055063	0.396239
C88	C	1.621356	0.555063	0.896239
C89	C	1.064344	0.108297	0.446068
C90	C	1.564344	0.608297	0.946068
C91	C	1.007316	0.161529	0.396234
C92	C	1.507316	0.661529	0.896234
C93	C	1.007306	0.161526	0.296578
C94	C	1.507306	0.661526	0.796578
C95	C	1.007342	0.161535	0.603948
C96	C	1.507342	0.661535	1.103948
C97	C	1.007353	0.161540	0.703611
C98	C	1.507353	0.661540	1.203611
C99	C	1.121393	0.055072	0.703609
C100	C	1.621393	0.555072	1.203609
C101	C	1.121383	0.055068	0.603953
C102	C	1.621383	0.555068	1.103953
C103	C	1.064355	0.108302	0.554126
C104	C	1.564355	0.608302	1.054126
H105	H	0.633749	-0.020297	0.000120
H106	H	1.133749	0.479703	0.500120
C107	C	1.206967	-0.309253	0.000101
C108	C	1.706967	0.190747	0.500101
H109	H	1.190383	-0.362494	0.000082
H110	H	1.690383	0.137506	0.500082
H111	H	1.241404	-0.299671	0.055313
H112	H	1.741404	0.200329	0.555313
H113	H	1.241405	-0.299645	-0.055114
H114	H	1.741405	0.200355	0.444886
H115	H	1.167826	0.011728	0.744184
H116	H	1.667826	0.511728	1.244184
H117	H	0.325482	0.234108	0.000103
H118	H	0.825482	0.734108	0.500103
C119	C	0.921722	-0.474141	0.000054
C120	C	1.421722	0.025859	0.500054
H121	H	0.938302	-0.420898	0.000045
H122	H	1.438302	0.079102	0.500045
H123	H	0.887272	-0.483738	0.055258
H124	H	1.387272	0.016262	0.555258
H125	H	0.887298	-0.483736	-0.055170
H126	H	1.387298	0.016264	0.444830
C127	C	0.506703	0.257538	0.000085
C128	C	1.006703	0.757538	0.500085
H129	H	0.462202	0.299397	0.000093
H130	H	0.962202	0.799397	0.500093
H131	H	0.542910	0.261112	-0.055126
H132	H	1.042910	0.761112	0.444874
H133	H	0.542910	0.261103	0.055301
H134	H	1.042910	0.761103	0.555301
C135	C	0.818150	-0.037681	0.000085
C136	C	1.318150	0.462319	0.500085
H137	H	0.780270	-0.080902	0.000082
H138	H	1.280270	0.419098	0.500082
H139	H	0.854824	-0.040053	0.055290
H140	H	1.354824	0.459947	0.555290
H141	H	0.854814	-0.040042	-0.055137
H142	H	1.354814	0.459958	0.444863
C143	C	0.333892	-0.045690	0.000142
C144	C	0.833892	0.454310	0.500142
H145	H	0.270778	-0.036489	0.000137
H146	H	0.770778	0.463511	0.500137
H147	H	0.351485	-0.074781	0.055359
H148	H	0.851485	0.425219	0.555359
H149	H	0.351480	-0.074790	-0.055069
H150	H	0.851480	0.425210	0.444931
C151	C	0.944581	0.220046	0.758421
C152	C	1.444581	0.720046	1.258421
H153	H	0.910590	0.251728	0.714475
H154	H	1.410590	0.751728	1.214475
H155	H	0.979038	0.252758	0.797316
H156	H	1.479038	0.752758	1.297316
H157	H	0.905356	0.191727	0.797277
H158	H	1.405356	0.691727	1.297277
C159	C	0.530054	-0.042451	0.000105
C160	C	1.030054	0.457549	0.500105
H161	H	0.492174	-0.085671	0.000099
H162	H	0.992174	0.414329	0.500099
H163	H	0.566731	-0.044827	0.055308
H164	H	1.066731	0.455173	0.555308
H165	H	0.566714	-0.044807	-0.055119
H166	H	1.066714	0.455193	0.444881
C167	C	0.944617	0.220095	0.549140
C168	C	1.444617	0.720095	1.049140
H169	H	0.910671	0.251806	0.593087
H170	H	1.410671	0.751806	1.093087
H171	H	0.905362	0.191835	0.510272
H172	H	1.405362	0.691835	1.010272
H173	H	0.979132	0.252784	0.510257
H174	H	1.479132	0.752784	1.010257
H175	H	1.198578	-0.146533	0.000126
H176	H	1.698578	0.353467	0.500126
C177	C	1.261170	-0.513087	0.000104
C178	C	1.761170	-0.013087	0.500104
H179	H	1.305993	-0.554681	0.000097
H180	H	1.805993	-0.054681	0.500097
H181	H	1.267458	-0.481569	0.055312
H182	H	1.767458	0.018431	0.555312
H183	H	1.267460	-0.481562	-0.055115
H184	H	1.767460	0.018438	0.444885
C185	C	1.245403	-0.684846	0.000099
C186	C	1.745403	-0.184846	0.500099
H187	H	1.228821	-0.738088	0.000087
H188	H	1.728821	-0.238088	0.500087
H189	H	1.279841	-0.675260	0.055310
H190	H	1.779841	-0.175260	0.555310
H191	H	1.279842	-0.675243	-0.055117
H192	H	1.779842	-0.175243	0.444883
H193	H	0.930114	-0.636861	0.000079
H194	H	1.430114	-0.136861	0.500079
C195	C	0.867522	-0.270301	0.000068
C196	C	1.367522	0.229699	0.500068
H197	H	0.874085	-0.326198	0.000078
H198	H	1.374085	0.173802	0.500078
H199	H	0.835548	-0.253081	-0.055144
H200	H	1.335548	0.246919	0.444856
H201	H	0.835543	-0.253089	0.055283
H202	H	1.335543	0.246911	0.555283
H203	H	0.905310	-0.112878	0.000073
H204	H	1.405310	0.387122	0.500073
C205	C	0.944585	0.220082	0.241768
C206	C	1.444585	0.720082	0.741768
H207	H	0.910638	0.251792	0.285715
H208	H	1.410638	0.751792	0.785715
H209	H	0.905332	0.191818	0.202903
H210	H	1.405332	0.691818	0.702903
H211	H	0.979096	0.252772	0.202882
H212	H	1.479096	0.752772	0.702882
H213	H	0.783034	0.241679	0.000057
H214	H	1.283034	0.741679	0.500057
H215	H	1.167780	0.011717	0.256017
H216	H	1.667780	0.511717	0.756017
H217	H	1.167788	0.011718	0.436808
H218	H	1.667788	0.511718	0.936808
C219	C	1.184094	-0.003488	0.549143
C220	C	1.684094	0.496512	1.049143
H221	H	1.218052	-0.035197	0.593089
H222	H	1.718052	0.464803	1.093089
H223	H	1.223337	0.024773	0.510253
H224	H	1.723337	0.524773	1.010253
H225	H	1.149571	-0.036180	0.510282
H226	H	1.649571	0.463820	1.010282
H227	H	0.613586	0.238873	0.000077
H228	H	1.113586	0.738873	0.500077
H229	H	0.960891	0.204871	0.436810
H230	H	1.460891	0.704871	0.936810
