data_functionalizedCrystal
_audit_creation_method	'MofGen! by Chris Wilmer'
_symmetry_space_group_name_H-M	'P1'
_symmetry_Int_Tables_number	1
_symmetry_cell_setting	triclinic
loop_
_symmetry_equiv_pos_as_xyz
  x,y,z
_cell_length_a	17.639617
_cell_length_b	19.121747
_cell_length_c	17.640968
_cell_angle_alpha	99.308065
_cell_angle_beta	109.666032
_cell_angle_gamma	99.295293
loop_
_atom_site_label
_atom_site_type_symbol
_atom_site_fract_x
_atom_site_fract_y
_atom_site_fract_z
Zn1	Zn	1.348930	0.090932	0.715776
Zn2	Zn	1.329609	-0.053187	0.586599
Zn3	Zn	1.186715	0.032671	0.553550
Zn4	Zn	1.219694	-0.053120	0.696478
O5	O	1.271237	0.004324	0.638101
O6	O	1.460254	0.096169	0.720548
O7	O	1.288766	-0.066208	0.468339
O8	O	1.202517	0.136617	0.569315
O9	O	1.446059	-0.009715	0.625642
O10	O	1.321696	0.179421	0.688502
O11	O	1.183782	-0.003129	0.444058
O12	O	1.077203	-0.003064	0.550603
O13	O	1.258725	-0.009601	0.812914
O14	O	1.101432	-0.066094	0.655611
O15	O	1.353674	0.096234	0.827093
O16	O	1.320744	-0.149396	0.606929
O17	O	1.239990	-0.149347	0.687657
C18	C	1.059788	-0.040894	0.597427
C19	C	0.969334	-0.060251	0.580047
C20	C	0.708859	0.151435	0.770338
C21	C	0.623862	0.133225	0.753991
C22	C	0.609065	0.023082	0.655007
C23	C	0.694063	0.041281	0.671348
C24	C	0.743954	0.105458	0.729014
C25	C	0.729158	-0.004695	0.630024
C26	C	0.814149	0.013504	0.646361
C27	C	0.864044	0.077679	0.704023
C28	C	0.828945	0.123658	0.745351
C29	C	0.679265	-0.068870	0.572355
C30	C	0.714360	-0.114846	0.531031
C31	C	0.799353	-0.096650	0.547372
C32	C	0.849248	-0.032474	0.605033
C33	C	0.834452	-0.142628	0.506044
C34	C	0.919443	-0.124429	0.522381
C35	C	0.934239	-0.014275	0.621370
C36	C	1.281875	-0.174311	0.648807
C37	C	1.286505	-0.250711	0.653429
C38	C	1.315873	-0.681670	0.682712
C39	C	1.311512	-0.609889	0.678360
C40	C	1.247317	-0.596349	0.614104
C41	C	1.187483	-0.654595	0.554190
C42	C	1.191848	-0.726375	0.558539
C43	C	1.231037	-0.380737	0.597864
C44	C	1.226675	-0.308950	0.593521
C45	C	1.350705	-0.264249	0.717691
C46	C	1.355062	-0.336032	0.722037
C47	C	1.295231	-0.394273	0.662121
C48	C	1.242856	-0.522977	0.609656
C49	C	1.299696	-0.467643	0.666566
C50	C	1.483512	0.049718	0.678934
C51	C	1.573970	0.069063	0.696335
C52	C	1.312034	0.049823	0.850356
C53	C	1.329419	0.069212	0.940807
C54	C	1.260583	0.183665	0.627375
C55	C	1.256043	0.260090	0.622804
C56	C	1.230643	-0.040939	0.426677
C57	C	1.213404	-0.060100	0.336246
C58	C	1.139453	-0.142531	1.201384
C59	C	1.155806	-0.124300	1.286379
C60	C	1.254668	-0.014104	1.301131
C61	C	1.238321	-0.032324	1.216135
C62	C	1.180713	-0.096539	1.166268
C63	C	1.279581	0.013668	1.181019
C64	C	1.263238	-0.004553	1.096031
C65	C	1.205635	-0.068766	1.046159
C66	C	1.164370	-0.114760	1.081280
C67	C	1.337192	0.077880	1.230889
C68	C	1.378452	0.123872	1.195773
C69	C	1.362105	0.105654	1.110782
C70	C	1.304502	0.041441	1.060910
C71	C	1.403369	0.151648	1.075662
C72	C	1.387026	0.133427	0.990674
C73	C	1.288159	0.023220	0.975923
H74	H	0.595291	0.170672	0.787642
H75	H	1.241229	-0.029058	0.935313
O76	O	1.415246	-0.201435	0.782303
H77	H	1.384762	-0.167669	0.814686
O78	O	0.955712	0.097316	0.721634
H79	H	0.984504	0.149670	0.768666
H80	H	0.673727	-0.167098	0.484077
O81	O	1.424306	-0.350630	0.791343
H82	H	1.417285	-0.410328	0.784306
H83	H	1.192333	-0.083602	0.976958
H84	H	1.092523	-0.194809	1.160774
O85	O	0.762678	0.220653	0.832539
H86	H	0.792314	0.256173	0.801524
O87	O	0.780638	-0.211842	0.443843
H88	H	0.715643	-0.216773	0.439425
O89	O	0.957306	-0.174016	0.477818
H90	H	0.908337	-0.221704	0.434982
H91	H	1.117440	-0.167038	1.040670
O92	O	1.354814	0.097536	1.322554
H93	H	1.421330	0.101562	1.357600
H94	H	1.425358	0.176154	1.236386
H95	H	1.174395	-0.297933	0.541193
H96	H	1.368142	-0.692687	0.735043
O97	O	1.111296	-0.173905	1.324256
H98	H	1.068490	-0.221614	1.275298
O99	O	1.376061	-0.547070	0.742956
H100	H	1.421434	-0.568545	0.788367
H101	H	0.869570	0.175916	0.792311
O102	O	0.555254	-0.046136	0.592811
H103	H	0.490258	-0.051070	0.588394
O104	O	1.166503	-0.443549	0.533249
H105	H	1.121127	-0.422071	0.487845
H106	H	0.610056	-0.083674	0.559036
O107	O	1.118241	-0.639998	0.484882
H108	H	1.125251	-0.580300	0.491926
H109	H	1.143128	-0.773796	0.509756
H110	H	0.974864	0.037983	0.668331
O111	O	1.368936	-0.482242	0.735870
H112	H	1.366363	-0.457760	0.796197
O113	O	1.316777	0.055169	1.354911
H114	H	1.321199	0.060121	1.419906
H115	H	1.450279	0.203928	1.116277
H116	H	1.190585	-0.511947	0.557338
H117	H	1.420623	0.170879	0.962082
