data_functionalizedCrystal
_audit_creation_method	'MofGen! by Chris Wilmer'
_symmetry_space_group_name_H-M	'P1'
_symmetry_Int_Tables_number	1
_symmetry_cell_setting	triclinic
loop_
_symmetry_equiv_pos_as_xyz
  x,y,z
_cell_length_a	19.077105
_cell_length_b	29.839131
_cell_length_c	19.077569
_cell_angle_alpha	87.673679
_cell_angle_beta	85.299277
_cell_angle_gamma	87.737628
loop_
_atom_site_label
_atom_site_type_symbol
_atom_site_fract_x
_atom_site_fract_y
_atom_site_fract_z
Zn1	Zn	1.093625	-0.195626	-0.441828
Zn2	Zn	1.593625	0.304374	0.058172
Zn3	Zn	1.088771	-0.273652	-0.323930
Zn4	Zn	1.588771	0.226348	0.176070
Zn5	Zn	0.971007	-0.195633	-0.319224
Zn6	Zn	1.471007	0.304367	0.180776
Zn7	Zn	0.975670	-0.267822	-0.437050
Zn8	Zn	1.475670	0.232178	0.062950
O9	O	1.032268	-0.233183	-0.380508
O10	O	1.532268	0.266817	0.119492
O11	O	1.191630	-0.208413	-0.430158
O12	O	1.691630	0.291587	0.069842
O13	O	1.069167	-0.265745	-0.224654
O14	O	1.569167	0.234255	0.275346
O15	O	0.987353	-0.132766	-0.335518
O16	O	1.487353	0.367234	0.164482
O17	O	1.188064	-0.265739	-0.343538
O18	O	1.688064	0.234261	0.156462
O19	O	1.077440	-0.132761	-0.425595
O20	O	1.577440	0.367239	0.074405
O21	O	0.982646	-0.208424	-0.221196
O22	O	1.482646	0.291576	0.278804
O23	O	0.872977	-0.202772	-0.330885
O24	O	1.372977	0.297228	0.169115
O25	O	0.995300	-0.255803	-0.536336
O26	O	1.495300	0.244197	-0.036336
O27	O	0.876403	-0.255809	-0.417451
O28	O	1.376403	0.244191	0.082549
O29	O	1.081961	-0.202761	-0.539846
O30	O	1.581961	0.297239	-0.039846
O31	O	1.073688	-0.335745	-0.338905
O32	O	1.573688	0.164255	0.161095
O33	O	0.990593	-0.331462	-0.422014
O34	O	1.490593	0.168538	0.077986
C35	C	0.849111	-0.228659	-0.373139
C36	C	1.349111	0.271341	0.126861
C37	C	0.770756	-0.226734	-0.370003
C38	C	1.270756	0.273266	0.129997
C39	C	1.032140	-0.349904	-0.380468
C40	C	1.532140	0.150096	0.119532
C41	C	1.032150	-0.399838	-0.380477
C42	C	1.532150	0.100162	0.119523
C43	C	0.735744	-0.253488	-0.413530
C44	C	1.235744	0.246512	0.086470
C45	C	0.662122	-0.251674	-0.410587
C46	C	1.162122	0.248326	0.089413
C47	C	0.623512	-0.223106	-0.364113
C48	C	1.123512	0.276894	0.135887
C49	C	0.658529	-0.196349	-0.320585
C50	C	1.158529	0.303651	0.179415
C51	C	0.732151	-0.198162	-0.323532
C52	C	1.232151	0.301838	0.176468
C53	C	0.403135	-0.214716	-0.350478
C54	C	0.903135	0.285284	0.149522
C55	C	0.329509	-0.212907	-0.347532
C56	C	0.829509	0.287093	0.152468
C57	C	0.333106	-0.268231	-0.437535
C58	C	0.833106	0.231769	0.062465
C59	C	0.406728	-0.270043	-0.440475
C60	C	0.906728	0.229957	0.059525
C61	C	0.441739	-0.243284	-0.396950
C62	C	0.941739	0.256716	0.103050
N63	N	0.548258	-0.221252	-0.361103
N64	N	1.048258	0.278748	0.138897
N65	N	0.516992	-0.245137	-0.399965
N66	N	1.016992	0.254863	0.100035
C67	C	1.075620	-0.711701	-0.337302
C68	C	1.575620	-0.211701	0.162698
C69	C	1.075709	-0.899376	-0.337333
C70	C	1.575709	-0.399376	0.162667
O71	O	1.112566	-0.925527	-0.300594
O72	O	1.612566	-0.425527	0.199406
N73	N	1.032417	-0.920628	-0.380567
N74	N	1.532417	-0.420628	0.119433
C75	C	0.989103	-0.894957	-0.423800
C76	C	1.489103	-0.394957	0.076200
O77	O	0.952288	-0.917340	-0.460579
O78	O	1.452288	-0.417340	0.039421
C79	C	0.989019	-0.707284	-0.423772
C80	C	1.489019	-0.207284	0.076228
C81	C	1.032309	-0.686035	-0.380530
C82	C	1.532309	-0.186035	0.119470
C83	C	1.118907	-0.690452	-0.294064
C84	C	1.618907	-0.190452	0.205936
C85	C	1.118882	-0.643536	-0.294054
C86	C	1.618882	-0.143536	0.205946
C87	C	1.075570	-0.617870	-0.337282
C88	C	1.575570	-0.117870	0.162718
C89	C	1.032283	-0.639119	-0.380520
C90	C	1.532283	-0.139119	0.119480
C91	C	0.945710	-0.681615	-0.467008
C92	C	1.445710	-0.181615	0.032992
C93	C	0.945694	-0.634693	-0.466998
C94	C	1.445694	-0.134693	0.033002
C95	C	0.988984	-0.613444	-0.423757
C96	C	1.488984	-0.113444	0.076243
C97	C	0.988946	-0.566537	-0.423738
C98	C	1.488946	-0.066537	0.076262
N99	N	1.032238	-0.545285	-0.380504
N100	N	1.532238	-0.045285	0.119496
C101	C	1.075550	-0.570952	-0.337276
C102	C	1.575550	-0.070952	0.162724
C103	C	0.989149	-0.993489	-0.423810
C104	C	1.489149	-0.493489	0.076190
C105	C	0.989169	-1.040407	-0.423816
C106	C	1.489169	-0.540407	0.076184
C107	C	1.075776	-1.044822	-0.337351
C108	C	1.575776	-0.544822	0.162649
C109	C	1.075752	-0.997903	-0.337341
C110	C	1.575752	-0.497903	0.162659
C111	C	1.032441	-0.972237	-0.380576
C112	C	1.532441	-0.472237	0.119424
C113	C	1.075493	-0.472425	-0.337258
C114	C	1.575493	0.027575	0.162742
C115	C	1.075462	-0.425505	-0.337249
C116	C	1.575462	0.074495	0.162751
C117	C	0.988858	-0.421093	-0.423717
C118	C	1.488858	0.078907	0.076283
C119	C	0.988887	-0.468010	-0.423723
C120	C	1.488887	0.031990	0.076277
C121	C	1.032210	-0.493674	-0.380491
C122	C	1.532210	0.006326	0.119509
O123	O	0.952114	-0.540358	-0.460464
O124	O	1.452114	-0.040358	0.039536
O125	O	1.112371	-0.548561	-0.300514
O126	O	1.612371	-0.048561	0.199486
C127	C	1.075646	-0.758617	-0.337312
C128	C	1.575646	-0.258617	0.162688
C129	C	1.032359	-0.779867	-0.380550
C130	C	1.532359	-0.279867	0.119450
C131	C	0.989047	-0.754200	-0.423778
C132	C	1.489047	-0.254200	0.076222
C133	C	1.032379	-0.826785	-0.380556
C134	C	1.532379	-0.326785	0.119444
C135	C	1.075691	-0.852451	-0.337329
C136	C	1.575691	-0.352451	0.162671
C137	C	1.118983	-0.831200	-0.294095
C138	C	1.618983	-0.331200	0.205905
C139	C	1.118957	-0.784284	-0.294085
C140	C	1.618957	-0.284284	0.205915
C141	C	0.945756	-0.775451	-0.467012
C142	C	1.445756	-0.275451	0.032988
C143	C	0.945784	-0.822368	-0.467018
C144	C	1.445784	-0.322368	0.032982
C145	C	0.989096	-0.848034	-0.423790
C146	C	1.489096	-0.348034	0.076210
C147	C	1.216141	-0.237725	-0.387906
C148	C	1.716141	0.262275	0.112094
C149	C	1.294496	-0.239661	-0.391059
C150	C	1.794496	0.260339	0.108941
C151	C	1.039692	-0.228631	-0.564385
C152	C	1.539692	0.271369	-0.064385
C153	C	1.042856	-0.226691	-0.642743
C154	C	1.542856	0.273309	-0.142743
C155	C	1.032417	-0.116007	-0.380564
C156	C	1.532417	0.383993	0.119436
C157	C	1.032481	-0.066074	-0.380589
C158	C	1.532481	0.433926	0.119411
C159	C	0.999223	-0.253394	-0.677729
C160	C	1.499223	0.246606	-0.177729
C161	C	1.002202	-0.251571	-0.751354
C162	C	1.502202	0.248429	-0.251354
C163	C	1.048809	-0.223043	-0.789993
C164	C	1.548809	0.276957	-0.289993
C165	C	1.092447	-0.196339	-0.755002
C166	C	1.592447	0.303661	-0.255002
C167	C	1.089471	-0.198164	-0.681378
C168	C	1.589471	0.301836	-0.181378
C169	C	1.062549	-0.214625	-1.010381
C170	C	1.562549	0.285375	-0.510381
C171	C	1.065520	-0.212800	-1.084010
C172	C	1.565520	0.287200	-0.584010
C173	C	0.975275	-0.268033	-1.080358
C174	C	1.475275	0.231967	-0.580358
C175	C	0.972301	-0.269854	-1.006732
C176	C	1.472301	0.230146	-0.506732
C177	C	1.015941	-0.243152	-0.971748
C178	C	1.515941	0.256848	-0.471748
N179	N	1.051853	-0.221178	-0.865250
N180	N	1.551853	0.278822	-0.365250
N181	N	1.012900	-0.245019	-0.896492
N182	N	1.512900	0.254981	-0.396492
C183	C	1.024914	-0.237686	-0.197348
C184	C	1.524914	0.262314	0.302652
C185	C	1.021887	-0.239503	-0.118996
C186	C	1.521887	0.260497	0.381004
H187	H	0.767175	-0.276753	-0.451371
H188	H	1.267175	0.223247	0.048629
H189	H	0.966672	-0.273316	-0.779837
H190	H	1.466672	0.226684	-0.279837
H191	H	0.438159	-0.293307	-0.478317
H192	H	0.938159	0.206693	0.021683
Cl193	Cl	0.289088	-0.301870	-0.492249
Cl194	Cl	0.789088	0.198130	0.007751
H195	H	1.125001	-0.176420	-0.652893
H196	H	1.625001	0.323580	-0.152893
Cl197	Cl	0.934450	-0.494723	-0.478070
Cl198	Cl	1.434450	0.005277	0.021930
H199	H	0.633618	-0.273460	-0.446030
H200	H	1.133618	0.226540	0.053970
Cl201	Cl	0.280971	-0.176994	-0.289099
Cl202	Cl	0.780971	0.323006	0.210901
Cl203	Cl	0.891301	-0.743192	-0.521361
Cl204	Cl	1.391301	-0.243192	-0.021361
Cl205	Cl	1.173430	-0.863475	-0.239750
Cl206	Cl	1.673430	-0.363475	0.260250
H207	H	0.760657	-0.176373	-0.288092
H208	H	1.260657	0.323627	0.211908
H209	H	0.431632	-0.192931	-0.315031
H210	H	0.931632	0.307069	0.184969
H211	H	0.627088	-0.173087	-0.282749
H212	H	1.127088	0.326913	0.217251
H213	H	0.961262	-0.276619	-0.646275
H214	H	1.461262	0.223381	-0.146275
Cl215	Cl	0.934416	-0.388818	-0.478062
Cl216	Cl	1.434416	0.111182	0.021938
H217	H	1.110713	-0.408205	-0.302034
H218	H	1.610713	0.091795	0.197966
H219	H	0.910426	-0.613798	-0.502208
H220	H	1.410426	-0.113798	-0.002208
H221	H	1.110772	-0.493316	-0.302056
H222	H	1.610772	0.006684	0.197944
H223	H	1.154134	-0.626238	-0.258845
H224	H	1.654134	-0.126238	0.241155
H225	H	0.934359	-0.293092	-0.975279
H226	H	1.434359	0.206908	-0.475279
Cl227	Cl	1.173364	-0.722711	-0.239714
Cl228	Cl	1.673364	-0.222711	0.260286
H229	H	1.103471	-0.189565	-1.115467
H230	H	1.603471	0.310435	-0.615467
Cl231	Cl	1.130175	-0.971195	-0.282979
Cl232	Cl	1.630175	-0.471195	0.217021
H233	H	1.111042	-1.065728	-0.302153
H234	H	1.611042	-0.565728	0.197847
H235	H	1.154208	-0.766987	-0.258873
H236	H	1.654208	-0.266987	0.241127
H237	H	0.939746	-0.289773	-1.108850
H238	H	1.439746	0.210227	-0.608850
H239	H	0.910526	-0.839664	-0.502230
H240	H	1.410526	-0.339664	-0.002230
Cl241	Cl	0.934737	-1.067114	-0.478171
Cl242	Cl	1.434737	-0.567114	0.021829
H243	H	1.098084	-0.192882	-0.981906
H244	H	1.598084	0.307118	-0.481906
Cl245	Cl	1.151043	-0.160477	-0.803576
Cl246	Cl	1.651043	0.339523	-0.303576
H247	H	0.953879	-0.972595	-0.459018
H248	H	1.453879	-0.472595	0.040982
Cl249	Cl	0.891294	-0.708316	-0.521382
Cl250	Cl	1.391294	-0.208316	-0.021382
