data_functionalizedCrystal
_audit_creation_method	'MofGen! by Chris Wilmer'
_symmetry_space_group_name_H-M	'P1'
_symmetry_Int_Tables_number	1
_symmetry_cell_setting	triclinic
loop_
_symmetry_equiv_pos_as_xyz
  x,y,z
_cell_length_a	13.032721
_cell_length_b	12.827893
_cell_length_c	12.827885
_cell_angle_alpha	90.021189
_cell_angle_beta	97.149035
_cell_angle_gamma	82.797239
loop_
_atom_site_label
_atom_site_type_symbol
_atom_site_fract_x
_atom_site_fract_y
_atom_site_fract_z
Zn1	Zn	-0.416035	-1.544792	-0.643701
Zn2	Zn	-0.082701	-1.211459	-0.310368
Zn3	Zn	0.250632	-0.878125	0.022965
Zn4	Zn	-0.590813	-1.522472	-0.491143
Zn5	Zn	-0.257480	-1.189139	-0.157810
Zn6	Zn	0.075854	-0.855805	0.175524
Zn7	Zn	-0.416080	-1.370028	-0.468975
Zn8	Zn	-0.082747	-1.036694	-0.135642
Zn9	Zn	0.250587	-0.703361	0.197692
Zn10	Zn	-0.590730	-1.347815	-0.665827
Zn11	Zn	-0.257396	-1.014482	-0.332493
Zn12	Zn	0.075937	-0.681149	0.000840
O13	O	-0.503414	-1.446277	-0.567411
O14	O	-0.170081	-1.112943	-0.234078
O15	O	0.163252	-0.779610	0.099255
O16	O	-0.439235	-1.688065	-0.623482
O17	O	-0.105902	-1.354732	-0.290149
O18	O	0.227432	-1.021399	0.043185
O19	O	-0.567688	-1.502205	-0.341973
O20	O	-0.234355	-1.168872	-0.008640
O21	O	0.098979	-0.835538	0.324694
O22	O	-0.269837	-1.411848	-0.473616
O23	O	0.063496	-1.078514	-0.140283
O24	O	0.396829	-0.745181	0.193051
O25	O	-0.567644	-1.671667	-0.511398
O26	O	-0.234311	-1.338334	-0.178065
O27	O	0.099023	-1.005000	0.155269
O28	O	-0.269804	-1.540246	-0.601987
O29	O	0.063530	-1.206913	-0.268653
O30	O	0.396863	-0.873580	0.064680
O31	O	-0.439313	-1.390205	-0.325686
O32	O	-0.105979	-1.056871	0.007647
O33	O	0.227354	-0.723538	0.340980
O34	O	-0.439232	-1.220847	-0.495070
O35	O	-0.105899	-0.887514	-0.161736
O36	O	0.227435	-0.554181	0.171597
O37	O	-0.567502	-1.373990	-0.809121
O38	O	-0.234169	-1.040656	-0.475788
O39	O	0.099164	-0.707323	-0.142454
O40	O	-0.567546	-1.204528	-0.639696
O41	O	-0.234213	-0.871194	-0.306362
O42	O	0.099120	-0.537861	0.026971
O43	O	-0.439154	-1.518708	-0.792866
O44	O	-0.105821	-1.185374	-0.459532
O45	O	0.227512	-0.852041	-0.126199
O46	O	-0.737039	-1.480667	-0.532852
O47	O	-0.403705	-1.147333	-0.199519
O48	O	-0.070372	-0.814000	0.133815
O49	O	-0.736978	-1.352347	-0.661191
O50	O	-0.403644	-1.019014	-0.327858
O51	O	-0.070311	-0.685680	0.005475
C52	C	-0.503386	-1.174771	-0.567379
C53	C	-0.170053	-0.841437	-0.234046
C54	C	0.163281	-0.508104	0.099288
C55	C	-0.503399	-1.058616	-0.567393
C56	C	-0.170065	-0.725282	-0.234060
C57	C	0.163268	-0.391949	0.099274
C58	C	-0.439969	-1.014931	-0.622967
C59	C	-0.106636	-0.681598	-0.289634
C60	C	0.226698	-0.348265	0.043700
C61	C	-0.439981	-0.894879	-0.622983
C62	C	-0.106648	-0.561546	-0.289649
C63	C	0.226686	-0.228213	0.043684
C64	C	-0.774926	-1.411703	-0.601851
C65	C	-0.441592	-1.078369	-0.268517
C66	C	-0.108259	-0.745036	0.064816
C67	C	-0.891079	-1.397007	-0.616619
C68	C	-0.557746	-1.063674	-0.283286
C69	C	-0.224413	-0.730341	0.050048
C70	C	-0.942860	-1.454002	-0.559751
C71	C	-0.609527	-1.120669	-0.226417
C72	C	-0.276193	-0.787335	0.106916
C73	C	-1.062911	-1.438815	-0.575013
C74	C	-0.729578	-1.105482	-0.241680
C75	C	-0.396244	-0.772148	0.091654
C76	C	-0.230843	-1.481014	-0.532861
C77	C	0.102491	-1.147681	-0.199527
C78	C	0.435824	-0.814348	0.133806
C79	C	-0.114689	-1.495818	-0.518137
C80	C	0.218644	-1.162484	-0.184804
C81	C	0.551978	-0.829151	0.148530
C82	C	-0.503314	-1.446361	-0.839969
C83	C	-0.169981	-1.113027	-0.506636
C84	C	0.163353	-0.779694	-0.173302
C85	C	-0.503271	-1.446396	-0.956117
C86	C	-0.169938	-1.113063	-0.622783
C87	C	0.163395	-0.779730	-0.289450
C88	C	-0.503435	-0.718844	-0.567435
C89	C	-0.170102	-0.385511	-0.234102
C90	C	0.163232	-0.052178	0.099231
C91	C	-0.503422	-0.834999	-0.567421
C92	C	-0.170089	-0.501666	-0.234088
C93	C	0.163245	-0.168332	0.099245
C94	C	-0.439748	-1.518016	-0.999856
C95	C	-0.106415	-1.184683	-0.666523
C96	C	0.226918	-0.851349	-0.333190
C97	C	-0.439703	-1.518055	-1.119901
C98	C	-0.106369	-1.184721	-0.786568
C99	C	0.226964	-0.851388	-0.453234
C100	C	-0.503439	-1.446263	-0.295905
C101	C	-0.170106	-1.112930	0.037429
C102	C	0.163228	-0.779596	0.370762
C103	C	-0.503187	-1.446467	-0.179720
C104	C	-0.169854	-1.113134	0.153613
C105	C	0.163479	-0.779800	0.486947
H106	H	-0.557735	-0.872590	-0.519846
H107	H	-0.224402	-0.539257	-0.186513
H108	H	0.108931	-0.205923	0.146820
C109	C	-0.366609	-0.844089	-0.687256
C110	C	-0.033276	-0.510756	-0.353923
C111	C	0.300057	-0.177423	-0.020590
N112	N	-0.311341	-0.805832	-0.735666
N113	N	0.021993	-0.472499	-0.402332
N114	N	0.355326	-0.139165	-0.068999
H115	H	-0.557710	-1.007138	-0.519823
H116	H	-0.224377	-0.673805	-0.186490
H117	H	0.108957	-0.340472	0.146843
H118	H	-0.385394	-1.579300	-0.948430
H119	H	-0.052061	-1.245967	-0.615097
H120	H	0.281273	-0.912634	-0.281764
H121	H	-0.898317	-1.514045	-0.499768
H122	H	-0.564983	-1.180712	-0.166435
H123	H	-0.231650	-0.847378	0.166898
H124	H	-0.385322	-1.579374	-1.157547
H125	H	-0.051988	-1.246040	-0.824214
H126	H	0.281345	-0.912707	-0.490881
H127	H	-0.557578	-1.385151	-1.142082
H128	H	-0.224245	-1.051818	-0.808748
H129	H	0.109088	-0.718484	-0.475415
H130	H	-0.557615	-1.385103	-1.007541
H131	H	-0.224282	-1.051770	-0.674208
H132	H	0.109052	-0.718436	-0.340875
H133	H	-1.107453	-1.378777	-0.635007
H134	H	-0.774120	-1.045443	-0.301674
H135	H	-0.440786	-0.712110	0.031659
C136	C	-0.366587	-1.084471	-0.687227
C137	C	-0.033254	-0.751138	-0.353893
C138	C	0.300079	-0.417805	-0.020560
N139	N	-0.311314	-1.136848	-0.735629
N140	N	0.022019	-0.803515	-0.402295
N141	N	0.355353	-0.470181	-0.068962
H142	H	-1.070148	-1.555864	-0.458151
H143	H	-0.736815	-1.222531	-0.124817
H144	H	-0.403481	-0.889198	0.208516
H145	H	-0.935625	-1.336973	-0.676609
H146	H	-0.602292	-1.003640	-0.343276
H147	H	-0.268959	-0.670306	-0.009942
