data_functionalizedCrystal
_audit_creation_method	'MofGen! by Chris Wilmer'
_symmetry_space_group_name_H-M	'P1'
_symmetry_Int_Tables_number	1
_symmetry_cell_setting	triclinic
loop_
_symmetry_equiv_pos_as_xyz
  x,y,z
_cell_length_a	13.897449
_cell_length_b	13.897447
_cell_length_c	16.959447
_cell_angle_alpha	90.025380
_cell_angle_beta	89.983087
_cell_angle_gamma	89.977525
loop_
_atom_site_label
_atom_site_type_symbol
_atom_site_fract_x
_atom_site_fract_y
_atom_site_fract_z
Zn1	Zn	1.474643	0.383962	-0.446936
Zn2	Zn	1.474538	0.545281	-0.314769
Zn3	Zn	1.313343	0.384005	-0.314773
Zn4	Zn	1.313304	0.545220	-0.446907
O5	O	1.393957	0.464617	-0.380846
O6	O	1.609610	0.405369	-0.429413
O7	O	1.453127	0.523930	-0.204158
O8	O	1.334800	0.249018	-0.332319
O9	O	1.609533	0.523889	-0.332311
O10	O	1.453306	0.248986	-0.429418
O11	O	1.334698	0.405441	-0.204162
O12	O	1.178356	0.405383	-0.332291
O13	O	1.334733	0.523786	-0.557522
O14	O	1.178327	0.523828	-0.429370
O15	O	1.453269	0.405310	-0.557543
O16	O	1.453089	0.680254	-0.332283
O17	O	1.334632	0.680210	-0.429365
C18	C	1.393871	0.715231	-0.380838
C19	C	1.393923	0.822445	-0.380861
C20	C	1.143342	0.464604	-0.380828
C21	C	1.036128	0.464622	-0.380839
C22	C	1.394008	0.464537	-0.587015
C23	C	1.394030	0.464503	-0.674871
C24	C	0.839833	0.464625	-0.380860
C25	C	0.949066	0.464620	-0.380846
C26	C	1.645550	0.464631	-0.380865
C27	C	1.752764	0.464636	-0.380873
C28	C	1.393967	0.909515	-0.380882
C29	C	1.394031	1.018747	-0.380907
C30	C	1.394062	1.213024	-0.380882
C31	C	1.394088	1.105810	-0.380923
C32	C	1.332455	0.402709	-1.046355
C33	C	1.455776	0.526093	-1.046339
C34	C	1.455759	0.526115	-0.963793
C35	C	1.394088	0.464435	-0.922524
C36	C	1.332434	0.402732	-0.963801
C37	C	1.517405	0.587824	-0.922510
C38	C	1.517390	0.587850	-0.839959
C39	C	1.455724	0.526164	-0.798688
C40	C	1.394068	0.464458	-0.839971
C41	C	1.332397	0.402777	-0.798702
C42	C	1.270745	0.341065	-0.839983
C43	C	1.270767	0.341046	-0.922531
C44	C	1.455701	0.526183	-0.716140
C45	C	1.332376	0.402800	-0.716148
C46	C	1.393961	0.464627	-0.175480
C47	C	1.394126	0.464390	-0.087624
H48	H	1.282160	0.352567	-0.682553
H49	H	1.505978	0.576317	-1.079945
O50	O	1.265965	0.336151	-1.090877
H51	H	1.223086	0.293262	-1.048309
H52	H	1.567604	0.638051	-0.956117
O53	O	1.522196	0.592729	-0.671618
H54	H	1.505626	0.668429	-0.687448
O55	O	1.583900	0.654386	-0.795435
H56	H	1.626795	0.697263	-0.838001
H57	H	1.220528	0.290849	-0.806371
O58	O	1.204296	0.274479	-0.967063
H59	H	1.155204	0.317629	-1.004664
