data_functionalizedCrystal
_audit_creation_method	'MofGen! by Chris Wilmer'
_symmetry_space_group_name_H-M	'P1'
_symmetry_Int_Tables_number	1
_symmetry_cell_setting	triclinic
loop_
_symmetry_equiv_pos_as_xyz
  x,y,z
_cell_length_a	15.538191
_cell_length_b	10.489741
_cell_length_c	14.750779
_cell_angle_alpha	77.226586
_cell_angle_beta	97.572172
_cell_angle_gamma	65.905634
loop_
_atom_site_label
_atom_site_type_symbol
_atom_site_fract_x
_atom_site_fract_y
_atom_site_fract_z
O1	O	1.226910	-0.375937	-0.079837
O2	O	0.953648	-0.229122	-0.079837
O3	O	1.096498	-0.491086	-0.079831
O4	O	1.084059	-0.113973	-0.079843
O5	O	1.136881	-0.565134	0.079820
O6	O	0.994030	-0.303170	0.079815
O7	O	1.267292	-0.449985	0.079814
Zn8	Zn	1.137073	-0.388334	0.105163
Zn9	Zn	1.083867	-0.290773	-0.105185
O10	O	1.124442	-0.188021	0.079809
C11	C	0.938847	-0.250786	-0.000011
C12	C	0.834584	-0.205032	-0.000010
C13	C	0.543710	-0.659589	-0.000011
C14	C	0.445735	-0.616562	-0.000013
C15	C	0.424932	-0.374552	-0.000021
C16	C	0.522908	-0.417560	-0.000014
C17	C	0.582289	-0.560080	-0.000010
C18	C	0.561488	-0.318051	-0.000013
C19	C	0.659454	-0.361054	-0.000011
C20	C	0.718840	-0.503566	-0.000011
C21	C	0.680255	-0.603083	-0.000009
C22	C	0.502103	-0.175529	-0.000023
C23	C	0.540683	-0.076020	-0.000022
C24	C	0.638652	-0.119026	-0.000013
C25	C	0.698039	-0.261538	-0.000013
C26	C	0.677237	-0.019509	-0.000015
C27	C	0.775203	-0.062512	-0.000014
C28	C	0.796005	-0.304540	-0.000011
C29	C	1.115750	-0.575195	-0.000006
C30	C	1.112940	-0.715488	-0.000008
C31	C	1.022047	-0.740411	-0.000014
C32	C	1.084893	-0.889457	0.078702
C33	C	1.045101	-0.816436	-0.078702
C34	C	1.175840	-0.862716	0.078774
C35	C	1.136017	-0.789647	-0.078701
C36	C	1.198935	-0.938706	0.000035
C37	C	1.282092	-0.428320	-0.000014
C38	C	1.386354	-0.474071	-0.000020
C39	C	1.105189	-0.103911	-0.000018
C40	C	1.107998	0.036385	-0.000023
N41	N	1.173391	-0.454921	0.248720
N42	N	1.047557	-0.224199	-0.248742
C43	C	0.946125	-0.038287	0.600530
C44	C	0.971581	-0.084942	0.701030
C45	C	1.098102	-0.316860	0.700997
C46	C	1.072654	-0.270227	0.600495
C47	C	0.996665	-0.130939	0.550269
C48	C	1.123193	-0.362879	0.550235
C49	C	1.097750	-0.316246	0.449741
C50	C	1.021766	-0.176962	0.399508
C51	C	0.971221	-0.084307	0.449776
C52	C	1.199186	-0.502162	0.600462
C53	C	1.249726	-0.594814	0.550202
C54	C	1.224278	-0.548186	0.449707
C55	C	1.148295	-0.408902	0.399474
C56	C	1.274823	-0.640842	0.399439
C57	C	1.249379	-0.594209	0.298946
C58	C	1.122851	-0.362270	0.298980
H59	H	0.592063	-0.775645	-0.000003
N60	N	1.298016	-1.051323	0.000086
H61	H	1.317739	-1.013877	-0.058793
H62	H	1.347192	-1.069694	0.059608
N63	N	0.404121	-0.723894	-0.000021
H64	H	0.456607	-0.820700	-0.000020
H65	H	0.378896	-0.738780	0.059162
N66	N	0.860058	-0.458264	0.000000
H67	H	0.886202	-0.454055	-0.059181
H68	H	0.916084	-0.508854	0.059225
H69	H	0.628872	0.096534	-0.000028
N70	N	1.040889	-0.212037	0.244801
H71	H	1.032443	-0.196561	0.173513
H72	H	0.978627	-0.204104	0.262381
N73	N	0.360883	-0.220838	-0.000029
H74	H	0.292966	-0.208692	-0.000032
H75	H	0.388433	-0.202967	0.059157
H76	H	0.492321	0.040021	-0.000029
N77	N	1.249047	-0.887034	0.167041
H78	H	1.315729	-0.961466	0.167323
H79	H	1.250394	-0.791416	0.166477
H80	H	0.422333	-0.140520	-0.000027
N81	N	1.331677	-0.745040	0.604385
H82	H	1.315821	-0.822170	0.586899
H83	H	1.393956	-0.752951	0.586859
N84	N	1.164618	-0.731836	-0.166858
H85	H	1.111115	-0.631486	-0.205605
H86	H	1.226833	-0.724835	-0.146730
N87	N	0.971849	-0.792375	-0.166850
H88	H	0.905059	-0.718705	-0.166774
H89	H	0.990551	-0.754150	-0.226257
H90	H	0.909337	0.029110	0.408880
H91	H	0.806617	0.018514	-0.000004
H92	H	0.798607	-0.538570	-0.000022
H93	H	0.947337	-0.655267	0.000065
H94	H	1.159976	-0.430268	0.741903
N95	N	0.917055	0.014992	0.755238
H96	H	0.944701	-0.035681	0.826522
H97	H	0.924062	0.108335	0.737672
N98	N	0.744310	-0.756803	-0.000002
H99	H	0.812224	-0.768939	-0.000000
H100	H	0.746700	-0.829578	0.059188
N101	N	0.994308	-0.126672	0.291119
H102	H	0.938499	-0.024379	0.266930
H103	H	1.052145	-0.126509	0.266960
N104	N	0.864156	0.111938	0.546346
H105	H	0.835993	0.163560	0.593433
H106	H	0.889925	0.170889	0.504642
N107	N	1.226633	-0.552455	0.708852
H108	H	1.168846	-0.552717	0.733077
H109	H	1.282466	-0.654721	0.732966
N110	N	1.056264	-0.947203	0.166863
H111	H	0.989440	-0.873477	0.166810
H112	H	1.055250	-1.042743	0.166484
H113	H	1.336700	-0.754246	0.440346
N114	N	1.303890	-0.694130	0.244728
H115	H	1.355887	-0.789444	0.291794
H116	H	1.257005	-0.714379	0.203039
