data_functionalizedCrystal
_audit_creation_method	'MofGen! by Chris Wilmer'
_symmetry_space_group_name_H-M	'P1'
_symmetry_Int_Tables_number	1
_symmetry_cell_setting	triclinic
loop_
_symmetry_equiv_pos_as_xyz
  x,y,z
_cell_length_a	12.645331
_cell_length_b	19.120786
_cell_length_c	19.121595
_cell_angle_alpha	85.200660
_cell_angle_beta	87.543252
_cell_angle_gamma	92.464092
loop_
_atom_site_label
_atom_site_type_symbol
_atom_site_fract_x
_atom_site_fract_y
_atom_site_fract_z
Zn1	Zn	1.628519	-0.263205	-0.385890
Zn2	Zn	1.612593	-0.385897	-0.263199
Zn3	Zn	1.443350	-0.268241	-0.268237
Zn4	Zn	1.443291	-0.380840	-0.380827
O5	O	1.531938	-0.324546	-0.324538
O6	O	1.774754	-0.279489	-0.369625
O7	O	1.583503	-0.374514	-0.165402
O8	O	1.474603	-0.169102	-0.288071
O9	O	1.763053	-0.369630	-0.279485
O10	O	1.610645	-0.165402	-0.374510
O11	O	1.459160	-0.288072	-0.169103
O12	O	1.294995	-0.283168	-0.283161
O13	O	1.474502	-0.361012	-0.479964
O14	O	1.294952	-0.365895	-0.365880
O15	O	1.610588	-0.274585	-0.483684
O16	O	1.583446	-0.483697	-0.274576
O17	O	1.459060	-0.479981	-0.360996
C18	C	1.256508	-0.324530	-0.324518
C19	C	1.138678	-0.324539	-0.324526
C20	C	0.971143	-0.272233	-0.272798
C21	C	1.093677	-0.272385	-0.272554
C22	C	1.087809	-0.399529	-0.301100
C23	C	0.965206	-0.399246	-0.300744
C24	C	0.977789	-0.302552	-0.399859
C25	C	1.100478	-0.300914	-0.399516
C26	C	1.519548	-0.507371	-0.316705
C27	C	1.514346	-0.585583	-0.313378
C28	C	1.582684	-0.620339	-0.356855
C29	C	1.577792	-0.693828	-0.353730
C30	C	1.504566	-0.732559	-0.307123
C31	C	1.436221	-0.697798	-0.263644
C32	C	1.441109	-0.624311	-0.266773
C33	C	1.486263	-0.954544	-0.295425
C34	C	1.481382	-1.028036	-0.292297
C35	C	1.622953	-1.024061	-0.382385
C36	C	1.627838	-0.950572	-0.385507
C37	C	1.559489	-0.915817	-0.342030
C38	C	1.499566	-0.807677	-0.303926
C39	C	1.564485	-0.840701	-0.345231
C40	C	1.808444	-0.324562	-0.324558
C41	C	1.926274	-0.324569	-0.324567
C42	C	1.544315	-0.316673	-0.508069
C43	C	1.549589	-0.313318	-0.586278
C44	C	1.544407	-0.141006	-0.332417
C45	C	1.549720	-0.062792	-0.335775
C46	C	1.481216	-0.356736	-0.621086
C47	C	1.486180	-0.353583	-0.694573
C48	C	1.559514	-0.307009	-0.733250
C49	C	1.627894	-0.263589	-0.698437
C50	C	1.622934	-0.266746	-0.624952
C51	C	1.578039	-0.295231	-0.955225
C52	C	1.582992	-0.292076	-1.028715
C53	C	1.441279	-0.382071	-1.024845
C54	C	1.436321	-0.385221	-0.951359
C55	C	1.504705	-0.341804	-0.916552
C56	C	1.564588	-0.303784	-0.808365
C57	C	1.499636	-0.345033	-0.841438
C58	C	1.519674	-0.332337	-0.141724
C59	C	1.514619	-0.335494	-0.063523
H60	H	0.935790	-0.286887	-0.217399
Br61	Br	1.336828	-0.750361	-0.200400
Br62	Br	0.909581	-0.429746	-0.208847
Br63	Br	1.348480	-0.440993	-1.072086
H64	H	1.687465	-0.919038	-0.423458
H65	H	1.687608	-0.225670	-0.729934
Br66	Br	1.715704	-1.071231	-0.441387
Br67	Br	1.400120	-0.408242	-0.788947
H68	H	1.421748	-1.059570	-0.254344
Br69	Br	1.715737	-0.207824	-0.577712
Br70	Br	1.336785	-0.448425	-0.898873
H71	H	1.642706	-0.254143	-1.060205
Br72	Br	1.670844	-0.236305	-0.907997
Br73	Br	0.915273	-0.466724	-0.360556
Br74	Br	0.929525	-0.366021	-0.464214
H75	H	1.128330	-0.216876	-0.287601
H76	H	1.624295	-0.265862	-0.839865
H77	H	0.946233	-0.216565	-0.287716
H78	H	1.421488	-0.394653	-0.589600
H79	H	1.118419	-0.287191	-0.216824
H80	H	1.113761	-0.418078	-0.246536
H81	H	1.116721	-0.439702	-0.337484
H82	H	1.430505	-0.388940	-0.722909
H83	H	0.951702	-0.248658	-0.420551
Br84	Br	1.156833	-0.208916	-0.428872
Br85	Br	1.152169	-0.359394	-0.467673
H86	H	1.642317	-0.588808	-0.394804
Br87	Br	1.393490	-0.907385	-0.236429
Br88	Br	1.663852	-0.788136	-0.408487
H89	H	1.385459	-0.596013	-0.231370
H90	H	1.633448	-0.722123	-0.389129
H91	H	1.439948	-0.839220	-0.265976
