data_functionalizedCrystal
_audit_creation_method	'MofGen! by Chris Wilmer'
_symmetry_space_group_name_H-M	'P1'
_symmetry_Int_Tables_number	1
_symmetry_cell_setting	triclinic
loop_
_symmetry_equiv_pos_as_xyz
  x,y,z
_cell_length_a	14.519709
_cell_length_b	15.995350
_cell_length_c	12.996460
_cell_angle_alpha	89.996086
_cell_angle_beta	90.000034
_cell_angle_gamma	83.586260
loop_
_atom_site_label
_atom_site_type_symbol
_atom_site_fract_x
_atom_site_fract_y
_atom_site_fract_z
O1	O	1.223669	0.109760	-0.085428
O2	O	1.473669	0.359760	0.164572
O3	O	1.723669	0.609760	0.414572
O4	O	1.973669	0.859760	0.664572
O5	O	0.955169	0.122686	-0.085458
O6	O	1.205169	0.372686	0.164542
O7	O	1.455169	0.622686	0.414542
O8	O	1.705169	0.872686	0.664542
O9	O	1.096759	-0.005654	-0.085441
O10	O	1.346759	0.244346	0.164559
O11	O	1.596759	0.494346	0.414559
O12	O	1.846759	0.744346	0.664559
O13	O	1.082080	0.238099	-0.085445
O14	O	1.332080	0.488099	0.164555
O15	O	1.582080	0.738099	0.414555
O16	O	1.832080	0.988099	0.664555
O17	O	1.096744	-0.005661	0.085693
O18	O	1.346744	0.244339	0.335693
O19	O	1.596744	0.494339	0.585693
O20	O	1.846744	0.744339	0.835693
O21	O	0.955154	0.122678	0.085675
O22	O	1.205154	0.372678	0.335675
O23	O	1.455154	0.622678	0.585675
O24	O	1.705154	0.872678	0.835675
O25	O	1.223655	0.109753	0.085706
O26	O	1.473655	0.359753	0.335706
O27	O	1.723655	0.609753	0.585706
O28	O	1.973655	0.859753	0.835706
Cu29	Cu	1.089403	0.116215	0.101317
Cu30	Cu	1.339403	0.366215	0.351317
Cu31	Cu	1.589403	0.616215	0.601317
Cu32	Cu	1.839403	0.866215	0.851317
Cu33	Cu	1.089421	0.116224	-0.101069
Cu34	Cu	1.339421	0.366224	0.148931
Cu35	Cu	1.589421	0.616224	0.398931
Cu36	Cu	1.839421	0.866224	0.648931
O37	O	1.082065	0.238092	0.085689
O38	O	1.332065	0.488092	0.335689
O39	O	1.582065	0.738092	0.585689
O40	O	1.832065	0.988092	0.835689
C41	C	0.920803	0.122080	0.000104
C42	C	1.170803	0.372080	0.250104
C43	C	1.420803	0.622080	0.500104
C44	C	1.670803	0.872080	0.750104
C45	C	0.818425	0.120275	0.000092
C46	C	1.068425	0.370275	0.250092
C47	C	1.318425	0.620275	0.500092
C48	C	1.568425	0.870275	0.750092
C49	C	0.443541	0.113629	0.000139
C50	C	0.693541	0.363629	0.250139
C51	C	0.943541	0.613629	0.500139
C52	C	1.193541	0.863629	0.750139
C53	C	0.547846	0.115475	0.000126
C54	C	0.797846	0.365475	0.250126
C55	C	1.047846	0.615475	0.500126
C56	C	1.297846	0.865475	0.750126
C57	C	0.630980	0.116952	0.000115
C58	C	0.880980	0.366952	0.250115
C59	C	1.130980	0.616952	0.500115
C60	C	1.380980	0.866952	0.750115
C61	C	0.735291	0.118797	0.000104
C62	C	0.985291	0.368797	0.250104
C63	C	1.235291	0.618797	0.500104
C64	C	1.485291	0.868797	0.750104
C65	C	1.096145	-0.036853	0.000124
C66	C	1.346145	0.213147	0.250124
C67	C	1.596145	0.463147	0.500124
C68	C	1.846145	0.713147	0.750124
C69	C	1.094325	-0.129806	0.000118
C70	C	1.344325	0.120194	0.250118
C71	C	1.594325	0.370194	0.500118
C72	C	1.844325	0.620194	0.750118
C73	C	1.087791	-0.467563	0.000120
C74	C	1.337791	-0.217563	0.250120
C75	C	1.587791	0.032437	0.500120
C76	C	1.837791	0.282437	0.750120
C77	C	0.986954	-0.420280	-0.000275
C78	C	1.236954	-0.170280	0.249725
C79	C	1.486954	0.079720	0.499725
C80	C	1.736954	0.329720	0.749725
C81	C	0.988773	-0.323587	0.000111
C82	C	1.238773	-0.073587	0.250111
C83	C	1.488773	0.176413	0.500111
C84	C	1.738773	0.426413	0.750111
C85	C	1.091032	-0.299998	0.000118
C86	C	1.341032	-0.049998	0.250118
C87	C	1.591032	0.200002	0.500118
C88	C	1.841032	0.450002	0.750118
C89	C	1.140761	-0.341005	0.097848
C90	C	1.390761	-0.091005	0.347848
C91	C	1.640761	0.158995	0.597848
C92	C	1.890761	0.408995	0.847848
C93	C	1.138227	-0.437645	0.097930
C94	C	1.388227	-0.187645	0.347930
C95	C	1.638227	0.062355	0.597930
C96	C	1.888227	0.312355	0.847930
C97	C	1.140327	-0.437992	-0.096681
C98	C	1.390327	-0.187992	0.153319
C99	C	1.640327	0.062008	0.403319
C100	C	1.890327	0.312008	0.653319
C101	C	1.140303	-0.341046	-0.097973
C102	C	1.390303	-0.091046	0.152027
C103	C	1.640303	0.158954	0.402027
C104	C	1.890303	0.408954	0.652027
C105	C	1.092869	-0.205298	0.000121
C106	C	1.342869	0.044702	0.250121
C107	C	1.592869	0.294702	0.500121
C108	C	1.842869	0.544702	0.750121
C109	C	1.085957	-0.562264	0.000125
C110	C	1.335957	-0.312264	0.250125
C111	C	1.585957	-0.062264	0.500125
C112	C	1.835957	0.187736	0.750125
C113	C	1.258021	0.110359	0.000141
C114	C	1.508021	0.360359	0.250141
C115	C	1.758021	0.610359	0.500141
C116	C	2.008021	0.860359	0.750141
C117	C	1.360399	0.112164	0.000146
C118	C	1.610399	0.362164	0.250146
C119	C	1.860399	0.612164	0.500146
C120	C	2.110399	0.862164	0.750146
C121	C	1.082679	0.269292	0.000122
C122	C	1.332679	0.519292	0.250122
C123	C	1.582679	0.769292	0.500122
C124	C	1.832679	1.019292	0.750122
C125	C	1.084498	0.362245	0.000121
C126	C	1.334498	0.612245	0.250121
C127	C	1.584498	0.862245	0.500121
C128	C	1.834498	1.112245	0.750121
N129	N	1.089398	0.116209	0.243664
N130	N	1.339398	0.366209	0.493664
N131	N	1.589398	0.616209	0.743664
N132	N	1.839398	0.866209	0.993664
N133	N	1.089433	0.116223	-0.243416
N134	N	1.339433	0.366223	0.006584
N135	N	1.589433	0.616223	0.256584
N136	N	1.839433	0.866223	0.506584
C137	C	1.089419	0.116224	0.663478
C138	C	1.339419	0.366224	0.913478
C139	C	1.589419	0.616224	1.163478
C140	C	1.839419	0.866224	1.413478
C141	C	1.089411	0.116223	0.546673
C142	C	1.339411	0.366223	0.796673
C143	C	1.589411	0.616223	1.046673
C144	C	1.839411	0.866223	1.296673
C145	C	1.089409	0.116217	0.453575
C146	C	1.339409	0.366217	0.703575
C147	C	1.589409	0.616217	0.953575
C148	C	1.839409	0.866217	1.203575
C149	C	1.089399	0.116214	0.336762
C150	C	1.339399	0.366214	0.586762
C151	C	1.589399	0.616214	0.836762
C152	C	1.839399	0.866214	1.086762
H153	H	0.949683	-0.295221	-0.069946
H154	H	1.199683	-0.045221	0.180054
H155	H	1.449683	0.204779	0.430054
H156	H	1.699683	0.454779	0.680054
H157	H	1.212261	-0.469782	0.102369
H158	H	1.462261	-0.219782	0.352369
H159	H	1.712261	0.030218	0.602369
H160	H	1.962261	0.280218	0.852369
N161	N	1.240286	-0.322179	0.102659
N162	N	1.490286	-0.072179	0.352659
N163	N	1.740286	0.177821	0.602659
N164	N	1.990286	0.427821	0.852659
H165	H	1.254127	-0.286798	0.041389
H166	H	1.504127	-0.036798	0.291389
H167	H	1.754127	0.213202	0.541389
H168	H	2.004127	0.463202	0.791389
H169	H	1.250546	-0.290518	0.168148
H170	H	1.500546	-0.040518	0.418148
H171	H	1.750546	0.209482	0.668148
H172	H	2.000546	0.459482	0.918148
H173	H	1.214875	-0.325572	-0.103868
H174	H	1.464875	-0.075572	0.146132
H175	H	1.714875	0.174428	0.396132
H176	H	1.964875	0.424428	0.646132
H177	H	0.946656	-0.438869	-0.070359
H178	H	1.196656	-0.188869	0.179641
H179	H	1.446656	0.061131	0.429641
H180	H	1.696656	0.311131	0.679641
N181	N	1.238809	-0.479909	-0.097552
N182	N	1.488809	-0.229909	0.152448
N183	N	1.738809	0.020091	0.402448
N184	N	1.988809	0.270091	0.652448
H185	H	1.249383	-0.517873	-0.035581
H186	H	1.499383	-0.267873	0.214419
H187	H	1.749383	-0.017873	0.464419
H188	H	1.999383	0.232127	0.714419
H189	H	1.249829	-0.514333	-0.162424
H190	H	1.499829	-0.264333	0.087576
H191	H	1.749829	-0.014333	0.337576
H192	H	1.999829	0.235667	0.587576
H193	H	1.101953	-0.456003	0.170979
H194	H	1.351953	-0.206003	0.420979
H195	H	1.601953	0.043997	0.670979
H196	H	1.851953	0.293997	0.920979
N197	N	1.095013	-0.303478	0.194182
N198	N	1.345013	-0.053478	0.444182
N199	N	1.595013	0.196522	0.694182
N200	N	1.845013	0.446522	0.944182
H201	H	1.042084	-0.259926	0.174741
H202	H	1.292084	-0.009926	0.424741
H203	H	1.542084	0.240074	0.674741
H204	H	1.792084	0.490074	0.924741
H205	H	1.070529	-0.349378	0.236070
H206	H	1.320529	-0.099378	0.486070
H207	H	1.570529	0.150622	0.736070
H208	H	1.820529	0.400622	0.986070
H209	H	1.107365	-0.458578	-0.170754
H210	H	1.357365	-0.208578	0.079246
H211	H	1.607365	0.041422	0.329246
H212	H	1.857365	0.291422	0.579246
N213	N	0.933787	-0.446305	0.092029
N214	N	1.183787	-0.196305	0.342029
N215	N	1.433787	0.053695	0.592029
N216	N	1.683787	0.303695	0.842029
H217	H	0.930160	-0.508965	0.089624
H218	H	1.180160	-0.258965	0.339624
H219	H	1.430160	-0.008965	0.589624
H220	H	1.680160	0.241035	0.839624
H221	H	0.966527	-0.431691	0.157070
H222	H	1.216527	-0.181691	0.407070
H223	H	1.466527	0.068309	0.657070
H224	H	1.716527	0.318309	0.907070
N225	N	0.936637	-0.286750	0.093056
N226	N	1.186637	-0.036750	0.343056
N227	N	1.436637	0.213250	0.593056
N228	N	1.686637	0.463250	0.843056
H229	H	0.912387	-0.333334	0.133940
H230	H	1.162387	-0.083334	0.383940
H231	H	1.412387	0.166666	0.633940
H232	H	1.662387	0.416666	0.883940
H233	H	0.979675	-0.256839	0.137510
H234	H	1.229675	-0.006839	0.387510
H235	H	1.479675	0.243161	0.637510
H236	H	1.729675	0.493161	0.887510
H237	H	1.103946	-0.313849	-0.170271
H238	H	1.353946	-0.063849	0.079729
H239	H	1.603946	0.186151	0.329729
H240	H	1.853946	0.436151	0.579729
