data_functionalizedCrystal
_audit_creation_method	'MofGen! by Chris Wilmer'
_symmetry_space_group_name_H-M	'P1'
_symmetry_Int_Tables_number	1
_symmetry_cell_setting	triclinic
loop_
_symmetry_equiv_pos_as_xyz
  x,y,z
_cell_length_a	21.606444
_cell_length_b	18.426585
_cell_length_c	21.606444
_cell_angle_alpha	60.001401
_cell_angle_beta	59.999875
_cell_angle_gamma	60.001526
loop_
_atom_site_label
_atom_site_type_symbol
_atom_site_fract_x
_atom_site_fract_y
_atom_site_fract_z
Zr1	Zr	0.596257	0.095238	0.596212
O2	O	0.626560	0.211109	0.497385
O3	O	0.497428	0.059721	0.626508
O4	O	0.497438	0.211119	0.626504
O5	O	0.728396	-0.059720	0.497393
O6	O	0.497439	0.211124	0.728353
O7	O	0.626550	0.059710	0.497390
O8	O	0.497421	-0.059701	0.728362
O9	O	0.728414	0.211105	0.497384
O10	O	0.563459	0.044572	0.715438
O11	O	0.639465	-0.044560	0.639430
O12	O	0.639477	0.133692	0.639425
O13	O	0.715483	0.044560	0.563418
Zr14	Zr	0.758691	-0.095232	0.758655
Zr15	Zr	0.596258	0.095245	0.758650
Zr16	Zr	0.758690	-0.095239	0.596216
Zr17	Zr	0.758703	0.095232	0.596210
Zr18	Zr	0.596245	-0.095226	0.758656
O19	O	0.857520	-0.059715	0.728358
O20	O	0.626562	0.211119	0.728352
O21	O	0.857518	-0.059724	0.497391
O22	O	0.728388	-0.211103	0.857481
O23	O	0.497430	0.059730	0.857475
O24	O	0.728387	-0.211113	0.626514
O25	O	0.626552	0.059726	0.857474
O26	O	0.857510	-0.211113	0.728363
O27	O	0.857509	-0.211118	0.626513
O28	O	0.728398	-0.059704	0.857476
O29	O	0.728415	0.211110	0.626501
O30	O	0.626533	-0.211104	0.728365
O31	O	0.626534	-0.211099	0.857482
O32	O	0.497422	-0.059695	0.857479
O33	O	0.857527	0.059701	0.497388
O34	O	0.857527	0.059707	0.626505
O35	O	0.715472	-0.133686	0.715442
O36	O	0.639466	-0.044554	0.791449
O37	O	0.715484	0.044566	0.715436
O38	O	0.791490	-0.044566	0.639429
C39	C	0.474280	0.000011	0.677435
C40	C	0.405317	0.000013	0.677436
C41	C	0.333244	0.046541	0.717109
C42	C	0.268449	0.046535	0.717112
C43	C	0.275729	0.000006	0.677437
C44	C	0.347810	-0.046527	0.637762
C45	C	0.412603	-0.046526	0.637764
C46	C	0.086507	-0.046535	0.637753
C47	C	0.021706	-0.046530	0.637752
C48	C	-0.057647	0.046526	0.717101
C49	C	0.007146	0.046527	0.717103
C50	C	0.079221	-0.000009	0.677432
C51	C	0.149478	-0.000004	0.677431
C52	C	0.205473	0.000005	0.677433
C53	C	0.677458	-0.238247	0.677441
C54	C	0.677453	-0.319106	0.677443
C55	C	0.677455	-0.384773	0.677438
C56	C	0.677465	-0.467159	0.677432
C57	C	0.677476	-0.532828	0.677430
C58	C	0.677484	-0.615219	0.677425
C59	C	0.880669	-0.000005	0.677431
C60	C	0.949631	-0.000007	0.677430
C61	C	0.677473	-0.000006	0.474247
C62	C	0.677472	-0.000009	0.405288
C63	C	0.677490	0.238253	0.677426
C64	C	0.677496	0.319112	0.677423
C65	C	0.637790	-0.046525	0.412567
C66	C	0.637793	-0.046526	0.347769
C67	C	0.677475	-0.000004	0.275694
C68	C	0.717162	0.046514	0.268417
C69	C	0.717163	0.046509	0.333213
C70	C	0.717160	0.046533	0.007099
C71	C	0.717155	0.046537	-0.057699
C72	C	0.637790	-0.046501	0.021655
C73	C	0.637791	-0.046506	0.086451
C74	C	0.677482	0.000008	0.079169
C75	C	0.677479	0.000007	0.149430
C76	C	0.677473	0.000002	0.205434
C77	C	0.677475	0.000012	0.880619
C78	C	0.677476	0.000015	0.949579
C79	C	0.474296	0.238260	0.677428
C80	C	0.405339	0.319123	0.677426
C81	C	0.474281	0.000019	0.880621
C82	C	0.405319	0.000025	0.949581
C83	C	0.677459	-0.238238	0.880627
C84	C	0.677454	-0.319095	0.949589
C85	C	0.677489	0.238244	0.474240
C86	C	0.677494	0.319101	0.405278
C87	C	0.880667	-0.000013	0.474245
C88	C	0.949629	-0.000019	0.405285
C89	C	0.880653	-0.238254	0.677439
C90	C	0.949610	-0.319117	0.677440
C91	C	0.412636	0.403624	0.637748
C92	C	0.347850	0.479610	0.637749
C93	C	0.275767	0.471093	0.677425
C94	C	0.268471	0.386582	0.717109
C95	C	0.333256	0.310598	0.717111
C96	C	0.333252	0.046558	0.942289
C97	C	0.268449	0.046581	1.007078
C98	C	0.275714	0.000065	1.079159
C99	C	0.347789	-0.046470	1.086450
C100	C	0.412590	-0.046487	1.021662
C101	C	0.637778	-0.310540	1.021656
C102	C	0.637776	-0.386506	1.086459
C103	C	0.677447	-0.471026	1.079193
C104	C	0.717128	-0.479580	1.007119
C105	C	0.717134	-0.403614	0.942317
C106	C	0.717178	0.310546	0.333211
C107	C	0.717200	0.386512	0.268408
C108	C	0.677533	0.471032	0.275673
C109	C	0.637847	0.479586	0.347748
C110	C	0.637830	0.403620	0.412549
C111	C	1.021696	-0.046544	0.412578
C112	C	1.086500	-0.046546	0.347789
C113	C	1.079234	-0.000028	0.275707
C114	C	1.007160	0.046504	0.268416
C115	C	0.942358	0.046510	0.333205
C116	C	1.021680	-0.310571	0.637756
C117	C	1.086479	-0.386542	0.637743
C118	C	1.079205	-0.471059	0.677418
C119	C	1.007127	-0.479603	0.717103
C120	C	0.942330	-0.403632	0.717112
H121	H	0.001213	0.084419	0.749408
H122	H	0.222942	0.000086	1.131908
C123	C	0.760844	0.097638	0.325211
H124	H	0.755178	0.090954	0.374124
H125	H	0.741282	0.158853	0.298288
H126	H	0.813042	0.074623	0.298293
C127	C	0.325219	0.217651	0.760750
H128	H	0.273009	0.223470	0.784369
H129	H	0.348842	0.186062	0.798300
H130	H	0.348836	0.186085	0.726495
H131	H	0.605479	-0.084412	0.471250
H132	H	0.605460	-0.379526	1.145139
C133	C	0.760763	-0.572552	0.999132
H134	H	0.784403	-0.566777	0.946931
H135	H	0.726509	-0.604118	1.022770
H136	H	0.798310	-0.604116	1.022762
H137	H	0.749441	-0.410592	0.883639
H138	H	0.605480	-0.084406	0.353702
C139	C	0.760825	0.217583	0.325204
H140	H	0.784468	0.223381	0.272998
H141	H	0.726583	0.186005	0.348825
H142	H	0.798370	0.186018	0.348835
H143	H	0.353806	0.548415	0.605431
H144	H	0.605510	0.410596	0.471228
H145	H	1.145179	-0.084441	0.353740
H146	H	0.223021	0.532971	0.677417
C147	C	0.189177	0.377225	0.760741
H148	H	0.151645	0.434585	0.755044
H149	H	0.183476	0.345660	0.812944
H150	H	0.183488	0.345668	0.741136
H151	H	0.749516	0.379530	0.209728
C152	C	0.325249	0.097732	0.863006
H153	H	0.374160	0.091058	0.825458
H154	H	0.298334	0.158939	0.857322
H155	H	0.298321	0.074757	0.857325
H156	H	0.209765	0.084420	0.749418
C157	C	0.999132	-0.572571	0.760747
H158	H	0.946930	-0.566790	0.784383
H159	H	1.022768	-0.604135	0.798285
H160	H	1.022759	-0.604141	0.726494
C161	C	0.677545	0.554586	0.204387
H162	H	0.706855	0.537378	0.160428
H163	H	0.698789	0.588967	0.204368
H164	H	0.626991	0.588952	0.204380
C165	C	-0.136931	0.097704	0.760750
H166	H	-0.174479	0.091033	0.755076
H167	H	-0.142615	0.158911	0.741156
H168	H	-0.142613	0.074725	0.812953
C169	C	1.165754	-0.377128	0.594097
H170	H	1.160800	-0.315911	0.570483
H171	H	1.192687	-0.404820	0.556541
H172	H	1.192679	-0.404833	0.628349
H173	H	0.209769	0.084475	1.001126
H174	H	1.001255	0.084378	0.209719
C175	C	0.355771	-0.097641	1.165741
H176	H	0.306852	-0.090970	1.203277
H177	H	0.382694	-0.074681	1.171440
H178	H	0.382680	-0.158855	1.171430
H179	H	0.471268	-0.084385	1.027610
C180	C	0.594210	0.572560	0.355730
H181	H	0.599901	0.616570	0.306811
H182	H	0.613793	0.579242	0.382651
H183	H	0.542003	0.579233	0.382641
C184	C	0.594139	-0.217577	1.029663
H185	H	0.570519	-0.223375	1.081868
H186	H	0.556590	-0.186001	1.006041
H187	H	0.628396	-0.186010	1.006032
C188	C	0.677428	-0.554580	1.150480
H189	H	0.648108	-0.537372	1.194438
H190	H	0.727974	-0.588960	1.150495
H191	H	0.656172	-0.588947	1.150491
H192	H	1.027617	-0.241760	0.605447
C193	C	1.029703	-0.097720	0.491859
H194	H	1.081909	-0.125419	0.486912
H195	H	1.006078	-0.141747	0.518786
H196	H	1.006076	-0.057557	0.518784
H197	H	1.132006	-0.000040	0.222959
H198	H	0.883680	0.084394	0.327256
H199	H	1.131973	-0.532912	0.677404
H200	H	0.883650	-0.410603	0.749432
C201	C	0.491919	0.413011	0.594110
H202	H	0.486976	0.474225	0.570491
H203	H	0.518852	0.385312	0.556559
H204	H	0.518837	0.385304	0.628369
H205	H	0.327308	0.084434	0.749414
H206	H	0.027642	-0.084422	0.605442
H207	H	0.353732	-0.084417	0.605462
C208	C	0.165781	-0.097665	0.594070
H209	H	0.203330	-0.090997	0.599745
H210	H	0.171432	-0.074655	0.541877
H211	H	0.171494	-0.158883	0.613639
C212	C	0.491883	-0.097702	0.594120
H213	H	0.486940	-0.125406	0.570484
H214	H	0.518807	-0.141725	0.628369
H215	H	0.518810	-0.057540	0.556570
H216	H	0.605474	-0.084377	0.027578
C217	C	0.594144	-0.097683	0.165730
H218	H	0.570517	-0.125395	0.160785
H219	H	0.556600	-0.057531	0.192662
H220	H	0.628399	-0.141715	0.192651
H221	H	0.749465	0.084424	0.001159
C222	C	0.760815	0.097704	-0.136983
H223	H	0.784460	0.125397	-0.132041
H224	H	0.726573	0.141734	-0.163912
H225	H	0.798358	0.057534	-0.163904
H226	H	0.749476	0.084387	0.209727
