data_functionalizedCrystal
_audit_creation_method	'MofGen! by Chris Wilmer'
_symmetry_space_group_name_H-M	'P1'
_symmetry_Int_Tables_number	1
_symmetry_cell_setting	triclinic
loop_
_symmetry_equiv_pos_as_xyz
  x,y,z
_cell_length_a	14.908308
_cell_length_b	14.908780
_cell_length_c	18.215405
_cell_angle_alpha	93.313839
_cell_angle_beta	86.737442
_cell_angle_gamma	90.212689
loop_
_atom_site_label
_atom_site_type_symbol
_atom_site_fract_x
_atom_site_fract_y
_atom_site_fract_z
Zn1	Zn	-0.587844	-1.345289	0.257435
Zn2	Zn	-0.437475	-1.353859	0.373032
Zn3	Zn	-0.428812	-1.203603	0.256635
Zn4	Zn	-0.579091	-1.194884	0.387120
O5	O	-0.508305	-1.274409	0.318555
O6	O	-0.575186	-1.472254	0.267208
O7	O	-0.310503	-1.341163	0.351361
O8	O	-0.449945	-1.222460	0.153756
O9	O	-0.464710	-1.478550	0.352136
O10	O	-0.566786	-1.326557	0.154344
O11	O	-0.304138	-1.230770	0.265845
O12	O	-0.441458	-1.076618	0.279505
O13	O	-0.706075	-1.207600	0.376147
O14	O	-0.551868	-1.070212	0.375372
O15	O	-0.712506	-1.318102	0.280869
O16	O	-0.456223	-1.332708	0.477886
O17	O	-0.560268	-1.215910	0.488236
C18	C	-0.494773	-1.040789	0.328881
C19	C	-0.489006	-0.940845	0.333317
C20	C	-0.593381	-0.746470	0.253355
C21	C	-0.587965	-0.652563	0.257521
C22	C	-0.472753	-0.659122	0.345810
C23	C	-0.478169	-0.753029	0.341644
C24	C	-0.538486	-0.796699	0.295416
C25	C	-0.543907	-0.890608	0.291255
C26	C	-0.428690	-0.897166	0.379539
C27	C	-0.423274	-0.803259	0.383705
C28	C	-0.742827	-1.260922	0.330169
C29	C	-0.842766	-1.255175	0.335118
C30	C	-1.037260	-1.359439	0.245187
C31	C	-1.131161	-1.354042	0.249834
C32	C	-1.124472	-1.238980	0.349056
C33	C	-1.030571	-1.244377	0.344409
C34	C	-0.986968	-1.304610	0.292473
C35	C	-0.893065	-1.310011	0.287830
C36	C	-0.886377	-1.194945	0.387047
C37	C	-0.980279	-1.189548	0.391695
C38	C	-0.274700	-1.287894	0.306932
C39	C	-0.174771	-1.293816	0.301768
C40	C	-0.508257	-1.274316	0.509764
C41	C	-0.508271	-1.274357	0.591561
C42	C	-0.521884	-0.508941	0.308184
C43	C	-0.527654	-0.608885	0.303747
C44	C	-0.508376	-1.274525	0.126600
C45	C	-0.508405	-1.274574	0.044801
C46	C	-0.454208	-1.335303	0.774341
C47	C	-0.454232	-1.335342	0.851199
C48	C	-0.562474	-1.213626	0.862016
C49	C	-0.562454	-1.213592	0.785160
C50	C	-0.508316	-1.274429	0.741324
C51	C	-0.508360	-1.274502	0.895038
C52	C	-0.508387	-1.274544	0.978371
C53	C	-0.508291	-1.274389	0.657985
H54	H	-0.383997	-0.938073	0.413795
O55	O	-0.602592	-0.933068	0.246459
C56	C	-0.663698	-0.984067	0.288886
H57	H	-0.667497	-0.955434	0.348380
H58	H	-0.639997	-1.056829	0.286854
C59	C	-0.752663	-1.015336	0.184538
C60	C	-0.757335	-0.980162	0.257608
H61	H	-0.810422	-1.012931	0.165243
H62	H	-0.711494	-0.980979	0.155953
H63	H	-0.732909	-1.075967	0.182855
H64	H	-0.777077	-0.919529	0.259289
H65	H	-0.798510	-1.014509	0.286193
H66	H	-1.172106	-1.398688	0.211327
H67	H	-1.015793	-1.140506	0.433977
O68	O	-0.614971	-1.154559	0.904708
C69	C	-0.603403	-1.167653	0.979625
H70	H	-0.535751	-1.201156	0.985387
H71	H	-0.659553	-1.212429	1.001911
C72	C	-0.689391	-1.035065	1.016492
C73	C	-0.606297	-1.076207	1.023570
H74	H	-0.691180	-0.978658	1.043602
H75	H	-0.697188	-1.026244	0.966020
H76	H	-0.736174	-1.072387	1.035064
H77	H	-0.559516	-1.038890	1.004990
H78	H	-0.598491	-1.085020	1.074041
O79	O	-0.364612	-0.760977	0.428624
C80	C	-0.317342	-0.825451	0.464873
H81	H	-0.318151	-0.892578	0.431605
H82	H	-0.350731	-0.833538	0.521985
C83	C	-0.218516	-0.711832	0.513120
C84	C	-0.219504	-0.794276	0.472256
H85	H	-0.158166	-0.692601	0.517678
H86	H	-0.250365	-0.668393	0.488701
H87	H	-0.246345	-0.718581	0.560709
H88	H	-0.191686	-0.787523	0.424665
H89	H	-0.187648	-0.837713	0.496667
O90	O	-0.837435	-1.141806	0.433011
C91	C	-0.786088	-1.196095	0.475607
H92	H	-0.775969	-1.265059	0.445941
H93	H	-0.822837	-1.203866	0.531497
C94	C	-0.706452	-1.067035	0.523151
C95	C	-0.694018	-1.151736	0.486711
H96	H	-0.649661	-1.039672	0.530004
H97	H	-0.741048	-1.030459	0.494455
H98	H	-0.737080	-1.073523	0.569722
H99	H	-0.663401	-1.145247	0.440138
H100	H	-0.659415	-1.188311	0.515399
H101	H	-1.001758	-1.408487	0.202903
O102	O	-0.401601	-1.394488	0.731867
C103	C	-0.353833	-1.448210	0.777494
H104	H	-0.390859	-1.449198	0.833950
H105	H	-0.283616	-1.419272	0.783789
C106	C	-0.301014	-1.543434	0.673225
C107	C	-0.346495	-1.544653	0.742564
H108	H	-0.296483	-1.602924	0.651679
H109	H	-0.333193	-1.507239	0.642485
H110	H	-0.242505	-1.519315	0.678481
H111	H	-0.405006	-1.568761	0.737307
H112	H	-0.314325	-1.580855	0.773303
H113	H	-0.410174	-1.384913	0.878077
O114	O	-0.614993	-1.154541	0.752963
C115	C	-0.603351	-1.167546	0.675728
H116	H	-0.577979	-1.238649	0.660673
H117	H	-0.552332	-1.116999	0.653955
C118	C	-0.724988	-1.066655	0.659602
C119	C	-0.693833	-1.153988	0.641110
H120	H	-0.780800	-1.058288	0.638246
H121	H	-0.732830	-1.057890	0.711636
H122	H	-0.682464	-1.024543	0.641456
H123	H	-0.736351	-1.196098	0.659264
H124	H	-0.686000	-1.162760	0.589077
O125	O	-0.651998	-0.788755	0.208397
C126	C	-0.699313	-0.724282	0.172185
H127	H	-0.658629	-0.659451	0.170730
H128	H	-0.766961	-0.710375	0.203048
C129	C	-0.764542	-0.839841	0.094689
C130	C	-0.714569	-0.760217	0.092897
H131	H	-0.773957	-0.862008	0.045781
H132	H	-0.732668	-0.883279	0.119087
H133	H	-0.820910	-0.828241	0.120412
H134	H	-0.658199	-0.771820	0.067182
H135	H	-0.746435	-0.716782	0.068492
O136	O	-0.641163	-0.603736	0.216583
C137	C	-0.586944	-0.552341	0.168880
H138	H	-0.517769	-0.584695	0.159485
H139	H	-0.579694	-0.481342	0.194633
C140	C	-0.715920	-0.508667	0.106215
C141	C	-0.630960	-0.548409	0.094671
H142	H	-0.743071	-0.506237	0.060440
H143	H	-0.752449	-0.543289	0.138354
H144	H	-0.709866	-0.449505	0.127677
H145	H	-0.637016	-0.607573	0.073217
H146	H	-0.594433	-0.513796	0.062525
O147	O	-0.414214	-0.616785	0.390809
C148	C	-0.435040	-0.638556	0.464135
H149	H	-0.473530	-0.704761	0.464399
H150	H	-0.478168	-0.583048	0.493603
C151	C	-0.300262	-0.566573	0.503748
C152	C	-0.347529	-0.647891	0.504071
H153	H	-0.246283	-0.572328	0.528384
H154	H	-0.286232	-0.551902	0.454347
H155	H	-0.336212	-0.520324	0.528303
H156	H	-0.311584	-0.694136	0.479508
H157	H	-0.361551	-0.662570	0.553469
O158	O	-1.166980	-1.180538	0.399471
C159	C	-1.260642	-1.187510	0.393408
H160	H	-1.277493	-1.256184	0.366882
H161	H	-1.284200	-1.132675	0.357879
C162	C	-1.287672	-1.092084	0.503194
C163	C	-1.308369	-1.176434	0.470619
H164	H	-1.317114	-1.085248	0.550820
H165	H	-1.224570	-1.087384	0.507277
H166	H	-1.307304	-1.046398	0.473579
H167	H	-1.288727	-1.222119	0.500229
H168	H	-1.371469	-1.181142	0.466543
H169	H	-0.857565	-1.359056	0.245542
