data_functionalizedCrystal
_audit_creation_method	'MofGen! by Chris Wilmer'
_symmetry_space_group_name_H-M	'P1'
_symmetry_Int_Tables_number	1
_symmetry_cell_setting	triclinic
loop_
_symmetry_equiv_pos_as_xyz
  x,y,z
_cell_length_a	27.731993
_cell_length_b	26.210047
_cell_length_c	16.992695
_cell_angle_alpha	89.995910
_cell_angle_beta	93.355692
_cell_angle_gamma	90.004884
loop_
_atom_site_label
_atom_site_type_symbol
_atom_site_fract_x
_atom_site_fract_y
_atom_site_fract_z
O1	O	0.644976	0.042292	-0.093047
O2	O	1.144976	0.542292	0.406953
O3	O	0.504794	0.042323	-0.107271
O4	O	1.004794	0.542323	0.392729
O5	O	0.574323	0.042303	0.013977
O6	O	1.074323	0.542303	0.513977
O7	O	0.575447	0.042311	-0.214294
O8	O	1.075447	0.542311	0.285706
O9	O	0.574299	-0.042555	0.013977
O10	O	1.074299	0.457445	0.513977
O11	O	0.504770	-0.042535	-0.107271
O12	O	1.004770	0.457465	0.392729
O13	O	0.644953	-0.042566	-0.093047
O14	O	1.144953	0.457434	0.406953
Cu15	Cu	0.574859	-0.050299	-0.100159
Cu16	Cu	1.074859	0.449701	0.399841
Cu17	Cu	0.574887	0.050055	-0.100159
Cu18	Cu	1.074887	0.550055	0.399841
O19	O	0.575423	-0.042547	-0.214295
O20	O	1.075423	0.457453	0.285705
C21	C	0.486762	-0.000102	-0.106979
C22	C	0.986762	0.499898	0.393021
C23	C	0.433068	-0.000091	-0.106100
C24	C	0.933068	0.499909	0.393900
N25	N	0.574843	-0.120883	-0.100158
N26	N	1.074843	0.379117	0.399842
C27	C	0.049645	0.046141	-0.099727
C28	C	0.549645	0.546141	0.400273
C29	C	0.251447	0.046155	-0.103078
C30	C	0.751447	0.546155	0.396922
O31	O	0.277548	0.085495	-0.103480
O32	O	0.777548	0.585495	0.396520
N33	N	0.276673	-0.000101	-0.103497
N34	N	0.776673	0.499899	0.396503
C35	C	0.251445	-0.046362	-0.103074
C36	C	0.751445	0.453638	0.396926
O37	O	0.277532	-0.085705	-0.103499
O38	O	0.777532	0.414295	0.396501
C39	C	0.049644	-0.046376	-0.099717
C40	C	0.549644	0.453624	0.400283
C41	C	0.024420	-0.000118	-0.099306
C42	C	0.524420	0.499882	0.400694
C43	C	0.024421	0.092395	-0.099315
C44	C	0.524421	0.592395	0.400685
C45	C	-0.026026	0.092391	-0.098481
C46	C	0.473974	0.592391	0.401519
C47	C	-0.051251	0.046133	-0.098060
C48	C	0.448749	0.546133	0.401940
C49	C	-0.026027	-0.000122	-0.098472
C50	C	0.473973	0.499878	0.401528
C51	C	0.024417	-0.092637	-0.099288
C52	C	0.524417	0.407363	0.400712
C53	C	-0.026036	-0.092636	-0.098446
C54	C	0.473964	0.407364	0.401554
C55	C	-0.051260	-0.046378	-0.098035
C56	C	0.448740	0.453622	0.401965
C57	C	-0.101699	-0.046384	-0.097217
C58	C	0.398301	0.453616	0.402783
N59	N	-0.126925	-0.000129	-0.096798
N60	N	0.373075	0.499871	0.403202
C61	C	-0.101701	0.046129	-0.097219
C62	C	0.398299	0.546129	0.402781
C63	C	0.357393	-0.046352	-0.104838
C64	C	0.857393	0.453648	0.395162
C65	C	0.407843	-0.046349	-0.105678
C66	C	0.907843	0.453651	0.394322
C67	C	0.407842	0.046168	-0.105681
C68	C	0.907842	0.546168	0.394319
C69	C	0.357391	0.046165	-0.104846
C70	C	0.857391	0.546165	0.395154
C71	C	0.332168	-0.000097	-0.104418
C72	C	0.832168	0.499903	0.395582
C73	C	-0.207645	0.046118	-0.095470
C74	C	0.292355	0.546118	0.404530
C75	C	-0.258097	0.046110	-0.094639
C76	C	0.241903	0.546110	0.405361
C77	C	-0.258091	-0.046407	-0.094632
C78	C	0.241909	0.453593	0.405368
C79	C	-0.207643	-0.046399	-0.095467
C80	C	0.292357	0.453601	0.404533
C81	C	-0.182421	-0.000133	-0.095883
C82	C	0.317579	0.499867	0.404117
O83	O	-0.127832	-0.085703	-0.096806
O84	O	0.372168	0.414297	0.403194
O85	O	-0.127796	0.085466	-0.096776
O86	O	0.372204	0.585466	0.403224
C87	C	0.100092	0.046145	-0.100560
C88	C	0.600092	0.546145	0.399440
C89	C	0.125316	-0.000110	-0.100972
C90	C	0.625316	0.499890	0.399028
C91	C	0.100091	-0.046368	-0.100551
C92	C	0.600091	0.453632	0.399449
C93	C	0.175766	-0.000107	-0.101813
C94	C	0.675766	0.499893	0.398187
C95	C	0.200990	0.046152	-0.102234
C96	C	0.700990	0.546152	0.397766
C97	C	0.175765	0.092407	-0.101815
C98	C	0.675765	0.592407	0.398185
C99	C	0.125317	0.092403	-0.100982
C100	C	0.625317	0.592403	0.399018
C101	C	0.125317	-0.092623	-0.100971
C102	C	0.625317	0.407377	0.399029
C103	C	0.175765	-0.092615	-0.101805
C104	C	0.675765	0.407385	0.398195
C105	C	0.200989	-0.046357	-0.102226
C106	C	0.700989	0.453643	0.397774
C107	C	0.606020	-0.473402	-0.147347
C108	C	1.106020	0.026598	0.352653
C109	C	0.606034	-0.687061	-0.147346
C110	C	1.106034	-0.187061	0.352654
O111	O	0.632530	-0.714687	-0.187459
O112	O	1.132530	-0.214687	0.312541
N113	N	0.574898	-0.713777	-0.100151
N114	N	1.074898	-0.213777	0.399849
C115	C	0.543758	-0.687075	-0.052948
C116	C	1.043758	-0.187075	0.447052
O117	O	0.517279	-0.714701	-0.012800
O118	O	1.017279	-0.214701	0.487200
C119	C	0.543747	-0.473417	-0.052945
C120	C	1.043747	0.026583	0.447055
C121	C	0.574882	-0.446704	-0.100150
C122	C	1.074882	0.053296	0.399850
C123	C	0.637153	-0.446689	-0.194547
C124	C	1.137153	0.053311	0.305453
C125	C	0.637147	-0.393277	-0.194550
C126	C	1.137147	0.106723	0.305450
C127	C	0.606008	-0.366579	-0.147353
C128	C	1.106008	0.133421	0.352647
C129	C	0.574876	-0.393293	-0.100153
C130	C	1.074876	0.106707	0.399847
C131	C	0.512610	-0.446717	-0.005739
C132	C	1.012610	0.053283	0.494261
C133	C	0.512611	-0.393299	-0.005741
C134	C	1.012611	0.106701	0.494259
C135	C	0.543746	-0.366586	-0.052946
C136	C	1.043746	0.133414	0.447054
C137	C	0.543732	-0.313183	-0.052959
C138	C	1.043732	0.186817	0.447041
N139	N	0.574868	-0.286467	-0.100154
N140	N	1.074868	0.213533	0.399846
C141	C	0.606006	-0.313165	-0.147351
C142	C	1.106006	0.186835	0.352649
C143	C	0.543766	-0.799248	-0.052954
C144	C	1.043766	-0.299248	0.447046
C145	C	0.543768	-0.852663	-0.052956
C146	C	1.043768	-0.352663	0.447044
C147	C	0.606045	-0.852645	-0.147353
C148	C	1.106045	-0.352645	0.352647
C149	C	0.606040	-0.799230	-0.147355
C150	C	1.106040	-0.299230	0.352645
C151	C	0.574902	-0.772532	-0.100150
C152	C	1.074902	-0.272532	0.399850
C153	C	0.605992	-0.200997	-0.147354
C154	C	1.105992	0.299003	0.352646
C155	C	0.605982	-0.147581	-0.147355
C156	C	1.105982	0.352419	0.352645
C157	C	0.543707	-0.147604	-0.052956
C158	C	1.043707	0.352396	0.447044
C159	C	0.543715	-0.201015	-0.052957
C160	C	1.043715	0.298985	0.447043
C161	C	0.574861	-0.227711	-0.100159
C162	C	1.074861	0.272289	0.399841
O163	O	0.517254	-0.285524	-0.012860
O164	O	1.017254	0.214476	0.487140
O165	O	0.632489	-0.285530	-0.187481
O166	O	1.132489	0.214470	0.312519
C167	C	0.606026	-0.526814	-0.147344
C168	C	1.106026	-0.026814	0.352656
C169	C	0.574893	-0.553527	-0.100144
C170	C	1.074893	-0.053527	0.399856
C171	C	0.543755	-0.526829	-0.052947
C172	C	1.043755	-0.026829	0.447053
C173	C	0.574895	-0.606941	-0.100146
C174	C	1.074895	-0.106941	0.399854
C175	C	0.606034	-0.633639	-0.147343
C176	C	1.106034	-0.133639	0.352657
C177	C	0.637170	-0.606923	-0.194538
C178	C	1.137170	-0.106923	0.305462
C179	C	0.637164	-0.553512	-0.194541
C180	C	1.137164	-0.053512	0.305459
C181	C	0.512619	-0.553545	-0.005752
C182	C	1.012619	-0.053545	0.494248
C183	C	0.512627	-0.606957	-0.005753
C184	C	1.012627	-0.106957	0.494247
C185	C	0.543765	-0.633655	-0.052950
C186	C	1.043765	-0.133655	0.447050
C187	C	0.662984	-0.000140	-0.093339
C188	C	1.162984	0.499860	0.406661
C189	C	0.716679	-0.000149	-0.094218
C190	C	1.216679	0.499851	0.405782
C191	C	0.572865	-0.000125	0.043171
C192	C	1.072865	0.499875	0.543171
C193	C	0.568551	-0.000124	0.130162
C194	C	1.068551	0.499876	0.630162
N195	N	0.574906	0.120639	-0.100153
N196	N	1.074906	0.620639	0.399847
C197	C	0.576881	-0.000117	-0.243489
C198	C	1.076881	0.499883	0.256511
C199	C	0.581195	-0.000115	-0.330480
C200	C	1.081195	0.499885	0.169520
C201	C	0.610175	-0.000134	0.180920
C202	C	1.110175	0.499866	0.680920
C203	C	0.606119	-0.000128	0.262656
C204	C	1.106119	0.499872	0.762656
C205	C	0.560438	-0.000116	0.293633
C206	C	1.060438	0.499884	0.793633
C207	C	0.518811	-0.000105	0.242868
C208	C	1.018811	0.499895	0.742868
C209	C	0.522868	-0.000107	0.161134
C210	C	1.022868	0.499893	0.661134
C211	C	0.543625	-0.000106	0.537021
C212	C	1.043625	0.499894	1.037021
C213	C	0.539571	-0.000105	0.618762
C214	C	1.039571	0.499895	1.118762
C215	C	0.626879	-0.000127	0.638545
C216	C	1.126879	0.499873	1.138545
C217	C	0.630932	-0.000133	0.556808
C218	C	1.130932	0.499867	1.056808
C219	C	0.589305	-0.000119	0.506050
C220	C	1.089305	0.499881	1.006050
N221	N	0.556291	-0.000112	0.377180
N222	N	1.056291	0.499888	0.877180
N223	N	0.593453	-0.000119	0.422505
N224	N	1.093453	0.499881	0.922505
H225	H	-0.278632	0.083780	-0.094307
H226	H	0.221368	0.583780	0.405693
F227	F	0.499321	-0.000090	0.483012
F228	F	0.999321	0.499910	0.983012
H229	H	0.660769	-0.000138	0.679880
H230	H	1.160769	0.499862	1.179880
H231	H	0.481617	-0.000092	0.268096
H232	H	0.981617	0.499908	0.768096
H233	H	0.488974	-0.000099	0.119806
H234	H	0.988974	0.499901	0.619806
H235	H	0.336857	0.083832	-0.104511
H236	H	0.836857	0.583832	0.395489
H237	H	0.104785	-0.130293	-0.100624
H238	H	0.604785	0.369707	0.399376
H239	H	0.518354	-0.125856	-0.014531
H240	H	1.018354	0.374144	0.485469
F241	F	0.670300	-0.525088	-0.244787
F242	F	1.170300	-0.025088	0.255213
F243	F	0.490949	-0.000095	0.651727
F244	F	0.990949	0.499905	1.151727
F245	F	0.670297	-0.475095	-0.244785
F246	F	1.170297	0.024905	0.255215
F247	F	0.658795	-0.000152	0.147960
F248	F	1.158795	0.499848	0.647960
H249	H	0.631397	-0.874391	-0.185786
H250	H	1.131397	-0.374391	0.314214
F251	F	0.670308	-0.635347	-0.244772
F252	F	1.170308	-0.135347	0.255228
H253	H	0.631335	-0.125834	-0.185799
H254	H	1.131335	0.374166	0.314201
F255	F	0.639141	-0.229401	-0.197591
F256	F	1.139141	0.270599	0.302409
F257	F	0.479472	-0.364889	0.044508
F258	F	0.979472	0.135111	0.544508
H259	H	0.631392	-0.777483	-0.185794
H260	H	1.131392	-0.277483	0.314206
H261	H	-0.187115	0.083792	-0.095809
H262	H	0.312885	0.583792	0.404191
F263	F	0.510574	-0.229446	-0.002725
F264	F	1.010574	0.270554	0.497275
F265	F	0.510624	-0.881087	-0.002726
F266	F	1.010624	-0.381087	0.497274
F267	F	0.051251	-0.141872	-0.099725
F268	F	0.551251	0.358128	0.400275
F269	F	0.479484	-0.635381	0.044487
F270	F	0.979484	-0.135381	0.544487
F271	F	0.510616	-0.770842	-0.002720
F272	F	1.010616	-0.270842	0.497280
F273	F	0.202604	-0.141853	-0.102249
F274	F	0.702604	0.358147	0.397751
F275	F	0.330555	-0.095593	-0.104391
F276	F	0.830555	0.404407	0.395609
F277	F	-0.180798	-0.095632	-0.095915
F278	F	0.319202	0.404368	0.404085
F279	F	0.434682	-0.095583	-0.106131
F280	F	0.934682	0.404417	0.393869
F281	F	0.051259	0.141634	-0.099761
F282	F	0.551259	0.641634	0.400239
F283	F	0.434696	0.095400	-0.106132
F284	F	0.934696	0.595400	0.393868
F285	F	-0.052865	0.141626	-0.098038
F286	F	0.447135	0.641626	0.401962
H287	H	0.487257	-0.468457	0.032701
H288	H	0.987257	0.031543	0.532701
F289	F	0.479470	-0.525138	0.044476
F290	F	0.979470	-0.025138	0.544476
F291	F	-0.052877	-0.141876	-0.097986
F292	F	0.447123	0.358124	0.402014
F293	F	0.650421	-0.000140	0.316674
F294	F	1.150421	0.499860	0.816674
F295	F	0.098478	0.141638	-0.100543
F296	F	0.598478	0.641638	0.399457
F297	F	-0.284946	-0.095636	-0.094187
F298	F	0.215054	0.404364	0.405813
F299	F	0.670279	-0.364854	-0.244802
F300	F	1.170279	0.135146	0.255198
F301	F	0.202619	0.141638	-0.102267
F302	F	0.702619	0.641638	0.397733
H303	H	0.668130	-0.000142	0.531593
H304	H	1.168130	0.499858	1.031593
