data_functionalizedCrystal
_audit_creation_method	'MofGen! by Chris Wilmer'
_symmetry_space_group_name_H-M	'P1'
_symmetry_Int_Tables_number	1
_symmetry_cell_setting	triclinic
loop_
_symmetry_equiv_pos_as_xyz
  x,y,z
_cell_length_a	18.215407
_cell_length_b	10.685194
_cell_length_c	18.215399
_cell_angle_alpha	85.600793
_cell_angle_beta	89.985195
_cell_angle_gamma	94.371669
loop_
_atom_site_label
_atom_site_type_symbol
_atom_site_fract_x
_atom_site_fract_y
_atom_site_fract_z
Zn1	Zn	1.102671	-0.502575	-0.393612
Zn2	Zn	1.093188	-0.713625	-0.261112
Zn3	Zn	0.979609	-0.502603	-0.270563
Zn4	Zn	0.970176	-0.713524	-0.384146
O5	O	1.036411	-0.608082	-0.327358
O6	O	1.204396	-0.530601	-0.376042
O7	O	1.078101	-0.685687	-0.159379
O8	O	1.003850	-0.326003	-0.294802
O9	O	1.197429	-0.685659	-0.278695
O10	O	1.094263	-0.325982	-0.385206
O11	O	0.994654	-0.530650	-0.166322
O12	O	0.875375	-0.530552	-0.285623
O13	O	0.987773	-0.685487	-0.488388
O14	O	0.868445	-0.685515	-0.369072
O15	O	1.085117	-0.530503	-0.495343
O16	O	1.068954	-0.890208	-0.269516
O17	O	0.978578	-0.890134	-0.359909
C18	C	0.845207	-0.608026	-0.327346
C19	C	0.763408	-0.608033	-0.327357
C20	C	0.501964	-0.527499	-0.378115
C21	C	0.578823	-0.527478	-0.378114
C22	C	0.571598	-0.688706	-0.276616
C23	C	0.494740	-0.688731	-0.276621
C24	C	0.459925	-0.608121	-0.327370
C25	C	0.613643	-0.608074	-0.327363
C26	C	0.696978	-0.608053	-0.327361
C27	C	0.376585	-0.608144	-0.327373
C28	C	1.021734	-0.935961	-0.312676
C29	C	1.015522	-1.076229	-0.306419
C30	C	1.228362	-0.608138	-0.327371
C31	C	1.310159	-0.608163	-0.327376
C32	C	1.036450	-0.607981	-0.519316
C33	C	1.036467	-0.607938	-0.601117
C34	C	1.051166	-0.278922	-0.342114
C35	C	1.057454	-0.138654	-0.348402
C36	C	0.993059	-0.527156	-0.792929
C37	C	0.993073	-0.527130	-0.869789
C38	C	1.079970	-0.688570	-0.862549
C39	C	1.079952	-0.688601	-0.785690
C40	C	1.036498	-0.607886	-0.750882
C41	C	1.036530	-0.607830	-0.904601
C42	C	1.036545	-0.607803	-0.987936
C43	C	1.036481	-0.607915	-0.667542
C44	C	1.036419	-0.608091	-0.136152
C45	C	1.036560	-0.607779	-0.054367
H46	H	0.473620	-0.461860	-0.419438
O47	O	1.122219	-0.767067	-0.744953
C48	C	1.160567	-0.838316	-0.792153
H49	H	1.165449	-0.786607	-0.849261
H50	H	1.129324	-0.934150	-0.796026
C51	C	1.232071	-0.920047	-0.691197
C52	C	1.238072	-0.856533	-0.761336
H53	H	1.279879	-0.931290	-0.672186
H54	H	1.206233	-0.872050	-0.659396
H55	H	1.206032	-0.999902	-0.694434
H56	H	1.264102	-0.776674	-0.758096
H57	H	1.263916	-0.904517	-0.793135
H58	H	0.957700	-0.461392	-0.904021
O59	O	0.605340	-0.766940	-0.227218
C60	C	0.587783	-0.739200	-0.155139
H61	H	0.534143	-0.690702	-0.155835
H62	H	0.633928	-0.674258	-0.133313
C63	C	0.644610	-0.921707	-0.104090
C64	C	0.578726	-0.862150	-0.104944
H65	H	0.639026	-0.997546	-0.073126
H66	H	0.656441	-0.940394	-0.152651
H67	H	0.683058	-0.867575	-0.085903
H68	H	0.540282	-0.916275	-0.123139
H69	H	0.566888	-0.843474	-0.056385
O70	O	0.950775	-0.448724	-0.759232
C71	C	0.912451	-0.377445	-0.812830
H72	H	0.907604	-0.429113	-0.865298
H73	H	0.943693	-0.281600	-0.825304
C74	C	0.840885	-0.295801	-0.719207
C75	C	0.834927	-0.359266	-0.783647
H76	H	0.793066	-0.284581	-0.701206
H77	H	0.866706	-0.343819	-0.683097
H78	H	0.866923	-0.215937	-0.729612
H79	H	0.808898	-0.439134	-0.773240
H80	H	0.809099	-0.311261	-0.819756
H81	H	1.115350	-0.754283	-0.890898
O82	O	0.619684	-0.449339	-0.427476
C83	C	0.660960	-0.521265	-0.471710
H84	H	0.633364	-0.620674	-0.471716
H85	H	0.719011	-0.525548	-0.448759
C86	C	0.698800	-0.337665	-0.551017
C87	C	0.664903	-0.459758	-0.551029
H88	H	0.701236	-0.299724	-0.599944
H89	H	0.670994	-0.289206	-0.521214
H90	H	0.747172	-0.341252	-0.531887
H91	H	0.616528	-0.456169	-0.570150
H92	H	0.692701	-0.508216	-0.580837
O93	O	1.105943	-1.074210	-0.396934
C94	C	1.101555	-0.943810	-0.392598
H95	H	1.078267	-0.926028	-0.336566
H96	H	1.063974	-0.906401	-0.437865
C97	C	1.207587	-0.897762	-0.471221
C98	C	1.178991	-0.875920	-0.402400
H99	H	1.255352	-0.855882	-0.477271
H100	H	1.210542	-0.985615	-0.474146
H101	H	1.176263	-0.866588	-0.508936
H102	H	1.210309	-0.907108	-0.364687
H103	H	1.176043	-0.788071	-0.399469
H104	H	0.974860	-1.130099	-0.265690
H105	H	0.460510	-0.754391	-0.235298
