data_functionalizedCrystal
_audit_creation_method	'MofGen! by Chris Wilmer'
_symmetry_space_group_name_H-M	'P1'
_symmetry_Int_Tables_number	1
_symmetry_cell_setting	triclinic
loop_
_symmetry_equiv_pos_as_xyz
  x,y,z
_cell_length_a	10.654562
_cell_length_b	13.262508
_cell_length_c	9.130313
_cell_angle_alpha	105.917062
_cell_angle_beta	89.996930
_cell_angle_gamma	84.462496
loop_
_atom_site_label
_atom_site_type_symbol
_atom_site_fract_x
_atom_site_fract_y
_atom_site_fract_z
O1	O	1.667059	0.147483	-0.063139
O2	O	1.301510	0.161515	-0.057531
O3	O	1.493480	0.001776	-0.121170
O4	O	1.475088	0.307222	0.000499
O5	O	1.493478	0.001780	0.122431
O6	O	1.301507	0.161519	0.186069
O7	O	1.667057	0.147487	0.180461
Cu8	Cu	1.484282	0.154503	0.205508
Cu9	Cu	1.484284	0.154498	-0.082578
O10	O	1.475086	0.307226	0.244100
C11	C	1.254716	0.160484	0.063860
C12	C	1.115290	0.157393	0.062636
C13	C	1.049765	0.155954	0.194837
C14	C	0.918758	0.153058	0.193659
C15	C	0.918811	0.153045	-0.071931
C16	C	1.049817	0.155933	-0.070755
C17	C	1.115238	0.157413	0.328227
C18	C	1.049713	0.155975	0.460439
C19	C	0.918706	0.153079	0.459261
C20	C	0.853224	0.151621	0.325871
C21	C	1.492448	-0.037333	-0.014952
C22	C	1.489362	-0.153872	-0.061382
C23	C	1.480649	-0.482380	0.338902
C24	C	1.483539	-0.372885	0.382527
C25	C	1.484995	-0.318126	0.271554
C26	C	1.483560	-0.372873	0.116947
C27	C	1.480660	-0.482378	0.073318
C28	C	1.485006	-0.318125	0.005970
C29	C	1.483571	-0.372872	-0.148637
C30	C	1.480671	-0.482366	-0.192258
C31	C	1.479215	-0.537125	-0.081285
C32	C	1.487907	-0.208620	0.049599
C33	C	1.487917	-0.208618	-0.215985
C34	C	1.485027	-0.318114	-0.259610
C35	C	1.713850	0.148518	0.059067
C36	C	1.853276	0.151609	0.060281
C37	C	1.476118	0.346335	0.137879
C38	C	1.479205	0.462874	0.184299
N39	N	1.484289	0.154506	0.408132
N40	N	1.484287	0.154487	-0.285205
C41	C	1.569315	0.083798	0.456614
C42	C	1.569312	0.083786	0.609946
C43	C	1.399252	0.225199	0.666303
C44	C	1.399250	0.225205	0.512972
C45	C	1.654354	0.013100	0.351774
C46	C	1.739388	-0.057613	0.400255
C47	C	1.739385	-0.057626	0.553586
C48	C	1.654347	0.013074	0.658438
H49	H	1.489064	-0.164054	0.175481
H50	H	1.487347	-0.228970	0.307083
H51	H	0.746549	0.149261	0.324922
H52	H	1.330018	0.282761	0.751682
H53	H	1.479454	-0.526973	0.429240
H54	H	0.865484	0.151861	-0.180530
H55	H	1.484721	-0.328319	0.508407
H56	H	1.489094	-0.164033	-0.306349
H57	H	1.654343	0.013051	0.783286
H58	H	1.476868	-0.626285	-0.116797
C59	C	1.832923	-0.135384	0.284927
C60	C	1.832944	-0.135368	0.116272
C61	C	1.926480	-0.213142	0.000948
C62	C	2.019994	-0.290931	0.054278
C63	C	2.019975	-0.290950	0.222942
C64	C	1.926440	-0.213176	0.338266
H65	H	1.763717	-0.077781	0.076786
H66	H	1.926493	-0.213127	-0.123908
H67	H	2.089234	-0.348504	-0.031092
H68	H	2.089203	-0.348537	0.262428
H69	H	1.926427	-0.213191	0.463122
H70	H	1.479492	-0.526937	-0.318149
H71	H	1.330012	0.282781	0.473499
C72	C	1.121907	0.157522	-0.216169
C73	C	1.117693	0.066141	-0.362126
C74	C	1.189787	0.067725	-0.507544
C75	C	1.266097	0.160690	-0.507006
C76	C	1.270314	0.252079	-0.361044
C77	C	1.198220	0.250495	-0.215626
H78	H	1.061201	-0.002684	-0.362529
H79	H	1.186664	0.000072	-0.615595
H80	H	1.319465	0.161863	-0.614653
H81	H	1.326806	0.320904	-0.360640
H82	H	1.201343	0.318147	-0.107575
H83	H	1.221910	0.159774	0.329202
H84	H	1.654367	0.013105	0.226922
H85	H	1.103039	0.157154	0.569037
H86	H	1.483857	-0.362704	-0.385493
H87	H	1.808615	-0.115210	0.593054
H88	H	0.865361	0.151900	0.566911
