data_functionalizedCrystal
_audit_creation_method	'MofGen! by Chris Wilmer'
_symmetry_space_group_name_H-M	'P1'
_symmetry_Int_Tables_number	1
_symmetry_cell_setting	triclinic
loop_
_symmetry_equiv_pos_as_xyz
  x,y,z
_cell_length_a	16.959454
_cell_length_b	16.959455
_cell_length_c	16.959447
_cell_angle_alpha	89.982031
_cell_angle_beta	89.974537
_cell_angle_gamma	90.017022
loop_
_atom_site_label
_atom_site_type_symbol
_atom_site_fract_x
_atom_site_fract_y
_atom_site_fract_z
Zn1	Zn	-0.314740	1.208412	-0.446928
Zn2	Zn	-0.446930	1.208326	-0.314758
Zn3	Zn	-0.314762	1.076232	-0.314766
Zn4	Zn	-0.446874	1.076205	-0.446897
O5	O	-0.380826	1.142294	-0.380837
O6	O	-0.332290	1.319012	-0.429406
O7	O	-0.429430	1.190779	-0.204148
O8	O	-0.204148	1.093813	-0.332314
O9	O	-0.429409	1.318949	-0.332301
O10	O	-0.204132	1.190925	-0.429413
O11	O	-0.332327	1.093730	-0.204154
O12	O	-0.332273	0.965618	-0.332283
O13	O	-0.429313	1.093768	-0.557512
O14	O	-0.429334	0.965598	-0.429359
O15	O	-0.332235	1.190899	-0.557535
O16	O	-0.557533	1.190753	-0.332270
O17	O	-0.557492	1.093684	-0.429352
C18	C	-0.380800	0.936928	-0.380819
C19	C	-0.380808	0.849071	-0.380830
C20	C	-0.586193	1.142228	-0.380824
C21	C	-0.674049	1.142272	-0.380844
C22	C	-0.330245	0.477581	-0.330395
C23	C	-0.431473	0.477610	-0.431324
C24	C	-0.431462	0.560156	-0.431320
C25	C	-0.380842	0.601418	-0.380851
C26	C	-0.330234	0.560135	-0.330387
C27	C	-0.482075	0.601445	-0.481777
C28	C	-0.482066	0.683996	-0.481773
C29	C	-0.431442	0.725260	-0.431308
C30	C	-0.380831	0.683972	-0.380843
C31	C	-0.330211	0.725234	-0.330374
C32	C	-0.279596	0.683948	-0.279913
C33	C	-0.279610	0.601399	-0.279922
C34	C	-0.431428	0.807809	-0.431299
C35	C	-0.330200	0.807788	-0.330366
C36	C	-1.045533	1.091824	-0.431382
C37	C	-1.045516	1.192985	-0.330373
C38	C	-0.962970	1.192957	-0.330365
C39	C	-0.921702	1.142361	-0.380867
C40	C	-0.962980	1.091793	-0.431375
C41	C	-0.921687	1.243519	-0.279852
C42	C	-0.839136	1.243492	-0.279842
C43	C	-0.797866	1.192900	-0.330348
C44	C	-0.839149	1.142330	-0.380859
C45	C	-0.797880	1.091734	-0.431360
C46	C	-0.839162	1.041168	-0.481876
C47	C	-0.921710	1.041200	-0.481881
C48	C	-0.715318	1.192868	-0.330343
C49	C	-0.715327	1.091704	-0.431353
C50	C	-0.174658	1.142382	-0.380868
C51	C	-0.086802	1.142420	-0.380881
C52	C	-0.380766	1.142340	-0.587006
C53	C	-0.380740	1.142360	-0.674862
C54	C	-0.380853	1.348462	-0.380856
C55	C	-0.380865	1.436319	-0.380864
C56	C	-0.431283	1.192899	-0.716135
C57	C	-0.330176	1.091834	-0.716143
C58	C	-0.330153	1.091848	-0.798689
C59	C	-0.380696	1.142387	-0.839962
C60	C	-0.431263	1.192912	-0.798688
C61	C	-0.279592	1.041318	-0.839969
C62	C	-0.279568	1.041329	-0.922520
C63	C	-0.330108	1.091872	-0.963794
C64	C	-0.380676	1.142400	-0.922515
C65	C	-0.431220	1.192939	-0.963788
C66	C	-0.481785	1.243472	-0.922511
C67	C	-0.481804	1.243456	-0.839963
C68	C	-0.330089	1.091888	-1.046342
C69	C	-0.431200	1.192953	-1.046342
C70	C	-0.380830	1.142294	-0.175471
C71	C	-0.380633	1.142427	-0.087615
H72	H	-0.238385	0.717554	-0.238818
H73	H	-0.522941	1.284618	-0.956126
N74	N	-0.486069	0.433102	-0.485748
H75	H	-0.453996	0.398870	-0.522432
H76	H	-0.518118	0.471828	-0.517664
N77	N	-0.670825	1.037126	-0.485823
H78	H	-0.636621	1.000500	-0.453663
H79	H	-0.636577	1.069266	-0.522469
N80	N	-0.485815	1.247404	-0.671622
H81	H	-0.478250	1.239641	-0.613064
H82	H	-0.542257	1.235168	-0.686132
N83	N	-0.536339	1.297954	-0.795445
H84	H	-0.528766	1.290191	-0.736888
H85	H	-0.592780	1.285710	-0.809949
H86	H	-1.079122	1.234173	-0.289252
H87	H	-0.289030	1.050683	-0.682534
N88	N	-0.275572	1.037378	-1.090860
H89	H	-0.283232	1.045050	-1.149417
H90	H	-0.287897	0.980926	-1.076412
H91	H	-0.289033	0.443962	-0.289313
N92	N	-0.966197	1.298090	-0.225393
H93	H	-0.927522	1.330117	-0.193391
H94	H	-1.000493	1.265951	-0.188791
N95	N	-0.966233	0.986662	-0.536357
H96	H	-1.024789	0.994356	-0.528694
H97	H	-0.951845	0.930213	-0.523999
N98	N	-0.275593	0.852291	-0.275941
H99	H	-0.243532	0.813608	-0.243980
H100	H	-0.307712	0.886521	-0.239298
N101	N	-0.225046	0.556870	-0.225475
H102	H	-0.232746	0.498315	-0.233129
H103	H	-0.237301	0.571289	-0.169010
N104	N	-0.536668	0.556933	-0.536199
H105	H	-0.504593	0.522706	-0.572886
H106	H	-0.568725	0.595656	-0.568112
H107	H	-0.238448	1.000166	-0.806358
H108	H	-0.523280	0.717605	-0.522863
N109	N	-0.486018	0.852340	-0.485712
H110	H	-0.518090	0.813674	-0.517680
H111	H	-0.453888	0.886610	-0.522346
H112	H	-0.238394	1.000182	-0.956120
H113	H	-1.079148	1.050656	-0.472513
N114	N	-0.794648	0.986590	-0.536336
H115	H	-0.736091	0.994244	-0.528659
H116	H	-0.809029	0.998863	-0.592803
N117	N	-0.794614	1.298035	-0.225369
H118	H	-0.833284	1.330093	-0.193381
H119	H	-0.760329	1.334582	-0.257583
H120	H	-0.472357	1.234111	-1.079940
N121	N	-0.670792	1.247394	-0.275861
H122	H	-0.709461	1.279447	-0.243867
H123	H	-0.636501	1.283945	-0.308064
