data_functionalizedCrystal
_audit_creation_method	'MofGen! by Chris Wilmer'
_symmetry_space_group_name_H-M	'P1'
_symmetry_Int_Tables_number	1
_symmetry_cell_setting	triclinic
loop_
_symmetry_equiv_pos_as_xyz
  x,y,z
_cell_length_a	10.654550
_cell_length_b	23.532407
_cell_length_c	9.130313
_cell_angle_alpha	89.990840
_cell_angle_beta	89.999724
_cell_angle_gamma	83.666804
loop_
_atom_site_label
_atom_site_type_symbol
_atom_site_fract_x
_atom_site_fract_y
_atom_site_fract_z
O1	O	1.665305	0.079985	-0.121707
O2	O	1.299585	0.087605	-0.121735
O3	O	1.493474	0.000935	-0.121693
O4	O	1.471417	0.166655	-0.121749
O5	O	1.493460	0.000933	0.121905
O6	O	1.299572	0.087603	0.121863
O7	O	1.665292	0.079982	0.121892
Cu8	Cu	1.482431	0.083792	0.144120
Cu9	Cu	1.482447	0.083795	-0.143964
O10	O	1.471404	0.166652	0.121850
C11	C	1.252799	0.087044	0.000061
C12	C	1.113408	0.085370	0.000051
C13	C	1.032306	0.136400	0.000038
C14	C	0.901335	0.134824	0.000064
C15	C	0.932582	0.031183	0.000110
C16	C	1.063550	0.032760	0.000094
C17	C	1.492905	-0.020286	0.000110
C18	C	1.491217	-0.083514	0.000121
C19	C	1.595364	-0.481938	0.000049
C20	C	1.593795	-0.541349	0.000037
O21	O	1.690341	-0.577464	-0.000009
N22	N	1.478529	-0.564726	0.000030
C23	C	1.364824	-0.528689	0.000018
O24	O	1.266636	-0.554029	0.000009
C25	C	1.366394	-0.469280	0.000019
C26	C	1.481668	-0.445906	0.000041
C27	C	1.710629	-0.458564	0.000070
C28	C	1.712197	-0.399158	0.000084
C29	C	1.598500	-0.363126	0.000077
C30	C	1.483236	-0.386500	0.000055
C31	C	1.252690	-0.433244	-0.000003
C32	C	1.254270	-0.373831	-0.000004
C33	C	1.369544	-0.350458	0.000019
C34	C	1.371107	-0.291061	0.000062
N35	N	1.486374	-0.267684	0.000070
C36	C	1.600070	-0.303716	0.000077
C37	C	1.361535	-0.653453	0.000014
C38	C	1.359964	-0.712861	0.000023
C39	C	1.588936	-0.725517	0.000040
C40	C	1.590506	-0.666108	0.000041
C41	C	1.476802	-0.630076	0.000022
C42	C	1.603355	-0.178958	0.000108
C43	C	1.604913	-0.119546	0.000128
C44	C	1.375942	-0.106896	0.000104
C45	C	1.374383	-0.166303	0.000091
C46	C	1.488100	-0.202333	0.000088
O47	O	1.274613	-0.254911	0.000103
O48	O	1.698241	-0.278369	0.000067
C49	C	1.712079	0.080543	0.000093
C50	C	1.851469	0.082217	0.000093
C51	C	1.471972	0.187873	0.000044
C52	C	1.473661	0.251101	0.000023
N53	N	1.482429	0.083790	0.346743
N54	N	1.482458	0.083793	-0.346586
C55	C	1.568311	0.045429	0.423413
C56	C	1.568323	0.045429	0.576750
C57	C	1.396567	0.122156	0.576733
C58	C	1.396550	0.122153	0.423399
H59	H	0.891971	-0.011650	0.000154
H60	H	1.161675	-0.344497	-0.000022
H61	H	0.835306	0.176378	0.000057
H62	H	1.280517	-0.185334	0.000113
H63	H	1.129588	-0.008797	0.000109
H64	H	1.698787	-0.100519	0.000150
O65	O	1.699353	-0.760547	-0.000229
C66	C	1.705269	-0.795288	-0.126381
H67	H	1.640777	-0.773781	-0.214555
H68	H	1.806504	-0.801561	-0.168733
H69	H	1.673312	-0.838613	-0.097867
O70	O	1.713933	-0.213871	0.000176
C71	C	1.815992	-0.180490	0.000162
H72	H	1.783526	-0.136291	0.046281
H73	H	1.895607	-0.202081	0.070895
H74	H	1.851370	-0.176106	-0.116699
O75	O	1.247876	-0.735469	-0.000047
C76	C	1.147871	-0.690919	-0.000011
H77	H	1.182566	-0.650424	-0.046117
H78	H	1.067347	-0.703647	-0.070744
H79	H	1.112832	-0.682664	0.116855
H80	H	1.072896	0.179239	0.000014
O81	O	1.821051	-0.493583	-0.000180
C82	C	1.827015	-0.528332	-0.126319
H83	H	1.762522	-0.506840	-0.214513
H84	H	1.928257	-0.534591	-0.168649
H85	H	1.795089	-0.571663	-0.097798
O86	O	1.824285	-0.376551	0.000029
C87	C	1.924286	-0.421103	0.000067
H88	H	1.889589	-0.461589	-0.046055
H89	H	2.004816	-0.408366	-0.070653
H90	H	1.959316	-0.429378	0.116935
H91	H	1.158822	-0.452264	-0.000031
O92	O	1.313106	0.159345	0.651364
C93	C	1.236017	0.128520	0.740066
H94	H	1.286594	0.084169	0.763051
H95	H	1.215868	0.152208	0.847881
H96	H	1.143252	0.124258	0.680995
H97	H	1.283373	-0.077548	0.000103
H98	H	1.268937	-0.624119	0.000011
O99	O	1.651803	0.008244	0.651389
C100	C	1.728911	0.039071	0.740031
H101	H	1.678335	0.083422	0.762989
H102	H	1.749089	0.015386	0.847863
H103	H	1.821660	0.043334	0.680922
H104	H	1.326609	0.153392	0.360969
H105	H	1.684372	-0.647081	0.000058
O106	O	1.651771	0.008106	0.349176
C107	C	1.727593	-0.025743	0.449736
H108	H	1.676129	-0.026600	0.559046
H109	H	1.747318	-0.071143	0.405459
H110	H	1.820643	-0.006859	0.466018
