data_functionalizedCrystal
_audit_creation_method	'MofGen! by Chris Wilmer'
_symmetry_space_group_name_H-M	'P1'
_symmetry_Int_Tables_number	1
_symmetry_cell_setting	triclinic
loop_
_symmetry_equiv_pos_as_xyz
  x,y,z
_cell_length_a	14.908783
_cell_length_b	14.909042
_cell_length_c	14.908294
_cell_angle_alpha	90.162579
_cell_angle_beta	89.789087
_cell_angle_gamma	89.820521
loop_
_atom_site_label
_atom_site_type_symbol
_atom_site_fract_x
_atom_site_fract_y
_atom_site_fract_z
Zn1	Zn	1.364396	-0.313455	-0.570870
Zn2	Zn	1.381548	-0.454223	-0.412893
Zn3	Zn	1.222651	-0.312485	-0.411893
Zn4	Zn	1.223617	-0.471385	-0.553586
O5	O	1.298053	-0.387887	-0.487310
O6	O	1.492086	-0.325352	-0.557565
O7	O	1.367244	-0.427833	-0.287347
O8	O	1.233871	-0.187201	-0.439797
O9	O	1.504688	-0.428774	-0.441500
O10	O	1.338010	-0.187914	-0.556596
O11	O	1.250503	-0.323699	-0.286613
O12	O	1.097364	-0.340339	-0.423038
O13	O	1.235518	-0.458023	-0.681291
O14	O	1.098074	-0.457082	-0.527139
O15	O	1.338947	-0.341993	-0.693990
O16	O	1.368181	-0.581912	-0.424741
O17	O	1.252150	-0.594520	-0.528108
C18	C	1.065200	-0.400468	-0.473105
C19	C	0.965585	-0.405874	-0.467047
C20	C	0.765273	-0.308505	-0.576690
C21	C	0.671676	-0.313581	-0.571002
C22	C	0.684790	-0.421095	-0.449979
C23	C	0.778388	-0.416020	-0.455667
C24	C	0.818626	-0.359723	-0.519026
C25	C	0.912225	-0.354653	-0.524718
C26	C	0.925338	-0.462163	-0.403691
C27	C	0.831740	-0.467238	-0.398003
C28	C	1.312155	-0.620734	-0.474678
C29	C	1.318268	-0.720344	-0.469309
C30	C	1.208828	-0.920716	-0.566750
C31	C	1.214569	-1.014309	-0.561708
C32	C	1.335486	-1.001125	-0.454180
C33	C	1.329745	-0.907532	-0.459221
C34	C	1.266415	-0.867331	-0.515509
C35	C	1.260679	-0.773736	-0.520556
C36	C	1.381591	-0.760554	-0.413023
C37	C	1.387332	-0.854147	-0.407981
C38	C	1.531815	-0.375257	-0.501572
C39	C	1.631430	-0.369875	-0.507650
C40	C	1.285427	-0.402030	-0.721068
C41	C	1.280047	-0.408057	-0.820681
C42	C	1.283919	-0.154130	-0.500013
C43	C	1.277896	-0.054517	-0.505426
C44	C	1.218615	-0.476952	-0.954473
C45	C	1.223669	-0.471295	-0.860877
C46	C	1.331373	-0.350469	-0.874090
C47	C	1.326318	-0.356126	-0.967686
C48	C	1.269939	-0.419370	-1.007874
C49	C	1.264890	-0.425030	-1.101472
C50	C	1.372588	-0.304200	-1.114683
C51	C	1.377642	-0.298544	-1.021087
C52	C	1.310677	-0.373731	-0.254469
C53	C	1.316216	-0.367442	-0.154880
H54	H	0.628239	-0.271871	-0.617956
H55	H	0.968788	-0.503876	-0.356743
C56	C	1.533967	-0.720785	-0.380326
C57	C	1.444897	-0.701868	-0.356698
H58	H	1.573049	-0.684549	-0.345560
H59	H	1.546442	-0.782271	-0.369260
H60	H	1.542820	-0.708349	-0.442181
H61	H	1.436043	-0.714310	-0.294843
H62	H	1.432418	-0.640367	-0.367756
C63	C	0.889858	-0.248885	-0.643767
C64	C	0.956458	-0.292772	-0.594358
H65	H	0.917165	-0.210677	-0.686756
H66	H	0.853884	-0.292031	-0.673646
H67	H	0.853365	-0.214170	-0.604405
H68	H	0.992947	-0.327493	-0.633720
H69	H	0.992447	-0.249620	-0.564478
C70	C	0.547128	-0.476596	-0.387520
C71	C	0.640549	-0.482965	-0.380334
H72	H	0.519818	-0.514795	-0.344525
H73	H	0.528851	-0.416409	-0.376837
H74	H	0.529360	-0.494279	-0.446068
H75	H	0.658318	-0.465276	-0.321787
H76	H	0.658833	-0.543165	-0.391010
C77	C	0.814482	-0.617836	-0.344134
C78	C	0.787506	-0.529121	-0.328364
H79	H	0.787179	-0.656040	-0.301139
H80	H	0.796702	-0.635503	-0.402675
H81	H	0.877863	-0.622132	-0.339269
H82	H	0.724126	-0.524823	-0.333237
H83	H	0.805281	-0.511449	-0.269809
C84	C	1.141733	-0.796172	-0.626333
C85	C	1.191068	-0.729544	-0.582426
H86	H	1.098754	-0.768890	-0.664525
H87	H	1.181133	-0.832595	-0.661062
H88	H	1.111840	-0.832209	-0.583186
H89	H	1.220966	-0.693511	-0.625573
H90	H	1.151662	-0.693106	-0.547695
H91	H	1.414382	-0.257314	-1.158173
H92	H	1.181870	-0.518179	-0.817400
C93	C	1.094478	-1.017936	-0.668508
C94	C	1.151272	-1.072991	-0.618039
H95	H	1.055405	-1.054165	-0.703289
H96	H	1.060105	-0.980968	-0.629305
H97	H	1.129411	-0.981345	-0.707169
H98	H	1.116340	-1.109577	-0.579373
H99	H	1.185649	-1.109974	-0.657246
C100	C	1.397828	-1.138748	-0.398556
C101	C	1.404999	-1.045325	-0.392205
H102	H	1.440720	-1.166033	-0.360267
H103	H	1.339242	-1.156545	-0.380978
H104	H	1.408676	-1.157024	-0.458728
H105	H	1.394144	-1.027048	-0.332034
H106	H	1.463599	-1.027521	-0.409777
H107	H	1.157267	-0.887984	-0.612589
C108	C	1.441081	-0.871429	-0.257378
C109	C	1.456942	-0.898335	-0.346106
H110	H	1.484055	-0.898709	-0.219179
H111	H	1.445903	-0.808055	-0.253062
H112	H	1.382530	-0.889290	-0.239717
H113	H	1.515491	-0.880468	-0.363770
H114	H	1.452128	-0.961722	-0.350426
H115	H	1.172715	-0.528453	-0.987194
C116	C	1.158930	-0.543884	-1.079007
C117	C	1.202915	-0.494543	-1.145650
H118	H	1.120664	-0.586794	-1.106280
H119	H	1.202020	-0.573850	-1.043025
H120	H	1.124264	-0.504470	-1.042528
H121	H	1.237588	-0.533956	-1.182125
H122	H	1.159819	-0.464576	-1.181647
C123	C	1.386963	-0.288181	-0.736474
C124	C	1.393361	-0.280975	-0.829904
H125	H	1.425244	-0.245286	-0.709198
H126	H	1.326792	-0.277370	-0.718177
H127	H	1.404528	-0.346773	-0.718686
H128	H	1.375789	-0.222384	-0.847693
H129	H	1.453545	-0.291779	-0.848208
C130	C	1.483595	-0.179682	-1.043549
C131	C	1.439613	-0.229028	-0.976908
H132	H	1.521850	-0.136763	-1.016274
H133	H	1.518264	-0.219085	-1.080022
H134	H	1.440495	-0.149719	-1.079537
H135	H	1.482713	-0.258997	-0.940924
H136	H	1.404942	-0.189619	-0.940419
H137	H	0.798036	-0.262670	-0.628283
