data_functionalizedCrystal
_audit_creation_method	'MofGen! by Chris Wilmer'
_symmetry_space_group_name_H-M	'P1'
_symmetry_Int_Tables_number	1
_symmetry_cell_setting	triclinic
loop_
_symmetry_equiv_pos_as_xyz
  x,y,z
_cell_length_a	12.759401
_cell_length_b	16.120484
_cell_length_c	12.759393
_cell_angle_alpha	92.863987
_cell_angle_beta	89.981637
_cell_angle_gamma	92.924448
loop_
_atom_site_label
_atom_site_type_symbol
_atom_site_fract_x
_atom_site_fract_y
_atom_site_fract_z
Zn1	Zn	1.584967	-0.331887	-0.615150
Zn2	Zn	1.575920	-0.471322	-0.448363
Zn3	Zn	1.409268	-0.331925	-0.439491
Zn4	Zn	1.400319	-0.471258	-0.624000
O5	O	1.492618	-0.401598	-0.531751
O6	O	1.730788	-0.350394	-0.593034
O7	O	1.553771	-0.452874	-0.300167
O8	O	1.440106	-0.215255	-0.455377
O9	O	1.724140	-0.452837	-0.470496
O10	O	1.569192	-0.215227	-0.584432
O11	O	1.431333	-0.350459	-0.293650
O12	O	1.261060	-0.350397	-0.463958
O13	O	1.424855	-0.452727	-0.769844
O14	O	1.254486	-0.452764	-0.599515
O15	O	1.560515	-0.350332	-0.763342
O16	O	1.545094	-0.587979	-0.479078
O17	O	1.416082	-0.587932	-0.608117
C18	C	1.219652	-0.401578	-0.531735
C19	C	1.102875	-0.401590	-0.531754
C20	C	1.051461	-0.348349	-0.595670
C21	C	0.941736	-0.348365	-0.595678
C22	C	0.934848	-0.454870	-0.467851
C23	C	1.044572	-0.454850	-0.467839
C24	C	1.055436	-0.286862	-0.669474
C25	C	0.945711	-0.286878	-0.669481
C26	C	1.478664	-0.618205	-0.545543
C27	C	1.472790	-0.710871	-0.551479
C28	C	1.462072	-0.880531	-0.562337
C29	C	1.523353	-0.921824	-0.501182
C30	C	1.517390	-1.016229	-0.507223
C31	C	1.468034	-0.786118	-0.556297
C32	C	1.766650	-0.401618	-0.531767
C33	C	1.883427	-0.401627	-0.531774
C34	C	1.492696	-0.401518	-0.805779
C35	C	1.492729	-0.401484	-0.922554
C36	C	1.506656	-0.184145	-0.517928
C37	C	1.512638	-0.091480	-0.512037
C38	C	1.556488	-0.454791	-0.980806
C39	C	1.556522	-0.454755	-1.090528
C40	C	1.429030	-0.348104	-1.083736
C41	C	1.429002	-0.348136	-0.974016
C42	C	1.630091	-0.516368	-0.984728
C43	C	1.630125	-0.516332	-1.094450
C44	C	1.492605	-0.401617	-0.258785
C45	C	1.492791	-0.401417	-0.141996
H46	H	0.914852	-0.304253	-0.751925
H47	H	1.405133	-0.916078	-0.619227
C48	C	1.358874	-0.289493	-0.909937
C49	C	1.288776	-0.230817	-0.966546
C50	C	1.218644	-0.172172	-0.902468
C51	C	1.218610	-0.172202	-0.781779
C52	C	1.288711	-0.230880	-0.725164
C53	C	1.358843	-0.289525	-0.789242
H54	H	1.288798	-0.230793	-1.055893
H55	H	1.166751	-0.128734	-0.944379
H56	H	1.166695	-0.128789	-0.734344
H57	H	1.288689	-0.230904	-0.635817
H58	H	1.410736	-0.332963	-0.747331
H59	H	1.604167	-0.580891	-1.128331
C60	C	1.101125	-0.513412	-0.397523
C61	C	1.086428	-0.506490	-0.277663
C62	C	1.142980	-0.565055	-0.207344
C63	C	1.214230	-0.630543	-0.256884
C64	C	1.228931	-0.637467	-0.376750
C65	C	1.172379	-0.578902	-0.447070
H66	H	1.033681	-0.458010	-0.240985
H67	H	1.132097	-0.559929	-0.118611
H68	H	1.256094	-0.673896	-0.204830
H69	H	1.281678	-0.685947	-0.413429
H70	H	1.183262	-0.584028	-0.535803
H71	H	1.580295	-0.886275	-0.444286
C72	C	1.358928	-0.289427	-1.140348
C73	C	1.274131	-0.325520	-1.218070
C74	C	1.204027	-0.266843	-1.274679
C75	C	1.218720	-0.172072	-1.253567
C76	C	1.303521	-0.135975	-1.175842
C77	C	1.373625	-0.194652	-1.119232
H78	H	1.263252	-0.395679	-1.233701
H79	H	1.141252	-0.293565	-1.332217
H80	H	1.166824	-0.128636	-1.295473
H81	H	1.314400	-0.065816	-1.160210
H82	H	1.436400	-0.167930	-1.061695
H83	H	1.088014	-0.310060	-0.748191
C84	C	0.905028	-0.203987	-0.625018
C85	C	0.786157	-0.192145	-0.618661
C86	C	0.745470	-0.109258	-0.574195
C87	C	0.823655	-0.038213	-0.536086
C88	C	0.942534	-0.050052	-0.542441
C89	C	0.983220	-0.132939	-0.586907
H90	H	0.728273	-0.244739	-0.646873
H91	H	0.657468	-0.100494	-0.569491
H92	H	0.793537	0.023145	-0.503169
H93	H	1.000418	0.002542	-0.514229
H94	H	1.071222	-0.141703	-0.591611
H95	H	1.596985	-0.577712	-0.954592
C96	C	0.870711	-0.513456	-0.397551
C97	C	0.886193	-0.506534	-0.277688
C98	C	0.822058	-0.565122	-0.207387
C99	C	0.742441	-0.630633	-0.256950
C100	C	0.726955	-0.637558	-0.376820
C101	C	0.791090	-0.578970	-0.447121
H102	H	0.945134	-0.458036	-0.240993
H103	H	0.833522	-0.559995	-0.118651
H104	H	0.694965	-0.674003	-0.204910
H105	H	0.668015	-0.686056	-0.413515
H106	H	0.779626	-0.584097	-0.535857
C107	C	1.101256	-0.199601	-0.634653
C108	C	1.171363	-0.187823	-0.536276
C109	C	1.217182	-0.100566	-0.501455
C110	C	1.192895	-0.025087	-0.565011
C111	C	1.122784	-0.036863	-0.663394
C112	C	1.076965	-0.124120	-0.698215
H113	H	1.189345	-0.243699	-0.489223
H114	H	1.269082	-0.091849	-0.428625
H115	H	1.226813	0.039507	-0.539235
H116	H	1.104802	0.019014	-0.710447
H117	H	1.025065	-0.132837	-0.771045
C118	C	1.741508	-0.493026	-0.943017
C119	C	1.831358	-0.474170	-1.020247
C120	C	1.942772	-0.450828	-0.978535
C121	C	1.964335	-0.446341	-0.859593
C122	C	1.874482	-0.465197	-0.782356
C123	C	1.763069	-0.488539	-0.824067
H124	H	1.815398	-0.477491	-1.108301
H125	H	2.009286	-0.436869	-1.035712
H126	H	2.046810	-0.429061	-0.828716
H127	H	1.890443	-0.461876	-0.694301
H128	H	1.696554	-0.502498	-0.766890
H129	H	1.708926	-0.493205	-1.127016
