data_functionalizedCrystal
_audit_creation_method	'MofGen! by Chris Wilmer'
_symmetry_space_group_name_H-M	'P1'
_symmetry_Int_Tables_number	1
_symmetry_cell_setting	triclinic
loop_
_symmetry_equiv_pos_as_xyz
  x,y,z
_cell_length_a	14.519709
_cell_length_b	13.596369
_cell_length_c	14.519709
_cell_angle_alpha	89.993066
_cell_angle_beta	96.319855
_cell_angle_gamma	89.999709
loop_
_atom_site_label
_atom_site_type_symbol
_atom_site_fract_x
_atom_site_fract_y
_atom_site_fract_z
O1	O	-1.223868	-0.081665	0.120893
O2	O	-0.890535	0.251668	0.454226
O3	O	-0.557202	0.585001	0.787559
O4	O	-0.955392	-0.081696	0.135129
O5	O	-0.622058	0.251638	0.468463
O6	O	-0.288725	0.584971	0.801796
O7	O	-1.096748	-0.081671	-0.006227
O8	O	-0.763415	0.251662	0.327106
O9	O	-0.430082	0.584996	0.660439
O10	O	-1.082512	-0.081690	0.262249
O11	O	-0.749178	0.251643	0.595583
O12	O	-0.415845	0.584976	0.928916
O13	O	-1.096734	0.081912	-0.006235
O14	O	-0.763401	0.415245	0.327098
O15	O	-0.430067	0.748579	0.660432
O16	O	-0.955377	0.081887	0.135122
O17	O	-0.622044	0.415220	0.468455
O18	O	-0.288711	0.748554	0.801788
O19	O	-1.223854	0.081917	0.120885
O20	O	-0.890521	0.415251	0.454219
O21	O	-0.557188	0.748584	0.787552
Zn22	Zn	-1.089614	0.107875	0.128002
Zn23	Zn	-0.756280	0.441208	0.461336
Zn24	Zn	-0.422947	0.774541	0.794669
Zn25	Zn	-1.089632	-0.107653	0.128012
Zn26	Zn	-0.756299	0.225680	0.461346
Zn27	Zn	-0.422966	0.559014	0.794679
O28	O	-1.082498	0.081893	0.262242
O29	O	-0.749164	0.415226	0.595575
O30	O	-0.415831	0.748559	0.928909
C31	C	-0.921025	0.000092	0.134462
C32	C	-0.587691	0.333425	0.467795
C33	C	-0.254358	0.666759	0.801129
C34	C	-0.818643	0.000081	0.132474
C35	C	-0.485310	0.333414	0.465807
C36	C	-0.151977	0.666747	0.799141
N37	N	-1.089608	0.254966	0.127995
N38	N	-0.756274	0.588300	0.461328
N39	N	-0.422941	0.921633	0.794662
C40	C	-1.096078	0.000121	-0.040591
C41	C	-0.762744	0.333454	0.292742
C42	C	-0.429411	0.666787	0.626076
C43	C	-1.094090	0.000121	-0.142972
C44	C	-0.760756	0.333454	0.190361
C45	C	-0.427423	0.666788	0.523694
C46	C	-1.258221	0.000128	0.121553
C47	C	-0.924888	0.333461	0.454886
C48	C	-0.591554	0.666794	0.788219
C49	C	-1.360602	0.000132	0.123541
C50	C	-1.027269	0.333466	0.456874
C51	C	-0.693936	0.666799	0.790207
C52	C	-0.443748	0.000126	0.125154
C53	C	-0.110414	0.333459	0.458488
C54	C	0.222919	0.666793	0.791821
C55	C	-0.548056	0.000113	0.127187
C56	C	-0.214722	0.333446	0.460520
C57	C	0.118611	0.666780	0.793854
C58	C	-0.631192	0.000102	0.128814
C59	C	-0.297859	0.333436	0.462147
C60	C	0.035474	0.666769	0.795481
C61	C	-0.735507	0.000091	0.130847
C62	C	-0.402173	0.333425	0.464180
C63	C	-0.068840	0.666758	0.797514
N64	N	-1.089645	-0.254745	0.128012
N65	N	-0.756312	0.078589	0.461346
N66	N	-0.422979	0.411922	0.794679
C67	C	-1.089631	0.656257	0.128013
C68	C	-0.756298	0.989591	0.461347
C69	C	-0.422964	1.322924	0.794680
C70	C	-1.089622	0.544606	0.128011
C71	C	-0.756288	0.877939	0.461345
C72	C	-0.422955	1.211273	0.794678
C73	C	-1.089620	0.455615	0.128005
C74	C	-0.756286	0.788949	0.461338
C75	C	-0.422953	1.122282	0.794671
C76	C	-1.089610	0.343957	0.128001
C77	C	-0.756276	0.677290	0.461335
C78	C	-0.422943	1.010624	0.794668
C79	C	-1.086770	0.000095	-0.517868
C80	C	-0.753437	0.333428	-0.184535
C81	C	-0.420103	0.666761	0.148799
C82	C	-1.088803	0.000102	-0.413560
C83	C	-0.755469	0.333436	-0.080227
C84	C	-0.422136	0.666769	0.253107
C85	C	-1.090430	0.000109	-0.330423
C86	C	-0.757096	0.333442	0.002910
C87	C	-0.423763	0.666775	0.336243
C88	C	-1.092463	0.000114	-0.226109
C89	C	-0.759129	0.333448	0.107224
C90	C	-0.425796	0.666781	0.440558
C91	C	-1.083168	0.000099	0.296605
C92	C	-0.749835	0.333432	0.629939
C93	C	-0.416501	0.666766	0.963272
C94	C	-1.085156	0.000092	0.398987
C95	C	-0.751823	0.333425	0.732320
C96	C	-0.418490	0.666759	1.065653
