data_functionalizedCrystal
_audit_creation_method	'MofGen! by Chris Wilmer'
_symmetry_space_group_name_H-M	'P1'
_symmetry_Int_Tables_number	1
_symmetry_cell_setting	triclinic
loop_
_symmetry_equiv_pos_as_xyz
  x,y,z
_cell_length_a	19.288864
_cell_length_b	10.654550
_cell_length_c	18.366186
_cell_angle_alpha	89.994973
_cell_angle_beta	89.977106
_cell_angle_gamma	83.810575
loop_
_atom_site_label
_atom_site_type_symbol
_atom_site_fract_x
_atom_site_fract_y
_atom_site_fract_z
O1	O	0.922379	0.156657	-0.060782
O2	O	0.720256	0.177789	-0.060732
O3	O	0.825965	-0.015616	-0.060755
O4	O	0.816670	0.350062	-0.060758
O5	O	0.825946	-0.015625	0.060344
O6	O	0.720238	0.177780	0.060368
O7	O	0.922360	0.156647	0.060318
Zn8	Zn	0.821296	0.167212	0.079570
Zn9	Zn	0.821320	0.167224	-0.079984
O10	O	0.816652	0.350052	0.060341
C11	C	0.694366	0.177105	-0.000176
C12	C	0.617249	0.175063	-0.000156
C13	C	0.573296	0.288545	-0.000169
C14	C	0.500836	0.286627	-0.000177
C15	C	0.472333	0.171222	-0.000187
C16	C	0.516296	0.057725	-0.000171
C17	C	0.588754	0.059646	-0.000155
C18	C	0.363484	0.080503	-0.042637
C19	C	0.291027	0.078587	-0.042657
C20	C	0.248849	0.165292	-0.000231
C21	C	0.279136	0.253935	0.042205
C22	C	0.351594	0.255855	0.042221
C23	C	0.393766	0.169126	-0.000203
C24	C	0.126326	0.276702	-0.000251
C25	C	0.053865	0.274779	-0.000255
C26	C	0.069327	0.045875	-0.000256
C27	C	0.141786	0.047800	-0.000245
C28	C	0.170281	0.163217	-0.000246
C29	C	0.825273	-0.062404	-0.000206
C30	C	0.823231	-0.201803	-0.000208
C31	C	0.885471	-0.282621	-0.000221
C32	C	0.883548	-0.413601	-0.000226
C33	C	0.757141	-0.382932	-0.000201
C34	C	0.759065	-0.251955	-0.000202
C35	C	0.958451	-0.300329	-0.000232
C36	C	0.956528	-0.431309	-0.000237
C37	C	0.948250	0.157332	-0.000240
C38	C	1.025367	0.159373	-0.000264
C39	C	0.817344	0.396840	-0.000209
C40	C	0.819385	0.536240	-0.000212
N41	N	0.821285	0.167203	0.188461
N42	N	0.821337	0.167224	-0.188875
C43	C	0.868108	0.081605	0.226551
C44	C	0.868113	0.081599	0.302779
C45	C	0.821300	0.167213	0.340914
C46	C	0.774468	0.252817	0.302815
C47	C	0.774461	0.252812	0.226588
C48	C	0.812752	0.281634	0.461675
C49	C	0.812764	0.281641	0.537899
C50	C	0.821320	0.167229	0.576021
C51	C	0.829879	0.052804	0.537909
C52	C	0.829871	0.052799	0.461682
C53	C	0.821303	0.167228	0.423569
C54	C	0.868151	0.081618	0.696766
C55	C	0.868151	0.081610	0.772995
C56	C	0.774509	0.252840	0.773030
C57	C	0.774507	0.252836	0.696802
C58	C	0.821331	0.167226	0.658675
H59	H	0.397820	0.009895	-0.077190
C60	C	0.190140	-0.077033	-0.000243
C61	C	0.158792	-0.203980	-0.000256
C62	C	0.207146	-0.328820	-0.000252
C63	C	0.286848	-0.326712	-0.000237
C64	C	0.318199	-0.199760	-0.000224
C65	C	0.269845	-0.074921	-0.000228
H66	H	0.099789	-0.205545	-0.000267
H67	H	0.183937	-0.422798	-0.000262
H68	H	0.322642	-0.419126	-0.000234
H69	H	0.377203	-0.198196	-0.000213
H70	H	0.293054	0.019058	-0.000218
C71	C	0.722956	0.346982	0.184684
C72	C	0.671480	0.441194	0.226623
C73	C	0.619976	0.535367	0.184717
C74	C	0.619948	0.535327	0.100871
C75	C	0.671426	0.441111	0.058927
C76	C	0.722929	0.346938	0.100833
H77	H	0.671499	0.441227	0.288696
H78	H	0.581869	0.605112	0.215768
H79	H	0.581822	0.605039	0.069850
H80	H	0.671406	0.441078	-0.003145
H81	H	0.761037	0.277194	0.069783
H82	H	0.266373	0.006414	-0.077214
H83	H	0.836846	-0.040361	0.568946
H84	H	0.906278	0.011900	0.804009
H85	H	0.906234	0.011894	0.195510
H86	H	0.493084	-0.036239	-0.000189
C87	C	0.919626	-0.012558	0.344688
C88	C	0.971149	-0.106684	0.302748
C89	C	1.022663	-0.200840	0.344654
C90	C	1.022653	-0.200870	0.428500
C91	C	0.971128	-0.106740	0.470445
C92	C	0.919614	-0.012585	0.428539
H93	H	0.971158	-0.106666	0.240676
H94	H	1.060805	-0.270521	0.313603
H95	H	1.060787	-0.270569	0.459521
H96	H	0.971119	-0.106759	0.532517
H97	H	0.881471	0.057096	0.459590
H98	H	0.708383	-0.186156	-0.000201
H99	H	0.244796	0.324537	0.076753
C100	C	0.993658	-0.488536	0.068217
C101	C	0.998914	-0.631964	0.081476
C102	C	1.036041	-0.689191	0.149928
C103	C	1.067912	-0.602990	0.205121
C104	C	1.062657	-0.459554	0.191863
C105	C	1.025530	-0.402327	0.123412
H106	H	0.975320	-0.695783	0.040618
H107	H	1.039931	-0.795372	0.159742
H108	H	1.095396	-0.645353	0.255793
H109	H	1.086251	-0.395736	0.232722
H110	H	1.021640	-0.296146	0.113598
C111	C	0.919650	-0.012561	0.654822
C112	C	0.973001	0.036257	0.602391
C113	C	1.024500	-0.057924	0.560450
C114	C	1.022647	-0.200922	0.570941
C115	C	0.969294	-0.249747	0.623374
C116	C	0.917795	-0.155567	0.665315
H117	H	0.974374	0.142119	0.594623
H118	H	1.063996	-0.021779	0.521636
H119	H	1.060770	-0.270640	0.539894
H120	H	0.967921	-0.355610	0.631142
H121	H	0.878300	-0.191711	0.704130
H122	H	0.704899	-0.423782	-0.000196
C123	C	0.839271	-0.073058	0.419758
C124	C	0.848679	-0.198917	0.461679
C125	C	0.858073	-0.324776	0.419755
C126	C	0.858059	-0.324776	0.335909
C127	C	0.848651	-0.198912	0.293983
C128	C	0.839257	-0.073054	0.335907
H129	H	0.848689	-0.198921	0.523752
H130	H	0.865038	-0.417948	0.450792
H131	H	0.865013	-0.417944	0.304874
H132	H	0.848641	-0.198908	0.231911
H133	H	0.832292	0.020119	0.304870
H134	H	0.736391	0.322543	0.804079
C135	C	0.986334	-0.493610	-0.070878
C136	C	1.062392	-0.481720	-0.092890
C137	C	1.092196	-0.544020	-0.163531
C138	C	1.045941	-0.618211	-0.212160
C139	C	0.969878	-0.630105	-0.190149
C140	C	0.940075	-0.567804	-0.119508
H141	H	1.096637	-0.426796	-0.056891
H142	H	1.148502	-0.535215	-0.179824
H143	H	1.068003	-0.664329	-0.264452
H144	H	0.935633	-0.685028	-0.226148
H145	H	0.883768	-0.576609	-0.103215
H146	H	0.736381	0.322543	0.665787
C147	C	0.803349	0.407502	0.579819
C148	C	0.793922	0.533354	0.537891
C149	C	0.784506	0.659218	0.579809
C150	C	0.784517	0.659231	0.663655
C151	C	0.793945	0.533375	0.705588
C152	C	0.803361	0.407511	0.663670
H153	H	0.793913	0.533348	0.475819
H154	H	0.777527	0.752385	0.548767
H155	H	0.777547	0.752404	0.694686
H156	H	0.793954	0.533381	0.767660
H157	H	0.810340	0.314344	0.694712
H158	H	0.596492	0.382526	-0.000171
H159	H	0.465043	0.379040	-0.000185
H160	H	0.376250	0.328027	0.076776
H161	H	0.987003	-0.271578	-0.050916
H162	H	0.981682	-0.265204	0.052050
H163	H	0.149528	0.370681	-0.000241
H164	H	0.018079	0.367194	-0.000261
H165	H	0.805772	0.374809	0.430642
H166	H	0.736352	0.322524	0.333868
H167	H	0.046120	-0.048091	-0.000309
H168	H	0.624542	-0.032767	-0.000146
