data_functionalizedCrystal
_audit_creation_method	'MofGen! by Chris Wilmer'
_symmetry_space_group_name_H-M	'P1'
_symmetry_Int_Tables_number	1
_symmetry_cell_setting	triclinic
loop_
_symmetry_equiv_pos_as_xyz
  x,y,z
_cell_length_a	6.817900
_cell_length_b	15.185311
_cell_length_c	19.453114
_cell_angle_alpha	95.653796
_cell_angle_beta	101.709288
_cell_angle_gamma	104.261569
loop_
_atom_site_label
_atom_site_type_symbol
_atom_site_fract_x
_atom_site_fract_y
_atom_site_fract_z
V1	V	-4.010750	-0.126703	-0.219207
O2	O	-3.994583	0.005115	-0.214822
O3	O	-3.966209	-0.250294	-0.217911
O4	O	-3.953618	-0.125181	-0.314717
O5	O	-4.007262	-0.120864	-0.117346
V6	V	-4.495009	-0.110885	-0.206998
O7	O	-4.270393	-0.161399	-0.245986
O8	O	-4.685564	-0.076189	-0.180219
O9	O	-4.316344	0.012706	-0.208294
O10	O	-4.628573	-0.242703	-0.211383
O11	O	-4.615895	-0.116724	-0.308859
O12	O	-4.328935	-0.112407	-0.111488
C13	C	-3.812432	-0.280409	-0.214506
C14	C	-3.857243	-0.381449	-0.214083
C15	C	-4.012022	-0.795423	-0.147973
C16	C	-4.081629	-0.821924	-0.276667
C17	C	-4.039499	-0.726990	-0.277060
C18	C	-3.983631	-0.666268	-0.212908
C19	C	-3.969893	-0.700480	-0.148364
C20	C	-4.053254	-0.692771	-0.341603
C21	C	-4.011125	-0.597832	-0.341999
C22	C	-3.955241	-0.537108	-0.277846
C23	C	-3.941502	-0.571326	-0.213299
C24	C	-3.885634	-0.510604	-0.149148
C25	C	-3.871880	-0.544819	-0.084600
C26	C	-3.914010	-0.639757	-0.084211
C27	C	-3.913111	-0.442171	-0.278235
C28	C	-3.843505	-0.415661	-0.149539
C29	C	-3.796369	-0.120814	-0.337990
C30	C	-3.830966	-0.120388	-0.416072
C31	C	-4.029144	-0.124750	-0.456336
C32	C	-4.061652	-0.124350	-0.529702
C33	C	-3.895979	-0.119605	-0.562803
C34	C	-3.697771	-0.115238	-0.522529
C35	C	-3.665264	-0.115629	-0.449164
N36	N	-3.837735	-0.167606	-0.681671
N37	N	-3.868628	-0.167236	-0.751366
C38	C	-3.993909	-0.118424	-0.783850
N39	N	-4.087165	-0.070007	-0.744008
N40	N	-4.056276	-0.070381	-0.674307
C41	C	-3.931207	-0.119180	-0.642356
C42	C	-4.227348	-0.122351	-0.903666
C43	C	-4.259846	-0.121944	-0.977033
C44	C	-3.895963	-0.112841	-0.969859
C45	C	-3.863466	-0.113239	-0.896493
C46	C	-4.029168	-0.117998	-0.863402
C47	C	-4.133464	0.042816	-0.211697
C48	C	-4.067890	0.143855	-0.212124
C49	C	-4.149527	-0.116777	-0.088211
C50	C	-4.094168	-0.117198	-0.010129
H51	H	-4.000818	-0.823285	-0.095419
O52	O	-3.734872	-0.108068	-1.001951
C53	C	-3.576464	-0.026280	-0.972172
H54	H	-3.646190	0.026252	-0.947353
H55	H	-3.453148	-0.041560	-0.929533
C56	C	-3.390182	-0.051783	-1.061250
C57	C	-3.475823	0.012741	-1.030772
H58	H	-3.328093	-0.027714	-1.097396
H59	H	-3.496899	-0.106887	-1.081312
H60	H	-3.287430	-0.064511	-1.025711
H61	H	-3.578590	0.025459	-1.066309
H62	H	-3.369120	0.067848	-1.010717
H63	H	-4.127136	-0.871369	-0.328896
H64	H	-3.702094	-0.109696	-0.863710
H65	H	-3.798001	-0.366226	-0.097298
H66	H	-3.826399	-0.495368	-0.032368
H67	H	-3.924346	-0.414318	-0.330789
H68	H	-4.098767	-0.742217	-0.393832
H69	H	-4.164073	-0.128622	-0.429398
O70	O	-4.388071	-0.126837	-0.871421
C71	C	-4.340410	-0.048202	-0.819552
H72	H	-4.164320	-0.017932	-0.802226
H73	H	-4.414865	0.005114	-0.842833
C74	C	-4.641913	-0.112392	-0.776126
C75	C	-4.425635	-0.075219	-0.754843
H76	H	-4.694491	-0.129055	-0.736212
H77	H	-4.674029	-0.165369	-0.811073
H78	H	-4.703932	-0.067956	-0.795528
H79	H	-4.363618	-0.119658	-0.735450
H80	H	-4.393510	-0.022250	-0.719891
H81	H	-3.503877	-0.112070	-0.416379
O82	O	-4.024476	-0.564750	-0.404758
C83	C	-4.082875	-0.638705	-0.461295
H84	H	-4.039527	-0.700887	-0.440931
H85	H	-4.258177	-0.656951	-0.484133
C86	C	-4.021655	-0.534471	-0.544725
C87	C	-3.968399	-0.610841	-0.519714
H88	H	-3.951050	-0.517283	-0.580762
H89	H	-3.982318	-0.484646	-0.506636
H90	H	-4.167741	-0.549687	-0.563751
H91	H	-3.822319	-0.595621	-0.500680
H92	H	-4.007708	-0.660664	-0.557802
H93	H	-4.421226	-0.125490	-1.009814
O94	O	-3.901041	-0.673051	-0.021541
C95	C	-4.096174	-0.731595	-0.020812
H96	H	-4.224045	-0.713576	-0.059773
H97	H	-4.098379	-0.806111	-0.037056
C98	C	-3.976563	-0.741361	0.102411
C99	C	-4.133618	-0.719224	0.054563
H100	H	-3.999658	-0.733734	0.148906
H101	H	-3.845095	-0.701921	0.101920
H102	H	-3.978417	-0.803456	0.088866
H103	H	-4.131744	-0.657127	0.068103
H104	H	-4.265087	-0.758653	0.055058
H105	H	-4.223040	-0.127907	-0.562493
H106	H	-3.562879	-0.111372	-0.549484
