data_functionalizedCrystal
_audit_creation_method	'MofGen! by Chris Wilmer'
_symmetry_space_group_name_H-M	'P1'
_symmetry_Int_Tables_number	1
_symmetry_cell_setting	triclinic
loop_
_symmetry_equiv_pos_as_xyz
  x,y,z
_cell_length_a	19.077212
_cell_length_b	16.959453
_cell_length_c	19.076919
_cell_angle_alpha	87.728832
_cell_angle_beta	90.114942
_cell_angle_gamma	92.312080
loop_
_atom_site_label
_atom_site_type_symbol
_atom_site_fract_x
_atom_site_fract_y
_atom_site_fract_z
Zn1	Zn	1.058312	-0.286943	0.440582
Zn2	Zn	1.062961	-0.413615	0.323075
Zn3	Zn	0.945528	-0.286527	0.318358
Zn4	Zn	0.940781	-0.424158	0.435808
O5	O	1.001895	-0.352811	0.379456
O6	O	1.157262	-0.299508	0.428967
O7	O	1.051315	-0.392170	0.224119
O8	O	0.960530	-0.175971	0.334595
O9	O	1.160678	-0.392573	0.342635
O10	O	1.043392	-0.176276	0.424393
O11	O	0.965038	-0.298799	0.220653
O12	O	0.846564	-0.309022	0.329966
O13	O	0.952440	-0.410543	0.534772
O14	O	0.843077	-0.410139	0.416256
O15	O	1.038789	-0.309732	0.538280
O16	O	1.046713	-0.525625	0.338006
O17	O	0.956947	-0.533371	0.420830
C18	C	0.819324	-0.360681	0.372081
C19	C	0.741218	-0.364067	0.368943
C20	C	0.301757	-0.388323	0.346468
C21	C	0.375145	-0.385137	0.349412
C22	C	0.410061	-0.335176	0.395905
C23	C	0.371583	-0.288392	0.439453
C24	C	0.298196	-0.291575	0.436506
C25	C	0.629354	-0.320466	0.409544
C26	C	0.702746	-0.317289	0.412489
C27	C	0.706303	-0.414033	0.322447
C28	C	0.632915	-0.417215	0.319507
C29	C	0.594444	-0.370428	0.363052
N30	N	0.485075	-0.331919	0.398916
N31	N	0.519431	-0.373681	0.360037
C32	C	1.001838	-0.558179	0.379428
C33	C	1.001877	-0.646034	0.379442
C34	C	1.045096	-1.017612	0.426301
C35	C	0.958887	-1.017404	0.332723
C36	C	0.958862	-0.934858	0.332706
C37	C	1.001953	-0.893686	0.379488
C38	C	1.045070	-0.935058	0.426286
C39	C	0.915740	-0.893479	0.285913
C40	C	0.915712	-0.810929	0.285895
C41	C	0.958808	-0.769754	0.332673
C42	C	1.001928	-0.811133	0.379473
C43	C	1.045019	-0.769960	0.426255
C44	C	1.088143	-0.811336	0.473052
C45	C	1.088166	-0.893884	0.473065
C46	C	0.958785	-0.687207	0.332660
C47	C	1.044994	-0.687407	0.426241
C48	C	1.185180	-0.344911	0.386860
C49	C	1.263285	-0.341545	0.390015
C50	C	0.994566	-0.361360	0.562735
C51	C	0.991443	-0.365003	0.640837
C52	C	1.001972	-0.146641	0.379500
C53	C	1.002004	-0.058784	0.379519
C54	C	1.009236	-0.344236	0.196892
C55	C	1.012496	-0.340365	0.118795
C56	C	1.034931	-0.314230	0.679357
C57	C	1.031988	-0.317650	0.752743
C58	C	0.985560	-0.371848	0.787607
C59	C	0.942067	-0.422623	0.749082
C60	C	0.945007	-0.419199	0.675697
C61	C	0.971943	-0.387715	1.006886
C62	C	0.969008	-0.391138	1.080275
C63	C	1.058928	-0.286163	1.083931
C64	C	1.061867	-0.282747	1.010545
C65	C	1.018372	-0.333519	0.972027
N66	N	0.982552	-0.375347	0.862618
N67	N	1.021376	-0.330015	0.897016
H68	H	0.400017	-0.247709	0.477306
N69	N	0.891987	-0.481085	0.786672
H70	H	0.842298	-0.470371	0.771868
H71	H	0.896778	-0.475533	0.838997
N72	N	0.264104	-0.442204	0.296314
H73	H	0.211775	-0.437124	0.301053
H74	H	0.276490	-0.498626	0.307669
N75	N	1.078879	-0.262873	0.794289
H76	H	1.108736	-0.228019	0.761068
H77	H	1.110168	-0.295054	0.826055
N78	N	0.740395	-0.263412	0.462657
H79	H	0.769530	-0.295807	0.496391
H80	H	0.704836	-0.234280	0.489745
N81	N	0.595257	-0.471096	0.269357
H82	H	0.607589	-0.527544	0.280688
H83	H	0.610041	-0.455765	0.219704
N84	N	0.587867	-0.269992	0.456497
H85	H	0.621123	-0.237859	0.486394
H86	H	0.556113	-0.305045	0.487745
H87	H	1.080087	-0.653889	0.464334
H88	H	0.406466	-0.423227	0.313951
H89	H	0.923671	-0.653522	0.294562
H90	H	0.909588	-0.460536	0.644335
N91	N	0.925009	-0.442450	0.965345
H92	H	0.895147	-0.477295	0.998568
H93	H	0.954793	-0.476387	0.936030
H94	H	0.737634	-0.452123	0.286994
N95	N	0.918906	-0.449585	1.117863
H96	H	0.885140	-0.420272	1.146995
H97	H	0.946260	-0.486407	1.149423
H98	H	1.094339	-0.244826	1.115301
H99	H	0.266873	-0.253480	0.471963
H100	H	1.123275	-0.927580	0.511165
N101	N	1.134612	-0.766927	0.523515
H102	H	1.128046	-0.708356	0.516405
H103	H	1.185250	-0.778635	0.514652
N104	N	1.091610	-1.062231	0.476770
H105	H	1.085092	-1.120773	0.469682
H106	H	1.078621	-1.050603	0.526500
N107	N	0.912414	-1.061806	0.282266
H108	H	0.918974	-1.120378	0.289376
H109	H	0.925402	-1.044575	0.232534
N110	N	0.869271	-0.937883	0.235454
H111	H	0.875838	-0.996455	0.242559
H112	H	0.882258	-0.920646	0.185722
N113	N	0.869214	-0.766302	0.235416
H114	H	0.835474	-0.734800	0.262617
H115	H	0.841967	-0.804959	0.205793
H116	H	1.072740	-0.270098	0.650977
H117	H	1.099676	-0.238615	0.982164
