data_functionalizedCrystal
_audit_creation_method	'MofGen! by Chris Wilmer'
_symmetry_space_group_name_H-M	'P1'
_symmetry_Int_Tables_number	1
_symmetry_cell_setting	triclinic
loop_
_symmetry_equiv_pos_as_xyz
  x,y,z
_cell_length_a	16.109301
_cell_length_b	16.109301
_cell_length_c	14.586319
_cell_angle_alpha	89.994786
_cell_angle_beta	89.999213
_cell_angle_gamma	83.461481
loop_
_atom_site_label
_atom_site_type_symbol
_atom_site_fract_x
_atom_site_fract_y
_atom_site_fract_z
O1	O	1.103131	0.106866	-0.076185
O2	O	0.861069	0.120165	-0.076200
O3	O	0.988749	-0.007515	-0.076183
O4	O	0.975450	0.234547	-0.076203
O5	O	0.988741	-0.007517	0.076298
O6	O	0.861060	0.120164	0.076281
O7	O	1.103122	0.106864	0.076295
Cu8	Cu	0.982090	0.113514	0.090211
Cu9	Cu	0.982101	0.113516	-0.090115
O10	O	0.975441	0.234545	0.076278
C11	C	0.830090	0.119626	0.000038
C12	C	0.737794	0.118011	0.000033
C13	C	0.515522	0.190018	0.000038
C14	C	0.428801	0.188494	0.000044
C15	C	0.448676	0.037006	0.000052
C16	C	0.535394	0.038530	0.000053
C17	C	0.568815	0.115039	0.000041
C18	C	0.395376	0.111990	0.000046
C19	C	0.301350	0.110337	0.000053
C20	C	0.662847	0.116693	0.000036
C21	C	0.988206	-0.038491	0.000058
C22	C	0.986591	-0.130786	0.000059
C23	C	1.058599	-0.353059	0.000049
C24	C	1.057075	-0.439779	0.000041
C25	C	0.905586	-0.419905	0.000036
C26	C	0.907111	-0.333186	0.000037
C27	C	0.983620	-0.299766	0.000048
C28	C	0.980571	-0.473205	0.000039
C29	C	0.978918	-0.567231	0.000031
C30	C	0.985273	-0.205734	0.000055
C31	C	1.134101	0.107404	0.000055
C32	C	1.226397	0.109019	0.000054
C33	C	0.975984	0.265521	0.000035
C34	C	0.977600	0.357816	0.000028
N35	N	0.982089	0.113512	0.217042
N36	N	0.982109	0.113511	-0.216947
C37	C	1.038644	0.056994	0.452057
C38	C	1.038647	0.056992	0.548038
C39	C	0.925547	0.170032	0.548032
C40	C	0.925541	0.170030	0.452052
C41	C	0.982095	0.113511	0.404067
C42	C	0.982103	0.113512	0.596028
C43	C	0.982105	0.113510	0.700095
C44	C	0.982092	0.113512	0.299993
H45	H	0.385413	0.249550	0.000043
N46	N	0.864538	0.230984	0.400284
H47	H	0.828716	0.266791	0.445245
H48	H	0.896350	0.267748	0.360449
H49	H	1.084694	0.010969	0.587108
H50	H	0.542730	0.252317	0.000035
H51	H	0.421454	-0.025285	0.000067
N52	N	0.592883	-0.042343	0.000067
H53	H	0.558554	-0.091043	0.000069
H54	H	0.629301	-0.045010	-0.056456
N55	N	1.099626	-0.003965	0.400287
H56	H	1.158632	0.005620	0.416980
H57	H	1.089993	-0.062949	0.417017
N58	N	1.141117	-0.317015	0.000057
H59	H	1.145130	-0.281469	-0.056464
H60	H	1.145073	-0.281528	0.056623
N61	N	1.137945	-0.497261	0.000042
H62	H	1.186640	-0.462927	0.000050
H63	H	1.140608	-0.533680	0.056567
N64	N	0.823069	-0.455952	0.000027
H65	H	0.833479	-0.518975	0.000030
H66	H	0.790260	-0.436457	0.056553
N67	N	0.826237	-0.275698	0.000029
H68	H	0.777538	-0.310026	0.000028
H69	H	0.823569	-0.239287	0.056554
N70	N	0.864553	0.230989	0.599788
H71	H	0.873137	0.222417	0.667873
H72	H	0.874137	0.289973	0.583001
