data_functionalizedCrystal
_audit_creation_method	'MofGen! by Chris Wilmer'
_symmetry_space_group_name_H-M	'P1'
_symmetry_Int_Tables_number	1
_symmetry_cell_setting	triclinic
loop_
_symmetry_equiv_pos_as_xyz
  x,y,z
_cell_length_a	14.971486
_cell_length_b	10.654550
_cell_length_c	9.730223
_cell_angle_alpha	90.001917
_cell_angle_beta	89.993519
_cell_angle_gamma	95.950470
loop_
_atom_site_label
_atom_site_type_symbol
_atom_site_fract_x
_atom_site_fract_y
_atom_site_fract_z
O1	O	0.125633	-1.666494	-0.114188
O2	O	0.625633	-1.166494	0.385812
O3	O	0.137602	-1.300888	-0.114213
O4	O	0.637602	-0.800888	0.385787
O5	O	0.001471	-1.493490	-0.114190
O6	O	0.501471	-0.993490	0.385810
O7	O	0.261765	-1.473892	-0.114211
O8	O	0.761765	-0.973892	0.385789
O9	O	0.001463	-1.493472	0.114390
O10	O	0.501463	-0.993472	0.614390
O11	O	0.137594	-1.300869	0.114366
O12	O	0.637594	-0.800869	0.614366
O13	O	0.125625	-1.666476	0.114392
O14	O	0.625625	-1.166476	0.614392
Zn15	Zn	0.131608	-1.483669	0.150671
Zn16	Zn	0.631608	-0.983669	0.650671
Zn17	Zn	0.131619	-1.483694	-0.150493
Zn18	Zn	0.631619	-0.983694	0.349507
O19	O	0.261756	-1.473873	0.114369
O20	O	0.761756	-0.973873	0.614369
C21	C	-0.031863	-1.492604	0.000099
C22	C	0.468137	-0.992604	0.500099
C23	C	-0.131174	-1.489978	0.000098
C24	C	0.368826	-0.989978	0.500098
C25	C	0.136720	-1.254090	0.000073
C26	C	0.636720	-0.754090	0.500073
C27	C	0.134090	-1.114675	0.000064
C28	C	0.634090	-0.614675	0.500064
C29	C	0.126508	-1.713274	0.000102
C30	C	0.626508	-1.213274	0.500102
C31	C	0.129137	-1.852689	0.000102
C32	C	0.629137	-1.352689	0.500102
C33	C	-0.187783	-1.603127	0.000107
C34	C	0.312217	-1.103127	0.500107
C35	C	-0.281096	-1.600651	0.000093
C36	C	0.218904	-1.100651	0.500093
C37	C	-0.317798	-1.485026	0.000080
C38	C	0.182202	-0.985026	0.500080
C39	C	-0.261181	-1.371868	0.000067
C40	C	0.238819	-0.871868	0.500067
C41	C	-0.167870	-1.374345	0.000071
C42	C	0.332130	-0.874345	0.500071
C43	C	-0.455672	-1.366714	0.000061
C44	C	0.044328	-0.866714	0.500061
C45	C	-0.548989	-1.364237	0.000060
C46	C	-0.048989	-0.864237	0.500060
C47	C	-0.568898	-1.593020	0.000083
C48	C	-0.068898	-1.093020	0.500083
C49	C	-0.475587	-1.595497	0.000087
C50	C	0.024413	-1.095497	0.500087
C51	C	-0.418976	-1.482339	0.000077
C52	C	0.081024	-0.982339	0.500077
C53	C	0.295090	-1.474759	0.000076
C54	C	0.795090	-0.974759	0.500076
C55	C	0.394401	-1.477385	0.000069
C56	C	0.894401	-0.977385	0.500069
N57	N	0.131601	-1.483662	0.356208
N58	N	0.631601	-0.983662	0.856208
C59	C	0.214242	-1.034329	0.000061
C60	C	0.714242	-0.534329	0.500061
C61	C	0.211766	-0.903335	0.000086
C62	C	0.711766	-0.403335	0.500086
C63	C	0.048979	-0.933044	0.000109
C64	C	0.548979	-0.433044	0.500109
C65	C	0.051456	-1.064036	0.000095
C66	C	0.551456	-0.564036	0.500095
C67	C	0.076861	-1.407449	0.572070
C68	C	0.576861	-0.907449	1.072070
C69	C	0.076849	-1.407434	0.428187
C70	C	0.576849	-0.907434	0.928187
C71	C	0.186362	-1.559919	0.428119
C72	C	0.686362	-1.059919	0.928119
C73	C	0.186369	-1.559939	0.571999
C74	C	0.686369	-1.059939	1.071999
N75	N	0.131620	-1.483697	0.643971
N76	N	0.631620	-0.983697	1.143971
H77	H	-0.157909	-1.697282	0.000126
H78	H	0.342091	-1.197282	0.500126
H79	H	-0.409581	-1.274568	0.000049
H80	H	0.090419	-0.774568	0.500049
H81	H	-0.018299	-0.891798	0.000142
H82	H	0.481701	-0.391798	0.500142
H83	H	0.230961	-1.622037	0.630543
H84	H	0.730961	-1.122037	1.130543
Cl85	Cl	0.312534	-0.802334	0.000084
Cl86	Cl	0.812534	-0.302334	0.500084
Cl87	Cl	0.008010	-1.311567	0.337802
Cl88	Cl	0.508010	-0.811567	0.837802
Cl89	Cl	-0.352260	-1.742903	0.000108
Cl90	Cl	0.147740	-1.242903	0.500108
H91	H	0.230937	-1.621991	0.369502
H92	H	0.730937	-1.121991	0.869502
H93	H	-0.121779	-1.282207	0.000063
H94	H	0.378221	-0.782207	0.500063
H95	H	-0.445708	-1.689649	0.000108
H96	H	0.054292	-1.189649	0.500108
Cl97	Cl	0.008031	-1.311607	0.662543
Cl98	Cl	0.508031	-0.811607	1.162543
Cl99	Cl	-0.049315	-1.165050	0.000109
Cl100	Cl	0.450685	-0.665050	0.500109
Cl101	Cl	-0.307320	-1.226509	0.000033
Cl102	Cl	0.192680	-0.726509	0.500033
H103	H	-0.578868	-1.270084	0.000071
H104	H	-0.078868	-0.770084	0.500071
Cl105	Cl	0.318124	-1.097985	0.000031
Cl106	Cl	0.818124	-0.597985	0.500031
H107	H	-0.614995	-1.685158	0.000087
H108	H	-0.114995	-1.185158	0.500087
