data_functionalizedCrystal
_audit_creation_method	'MofGen! by Chris Wilmer'
_symmetry_space_group_name_H-M	'P1'
_symmetry_Int_Tables_number	1
_symmetry_cell_setting	triclinic
loop_
_symmetry_equiv_pos_as_xyz
  x,y,z
_cell_length_a	16.625539
_cell_length_b	19.805407
_cell_length_c	19.805404
_cell_angle_alpha	89.972033
_cell_angle_beta	89.967673
_cell_angle_gamma	90.028037
loop_
_atom_site_label
_atom_site_type_symbol
_atom_site_fract_x
_atom_site_fract_y
_atom_site_fract_z
Zn1	Zn	-0.456047	-1.034735	-0.269487
Zn2	Zn	0.043953	-0.534735	0.230513
Zn3	Zn	-0.321205	-1.034640	-0.382680
Zn4	Zn	0.178795	-0.534640	0.117320
Zn5	Zn	-0.321210	-0.921546	-0.269508
Zn6	Zn	0.178790	-0.421546	0.230492
Zn7	Zn	-0.455977	-0.921507	-0.382637
Zn8	Zn	0.044023	-0.421507	0.117363
O9	O	-0.388610	-0.978107	-0.326078
O10	O	0.111390	-0.478107	0.173922
O11	O	-0.438187	-1.129439	-0.284512
O12	O	0.061813	-0.629439	0.215488
O13	O	-0.208373	-1.019614	-0.367695
O14	O	0.291627	-0.519614	0.132305
O15	O	-0.339128	-0.936616	-0.174788
O16	O	0.160872	-0.436616	0.325212
O17	O	-0.339119	-1.129369	-0.367674
O18	O	0.160881	-0.629369	0.132326
O19	O	-0.438193	-1.019776	-0.174773
O20	O	0.061807	-0.519776	0.325227
O21	O	-0.208377	-0.936524	-0.284547
O22	O	0.291623	-0.436524	0.215453
O23	O	-0.339060	-0.826824	-0.284505
O24	O	0.160940	-0.326824	0.215495
O25	O	-0.568819	-0.936551	-0.367600
O26	O	-0.068819	-0.436551	0.132400
O27	O	-0.438073	-0.826796	-0.367620
O28	O	0.061927	-0.326796	0.132380
O29	O	-0.568871	-1.019739	-0.284469
O30	O	-0.068871	-0.519739	0.215531
O31	O	-0.339052	-1.019577	-0.477391
O32	O	0.160948	-0.519577	0.022609
O33	O	-0.438068	-0.936459	-0.477359
O34	O	0.061932	-0.436459	0.022641
C35	C	-0.388560	-0.802251	-0.326061
C36	C	0.111440	-0.302251	0.173939
C37	C	-0.388558	-0.727019	-0.326070
C38	C	0.111442	-0.227019	0.173930
C39	C	-0.440109	-0.265231	-0.369430
C40	C	0.059891	0.234769	0.130570
C41	C	-0.440095	-0.335919	-0.369429
C42	C	0.059905	0.164081	0.130571
C43	C	-0.388618	-0.371257	-0.326088
C44	C	0.111382	0.128743	0.173912
C45	C	-0.337146	-0.335903	-0.282748
C46	C	0.162854	0.164097	0.217252
C47	C	-0.337157	-0.265216	-0.282753
C48	C	0.162843	0.234784	0.217247
C49	C	-0.337101	-0.620976	-0.282731
C50	C	0.162899	-0.120976	0.217269
C51	C	-0.337096	-0.691668	-0.282728
C52	C	0.162904	-0.191668	0.217272
C53	C	-0.440038	-0.691680	-0.369407
C54	C	0.059962	-0.191680	0.130593
C55	C	-0.440049	-0.620993	-0.369412
C56	C	0.059951	-0.120993	0.130588
C57	C	-0.388575	-0.585645	-0.326075
C58	C	0.111425	-0.085645	0.173925
C59	C	-0.388590	-0.508996	-0.326077
C60	C	0.111410	-0.008996	0.173923
C61	C	-0.388606	-0.447904	-0.326082
C62	C	0.111394	0.052096	0.173918
C63	C	-0.598919	-0.978151	-0.326027
C64	C	-0.098919	-0.478151	0.173973
C65	C	-0.688540	-0.978170	-0.326006
C66	C	-0.188540	-0.478170	0.173994
C67	C	-1.016716	-0.978201	-0.325930
C68	C	-0.516716	-0.478201	0.174070
C69	C	-0.925408	-0.978190	-0.325953
C70	C	-0.425408	-0.478190	0.174047
C71	C	-0.852631	-0.978186	-0.325969
C72	C	-0.352631	-0.478186	0.174031
C73	C	-0.761317	-0.978175	-0.325991
C74	C	-0.261317	-0.478175	0.174009
C75	C	-0.179119	-0.978102	-0.326079
C76	C	0.320881	-0.478102	0.173921
C77	C	-0.089499	-0.978215	-0.325910
C78	C	0.410501	-0.478215	0.174090
C79	C	-0.388569	-0.978022	-0.501934
C80	C	0.111431	-0.478022	-0.001934
C81	C	-0.388579	-0.978047	-0.577166
C82	C	0.111421	-0.478047	-0.077166
C83	C	-0.388651	-0.154650	-0.326093
C84	C	0.111349	0.345350	0.173907
C85	C	-0.388643	-0.229882	-0.326092
C86	C	0.111357	0.270118	0.173908
C87	C	-0.440306	-1.021500	-1.038890
C88	C	0.059694	-0.521500	-0.538890
C89	C	-0.440288	-1.021473	-0.968202
C90	C	0.059712	-0.521473	-0.468202
C91	C	-0.388660	-0.978198	-0.932928
C92	C	0.111340	-0.478198	-0.432928
C93	C	-0.337042	-0.934951	-0.968346
C94	C	0.162958	-0.434951	-0.468346
C95	C	-0.337057	-0.934982	-1.039033
C96	C	0.162943	-0.434982	-0.539033
C97	C	-0.336979	-0.934827	-0.683273
C98	C	0.163021	-0.434827	-0.183273
C99	C	-0.336970	-0.934799	-0.612580
C100	C	0.163030	-0.434799	-0.112580
C101	C	-0.440210	-1.021319	-0.612441
C102	C	0.059790	-0.521319	-0.112441
C103	C	-0.440225	-1.021350	-0.683128
C104	C	0.059775	-0.521350	-0.183128
C105	C	-0.388604	-0.978106	-0.718540
C106	C	0.111396	-0.478106	-0.218540
C107	C	-0.388624	-0.978136	-0.795189
C108	C	0.111376	-0.478136	-0.295189
C109	C	-0.388644	-0.978164	-0.856280
C110	C	0.111356	-0.478164	-0.356280
C111	C	-0.388669	-0.978211	-0.149535
C112	C	0.111331	-0.478211	0.350465
C113	C	-0.388694	-0.978255	-0.074303
C114	C	0.111306	-0.478255	0.425697
H115	H	-0.295184	-0.592204	-0.247446
H116	H	0.204816	-0.092204	0.252554
O117	O	-0.281390	-0.888342	-1.077238
O118	O	0.218610	-0.388342	-0.577238
H119	H	-0.295149	-0.835206	-1.063720
H120	H	0.204851	-0.335206	-0.563720
O121	O	-0.495877	-1.067975	-0.574249
O122	O	0.004123	-0.567975	-0.074249
H123	H	-0.536852	-1.037654	-0.542038
H124	H	-0.036852	-0.537654	-0.042038
H125	H	-0.295251	-0.236435	-0.247461
H126	H	0.204749	0.263565	0.252539
H127	H	-0.294925	-0.899557	-0.583862
H128	H	0.205075	-0.399557	-0.083862
H129	H	-0.294947	-0.899615	-0.712096
H130	H	0.205053	-0.399615	-0.212096
O131	O	-0.281355	-0.888273	-0.930305
O132	O	0.218645	-0.388273	-0.430305
H133	H	-0.290020	-0.895511	-0.875202
H134	H	0.209980	-0.395511	-0.375202
H135	H	-0.482032	-0.236464	-0.404720
H136	H	0.017968	0.263536	0.095280
O137	O	-0.495564	-0.729810	-0.416143
O138	O	0.004436	-0.229810	0.083857
H139	H	-0.459409	-0.761982	-0.450549
H140	H	0.040591	-0.261982	0.049451
H141	H	-0.482001	-0.364698	-0.404720
H142	H	0.017999	0.135302	0.095280
O143	O	-0.281624	-0.374012	-0.235998
O144	O	0.218376	0.125988	0.264002
H145	H	-0.290268	-0.429105	-0.243269
H146	H	0.209732	0.070895	0.256731
O147	O	-0.495914	-1.068024	-0.721170
O148	O	0.004086	-0.568024	-0.221170
H149	H	-0.487259	-1.060775	-0.776273
H150	H	0.012741	-0.560775	-0.276273
H151	H	-0.482314	-1.056687	-0.939368
H152	H	0.017686	-0.556687	-0.439368
H153	H	-0.295176	-0.720439	-0.247432
H154	H	0.204824	-0.220439	0.252568
O155	O	-0.495990	-1.068177	-1.076935
O156	O	0.004010	-0.568177	-0.576935
H157	H	-0.531870	-1.098248	-1.040431
H158	H	-0.031870	-0.598248	-0.540431
H159	H	-0.481970	-0.592224	-0.404702
H160	H	0.018030	-0.092224	0.095298
