data_functionalizedCrystal
_audit_creation_method	'MofGen! by Chris Wilmer'
_symmetry_space_group_name_H-M	'P1'
_symmetry_Int_Tables_number	1
_symmetry_cell_setting	triclinic
loop_
_symmetry_equiv_pos_as_xyz
  x,y,z
_cell_length_a	16.109301
_cell_length_b	10.654541
_cell_length_c	15.186229
_cell_angle_alpha	89.996481
_cell_angle_beta	89.999362
_cell_angle_gamma	83.972705
loop_
_atom_site_label
_atom_site_type_symbol
_atom_site_fract_x
_atom_site_fract_y
_atom_site_fract_z
O1	O	1.104089	0.161419	-0.073172
O2	O	1.604089	0.661419	0.426828
O3	O	0.862147	0.181508	-0.073186
O4	O	1.362147	0.681508	0.426814
O5	O	0.988682	-0.011352	-0.073174
O6	O	1.488682	0.488648	0.426826
O7	O	0.977554	0.354278	-0.073185
O8	O	1.477554	0.854278	0.426815
O9	O	0.988673	-0.011354	0.073284
O10	O	1.488673	0.488646	0.573284
O11	O	0.862138	0.181505	0.073271
O12	O	1.362138	0.681505	0.573271
O13	O	1.104081	0.161416	0.073285
O14	O	1.604081	0.661416	0.573285
Zn15	Zn	0.983108	0.171460	0.096531
Zn16	Zn	1.483108	0.671460	0.596531
Zn17	Zn	0.983119	0.171464	-0.096433
Zn18	Zn	1.483119	0.671464	0.403567
O19	O	0.977546	0.354276	0.073272
O20	O	1.477546	0.854276	0.573272
C21	C	0.831163	0.180692	0.000040
C22	C	1.331163	0.680692	0.500040
C23	C	0.738853	0.178253	0.000035
C24	C	1.238853	0.678253	0.500035
C25	C	0.517227	0.287019	0.000042
C26	C	1.017227	0.787019	0.500042
C27	C	0.430493	0.284717	0.000048
C28	C	0.930493	0.784717	0.500048
C29	C	0.449008	0.055896	0.000051
C30	C	0.949008	0.555896	0.500051
C31	C	0.535740	0.058200	0.000052
C32	C	1.035740	0.558200	0.500052
C33	C	0.569847	0.173765	0.000043
C34	C	1.069847	0.673765	0.500043
C35	C	0.396381	0.169159	0.000048
C36	C	0.896381	0.669159	0.500048
C37	C	0.302340	0.166662	0.000054
C38	C	0.802340	0.666662	0.500054
C39	C	0.663894	0.176262	0.000038
C40	C	1.163894	0.676262	0.500038
C41	C	0.987861	-0.058140	0.000054
C42	C	1.487861	0.441860	0.500054
C43	C	0.985418	-0.197550	0.000053
C44	C	1.485418	0.302450	0.500053
C45	C	1.136725	-0.227574	0.000073
C46	C	1.636725	0.272426	0.500073
C47	C	1.211227	-0.308079	0.000084
C48	C	1.711227	0.191921	0.500084
C49	C	1.208926	-0.439066	0.000081
C50	C	1.708926	0.060934	0.500081
C51	C	1.132115	-0.489549	0.000064
C52	C	1.632115	0.010451	0.500064
C53	C	1.057613	-0.409044	0.000053
C54	C	1.557613	0.090956	0.500053
C55	C	1.059922	-0.278056	0.000058
C56	C	1.559922	0.221944	0.500058
C57	C	0.906308	-0.379021	0.000026
C58	C	1.406308	0.120979	0.500026
C59	C	0.908607	-0.248034	0.000036
C60	C	1.408607	0.251966	0.500036
C61	C	0.829496	-0.429504	0.000009
C62	C	1.329496	0.070496	0.500009
C63	C	0.754992	-0.348998	0.000004
C64	C	1.254992	0.151002	0.500004
C65	C	0.757296	-0.218004	0.000008
C66	C	1.257296	0.281996	0.500008
C67	C	0.834104	-0.167529	0.000024
C68	C	1.334104	0.332471	0.500024
C69	C	1.135065	0.162231	0.000056
C70	C	1.635065	0.662231	0.500056
C71	C	1.227375	0.164671	0.000055
C72	C	1.727375	0.664671	0.500055
C73	C	0.978367	0.401064	0.000042
C74	C	1.478367	0.901064	0.500042
C75	C	0.980810	0.540474	0.000038
C76	C	1.480810	1.040474	0.500038
N77	N	0.983107	0.171457	0.228224
N78	N	1.483107	0.671457	0.728224
N79	N	0.983128	0.171457	-0.228125
N80	N	1.483128	0.671457	0.271875
C81	C	1.039156	0.086088	0.453952
C82	C	1.539156	0.586088	0.953952
C83	C	1.039158	0.086085	0.546142
C84	C	1.539158	0.586085	1.046142
C85	C	0.927072	0.256830	0.546140
C86	C	1.427072	0.756830	1.046140
C87	C	0.927066	0.256826	0.453952
C88	C	1.427066	0.756826	0.953952
C89	C	0.983113	0.171456	0.407860
C90	C	1.483113	0.671456	0.907860
C91	C	0.983121	0.171458	0.592238
C92	C	1.483121	0.671458	1.092238
C93	C	0.983124	0.171455	0.692194
C94	C	1.483124	0.671455	1.192194
C95	C	0.983110	0.171457	0.307898
C96	C	1.483110	0.671457	0.807898
H97	H	0.421227	-0.038193	0.000064
H98	H	0.921227	0.461807	0.500064
Br99	Br	0.607160	-0.095514	0.000064
Br100	Br	1.107160	0.404486	0.500064
Br101	Br	1.310036	-0.548328	0.000086
Br102	Br	1.810036	-0.048328	0.500086
H103	H	0.544993	0.381120	0.000041
H104	H	1.044993	0.881120	0.500041
Br105	Br	1.139853	-0.049806	0.000101
Br106	Br	1.639853	0.450194	0.500101
Br107	Br	0.851014	0.372688	0.608695
Br108	Br	1.351014	0.872688	1.108695
Br109	Br	1.115215	-0.029783	0.608694
Br110	Br	1.615215	0.470217	1.108694
Br111	Br	0.850997	0.372682	0.391391
Br112	Br	1.350997	0.872682	0.891391
H113	H	0.387652	0.376940	0.000049
H114	H	0.887652	0.876940	0.500049
Br115	Br	1.315466	-0.239562	0.000099
Br116	Br	1.815466	0.260438	0.500099
Br117	Br	1.128994	-0.667318	-0.000009
Br118	Br	1.628994	-0.167318	0.499991
H119	H	0.827628	-0.536161	0.000001
H120	H	1.327628	-0.036161	0.500001
H121	H	0.692459	-0.390113	-0.000016
H122	H	1.192459	0.109887	0.499984
Br123	Br	0.837237	0.010239	0.000039
Br124	Br	1.337237	0.510239	0.500039
H125	H	1.084791	0.016573	0.416427
H126	H	1.584791	0.516573	0.916427
H127	H	0.696627	-0.152463	-0.000006
H128	H	1.196627	0.347537	0.499994
