data_functionalizedCrystal
_audit_creation_method	'MofGen! by Chris Wilmer'
_symmetry_space_group_name_H-M	'P1'
_symmetry_Int_Tables_number	1
_symmetry_cell_setting	triclinic
loop_
_symmetry_equiv_pos_as_xyz
  x,y,z
_cell_length_a	15.298114
_cell_length_b	15.299816
_cell_length_c	12.759393
_cell_angle_alpha	80.349878
_cell_angle_beta	80.330602
_cell_angle_gamma	69.256891
loop_
_atom_site_label
_atom_site_type_symbol
_atom_site_fract_x
_atom_site_fract_y
_atom_site_fract_z
Zn1	Zn	1.485560	-0.615768	0.418301
Zn2	Zn	1.512349	-0.771241	0.268575
Zn3	Zn	1.330071	-0.588940	0.268618
Zn4	Zn	1.356922	-0.744307	0.470159
O5	O	1.421225	-0.680064	0.356413
O6	O	1.619233	-0.658891	0.376719
O7	O	1.488143	-0.747103	0.121574
O8	O	1.328248	-0.462410	0.266789
O9	O	1.638915	-0.773117	0.266716
O10	O	1.442486	-0.482121	0.376761
O11	O	1.354224	-0.613167	0.121605
O12	O	1.203513	-0.587050	0.317073
O13	O	1.374012	-0.727212	0.610287
O14	O	1.223240	-0.701198	0.465145
O15	O	1.468522	-0.632775	0.572187
O16	O	1.514179	-0.897756	0.317000
O17	O	1.399988	-0.877968	0.465103
C18	C	1.179638	-0.638290	0.396742
C19	C	1.076290	-0.620442	0.414023
C20	C	1.462929	-0.921597	0.396693
C21	C	1.480856	-1.024941	0.413946
C22	C	0.825889	-0.807637	0.233161
C23	C	0.922989	-0.824405	0.216916
C24	C	0.961319	-0.773416	0.266192
C25	C	0.902539	-0.705655	0.331714
C26	C	0.805428	-0.688880	0.347954
C27	C	0.940859	-0.654659	0.380985
C28	C	0.882079	-0.586898	0.446507
C29	C	0.784978	-0.570126	0.462744
C30	C	0.746647	-0.621115	0.413469
C31	C	1.037970	-0.671435	0.364745
C32	C	1.017509	-0.552678	0.479538
C33	C	0.920409	-0.535909	0.495783
C34	C	1.293714	-1.275539	0.233360
C35	C	1.276866	-1.178442	0.217153
C36	C	1.327862	-1.140062	0.266350
C37	C	1.395708	-1.198789	0.331756
C38	C	1.412552	-1.295894	0.347971
C39	C	1.446701	-1.160417	0.380961
C40	C	1.514547	-1.219144	0.446367
C41	C	1.531388	-1.316240	0.462579
C42	C	1.480392	-1.354620	0.413382
C43	C	1.429857	-1.063311	0.364746
C44	C	1.548695	-1.083666	0.479357
C45	C	1.565543	-1.180763	0.495564
C46	C	1.663756	-0.722001	0.315928
C47	C	1.767108	-0.739872	0.298676
C48	C	1.421274	-0.679981	0.630420
C49	C	1.421295	-0.679946	0.747186
C50	C	1.379384	-0.437592	0.315995
C51	C	1.361553	-0.334265	0.298771
C52	C	1.421218	-0.680088	0.083452
C53	C	1.421333	-0.679893	-0.033386
C54	C	1.470514	-0.630768	0.782209
C55	C	1.470530	-0.630739	0.891923
C56	C	1.372108	-0.729072	0.931585
C57	C	1.372087	-0.729096	0.821872
C58	C	1.527340	-0.574000	0.759311
C59	C	1.527357	-0.573970	0.869026
H60	H	1.085820	-0.726607	0.311396
H61	H	1.489763	-0.501107	0.895966
H62	H	1.590219	-1.052418	0.519420
F63	F	1.498472	-1.457989	0.430429
F64	F	1.603581	-1.378736	0.532210
F65	F	1.625841	-0.615434	0.896437
H66	H	1.314142	-1.061001	0.253149
F67	F	1.064663	-0.791267	0.248904
F68	F	0.985537	-0.896503	0.147165
H69	H	1.332042	-0.769085	0.992406
H70	H	0.872537	-0.480737	0.549131
F71	F	1.485889	-0.475544	0.708921
F72	F	1.058297	-0.498403	0.531979
F73	F	0.785087	-0.861887	0.180716
H74	H	1.600190	-0.611631	0.718160
F75	F	0.643303	-0.603283	0.430769
F76	F	1.319686	-0.781422	0.784602
H77	H	0.737120	-0.514944	0.516089
H78	H	1.374616	-1.015504	0.311492
H79	H	1.620783	-1.228592	0.548819
H80	H	1.221626	-1.130630	0.163901
H81	H	1.252196	-1.306798	0.193317
