data_functionalizedCrystal
_audit_creation_method	'MofGen! by Chris Wilmer'
_symmetry_space_group_name_H-M	'P1'
_symmetry_Int_Tables_number	1
_symmetry_cell_setting	triclinic
loop_
_symmetry_equiv_pos_as_xyz
  x,y,z
_cell_length_a	19.805407
_cell_length_b	16.120444
_cell_length_c	19.805399
_cell_angle_alpha	87.128215
_cell_angle_beta	90.017803
_cell_angle_gamma	92.923874
loop_
_atom_site_label
_atom_site_type_symbol
_atom_site_fract_x
_atom_site_fract_y
_atom_site_fract_z
Zn1	Zn	1.021068	-0.331988	0.396351
Zn2	Zn	1.015243	-0.471406	0.288901
Zn3	Zn	0.907882	-0.332004	0.283180
Zn4	Zn	0.902108	-0.471356	0.402049
O5	O	0.961575	-0.401688	0.342621
O6	O	1.115011	-0.350496	0.382108
O7	O	1.000980	-0.452943	0.193427
O8	O	0.927750	-0.215336	0.293414
O9	O	1.110732	-0.452927	0.303164
O10	O	1.010908	-0.215324	0.376560
O11	O	0.922102	-0.350524	0.189224
O12	O	0.812400	-0.350475	0.298939
O13	O	0.917910	-0.452840	0.496009
O14	O	0.808158	-0.452856	0.386272
O15	O	1.005309	-0.350447	0.491823
O16	O	0.995381	-0.588066	0.308690
O17	O	0.912262	-0.588029	0.391819
C18	C	0.785720	-0.401662	0.342603
C19	C	0.710488	-0.401671	0.342612
C20	C	0.677369	-0.348430	0.383788
C21	C	0.606680	-0.348435	0.383791
C22	C	0.569112	-0.401685	0.342621
C23	C	0.602236	-0.454928	0.301441
C24	C	0.672923	-0.454919	0.301435
C25	C	0.317161	-0.454966	0.301463
C26	C	0.246468	-0.454973	0.301474
C27	C	0.250918	-0.348481	0.383819
C28	C	0.321605	-0.348472	0.383813
C29	C	0.354723	-0.401712	0.342631
C30	C	0.431372	-0.401706	0.342627
C31	C	0.492464	-0.401696	0.342628
C32	C	0.952581	-0.618298	0.351508
C33	C	0.948796	-0.710964	0.355333
C34	C	0.981379	-0.921905	0.322925
C35	C	0.941897	-0.880621	0.362323
C36	C	0.945736	-0.786215	0.358433
C37	C	0.977540	-1.016319	0.326815
C38	C	1.138117	-0.401715	0.342639
C39	C	1.213348	-0.401727	0.342646
C40	C	0.961615	-0.401636	0.519161
C41	C	0.961632	-0.401614	0.594392
C42	C	0.970623	-0.184234	0.333713
C43	C	0.974478	-0.091567	0.329917
C44	C	0.961577	-0.401681	0.166764
C45	C	0.961700	-0.401468	0.091524
C46	C	1.007142	-0.348295	0.627558
C47	C	1.007150	-0.348271	0.698245
C48	C	0.961651	-0.401570	0.735766
C49	C	0.916136	-0.454891	0.702596
C50	C	0.916126	-0.454910	0.631910
C51	C	0.916178	-0.454813	0.987666
C52	C	0.916193	-0.454792	1.058357
C53	C	1.007202	-0.348174	1.054002
C54	C	1.007192	-0.348193	0.983315
C55	C	0.961675	-0.401511	0.950151
C56	C	0.961666	-0.401535	0.873504
C57	C	0.961663	-0.401550	0.812413
H58	H	0.699888	-0.498273	0.267905
H59	H	0.905210	-0.916177	0.398975
O60	O	1.051426	-0.296454	0.730356
C61	C	1.091574	-0.249405	0.682081
H62	H	1.092487	-0.283570	0.633093
H63	H	1.145276	-0.240519	0.702150
H64	H	1.069426	-0.186083	0.671964
H65	H	0.707952	-0.305070	0.417315
H66	H	0.879088	-0.498285	0.733151
H67	H	0.579718	-0.305082	0.417321
O68	O	0.357997	-0.296666	0.423823
C69	C	0.313606	-0.249687	0.460179
H70	H	0.263327	-0.246762	0.432345
H71	H	0.336754	-0.184009	0.464788
H72	H	0.304842	-0.280299	0.512802
H73	H	1.018062	-0.886352	0.286275
H74	H	1.044195	-0.304895	0.597013
O75	O	1.051414	-0.296339	0.946970
C76	C	1.091596	-0.249286	0.991401
H77	H	1.064002	-0.246381	1.041667
H78	H	1.101543	-0.183605	0.968289
H79	H	1.141733	-0.279819	1.000177
O80	O	0.871932	-0.506672	0.955564
C81	C	0.831763	-0.553689	1.003840
H82	H	0.859383	-0.556584	1.054346
H83	H	0.821785	-0.619375	0.986101
H84	H	0.781640	-0.523129	1.010112
O85	O	1.051348	-0.296398	1.086324
C86	C	1.041614	-0.307817	1.156760
H87	H	0.988245	-0.335109	1.167525
H88	H	1.048809	-0.245360	1.181064
H89	H	1.079917	-0.352214	1.178647
O90	O	0.872084	-0.506657	1.094839
C91	C	0.908385	-0.560489	1.137947
H92	H	0.961474	-0.565656	1.116861
H93	H	0.881233	-0.624643	1.141373
H94	H	0.911803	-0.534699	1.190464
O95	O	0.218667	-0.296872	0.423858
C96	C	0.175837	-0.344414	0.469474
H97	H	0.162620	-0.407556	0.448107
H98	H	0.127541	-0.310474	0.477204
H99	H	0.202717	-0.353657	0.519998
O100	O	0.871993	-0.506830	0.599722
C101	C	0.883326	-0.589918	0.620412
H102	H	0.937224	-0.594123	0.640032
H103	H	0.875784	-0.631117	0.575609
H104	H	0.846134	-0.611701	0.662323
O105	O	0.210043	-0.506815	0.261514
C106	C	0.223866	-0.589933	0.279607
H107	H	0.275128	-0.591701	0.305688
H108	H	0.224715	-0.627231	0.232236
H109	H	0.182932	-0.618078	0.315527
O110	O	0.349395	-0.506730	0.261561
C111	C	0.388052	-0.560650	0.302233
H112	H	0.399885	-0.531325	0.352359
H113	H	0.437284	-0.571781	0.275096
H114	H	0.358249	-0.622445	0.312131
H115	H	0.571642	-0.498282	0.267917
