data_functionalizedCrystal
_audit_creation_method	'MofGen! by Chris Wilmer'
_symmetry_space_group_name_H-M	'P1'
_symmetry_Int_Tables_number	1
_symmetry_cell_setting	triclinic
loop_
_symmetry_equiv_pos_as_xyz
  x,y,z
_cell_length_a	17.038272
_cell_length_b	10.723024
_cell_length_c	9.198806
_cell_angle_alpha	89.996352
_cell_angle_beta	89.996863
_cell_angle_gamma	92.210287
loop_
_atom_site_label
_atom_site_type_symbol
_atom_site_fract_x
_atom_site_fract_y
_atom_site_fract_z
O1	O	-0.109720	1.667337	-0.120861
O2	O	-0.120222	1.305156	-0.120864
O3	O	-0.001144	1.484094	-0.120876
O4	O	-0.228799	1.488399	-0.120850
O5	O	-0.001144	1.484079	0.120909
O6	O	-0.120222	1.305141	0.120921
O7	O	-0.109720	1.667322	0.120924
Cu8	Cu	-0.114971	1.486230	0.142999
Cu9	Cu	-0.114971	1.486248	-0.142940
O10	O	-0.228798	1.488384	0.120935
C11	C	-0.119458	1.258578	0.000027
C12	C	-0.117171	1.119813	0.000025
C13	C	-0.183801	1.050993	0.000032
C14	C	-0.181440	0.907571	0.000030
C15	C	-0.257948	1.492307	0.000045
C16	C	-0.344806	1.503989	0.000055
C17	C	-0.394327	1.396734	0.000053
C18	C	-0.475938	1.407718	0.000035
C19	C	-0.508027	1.525958	0.000029
C20	C	-0.458499	1.633222	0.000026
C21	C	-0.376889	1.622237	0.000034
C22	C	-0.753999	1.564767	-0.000004
C23	C	-0.835615	1.575744	-0.000007
C24	C	-0.853049	1.350239	-0.000001
C25	C	-0.771437	1.339264	0.000016
C26	C	-0.721916	1.446528	0.000005
C27	C	-0.591446	1.537189	0.000015
C28	C	-0.638498	1.435296	0.000009
C29	C	0.028006	1.480171	0.000010
C30	C	0.114864	1.468489	-0.000009
C31	C	-0.110484	1.713900	0.000029
C32	C	-0.112771	1.852666	0.000021
N33	N	-0.114970	1.486226	0.344113
N34	N	-0.114966	1.486261	-0.344054
C35	C	-0.064752	1.561337	0.416305
C36	C	-0.064749	1.561356	0.583717
H37	H	-0.058378	1.072552	-0.000019
H38	H	-0.238480	0.848415	0.000029
C39	C	-0.359037	1.266668	0.000052
H40	H	-0.400222	1.204365	0.000032
H41	H	-0.327567	1.257682	0.084367
H42	H	-0.327561	1.257707	-0.084276
H43	H	-0.055727	0.911814	0.000006
H44	H	-0.516256	1.320379	0.000030
H45	H	-0.745317	1.242980	0.000004
C46	C	-0.173054	1.399384	0.572104
H47	H	-0.204562	1.352280	0.639138
H48	H	-0.144687	1.344335	0.512730
H49	H	-0.205762	1.447951	0.512727
H50	H	-0.893377	1.262912	0.000006
H51	H	-0.242594	1.098254	0.000047
C52	C	-0.870911	1.705814	-0.000015
H53	H	-0.829731	1.768124	-0.000031
H54	H	-0.902387	1.714781	0.084302
H55	H	-0.902383	1.714784	-0.084341
C56	C	-0.699537	1.682753	0.000009
H57	H	-0.730339	1.754742	0.000023
H58	H	-0.667332	1.683171	-0.084302
H59	H	-0.667346	1.683146	0.084341
H60	H	-0.484632	1.729496	0.000024
H61	H	-0.336569	1.709576	0.000029
C62	C	-0.603207	1.305237	0.000010
H63	H	-0.644386	1.242925	-0.000000
H64	H	-0.571735	1.296266	0.084324
H65	H	-0.571732	1.296275	-0.084318
H66	H	-0.617582	1.633461	0.000059
C67	C	-0.006665	1.648227	0.667576
H68	H	-0.014278	1.636836	0.769094
H69	H	-0.015473	1.732519	0.642686
H70	H	0.045599	1.628899	0.642699
H71	H	-0.021757	1.625624	0.354175
H72	H	-0.157959	1.421931	0.406245
