data_functionalizedCrystal
_audit_creation_method	'MofGen! by Chris Wilmer'
_symmetry_space_group_name_H-M	'P1'
_symmetry_Int_Tables_number	1
_symmetry_cell_setting	triclinic
loop_
_symmetry_equiv_pos_as_xyz
  x,y,z
_cell_length_a	17.038272
_cell_length_b	17.019372
_cell_length_c	16.098687
_cell_angle_alpha	96.590091
_cell_angle_beta	87.071094
_cell_angle_gamma	87.242864
loop_
_atom_site_label
_atom_site_type_symbol
_atom_site_fract_x
_atom_site_fract_y
_atom_site_fract_z
O1	O	0.099258	1.053645	0.006242
O2	O	0.599258	1.553645	0.506242
O3	O	0.112796	0.824054	-0.010211
O4	O	0.612796	1.324054	0.489789
O5	O	-0.007783	0.937485	-0.002075
O6	O	0.492217	1.437485	0.497925
O7	O	0.219836	0.940214	-0.001893
O8	O	0.719836	1.440214	0.498107
O9	O	-0.014802	0.944075	0.136907
O10	O	0.485198	1.444075	0.636907
O11	O	0.105776	0.830644	0.128772
O12	O	0.605776	1.330644	0.628772
O13	O	0.092239	1.060235	0.145225
O14	O	0.592239	1.560235	0.645225
Zn15	Zn	0.097893	0.946486	0.159065
Zn16	Zn	0.597893	1.446486	0.659065
Zn17	Zn	0.107141	0.937803	-0.024051
Zn18	Zn	0.607141	1.437803	0.475949
O19	O	0.212817	0.946804	0.137090
O20	O	0.712817	1.446804	0.637090
C21	C	0.108912	0.797828	0.057165
C22	C	0.608912	1.297828	0.557165
C23	C	0.107788	0.709862	0.050861
C24	C	0.607788	1.209862	0.550861
C25	C	0.101600	0.212167	0.011353
C26	C	0.601600	0.712167	0.511353
C27	C	0.102656	0.294820	0.017287
C28	C	0.602656	0.794820	0.517287
C29	C	0.099363	0.339731	0.096014
C30	C	0.599363	0.839731	0.596014
C31	C	0.095006	0.301985	0.168812
C32	C	0.595006	0.801985	0.668812
C33	C	0.093945	0.219334	0.162877
C34	C	0.593945	0.719334	0.662877
C35	C	0.102370	0.589465	0.117724
C36	C	0.602370	1.089465	0.617724
C37	C	0.103434	0.672122	0.123654
C38	C	0.603434	1.172122	0.623654
C39	C	0.111082	0.664951	-0.027872
C40	C	0.611082	1.164951	0.472128
C41	C	0.110025	0.582298	-0.033800
C42	C	0.610025	1.082298	0.466200
C43	C	0.105665	0.544560	0.038998
C44	C	0.605665	1.044560	0.538998
C45	C	0.100444	0.424216	0.102082
C46	C	0.600444	0.924216	0.602082
C47	C	0.104578	0.460077	0.032929
C48	C	0.604578	0.960077	0.532929
C49	C	-0.040410	0.938298	0.067238
C50	C	0.459590	1.438298	0.567238
C51	C	-0.127169	0.930893	0.066707
C52	C	0.372831	1.430893	0.566707
C53	C	-0.177589	0.998883	0.071580
C54	C	0.322411	1.498883	0.571580
C55	C	-0.259108	0.991920	0.071073
C56	C	0.240892	1.491920	0.571073
C57	C	-0.290205	0.916966	0.065699
C58	C	0.209795	1.416966	0.565699
C59	C	-0.239779	0.848970	0.060823
C60	C	0.260221	1.348970	0.560823
C61	C	-0.158261	0.855934	0.061324
C62	C	0.341739	1.355934	0.561324
C63	C	-0.535852	0.892364	0.063925
C64	C	-0.035852	1.392364	0.563925
C65	C	-0.617376	0.885405	0.063427
C66	C	-0.117376	1.385405	0.563427
C67	C	-0.636700	1.028356	0.073675
C68	C	-0.136700	1.528356	0.573675
C69	C	-0.555180	1.035314	0.074181
C70	C	-0.055180	1.535314	0.574181
C71	C	-0.504760	0.967318	0.069300
C72	C	-0.004760	1.467318	0.569300
C73	C	-0.373531	0.909846	0.065183
C74	C	0.126469	1.409846	0.565183
C75	C	-0.421436	0.974437	0.069810
C76	C	0.078564	1.474437	0.569810
C77	C	0.245444	0.945991	0.067774
C78	C	0.745444	1.445991	0.567774
C79	C	0.332204	0.953396	0.068300
C80	C	0.832204	1.453396	0.568300
C81	C	0.096122	1.086461	0.077847
C82	C	0.596122	1.586461	0.577847
C83	C	0.097247	1.174426	0.084145
C84	C	0.597247	1.674426	0.584145
N85	N	0.091580	0.952418	0.284037
N86	N	0.591580	1.452418	0.784037
N87	N	0.113447	0.931877	-0.149022
N88	N	0.613447	1.431877	0.350978
C89	C	0.062288	0.980033	0.810825
C90	C	0.562288	1.480033	1.310825
C91	C	0.066714	0.975866	0.723339
C92	C	0.566714	1.475866	1.223339
C93	C	0.122296	0.923538	0.676007
C94	C	0.622296	1.423538	1.176007
C95	C	0.173460	0.875380	0.716166
C96	C	0.673460	1.375380	1.216166
C97	C	0.169038	0.879552	0.803651
C98	C	0.669038	1.379552	1.303651
C99	C	0.138322	0.908432	0.411680
C100	C	0.638322	1.408432	0.911680
C101	C	0.142740	0.904262	0.324190
C102	C	0.642740	1.404262	0.824190
C103	C	0.035994	1.004749	0.331369
C104	C	0.535994	1.504749	0.831369
C105	C	0.031573	1.008913	0.418854
C106	C	0.531573	1.508913	0.918854
C107	C	0.082740	0.960758	0.459006
C108	C	0.582740	1.460758	0.959006
C109	C	0.126819	0.919275	0.586582
C110	C	0.626819	1.419275	1.086582
C111	C	0.078220	0.965025	0.548430
C112	C	0.578220	1.465025	1.048430
H113	H	0.097765	0.460791	0.166182
H114	H	0.597765	0.960791	0.666182
H115	H	0.107256	0.423507	-0.031170
H116	H	0.607256	0.923507	0.468830
H117	H	0.090408	0.188606	0.222153
H118	H	0.590408	0.688606	0.722153
Br119	Br	-0.033442	1.070100	0.276874
Br120	Br	0.466558	1.570100	0.776874
Br121	Br	-0.281981	0.747244	0.053515
Br122	Br	0.218019	1.247244	0.553515
Br123	Br	0.238476	0.814200	0.858144
Br124	Br	0.738476	1.314200	1.358144
Br125	Br	-0.135395	1.100613	0.078886
Br126	Br	0.364605	1.600613	0.578886
Br127	Br	0.108558	0.346038	-0.081507
Br128	Br	0.608558	0.846038	0.418493
Br129	Br	0.090533	0.362934	0.275658
Br130	Br	0.590533	0.862934	0.775658
Br131	Br	0.218175	0.833235	0.259958
Br132	Br	0.718175	1.333235	0.759958
Br133	Br	0.002794	1.036044	0.612666
Br134	Br	0.502794	1.536044	1.112666
H135	H	0.218720	0.832777	0.677624
H136	H	0.718720	1.332777	1.177624
Br137	Br	0.098967	0.733072	0.230505
Br138	Br	0.598967	1.233072	0.730505
H139	H	0.172074	0.876667	0.548037
H140	H	0.672074	1.376667	1.048037
H141	H	0.104287	0.175606	-0.052755
H142	H	0.604287	0.675606	0.447245
H143	H	0.179983	0.869221	0.444365
H144	H	0.679983	1.369221	0.944365
H145	H	-0.529867	1.096349	0.078557
H146	H	-0.029867	1.596349	0.578557
Br147	Br	0.116995	0.716173	-0.126663
Br148	Br	0.616995	1.216173	0.373337
Br149	Br	0.114498	0.521353	-0.140648
Br150	Br	0.614498	1.021353	0.359352
Br151	Br	-0.089832	0.763657	0.054703
Br152	Br	0.410168	1.263657	0.554703
Br153	Br	-0.327533	1.084198	0.077687
Br154	Br	0.172467	1.584198	0.577687
Br155	Br	-0.415741	0.808125	0.057882
Br156	Br	0.084259	1.308125	0.557882
H157	H	-0.677760	1.083714	0.077647
H158	H	-0.177760	1.583714	0.577647
Br159	Br	-0.013153	1.051047	0.875051
Br160	Br	0.486847	1.551047	1.375051
H161	H	0.098808	0.558749	0.177002
H162	H	0.598808	1.058749	0.677002
Br163	Br	-0.659579	0.783675	0.056141
Br164	Br	-0.159579	1.283675	0.556141
H165	H	-0.494810	0.836996	0.059951
H166	H	0.005190	1.336996	0.559951
Br167	Br	-0.043862	1.079926	0.483092
Br168	Br	0.456138	1.579926	0.983092
H169	H	-0.396112	1.035464	0.074167
H170	H	0.103888	1.535464	0.574167
H171	H	0.025057	1.015079	0.690647
H172	H	0.525057	1.515079	1.190647
