data_functionalizedCrystal
_audit_creation_method	'MofGen! by Chris Wilmer'
_symmetry_space_group_name_H-M	'P1'
_symmetry_Int_Tables_number	1
_symmetry_cell_setting	triclinic
loop_
_symmetry_equiv_pos_as_xyz
  x,y,z
_cell_length_a	16.793024
_cell_length_b	16.793047
_cell_length_c	33.586455
_cell_angle_alpha	113.253857
_cell_angle_beta	66.219990
_cell_angle_gamma	112.758327
loop_
_atom_site_label
_atom_site_type_symbol
_atom_site_fract_x
_atom_site_fract_y
_atom_site_fract_z
O1	O	0.005016	-0.570216	-0.583573
O2	O	-0.034529	-0.474528	-0.453458
O3	O	0.114723	-0.474535	-0.528082
O4	O	-0.144235	-0.570209	-0.508949
O5	O	0.108729	-0.346329	-0.530229
O6	O	-0.040523	-0.346322	-0.455605
O7	O	-0.000977	-0.442010	-0.585721
Zn8	Zn	-0.021701	-0.373810	-0.521004
Zn9	Zn	-0.013805	-0.542728	-0.518175
O10	O	-0.150229	-0.442003	-0.511097
C11	C	0.005100	-0.790970	-0.238461
C12	C	0.009223	-0.693065	-0.217557
C13	C	0.003804	-0.645758	-0.241627
C14	C	-0.075059	-0.538459	-0.266316
C15	C	0.049838	-0.422849	-0.250165
C16	C	-0.040584	-0.395375	-0.435637
C17	C	-0.044693	-0.353446	-0.386631
C18	C	-0.039275	-0.401741	-0.363054
C19	C	-0.040566	-0.125547	-0.300731
C20	C	-0.044689	-0.223451	-0.321635
C21	C	-0.039266	-0.270752	-0.297563
C22	C	0.039597	-0.378051	-0.272874
C23	C	-0.085304	-0.493667	-0.289026
C24	C	0.005118	-0.521142	-0.103554
C25	C	0.009231	-0.563064	-0.152559
C26	C	0.003809	-0.514775	-0.176138
C27	C	0.010758	-0.652581	-0.172822
C28	C	0.001010	-0.556371	-0.220792
C29	C	-0.008251	-0.506059	-0.245823
C30	C	-0.046224	-0.263935	-0.366370
C31	C	-0.036476	-0.360146	-0.318399
C32	C	-0.027211	-0.410451	-0.293367
C33	C	0.815184	-0.521162	-0.508596
C34	C	0.717729	-0.563083	-0.506815
C35	C	0.669923	-0.514793	-0.509201
C36	C	0.564072	-0.463272	-0.548285
C37	C	0.445555	-0.498966	-0.486078
C38	C	0.415541	-0.125553	-0.528781
C39	C	0.375032	-0.223457	-0.531493
C40	C	0.423813	-0.270761	-0.529101
C41	C	0.149318	-0.395376	-0.530584
C42	C	0.246774	-0.353455	-0.532364
C43	C	0.294574	-0.401748	-0.529976
C44	C	0.400424	-0.453269	-0.490892
C45	C	0.518948	-0.417572	-0.553101
C46	C	0.548961	-0.790984	-0.510398
C47	C	0.589464	-0.693083	-0.507684
C48	C	0.540690	-0.645776	-0.510078
C49	C	0.678399	-0.652598	-0.506649
C50	C	0.581167	-0.556389	-0.510877
C51	C	0.530434	-0.506073	-0.515170
C52	C	0.286104	-0.263940	-0.532530
C53	C	0.383336	-0.360149	-0.528302
C54	C	0.434062	-0.410467	-0.524008
C55	C	-0.040530	-0.395407	-0.935652
C56	C	-0.044651	-0.353482	-0.886645
C57	C	-0.039242	-0.401770	-0.863061
C58	C	0.039602	-0.453292	-0.810474
C59	C	-0.085288	-0.417587	-0.750981
C60	C	0.005063	-0.791004	-0.738448
C61	C	0.009186	-0.693099	-0.717543
C62	C	0.003779	-0.645796	-0.741620
C63	C	0.005077	-0.521171	-0.603544
C64	C	0.009198	-0.563096	-0.652550
C65	C	0.003786	-0.514804	-0.676131
C66	C	-0.075058	-0.463283	-0.728717
C67	C	0.049835	-0.498991	-0.788214
C68	C	-0.040516	-0.125574	-0.800747
C69	C	-0.044642	-0.223476	-0.821649
C70	C	-0.039232	-0.270782	-0.797575
C71	C	-0.046172	-0.263965	-0.866386
C72	C	-0.036447	-0.360171	-0.818406
C73	C	-0.027197	-0.410486	-0.793373
C74	C	0.010719	-0.652613	-0.672809
C75	C	0.000994	-0.556406	-0.720789
C76	C	-0.008259	-0.506089	-0.745819
O77	O	-0.000965	0.173549	-0.277957
O78	O	-0.040516	-0.085616	-0.325254
O79	O	0.108737	0.059592	-0.327284
O80	O	-0.150219	0.028341	-0.275927
O81	O	0.114753	0.055151	-0.263265
O82	O	-0.034500	-0.090057	-0.261234
O83	O	0.005051	0.169108	-0.213937
Zn84	Zn	-0.013769	0.038820	-0.227421
Zn85	Zn	-0.021696	0.044672	-0.311770
O86	O	-0.144202	0.023900	-0.211907
O87	O	-0.034458	-0.474571	0.046517
O88	O	0.005076	-0.570190	-0.083599
O89	O	-0.144170	-0.570237	-0.008972
O90	O	0.114787	-0.474523	-0.028110
O91	O	-0.150200	-0.442024	-0.011093
O92	O	-0.000954	-0.441976	-0.085720
O93	O	-0.040488	-0.346357	0.044396
Zn94	Zn	-0.021679	-0.373810	-0.020999
Zn95	Zn	-0.013734	-0.542737	-0.018204
O96	O	0.108757	-0.346309	-0.030231
C97	C	-0.850734	0.086244	-0.289716
C98	C	-0.753280	0.087165	-0.312001
C99	C	-0.705462	0.081107	-0.288506
C100	C	-0.599592	0.000085	-0.264184
C101	C	-0.481080	0.121287	-0.283645
C102	C	-0.450996	0.035117	-0.097351
C103	C	-0.410501	0.028587	-0.146852
C104	C	-0.459292	0.034683	-0.169840
C105	C	-0.184802	0.024283	-0.235878
C106	C	-0.282257	0.023363	-0.213592
C107	C	-0.330068	0.029423	-0.237088
C108	C	-0.435938	0.110445	-0.261411
C109	C	-0.554456	-0.010759	-0.241948
C110	C	-0.584541	0.075410	-0.428242
C111	C	-0.625029	0.081943	-0.378743
C112	C	-0.576244	0.075844	-0.355753
C113	C	-0.713963	0.086424	-0.357292
C114	C	-0.616708	0.075351	-0.310510
C115	C	-0.565963	0.065400	-0.286043
C116	C	-0.321573	0.024104	-0.168302
C117	C	-0.418828	0.035176	-0.215083
C118	C	-0.469568	0.045131	-0.239552
O119	O	0.585213	0.169090	-0.504004
O120	O	0.494056	-0.090076	-0.525516
O121	O	0.488081	0.055124	-0.449918
O122	O	0.591189	0.023889	-0.579602
O123	O	0.359978	0.059584	-0.452885
O124	O	0.365953	-0.085616	-0.528483
O125	O	0.457110	0.173550	-0.506971
Zn126	Zn	0.391193	0.044675	-0.518198
Zn127	Zn	0.559974	0.038798	-0.514289
O128	O	0.463086	0.028349	-0.582569
C129	C	0.815354	-0.521094	-0.008709
C130	C	0.717898	-0.563028	-0.006927
C131	C	0.670072	-0.514739	-0.009298
C132	C	0.564182	-0.463204	-0.048354
C133	C	0.445681	-0.498945	0.013847
C134	C	0.415547	-0.125494	-0.028771
C135	C	0.375059	-0.223405	-0.031498
C136	C	0.423859	-0.270708	-0.029121
C137	C	0.149365	-0.395355	-0.030599
C138	C	0.246820	-0.353421	-0.032381
C139	C	0.294640	-0.401713	-0.030008
C140	C	0.400530	-0.453248	0.009048
C141	C	0.519038	-0.417504	-0.053155
C142	C	0.549171	-0.790955	-0.010537
C143	C	0.589653	-0.693047	-0.007809
C144	C	0.540859	-0.645741	-0.010187
C145	C	0.678588	-0.652551	-0.006775
C146	C	0.581317	-0.556344	-0.010973
C147	C	0.530562	-0.506029	-0.015250
C148	C	0.286131	-0.263897	-0.032533
C149	C	0.383402	-0.360104	-0.028335
C150	C	0.434150	-0.410423	-0.024057
O151	O	-0.620614	0.089309	0.052274
O152	O	-0.529507	0.043784	-0.078544
O153	O	-0.523494	0.194833	-0.006033
O154	O	-0.626628	-0.061740	-0.020236
O155	O	-0.395386	0.185419	-0.005549
O156	O	-0.401400	0.034370	-0.078059
O157	O	-0.492507	0.079895	0.052758
Zn158	Zn	-0.426614	0.055638	-0.012574
Zn159	Zn	-0.595401	0.068041	-0.013212
O160	O	-0.498521	-0.071154	-0.019752
C161	C	-0.437537	0.048335	0.402491
C162	C	-0.397043	0.041789	0.352989
C163	C	-0.445822	0.047883	0.329994
C164	C	-0.496646	0.126653	0.277022
C165	C	-0.465894	-0.000633	0.218811
C166	C	-0.837226	0.099430	0.210091
C167	C	-0.739773	0.100339	0.187806
C168	C	-0.691967	0.094287	0.211308
C169	C	-0.571027	0.088563	0.071568
C170	C	-0.611521	0.095108	0.121070
C171	C	-0.562739	0.089011	0.144061
C172	C	-0.511915	0.010241	0.197033
C173	C	-0.542670	0.137531	0.255247
C174	C	-0.171338	0.037467	0.263967
C175	C	-0.268788	0.036555	0.286249
C176	C	-0.316597	0.042611	0.262750
C177	C	-0.308112	0.037305	0.331542
C178	C	-0.405351	0.048369	0.284750
C179	C	-0.456092	0.058317	0.260279
C180	C	-0.700452	0.099593	0.142516
C181	C	-0.603213	0.088528	0.189308
C182	C	-0.552469	0.078578	0.213776
O183	O	-0.040608	-1.085661	-0.825229
O184	O	-0.001018	-0.826491	-0.777938
O185	O	-0.150287	-0.971682	-0.775894
O186	O	0.108661	-0.940470	-0.827272
O187	O	-0.144253	-0.976123	-0.711878
O188	O	0.005016	-0.830932	-0.713922
O189	O	-0.034575	-1.090102	-0.761213
Zn190	Zn	-0.013821	-0.961222	-0.727403
Zn191	Zn	-0.021771	-0.955371	-0.811747
O192	O	0.114695	-0.944911	-0.763256
O193	O	-0.036374	-0.225927	-0.249169
H194	H	-0.095042	-0.263175	-0.226596
O195	O	0.232627	-0.211041	-0.033907
H196	H	0.267039	-0.187330	-0.064773
H197	H	0.413839	-0.532573	0.042316
O198	O	-0.049737	-0.211080	-0.392751
H199	H	-0.050664	-0.141521	-0.370860
O200	O	0.731866	-0.705473	-0.505260
H201	H	0.753434	-0.672417	-0.474009
O202	O	0.232632	-0.211073	-0.533922
H203	H	0.172059	-0.208916	-0.503729
H204	H	-0.574318	0.196197	0.271049
H205	H	0.702857	-0.441654	-0.509785
H206	H	0.261638	-0.474883	-0.529387
H207	H	0.550810	-0.383955	-0.581575
H208	H	0.013347	-0.692513	-0.652885
O209	O	-0.596639	-0.085041	-0.219107
H210	H	-0.664096	-0.123264	-0.224218
O211	O	-0.286486	0.029741	-0.286126
H212	H	-0.216315	0.024650	-0.297380
O213	O	-0.161334	-0.534401	-0.310260
H214	H	-0.132777	-0.543689	-0.347397
H215	H	-0.738384	0.080845	-0.251490
H216	H	-0.365918	0.157102	-0.260160
H217	H	0.468233	-0.679598	-0.011487
H218	H	-0.489994	0.175891	0.311254
O219	O	-0.254625	0.033098	0.357251
H220	H	-0.289047	-0.027703	0.369571
O221	O	-0.438889	0.195553	-0.306497
H222	H	-0.371423	0.233763	-0.301396
O223	O	0.561212	-0.372954	-0.090863
H224	H	0.625880	-0.322392	-0.086896
H225	H	0.718963	-0.692464	-0.005731
O226	O	-0.466536	0.082962	0.120346
H227	H	-0.446807	0.084374	0.084813
O228	O	-0.036405	-0.498652	-0.885512
H229	H	0.027255	-0.505574	-0.886168
H230	H	0.702991	-0.441593	-0.009870
O231	O	0.520016	-0.225937	-0.527378
H232	H	0.539747	-0.155405	-0.528352
H233	H	-0.518563	-0.039000	0.162804
O234	O	-0.767455	0.090613	-0.383003
H235	H	-0.836452	0.093840	-0.360212
O236	O	0.001055	-0.417891	-0.653700
H237	H	0.003993	-0.397280	-0.618482
H238	H	-0.123560	-0.607102	-0.263443
H239	H	0.330406	-0.448859	-0.466617
H240	H	-0.724884	0.094041	0.248327
O241	O	-0.753930	0.103800	0.116803
H242	H	-0.814430	0.044980	0.116494
H243	H	-0.037089	-0.236932	-0.761035
H244	H	-0.037138	-0.474881	-0.380005
H245	H	0.001650	-0.679613	-0.278166
O246	O	-0.139294	-0.469133	-0.682385
H247	H	-0.189835	-0.432148	-0.672374
O248	O	0.307783	-0.447406	0.041206
H249	H	0.308986	-0.375718	0.059252
H250	H	-0.142686	-0.383972	-0.734830
O251	O	-0.049648	-0.211091	-0.892769
H252	H	-0.111709	-0.244145	-0.903774
H253	H	0.634201	-0.467612	-0.072637
H254	H	0.088092	-0.309407	-0.275738
H255	H	0.496488	-0.236853	-0.027824
O256	O	-0.480039	0.069801	-0.379472
H257	H	-0.460314	0.071225	-0.415002
O258	O	0.014243	-0.705447	-0.146437
H259	H	0.015166	-0.661691	-0.111670
O260	O	0.251051	-0.498602	-0.029246
H261	H	0.230962	-0.539041	-0.060655
O262	O	0.125866	-0.382122	-0.228930
H263	H	0.165745	-0.315905	-0.235494
O264	O	0.403365	-0.543499	-0.448364
H265	H	0.335907	-0.531452	-0.428344
H266	H	0.107227	-0.532615	-0.804368
O267	O	0.103826	-0.447445	-0.856813
H268	H	0.154361	-0.484442	-0.866831
H269	H	-0.434254	-0.059305	0.203012
O270	O	0.444500	-0.690613	-0.511821
H271	H	0.424770	-0.761145	-0.510847
H272	H	0.001660	-0.441639	-0.159184
H273	H	0.001632	-0.679646	-0.778160
O274	O	0.656824	-0.469133	-0.580438
H275	H	0.676369	-0.432143	-0.605461
O276	O	-0.692348	-0.061708	-0.265850
H277	H	-0.711886	-0.111220	-0.247087
O278	O	-0.555494	0.040735	-0.146121
H279	H	-0.575214	0.039329	-0.110588
H280	H	-0.281187	0.020914	-0.148901
O281	O	-0.272994	0.042942	0.213715
H282	H	-0.212236	0.101307	0.210968
O283	O	-0.542019	0.053952	0.353715
H284	H	-0.561734	0.052560	0.389250
