data_functionalizedCrystal
_audit_creation_method	'MofGen! by Chris Wilmer'
_symmetry_space_group_name_H-M	'P1'
_symmetry_Int_Tables_number	1
_symmetry_cell_setting	triclinic
loop_
_symmetry_equiv_pos_as_xyz
  x,y,z
_cell_length_a	15.944545
_cell_length_b	15.944551
_cell_length_c	14.421503
_cell_angle_alpha	90.003340
_cell_angle_beta	89.995153
_cell_angle_gamma	83.497455
loop_
_atom_site_label
_atom_site_type_symbol
_atom_site_fract_x
_atom_site_fract_y
_atom_site_fract_z
O1	O	1.114533	0.108295	-0.077054
O2	O	1.614533	0.608295	0.422946
O3	O	0.869982	0.121657	-0.077069
O4	O	1.369982	0.621657	0.422931
O5	O	0.998936	-0.007299	-0.077053
O6	O	1.498936	0.492701	0.422947
O7	O	0.985579	0.237251	-0.077070
O8	O	1.485579	0.737251	0.422930
O9	O	0.998914	-0.007280	0.077171
O10	O	1.498914	0.492720	0.577171
O11	O	0.869961	0.121676	0.077154
O12	O	1.369961	0.621676	0.577154
O13	O	1.114511	0.108315	0.077170
O14	O	1.614511	0.608315	0.577170
Cu15	Cu	0.992234	0.114997	0.091244
Cu16	Cu	1.492234	0.614997	0.591244
Cu17	Cu	0.992259	0.114974	-0.091143
Cu18	Cu	1.492259	0.614974	0.408857
O19	O	0.985558	0.237270	0.077153
O20	O	1.485558	0.737270	0.577153
C21	C	0.838677	0.121113	0.000041
C22	C	1.338677	0.621113	0.500041
C23	C	0.745431	0.119453	0.000035
C24	C	1.245431	0.619453	0.500035
C25	C	0.474798	0.034559	0.000051
C26	C	0.974798	0.534559	0.500051
C27	C	0.525370	0.075497	0.076091
C28	C	1.025370	0.575497	0.576091
C29	C	0.409787	0.113532	0.000052
C30	C	0.909787	0.613532	0.500052
C31	C	0.525371	0.075500	-0.075961
C32	C	1.025371	0.575500	0.424039
C33	C	0.574701	0.116437	0.000042
C34	C	1.074701	0.616437	0.500042
C35	C	0.459130	0.154449	0.076154
C36	C	0.959130	0.654449	0.576154
C37	C	0.459128	0.154440	-0.075967
C38	C	0.959128	0.654440	0.424033
C39	C	0.509667	0.195436	0.000092
C40	C	1.009667	0.695436	0.500092
C41	C	0.314785	0.111856	0.000058
C42	C	0.814785	0.611856	0.500058
C43	C	0.669700	0.118119	0.000042
C44	C	1.169700	0.618119	0.500042
C45	C	0.998370	-0.038583	0.000059
C46	C	1.498370	0.461417	0.500059
C47	C	0.996708	-0.131829	0.000060
C48	C	1.496708	0.368171	0.500060
C49	C	0.912803	-0.346684	0.000042
C50	C	1.412803	0.153316	0.500042
C51	C	0.951755	-0.407693	0.076086
C52	C	1.451755	0.092307	0.576086
C53	C	0.993701	-0.302555	0.000052
C54	C	1.493701	0.197445	0.500052
C55	C	0.951796	-0.407695	-0.075967
C56	C	1.451796	0.092305	0.424033
C57	C	0.990790	-0.467468	0.000041
C58	C	1.490790	0.032532	0.500041
C59	C	1.032675	-0.362335	0.076159
C60	C	1.532675	0.137665	0.576159
C61	C	1.032704	-0.362331	-0.075961
C62	C	1.532704	0.137669	0.424039
C63	C	1.071715	-0.423322	0.000101
C64	C	1.571715	0.076678	0.500101
C65	C	0.995375	-0.207553	0.000060
C66	C	1.495375	0.292447	0.500060
C67	C	0.989122	-0.562469	0.000041
C68	C	1.489122	-0.062469	0.500041
C69	C	1.145816	0.108859	0.000058
C70	C	1.645816	0.608859	0.500058
C71	C	1.239062	0.110519	0.000057
C72	C	1.739062	0.610519	0.500057
C73	C	0.986123	0.268555	0.000039
C74	C	1.486123	0.768555	0.500039
C75	C	0.987785	0.361801	0.000033
C76	C	1.487785	0.861801	0.500033
N77	N	0.992222	0.115013	0.219525
N78	N	1.492222	0.615013	0.719525
N79	N	0.992278	0.114952	-0.219424
N80	N	1.492278	0.614952	0.280576
C81	C	0.932584	0.174615	0.469171
C82	C	1.432584	0.674615	0.969171
C83	C	1.008484	0.190921	0.530977
C84	C	1.508484	0.690921	1.030977
C85	C	0.992243	0.114993	0.408687
C86	C	1.492243	0.614993	0.908687
C87	C	0.916362	0.098707	0.530974
C88	C	1.416362	0.598707	1.030974
C89	C	0.992256	0.114975	0.591408
C90	C	1.492256	0.614975	1.091408
C91	C	1.068181	0.131336	0.469132
C92	C	1.568181	0.631336	0.969132
C93	C	0.976010	0.039089	0.469124
C94	C	1.476010	0.539089	0.969124
C95	C	1.051965	0.055362	0.530902
C96	C	1.551965	0.555362	1.030902
C97	C	0.992234	0.115005	0.303426
C98	C	1.492234	0.615005	0.803426
C99	C	0.992273	0.114962	0.696667
C100	C	1.492273	0.614962	1.196667
H101	H	0.525158	0.263501	0.000131
H102	H	1.025158	0.763501	0.500131
H103	H	0.962243	-0.025073	0.441933
H104	H	1.462243	0.474927	0.941933
O105	O	1.026705	0.275922	0.566993
O106	O	1.526705	0.775922	1.066993
H107	H	1.027148	0.274916	0.643948
H108	H	1.527148	0.774916	1.143948
H109	H	1.066900	-0.342210	-0.140250
H110	H	1.566900	0.157790	0.359750
H111	H	0.852186	0.084940	0.558142
H112	H	1.352186	0.584940	1.058142
H113	H	0.459145	-0.033453	0.000130
H114	H	0.959145	0.466547	0.500130
H115	H	0.430191	0.187755	-0.140259
H116	H	0.930191	0.687755	0.359741
O117	O	0.865819	0.241446	0.433258
O118	O	1.365819	0.741446	0.933258
H119	H	0.896013	0.287065	0.389853
H120	H	1.396013	0.787065	0.889853
H121	H	0.554291	0.042153	0.140381
H122	H	1.054291	0.542153	0.640381
H123	H	0.845655	-0.313375	0.000113
H124	H	1.345655	0.186625	0.500113
H125	H	0.917578	-0.427779	-0.140260
H126	H	1.417578	0.072221	0.359740
H127	H	1.132372	0.145180	0.442081
H128	H	1.632372	0.645180	0.942081
H129	H	1.138922	-0.456483	0.000148
H130	H	1.638922	0.043517	0.500148
H131	H	0.430312	0.187785	0.140508
H132	H	0.930312	0.687785	0.640508
H133	H	0.554298	0.042126	-0.140243
H134	H	1.054298	0.542126	0.359757
H135	H	0.917530	-0.427792	0.140370
H136	H	1.417530	0.072208	0.640370
H137	H	1.066854	-0.342338	0.140519
H138	H	1.566854	0.157662	0.640519
H139	H	1.102477	0.004931	0.557836
H140	H	1.602477	0.504931	1.057836
