data_functionalizedCrystal
_audit_creation_method	'MofGen! by Chris Wilmer'
_symmetry_space_group_name_H-M	'P1'
_symmetry_Int_Tables_number	1
_symmetry_cell_setting	triclinic
loop_
_symmetry_equiv_pos_as_xyz
  x,y,z
_cell_length_a	18.215407
_cell_length_b	19.805405
_cell_length_c	18.215399
_cell_angle_alpha	89.969390
_cell_angle_beta	89.980167
_cell_angle_gamma	90.026858
loop_
_atom_site_label
_atom_site_type_symbol
_atom_site_fract_x
_atom_site_fract_y
_atom_site_fract_z
Zn1	Zn	1.125064	-0.269462	-0.416102
Zn2	Zn	1.625064	0.230538	0.083898
Zn3	Zn	1.124969	-0.382653	-0.293030
Zn4	Zn	1.624969	0.117347	0.206970
Zn5	Zn	1.001997	-0.269484	-0.293050
Zn6	Zn	1.501997	0.230516	0.206950
Zn7	Zn	1.001959	-0.382615	-0.416055
Zn8	Zn	1.501959	0.117385	0.083945
O9	O	1.063497	-0.326054	-0.354559
O10	O	1.563497	0.173946	0.145441
O11	O	1.228036	-0.284484	-0.399788
O12	O	1.728036	0.215516	0.100212
O13	O	1.108633	-0.367666	-0.190049
O14	O	1.608633	0.132334	0.309951
O15	O	1.018377	-0.174765	-0.309401
O16	O	1.518377	0.325235	0.190599
O17	O	1.227966	-0.367644	-0.309368
O18	O	1.727966	0.132356	0.190632
O19	O	1.108794	-0.174748	-0.399807
O20	O	1.608794	0.325252	0.100193
O21	O	1.018285	-0.284521	-0.190063
O22	O	1.518285	0.215479	0.309937
O23	O	0.899008	-0.284485	-0.309355
O24	O	1.399008	0.215515	0.190645
O25	O	1.018313	-0.367580	-0.519046
O26	O	1.518313	0.132420	-0.019046
O27	O	0.898980	-0.367602	-0.399727
O28	O	1.398980	0.132398	0.100273
O29	O	1.108758	-0.284447	-0.519080
O30	O	1.608758	0.215553	-0.019080
O31	O	1.108596	-0.477365	-0.309322
O32	O	1.608596	0.022635	0.190678
O33	O	1.018221	-0.477337	-0.399708
O34	O	1.518221	0.022663	0.100292
C35	C	0.872291	-0.326042	-0.354538
C36	C	1.372291	0.173958	0.145462
C37	C	0.790492	-0.326053	-0.354547
C38	C	1.290492	0.173947	0.145453
C39	C	0.602303	-0.369400	-0.401544
C40	C	1.102303	0.130600	0.098456
C41	C	0.525444	-0.369403	-0.401553
C42	C	1.025444	0.130597	0.098447
C43	C	0.525444	-0.282719	-0.307591
C44	C	1.025444	0.217281	0.192409
C45	C	0.602301	-0.282714	-0.307586
C46	C	1.102301	0.217286	0.192414
C47	C	0.640729	-0.326059	-0.354561
C48	C	1.140729	0.173941	0.145439
C49	C	0.487013	-0.326066	-0.354575
C50	C	0.987013	0.173934	0.145425
C51	C	0.403679	-0.326068	-0.354585
C52	C	0.903679	0.173932	0.145415
C53	C	0.724068	-0.326056	-0.354553
C54	C	1.224068	0.173944	0.145447
C55	C	1.063415	-0.501910	-0.354524
C56	C	1.563415	-0.001910	0.145476
C57	C	1.063446	-0.577142	-0.354533
C58	C	1.563446	-0.077142	0.145467
C59	C	1.110550	-0.612478	-0.307518
C60	C	1.610550	-0.112478	0.192482
C61	C	1.110582	-0.683166	-0.307535
C62	C	1.610582	-0.183166	0.192465
C63	C	1.063505	-0.718517	-0.354562
C64	C	1.563505	-0.218517	0.145438
C65	C	1.016399	-0.683176	-0.401582
C66	C	1.516399	-0.183176	0.098418
C67	C	1.016372	-0.612489	-0.401569
C68	C	1.516372	-0.112489	0.098431
C69	C	1.016507	-0.968249	-0.401637
C70	C	1.516507	-0.468249	0.098363
C71	C	1.016536	-1.038941	-0.401645
C72	C	1.516536	-0.538941	0.098355
C73	C	1.110717	-1.038927	-0.307602
C74	C	1.610717	-0.538927	0.192398
C75	C	1.110690	-0.968239	-0.307589
C76	C	1.610690	-0.468239	0.192411
C77	C	1.063587	-0.932905	-0.354611
C78	C	1.563587	-0.432905	0.145389
C79	C	1.063555	-0.856256	-0.354594
C80	C	1.563555	-0.356256	0.145406
C81	C	1.063533	-0.795164	-0.354577
C82	C	1.563533	-0.295164	0.145423
C83	C	1.255450	-0.326066	-0.354581
C84	C	1.755450	0.173934	0.145419
C85	C	1.337249	-0.326071	-0.354590
C86	C	1.837249	0.173929	0.145410
C87	C	1.063542	-0.326007	-0.546512
C88	C	1.563542	0.173993	-0.046512
C89	C	1.063561	-0.325987	-0.628311
C90	C	1.563561	0.174013	-0.128311
C91	C	1.063601	-0.149511	-0.354611
C92	C	1.563601	0.350489	0.145389
C93	C	1.063645	-0.074279	-0.354633
C94	C	1.563645	0.425721	0.145367
C95	C	1.110673	-0.282659	-0.816524
C96	C	1.610673	0.217341	-0.316524
C97	C	1.110682	-0.282639	-0.893383
C98	C	1.610682	0.217361	-0.393383
C99	C	1.016502	-0.369210	-0.893336
C100	C	1.516502	0.130790	-0.393336
C101	C	1.016490	-0.369226	-0.816479
C102	C	1.516490	0.130774	-0.316479
C103	C	1.063580	-0.325952	-0.778075
C104	C	1.563580	0.174048	-0.278075
C105	C	1.063600	-0.325916	-0.931791
C106	C	1.563600	0.174084	-0.431791
C107	C	1.063609	-0.325895	-1.015125
C108	C	1.563609	0.174105	-0.515125
C109	C	1.063570	-0.325972	-0.694736
C110	C	1.563570	0.174028	-0.194736
C111	C	1.063495	-0.326051	-0.163353
C112	C	1.563495	0.173949	0.336647
C113	C	1.063619	-0.325880	-0.081555
C114	C	1.563619	0.174120	0.418445
H115	H	0.494162	-0.404695	-0.439812
H116	H	0.994162	0.095305	0.060188
H117	H	0.978165	-0.404444	-0.924614
H118	H	1.478165	0.095556	-0.424614
C119	C	1.162535	-1.077801	-0.255880
C120	C	1.662535	-0.577801	0.244120
N121	N	1.201562	-1.107080	-0.216922
N122	N	1.701562	-0.607080	0.283078
C123	C	0.964749	-1.077826	-0.453385
C124	C	1.464749	-0.577826	0.046615
N125	N	0.925746	-1.107114	-0.492354
N126	N	1.425746	-0.607114	0.007646
C127	C	0.483166	-0.235046	-0.255916
C128	C	0.983166	0.264954	0.244084
N129	N	0.451323	-0.199140	-0.216992
N130	N	0.951323	0.300860	0.283008
C131	C	0.964730	-0.929390	-0.453400
C132	C	1.464730	-0.429390	0.046600
N133	N	0.925743	-0.900119	-0.492405
N134	N	1.425743	-0.400119	0.007595
C135	C	0.964679	-0.416852	-0.774182
C136	C	1.464679	0.083148	-0.274182
N137	N	0.925654	-0.452720	-0.742323
N138	N	1.425654	0.047280	-0.242323
H139	H	0.978016	-0.583719	-0.439854
H140	H	1.478016	-0.083719	0.060146
H141	H	0.633588	-0.247416	-0.269327
H142	H	1.133588	0.252584	0.230673
C143	C	1.162490	-0.235016	-0.935674
C144	C	1.662490	0.264984	-0.435674
N145	N	1.201514	-0.199144	-0.967528
N146	N	1.701514	0.300856	-0.467528
C147	C	1.162395	-0.722033	-0.255810
C148	C	1.662395	-0.222033	0.244190
N149	N	1.201422	-0.751306	-0.216848
N150	N	1.701422	-0.251306	0.283152
H151	H	1.148883	-0.583700	-0.269220
H152	H	1.648883	-0.083700	0.230780
C153	C	1.162466	-0.235050	-0.774283
C154	C	1.662466	0.264950	-0.274283
N155	N	1.201476	-0.199187	-0.742469
N156	N	1.701476	0.300813	-0.242469
C157	C	1.162472	-0.929357	-0.255849
C158	C	1.662472	-0.429357	0.244151
N159	N	1.201475	-0.900072	-0.216876
N160	N	1.701475	-0.400072	0.283124
C161	C	0.644571	-0.417076	-0.453224
C162	C	1.144571	0.082924	0.046776
N163	N	0.676405	-0.452984	-0.492153
N164	N	1.176405	0.047016	0.007847
H165	H	0.978071	-0.711965	-0.439876
H166	H	1.478071	-0.211965	0.060124
