data_functionalizedCrystal
_audit_creation_method	'MofGen! by Chris Wilmer'
_symmetry_space_group_name_H-M	'P1'
_symmetry_Int_Tables_number	1
_symmetry_cell_setting	triclinic
loop_
_symmetry_equiv_pos_as_xyz
  x,y,z
_cell_length_a	19.902436
_cell_length_b	14.628931
_cell_length_c	14.628931
_cell_angle_alpha	60.000164
_cell_angle_beta	90.003139
_cell_angle_gamma	59.999029
loop_
_atom_site_label
_atom_site_type_symbol
_atom_site_fract_x
_atom_site_fract_y
_atom_site_fract_z
Zr1	Zr	0.647312	1.000500	-0.119872
O2	O	0.540022	1.191218	-0.265847
O3	O	0.680202	0.809791	-0.075124
O4	O	0.680202	1.000496	-0.265829
O5	O	0.540021	1.000513	0.075290
O6	O	0.790779	1.000483	-0.265814
O7	O	0.540021	1.000513	-0.075142
O8	O	0.790779	0.659347	0.075322
O9	O	0.540022	1.341649	-0.265846
O10	O	0.776752	0.888220	-0.056027
O11	O	0.694229	0.888230	0.056227
O12	O	0.694230	1.112760	-0.168303
O13	O	0.611707	1.112770	-0.056049
Zr14	Zr	0.823669	1.000480	0.120072
Zr15	Zr	0.823670	1.000479	-0.119849
Zr16	Zr	0.647312	1.000501	0.120049
Zr17	Zr	0.647312	1.240421	-0.119872
Zr18	Zr	0.823669	0.760559	0.120072
O19	O	0.790779	1.191189	0.075324
O20	O	0.790780	1.191188	-0.265813
O21	O	0.540021	1.191219	0.075290
O22	O	0.930959	0.809763	0.266047
O23	O	0.930960	0.809762	-0.075090
O24	O	0.680201	0.809792	0.266013
O25	O	0.930960	1.000467	-0.075090
O26	O	0.790779	1.000484	0.266029
O27	O	0.680202	1.000497	0.266014
O28	O	0.930960	1.000467	0.075342
O29	O	0.680203	1.341633	-0.265828
O30	O	0.790778	0.659348	0.266028
O31	O	0.930959	0.659331	0.266046
O32	O	0.930959	0.659331	0.075341
O33	O	0.540022	1.341650	-0.075141
O34	O	0.680203	1.341633	-0.075122
O35	O	0.776751	0.888220	0.168503
O36	O	0.859274	0.888210	0.056249
O37	O	0.776752	1.112751	-0.056027
O38	O	0.694229	1.112761	0.056227
C39	C	0.735490	0.700386	0.000099
C40	C	0.735490	0.598533	0.000099
C41	C	0.793383	0.474358	0.078866
C42	C	0.793384	0.369086	0.078868
C43	C	0.514894	1.000516	0.000071
C44	C	0.440026	1.000525	0.000061
C45	C	0.302964	1.000501	0.000088
C46	C	0.222395	1.142135	-0.070733
C47	C	0.144504	1.142191	-0.070409
C48	C	0.168017	1.000479	0.000112
C49	C	0.222299	0.929734	0.122134
C50	C	0.299850	0.930671	0.121732
C51	C	0.300688	0.928585	-0.050125
C52	C	0.221819	0.931221	-0.052576
C53	C	0.091754	1.000459	0.000133
C54	C	0.379229	1.000517	0.000075
C55	C	0.956087	1.000464	0.000129
C56	C	1.030956	1.000456	0.000139
C57	C	0.735491	1.000489	-0.300005
C58	C	0.735491	1.000489	-0.401858
C59	C	0.735491	1.300595	0.000101
C60	C	0.735491	1.402448	0.000101
C61	C	0.694555	1.111876	-0.502963
C62	C	0.694554	1.111878	-0.608235
C63	C	0.735490	1.000491	0.300205
C64	C	0.735490	1.000491	0.402058
C65	C	0.956087	0.700360	0.000129
C66	C	1.030955	0.598498	0.000139
C67	C	0.735490	0.700386	0.300204
C68	C	0.735490	0.598534	0.402057
C69	C	0.956086	0.700361	0.300234
C70	C	1.030955	0.598499	0.402096
C71	C	0.514895	1.300620	-0.300034
C72	C	0.440027	1.402481	-0.401896
C73	C	0.514895	1.300621	0.000071
C74	C	0.440026	1.402482	0.000061
C75	C	0.735491	1.300594	-0.300004
C76	C	0.735492	1.402446	-0.401857
C77	C	1.023038	0.550668	-0.058474
C78	C	1.093378	0.454971	-0.058487
C79	C	1.171634	0.407100	0.000119
C80	C	1.179549	0.454940	0.058734
C81	C	1.109210	0.550642	0.058740
C82	C	1.109197	0.550659	0.391336
C83	C	1.179550	0.454963	0.487038
C84	C	1.171659	0.407102	0.593498
C85	C	1.093409	0.454952	0.604256
C86	C	1.023057	0.550653	0.508555
C87	C	0.361784	1.450333	-0.391136
C88	C	0.291431	1.546059	-0.486838
C89	C	0.299322	1.593924	-0.593298
C90	C	0.377572	1.546069	-0.604056
C91	C	0.447924	1.450351	-0.508355
C92	C	0.447943	1.450323	0.058664
C93	C	0.377603	1.546046	0.058651
C94	C	0.299347	1.593920	0.000041
C95	C	0.291432	1.546075	-0.058569
C96	C	0.361771	1.450361	-0.058562
C97	C	0.776426	0.553120	0.503163
C98	C	0.776427	0.447850	0.608434
H99	H	0.685927	0.508930	-0.067341
N100	N	0.223439	1.697162	-0.696513
H101	H	0.172678	1.720202	-0.673532
H102	H	0.223472	1.663787	-0.742535
N103	N	0.822854	0.604836	0.514610
H104	H	0.783320	0.700911	0.477471
H105	H	0.866175	0.588091	0.477496
H106	H	0.355313	1.411412	-0.106280
N107	N	0.781922	0.874156	-0.483064
H108	H	0.742391	0.869003	-0.440778
H109	H	0.825244	0.869078	-0.440865
H110	H	0.700439	0.559485	0.393432
H111	H	1.086996	0.415970	0.690949
N112	N	0.386077	1.597700	-0.718884
H113	H	0.329632	1.665591	-0.777868
H114	H	0.417173	1.524614	-0.727754
N115	N	0.648130	1.238193	-0.514390
H116	H	0.587857	1.289472	-0.556640
H117	H	0.670778	1.289362	-0.556599
H118	H	1.228951	0.329176	0.671415
N119	N	1.263958	0.403280	0.121959
H120	H	1.258309	0.448092	0.159101
H121	H	1.295024	0.419925	0.068157
H122	H	0.659502	1.207241	-0.694969
H123	H	0.227723	1.585007	-0.478057
N124	N	0.092158	1.215687	-0.189412
H125	H	0.041345	1.215866	-0.189428
H126	H	0.124783	1.172755	-0.225559
H127	H	0.811475	0.408794	0.695169
H128	H	0.770540	0.905128	-0.393233
N129	N	0.938639	0.602286	-0.121688
H130	H	0.944310	0.557456	-0.158819
H131	H	0.907576	0.698358	-0.180602
N132	N	0.938666	0.602242	0.520160
H133	H	0.932074	0.641944	0.562439
H134	H	0.932145	0.529152	0.562411
H135	H	0.511630	1.411391	-0.517130
N136	N	0.859039	0.228035	0.168195
H137	H	0.856395	0.208387	0.244302
H138	H	0.914948	0.208476	0.164504
N139	N	0.375916	0.790388	0.017864
H140	H	0.408475	0.774323	-0.031743
H141	H	0.358298	0.729951	0.050006
N142	N	0.689048	0.454154	0.483274
H143	H	0.728569	0.437506	0.440975
H144	H	0.645721	0.550212	0.441072
H145	H	0.511657	1.411351	0.106399
N146	N	0.859039	0.436754	0.168197
H147	H	0.849732	0.517287	0.155533
H148	H	0.914952	0.383856	0.164559
N149	N	0.207024	1.597703	-0.121763
H150	H	0.212672	1.552877	-0.158889
H151	H	0.175959	1.693776	-0.180678
H152	H	1.243259	0.416013	0.478259
H153	H	0.356909	0.826746	0.177507
H154	H	1.086917	0.416032	-0.106218
N155	N	0.304460	0.989068	-0.167394
H156	H	0.302914	0.941457	-0.198013
H157	H	0.357152	0.983530	-0.165785
H158	H	0.685925	0.626908	-0.067332
N159	N	1.247497	0.303882	0.000106
H160	H	1.230599	0.280850	-0.045920
H161	H	1.281326	0.224527	0.079506
H162	H	0.242079	1.671857	0.000044
N163	N	0.219966	1.216188	-0.190064
H164	H	0.271070	1.158652	-0.199378
H165	H	0.217494	1.294320	-0.208170
N166	N	0.092922	1.215347	-0.024234
H167	H	0.120755	1.247678	-0.004004
H168	H	0.086636	1.156048	0.044769
N169	N	0.299738	0.996467	0.174956
H170	H	0.249411	1.024595	0.198456
H171	H	0.298878	1.074589	0.119189
H172	H	0.221741	1.197167	-0.036209
H173	H	0.242095	0.825525	0.177222
H174	H	0.184374	0.982810	-0.142475
N175	N	0.172730	0.993978	0.175704
H176	H	0.153272	1.087331	0.130155
H177	H	0.208162	0.947705	0.254228
H178	H	0.240362	0.827858	-0.006381
H179	H	1.115637	0.589613	0.304659
N180	N	1.117755	0.602221	0.121966
H181	H	1.178005	0.557364	0.159090
H182	H	1.090453	0.585556	0.180886
H183	H	0.355344	1.411366	-0.304459
N184	N	0.386151	1.597635	0.121870
H185	H	0.446400	1.552768	0.159006
H186	H	0.358838	1.580992	0.180779
