data_functionalizedCrystal
_audit_creation_method	'MofGen! by Chris Wilmer'
_symmetry_space_group_name_H-M	'P1'
_symmetry_Int_Tables_number	1
_symmetry_cell_setting	triclinic
loop_
_symmetry_equiv_pos_as_xyz
  x,y,z
_cell_length_a	19.805407
_cell_length_b	19.805405
_cell_length_c	19.805398
_cell_angle_alpha	89.975049
_cell_angle_beta	89.984135
_cell_angle_gamma	90.026726
loop_
_atom_site_label
_atom_site_type_symbol
_atom_site_fract_x
_atom_site_fract_y
_atom_site_fract_z
Zn1	Zn	1.034709	-0.269490	-0.382724
Zn2	Zn	1.534709	0.230510	0.117276
Zn3	Zn	1.034631	-0.382675	-0.269538
Zn4	Zn	1.534631	0.117325	0.230462
Zn5	Zn	0.921531	-0.269505	-0.269549
Zn6	Zn	1.421531	0.230495	0.230451
Zn7	Zn	0.921487	-0.382642	-0.382685
Zn8	Zn	1.421487	0.117358	0.117315
O9	O	0.978090	-0.326078	-0.326124
O10	O	1.478090	0.173922	0.173876
O11	O	1.129416	-0.284511	-0.367722
O12	O	1.629416	0.215489	0.132278
O13	O	1.019614	-0.367683	-0.174823
O14	O	1.519614	0.132317	0.325177
O15	O	0.936596	-0.174787	-0.284583
O16	O	1.436596	0.325213	0.215417
O17	O	1.129358	-0.367668	-0.284564
O18	O	1.629358	0.132332	0.215436
O19	O	1.019748	-0.174775	-0.367732
O20	O	1.519748	0.325225	0.132268
O21	O	0.936520	-0.284538	-0.174831
O22	O	1.436520	0.215462	0.325169
O23	O	0.826809	-0.284506	-0.284544
O24	O	1.326809	0.215494	0.215456
O25	O	0.936520	-0.367612	-0.477406
O26	O	1.436520	0.132388	0.022594
O27	O	0.826776	-0.367627	-0.367665
O28	O	1.326776	0.132373	0.132335
O29	O	1.019704	-0.284480	-0.477436
O30	O	1.519704	0.215520	0.022564
O31	O	1.019571	-0.477387	-0.284526
O32	O	1.519571	0.022613	0.215474
O33	O	0.936444	-0.477363	-0.367654
O34	O	1.436444	0.022637	0.132346
C35	C	0.802234	-0.326065	-0.326102
C36	C	1.302234	0.173935	0.173898
C37	C	0.727002	-0.326076	-0.326109
C38	C	1.227002	0.173924	0.173891
C39	C	0.978013	-0.501934	-0.326099
C40	C	1.478013	-0.001934	0.173901
C41	C	0.978041	-0.577166	-0.326112
C42	C	1.478041	-0.077166	0.173888
C43	C	0.691658	-0.369422	-0.369319
C44	C	1.191658	0.130578	0.130681
C45	C	0.620970	-0.369424	-0.369329
C46	C	1.120970	0.130576	0.130671
C47	C	0.585626	-0.326081	-0.326124
C48	C	1.085626	0.173919	0.173876
C49	C	0.620974	-0.282730	-0.282911
C50	C	1.120974	0.217270	0.217089
C51	C	0.691662	-0.282726	-0.282906
C52	C	1.191662	0.217274	0.217094
C53	C	0.335901	-0.282745	-0.282934
C54	C	0.835901	0.217255	0.217066
C55	C	0.265209	-0.282754	-0.282941
C56	C	0.765209	0.217246	0.217059
C57	C	0.265209	-0.369443	-0.369357
C58	C	0.765209	0.130557	0.130643
C59	C	0.335896	-0.369439	-0.369351
C60	C	0.835896	0.130561	0.130649
C61	C	0.371239	-0.326085	-0.326142
C62	C	0.871239	0.173915	0.173858
C63	C	0.447887	-0.326083	-0.326133
C64	C	0.947887	0.173917	0.173867
C65	C	0.508979	-0.326086	-0.326129
C66	C	1.008979	0.173914	0.173871
C67	C	1.021313	-0.612446	-0.369441
C68	C	1.521313	-0.112446	0.130559
C69	C	1.021337	-0.683135	-0.369454
C70	C	1.521337	-0.183135	0.130546
C71	C	0.978093	-0.718542	-0.326133
C72	C	1.478093	-0.218542	0.173867
C73	C	0.934817	-0.683257	-0.282801
C74	C	1.434817	-0.183257	0.217199
C75	C	0.934790	-0.612570	-0.282792
C76	C	1.434790	-0.112570	0.217208
C77	C	0.934926	-0.968330	-0.282836
C78	C	1.434926	-0.468330	0.217164
C79	C	0.934958	-1.039022	-0.282846
C80	C	1.434958	-0.539022	0.217154
C81	C	1.021473	-1.038895	-0.369497
C82	C	1.521473	-0.538895	0.130503
C83	C	1.021446	-0.968208	-0.369489
C84	C	1.521446	-0.468208	0.130511
C85	C	0.978168	-0.932929	-0.326160
C86	C	1.478168	-0.432929	0.173840
C87	C	0.978141	-0.856281	-0.326147
C88	C	1.478141	-0.356281	0.173853
C89	C	0.978123	-0.795189	-0.326141
C90	C	1.478123	-0.295189	0.173859
C91	C	1.154632	-0.326092	-0.326146
C92	C	1.654632	0.173908	0.173854
C93	C	1.229864	-0.326097	-0.326156
C94	C	1.729864	0.173903	0.173844
C95	C	0.978116	-0.326041	-0.502667
C96	C	1.478116	0.173959	-0.002667
C97	C	0.978128	-0.326025	-0.577899
C98	C	1.478128	0.173975	-0.077899
C99	C	0.978186	-0.149535	-0.326163
C100	C	1.478186	0.350465	0.173837
C101	C	0.978226	-0.074303	-0.326180
C102	C	1.478226	0.425697	0.173820
C103	C	1.021523	-0.282618	-1.039706
C104	C	1.521523	0.217382	-0.539706
C105	C	1.021512	-0.282638	-0.969018
C106	C	1.521512	0.217362	-0.469018
C107	C	0.978197	-0.325931	-0.933661
C108	C	1.478197	0.174069	-0.433661
C109	C	0.934894	-0.369210	-0.968996
C110	C	1.434894	0.130790	-0.468996
C111	C	0.934909	-0.369192	-1.039683
C112	C	1.434909	0.130808	-0.539683
C113	C	0.934835	-0.369283	-0.683922
C114	C	1.434835	0.130717	-0.183922
C115	C	0.934823	-0.369296	-0.613230
C116	C	1.434823	0.130704	-0.113230
C117	C	1.021439	-0.282730	-0.613257
C118	C	1.521439	0.217270	-0.113257
C119	C	1.021454	-0.282712	-0.683944
C120	C	1.521454	0.217288	-0.183944
C121	C	0.978154	-0.325993	-0.719273
C122	C	1.478154	0.174007	-0.219273
C123	C	0.978166	-0.325971	-0.795922
C124	C	1.478166	0.174029	-0.295922
C125	C	0.978180	-0.325950	-0.857013
C126	C	1.478180	0.174050	-0.357013
C127	C	0.978102	-0.326067	-0.150268
C128	C	1.478102	0.173933	0.349732
C129	C	0.978222	-0.325892	-0.075036
C130	C	1.478222	0.174108	0.424964
H131	H	0.720430	-0.404719	-0.404500
H132	H	1.220430	0.095281	0.095500
H133	H	0.364670	-0.404735	-0.404531
H134	H	0.864670	0.095265	0.095469
C135	C	0.887176	-0.416923	-0.574335
C136	C	1.387176	0.083077	-0.074335
C137	C	0.916473	-0.470069	-0.525726
C138	C	1.416473	0.029931	-0.025726
C139	C	0.868829	-0.517692	-0.486830
C140	C	1.368829	-0.017692	0.013170
C141	C	0.791887	-0.512170	-0.496543
C142	C	1.291887	-0.012170	0.003457
C143	C	0.762587	-0.459022	-0.545154
C144	C	1.262587	0.040978	-0.045154
C145	C	0.810231	-0.411399	-0.584050
C146	C	1.310231	0.088601	-0.084050
H147	H	0.973433	-0.474158	-0.518533
H148	H	1.473433	0.025842	-0.018533
H149	H	0.890519	-0.557035	-0.450844
H150	H	1.390519	-0.057035	0.049156
H151	H	0.756618	-0.547423	-0.467750
H152	H	1.256618	-0.047423	0.032250
H153	H	0.705627	-0.454933	-0.552346
H154	H	1.205627	0.045067	-0.052346
H155	H	0.788540	-0.372056	-0.620035
H156	H	1.288540	0.127944	-0.120035
H157	H	1.056578	-0.711857	-0.404732
H158	H	1.556578	-0.211857	0.095268
C159	C	0.887382	-1.077972	-0.235194
C160	C	1.387382	-0.577972	0.264806
C161	C	0.916763	-1.126570	-0.182085
C162	C	1.416763	-0.626570	0.317915
C163	C	0.869191	-1.165520	-0.134435
C164	C	1.369191	-0.665520	0.365565
C165	C	0.792238	-1.155871	-0.139895
C166	C	1.292238	-0.655871	0.360105
C167	C	0.762853	-1.107270	-0.193006
C168	C	1.262853	-0.607270	0.306994
C169	C	0.810425	-1.068320	-0.240655
C170	C	1.310425	-0.568320	0.259345
H171	H	0.973732	-1.133715	-0.178042
H172	H	1.473732	-0.633715	0.321958
H173	H	0.890944	-1.201497	-0.095119
H174	H	1.390944	-0.701497	0.404881
H175	H	0.757022	-1.184704	-0.104621
H176	H	1.257022	-0.684704	0.395379
H177	H	0.705884	-1.100125	-0.197049
H178	H	1.205884	-0.600125	0.302951
H179	H	0.788672	-1.032343	-0.279972
H180	H	1.288672	-0.532343	0.220028
C181	C	1.068883	-0.573502	-0.417097
C182	C	1.568883	-0.073502	0.082903
C183	C	1.068858	-0.495749	-0.417090
C184	C	1.568858	0.004251	0.082910
C185	C	1.116427	-0.456806	-0.464748
C186	C	1.616427	0.043194	0.035252
C187	C	1.164021	-0.495617	-0.512414
C188	C	1.664021	0.004383	-0.012414
C189	C	1.164048	-0.573375	-0.512422
C190	C	1.664048	-0.073375	-0.012422
C191	C	1.116479	-0.612317	-0.464764
C192	C	1.616479	-0.112317	0.035236
H193	H	1.033624	-0.467015	-0.381804
H194	H	1.533624	0.032985	0.118196
H195	H	1.116407	-0.399245	-0.464742
H196	H	1.616407	0.100755	0.035258
H197	H	1.199235	-0.466790	-0.547693
H198	H	1.699235	0.033210	-0.047693
H199	H	1.199282	-0.602109	-0.547708
H200	H	1.699282	-0.102109	-0.047708
H201	H	1.116499	-0.669878	-0.464770
H202	H	1.616499	-0.169878	0.035230
H203	H	0.899553	-0.583845	-0.247510
H204	H	1.399553	-0.083845	0.252490
H205	H	0.236425	-0.404741	-0.404543
H206	H	0.736425	0.095259	0.095457
H207	H	0.899577	-0.404524	-0.712678
H208	H	1.399577	0.095476	-0.212678
C209	C	0.887246	-0.416832	-0.930105
C210	C	1.387246	0.083168	-0.430105
C211	C	0.839616	-0.464434	-0.968970
C212	C	1.339616	0.035566	-0.468970
C213	C	0.791964	-0.512056	-0.930081
C214	C	1.291964	-0.012056	-0.430081
C215	C	0.791942	-0.512075	-0.852328
C216	C	1.291942	-0.012075	-0.352328
C217	C	0.839574	-0.464471	-0.813459
C218	C	1.339574	0.035529	-0.313459
C219	C	0.887225	-0.416849	-0.852348
C220	C	1.387225	0.083151	-0.352348
H221	H	0.839631	-0.464422	-1.026531
H222	H	1.339631	0.035578	-0.526531
H223	H	0.756704	-0.547296	-0.958854
H224	H	1.256704	-0.047296	-0.458854
H225	H	0.756668	-0.547328	-0.823540
H226	H	1.256668	-0.047328	-0.323540
H227	H	0.839559	-0.464484	-0.755897
H228	H	1.339559	0.035516	-0.255897
H229	H	0.922485	-0.381610	-0.823574
H230	H	1.422485	0.118390	-0.323574
C231	C	0.374780	-0.235069	-0.235399
C232	C	0.874780	0.264931	0.264601
C233	C	0.423346	-0.264334	-0.182210
C234	C	0.923346	0.235666	0.317790
C235	C	0.462231	-0.216660	-0.134671
C236	C	0.962231	0.283340	0.365329
C237	C	0.452551	-0.139721	-0.140322
C238	C	0.952551	0.360279	0.359678
C239	C	0.403982	-0.110453	-0.193513
C240	C	0.903982	0.389547	0.306487
C241	C	0.365097	-0.158127	-0.241051
C242	C	0.865097	0.341873	0.258949
H243	H	0.430514	-0.321292	-0.178025
H244	H	0.930514	0.178708	0.321975
H245	H	0.498185	-0.238327	-0.095296
H246	H	0.998185	0.261673	0.404704
H247	H	0.481336	-0.104430	-0.105131
H248	H	0.981336	0.395570	0.394869
H249	H	0.396814	-0.053495	-0.197698
H250	H	0.896814	0.446505	0.302302
H251	H	0.329143	-0.136460	-0.280427
H252	H	0.829143	0.363540	0.219573
H253	H	0.236434	-0.247455	-0.247758
H254	H	0.736434	0.252545	0.252242
H255	H	0.592196	-0.404721	-0.404515
H256	H	1.092196	0.095279	0.095485
C257	C	0.887280	-0.416796	-1.078552
C258	C	1.387280	0.083204	-0.578552
C259	C	0.892767	-0.493743	-1.068816
C260	C	1.392767	0.006257	-0.568816
C261	C	0.845142	-0.541352	-1.107686
C262	C	1.345142	-0.041352	-0.607686
C263	C	0.792031	-0.512014	-1.156290
C264	C	1.292031	-0.012014	-0.656290
C265	C	0.786542	-0.435062	-1.166027
C266	C	1.286542	0.064938	-0.666027
C267	C	0.834167	-0.387453	-1.127158
C268	C	1.334167	0.112547	-0.627158
H269	H	0.932085	-0.515464	-1.032835
H270	H	1.432085	-0.015464	-0.532835
H271	H	0.849205	-0.598317	-1.100477
H272	H	1.349205	-0.098317	-0.600477
H273	H	0.756776	-0.547257	-1.185063
H274	H	1.256776	-0.047257	-0.685063
H275	H	0.747224	-0.413341	-1.202009
H276	H	1.247224	0.086659	-0.702009
H277	H	0.830103	-0.330489	-1.134366
H278	H	1.330103	0.169511	-0.634366
C279	C	1.069172	-0.234995	-1.078596
C280	C	1.569172	0.265005	-0.578596
C281	C	1.116806	-0.187398	-1.039730
C282	C	1.616806	0.312602	-0.539730
C283	C	1.164459	-0.139776	-1.078617
C284	C	1.664459	0.360224	-0.578617
C285	C	1.164478	-0.139752	-1.156370
C286	C	1.664478	0.360248	-0.656370
C287	C	1.116842	-0.187351	-1.195240
C288	C	1.616842	0.312649	-0.695240
C289	C	1.069190	-0.234973	-1.156353
C290	C	1.569190	0.265027	-0.656353
H291	H	1.116793	-0.187415	-0.982168
H292	H	1.616793	0.312585	-0.482168
H293	H	1.199722	-0.104541	-1.049842
H294	H	1.699722	0.395459	-0.549842
H295	H	1.199753	-0.104500	-1.185157
H296	H	1.699753	0.395500	-0.685157
H297	H	1.116855	-0.187335	-1.252802
H298	H	1.616855	0.312665	-0.752802
H299	H	1.033927	-0.270209	-1.185128
H300	H	1.533927	0.229791	-0.685128
C301	C	1.069014	-0.929262	-0.417144
C302	C	1.569014	-0.429262	0.082856
C303	C	1.122156	-0.880637	-0.387863
C304	C	1.622156	-0.380637	0.112137
C305	C	1.169723	-0.841693	-0.435522
C306	C	1.669723	-0.341693	0.064478
C307	C	1.164148	-0.851373	-0.512463
C308	C	1.664148	-0.351373	-0.012463
C309	C	1.111004	-0.900001	-0.541749
C310	C	1.611004	-0.400001	-0.041749
C311	C	1.063437	-0.938945	-0.494089
C312	C	1.563437	-0.438945	0.005911
H313	H	1.126285	-0.873469	-0.330903
H314	H	1.626285	-0.373469	0.169097
H315	H	1.209063	-0.805696	-0.413842
H316	H	1.709063	-0.305696	0.086158
H317	H	1.199360	-0.822545	-0.547743
H318	H	1.699360	-0.322545	-0.047743
H319	H	1.106875	-0.907169	-0.598709
H320	H	1.606875	-0.407169	-0.098709
H321	H	1.024096	-0.974942	-0.515769
H322	H	1.524096	-0.474942	-0.015769
C323	C	0.887326	-0.929534	-0.235167
C324	C	1.387326	-0.429534	0.264833
C325	C	0.892910	-0.939298	-0.158229
C326	C	1.392910	-0.439298	0.341771
C327	C	0.845308	-0.900501	-0.110556
C328	C	1.345308	-0.400501	0.389444
C329	C	0.792121	-0.851939	-0.139819
C330	C	1.292121	-0.351939	0.360181
C331	C	0.786534	-0.842172	-0.216761
C332	C	1.286534	-0.342172	0.283239
C333	C	0.834136	-0.880970	-0.264434
C334	C	1.334136	-0.380970	0.235566
H335	H	0.932285	-0.975249	-0.136563
H336	H	1.432285	-0.475249	0.363437
H337	H	0.849444	-0.907731	-0.053598
H338	H	1.349444	-0.407731	0.446402
H339	H	0.756883	-0.823219	-0.104528
H340	H	1.256883	-0.323219	0.395472
H341	H	0.747160	-0.806222	-0.238427
H342	H	1.247160	-0.306222	0.261573
H343	H	0.830000	-0.873739	-0.321392
H344	H	1.330000	-0.373739	0.178608
C345	C	1.069075	-1.077704	-0.417168
C346	C	1.569075	-0.577704	0.082832
C347	C	1.122251	-1.126274	-0.387896
C348	C	1.622251	-0.626274	0.112104
C349	C	1.169852	-1.165080	-0.435563
C350	C	1.669852	-0.665080	0.064437
C351	C	1.164278	-1.155317	-0.512502
C352	C	1.664278	-0.655317	-0.012502
C353	C	1.111100	-1.106745	-0.541777
C354	C	1.611100	-0.606745	-0.041777
C355	C	1.063498	-1.067938	-0.494110
C356	C	1.563498	-0.567938	0.005890
H357	H	1.126379	-1.133503	-0.330938
H358	H	1.626379	-0.633503	0.169062
H359	H	1.209218	-1.201036	-0.413891
H360	H	1.709218	-0.701036	0.086109
H361	H	1.199515	-1.184044	-0.547788
H362	H	1.699515	-0.684044	-0.047788
H363	H	1.106971	-1.099516	-0.598735
H364	H	1.606971	-0.599516	-0.098735
H365	H	1.024132	-1.031982	-0.515782
H366	H	1.524132	-0.531982	-0.015782
H367	H	0.899604	-0.712091	-0.247531
H368	H	1.399604	-0.212091	0.252469
H369	H	1.056774	-0.247402	-0.940255
H370	H	1.556774	0.252598	-0.440255
H371	H	0.592192	-0.247437	-0.247736
H372	H	1.092192	0.252563	0.252264
C373	C	1.069101	-0.235090	-0.722836
C374	C	1.569101	0.264910	-0.222836
C375	C	1.116735	-0.187490	-0.683974
C376	C	1.616735	0.312510	-0.183974
C377	C	1.164385	-0.139869	-0.722865
C378	C	1.664385	0.360131	-0.222865
C379	C	1.164401	-0.139847	-0.800619
C380	C	1.664401	0.360153	-0.300619
C381	C	1.116765	-0.187449	-0.839485
C382	C	1.616765	0.312551	-0.339485
C383	C	1.069115	-0.235070	-0.800594
C384	C	1.569115	0.264930	-0.300594
H385	H	1.116725	-0.187504	-0.626413
H386	H	1.616725	0.312496	-0.126413
H387	H	1.199649	-0.104631	-0.694093
H388	H	1.699649	0.395369	-0.194093
H389	H	1.199675	-0.104595	-0.829408
H390	H	1.699675	0.395405	-0.329408
H391	H	1.116775	-0.187435	-0.897046
H392	H	1.616775	0.312565	-0.397046
H393	H	1.033852	-0.270308	-0.829366
H394	H	1.533852	0.229692	-0.329366
H395	H	1.056698	-0.247490	-0.584484
H396	H	1.556698	0.252510	-0.084484
H397	H	0.720437	-0.247425	-0.247723
H398	H	1.220437	0.252575	0.252277
