data_functionalizedCrystal
_audit_creation_method	'MofGen! by Chris Wilmer'
_symmetry_space_group_name_H-M	'P1'
_symmetry_Int_Tables_number	1
_symmetry_cell_setting	triclinic
loop_
_symmetry_equiv_pos_as_xyz
  x,y,z
_cell_length_a	21.295418
_cell_length_b	12.645330
_cell_length_c	12.645323
_cell_angle_alpha	90.024870
_cell_angle_beta	90.041678
_cell_angle_gamma	90.033507
loop_
_atom_site_label
_atom_site_type_symbol
_atom_site_fract_x
_atom_site_fract_y
_atom_site_fract_z
Zn1	Zn	0.962399	-0.421583	0.599984
Zn2	Zn	1.462399	0.078417	1.099984
Zn3	Zn	0.962329	-0.598871	0.422724
Zn4	Zn	1.462329	-0.098871	0.922724
Zn5	Zn	0.857126	-0.421671	0.422670
Zn6	Zn	1.357126	0.078329	0.922670
Zn7	Zn	0.857115	-0.598854	0.599881
Zn8	Zn	1.357115	-0.098854	1.099881
O9	O	0.909742	-0.510245	0.511315
O10	O	1.409742	-0.010245	1.011315
O11	O	1.050479	-0.445071	0.576536
O12	O	1.550479	0.054929	1.076536
O13	O	0.948349	-0.575409	0.274369
O14	O	1.448349	-0.075409	0.774369
O15	O	0.871125	-0.273312	0.446211
O16	O	1.371125	0.226688	0.946211
O17	O	1.050428	-0.575324	0.446304
O18	O	1.550428	-0.075324	0.946304
O19	O	0.948468	-0.273248	0.576483
O20	O	1.448468	0.226752	1.076483
O21	O	0.871057	-0.445221	0.274329
O22	O	1.371057	0.054779	0.774329
O23	O	0.769035	-0.445205	0.446111
O24	O	1.269035	0.054795	0.946111
O25	O	0.871106	-0.575295	0.748242
O26	O	1.371106	-0.075295	1.248242
O27	O	0.769027	-0.575380	0.576307
O28	O	1.269027	-0.075380	1.076307
O29	O	0.948458	-0.445055	0.748318
O30	O	1.448458	0.054945	1.248318
O31	O	0.948338	-0.747216	0.446204
O32	O	1.448338	-0.247216	0.946204
O33	O	0.871038	-0.747204	0.576360
O34	O	1.371038	-0.247204	1.076360
C35	C	0.909696	-0.785675	0.511300
C36	C	1.409696	-0.285675	1.011300
C37	C	0.909734	-0.903505	0.511329
C38	C	1.409734	-0.403505	1.011329
C39	C	0.746191	-0.510301	0.511193
C40	C	1.246191	-0.010301	1.011193
C41	C	0.676222	-0.510350	0.511165
C42	C	1.176222	-0.010350	1.011165
C43	C	0.861305	-1.071105	0.593463
C44	C	1.361305	-0.571105	1.093463
C45	C	0.861058	-0.948546	0.593199
C46	C	1.361058	-0.448546	1.093199
C47	C	0.891774	-0.948107	0.399597
C48	C	1.391774	-0.448107	0.899597
C49	C	0.891479	-1.070706	0.400095
C50	C	1.391479	-0.570706	0.900095
C51	C	0.976419	-1.070563	0.540021
C52	C	1.476419	-0.570563	1.040021
C53	C	0.976011	-0.947956	0.542464
C54	C	1.476011	-0.447956	1.042464
C55	C	0.643368	-0.578222	0.578857
C56	C	1.143368	-0.078222	1.078857
C57	C	0.577626	-0.578196	0.578905
C58	C	1.077626	-0.078196	1.078905
C59	C	0.544740	-0.510309	0.511242
C60	C	1.044740	-0.010309	1.011242
C61	C	0.577602	-0.442424	0.443545
C62	C	1.077602	0.057576	0.943545
C63	C	0.643343	-0.442444	0.443507
C64	C	1.143343	0.057556	0.943507
N65	N	0.441465	-0.502032	0.418520
N66	N	0.941465	-0.002032	0.918520
N67	N	0.379013	-0.502018	0.418560
N68	N	0.879013	-0.002018	0.918560
C69	C	0.346665	-0.510241	0.511354
C70	C	0.846665	-0.010241	1.011354
N71	N	0.379128	-0.518499	0.604110
N72	N	0.879128	-0.018499	1.104110
N73	N	0.441585	-0.518518	0.604070
N74	N	0.941585	-0.018518	1.104070
C75	C	0.473455	-0.510279	0.511276
C76	C	0.973455	-0.010279	1.011276
C77	C	0.242526	-0.578089	0.579103
C78	C	0.742526	-0.078089	1.079103
C79	C	0.176782	-0.578055	0.579153
C80	C	0.676782	-0.078055	1.079153
C81	C	0.176760	-0.442288	0.443784
C82	C	0.676760	0.057712	0.943784
C83	C	0.242502	-0.442316	0.443744
C84	C	0.742502	0.057684	0.943744
C85	C	0.275381	-0.510222	0.511402
C86	C	0.775381	-0.010222	1.011402
C87	C	1.073933	-0.510190	0.511438
C88	C	1.573933	-0.010190	1.011438
C89	C	1.143901	-0.510166	0.511490
C90	C	1.643901	-0.010166	1.011490
C91	C	0.909789	-0.510163	0.787820
C92	C	1.409789	-0.010163	1.287820
C93	C	0.909808	-0.510128	0.905650
C94	C	1.409808	-0.010128	1.405650
C95	C	0.909806	-0.233740	0.511353
C96	C	1.409806	0.266260	1.011353
C97	C	0.909832	-0.115910	0.511369
C98	C	1.409832	0.384090	1.011369
C99	C	0.909732	-0.510250	0.235885
C100	C	1.409732	-0.010250	0.735885
C101	C	0.909834	-0.509986	0.118055
C102	C	1.409834	-0.009986	0.618055
C103	C	0.860996	-0.591676	1.073166
C104	C	1.360996	-0.091676	1.573166
C105	C	0.861124	-0.592080	0.950607
C106	C	1.361124	-0.092080	1.450607
C107	C	0.976136	-0.540416	0.950207
C108	C	1.476136	-0.040416	1.450207
C109	C	0.975868	-0.540927	1.072805
C110	C	1.475868	-0.040927	1.572805
C111	C	0.892920	-0.397836	1.072839
C112	C	1.392920	0.102164	1.572839
C113	C	0.891440	-0.398510	0.950231
C114	C	1.391440	0.101490	1.450231
H115	H	0.872295	-0.918386	0.676046
H116	H	1.372295	-0.418386	1.176046
C117	C	0.825511	-0.367625	0.910839
C118	C	1.325511	0.132375	1.410839
N119	N	0.775857	-0.344357	0.881148
N120	N	1.275857	0.155643	1.381148
C121	C	0.794678	-0.566477	0.909900
C122	C	1.294678	-0.066477	1.409900
N123	N	0.744628	-0.547196	0.879246
N124	N	1.244628	-0.047196	1.379246
H125	H	0.149985	-0.387008	0.388696
H126	H	0.649985	0.112992	0.888696
H127	H	0.845396	-0.370222	1.103716
H128	H	1.345396	0.129778	1.603716
C129	C	0.825719	-1.109500	0.367318
C130	C	1.325719	-0.609500	0.867318
N131	N	0.776187	-1.138714	0.342633
N132	N	1.276187	-0.638714	0.842633
H133	H	0.811666	-0.572909	1.102612
H134	H	1.311666	-0.072909	1.602612
C135	C	0.278695	-0.652774	0.653540
C136	C	0.778695	-0.152774	1.153540
N137	N	0.305935	-0.709025	0.709609
N138	N	0.805935	-0.209025	1.209609
C139	C	0.935976	-0.311935	0.908869
C140	C	1.435976	0.188065	1.408869
N141	N	0.969521	-0.246728	0.877708
N142	N	1.469521	0.253272	1.377708
C143	C	0.995232	-0.651685	1.111471
C144	C	1.495232	-0.151685	1.611471
N145	N	1.009815	-0.735112	1.140588
N146	N	1.509815	-0.235112	1.640588
C147	C	0.940976	-0.315615	1.112058
C148	C	1.440976	0.184385	1.612058
N149	N	0.977175	-0.253695	1.141601
N150	N	1.477175	0.246305	1.641601
C151	C	0.794358	-0.909077	0.567628
C152	C	1.294358	-0.409077	1.067628
N153	N	0.744113	-0.879350	0.548393
N154	N	1.244113	-0.379350	1.048393
H155	H	0.550823	-0.387148	0.388455
H156	H	1.050823	0.112852	0.888455
C157	C	0.679484	-0.367782	0.369032
C158	C	1.179484	0.132218	0.869032
N159	N	0.706707	-0.311548	0.312933
N160	N	1.206707	0.188452	0.812933
H161	H	0.812250	-1.102028	0.574720
H162	H	1.312250	-0.602028	1.074720
H163	H	0.550870	-0.633465	0.634032
H164	H	1.050870	-0.133465	1.134032
H165	H	0.872439	-1.100512	0.676582
H166	H	1.372439	-0.600512	1.176582
C167	C	0.938005	-0.908688	0.314699
C168	C	1.438005	-0.408688	0.814699
N169	N	0.972826	-0.878992	0.250754
N170	N	1.472826	-0.378992	0.750754
C171	C	0.937148	-1.110753	0.314633
C172	C	1.437148	-0.610753	0.814633
N173	N	0.971543	-1.140912	0.250257
N174	N	1.471543	-0.640912	0.750257
H175	H	0.843606	-0.917518	0.374891
H176	H	1.343606	-0.417518	0.874891
H177	H	0.992802	-1.101399	0.620113
H178	H	1.492802	-0.601399	1.120113
H179	H	0.989555	-0.918800	0.624693
H180	H	1.489555	-0.418800	1.124693
H181	H	1.014070	-0.917288	0.487028
H182	H	1.514070	-0.417288	0.987028
C183	C	1.026703	-0.464053	1.112931
C184	C	1.526703	0.035947	1.612931
N185	N	1.064995	-0.406160	1.143149
N186	N	1.564995	0.093840	1.643149
C187	C	1.025262	-1.109708	0.459250
C188	C	1.525262	-0.609708	0.959250
N189	N	1.062047	-1.139200	0.398412
N190	N	1.562047	-0.639200	0.898412
H191	H	0.269252	-0.387053	0.388616
H192	H	0.769252	0.112947	0.888616
H193	H	0.670134	-0.633515	0.633952
H194	H	1.170134	-0.133515	1.133952
H195	H	0.150033	-0.633323	0.634282
H196	H	0.650033	-0.133323	1.134282
H197	H	1.013500	-0.482797	0.921093
H198	H	1.513500	0.017203	1.421093
H199	H	0.872054	-0.674299	1.103992
H200	H	1.372054	-0.174299	1.603992
C201	C	0.876198	-0.704407	0.911008
C202	C	1.376198	-0.204407	1.411008
N203	N	0.887540	-0.789021	0.881184
N204	N	1.387540	-0.289021	1.381184
C205	C	0.995837	-0.650014	0.908767
C206	C	1.495837	-0.150014	1.408767
N207	N	1.010671	-0.732567	0.877558
N208	N	1.510671	-0.232567	1.377558
