data_functionalizedCrystal
_audit_creation_method	'MofGen! by Chris Wilmer'
_symmetry_space_group_name_H-M	'P1'
_symmetry_Int_Tables_number	1
_symmetry_cell_setting	triclinic
loop_
_symmetry_equiv_pos_as_xyz
  x,y,z
_cell_length_a	16.992694
_cell_length_b	8.965430
_cell_length_c	16.992695
_cell_angle_alpha	90.001373
_cell_angle_beta	90.668223
_cell_angle_gamma	89.991619
loop_
_atom_site_label
_atom_site_type_symbol
_atom_site_fract_x
_atom_site_fract_y
_atom_site_fract_z
O1	O	1.050842	0.123854	0.166912
O2	O	0.822442	0.123898	0.165081
O3	O	0.935727	0.123864	0.051797
O4	O	0.937558	0.123887	0.280197
O5	O	0.935733	-0.124215	0.051801
O6	O	0.822448	-0.124181	0.165085
O7	O	1.050848	-0.124225	0.166916
Cu8	Cu	0.936649	-0.146855	0.166001
Cu9	Cu	0.936642	0.146527	0.165996
O10	O	0.937564	-0.124191	0.280201
C11	C	0.793085	-0.000136	0.162727
C12	C	0.705600	-0.000120	0.155699
N13	N	0.936659	-0.353204	0.166004
C14	C	0.659610	-0.000114	0.223517
C15	C	0.577409	-0.000135	0.216908
C16	C	0.541201	-0.000152	0.142480
C17	C	0.587198	-0.000162	0.074657
C18	C	0.669397	-0.000151	0.081267
C19	C	0.295886	-0.000194	0.115086
C20	C	0.213681	-0.000200	0.108481
C21	C	0.203898	-0.000177	0.250732
C22	C	0.286099	-0.000157	0.257336
C23	C	0.332089	-0.000175	0.189512
N24	N	0.457178	-0.000169	0.135723
N25	N	0.416110	-0.000169	0.196270
C26	C	0.989068	-0.450485	0.113619
C27	C	0.916976	-0.549878	0.093872
C28	C	1.008720	-0.549939	0.185699
C29	C	0.864530	-0.450407	0.146220
C30	C	0.956322	-0.450460	0.238081
C31	C	0.884181	-0.549807	0.218361
C32	C	1.080205	-0.000188	0.169270
C33	C	1.167690	-0.000195	0.176299
C34	C	0.933374	-0.000175	0.022439
C35	C	0.926345	-0.000173	-0.065046
N36	N	0.936637	0.352876	0.165987
C37	C	0.994163	-0.000188	-0.111037
C38	C	0.987554	-0.000172	-0.193238
C39	C	0.913127	-0.000153	-0.229446
C40	C	0.845304	-0.000134	-0.183449
C41	C	0.851913	-0.000138	-0.101250
C42	C	0.885732	-0.000127	-0.474760
C43	C	0.879127	-0.000127	-0.556966
C44	C	1.021379	-0.000162	-0.566749
C45	C	1.027982	-0.000176	-0.484547
C46	C	0.960159	-0.000149	-0.438558
N47	N	0.906369	-0.000142	-0.313468
N48	N	0.966917	-0.000150	-0.354537
C49	C	0.939917	-0.000149	0.309559
C50	C	0.946945	-0.000141	0.397044
H51	H	0.539966	-0.000129	0.272133
H52	H	0.830505	-0.000105	-0.437325
H53	H	0.557710	-0.000196	0.014056
H54	H	0.784703	-0.000109	-0.212936
O55	O	0.791847	-0.398233	0.126241
C56	C	0.792738	-0.240980	0.126486
H57	H	0.855559	-0.199846	0.118088
H58	H	0.769646	-0.198412	0.185070
C59	C	0.662888	-0.232789	0.069272
C60	C	0.740045	-0.182269	0.058951
H61	H	0.630382	-0.196572	0.027617
H62	H	0.662286	-0.338734	0.069110
H63	H	0.643655	-0.197313	0.118095
H64	H	0.759280	-0.217761	0.010135
H65	H	0.740649	-0.076328	0.059104
O66	O	0.897006	-0.601807	0.021142
C67	C	0.821533	-0.548946	-0.000030
H68	H	0.808089	-0.443499	0.034814
H69	H	0.775768	-0.637940	0.013638
C70	C	0.835580	-0.642942	-0.131485
C71	C	0.819072	-0.513422	-0.088694
H72	H	0.834060	-0.621036	-0.186177
H73	H	0.886427	-0.678561	-0.117220
H74	H	0.797441	-0.717092	-0.120086
H75	H	0.857216	-0.439283	-0.100086
H76	H	0.768231	-0.477790	-0.102963
H77	H	0.839800	-0.593143	0.262654
H78	H	1.076596	-0.000181	-0.604202
H79	H	0.689084	-0.000100	0.284124
H80	H	1.088589	-0.000192	-0.455073
H81	H	0.315574	-0.000126	0.317942
H82	H	0.166444	-0.000165	0.305950
H83	H	0.796688	-0.000126	-0.063804
H84	H	1.042779	-0.000187	-0.230680
O85	O	0.178594	-0.000021	0.036136
C86	C	0.201627	0.128471	-0.005520
H87	H	0.259918	0.171309	0.019493
H88	H	0.154681	0.218442	0.000623
C89	C	0.139869	0.036810	-0.123827
C90	C	0.211467	0.089417	-0.093111
H91	H	0.145935	0.012724	-0.177858
H92	H	0.124349	-0.049755	-0.095763
H93	H	0.100754	0.111794	-0.118701
H94	H	0.250577	0.014427	-0.098229
H95	H	0.226994	0.175969	-0.121178
O96	O	0.340634	0.000005	0.049260
C97	C	0.388445	0.128512	0.048811
H98	H	0.396515	0.171348	0.111553
H99	H	0.359166	0.218477	0.011170
C100	C	0.459412	0.036881	-0.062647
C101	C	0.469329	0.089486	0.014414
H102	H	0.509304	0.012813	-0.083868
H103	H	0.427199	-0.049694	-0.062347
H104	H	0.435010	0.111861	-0.094005
H105	H	0.493721	0.014501	0.045773
H106	H	0.501548	0.176049	0.014119
O107	O	1.041796	-0.398511	0.060633
C108	C	1.020763	-0.449201	-0.015288
H109	H	0.955313	-0.477060	-0.017181
H110	H	1.056287	-0.553273	-0.029870
C111	C	1.118597	-0.292138	-0.073645
C112	C	1.038209	-0.326343	-0.075970
H113	H	1.129361	-0.216357	-0.111077
H114	H	1.132770	-0.257991	-0.022495
H115	H	1.148191	-0.378875	-0.085794
H116	H	1.008617	-0.239611	-0.063812
H117	H	1.024032	-0.360473	-0.127120
O118	O	0.976341	-0.398377	0.310762
C119	C	1.052398	-0.449033	0.331318
H120	H	1.086125	-0.476972	0.275620
H121	H	1.047622	-0.553048	0.369555
C122	C	1.054949	-0.291799	0.445766
C123	C	1.096375	-0.326103	0.377357
H124	H	1.082075	-0.215975	0.474169
H125	H	1.003706	-0.257675	0.431920
H126	H	1.050971	-0.378489	0.477622
H127	H	1.100343	-0.239419	0.345499
H128	H	1.147619	-0.360210	0.391200
H129	H	0.818517	-0.000135	-0.586443
H130	H	1.054770	-0.000212	-0.081563
O131	O	1.081497	-0.601859	0.205515
C132	C	1.136568	-0.551252	0.150134
H133	H	1.113013	-0.446580	0.119921
H134	H	1.146670	-0.641840	0.104263
C135	C	1.243831	-0.643555	0.229524
C136	C	1.214902	-0.514988	0.192421
H137	H	1.292152	-0.621192	0.255607
H138	H	1.206728	-0.677656	0.266835
H139	H	1.252242	-0.719033	0.191292
H140	H	1.206482	-0.439519	0.230654
H141	H	1.252006	-0.480873	0.155118
H142	H	0.706842	-0.000155	0.026042
