data_functionalizedCrystal
_audit_creation_method	'MofGen! by Chris Wilmer'
_symmetry_space_group_name_H-M	'P1'
_symmetry_Int_Tables_number	1
_symmetry_cell_setting	triclinic
loop_
_symmetry_equiv_pos_as_xyz
  x,y,z
_cell_length_a	16.959454
_cell_length_b	19.077241
_cell_length_c	19.077174
_cell_angle_alpha	94.706947
_cell_angle_beta	92.276377
_cell_angle_gamma	87.687869
loop_
_atom_site_label
_atom_site_type_symbol
_atom_site_fract_x
_atom_site_fract_y
_atom_site_fract_z
Zn1	Zn	-0.285411	-1.093760	-0.442014
Zn2	Zn	0.214589	-0.593760	0.057986
Zn3	Zn	-0.412493	-1.088954	-0.324134
Zn4	Zn	0.087507	-0.588954	0.175866
Zn5	Zn	-0.285421	-0.971141	-0.319395
Zn6	Zn	0.214579	-0.471141	0.180605
Zn7	Zn	-0.422643	-0.975845	-0.437236
Zn8	Zn	0.077357	-0.475845	0.062764
O9	O	-0.351492	-1.032425	-0.380695
O10	O	0.148508	-0.532425	0.119305
O11	O	-0.298017	-1.191775	-0.430360
O12	O	0.201983	-0.691775	0.069640
O13	O	-0.391393	-1.069346	-0.224855
O14	O	0.108607	-0.569346	0.275145
O15	O	-0.174807	-0.987449	-0.335677
O16	O	0.325193	-0.487449	0.164323
O17	O	-0.391383	-1.188244	-0.343754
O18	O	0.108617	-0.688244	0.156246
O19	O	-0.174800	-1.077537	-0.425765
O20	O	0.325200	-0.577537	0.074235
O21	O	-0.298033	-0.982789	-0.221373
O22	O	0.201967	-0.482789	0.278627
O23	O	-0.307875	-0.873112	-0.331044
O24	O	0.192125	-0.373112	0.168956
O25	O	-0.408682	-0.995467	-0.536521
O26	O	0.091318	-0.495467	-0.036521
O27	O	-0.408692	-0.876568	-0.417621
O28	O	0.091308	-0.376568	0.082379
O29	O	-0.307858	-1.082098	-0.540031
O30	O	0.192142	-0.582098	-0.040031
O31	O	-0.524451	-1.073907	-0.339121
O32	O	-0.024451	-0.573907	0.160879
O33	O	-0.531908	-0.990806	-0.422217
O34	O	-0.031908	-0.490806	0.077783
C35	C	-0.359386	-0.849261	-0.373300
C36	C	0.140614	-0.349261	0.126700
C37	C	-0.362784	-0.770903	-0.370153
C38	C	0.137216	-0.270903	0.129847
C39	C	-0.315852	-0.735932	-0.413835
C40	C	0.184148	-0.235932	0.086165
C41	C	-0.319040	-0.662306	-0.410873
C42	C	0.180960	-0.162306	0.089127
C43	C	-0.369164	-0.623653	-0.364231
C44	C	0.130836	-0.123653	0.135769
C45	C	-0.416098	-0.658629	-0.320544
C46	C	0.083902	-0.158629	0.179456
C47	C	-0.412905	-0.732253	-0.323504
C48	C	0.087095	-0.232253	0.176496
C49	C	-0.383912	-0.403262	-0.350533
C50	C	0.116088	0.096738	0.149467
C51	C	-0.387103	-0.329633	-0.347578
C52	C	0.112897	0.170367	0.152422
C53	C	-0.290044	-0.333316	-0.437906
C54	C	0.209956	0.166684	0.062094
C55	C	-0.286859	-0.406941	-0.440865
C56	C	0.213141	0.093059	0.059135
C57	C	-0.333789	-0.441910	-0.397175
C58	C	0.166211	0.058090	0.102825
N59	N	-0.372426	-0.548396	-0.361203
N60	N	0.127574	-0.048396	0.138797
N61	N	-0.330523	-0.517166	-0.400200
N62	N	0.169477	-0.017166	0.099800
C63	C	-0.556860	-1.032365	-0.380680
C64	C	-0.056860	-0.532365	0.119320
C65	C	-0.644716	-1.032405	-0.380700
C66	C	-0.144716	-0.532405	0.119300
C67	C	-1.020100	-0.989220	-0.423961
C68	C	-0.520100	-0.489220	0.076039
C69	C	-1.012275	-1.075829	-0.337509
C70	C	-0.512275	-0.575829	0.162491
C71	C	-0.929730	-1.075805	-0.337501
C72	C	-0.429730	-0.575805	0.162499
C73	C	-0.892366	-1.032486	-0.380723
C74	C	-0.392366	-0.532486	0.119277
C75	C	-0.937547	-0.989192	-0.423953
C76	C	-0.437547	-0.489192	0.076047
C77	C	-0.884543	-1.119092	-0.294267
C78	C	-0.384543	-0.619092	0.205733
C79	C	-0.801992	-1.119069	-0.294257
C80	C	-0.301992	-0.619069	0.205743
C81	C	-0.764627	-1.075753	-0.337484
C82	C	-0.264627	-0.575753	0.162516
C83	C	-0.809813	-1.032458	-0.380716
C84	C	-0.309813	-0.532458	0.119284
C85	C	-0.772450	-0.989139	-0.423938
C86	C	-0.272450	-0.489139	0.076062
C87	C	-0.817635	-0.945847	-0.467174
C88	C	-0.317635	-0.445847	0.032826
C89	C	-0.900182	-0.945876	-0.467179
C90	C	-0.400182	-0.445876	0.032821
C91	C	-0.682080	-1.075724	-0.337478
C92	C	-0.182080	-0.575724	0.162522
C93	C	-0.689897	-0.989111	-0.423930
C94	C	-0.189897	-0.489111	0.076070
C95	C	-0.145321	-1.032505	-0.380725
C96	C	0.354679	-0.532505	0.119275
C97	C	-0.057464	-1.032538	-0.380738
C98	C	0.442536	-0.532538	0.119262
C99	C	-0.359401	-1.039843	-0.564570
C100	C	0.140599	-0.539843	-0.064570
C101	C	-0.362772	-1.043004	-0.642927
C102	C	0.137228	-0.543004	-0.142927
C103	C	-0.343562	-0.216304	-0.388113
C104	C	0.156438	0.283696	0.111887
C105	C	-0.340171	-0.294662	-0.391260
C106	C	0.159829	0.205338	0.108740
C107	C	-0.315749	-0.999426	-0.677926
C108	C	0.184251	-0.499426	-0.177926
C109	C	-0.318923	-1.002394	-0.751550
C110	C	0.181077	-0.502394	-0.251550
C111	C	-0.369116	-1.048944	-0.790174
C112	C	0.130884	-0.548944	-0.290174
C113	C	-0.416144	-1.092524	-0.755170
C114	C	0.083856	-0.592524	-0.255170
C115	C	-0.412974	-1.089552	-0.681547
C116	C	0.087026	-0.589552	-0.181547
C117	C	-0.383813	-1.062660	-1.010558
C118	C	0.116187	-0.562660	-0.510558
C119	C	-0.386978	-1.065630	-1.084187
C120	C	0.113022	-0.565630	-0.584187
C121	C	-0.289757	-0.975499	-1.080561
C122	C	0.210243	-0.475499	-0.580561
C123	C	-0.286588	-0.972534	-1.006937
C124	C	0.213412	-0.472534	-0.506937
C125	C	-0.333619	-1.016111	-0.971939
C126	C	0.166381	-0.516111	-0.471939
N127	N	-0.372359	-1.051980	-0.865430
N128	N	0.127641	-0.551980	-0.365430
N129	N	-0.330380	-1.013071	-0.896685
N130	N	0.169620	-0.513071	-0.396685
C131	C	-0.343554	-1.025076	-0.197536
C132	C	0.156446	-0.525076	0.302464
C133	C	-0.339955	-1.022052	-0.119186
C134	C	0.160045	-0.522052	0.380814
H135	H	-0.246045	-0.438408	-0.478848
H136	H	0.253955	0.061592	0.021152
H137	H	-0.427924	-0.298163	-0.309597
H138	H	0.072076	0.201837	0.190403
H139	H	-0.245718	-0.934626	-0.975494
H140	H	0.254282	-0.434626	-0.475494
H141	H	-0.251835	-0.304835	-0.473474
H142	H	0.248165	0.195165	0.026526
H143	H	-0.422127	-0.431725	-0.314959
H144	H	0.077873	0.068275	0.185041
F145	F	-0.469440	-0.617489	-0.270901
F146	F	0.030560	-0.117489	0.229099
F147	F	-0.262506	-0.777064	-0.463481
F148	F	0.237494	-0.277064	0.036519
F149	F	-0.948276	-0.899806	-0.513189
F150	F	-0.448276	-0.399806	-0.013189
H151	H	-1.042702	-1.111093	-0.302315
H152	H	-0.542702	-0.611093	0.197685
F153	F	-1.068188	-0.943151	-0.469976
F154	F	-0.568188	-0.443151	0.030024
F155	F	-0.650138	-0.943008	-0.469938
F156	F	-0.150138	-0.443008	0.030062
H157	H	-0.251468	-0.940020	-1.109065
H158	H	0.248532	-0.440020	-0.609065
H159	H	-0.914970	-1.154355	-0.259073
H160	H	-0.414970	-0.654355	0.240927
F161	F	-0.462857	-0.769471	-0.277012
F162	F	0.037143	-0.269471	0.222988
F163	F	-0.469568	-1.142061	-0.796279
F164	F	0.030432	-0.642061	-0.296279
H165	H	-0.427852	-1.103539	-1.115633
H166	H	0.072148	-0.603539	-0.615633
F167	F	-0.753910	-1.165148	-0.248247
F168	F	-0.253910	-0.665148	0.251753
H169	H	-0.274872	-0.961524	-0.646483
H170	H	0.225128	-0.461524	-0.146483
H171	H	-0.451259	-1.125043	-0.653052
H172	H	0.048741	-0.625043	-0.153052
F173	F	-0.777860	-0.899743	-0.513169
F174	F	-0.277860	-0.399743	-0.013169
H175	H	-0.280825	-0.633836	-0.446444
H176	H	0.219175	-0.133836	0.053556
F177	F	-0.633994	-1.121788	-0.291460
F178	F	-0.133994	-0.621788	0.208540
H179	H	-0.280635	-0.966905	-0.780043
H180	H	0.219365	-0.466905	-0.280043
F181	F	-0.433863	-1.109043	-0.973321
F182	F	0.066137	-0.609043	-0.473321
