data_functionalizedCrystal
_audit_creation_method	'MofGen! by Chris Wilmer'
_symmetry_space_group_name_H-M	'P1'
_symmetry_Int_Tables_number	1
_symmetry_cell_setting	triclinic
loop_
_symmetry_equiv_pos_as_xyz
  x,y,z
_cell_length_a	8.559649
_cell_length_b	15.944551
_cell_length_c	7.681481
_cell_angle_alpha	84.256492
_cell_angle_beta	94.913240
_cell_angle_gamma	76.638701
loop_
_atom_site_label
_atom_site_type_symbol
_atom_site_fract_x
_atom_site_fract_y
_atom_site_fract_z
O1	O	2.105021	-0.019570	-0.146399
O2	O	1.639821	0.023810	-0.146411
O3	O	1.885126	-0.120976	-0.146389
O4	O	1.859716	0.125215	-0.146421
O5	O	1.915319	-0.138833	0.146471
O6	O	1.670014	0.005953	0.146450
O7	O	2.135214	-0.037427	0.146461
Zn8	Zn	1.907408	-0.018572	0.192953
Zn9	Zn	1.867627	0.004955	-0.192903
O10	O	1.889909	0.107359	0.146439
C11	C	1.595387	0.018169	0.000018
C12	C	1.418008	0.027954	0.000014
C13	C	1.899168	-0.161130	0.000042
C14	C	1.896006	-0.254172	0.000042
C15	C	1.736394	-0.458726	0.000014
C16	C	1.825398	-0.533331	0.144414
C17	C	1.890284	-0.424528	0.000029
C18	C	1.795667	-0.515712	-0.144323
C19	C	1.884744	-0.589082	0.000008
C20	C	1.979342	-0.497915	0.144548
C21	C	1.949576	-0.480280	-0.144319
C22	C	2.038696	-0.554877	0.000116
C23	C	1.893471	-0.329732	0.000042
C24	C	1.881571	-0.683878	0.000007
C25	C	2.179647	-0.031786	0.000028
C26	C	2.357025	-0.041570	0.000021
C27	C	1.875866	0.147513	0.000005
C28	C	1.879027	0.240556	-0.000008
N29	N	1.934569	-0.034630	0.456290
N30	N	1.840479	0.021005	-0.456240
H31	H	1.608675	-0.417184	0.000155
H32	H	1.744432	0.077792	0.468555
H33	H	1.440515	-0.108579	0.000021
H34	H	1.334507	0.094969	-0.000004
O35	O	2.049378	-0.102308	0.545924
C36	C	2.202998	-0.096228	0.500935
H37	H	2.198764	-0.025977	0.450136
H38	H	2.238856	-0.139353	0.394053
C39	C	2.333284	-0.212510	0.727188
C40	C	2.328087	-0.126226	0.664808
H41	H	2.410448	-0.231018	0.828268
H42	H	2.229787	-0.216610	0.757494
H43	H	2.363161	-0.248438	0.638104
H44	H	2.298191	-0.090299	0.753883
H45	H	2.431582	-0.122122	0.634521
O46	O	1.702985	-0.525637	-0.290095
C47	C	1.639699	-0.444139	-0.391434
H48	H	1.719321	-0.398205	-0.359387
H49	H	1.511872	-0.415978	-0.359535
C50	C	1.537891	-0.511624	-0.627871
C51	C	1.635693	-0.455208	-0.588522
H52	H	1.535412	-0.518451	-0.749444
H53	H	1.580522	-0.566530	-0.559595
H54	H	1.431379	-0.488149	-0.601275
H55	H	1.742206	-0.478689	-0.615097
H56	H	1.593079	-0.400306	-0.656807
O57	O	2.071846	-0.487813	0.290298
C58	C	2.073683	-0.399540	0.288563
H59	H	1.962290	-0.357506	0.202983
H60	H	2.187233	-0.388082	0.232743
C61	C	2.209590	-0.427000	0.582789
C62	C	2.072768	-0.375373	0.477690
H63	H	2.209033	-0.412092	0.699451
H64	H	2.208358	-0.486472	0.583957
H65	H	2.304201	-0.417447	0.536251
H66	H	1.978160	-0.384935	0.524216
H67	H	2.073983	-0.315902	0.476535
O68	O	1.762870	-0.561349	0.289990
C69	C	1.762090	-0.649616	0.288730
H70	H	1.856570	-0.681001	0.203729
H71	H	1.637546	-0.654877	0.232516
C72	C	1.685808	-0.657985	0.582513
C73	C	1.801860	-0.696534	0.478125
H74	H	1.710333	-0.686927	0.699340
H75	H	1.686327	-0.598517	0.583361
H76	H	1.582031	-0.662372	0.535647
H77	H	1.905630	-0.692138	0.524979
H78	H	1.801359	-0.756003	0.477289
O79	O	2.191278	-0.604274	0.000520
C80	C	2.287516	-0.595634	0.152941
H81	H	2.206704	-0.574267	0.258866
H82	H	2.358506	-0.544931	0.119870
C83	C	2.505166	-0.709792	0.090925
C84	C	2.405912	-0.683556	0.221029
H85	H	2.578203	-0.764025	0.132922
H86	H	2.440331	-0.715612	-0.011768
H87	H	2.564308	-0.667533	0.063378
H88	H	2.346757	-0.725810	0.248558
H89	H	2.470740	-0.677746	0.323729
H90	H	2.002022	-0.456903	-0.266401
