data_functionalizedCrystal
_audit_creation_method	'MofGen! by Chris Wilmer'
_symmetry_space_group_name_H-M	'P1'
_symmetry_Int_Tables_number	1
_symmetry_cell_setting	triclinic
loop_
_symmetry_equiv_pos_as_xyz
  x,y,z
_cell_length_a	16.098538
_cell_length_b	10.723024
_cell_length_c	10.723024
_cell_angle_alpha	84.467869
_cell_angle_beta	92.750045
_cell_angle_gamma	87.235657
loop_
_atom_site_label
_atom_site_type_symbol
_atom_site_fract_x
_atom_site_fract_y
_atom_site_fract_z
O1	O	0.069249	-1.662728	-0.169499
O2	O	0.069251	-1.299576	-0.186252
O3	O	0.069247	-1.489528	0.003701
O4	O	0.069253	-1.472775	-0.359451
O5	O	-0.069266	-1.478432	-0.007352
O6	O	-0.069261	-1.288479	-0.197304
O7	O	-0.069264	-1.651631	-0.180551
Zn8	Zn	-0.091255	-1.468293	-0.190682
Zn9	Zn	0.091242	-1.482914	-0.176120
O10	O	-0.069260	-1.461679	-0.370503
C11	C	-0.000005	-1.247528	-0.190559
C12	C	-0.000004	-1.108974	-0.186911
N13	N	-0.215804	-1.458325	-0.200620
C14	C	-0.000009	-1.482761	0.044674
C15	C	-0.000006	-1.479113	0.183229
C16	C	-0.259391	-1.538978	-0.120025
C17	C	-0.346579	-1.532016	-0.126989
C18	C	-0.390180	-1.444406	-0.214554
C19	C	-0.346587	-1.363744	-0.295151
C20	C	-0.259399	-1.370701	-0.288181
C21	C	-0.653429	-1.419187	-0.239801
C22	C	-0.740622	-1.412239	-0.246768
C23	C	-0.740609	-1.580510	-0.078603
C24	C	-0.653420	-1.587464	-0.071645
C25	C	-0.609835	-1.506798	-0.152238
C26	C	-0.479301	-1.437291	-0.221676
C27	C	-0.520715	-1.513908	-0.145109
N28	N	0.215791	-1.492892	-0.166173
C29	C	-0.000006	-1.703679	-0.176244
C30	C	-0.000002	-1.842234	-0.179891
C31	C	-0.000001	-1.033991	-0.293198
C32	C	-0.000000	-0.890788	-0.289431
C33	C	-0.000002	-1.468446	-0.411477
C34	C	0.000000	-1.472094	-0.550031
C35	C	-0.000005	-1.585401	0.258211
C36	C	-0.000002	-1.581634	0.401415
H37	H	-0.223897	-1.610325	-0.048726
F38	F	-0.607019	-1.680709	0.021549
F39	F	-0.787001	-1.666353	0.007168
H40	H	-0.382091	-1.292404	-0.366445
H41	H	0.000001	-1.385328	0.225051
H42	H	-0.514807	-1.365959	-0.292976
H43	H	-0.000005	-1.075813	-0.386985
H44	H	0.000005	-0.826356	-0.380421
H45	H	-0.382067	-1.597690	-0.061362
F46	F	0.000002	-0.926441	-0.060950
F47	F	-0.787020	-1.318987	-0.339974
F48	F	-0.000006	-1.353153	0.365762
H49	H	-0.223912	-1.305023	-0.353808
F50	F	-0.000011	-1.054316	-0.064322
H51	H	-0.000006	-1.672624	0.465847
H52	H	-0.000011	-1.679186	0.216389
H53	H	-0.485214	-1.585236	-0.073809
H54	H	-0.617949	-1.353507	-0.305426
