data_functionalizedCrystal
_audit_creation_method	'MofGen! by Chris Wilmer'
_symmetry_space_group_name_H-M	'P1'
_symmetry_Int_Tables_number	1
_symmetry_cell_setting	triclinic
loop_
_symmetry_equiv_pos_as_xyz
  x,y,z
_cell_length_a	14.971486
_cell_length_b	15.538191
_cell_length_c	13.448316
_cell_angle_alpha	89.995865
_cell_angle_beta	89.998199
_cell_angle_gamma	65.443111
loop_
_atom_site_label
_atom_site_type_symbol
_atom_site_fract_x
_atom_site_fract_y
_atom_site_fract_z
O1	O	1.146981	0.122716	-0.082571
O2	O	0.881795	0.137412	-0.082598
O3	O	1.066009	-0.007007	-0.082584
O4	O	0.962767	0.267135	-0.082585
O5	O	1.065994	-0.007016	0.082800
O6	O	0.881781	0.137403	0.082786
O7	O	1.146967	0.122707	0.082812
Cu8	Cu	1.014372	0.130054	0.097900
Cu9	Cu	1.014389	0.130065	-0.097685
O10	O	0.962753	0.267127	0.082799
C11	C	0.848677	0.136750	0.000091
C12	C	0.750021	0.134781	0.000080
C13	C	0.665165	0.219623	0.000082
C14	C	0.572470	0.217767	0.000096
C15	C	0.564634	0.131067	0.000103
C16	C	0.649500	0.046219	0.000105
C17	C	0.742193	0.048076	0.000097
C18	C	0.456296	0.042354	0.000119
C19	C	0.363597	0.040496	0.000124
C20	C	0.286573	0.212045	0.000118
C21	C	0.379266	0.213902	0.000110
C22	C	0.464126	0.129053	0.000110
C23	C	1.076803	-0.042095	0.000106
C24	C	1.108978	-0.146632	0.000099
C25	C	0.789329	-0.434783	0.000088
C26	C	0.819585	-0.533015	0.000094
C27	C	0.989766	-0.555266	0.000110
C28	C	0.959525	-0.457034	0.000100
C29	C	0.859305	-0.396800	0.000090
C30	C	1.029501	-0.419051	0.000102
C31	C	0.999261	-0.320828	0.000097
C32	C	0.899046	-0.260588	0.000090
C33	C	0.829066	-0.298577	0.000085
C34	C	1.129720	-0.479287	0.000119
C35	C	1.199696	-0.441304	0.000121
C36	C	1.169457	-0.343079	0.000109
C37	C	1.069242	-0.282839	0.000102
C38	C	1.239438	-0.305090	0.000113
C39	C	1.209198	-0.206867	0.000109
C40	C	1.039002	-0.184615	0.000097
C41	C	1.180085	0.123369	0.000122
C42	C	1.278740	0.125339	0.000126
C43	C	0.951958	0.302214	0.000107
C44	C	0.919784	0.406752	0.000107
N45	N	1.014367	0.130046	0.235464
N46	N	1.014404	0.130065	-0.235250
C47	C	1.095947	0.066124	0.287511
C48	C	1.095953	0.066123	0.391614
C49	C	1.014381	0.130050	0.443669
C50	C	0.932793	0.193976	0.391615
C51	C	0.932785	0.193971	0.287514
C52	C	0.932816	0.193982	0.608595
C53	C	0.932824	0.193988	0.712704
C54	C	1.095984	0.066134	0.712695
C55	C	1.095976	0.066130	0.608594
C56	C	1.014389	0.130057	0.556548
H57	H	0.217474	0.281132	0.000122
H58	H	0.866377	0.246035	0.566223
C59	C	0.843097	0.264299	0.769968
H60	H	0.854794	0.255151	0.839420
H61	H	0.786759	0.253963	0.752923
H62	H	0.832392	0.327168	0.752898
C63	C	0.835535	-0.045250	0.000086
H64	H	0.817594	-0.097152	0.000080
H65	H	0.873303	-0.048098	0.057754
H66	H	0.873287	-0.048085	-0.057599
C67	C	0.679089	-0.368516	0.000071
H68	H	0.671107	-0.304579	0.000063
H69	H	0.649068	-0.380039	0.057738
H70	H	0.649089	-0.380038	-0.057615
H71	H	0.525390	-0.026740	0.000120
H72	H	0.747457	-0.249530	0.000070
C73	C	0.928763	-0.118348	0.000080
H74	H	0.920780	-0.054411	0.000071
H75	H	0.898741	-0.129871	0.057747
H76	H	0.898763	-0.129871	-0.057606
H77	H	0.866354	0.246022	0.245139
H78	H	1.281296	-0.490360	0.000132
H79	H	1.321037	-0.354147	0.000131
H80	H	0.874427	-0.180608	0.000092
C81	C	0.640887	-0.049151	0.000111
H82	H	0.704703	-0.099414	0.000118
H83	H	0.606327	-0.053439	-0.057560
H84	H	0.606332	-0.053444	0.057794
H85	H	1.071366	-0.604322	0.000122
H86	H	1.266180	-0.175941	0.000111
H87	H	0.762594	-0.563935	0.000107
H88	H	1.162375	0.014071	0.245134
C89	C	1.162989	-0.587331	0.000127
H90	H	1.232697	-0.617765	0.000147
H91	H	1.138413	-0.605447	-0.057548
H92	H	1.138393	-0.605440	0.057805
C93	C	1.185697	-0.004183	0.448861
H94	H	1.234283	-0.042245	0.402949
H95	H	1.166285	-0.043443	0.489483
H96	H	1.211904	0.029773	0.489457
C97	C	0.354977	-0.054870	0.000138
H98	H	0.418791	-0.105138	0.000150
H99	H	0.320418	-0.059160	-0.057533
H100	H	0.320417	-0.059154	0.057820
C101	C	0.843045	0.264268	0.448868
H102	H	0.794449	0.302323	0.402959
H103	H	0.862443	0.303537	0.489484
H104	H	0.816857	0.230295	0.489472
C105	C	1.185723	-0.004192	0.769942
H106	H	1.174042	0.004956	0.839396
H107	H	1.242061	0.006138	0.752875
H108	H	1.196416	-0.067058	0.752885
H109	H	1.162401	0.014080	0.566211
H110	H	0.503380	0.286854	0.000096
C111	C	0.673776	0.314994	0.000074
H112	H	0.609959	0.365256	0.000086
H113	H	0.708330	0.319290	-0.057602
H114	H	0.708336	0.319280	0.057752
H115	H	0.385640	0.284500	0.000095
