data_functionalizedCrystal
_audit_creation_method	'MofGen! by Chris Wilmer'
_symmetry_space_group_name_H-M	'P1'
_symmetry_Int_Tables_number	1
_symmetry_cell_setting	triclinic
loop_
_symmetry_equiv_pos_as_xyz
  x,y,z
_cell_length_a	14.853566
_cell_length_b	27.731996
_cell_length_c	26.210047
_cell_angle_alpha	90.025731
_cell_angle_beta	90.018015
_cell_angle_gamma	83.127901
loop_
_atom_site_label
_atom_site_type_symbol
_atom_site_fract_x
_atom_site_fract_y
_atom_site_fract_z
O1	O	1.195336	0.063115	0.042402
O2	O	1.695336	0.563115	0.542402
O3	O	0.932752	0.070633	0.042411
O4	O	1.432752	0.570633	0.542411
O5	O	1.072224	-0.003486	0.042396
O6	O	1.572224	0.496514	0.542396
O7	O	1.055864	0.137234	0.042418
O8	O	1.555864	0.637234	0.542418
O9	O	1.072173	-0.003507	-0.042463
O10	O	1.572173	0.496493	0.457537
O11	O	0.932701	0.070612	-0.042447
O12	O	1.432701	0.570612	0.457553
O13	O	1.195286	0.063094	-0.042456
O14	O	1.695286	0.563094	0.457544
Cu15	Cu	1.063989	0.066851	-0.050199
Cu16	Cu	1.563989	0.566851	0.449801
Cu17	Cu	1.064049	0.066876	0.050155
Cu18	Cu	1.564049	0.566876	0.550155
O19	O	1.055814	0.137213	-0.042440
O20	O	1.555814	0.637213	0.457560
C21	C	0.899143	0.070282	-0.000017
C22	C	1.399143	0.570282	0.499983
C23	C	0.799077	0.069262	-0.000014
C24	C	1.299077	0.569262	0.499986
C25	C	0.375991	0.064957	0.046233
C26	C	0.875991	0.564957	0.546233
C27	C	0.375957	0.064934	-0.046283
C28	C	0.875957	0.564934	0.453717
C29	C	0.469975	0.065892	-0.046281
C30	C	0.969975	0.565892	0.453719
C31	C	0.517005	0.066384	-0.000022
C32	C	1.017005	0.566384	0.499978
C33	C	0.470017	0.065916	0.046236
C34	C	0.970017	0.565916	0.546236
C35	C	0.516969	0.066365	-0.092538
C36	C	1.016969	0.566365	0.407462
C37	C	0.610993	0.067324	-0.092538
C38	C	1.110993	0.567324	0.407462
C39	C	0.658026	0.067811	-0.046278
C40	C	1.158026	0.567811	0.453722
C41	C	0.611032	0.067343	-0.000018
C42	C	1.111032	0.567343	0.499982
C43	C	0.658062	0.067835	0.046241
C44	C	1.158062	0.567835	0.546241
C45	C	0.611071	0.067363	0.092501
C46	C	1.111071	0.567363	0.592501
C47	C	0.517050	0.066404	0.092496
C48	C	1.017050	0.566404	0.592496
C49	C	0.752046	0.068771	-0.046273
C50	C	1.252046	0.568771	0.453727
C51	C	0.752088	0.068794	0.046244
C52	C	1.252088	0.568794	0.546244
C53	C	1.071862	-0.021506	-0.000035
C54	C	1.571862	0.478494	0.499965
C55	C	1.070850	-0.075167	-0.000040
C56	C	1.570850	0.424833	0.499960
C57	C	1.064509	-0.407901	0.046241
C58	C	1.564509	0.092099	0.546241
C59	C	1.060665	-0.609578	0.046250
C60	C	1.560665	-0.109578	0.546250
O61	O	1.060153	-0.635641	0.085589
O62	O	1.560153	-0.135641	0.585589
N63	N	1.060160	-0.634808	-0.000006
N64	N	1.560160	-0.134808	0.499994
C65	C	1.060610	-0.609617	-0.046267
C66	C	1.560610	-0.109617	0.453733
O67	O	1.060083	-0.635704	-0.085610
O68	O	1.560083	-0.135704	0.414390
C69	C	1.064448	-0.407941	-0.046276
C70	C	1.564448	0.092059	0.453724
C71	C	1.064962	-0.382713	-0.000017
C72	C	1.564962	0.117287	0.499983
C73	C	1.065022	-0.382674	0.092496
C74	C	1.565022	0.117326	0.592496
C75	C	1.065988	-0.332258	0.092493
C76	C	1.565988	0.167742	0.592493
C77	C	1.066441	-0.307070	0.046235
C78	C	1.566441	0.192930	0.546235
C79	C	1.065928	-0.332298	-0.000020
C80	C	1.565928	0.167702	0.499980
C81	C	1.064891	-0.382749	-0.092536
C82	C	1.564891	0.117251	0.407464
C83	C	1.065849	-0.332327	-0.092534
C84	C	1.565849	0.167673	0.407466
C85	C	1.066363	-0.307100	-0.046276
C86	C	1.566363	0.192900	0.453724
C87	C	1.067346	-0.256694	-0.046280
C88	C	1.567346	0.243306	0.453720
N89	N	1.067851	-0.231463	-0.000024
N90	N	1.567851	0.268537	0.499976
C91	C	1.067399	-0.256651	0.046233
C92	C	1.567399	0.243349	0.546233
C93	C	1.058598	-0.715499	-0.046259
C94	C	1.558598	-0.215499	0.453741
C95	C	1.057640	-0.765918	-0.046257
C96	C	1.557640	-0.265918	0.453743
C97	C	1.057693	-0.765876	0.046260
C98	C	1.557693	-0.265876	0.546260
C99	C	1.058657	-0.715456	0.046257
C100	C	1.558657	-0.215456	0.546257
C101	C	1.059103	-0.690269	-0.000003
C102	C	1.559103	-0.190269	0.499997
C103	C	1.069428	-0.150775	0.046224
C104	C	1.569428	0.349225	0.546224
C105	C	1.070397	-0.100355	0.046217
C106	C	1.570397	0.399645	0.546217
C107	C	1.070339	-0.100401	-0.046300
C108	C	1.570339	0.399599	0.453700
C109	C	1.069374	-0.150817	-0.046293
C110	C	1.569374	0.349183	0.453707
C111	C	1.068916	-0.176002	-0.000027
C112	C	1.568916	0.323998	0.499973
O113	O	1.067849	-0.230599	-0.085599
O114	O	1.567849	0.269401	0.414401
O115	O	1.067906	-0.230554	0.085571
O116	O	1.567906	0.269446	0.585571
C117	C	1.063543	-0.458317	0.046244
C118	C	1.563543	0.041683	0.546244
C119	C	1.063030	-0.483545	-0.000011
C120	C	1.563030	0.016455	0.499989
C121	C	1.063483	-0.458357	-0.046269
C122	C	1.563483	0.041643	0.453731
C123	C	1.062073	-0.533964	-0.000009
C124	C	1.562073	-0.033964	0.499991
C125	C	1.061620	-0.559152	0.046248
C126	C	1.561620	-0.059152	0.546248
C127	C	1.062125	-0.533921	0.092504
C128	C	1.562125	-0.033921	0.592504
C129	C	1.063091	-0.483505	0.092501
C130	C	1.563091	0.016495	0.592501
C131	C	1.062978	-0.483587	-0.092525
C132	C	1.562978	0.016413	0.407475
C133	C	1.062013	-0.534003	-0.092518
C134	C	1.562013	-0.034003	0.407482
C135	C	1.061560	-0.559191	-0.046260
C136	C	1.561560	-0.059191	0.453740
C137	C	1.228894	0.063445	-0.000027
C138	C	1.728894	0.563445	0.499973
C139	C	1.328961	0.064465	-0.000026
C140	C	1.828961	0.564465	0.499974
C141	C	1.056175	0.155233	-0.000008
C142	C	1.556175	0.655233	0.499992
C143	C	1.057187	0.208894	0.000001
C144	C	1.557187	0.708894	0.500001
N145	N	1.063953	0.066834	-0.120783
N146	N	1.563953	0.566834	0.379217
C147	C	1.009779	0.037483	-0.526764
C148	C	1.509779	0.537483	-0.026764
C149	C	1.009740	0.037471	-0.313105
C150	C	1.509740	0.537471	0.186895
O151	O	0.963623	0.012477	-0.285498
O152	O	1.463623	0.512477	0.214502
N153	N	1.063987	0.066840	-0.286367
N154	N	1.563987	0.566840	0.213633
C155	C	1.118253	0.096212	-0.313047
C156	C	1.618253	0.596212	0.186953
O157	O	1.164400	0.121189	-0.285402
O158	O	1.664400	0.621189	0.214598
C159	C	1.118297	0.096222	-0.526705
C160	C	1.618297	0.596222	-0.026705
C161	C	1.064039	0.066854	-0.553440
C162	C	1.564039	0.566854	-0.053440
C163	C	0.955526	0.008117	-0.553499
C164	C	1.455526	0.508117	-0.053499
C165	C	0.955533	0.008123	-0.606911
C166	C	1.455533	0.508123	-0.106911
C167	C	1.009793	0.037494	-0.633587
C168	C	1.509793	0.537494	-0.133587
C169	C	1.064046	0.066860	-0.606851
C170	C	1.564046	0.566860	-0.106851
C171	C	1.172568	0.125591	-0.553383
C172	C	1.672568	0.625591	-0.053383
C173	C	1.172575	0.125590	-0.606801
C174	C	1.672575	0.625590	-0.106801
C175	C	1.118317	0.096222	-0.633537
C176	C	1.618317	0.596222	-0.133537
C177	C	1.118312	0.096236	-0.686939
C178	C	1.618312	0.596236	-0.186939
N179	N	1.064065	0.066866	-0.713677
N180	N	1.564065	0.566866	-0.213677
C181	C	1.009805	0.037495	-0.687001
C182	C	1.509805	0.537495	-0.187001
C183	C	1.118225	0.096206	-0.200874
C184	C	1.618225	0.596206	0.299126
C185	C	1.118213	0.096205	-0.147459
C186	C	1.618213	0.596205	0.352541
C187	C	1.009700	0.037462	-0.147521
C188	C	1.509700	0.537462	0.352479
C189	C	1.009708	0.037467	-0.200937
C190	C	1.509708	0.537467	0.299063
C191	C	1.063977	0.066837	-0.227612
C192	C	1.563977	0.566837	0.272388
C193	C	1.009823	0.037509	-0.799169
C194	C	1.509823	0.537509	-0.299169
C195	C	1.009831	0.037519	-0.852585
C196	C	1.509831	0.537519	-0.352585
C197	C	1.118347	0.096259	-0.852518
C198	C	1.618347	0.596259	-0.352518
C199	C	1.118335	0.096252	-0.799107
C200	C	1.618335	0.596252	-0.299107
C201	C	1.064070	0.066873	-0.772433
C202	C	1.564070	0.566873	-0.272433
O203	O	1.164412	0.121213	-0.714579
O204	O	1.664412	0.621213	-0.214579
O205	O	0.963680	0.012515	-0.714655
O206	O	1.463680	0.512515	-0.214655
C207	C	1.009773	0.037478	-0.473352
C208	C	1.509773	0.537478	0.026648
C209	C	1.064026	0.066843	-0.446617
C210	C	1.564026	0.566843	0.053383
C211	C	1.118285	0.096215	-0.473293
C212	C	1.618285	0.596215	0.026707
C213	C	1.064014	0.066842	-0.393203
C214	C	1.564014	0.566842	0.106797
C215	C	1.009754	0.037471	-0.366527
C216	C	1.509754	0.537471	0.133473
C217	C	0.955506	0.008101	-0.393265
C218	C	1.455506	0.508101	0.106735
C219	C	0.955513	0.008107	-0.446676
C220	C	1.455513	0.508107	0.053324
C221	C	1.172533	0.125584	-0.446555
C222	C	1.672533	0.625584	0.053445
C223	C	1.172521	0.125577	-0.393144
C224	C	1.672521	0.625577	0.106856
C225	C	1.118261	0.096206	-0.366467
C226	C	1.618261	0.596206	0.133533
N227	N	1.064091	0.066890	0.120739
N228	N	1.564091	0.566890	0.620739
H229	H	0.478669	0.065968	-0.130199
H230	H	0.978669	0.565968	0.369801
H231	H	0.790374	0.069193	0.083915
H232	H	1.290374	0.569193	0.583915
H233	H	1.061760	-0.554438	0.130169
H234	H	1.561760	-0.054438	0.630169
H235	H	1.063348	-0.463084	-0.130194
H236	H	1.563348	0.036916	0.369806
H237	H	0.337659	0.064538	-0.083945
H238	H	0.837659	0.564538	0.416055
H239	H	1.162420	0.120124	-0.222588
H240	H	1.662420	0.620124	0.277412
H241	H	1.216752	0.149505	-0.531625
H242	H	1.716752	0.649505	-0.031625
H243	H	0.911354	-0.015793	-0.628674
H244	H	1.411354	0.484207	-0.128674
C245	C	1.231274	0.157531	-0.364095
C246	C	1.731274	0.657531	0.135905
C247	C	1.176151	0.190223	-0.333432
C248	C	1.676151	0.690223	0.166568
C249	C	1.230244	0.219667	-0.306673
C250	C	1.730244	0.719667	0.193327
H251	H	1.273058	0.137818	-0.343219
H252	H	1.773058	0.637818	0.156781
H253	H	1.263568	0.175051	-0.387622
H254	H	1.763568	0.675051	0.112378
H255	H	1.143873	0.172705	-0.309907
H256	H	1.643873	0.672705	0.190093
H257	H	1.134368	0.209947	-0.354294
H258	H	1.634368	0.709947	0.145706
H259	H	1.262538	0.237187	-0.330200
H260	H	1.762538	0.737187	0.169800
H261	H	1.272026	0.199950	-0.285800
H262	H	1.772026	0.699950	0.214200
H263	H	1.192851	0.241855	-0.285868
H264	H	1.692851	0.741855	0.214132
C265	C	0.896532	-0.023688	-0.524480
C266	C	1.396532	0.476312	-0.024480
C267	C	0.835067	0.005564	-0.493813
C268	C	1.335067	0.505564	0.006187
C269	C	0.780700	-0.023717	-0.467074
C270	C	1.280700	0.476283	0.032926
H271	H	0.864143	-0.041180	-0.548004
H272	H	1.364143	0.458820	-0.048004
H273	H	0.933741	-0.045898	-0.503613
H274	H	1.433741	0.454102	-0.003613
H275	H	0.797862	0.027765	-0.514679
H276	H	1.297862	0.527765	-0.014679
H277	H	0.867431	0.023055	-0.470279
H278	H	1.367431	0.523055	0.029721
H279	H	0.817909	-0.045926	-0.446207
H280	H	1.317909	0.454074	0.053793
H281	H	0.748317	-0.041207	-0.490602
H282	H	1.248317	0.458793	0.009398
H283	H	0.738995	-0.003874	-0.446260
H284	H	1.238995	0.496126	0.053740
H285	H	0.649245	0.067706	-0.130206
H286	H	1.149245	0.567706	0.369794
C287	C	1.069024	-0.178246	-0.096503
C288	C	1.569024	0.321754	0.403497
C289	C	1.146071	-0.212575	-0.099211
C290	C	1.646071	0.287425	0.400789
C291	C	1.145782	-0.237841	-0.145461
C292	C	1.645782	0.262159	0.354539
H293	H	1.016116	-0.194304	-0.098480
H294	H	1.516116	0.305696	0.401520
H295	H	1.069489	-0.156038	-0.124064
H296	H	1.569489	0.343962	0.375936
H297	H	1.145598	-0.234780	-0.071658
H298	H	1.645598	0.265220	0.428342
H299	H	1.198991	-0.196530	-0.097243
H300	H	1.698991	0.303470	0.402757
H301	H	1.146247	-0.215633	-0.173023
H302	H	1.646247	0.284367	0.326977
H303	H	1.092871	-0.253896	-0.147435
H304	H	1.592871	0.246104	0.352565
H305	H	1.198061	-0.261133	-0.147307
H306	H	1.698061	0.238867	0.352693
H307	H	0.790301	0.069159	-0.083937
H308	H	1.290301	0.569159	0.416063
H309	H	0.649374	0.067767	0.130165
H310	H	1.149374	0.567767	0.630165
H311	H	1.070712	-0.079884	-0.083961
H312	H	1.570712	0.420116	0.416039
C313	C	1.177332	0.128156	-0.770169
C314	C	1.677332	0.628156	-0.270169
C315	C	1.224864	0.153872	-0.804966
C316	C	1.724864	0.653872	-0.304966
C317	C	1.279236	0.183259	-0.778332
C318	C	1.779236	0.683259	-0.278332
H319	H	1.140168	0.150403	-0.749323
H320	H	1.640168	0.650403	-0.249323
H321	H	1.219153	0.108394	-0.749348
H322	H	1.719153	0.608394	-0.249348
H323	H	1.183048	0.173632	-0.825779
H324	H	1.683048	0.673632	-0.325779
H325	H	1.262045	0.131636	-0.825813
H326	H	1.762045	0.631636	-0.325813
H327	H	1.321056	0.163497	-0.757510
H328	H	1.821056	0.663497	-0.257510
H329	H	1.242065	0.205503	-0.757487
H330	H	1.742065	0.705503	-0.257487
H331	H	1.311499	0.200707	-0.801937
H332	H	1.811499	0.700707	-0.301937
C333	C	1.231526	0.157532	-0.635670
C334	C	1.731526	0.657532	-0.135670
C335	C	1.279018	0.183256	-0.600819
C336	C	1.779018	0.683256	-0.100819
C337	C	1.333320	0.212690	-0.627393
C338	C	1.833320	0.712690	-0.127393
H339	H	1.273374	0.137817	-0.656510
H340	H	1.773374	0.637817	-0.156510
H341	H	1.194289	0.179772	-0.656491
H342	H	1.694289	0.679772	-0.156491
H343	H	1.316251	0.161018	-0.580006
H344	H	1.816251	0.661018	-0.080006
H345	H	1.237192	0.202980	-0.579977
H346	H	1.737192	0.702980	-0.079977
H347	H	1.296083	0.234930	-0.648214
H348	H	1.796083	0.734930	-0.148214
H349	H	1.375163	0.192971	-0.648232
H350	H	1.875163	0.692971	-0.148232
H351	H	1.365543	0.230150	-0.603750
H352	H	1.865543	0.730150	-0.103750
H353	H	1.216720	0.149501	-0.468269
H354	H	1.716720	0.649501	0.031731
C355	C	1.070904	-0.073049	0.096497
C356	C	1.570904	0.426951	0.596497
C357	C	1.070274	-0.105902	0.137006
C358	C	1.570274	0.394098	0.637006
C359	C	1.070727	-0.080766	0.183329
C360	C	1.570727	0.419234	0.683329
H361	H	1.123859	-0.057032	0.098492
H362	H	1.623859	0.442968	0.598492
H363	H	1.018669	-0.049734	0.098450
H364	H	1.518669	0.450266	0.598450
H365	H	1.122504	-0.129208	0.135055
H366	H	1.622504	0.370792	0.635055
H367	H	1.017323	-0.121920	0.135029
H368	H	1.517323	0.378080	0.635029
H369	H	1.018491	-0.057452	0.185282
H370	H	1.518491	0.442548	0.685282
H371	H	1.123682	-0.064750	0.185319
H372	H	1.623682	0.435250	0.685319
H373	H	1.070291	-0.103052	0.210820
H374	H	1.570291	0.396948	0.710820
C375	C	0.465861	0.065920	0.142664
C376	C	0.965861	0.565920	0.642664
C377	C	0.373452	0.064990	0.132759
C378	C	0.873452	0.564990	0.632759
C379	C	0.326264	0.064552	0.178960
C380	C	0.826264	0.564552	0.678960
H381	H	0.488439	0.037923	0.161706
H382	H	0.988439	0.537923	0.661706
H383	H	0.473947	0.094258	0.161679
H384	H	0.973947	0.594258	0.661679
H385	H	0.365372	0.036655	0.113752
H386	H	0.865372	0.536655	0.613752
H387	H	0.350848	0.092984	0.113724
H388	H	0.850848	0.592984	0.613724
H389	H	0.334349	0.092890	0.197975
H390	H	0.834349	0.592890	0.697975
H391	H	0.348849	0.036555	0.197998
H392	H	0.848849	0.536555	0.697998
H393	H	0.263559	0.063925	0.172245
H394	H	0.763559	0.563925	0.672245
C395	C	0.950630	0.005635	-0.118583
C396	C	1.450630	0.505635	0.381417
C397	C	0.859596	0.018885	-0.131579
C398	C	1.359596	0.518885	0.368421
C399	C	0.805161	-0.010420	-0.104925
C400	C	1.305161	0.489580	0.395075
H401	H	0.967743	-0.027435	-0.127327
H402	H	1.467743	0.472565	0.372673
H403	H	0.958332	0.009847	-0.082938
H404	H	1.458332	0.509847	0.417062
H405	H	0.851898	0.014669	-0.167217
H406	H	1.351898	0.514669	0.332783
H407	H	0.842456	0.051951	-0.122834
H408	H	1.342456	0.551951	0.377166
H409	H	0.812863	-0.006208	-0.069280
H410	H	1.312863	0.493792	0.430720
H411	H	0.822281	-0.043489	-0.113672
H412	H	1.322281	0.456511	0.386328
H413	H	0.743388	-0.001431	-0.113736
H414	H	1.243388	0.498569	0.386264
H415	H	0.965644	0.013604	-0.874350
H416	H	1.465644	0.513604	-0.374350
C417	C	1.068743	-0.178131	0.096437
C418	C	1.568743	0.321869	0.596437
C419	C	0.990589	-0.201672	0.099152
C420	C	1.490589	0.298328	0.599152
C421	C	0.989926	-0.226874	0.145401
C422	C	1.489926	0.273126	0.645401
H423	H	1.120897	-0.201488	0.098409
H424	H	1.620897	0.298512	0.598409
H425	H	1.069138	-0.155895	0.123999
H426	H	1.569138	0.344105	0.623999
H427	H	0.990203	-0.223906	0.071597
H428	H	1.490203	0.276094	0.571597
H429	H	0.938422	-0.178326	0.097189
H430	H	1.438422	0.321674	0.597189
H431	H	0.990320	-0.204638	0.172963
H432	H	1.490320	0.295362	0.672963
H433	H	1.042083	-0.250229	0.147369
H434	H	1.542083	0.249771	0.647369
H435	H	0.936895	-0.242846	0.147251
H436	H	1.436895	0.257154	0.647251
H437	H	0.965526	0.013553	-0.222701
H438	H	1.465526	0.513553	0.277299
C439	C	1.064481	-0.410174	-0.142741
C440	C	1.564481	0.089826	0.357259
C441	C	1.141512	-0.444513	-0.145475
C442	C	1.641512	0.055487	0.354525
C443	C	1.141154	-0.469782	-0.191720
C444	C	1.641154	0.030218	0.308280
H445	H	1.011562	-0.426225	-0.144694
H446	H	1.511562	0.073775	0.355306
H447	H	1.064922	-0.387969	-0.170307
H448	H	1.564922	0.112031	0.329693
H449	H	1.141063	-0.466714	-0.117916
H450	H	1.641063	0.033286	0.382084
H451	H	1.194443	-0.428475	-0.143530
H452	H	1.694443	0.071525	0.356470
H453	H	1.141595	-0.447577	-0.219285
H454	H	1.641595	0.052423	0.280715
H455	H	1.088232	-0.485830	-0.193668
H456	H	1.588232	0.014170	0.306332
H457	H	1.193422	-0.493080	-0.193582
H458	H	1.693422	0.006920	0.306418
H459	H	1.162384	0.120125	-0.125696
H460	H	1.662384	0.620125	0.374304
C461	C	1.063773	-0.456088	0.142702
C462	C	1.563773	0.043912	0.642702
C463	C	1.141902	-0.432522	0.145429
C464	C	1.641902	0.067478	0.645429
C465	C	1.142540	-0.407261	0.191668
C466	C	1.642540	0.092739	0.691668
H467	H	1.011601	-0.432740	0.144648
H468	H	1.511601	0.067260	0.644648
H469	H	1.063395	-0.478291	0.170274
H470	H	1.563395	0.021709	0.670274
H471	H	1.142270	-0.410321	0.117865
H472	H	1.642270	0.089679	0.617865
H473	H	1.194086	-0.455859	0.143492
H474	H	1.694086	0.044141	0.643492
H475	H	1.142162	-0.429464	0.219239
H476	H	1.642162	0.070536	0.719239
H477	H	1.090365	-0.383916	0.193610
H478	H	1.590365	0.116084	0.693610
H479	H	1.195553	-0.391273	0.193526
H480	H	1.695553	0.108727	0.693526
H481	H	1.162522	0.120173	-0.874248
H482	H	1.662522	0.620173	-0.374248
C483	C	0.896688	-0.023770	-0.364203
C484	C	1.396688	0.476230	0.135797
C485	C	0.908318	-0.017492	-0.311705
C486	C	1.408318	0.482508	0.188295
C487	C	0.854164	-0.046849	-0.284915
C488	C	1.354164	0.453151	0.215085
H489	H	0.834846	-0.014879	-0.372902
H490	H	1.334846	0.485121	0.127098
H491	H	0.913921	-0.056839	-0.372939
H492	H	1.413921	0.443161	0.127061
H493	H	0.891080	0.015569	-0.302973
H494	H	1.391080	0.515569	0.197027
H495	H	0.970149	-0.026387	-0.302991
H496	H	1.470149	0.473613	0.197009
H497	H	0.871397	-0.079917	-0.293651
H498	H	1.371397	0.420083	0.206349
H499	H	0.792325	-0.037954	-0.293618
H500	H	1.292325	0.462046	0.206382
H501	H	0.862054	-0.042596	-0.249292
H502	H	1.362054	0.457404	0.250708
C503	C	1.059160	-0.688152	0.096535
C504	C	1.559160	-0.188152	0.596535
C505	C	1.058539	-0.721007	0.137042
C506	C	1.558539	-0.221007	0.637042
C507	C	1.058987	-0.695874	0.183366
C508	C	1.558987	-0.195874	0.683366
H509	H	1.112110	-0.672131	0.098530
H510	H	1.612110	-0.172131	0.598530
H511	H	1.006920	-0.664841	0.098489
H512	H	1.506920	-0.164841	0.598489
H513	H	1.110774	-0.744310	0.135088
H514	H	1.610774	-0.244310	0.635088
H515	H	1.005592	-0.737029	0.135063
H516	H	1.505592	-0.237029	0.635063
H517	H	1.006746	-0.672563	0.185321
H518	H	1.506746	-0.172563	0.685321
H519	H	1.111938	-0.679854	0.185356
H520	H	1.611938	-0.179854	0.685356
H521	H	1.058557	-0.718162	0.210856
H522	H	1.558557	-0.218162	0.710856
H523	H	0.911330	-0.015808	-0.468439
H524	H	1.411330	0.484192	0.031561
H525	H	1.066403	-0.311722	0.130162
H526	H	1.566403	0.188278	0.630162
H527	H	0.337727	0.064571	0.083897
H528	H	0.837727	0.564571	0.583897
C529	C	1.061264	-0.561347	-0.142764
C530	C	1.561264	-0.061347	0.357236
C531	C	0.983874	-0.543700	-0.170652
C532	C	1.483874	-0.043700	0.329348
C533	C	0.983135	-0.568876	-0.216938
C534	C	1.483135	-0.068876	0.283062
H535	H	1.113936	-0.556762	-0.161838
H536	H	1.613936	-0.056762	0.338162
H537	H	1.060571	-0.594984	-0.136169
H538	H	1.560571	-0.094984	0.363831
H539	H	0.984575	-0.510070	-0.177249
H540	H	1.484575	-0.010070	0.322751
H541	H	0.931189	-0.548285	-0.151595
H542	H	1.431189	-0.048285	0.348405
H543	H	0.982442	-0.602514	-0.210342
H544	H	1.482442	-0.102514	0.289658
H545	H	1.035811	-0.564290	-0.236006
H546	H	1.535811	-0.064290	0.263994
H547	H	0.930623	-0.556910	-0.235863
H548	H	1.430623	-0.056910	0.264137
H549	H	0.965635	0.013586	-0.777457
H550	H	1.465635	0.513586	-0.277457
H551	H	1.064650	-0.403176	0.130166
H552	H	1.564650	0.096824	0.630166
C553	C	1.057007	-0.793241	0.096468
C554	C	1.557007	-0.293241	0.596468
C555	C	0.978853	-0.816784	0.099169
C556	C	1.478853	-0.316784	0.599169
C557	C	0.978176	-0.841994	0.145413
C558	C	1.478176	-0.341994	0.645413
H559	H	1.109161	-0.816598	0.098441
H560	H	1.609161	-0.316598	0.598441
H561	H	1.057391	-0.771010	0.124035
H562	H	1.557391	-0.271010	0.624035
H563	H	0.978477	-0.839013	0.071609
H564	H	1.478477	-0.339013	0.571609
H565	H	0.926686	-0.793438	0.097205
H566	H	1.426686	-0.293438	0.597205
H567	H	0.978561	-0.819763	0.172979
H568	H	1.478561	-0.319763	0.672979
H569	H	1.030334	-0.865348	0.147381
H570	H	1.530334	-0.365348	0.647381
H571	H	0.925147	-0.857967	0.147253
H572	H	1.425147	-0.357967	0.647253
H573	H	1.058965	-0.694996	-0.083933
H574	H	1.558965	-0.194996	0.416067
C575	C	1.057048	-0.793215	-0.096535
C576	C	1.557048	-0.293215	0.403465
C577	C	1.057624	-0.760357	-0.137042
C578	C	1.557624	-0.260357	0.362958
C579	C	1.057061	-0.785482	-0.183367
C580	C	1.557061	-0.285482	0.316633
H581	H	1.109250	-0.816538	-0.098535
H582	H	1.609250	-0.316538	0.401465
H583	H	1.004059	-0.809219	-0.098484
H584	H	1.504059	-0.309219	0.401516
H585	H	1.110607	-0.744361	-0.135094
H586	H	1.610607	-0.244361	0.364906
H587	H	1.005427	-0.737033	-0.135059
H588	H	1.505427	-0.237033	0.364941
H589	H	1.004073	-0.801485	-0.185316
H590	H	1.504073	-0.301485	0.314684
H591	H	1.109264	-0.808804	-0.185362
H592	H	1.609264	-0.308804	0.314638
H593	H	1.057444	-0.763191	-0.210856
H594	H	1.557444	-0.263191	0.289144
C595	C	1.066366	-0.305071	-0.142816
C596	C	1.566366	0.194929	0.357184
C597	C	1.065727	-0.337961	-0.183322
C598	C	1.565727	0.162039	0.316678
C599	C	1.066211	-0.312872	-0.229647
C600	C	1.566211	0.187128	0.270353
H601	H	1.014159	-0.281750	-0.144806
H602	H	1.514159	0.218250	0.355194
H603	H	1.119350	-0.289067	-0.144778
H604	H	1.619350	0.210933	0.355222
H605	H	1.012748	-0.353956	-0.181361
H606	H	1.512748	0.146044	0.318639
H607	H	1.117929	-0.361282	-0.181349
H608	H	1.617929	0.138718	0.318651
H609	H	1.119195	-0.296868	-0.231609
H610	H	1.619195	0.203132	0.268391
H611	H	1.014003	-0.289552	-0.231632
H612	H	1.514003	0.210448	0.268368
H613	H	1.065786	-0.335184	-0.257136
H614	H	1.565786	0.164816	0.242864
