data_functionalizedCrystal
_audit_creation_method	'MofGen! by Chris Wilmer'
_symmetry_space_group_name_H-M	'P1'
_symmetry_Int_Tables_number	1
_symmetry_cell_setting	triclinic
loop_
_symmetry_equiv_pos_as_xyz
  x,y,z
_cell_length_a	9.065218
_cell_length_b	17.699083
_cell_length_c	7.540329
_cell_angle_alpha	89.995522
_cell_angle_beta	89.996962
_cell_angle_gamma	84.149450
loop_
_atom_site_label
_atom_site_type_symbol
_atom_site_fract_x
_atom_site_fract_y
_atom_site_fract_z
O1	O	1.957110	0.110973	-0.147491
O2	O	1.527555	0.120075	-0.147494
O3	O	1.754468	0.005430	-0.147477
O4	O	1.730196	0.225619	-0.147508
O5	O	1.754455	0.005428	0.147488
O6	O	1.527542	0.120074	0.147471
O7	O	1.957096	0.110971	0.147474
Cu8	Cu	1.742318	0.115522	0.174405
Cu9	Cu	1.742334	0.115524	-0.174425
O10	O	1.730183	0.225617	0.147457
C11	C	1.472588	0.119200	-0.000012
C12	C	1.308822	0.116584	-0.000012
C13	C	1.753592	-0.022775	0.000006
C14	C	1.750983	-0.106813	0.000007
C15	C	1.884176	-0.154396	0.000010
C16	C	1.881716	-0.233358	-0.000006
C17	C	1.746060	-0.264737	-0.000012
C18	C	1.612857	-0.217149	-0.000021
C19	C	1.615319	-0.138188	-0.000018
C20	C	1.602925	-0.535589	-0.000035
C21	C	1.600474	-0.614556	-0.000033
C22	C	1.869322	-0.630760	-0.000023
C23	C	1.871784	-0.551799	-0.000020
C24	C	1.738581	-0.504217	-0.000038
C25	C	1.741251	-0.418597	-0.000025
C26	C	1.743390	-0.350355	-0.000013
C27	C	2.012064	0.111847	-0.000012
C28	C	2.175829	0.114463	-0.000023
C29	C	1.731059	0.253822	-0.000030
C30	C	1.733669	0.337860	-0.000042
N31	N	1.742317	0.115521	0.419754
N32	N	1.742346	0.115520	-0.419774
H33	H	1.994642	-0.128854	0.000026
H34	H	1.982248	-0.526255	-0.000006
H35	H	1.977782	-0.669510	-0.000018
H36	H	1.494463	-0.496857	-0.000050
C37	C	1.441762	-0.693957	-0.151684
C38	C	1.451353	-0.649051	-0.000057
H39	H	1.349710	-0.715257	-0.151689
H40	H	1.448313	-0.663487	-0.254525
H41	H	1.520750	-0.733592	-0.151650
H42	H	1.372371	-0.609413	-0.000098
H43	H	1.444787	-0.679523	0.102811
C44	C	2.110140	-0.271464	-0.151606
C45	C	2.028132	-0.285656	0.000008
H46	H	2.200541	-0.303747	-0.151589
H47	H	2.054520	-0.281077	-0.254455
H48	H	2.130998	-0.219943	-0.151578
H49	H	2.007266	-0.337175	-0.000026
H50	H	2.083765	-0.276048	0.102884
C51	C	1.489703	-0.330993	-0.000010
C52	C	1.463740	-0.251638	-0.000022
H53	H	1.397640	-0.352283	0.000006
H54	H	1.544525	-0.347257	-0.102864
H55	H	1.544532	-0.347258	0.102858
H56	H	1.408920	-0.235373	-0.102897
H57	H	1.408895	-0.235368	0.102844
C58	C	1.349318	-0.130097	-0.000016
C59	C	1.468908	-0.085882	-0.000017
H60	H	1.258930	-0.097804	-0.000012
H61	H	1.353957	-0.161227	-0.102869
H62	H	1.353952	-0.161236	0.102854
H63	H	1.464281	-0.054747	-0.102894
H64	H	1.464267	-0.054738	0.102847
