data_functionalizedCrystal
_audit_creation_method	'MofGen! by Chris Wilmer'
_symmetry_space_group_name_H-M	'P1'
_symmetry_Int_Tables_number	1
_symmetry_cell_setting	triclinic
loop_
_symmetry_equiv_pos_as_xyz
  x,y,z
_cell_length_a	29.917948
_cell_length_b	29.917021
_cell_length_c	29.913391
_cell_angle_alpha	60.005297
_cell_angle_beta	60.010472
_cell_angle_gamma	59.993667
loop_
_atom_site_label
_atom_site_type_symbol
_atom_site_fract_x
_atom_site_fract_y
_atom_site_fract_z
O1	O	0.061938	-0.653075	0.546110
O2	O	0.023328	-0.508466	0.440017
O3	O	0.114898	-0.599963	0.439941
O4	O	-0.029633	-0.561578	0.546186
O5	O	0.145278	-0.569587	0.470242
O6	O	0.053708	-0.478090	0.470318
O7	O	0.092318	-0.622699	0.576411
Zn8	Zn	0.077836	-0.545572	0.528175
Zn9	Zn	0.037809	-0.585593	0.488253
O10	O	0.000747	-0.531202	0.576487
N11	N	0.105154	-0.518262	0.555424
N12	N	0.010496	-0.612908	0.461004
C13	C	0.164136	-0.309209	0.614352
C14	C	0.164251	-0.459335	0.764424
C15	C	0.164150	-0.459313	0.614341
C16	C	0.314282	-0.459305	0.614278
C17	C	0.180666	-0.358742	0.630849
C18	C	0.180732	-0.442815	0.714891
C19	C	0.264747	-0.442797	0.630809
C20	C	0.180676	-0.442802	0.630843
C21	C	0.143097	-0.246161	0.593354
C22	C	0.143120	-0.480326	0.593337
C23	C	0.201706	-0.421790	0.651848
C24	C	0.405963	-0.443499	0.565998
C25	C	0.463273	-0.462598	0.546874
C26	C	0.463297	-0.555329	0.582235
C27	C	0.405988	-0.536228	0.601360
C28	C	0.156905	-0.217495	0.537012
C29	C	0.137776	-0.160180	0.517926
C30	C	0.091035	-0.160201	0.611524
C31	C	0.110164	-0.217516	0.630611
C32	C	0.086772	-0.466488	0.607209
C33	C	0.067659	-0.485590	0.588108
C34	C	0.161236	-0.532368	0.541277
C35	C	0.180352	-0.513266	0.560371
C36	C	0.086942	-0.466529	0.856152
C37	C	0.067877	-0.485647	0.913465
C38	C	0.161489	-0.532436	0.913415
C39	C	0.180552	-0.513318	0.856101
C40	C	0.143277	-0.480363	0.827471
C41	C	0.377323	-0.480313	0.593239
C42	C	-0.111377	-0.650681	0.422736
C43	C	-0.027364	-0.650787	0.422929
C44	C	-0.048335	-0.671770	0.401835
C45	C	-0.064214	-0.763416	0.450041
C46	C	-0.045160	-0.820731	0.469172
C47	C	0.047573	-0.820841	0.433980
C48	C	0.028517	-0.763527	0.414847
C49	C	-0.140115	-0.664483	0.479060
C50	C	-0.197425	-0.645309	0.498058
C51	C	-0.197256	-0.598535	0.404405
C52	C	-0.139946	-0.617709	0.385407
C53	C	-0.041168	-0.594444	0.409067
C54	C	-0.022104	-0.575374	0.428250
C55	C	0.024568	-0.668986	0.475143
C56	C	0.005504	-0.688059	0.455967
C57	C	-0.041000	-0.594453	0.310105
C58	C	-0.021803	-0.575386	0.252792
C59	C	0.024951	-0.669004	0.252854
C60	C	0.005755	-0.688070	0.310168
C61	C	-0.027222	-0.650793	0.338792
C62	C	-0.027377	-0.734817	0.422881
N63	N	0.491125	-0.518235	0.555255
O64	O	0.678406	-0.527360	0.420422
O65	O	0.678588	-0.633782	0.564887
O66	O	0.678516	-0.633539	0.473265
O67	O	0.678478	-0.527602	0.512044
O68	O	0.587469	-0.603251	0.503685
O69	O	0.587541	-0.603493	0.595307
O70	O	0.587359	-0.497071	0.450842
Zn71	Zn	0.572994	-0.545473	0.527905
Zn72	Zn	0.692953	-0.585380	0.487825
O73	O	0.587431	-0.497313	0.542465
N74	N	0.774821	-0.612618	0.460470
N75	N	0.105125	-0.132348	0.555445
O76	O	-0.029633	0.055031	0.546198
O77	O	0.114837	0.055047	0.439777
O78	O	0.023189	0.055024	0.440050
O79	O	0.062016	0.055054	0.545925
O80	O	0.053572	-0.036031	0.470398
O81	O	0.145220	-0.036008	0.470125
O82	O	0.000750	-0.036024	0.576546
Zn83	Zn	0.077809	-0.050473	0.528154
Zn84	Zn	0.037778	0.069496	0.488169
O85	O	0.092399	-0.036001	0.576273
N86	N	0.010456	0.151371	0.460879
N87	N	0.105414	-0.518315	0.941279
O88	O	0.096182	-0.653057	1.128644
O89	O	-0.010215	-0.508539	1.128670
O90	O	-0.009968	-0.600172	1.128636
O91	O	0.095935	-0.561424	1.128678
O92	O	0.020367	-0.569808	1.037586
O93	O	0.020121	-0.478175	1.037620
O94	O	0.126517	-0.622693	1.037594
Zn95	Zn	0.078135	-0.545613	1.023151
Zn96	Zn	0.038167	-0.585619	1.143113
O97	O	0.126270	-0.531061	1.037628
N98	N	0.010887	-0.612923	1.224985
C99	C	0.034899	-0.475056	0.440551
C100	C	0.148298	-0.588365	0.440456
C101	C	0.080746	-0.656109	0.575876
C102	C	-0.032653	-0.542801	0.575971
C103	C	0.633086	-0.633292	0.598298
C104	C	0.632998	-0.632993	0.484834
C105	C	0.632857	-0.497559	0.417433
C106	C	0.632949	-0.497860	0.530895
C107	C	0.148191	0.009634	0.440259
C108	C	0.034733	0.009493	0.440634
C109	C	-0.032641	0.009502	0.576027
C110	C	0.080854	0.009529	0.575690
C111	C	-0.009699	-0.475150	1.083148
C112	C	-0.009388	-0.588620	1.083088
C113	C	0.126001	-0.656082	1.083116
C114	C	0.125697	-0.542605	1.083155
H115	H	0.022003	-0.474373	0.936811
O116	O	0.090869	0.009504	0.615324
C117	C	0.155929	0.009537	0.640332
C118	C	0.144662	0.009557	0.595401
H119	H	0.199415	0.009592	0.624237
H120	H	0.151091	-0.028583	0.677696
H121	H	0.125599	0.047630	0.652317
H122	H	0.174982	-0.028510	0.583369
H123	H	0.149481	0.047702	0.558066
O124	O	0.633008	-0.458224	0.540832
C125	C	0.680204	-0.432059	0.564866
C126	C	0.680199	-0.476997	0.553639
H127	H	0.718360	-0.447216	0.575212
H128	H	0.642148	-0.421864	0.600747
H129	H	0.680123	-0.393808	0.526908
H130	H	0.680299	-0.515276	0.591565
H131	H	0.718251	-0.487145	0.517737
O132	O	-0.035104	-0.520659	0.224905
C133	C	-0.002088	-0.444841	0.160222
C134	C	0.013051	-0.506822	0.191782
H135	H	0.036836	-0.433637	0.133426
H136	H	-0.028930	-0.421447	0.190502
H137	H	-0.025384	-0.433559	0.133345
H138	H	0.036367	-0.518155	0.218660
H139	H	0.039868	-0.530183	0.161472
H140	H	-0.043102	-0.433644	1.083156
H141	H	-0.067926	-0.564092	0.382165
H142	H	0.159407	-0.697586	1.083101
O143	O	0.633111	-0.672747	0.474932
C144	C	0.680316	-0.763914	0.469795
C145	C	0.680263	-0.718935	0.481010
H146	H	0.718428	-0.801272	0.474716
H147	H	0.680306	-0.747899	0.426294
H148	H	0.642224	-0.775880	0.500113
H149	H	0.718349	-0.706949	0.450727
H150	H	0.680244	-0.734975	0.524525
O151	O	-0.082196	-0.532946	0.615724
C152	C	-0.172359	-0.468088	0.641028
C153	C	-0.116273	-0.479172	0.595964
H154	H	-0.199929	-0.424618	0.625064
H155	H	-0.166653	-0.472987	0.678362
H156	H	-0.192029	-0.498476	0.653011
H157	H	-0.096572	-0.448795	0.583934
H158	H	-0.122014	-0.474293	0.558660
H159	H	0.088995	-0.697649	0.609197
H160	H	0.632798	-0.464146	0.375944
O161	O	0.633244	-0.673167	0.647771
C162	C	0.680480	-0.731004	0.713676
C163	C	0.680377	-0.685855	0.657632
H164	H	0.718577	-0.741268	0.721672
H165	H	0.680540	-0.769181	0.713757
H166	H	0.642373	-0.715959	0.747111
H167	H	0.718477	-0.700848	0.624166
H168	H	0.680289	-0.647688	0.657599
O169	O	0.165444	-0.532818	1.083185
C170	C	0.257701	-0.568634	1.083148
C171	C	0.212732	-0.579796	1.083128
H172	H	0.295948	-0.606604	1.083090
H173	H	0.242573	-0.558237	1.121267
H174	H	0.267885	-0.532776	1.045058
H175	H	0.202528	-0.615661	1.121192
H176	H	0.227884	-0.590160	1.044983
H177	H	0.189596	0.009891	0.406765
H178	H	0.026418	0.009490	0.407371
H179	H	-0.074131	0.009496	0.609437
O180	O	-0.048996	-0.598571	1.083003
C181	C	-0.074019	-0.663594	1.082937
C182	C	-0.029110	-0.652394	1.083021
H183	H	-0.057962	-0.707112	1.082963
H184	H	-0.085958	-0.633304	1.044810
H185	H	-0.111402	-0.658665	1.121019
H186	H	0.008302	-0.657330	1.044965
H187	H	-0.017217	-0.682681	1.121173
O188	O	0.025104	-0.425547	0.400729
C189	C	0.020018	-0.376534	0.309541
C190	C	0.031137	-0.432638	0.354587
H191	H	0.024881	-0.382246	0.272228
H192	H	0.050363	-0.356795	0.297514
H193	H	-0.023466	-0.349018	0.325551
H194	H	0.074605	-0.460196	0.338615
H195	H	0.000758	-0.452333	0.366608
O196	O	0.197857	-0.598204	0.400719
C197	C	0.287997	-0.663084	0.375392
C198	C	0.231901	-0.652010	0.420447
H199	H	0.315533	-0.706589	0.391322
H200	H	0.307731	-0.632755	0.363422
H201	H	0.282240	-0.658114	0.338059
H202	H	0.237610	-0.656987	0.457811
H203	H	0.212186	-0.682336	0.432371
H204	H	0.056584	-0.439691	0.832846
H205	H	0.191844	-0.559260	0.936723
H206	H	0.226428	-0.524588	0.832752
H207	H	0.056452	-0.439666	0.634048
H208	H	0.191560	-0.559196	0.514439
O209	O	0.012918	-0.472220	0.601675
C210	C	-0.072884	-0.476598	0.674369
C211	C	-0.010898	-0.491783	0.659080
H212	H	-0.092159	-0.492397	0.720782
H213	H	-0.080178	-0.495925	0.655094
H214	H	-0.092212	-0.430189	0.658545
H215	H	0.008471	-0.538184	0.674901
H216	H	-0.003643	-0.472417	0.678347
O217	O	0.235106	-0.526769	0.546859
C218	C	0.325908	-0.575136	0.498344
C219	C	0.263914	-0.559899	0.513620
H220	H	0.349217	-0.601914	0.471459
H221	H	0.337262	-0.598510	0.537198
H222	H	0.337138	-0.536225	0.475035
H223	H	0.252639	-0.598782	0.536916
H224	H	0.252593	-0.536504	0.474746
O225	O	-0.080935	-0.848512	0.495489
C226	C	-0.107212	-0.913155	0.496387
C227	C	-0.066649	-0.881734	0.466511
H228	H	-0.095670	-0.940031	0.472977
H229	H	-0.150429	-0.882783	0.498816
H230	H	-0.105546	-0.939943	0.539513
H231	H	-0.068267	-0.854946	0.423371
H232	H	-0.023450	-0.912136	0.464126
H233	H	0.382671	-0.566208	0.623544
H234	H	-0.033345	-0.529494	0.416965
H235	H	0.486634	-0.600858	0.588843
H236	H	0.486593	-0.432619	0.524694
H237	H	0.183721	-0.240813	0.506671
O238	O	0.378176	-0.389159	0.558016
C239	C	0.360573	-0.298024	0.492472
C240	C	0.392082	-0.359545	0.501436
H241	H	0.371795	-0.274064	0.446729
H242	H	0.371866	-0.283758	0.513211
H243	H	0.314694	-0.290710	0.510844
H244	H	0.437967	-0.366905	0.483062
H245	H	0.380743	-0.373780	0.480709
O246	O	0.151162	-0.132388	0.463181
C247	C	0.146703	-0.114810	0.377365
C248	C	0.131523	-0.146325	0.439353
H249	H	0.130822	-0.126058	0.358083
H250	H	0.193105	-0.126077	0.357990
H251	H	0.127389	-0.068928	0.370137
H252	H	0.150800	-0.192214	0.446629
H253	H	0.085117	-0.135013	0.458696
O254	O	0.059114	-0.132435	0.647769
C255	C	0.051860	-0.114890	0.721885
C256	C	0.088064	-0.146375	0.680875
H257	H	0.075256	-0.126140	0.748654
H258	H	0.012989	-0.126182	0.748776
H259	H	0.040542	-0.069003	0.698556
H260	H	0.099424	-0.192268	0.704159
H261	H	0.126910	-0.135038	0.653985
O262	O	0.096816	-0.245445	0.685323
C263	C	0.105667	-0.333750	0.756214
C264	C	0.120796	-0.302187	0.694236
H265	H	0.125057	-0.379631	0.763439
H266	H	0.059272	-0.322552	0.775614
H267	H	0.121503	-0.322427	0.775474
H268	H	0.104996	-0.313493	0.674929
H269	H	0.167193	-0.313388	0.674876
O270	O	-0.073000	-0.558165	0.337825
C271	C	-0.117356	-0.463295	0.331714
C272	C	-0.081110	-0.504327	0.300253
H273	H	-0.123934	-0.419759	0.301351
H274	H	-0.096410	-0.469885	0.358594
H275	H	-0.158592	-0.469871	0.358496
H276	H	-0.039868	-0.497777	0.273442
H277	H	-0.102098	-0.497728	0.273408
H278	H	0.051792	-0.699362	0.229554
H279	H	0.051334	-0.699339	0.502037
O280	O	0.019170	-0.742821	0.337949
C281	C	0.067591	-0.833664	0.331958
C282	C	0.052431	-0.771676	0.300430
H283	H	0.094494	-0.857012	0.301638
H284	H	0.028693	-0.844921	0.358704
H285	H	0.090842	-0.844949	0.358879
H286	H	0.029193	-0.760346	0.273480
H287	H	0.091349	-0.760452	0.273719
H288	H	0.058518	-0.740243	0.392731
O289	O	0.018983	-0.742809	0.469458
C290	C	0.067262	-0.833652	0.518018
C291	C	0.052046	-0.771664	0.502773
H292	H	0.093986	-0.856999	0.544965
H293	H	0.090682	-0.844989	0.479155
H294	H	0.028343	-0.844858	0.541252
H295	H	0.090936	-0.760414	0.479552
H296	H	0.028605	-0.760360	0.541656
H297	H	-0.109727	-0.740044	0.456586
O298	O	0.101890	-0.848650	0.426113
C299	C	0.191855	-0.842715	0.389215
C300	C	0.130359	-0.811155	0.398078
H301	H	0.214889	-0.812414	0.366559
H302	H	0.208049	-0.869542	0.363984
H303	H	0.198147	-0.869561	0.430581
H304	H	0.124019	-0.784280	0.356738
H305	H	0.114194	-0.784363	0.423335
H306	H	-0.116855	-0.691337	0.509456
O307	O	-0.225260	-0.658790	0.552793
C308	C	-0.219382	-0.707190	0.643681
C309	C	-0.187793	-0.691970	0.581711
H310	H	-0.189104	-0.734009	0.667080
H311	H	-0.246205	-0.730515	0.654923
H312	H	-0.246230	-0.668274	0.654918
H313	H	-0.160915	-0.730858	0.570431
H314	H	-0.161005	-0.668624	0.570503
O315	O	-0.224926	-0.566498	0.368072
C316	C	-0.218713	-0.522172	0.273175
C317	C	-0.187310	-0.558448	0.314262
H318	H	-0.188314	-0.515662	0.229661
H319	H	-0.245516	-0.480903	0.279698
H320	H	-0.245565	-0.543132	0.279755
H321	H	-0.160429	-0.537537	0.307707
H322	H	-0.160542	-0.599716	0.307729
H323	H	-0.116547	-0.606465	0.339541
