data_functionalizedCrystal
_audit_creation_method	'MofGen! by Chris Wilmer'
_symmetry_space_group_name_H-M	'P1'
_symmetry_Int_Tables_number	1
_symmetry_cell_setting	triclinic
loop_
_symmetry_equiv_pos_as_xyz
  x,y,z
_cell_length_a	6.817900
_cell_length_b	9.582860
_cell_length_c	14.125465
_cell_angle_alpha	93.994443
_cell_angle_beta	100.398878
_cell_angle_gamma	111.206767
loop_
_atom_site_label
_atom_site_type_symbol
_atom_site_fract_x
_atom_site_fract_y
_atom_site_fract_z
V1	V	-4.031033	-0.205771	-0.299801
O2	O	-3.977344	0.011211	-0.294276
O3	O	-4.022070	-0.409281	-0.297576
O4	O	-3.966452	-0.202025	-0.430634
O5	O	-4.033347	-0.197480	-0.160296
V6	V	-4.511648	-0.179886	-0.283136
O7	O	-4.298671	-0.262552	-0.336357
O8	O	-4.694207	-0.123105	-0.246581
O9	O	-4.297405	0.023625	-0.285361
O10	O	-4.682733	-0.396868	-0.288662
O11	O	-4.626731	-0.188177	-0.422641
O12	O	-4.353022	-0.183632	-0.152303
C13	C	-3.877188	-0.458911	-0.292802
C14	C	-3.951038	-0.625279	-0.291855
C15	C	-3.806241	-0.194533	-0.462529
C16	C	-3.834984	-0.192817	-0.569485
C17	C	-3.887667	-0.189671	-0.765311
C18	C	-4.074382	-0.195983	-0.817627
C19	C	-4.103698	-0.194232	-0.926591
C20	C	-3.858343	-0.191422	-0.656337
C21	C	-4.105631	0.073246	-0.290133
C22	C	-4.011018	0.239613	-0.291087
C23	C	-4.176577	-0.191128	-0.120403
C24	C	-4.127071	-0.192837	-0.013447
H25	H	-4.212226	-0.202717	-0.780583
O26	O	-3.723492	-0.181740	-0.809658
C27	C	-3.789775	-0.181717	-0.910155
H28	H	-3.973314	-0.235466	-0.932694
H29	H	-3.731625	-0.060345	-0.926461
C30	C	-3.467373	-0.207026	-0.939779
C31	C	-3.692798	-0.273053	-0.967463
H32	H	-3.407547	-0.263359	-0.975131
H33	H	-3.422712	-0.207035	-0.872072
H34	H	-3.418945	-0.105884	-0.953368
H35	H	-3.741224	-0.374185	-0.953863
H36	H	-3.737466	-0.273062	-1.035169
