data_functionalizedCrystal
_audit_creation_method	'MofGen! by Chris Wilmer'
_symmetry_space_group_name_H-M	'P1'
_symmetry_Int_Tables_number	1
_symmetry_cell_setting	triclinic
loop_
_symmetry_equiv_pos_as_xyz
  x,y,z
_cell_length_a	14.519709
_cell_length_b	15.072220
_cell_length_c	14.519731
_cell_angle_alpha	90.002099
_cell_angle_beta	83.684499
_cell_angle_gamma	90.006889
loop_
_atom_site_label
_atom_site_type_symbol
_atom_site_fract_x
_atom_site_fract_y
_atom_site_fract_z
O1	O	1.223888	0.073669	0.120884
O2	O	1.723888	0.573669	0.620884
O3	O	0.955412	0.073696	0.135120
O4	O	1.455412	0.573696	0.635120
O5	O	1.096758	0.073674	-0.006235
O6	O	1.596758	0.573674	0.493765
O7	O	1.082542	0.073691	0.262239
O8	O	1.582542	0.573691	0.762239
O9	O	1.096723	-0.073891	-0.006227
O10	O	1.596723	0.426109	0.493773
O11	O	0.955377	-0.073869	0.135128
O12	O	1.455377	0.426131	0.635128
O13	O	1.223853	-0.073896	0.120892
O14	O	1.723853	0.426104	0.620892
Zn15	Zn	1.089610	-0.097312	0.128011
Zn16	Zn	1.589610	0.402688	0.628011
Zn17	Zn	1.089656	0.097112	0.128001
Zn18	Zn	1.589656	0.597112	0.628001
O19	O	1.082507	-0.073874	0.262247
O20	O	1.582507	0.426126	0.762247
C21	C	0.921035	-0.000083	0.134461
C22	C	1.421035	0.499917	0.634461
C23	C	0.818654	-0.000073	0.132473
C24	C	1.318654	0.499927	0.632473
N25	N	1.089585	-0.230000	0.128018
N26	N	1.589585	0.270000	0.628018
C27	C	0.443757	-0.000113	0.125153
C28	C	0.943757	0.499887	0.625153
C29	C	0.548065	-0.000102	0.127186
C30	C	1.048065	0.499898	0.627186
C31	C	0.631202	-0.000092	0.128813
C32	C	1.131202	0.499908	0.628813
C33	C	0.735517	-0.000082	0.130846
C34	C	1.235517	0.499918	0.630846
C35	C	1.089654	-0.589202	0.127997
C36	C	1.589654	-0.089202	0.627997
C37	C	1.013768	-0.551583	0.203379
C38	C	1.513768	-0.051583	0.703379
C39	C	1.013942	-0.448757	0.203655
C40	C	1.513942	0.051243	0.703655
C41	C	1.089619	-0.410998	0.128007
C42	C	1.589619	0.089002	0.628007
C43	C	1.185881	-0.448297	0.149183
C44	C	1.685881	0.051703	0.649183
C45	C	1.185456	-0.551155	0.149719
C46	C	1.685456	-0.051155	0.649719
C47	C	1.070135	-0.551306	0.031217
C48	C	1.570135	-0.051306	0.531217
C49	C	1.067929	-0.448442	0.031859
C50	C	1.567929	0.051558	0.531859
C51	C	1.089605	-0.310284	0.128011
C52	C	1.589605	0.189716	0.628011
C53	C	1.089674	-0.689915	0.127995
C54	C	1.589674	-0.189915	0.627995
C55	C	1.258230	-0.000115	0.121551
C56	C	1.758230	0.499885	0.621551
C57	C	1.360612	-0.000119	0.123539
C58	C	1.860612	0.499881	0.623539
C59	C	1.096075	-0.000109	-0.040591
C60	C	1.596075	0.499891	0.459409
C61	C	1.094079	-0.000109	-0.142971
C62	C	1.594079	0.499891	0.357029
N63	N	1.089688	0.229801	0.127987
N64	N	1.589688	0.729801	0.627987
C65	C	1.092457	-0.000107	-0.226115
C66	C	1.592457	0.499893	0.273885
C67	C	1.090430	-0.000100	-0.330424
C68	C	1.590430	0.499900	0.169576
C69	C	1.088822	-0.000094	-0.413563
C70	C	1.588822	0.499906	0.086437
C71	C	1.086795	-0.000089	-0.517878
C72	C	1.586795	0.499911	-0.017878
C73	C	1.083191	-0.000089	0.296603
C74	C	1.583191	0.499911	0.796603
C75	C	1.085187	-0.000083	0.398983
C76	C	1.585187	0.499917	0.898983
H77	H	0.942394	-0.423540	0.191015
H78	H	1.442394	0.076460	0.691015
Br79	Br	1.162368	-0.591850	-0.062285
Br80	Br	1.662368	-0.091850	0.437715
H81	H	1.001456	-0.577291	0.010895
H82	H	1.501456	-0.077291	0.510895
H83	H	0.941988	-0.576338	0.190945
H84	H	1.441988	-0.076338	0.690945
H85	H	0.997116	-0.424064	0.015793
H86	H	1.497116	0.075936	0.515793
Br87	Br	1.154055	-0.405622	-0.066042
Br88	Br	1.654055	0.094378	0.433958
H89	H	1.026423	-0.424140	0.275471
H90	H	1.526423	0.075860	0.775471
Br91	Br	1.034293	-0.594622	0.322409
Br92	Br	1.534293	-0.094622	0.822409
H93	H	1.202631	-0.575134	0.220305
H94	H	1.702631	-0.075134	0.720305
Br95	Br	1.282265	-0.407538	0.060117
Br96	Br	1.782265	0.092462	0.560117
H97	H	1.243698	-0.576039	0.096988
H98	H	1.743698	-0.076039	0.596988
H99	H	1.203462	-0.422526	0.218965
H100	H	1.703462	0.077474	0.718965
