data_functionalizedCrystal
_audit_creation_method	'MofGen! by Chris Wilmer'
_symmetry_space_group_name_H-M	'P1'
_symmetry_Int_Tables_number	1
_symmetry_cell_setting	triclinic
loop_
_symmetry_equiv_pos_as_xyz
  x,y,z
_cell_length_a	15.297475
_cell_length_b	12.594516
_cell_length_c	15.297738
_cell_angle_alpha	99.658670
_cell_angle_beta	72.640597
_cell_angle_gamma	80.319586
loop_
_atom_site_label
_atom_site_type_symbol
_atom_site_fract_x
_atom_site_fract_y
_atom_site_fract_z
Zn1	Zn	1.512780	-0.890635	-0.771501
Zn2	Zn	1.485785	-1.031359	-0.615990
Zn3	Zn	1.330358	-0.816129	-0.589138
Zn4	Zn	1.357235	-1.031270	-0.744592
O5	O	1.421539	-0.942348	-0.680305
O6	O	1.639341	-0.940521	-0.773371
O7	O	1.442621	-0.971664	-0.482288
O8	O	1.354606	-0.677081	-0.613353
O9	O	1.619508	-1.043910	-0.659118
O10	O	1.488630	-0.731821	-0.747334
O11	O	1.328430	-0.813536	-0.462560
O12	O	1.203781	-0.813449	-0.587260
O13	O	1.400414	-1.043759	-0.878301
O14	O	1.223527	-0.971513	-0.701472
O15	O	1.514692	-0.940435	-0.898071
O16	O	1.468683	-1.180278	-0.633025
O17	O	1.374239	-1.180213	-0.727509
C18	C	1.179910	-0.884387	-0.638533
C19	C	1.076543	-0.859622	-0.620684
C20	C	0.826333	-1.119357	-0.807872
C21	C	0.923451	-1.142632	-0.824639
C22	C	0.961729	-1.071881	-0.773652
C23	C	0.902879	-0.977852	-0.705895
C24	C	0.805751	-0.954579	-0.689121
C25	C	0.941147	-0.907104	-0.654901
C26	C	0.882298	-0.813074	-0.587144
C27	C	0.785180	-0.789805	-0.570374
C28	C	0.746902	-0.860555	-0.621361
C29	C	1.038275	-0.930377	-0.671675
C30	C	1.017693	-0.765599	-0.552924
C31	C	0.920576	-0.742323	-0.536157
C32	C	1.421477	-1.218873	-0.680286
C33	C	1.421541	-1.337199	-0.680323
C34	C	1.370159	-1.406443	-0.731668
C35	C	1.332820	-1.451540	-0.642896
C36	C	1.458967	-1.502924	-0.769123
C37	C	1.384149	-1.380716	-0.591499
C38	C	1.510345	-1.432117	-0.717790
C39	C	1.473029	-1.477176	-0.628966
C40	C	1.664113	-1.000537	-0.722241
C41	C	1.767483	-1.025333	-0.740112
C42	C	1.463563	-1.000398	-0.922873
C43	C	1.481470	-1.025135	-1.026241
C44	C	1.421631	-0.664755	-0.680350
C45	C	1.421670	-0.546462	-0.680369
C46	C	1.549337	-1.119087	-1.085076
C47	C	1.566168	-1.142322	-1.182197
C48	C	1.515128	-1.071610	-1.220491
C49	C	1.447256	-0.977660	-1.161655
C50	C	1.430429	-0.954419	-1.064526
C51	C	1.396220	-0.906942	-1.199940
C52	C	1.328348	-0.812992	-1.141104
C53	C	1.311523	-0.789755	-1.043985
C54	C	1.362562	-0.860467	-1.005691
C55	C	1.413047	-0.930183	-1.297069
C56	C	1.294139	-0.765515	-1.276519
C57	C	1.277309	-0.742281	-1.179398
C58	C	1.379733	-0.884461	-0.438690
C59	C	1.362006	-0.859467	-0.335354
H60	H	0.971359	-1.219193	-0.879805
Br61	Br	0.774376	-1.215386	-0.877036
Br62	Br	1.635403	-1.416447	-0.770618
H63	H	1.252581	-0.707933	-1.307697
Br64	Br	1.511635	-1.590972	-0.894257
Br65	Br	1.297564	-1.354623	-0.803888
Br66	Br	1.537970	-1.103145	-1.352299
H67	H	0.872647	-0.665764	-0.480988
H68	H	0.667822	-0.841608	-0.607715
H69	H	1.257781	-1.460948	-0.611238
H70	H	1.590890	-1.176646	-1.053888
Br71	Br	1.118130	-1.057985	-0.763627
Br72	Br	1.658272	-1.269823	-1.262038
H73	H	1.516526	-1.508030	-0.585504
H74	H	1.222047	-0.665785	-1.131481
Br75	Br	0.705312	-0.662202	-0.478408
H76	H	1.348862	-0.841554	-0.926608
Br77	Br	1.069632	-0.669580	-0.483715
H78	H	1.352462	-1.327997	-0.516386
H79	H	1.468310	-1.006678	-1.344965
Br80	Br	1.219425	-0.662239	-0.964140
H81	H	1.040807	-1.090838	-0.787308
