data_functionalizedCrystal
_audit_creation_method	'MofGen! by Chris Wilmer'
_symmetry_space_group_name_H-M	'P1'
_symmetry_Int_Tables_number	1
_symmetry_cell_setting	triclinic
loop_
_symmetry_equiv_pos_as_xyz
  x,y,z
_cell_length_a	10.489711
_cell_length_b	17.038272
_cell_length_c	9.565339
_cell_angle_alpha	89.999972
_cell_angle_beta	89.994873
_cell_angle_gamma	87.819282
loop_
_atom_site_label
_atom_site_type_symbol
_atom_site_fract_x
_atom_site_fract_y
_atom_site_fract_z
O1	O	1.704388	0.110258	-0.116313
O2	O	1.334159	0.120643	-0.116305
O3	O	1.517073	0.001623	-0.116298
O4	O	1.521474	0.229278	-0.116320
O5	O	1.517058	0.001630	0.116223
O6	O	1.334144	0.120650	0.116216
O7	O	1.704373	0.110266	0.116207
Zn8	Zn	1.519256	0.115459	0.153129
Zn9	Zn	1.519276	0.115449	-0.153226
O10	O	1.521459	0.229286	0.116200
C11	C	1.286546	0.119867	-0.000043
C12	C	1.144697	0.117535	-0.000040
C13	C	0.969005	0.189111	-0.000063
C14	C	1.057814	0.153354	-0.114702
C15	C	1.057770	0.153342	0.114545
C16	C	0.980776	0.077585	-0.114803
C17	C	0.980724	0.077584	0.114547
C18	C	1.069500	0.041772	-0.000120
C19	C	1.513063	-0.027525	-0.000037
C20	C	1.501121	-0.114386	-0.000038
C21	C	1.610760	-0.163873	-0.000039
C22	C	1.599532	-0.245487	-0.000052
C23	C	1.478664	-0.277614	-0.000054
C24	C	1.369017	-0.228121	-0.000057
C25	C	1.380246	-0.146508	-0.000054
C26	C	1.438993	-0.523599	-0.000072
C27	C	1.427772	-0.605219	-0.000071
C28	C	1.658288	-0.622579	-0.000068
C29	C	1.669507	-0.540964	-0.000057
C30	C	1.559860	-0.491478	-0.000067
C31	C	1.467184	-0.361038	-0.000063
C32	C	1.571341	-0.408056	-0.000068
C33	C	1.751986	0.111041	-0.000057
C34	C	1.893835	0.113373	-0.000069
C35	C	1.525469	0.258433	-0.000063
C36	C	1.537411	0.345295	-0.000072
N37	N	1.519252	0.115465	0.362208
N38	N	1.519289	0.115437	-0.362306
C39	C	1.434631	0.170490	0.453408
C40	C	1.551610	0.186312	0.546583
C41	C	1.402325	0.099650	0.546589
C42	C	1.636293	0.131323	0.453331
C43	C	1.486928	0.044630	0.453329
C44	C	1.603987	0.060422	0.546462
H45	H	1.709184	-0.137722	-0.000028
H46	H	0.925137	0.251361	-0.000183
O47	O	1.754204	0.147430	0.404445
C48	C	1.752744	0.147292	0.257054
H49	H	1.650947	0.158965	0.218518
H50	H	1.789917	0.087680	0.217083
C51	C	1.963471	0.197562	0.249432
C52	C	1.838444	0.211906	0.202102
H53	H	2.016339	0.237417	0.215533
H54	H	1.964458	0.197653	0.348733
H55	H	1.994431	0.147884	0.216119
H56	H	1.807480	0.261579	0.235429
H57	H	1.837454	0.211825	0.102805
H58	H	1.091812	0.185400	-0.211623
O59	O	1.454470	-0.026826	0.404343
C60	C	1.555389	-0.059518	0.323227
H61	H	1.648504	-0.032112	0.355063
H62	H	1.535943	-0.047207	0.207882
C63	C	1.451748	-0.182539	0.308326
C64	C	1.566115	-0.148884	0.347437
H65	H	1.458362	-0.237664	0.323253
H66	H	1.383754	-0.160513	0.362971
H67	H	1.435555	-0.172272	0.212207
H68	H	1.582298	-0.159142	0.443557
H69	H	1.634112	-0.170913	0.292808
O70	O	1.332582	-0.475454	0.000113
C71	C	1.332153	-0.427737	0.120552
H72	H	1.433901	-0.423048	0.160700
H73	H	1.270942	-0.454904	0.204879
C74	C	1.151958	-0.351009	0.034656
C75	C	1.276928	-0.345244	0.083960
H76	H	1.117888	-0.300124	0.012088
H77	H	1.152243	-0.383158	-0.046484
H78	H	1.100965	-0.373651	0.104937
H79	H	1.327923	-0.322611	0.013673
H80	H	1.276650	-0.313089	0.165087
O81	O	1.098433	0.191480	0.230216
C82	C	1.177740	0.140128	0.310217
H83	H	1.219537	0.091520	0.240155
H84	H	1.119404	0.113127	0.397201
C85	C	1.235378	0.245868	0.460800
C86	C	1.286722	0.186171	0.374746
H87	H	1.302600	0.274269	0.500610
H88	H	1.181944	0.280465	0.406906
H89	H	1.186765	0.223359	0.533275
H90	H	1.335321	0.208682	0.302264
H91	H	1.340168	0.151579	0.428630
H92	H	1.363144	0.217065	0.412551
H93	H	1.767930	-0.514813	-0.000055
H94	H	0.946978	0.045566	-0.211835
O95	O	1.310256	-0.636298	-0.000150
C96	C	1.215885	-0.575122	-0.000130
H97	H	1.257679	-0.519488	-0.044145
H98	H	1.181615	-0.563773	0.111416
C99	C	1.051302	-0.667107	-0.037275
C100	C	1.102631	-0.598778	-0.091345
H101	H	0.981438	-0.681700	-0.093534
H102	H	1.114880	-0.708324	-0.037283
H103	H	1.022754	-0.657641	0.055680
H104	H	1.131192	-0.608248	-0.184291
H105	H	1.039055	-0.557563	-0.091355
H106	H	1.113129	-0.020536	-0.000172
O107	O	1.584047	0.257813	0.595396
C108	C	1.494592	0.315675	0.547968
H109	H	1.400995	0.287120	0.521827
H110	H	1.533077	0.345103	0.450457
C111	C	1.586281	0.412769	0.695298
C112	C	1.471320	0.377698	0.663203
H113	H	1.571929	0.451030	0.766376
H114	H	1.646552	0.373788	0.727248
H115	H	1.618340	0.437287	0.614029
H116	H	1.439271	0.353173	0.744466
H117	H	1.411042	0.416677	0.631269
H118	H	0.946700	0.045567	0.211477
O119	O	1.706132	-0.293475	-0.000232
C120	C	1.778992	-0.278821	-0.120666
H121	H	1.754369	-0.217096	-0.160812
H122	H	1.756715	-0.323550	-0.204997
C123	C	1.952177	-0.361584	-0.034766
C124	C	1.921942	-0.285769	-0.084067
H125	H	2.040356	-0.365873	-0.012194
H126	H	1.903089	-0.371459	0.046370
H127	H	1.933603	-0.398849	-0.105051
H128	H	1.940502	-0.248506	-0.013777
H129	H	1.971037	-0.275887	-0.165191
H130	H	1.747556	-0.662879	-0.000062
O131	O	1.689565	0.004881	0.594677
C132	C	1.749998	-0.033488	0.480616
H133	H	1.743887	0.006211	0.384731
H134	H	1.700567	-0.090516	0.457624
C135	C	1.898546	-0.100753	0.634375
C136	C	1.891049	-0.051990	0.516610
H137	H	1.985552	-0.112169	0.656578
H138	H	1.857829	-0.074905	0.711221
H139	H	1.857347	-0.148270	0.615200
H140	H	1.932234	-0.004471	0.535792
H141	H	1.931777	-0.077831	0.439767
H142	H	1.270603	-0.254285	-0.000067
O143	O	1.284376	0.083557	0.595388
C144	C	1.249610	0.009436	0.545805
H145	H	1.339217	-0.027261	0.518167
H146	H	1.187357	0.017426	0.448775
C147	C	1.064624	0.012321	0.693991
C148	C	1.174682	-0.032753	0.660058
H149	H	1.018400	-0.013703	0.764464
H150	H	1.088043	0.062259	0.727393
H151	H	1.012762	0.018975	0.613124
H152	H	1.226549	-0.039399	0.740920
H153	H	1.151270	-0.082694	0.626672
H154	H	1.669751	-0.381895	-0.000098
H155	H	1.290966	-0.106217	-0.000053
H156	H	1.368773	-0.387204	-0.000061
