data_functionalizedCrystal
_audit_creation_method	'MofGen! by Chris Wilmer'
_symmetry_space_group_name_H-M	'P1'
_symmetry_Int_Tables_number	1
_symmetry_cell_setting	triclinic
loop_
_symmetry_equiv_pos_as_xyz
  x,y,z
_cell_length_a	15.944551
_cell_length_b	15.944499
_cell_length_c	15.021413
_cell_angle_alpha	89.995782
_cell_angle_beta	90.006285
_cell_angle_gamma	96.511826
loop_
_atom_site_label
_atom_site_type_symbol
_atom_site_fract_x
_atom_site_fract_y
_atom_site_fract_z
O1	O	-0.108119	1.114538	0.074076
O2	O	-0.121521	0.869983	0.074064
O3	O	0.007456	0.998939	0.074076
O4	O	-0.237096	0.985582	0.074065
O5	O	0.007448	0.998954	-0.073989
O6	O	-0.121529	0.869998	-0.074000
O7	O	-0.108127	1.114553	-0.073989
Zn8	Zn	-0.114829	0.992278	-0.097503
Zn9	Zn	-0.114819	0.992258	0.097578
O10	O	-0.237104	0.985597	-0.074000
C11	C	-0.120976	0.838695	0.000031
C12	C	-0.119331	0.745447	0.000027
C13	C	-0.194263	0.453911	0.000037
C14	C	-0.155308	0.514933	0.073044
C15	C	-0.113355	0.409810	0.000048
C16	C	-0.155294	0.514933	-0.072936
C17	C	-0.116296	0.574719	0.000036
C18	C	-0.074377	0.469604	0.073115
C19	C	-0.074374	0.469598	-0.072930
C20	C	-0.035360	0.530603	0.000095
C21	C	-0.111663	0.314810	0.000056
C22	C	-0.117981	0.669718	0.000035
C23	C	-0.268394	0.986144	0.000031
C24	C	-0.361640	0.987806	0.000028
C25	C	-0.576481	1.071713	0.000045
C26	C	-0.637508	1.032757	-0.072961
C27	C	-0.532365	0.990814	0.000036
C28	C	-0.637486	1.032723	0.073019
C29	C	-0.697277	0.993725	0.000047
C30	C	-0.592164	0.951836	-0.073031
C31	C	-0.592136	0.951813	0.073015
C32	C	-0.653145	0.912798	-0.000009
C33	C	-0.437363	0.989139	0.000028
C34	C	-0.792278	0.995393	0.000048
C35	C	0.038746	0.998392	0.000047
C36	C	0.131992	0.996729	0.000056
C37	C	-0.108672	1.145840	0.000047
C38	C	-0.110317	1.239089	0.000056
N39	N	-0.114836	0.992297	-0.230640
C40	C	-0.055183	1.051938	-0.470294
C41	C	-0.038880	0.976037	-0.529626
C42	C	-0.114825	0.992278	-0.412247
C43	C	-0.131079	1.068161	-0.529657
C44	C	-0.114813	0.992266	-0.587671
C45	C	-0.098485	0.916338	-0.470272
C46	C	-0.190717	1.008512	-0.470298
C47	C	-0.174446	0.932555	-0.529603
C48	C	-0.114830	0.992286	-0.311190
C49	C	-0.114809	0.992249	-0.688726
N50	N	-0.114805	0.992245	0.230716
H51	H	-0.189532	0.535015	-0.134655
O52	O	-0.692689	0.832608	-0.000215
C53	C	-0.714396	0.699404	-0.077345
C54	C	-0.669574	0.790200	-0.077228
H55	H	-0.695710	0.665085	-0.139594
H56	H	-0.785668	0.701200	-0.076812
H57	H	-0.694945	0.664688	-0.015671
H58	H	-0.688955	0.824969	-0.138892
H59	H	-0.598310	0.788343	-0.077715
H60	H	-0.224881	0.882042	-0.555479
O61	O	0.044772	0.570291	0.000262
C62	C	0.147952	0.666522	0.076701
C63	C	0.057178	0.621645	0.076606
H64	H	0.158017	0.708039	0.138428
H65	H	0.158463	0.707322	0.014494
H66	H	0.194602	0.617374	0.077279
H67	H	0.010471	0.670735	0.076059
H68	H	0.046738	0.580829	0.138808
O69	O	-0.081869	0.839758	-0.439393
C70	C	0.016652	0.735853	-0.435194
C71	C	-0.002067	0.822579	-0.470247
H72	H	0.081178	0.721945	-0.460110
H73	H	-0.033838	0.684928	-0.460154
H74	H	0.016492	0.736510	-0.359305
H75	H	-0.001894	0.822006	-0.546134
H76	H	0.048425	0.873468	-0.445220
H77	H	-0.004718	1.102339	-0.444253
O78	O	0.037747	0.959784	-0.560683
C79	C	0.187240	1.004253	-0.565659
C80	C	0.100509	1.022762	-0.530448
H81	H	0.238008	1.055149	-0.541212
H82	H	0.186367	1.003836	-0.641547
H83	H	0.201557	0.940026	-0.540232
H84	H	0.086138	1.086990	-0.555809
H85	H	0.101426	1.023123	-0.454561
H86	H	-0.254881	1.022278	-0.444218
O87	O	-0.147413	1.144797	-0.560636
C88	C	-0.102977	1.294296	-0.565633
C89	C	-0.084386	1.207557	-0.530501
H90	H	-0.052022	1.345059	-0.541298
H91	H	-0.167166	1.308663	-0.540155
H92	H	-0.103480	1.293369	-0.641519
H93	H	-0.083838	1.208420	-0.454618
H94	H	-0.020211	1.193225	-0.556047
H95	H	-0.543163	1.138864	-0.000024
O96	O	-0.274324	0.414043	0.000232
C97	C	-0.377247	0.317544	0.076677
C98	C	-0.286556	0.362626	0.076551
H99	H	-0.387171	0.275977	0.138384
H100	H	-0.387706	0.276768	0.014450
H101	H	-0.424027	0.366567	0.077315
H102	H	-0.239719	0.313662	0.075944
H103	H	-0.276167	0.403418	0.138772
O104	O	-0.196088	0.538810	0.146738
C105	C	-0.200475	0.541794	0.307044
C106	C	-0.154188	0.514697	0.223683
H107	H	-0.166608	0.522326	0.369275
H108	H	-0.268198	0.509931	0.306965
H109	H	-0.200854	0.613248	0.306601
H110	H	-0.153744	0.443254	0.224071
H111	H	-0.086489	0.546622	0.223794
O112	O	-0.033825	0.445284	-0.146578
C113	C	0.013326	0.329494	-0.228584
C114	C	-0.032424	0.357035	-0.145062
H115	H	0.014458	0.258141	-0.227396
H116	H	0.080784	0.362030	-0.229586
H117	H	-0.021452	0.347924	-0.290643
H118	H	0.002284	0.338609	-0.082959
H119	H	-0.099885	0.324505	-0.144139
O120	O	-0.661444	1.073717	-0.146522
C121	C	-0.649161	1.203750	-0.229723
C122	C	-0.622004	1.157464	-0.146373
H123	H	-0.617272	1.271462	-0.229639
H124	H	-0.720614	1.204145	-0.229348
H125	H	-0.629656	1.169881	-0.291926
H126	H	-0.641451	1.191297	-0.084126
H127	H	-0.550552	1.157061	-0.146827
O128	O	-0.568186	0.911108	-0.146717
C129	C	-0.452858	0.863803	-0.229358
C130	C	-0.479897	0.909961	-0.145884
H131	H	-0.381477	0.862844	-0.228703
H132	H	-0.471864	0.898057	-0.291529
H133	H	-0.485235	0.796277	-0.229607
H134	H	-0.447534	0.977488	-0.145548
H135	H	-0.460907	0.875641	-0.083751
O136	O	-0.568141	0.911141	0.146735
C137	C	-0.563799	0.907766	0.307034
C138	C	-0.591002	0.953911	0.223611
H139	H	-0.582287	0.942317	0.369210
H140	H	-0.492475	0.906385	0.306032
H141	H	-0.596550	0.840389	0.307615
H142	H	-0.558310	1.021308	0.222976
H143	H	-0.662334	0.955224	0.224646
H144	H	-0.040184	0.449619	0.134906
O145	O	-0.661327	1.073661	0.146625
C146	C	-0.649072	1.203722	0.229758
C147	C	-0.621993	1.157448	0.146380
H148	H	-0.617297	1.271477	0.229578
H149	H	-0.629487	1.169950	0.292002
H150	H	-0.720537	1.204007	0.229388
H151	H	-0.550532	1.157150	0.146663
H152	H	-0.641640	1.191235	0.084173
