data_functionalizedCrystal
_audit_creation_method	'MofGen! by Chris Wilmer'
_symmetry_space_group_name_H-M	'P1'
_symmetry_Int_Tables_number	1
_symmetry_cell_setting	triclinic
loop_
_symmetry_equiv_pos_as_xyz
  x,y,z
_cell_length_a	19.077105
_cell_length_b	25.639239
_cell_length_c	19.076919
_cell_angle_alpha	87.731593
_cell_angle_beta	89.923776
_cell_angle_gamma	87.734929
loop_
_atom_site_label
_atom_site_type_symbol
_atom_site_fract_x
_atom_site_fract_y
_atom_site_fract_z
Zn1	Zn	1.058187	-0.252939	0.440398
Zn2	Zn	1.391520	0.080394	0.773731
Zn3	Zn	1.724853	0.413728	1.107064
Zn4	Zn	1.062799	-0.337004	0.322884
Zn5	Zn	1.396132	-0.003670	0.656218
Zn6	Zn	1.729465	0.329663	0.989551
Zn7	Zn	0.945407	-0.245935	0.318192
Zn8	Zn	1.278740	0.087398	0.651525
Zn9	Zn	1.612073	0.420732	0.984858
Zn10	Zn	0.940620	-0.336689	0.435637
Zn11	Zn	1.273954	-0.003355	0.768970
Zn12	Zn	1.607287	0.329978	1.102304
O13	O	1.001753	-0.293142	0.379278
O14	O	1.335086	0.040192	0.712611
O15	O	1.668420	0.373525	1.045944
O16	O	1.157129	-0.267153	0.428766
O17	O	1.490462	0.066180	0.762099
O18	O	1.823796	0.399513	1.095432
O19	O	1.051160	-0.322124	0.223931
O20	O	1.384493	0.011209	0.557264
O21	O	1.717826	0.344543	0.890597
O22	O	0.960440	-0.173702	0.334431
O23	O	1.293773	0.159632	0.667764
O24	O	1.627107	0.492965	1.001098
O25	O	1.160518	-0.328916	0.342429
O26	O	1.493851	0.004418	0.675762
O27	O	1.827184	0.337751	1.009096
O28	O	1.043299	-0.178848	0.424215
O29	O	1.376632	0.154486	0.757549
O30	O	1.709966	0.487819	1.090882
O31	O	0.964912	-0.255216	0.220483
O32	O	1.298246	0.078117	0.553816
O33	O	1.631579	0.411451	0.887150
O34	O	0.846441	-0.254910	0.329815
O35	O	1.179774	0.078423	0.663148
O36	O	1.513108	0.411756	0.996481
O37	O	0.952283	-0.328378	0.534600
O38	O	1.285616	0.004955	0.867933
O39	O	1.618949	0.338288	1.201266
O40	O	0.842925	-0.321587	0.416101
O41	O	1.176258	0.011747	0.749435
O42	O	1.509591	0.345080	1.082768
O43	O	1.038658	-0.266848	0.538097
O44	O	1.371991	0.066486	0.871431
O45	O	1.705325	0.399819	1.204764
O46	O	1.046519	-0.410124	0.337813
O47	O	1.379852	-0.076791	0.671146
O48	O	1.713185	0.256542	1.004479
O49	O	0.956755	-0.409893	0.420652
O50	O	1.290088	-0.076559	0.753985
O51	O	1.623421	0.256774	1.087318
C52	C	0.819187	-0.287455	0.371933
C53	C	1.152520	0.045879	0.705266
C54	C	1.485853	0.379212	1.038599
C55	C	0.741083	-0.285035	0.368807
C56	C	1.074417	0.048298	0.702140
C57	C	1.407750	0.381632	1.035474
C58	C	1.001636	-0.428980	0.379241
C59	C	1.334970	-0.095646	0.712574
C60	C	1.668303	0.237687	1.045907
C61	C	1.001650	-0.487094	0.379251
C62	C	1.334983	-0.153761	0.712584
C63	C	1.668316	0.179572	1.045918
C64	C	0.702581	-0.318661	0.412193
C65	C	1.035914	0.014672	0.745526
C66	C	1.369247	0.348005	1.078859
C67	C	0.629194	-0.316381	0.409259
C68	C	0.962527	0.016952	0.742593
C69	C	1.295861	0.350286	1.075926
C70	C	0.594312	-0.280476	0.362936
C71	C	0.927645	0.052857	0.696269
C72	C	1.260978	0.386190	1.029603
C73	C	0.632820	-0.246846	0.319549
C74	C	0.966153	0.086487	0.652882
C75	C	1.299486	0.419820	0.986215
C76	C	0.706205	-0.249125	0.322486
C77	C	1.039538	0.084209	0.655819
C78	C	1.372871	0.417542	0.989153
C79	C	0.375028	-0.269932	0.349344
C80	C	0.708361	0.063401	0.682678
C81	C	1.041695	0.396734	1.016011
C82	C	0.301638	-0.267658	0.346409
C83	C	0.634971	0.065676	0.679742
C84	C	0.968304	0.399009	1.013075
C85	C	0.298017	-0.337192	0.436121
C86	C	0.631350	-0.003858	0.769454
C87	C	0.964684	0.329475	1.102787
C88	C	0.371404	-0.339469	0.439051
C89	C	0.704737	-0.006136	0.772384
C90	C	1.038071	0.327198	1.105718
C91	C	0.409905	-0.305837	0.395666
C92	C	0.743239	0.027496	0.728999
C93	C	1.076572	0.360829	1.062333
N94	N	0.519299	-0.278146	0.359935
N95	N	0.852632	0.055188	0.693268
N96	N	1.185966	0.388521	1.026602
N97	N	0.484917	-0.308166	0.398671
N98	N	0.818250	0.025168	0.732005
N99	N	1.151583	0.358501	1.065338
C100	C	1.048607	-0.847575	0.336225
C101	C	1.381941	-0.514242	0.669558
C102	C	1.715274	-0.180908	1.002891
C103	C	1.048634	-0.902180	0.336235
C104	C	1.381967	-0.568847	0.669569
C105	C	1.715301	-0.235514	1.002902
O106	O	1.088438	-0.930513	0.299613
O107	O	1.421771	-0.597179	0.632946
O108	O	1.755105	-0.263846	0.966279
N109	N	1.001875	-0.929386	0.379329
N110	N	1.335208	-0.596052	0.712663
N111	N	1.668541	-0.262719	1.045996
C112	C	0.955090	-0.901983	0.422421
C113	C	1.288424	-0.568650	0.755754
C114	C	1.621757	-0.235316	1.089087
O115	O	0.915321	-0.930137	0.459077
O116	O	1.248654	-0.596804	0.792410
O117	O	1.581987	-0.263471	1.125744
C118	C	0.955067	-0.847379	0.422413
C119	C	1.288401	-0.514045	0.755747
C120	C	1.621734	-0.180712	1.089080
C121	C	1.001825	-0.820176	0.379311
C122	C	1.335158	-0.486843	0.712645
C123	C	1.668492	-0.153509	1.045978
C124	C	1.095362	-0.820372	0.293127
C125	C	1.428695	-0.487039	0.626460
C126	C	1.762028	-0.153706	0.959793
C127	C	1.095334	-0.765771	0.293116
C128	C	1.428667	-0.432437	0.626449
C129	C	1.762000	-0.099104	0.959782
C130	C	1.048551	-0.738372	0.336202
C131	C	1.381885	-0.405038	0.669536
C132	C	1.715218	-0.071705	1.002869
C133	C	1.001797	-0.765574	0.379300
C134	C	1.335130	-0.432241	0.712633
C135	C	1.668464	-0.098908	1.045967
C136	C	0.908287	-0.819977	0.465508
C137	C	1.241620	-0.486644	0.798841
C138	C	1.574953	-0.153311	1.132175
C139	C	0.908268	-0.765369	0.465497
C140	C	1.241602	-0.432036	0.798831
C141	C	1.574935	-0.098703	1.132164
C142	C	0.955026	-0.738167	0.422395
C143	C	1.288359	-0.404833	0.755729
C144	C	1.621693	-0.071500	1.089062
C145	C	0.954987	-0.683574	0.422375
C146	C	1.288320	-0.350240	0.755709
C147	C	1.621653	-0.016907	1.089042
N148	N	1.001746	-0.656368	0.379282
N149	N	1.335080	-0.323035	0.712615
N150	N	1.668413	0.010298	1.045948
C151	C	1.048528	-0.683767	0.336195
C152	C	1.381862	-0.350434	0.669528
C153	C	1.715195	-0.017101	1.002862
C154	C	0.955143	-1.016656	0.422434
C155	C	1.288476	-0.683322	0.755767
C156	C	1.621809	-0.349989	1.089100
C157	C	0.955162	-1.071259	0.422438
C158	C	1.288495	-0.737925	0.755771
C159	C	1.621828	-0.404592	1.089104
C160	C	1.048707	-1.071452	0.336253
C161	C	1.382040	-0.738119	0.669586
C162	C	1.715373	-0.404786	1.002920
C163	C	1.048684	-1.016848	0.336246
C164	C	1.382017	-0.683515	0.669579
C165	C	1.715350	-0.350181	1.002912
C166	C	1.001902	-0.989450	0.379340
C167	C	1.335235	-0.656117	0.712673
C168	C	1.668569	-0.322784	1.046006
C169	C	1.048466	-0.569100	0.336174
C170	C	1.381799	-0.235767	0.669507
C171	C	1.715133	0.097567	1.002841
C172	C	1.048432	-0.514493	0.336164
C173	C	1.381765	-0.181160	0.669498
C174	C	1.715098	0.152173	1.002831
C175	C	0.954890	-0.514304	0.422351
C176	C	1.288223	-0.180971	0.755685
C177	C	1.621556	0.152362	1.089018
C178	C	0.954921	-0.568906	0.422359
C179	C	1.288254	-0.235573	0.755692
C180	C	1.621588	0.097761	1.089025
C181	C	1.001715	-0.596303	0.379268
C182	C	1.335048	-0.262969	0.712601
C183	C	1.668381	0.070364	1.045934
O184	O	0.915205	-0.655207	0.458982
O185	O	1.248538	-0.321874	0.792315
O186	O	1.581872	0.011459	1.125648
O187	O	1.088298	-0.655607	0.299552
O188	O	1.421631	-0.322274	0.632885
O189	O	1.754964	0.011060	0.966218
C190	C	1.185032	-0.298851	0.386652
C191	C	1.518366	0.034482	0.719985
C192	C	1.851699	0.367816	1.053319
C193	C	1.263135	-0.301284	0.389794
C194	C	1.596468	0.032049	0.723128
C195	C	1.929802	0.365383	1.056461
C196	C	0.994422	-0.298359	0.562557
C197	C	1.327755	0.034974	0.895891
C198	C	1.661089	0.368308	1.229224
C199	C	0.991298	-0.300582	0.640660
C200	C	1.324631	0.032751	0.973994
C201	C	1.657964	0.366084	1.307327
C202	C	1.001889	-0.156774	0.379331
C203	C	1.335222	0.176559	0.712664
C204	C	1.668556	0.509893	1.045998
C205	C	1.001947	-0.098662	0.379354
C206	C	1.335280	0.234671	0.712687
C207	C	1.668614	0.568004	1.046020
C208	C	1.009096	-0.287908	0.196713
C209	C	1.342430	0.045425	0.530046
C210	C	1.675763	0.378759	0.863379
C211	C	1.012356	-0.285541	0.118616
C212	C	1.345690	0.047792	0.451949
C213	C	1.679023	0.381125	0.785282
C214	C	1.034799	-0.269593	0.679175
C215	C	1.368132	0.063741	1.012509
C216	C	1.701465	0.397074	1.345842
C217	C	1.031855	-0.271680	0.752561
C218	C	1.365188	0.061654	1.085894
C219	C	1.698521	0.394987	1.419228
C220	C	0.985413	-0.304759	0.787430
C221	C	1.318746	0.028574	1.120764
C222	C	1.652080	0.361907	1.454097
C223	C	0.941907	-0.335750	0.748910
C224	C	1.275240	-0.002417	1.082243
C225	C	1.608574	0.330917	1.415577
C226	C	0.944848	-0.333660	0.675526
C227	C	1.278181	-0.000327	1.008859
C228	C	1.611515	0.333007	1.342192
C229	C	0.971792	-0.314442	1.006711
C230	C	1.305125	0.018891	1.340044
C231	C	1.638458	0.352224	1.673377
C232	C	0.968856	-0.316531	1.080100
C233	C	1.302189	0.016802	1.413434
C234	C	1.635522	0.350136	1.746767
C235	C	1.058803	-0.252460	1.083746
C236	C	1.392136	0.080874	1.417080
C237	C	1.725469	0.414207	1.750413
C238	C	1.061742	-0.250375	1.010361
C239	C	1.395076	0.082958	1.343694
C240	C	1.728409	0.416292	1.677027
C241	C	1.018234	-0.281364	0.971846
C242	C	1.351567	0.051970	1.305180
C243	C	1.684901	0.385303	1.638513
N244	N	0.982404	-0.306894	0.862442
N245	N	1.315737	0.026439	1.195776
N246	N	1.649071	0.359772	1.529109
N247	N	1.021240	-0.279226	0.896836
N248	N	1.354573	0.054108	1.230169
N249	N	1.687907	0.387441	1.563502
H250	H	0.730976	-0.347900	0.449912
H251	H	1.064310	-0.014567	0.783245
H252	H	1.397643	0.318766	1.116578
Cl253	Cl	0.423420	-0.227651	0.294805
Cl254	Cl	0.756753	0.105683	0.628138
Cl255	Cl	1.090087	0.439016	0.961471
H256	H	0.737553	-0.221740	0.287160
H257	H	1.070886	0.111594	0.620494
H258	H	1.404219	0.444927	0.953827
H259	H	0.399800	-0.368707	0.476771
H260	H	0.733133	-0.035374	0.810104
H261	H	1.066467	0.297959	1.143437
H262	H	0.904091	-0.362682	0.777306
H263	H	1.237424	-0.029349	1.110640
H264	H	1.570757	0.303985	1.443973
H265	H	1.086758	-0.994703	0.301149
H266	H	1.420091	-0.661370	0.634482
H267	H	1.753425	-0.328036	0.967816
Cl268	Cl	0.896370	-1.105449	0.476617
Cl269	Cl	1.229704	-0.772116	0.809950
Cl270	Cl	1.563037	-0.438782	1.143284
H271	H	0.909418	-0.358890	0.644167
H272	H	1.242751	-0.025556	0.977500
H273	H	1.576084	0.307777	1.310834
Cl274	Cl	0.588967	-0.201705	0.261318
Cl275	Cl	0.922301	0.131628	0.594651
Cl276	Cl	1.255634	0.464961	0.927985
Cl277	Cl	1.107218	-0.480299	0.281975
Cl278	Cl	1.440551	-0.146966	0.615308
Cl279	Cl	1.773884	0.186368	0.948642
Cl280	Cl	1.154128	-0.731582	0.238938
Cl281	Cl	1.487462	-0.398248	0.572272
Cl282	Cl	1.820795	-0.064915	0.905605
Cl283	Cl	1.107518	-1.105907	0.282085
Cl284	Cl	1.440852	-0.772574	0.615419
Cl285	Cl	1.774185	-0.439240	0.948752
H286	H	1.133461	-0.842675	0.258040
H287	H	1.466795	-0.509342	0.591374
H288	H	1.800128	-0.176008	0.924707
Cl289	Cl	1.107292	-0.603533	0.282001
Cl290	Cl	1.440625	-0.270199	0.615334
Cl291	Cl	1.773959	0.063134	0.948667
Cl292	Cl	0.896320	-0.982218	0.476608
Cl293	Cl	1.229653	-0.648884	0.809942
Cl294	Cl	1.562986	-0.315551	1.143275
H295	H	0.916849	-0.591056	0.457458
H296	H	1.250183	-0.257723	0.790791
H297	H	1.583516	0.075611	1.124125
H298	H	0.936374	-0.339684	0.975362
H299	H	1.269708	-0.006350	1.308695
H300	H	1.603041	0.326983	1.642028
H301	H	0.870208	-0.842116	0.500603
H302	H	1.203542	-0.508783	0.833936
H303	H	1.536875	-0.175450	1.167270
H304	H	0.916798	-0.491988	0.457430
H305	H	1.250131	-0.158654	0.790763
H306	H	1.583465	0.174679	1.124097
Cl307	Cl	0.249611	-0.379470	0.490657
Cl308	Cl	0.582945	-0.046136	0.823990
Cl309	Cl	0.916278	0.287197	1.157324
Cl310	Cl	0.580794	-0.358656	0.463804
Cl311	Cl	0.914127	-0.025323	0.797137
Cl312	Cl	1.247460	0.308010	1.130471
H313	H	0.273239	-0.238414	0.308691
H314	H	0.606572	0.094920	0.642024
H315	H	0.939905	0.428253	0.975358
H316	H	0.870174	-0.743065	0.500592
H317	H	1.203507	-0.409732	0.833925
H318	H	1.536840	-0.076398	1.167259
H319	H	1.072619	-0.242657	0.650790
H320	H	1.405952	0.090676	0.984124
H321	H	1.739286	0.424009	1.317457
Cl322	Cl	1.120129	-0.208788	0.966530
Cl323	Cl	1.453463	0.124546	1.299864
Cl324	Cl	1.786796	0.457879	1.633197
Cl325	Cl	1.086576	-0.232743	0.800978
Cl326	Cl	1.419909	0.100590	1.134312
Cl327	Cl	1.753242	0.433923	1.467645
H328	H	1.094224	-0.227230	1.115112
H329	H	1.427557	0.106104	1.448446
H330	H	1.760890	0.439437	1.781779
H331	H	0.931035	-0.343470	1.108489
H332	H	1.264368	-0.010136	1.441822
H333	H	1.597701	0.323197	1.775155
