data_functionalizedCrystal
_audit_creation_method	'MofGen! by Chris Wilmer'
_symmetry_space_group_name_H-M	'P1'
_symmetry_Int_Tables_number	1
_symmetry_cell_setting	triclinic
loop_
_symmetry_equiv_pos_as_xyz
  x,y,z
_cell_length_a	14.395555
_cell_length_b	14.560438
_cell_length_c	14.395555
_cell_angle_alpha	60.002895
_cell_angle_beta	90.002623
_cell_angle_gamma	59.999305
loop_
_atom_site_label
_atom_site_type_symbol
_atom_site_fract_x
_atom_site_fract_y
_atom_site_fract_z
Zr1	Zr	0.894917	1.005229	-0.121836
O2	O	0.746588	1.196830	-0.270164
O3	O	0.940388	0.813629	-0.076368
O4	O	0.940389	1.005221	-0.270157
O5	O	0.746585	1.005245	0.076492
O6	O	1.093264	1.005214	-0.270149
O7	O	0.746586	1.005238	-0.076375
O8	O	1.093260	0.662491	0.076504
O9	O	0.746588	1.347968	-0.270161
O10	O	1.073869	0.892432	-0.056967
O11	O	0.959780	0.892442	0.057110
O12	O	0.959782	1.118017	-0.171052
O13	O	0.845693	1.118027	-0.056975
Zr14	Zr	1.138732	1.005229	0.121982
Zr15	Zr	1.138734	1.005219	-0.121823
Zr16	Zr	0.894915	1.005240	0.121969
Zr17	Zr	0.894918	1.246277	-0.121831
Zr18	Zr	1.138731	0.764182	0.121978
O19	O	1.093261	1.196830	0.076514
O20	O	1.093264	1.196815	-0.270146
O21	O	0.746586	1.196846	0.076496
O22	O	1.287061	0.813629	0.270310
O23	O	1.287063	0.813613	-0.076350
O24	O	0.940385	0.813644	0.270292
O25	O	1.287064	1.005214	-0.076346
O26	O	1.093260	1.005238	0.270304
O27	O	0.940385	1.005245	0.270296
O28	O	1.287063	1.005221	0.076521
O29	O	0.940390	1.347959	-0.270151
O30	O	1.093259	0.662499	0.270297
O31	O	1.287060	0.662491	0.270308
O32	O	1.287062	0.662482	0.076515
O33	O	0.746587	1.347977	-0.076368
O34	O	0.940389	1.347968	-0.076358
O35	O	1.073867	0.892442	0.171199
O36	O	1.187956	0.892432	0.057122
O37	O	1.073869	1.118017	-0.056963
O38	O	0.959780	1.118027	0.057114
C39	C	1.016824	0.703716	0.000067
C40	C	1.016824	0.601385	0.000066
C41	C	1.076375	0.553303	-0.059482
C42	C	1.076379	0.457144	-0.059471
C43	C	0.957272	0.457160	0.059635
C44	C	0.957275	0.553311	0.059631
C45	C	0.711847	1.005243	0.000057
C46	C	0.608341	1.005248	0.000051
C47	C	0.485547	1.128247	-0.062143
C48	C	0.454711	1.066756	-0.107219
C49	C	0.454753	1.066734	0.045119
C50	C	0.578869	0.943756	-0.045087
C51	C	0.578907	0.943752	0.107310
C52	C	0.548145	0.882171	0.062261
C53	C	1.321802	1.005216	0.000089
C54	C	1.425308	1.005211	0.000095
C55	C	1.016827	1.005216	-0.304890
C56	C	1.016827	1.005211	-0.408392
C57	C	1.016825	1.306743	0.000079
C58	C	1.016825	1.409074	0.000081
C59	C	1.079038	0.882212	-0.406777
C60	C	0.971762	0.943703	-0.499803
C61	C	1.124077	0.943725	-0.499794
C62	C	0.909488	1.066703	-0.500055
C63	C	1.061881	1.066707	-0.500032
C64	C	0.954540	1.128288	-0.593076
C65	C	1.016822	1.005243	0.305037
C66	C	1.016821	1.005248	0.408539
C67	C	1.321801	0.703702	0.000084
C68	C	1.425307	0.601366	0.000087
C69	C	1.016822	0.703729	0.305031
C70	C	1.016821	0.601403	0.408531
C71	C	1.321799	0.703716	0.305047
C72	C	1.425304	0.601385	0.408553
C73	C	0.711850	1.306743	-0.304901
C74	C	0.608344	1.409074	-0.408406
C75	C	0.711848	1.306757	0.000063
C76	C	0.608341	1.409092	0.000059
C77	C	1.016827	1.306730	-0.304885
C78	C	1.016828	1.409056	-0.408385
C79	C	1.414386	0.553286	-0.059462
C80	C	1.511645	0.457139	-0.059463
C81	C	1.630744	0.457156	0.059644
C82	C	1.533486	0.553308	0.059638
C83	C	1.076372	0.553328	0.516709
C84	C	1.076358	0.457190	0.613954
C85	C	0.957240	0.457208	0.494830
C86	C	0.957248	0.553350	0.397587
C87	C	1.533485	0.553302	0.397636
C88	C	1.630735	0.457159	0.494894
C89	C	1.511611	0.457187	0.613983
C90	C	1.414363	0.553334	0.516726
H91	H	1.124864	0.592441	-0.107981
C92	C	0.891733	0.606242	0.278584
H93	H	0.856264	0.563844	0.285992
H94	H	0.835385	0.697018	0.238179
H95	H	0.943142	0.590473	0.238173
C96	C	1.545514	0.606166	0.278649
H97	H	1.472104	0.670306	0.222287
H98	H	1.585924	0.643672	0.270121
H99	H	1.585925	0.537126	0.270127
H100	H	1.502717	0.418051	0.702067
H101	H	1.100021	1.118643	-0.499054
H102	H	0.632228	0.891806	-0.083288
H103	H	1.124872	0.417997	-0.107958
H104	H	0.401194	1.118737	-0.197908
C105	C	1.141887	0.606196	0.528741
H106	H	1.133374	0.670333	0.455334
H107	H	1.112478	0.643708	0.569147
H108	H	1.220240	0.537157	0.569153
C109	C	1.295358	0.606227	0.528734
H110	H	1.302768	0.563828	0.607085
H111	H	1.254946	0.697003	0.493266
H112	H	1.254949	0.590458	0.493269
H113	H	1.718819	0.418014	0.485997
H114	H	1.326305	0.592424	-0.107963
C115	C	0.891744	0.606232	0.125110
H116	H	0.900279	0.670377	0.116578
H117	H	0.813397	0.643745	0.095688
H118	H	0.921146	0.537220	0.203467
H119	H	0.573802	0.778079	0.114863
C120	C	1.141861	0.404308	0.732948
H121	H	1.133316	0.340177	0.789298
H122	H	1.220213	0.366787	0.741491
H123	H	1.112446	0.473344	0.741475
H124	H	1.214784	0.891719	-0.500689
C125	C	1.499633	0.404246	-0.124960
H126	H	1.573047	0.340107	-0.116439
H127	H	1.459230	0.366732	-0.095551
H128	H	1.459222	0.473274	-0.203313
C129	C	0.891762	0.404288	0.125139
H130	H	0.900278	0.340147	0.116604
H131	H	0.921168	0.366782	0.203485
H132	H	0.813409	0.473327	0.095717
C133	C	1.749736	0.404273	0.125167
H134	H	1.742308	0.446687	0.160626
H135	H	1.790143	0.313500	0.181521
H136	H	1.790159	0.420030	0.073770
H137	H	0.460104	1.232254	-0.114819
C138	C	1.545500	0.606197	0.125148
H139	H	1.623855	0.563793	0.160628
H140	H	1.510032	0.696973	0.073744
H141	H	1.510035	0.590432	0.181502
H142	H	0.908741	0.418069	0.485933
C143	C	0.651212	0.873602	0.229788
H144	H	0.607879	0.917444	0.261693
H145	H	0.673086	0.786668	0.274308
H146	H	0.717275	0.873451	0.228916
H147	H	1.131559	0.778208	-0.327016
C148	C	0.382499	1.136979	0.096605
H149	H	0.359499	1.224363	0.052313
H150	H	0.317122	1.135784	0.096906
H151	H	0.426319	1.094137	0.172359
H152	H	0.933648	0.891722	-0.500738
H153	H	0.901855	1.232380	-0.672705
C154	C	0.786899	1.136885	-0.498960
H155	H	0.787653	1.136407	-0.432726
H156	H	0.742615	1.224028	-0.564705
H157	H	0.754808	1.093496	-0.498750
