data_functionalizedCrystal
_audit_creation_method	'MofGen! by Chris Wilmer'
_symmetry_space_group_name_H-M	'P1'
_symmetry_Int_Tables_number	1
_symmetry_cell_setting	triclinic
loop_
_symmetry_equiv_pos_as_xyz
  x,y,z
_cell_length_a	27.435584
_cell_length_b	27.434948
_cell_length_c	27.431174
_cell_angle_alpha	60.005483
_cell_angle_beta	60.011353
_cell_angle_gamma	59.993028
loop_
_atom_site_label
_atom_site_type_symbol
_atom_site_fract_x
_atom_site_fract_y
_atom_site_fract_z
O1	O	0.067437	-0.712144	0.595551
O2	O	0.025356	-0.554453	0.479848
O3	O	0.125206	-0.654236	0.479781
O4	O	-0.032412	-0.612361	0.595618
O5	O	0.158328	-0.621117	0.512835
O6	O	0.058479	-0.521333	0.512902
O7	O	0.100560	-0.679025	0.628605
Zn8	Zn	0.084778	-0.594921	0.576001
Zn9	Zn	0.041138	-0.638557	0.532452
O10	O	0.000710	-0.579241	0.628672
N11	N	0.114563	-0.565144	0.605726
N12	N	0.011358	-0.668338	0.502727
C13	C	0.156385	-0.523520	0.904506
C14	C	0.413419	-0.523497	0.647322
C15	C	0.156253	-0.523488	0.647384
C16	C	0.156238	-0.266354	0.647407
C17	C	0.197637	-0.390463	0.688753
C18	C	0.197646	-0.482126	0.688741
C19	C	0.220575	-0.459215	0.711654
C20	C	0.320555	-0.441991	0.659023
C21	C	0.383051	-0.462825	0.638179
C22	C	0.383069	-0.563942	0.676737
C23	C	0.320575	-0.543107	0.697583
C24	C	0.212704	-0.359206	0.627313
C25	C	0.191849	-0.296705	0.606496
C26	C	0.140866	-0.296722	0.708562
C27	C	0.161721	-0.359223	0.729379
C28	C	0.136200	-0.467030	0.703858
C29	C	0.115361	-0.487857	0.683021
C30	C	0.217408	-0.538877	0.631968
C31	C	0.238249	-0.518050	0.652796
C32	C	0.136259	-0.467047	0.811668
C33	C	0.115461	-0.487892	0.874167
C34	C	0.217537	-0.538923	0.874131
C35	C	0.238333	-0.518080	0.811631
C36	C	0.197693	-0.482140	0.780401
C37	C	0.289320	-0.482131	0.688723
C38	C	0.132699	-0.546027	0.973247
C39	C	0.482158	-0.545613	0.624075
C40	C	0.132521	-0.546006	0.624886
C41	C	0.132917	-0.197607	0.625310
C42	C	-0.098217	-0.686189	0.484419
C43	C	-0.006438	-0.686322	0.392891
C44	C	-0.006621	-0.777944	0.484592
C45	C	-0.006606	-0.686315	0.484649
C46	C	-0.029470	-0.709193	0.461638
N47	N	0.538410	-0.565162	0.605628
O48	O	0.742647	-0.575135	0.458625
O49	O	0.742821	-0.691181	0.616169
O50	O	0.742757	-0.690917	0.516248
O51	O	0.742711	-0.575399	0.558546
O52	O	0.643472	-0.657878	0.549405
O53	O	0.643536	-0.658142	0.649326
O54	O	0.643362	-0.542096	0.491782
Zn55	Zn	0.627685	-0.594873	0.575818
Zn56	Zn	0.758498	-0.638404	0.532133
O57	O	0.643426	-0.542360	0.591702
N58	N	0.847774	-0.668115	0.502317
N59	N	0.114542	-0.141354	0.605766
O60	O	-0.032397	0.062987	0.595660
O61	O	0.125155	0.062987	0.479633
O62	O	0.025219	0.062974	0.479910
O63	O	0.067539	0.063001	0.595383
O64	O	0.058343	-0.036320	0.513009
O65	O	0.158279	-0.036306	0.512732
O66	O	0.000728	-0.036306	0.628759
Zn67	Zn	0.084763	-0.052071	0.576000
Zn68	Zn	0.041120	0.078752	0.532392
O69	O	0.100664	-0.036292	0.628482
N70	N	0.011333	0.168036	0.502628
N71	N	0.114782	-0.565197	1.029501
O72	O	0.104681	-0.712124	1.233827
O73	O	-0.011334	-0.554523	1.233839
O74	O	-0.011066	-0.654443	1.233797
O75	O	0.104414	-0.612204	1.233869
O76	O	0.022028	-0.621336	1.134509
O77	O	0.021760	-0.521417	1.134551
O78	O	0.137775	-0.679018	1.134539
Zn79	Zn	0.085022	-0.594961	1.118780
Zn80	Zn	0.041420	-0.638580	1.249597
O81	O	0.137508	-0.579098	1.134580
N82	N	0.011658	-0.668350	1.338876
C83	C	0.037974	-0.518023	0.480435
C84	C	0.161625	-0.641592	0.480351
C85	C	0.087941	-0.715455	0.628017
C86	C	-0.035710	-0.591885	0.628101
C87	C	0.693199	-0.690642	0.652596
C88	C	0.693122	-0.690315	0.528855
C89	C	0.692981	-0.542634	0.455356
C90	C	0.693062	-0.542961	0.579095
C91	C	0.161524	0.013463	0.480164
C92	C	0.037807	0.013324	0.480547
C93	C	-0.035683	0.013341	0.628188
C94	C	0.088076	0.013357	0.627845
C95	C	-0.010764	-0.518114	1.184196
C96	C	-0.010426	-0.641846	1.184125
C97	C	0.137205	-0.715426	1.184182
C98	C	0.136875	-0.591687	1.184231
H99	H	0.065433	-0.475593	0.899616
O100	O	-0.053745	-0.652609	1.184155
C101	C	-0.104116	-0.645955	1.235546
H102	H	-0.089862	-0.652447	1.271532
H103	H	-0.125290	-0.680715	1.252752
H104	H	-0.137927	-0.599326	1.223910
H105	H	0.028987	-0.472723	0.444098
O106	O	0.215444	0.013713	0.436671
C107	C	0.260668	-0.037602	0.456843
H108	H	0.244407	-0.054937	0.507728
H109	H	0.302186	-0.025807	0.439358
H110	H	0.271980	-0.073556	0.439754
H111	H	-0.047187	-0.472851	1.184199
O112	O	0.180588	-0.769465	1.184202
C113	C	0.159107	-0.806602	1.184159
H114	H	0.108256	-0.790425	1.202947
H115	H	0.177412	-0.854432	1.212978
H116	H	0.174282	-0.804981	1.136517
O117	O	0.692940	-0.499239	0.401340
C118	C	0.692911	-0.520728	0.364192
H119	H	0.711754	-0.571581	0.380336
H120	H	0.721689	-0.502398	0.316361
H121	H	0.645269	-0.505580	0.365838
H122	H	0.173154	-0.582650	1.184245
H123	H	0.028745	0.013321	0.444270
H124	H	-0.080930	0.013340	0.664614
O125	O	0.215586	-0.652244	0.436897
C126	C	0.207741	-0.645540	0.386591
H127	H	0.164008	-0.652097	0.400962
H128	H	0.246449	-0.680231	0.365296
H129	H	0.206425	-0.598873	0.352838
O130	O	0.096697	-0.432163	0.781424
C131	C	0.038012	-0.423296	0.822423
H132	H	0.038149	-0.460980	0.866967
H133	H	0.008326	-0.422964	0.804376
H134	H	0.020108	-0.378775	0.829077
H135	H	0.097136	0.013366	0.664120
O136	O	0.693019	-0.499724	0.589997
C137	C	0.693088	-0.521478	0.648667
H138	H	0.674331	-0.559820	0.676913
H139	H	0.664254	-0.484097	0.668772
H140	H	0.740731	-0.538108	0.647761
H141	H	0.693242	-0.727072	0.697844
H142	H	0.250633	-0.568176	0.899553
H143	H	0.096930	-0.760753	0.664356
O144	O	-0.089740	-0.581133	0.671444
C145	C	-0.126839	-0.522474	0.649852
H146	H	-0.098087	-0.494128	0.611514
H147	H	-0.155440	-0.502481	0.687315
H148	H	-0.156987	-0.523379	0.633269
O149	O	0.693114	-0.733536	0.517971
C150	C	0.693078	-0.711793	0.459289
H151	H	0.674241	-0.660940	0.443599
H152	H	0.664262	-0.729988	0.458438
H153	H	0.740700	-0.726867	0.428381
O154	O	0.413343	-0.623197	0.685408
C155	C	0.372372	-0.654157	0.716077
H156	H	0.327829	-0.626894	0.741697
H157	H	0.390451	-0.699230	0.748695
H158	H	0.365707	-0.661385	0.682642
H159	H	0.103135	-0.437780	0.733124
O160	O	0.298001	-0.532638	0.781194
C161	C	0.313087	-0.480125	0.745057
H162	H	0.271890	-0.440852	0.735710
H163	H	0.349314	-0.485712	0.701101
H164	H	0.330256	-0.471349	0.769138
O165	O	0.055654	-0.473166	0.697784
C166	C	0.024283	-0.436985	0.733969
H167	H	0.054107	-0.444962	0.756677
H168	H	-0.017405	-0.448711	0.769339
H169	H	0.010778	-0.388026	0.705152
H170	H	0.149444	-0.384673	0.779411
O171	O	0.256884	-0.573682	0.596967
C172	C	0.292998	-0.542113	0.544564
H173	H	0.268844	-0.492112	0.535892
H174	H	0.302443	-0.553284	0.505186
H175	H	0.336909	-0.555415	0.550239
O176	O	0.290139	-0.582023	0.726466
C177	C	0.228276	-0.550558	0.742954
H178	H	0.219740	-0.506670	0.745643
H179	H	0.204544	-0.578620	0.788348
H180	H	0.210521	-0.540941	0.708204
O181	O	0.413302	-0.423750	0.609315
C182	C	0.372313	-0.365464	0.605978
H183	H	0.327759	-0.363027	0.610080
H184	H	0.390353	-0.332437	0.561309
H185	H	0.365684	-0.353798	0.643843
O186	O	0.247562	-0.389461	0.587771
C187	C	0.256393	-0.348468	0.529077
H188	H	0.218707	-0.303918	0.529204
H189	H	0.256701	-0.366521	0.499408
H190	H	0.300911	-0.341818	0.511157
O191	O	0.206380	-0.266311	0.546816
C192	C	0.153852	-0.230145	0.531733
H193	H	0.116322	-0.248986	0.566971
H194	H	0.162066	-0.229424	0.486362
H195	H	0.140693	-0.182780	0.529667
O196	O	0.297930	-0.532602	0.638051
C197	C	0.312997	-0.480079	0.606615
H198	H	0.277745	-0.442536	0.585478
H199	H	0.358357	-0.488301	0.570186
H200	H	0.315074	-0.466929	0.638758
H201	H	0.111630	-0.271286	0.741644
H202	H	0.295112	-0.392340	0.651807
