data_functionalizedCrystal
_audit_creation_method	'MofGen! by Chris Wilmer'
_symmetry_space_group_name_H-M	'P1'
_symmetry_Int_Tables_number	1
_symmetry_cell_setting	triclinic
loop_
_symmetry_equiv_pos_as_xyz
  x,y,z
_cell_length_a	21.295417
_cell_length_b	21.295418
_cell_length_c	13.897441
_cell_angle_alpha	90.045201
_cell_angle_beta	89.963577
_cell_angle_gamma	89.951286
loop_
_atom_site_label
_atom_site_type_symbol
_atom_site_fract_x
_atom_site_fract_y
_atom_site_fract_z
Zn1	Zn	-0.250283	-0.962339	-0.545972
Zn2	Zn	0.249717	-0.462339	-0.045972
Zn3	Zn	-0.355562	-0.962247	-0.384657
Zn4	Zn	0.144438	-0.462247	0.115343
Zn5	Zn	-0.250344	-0.857067	-0.384622
Zn6	Zn	0.249656	-0.357067	0.115378
Zn7	Zn	-0.355552	-0.857032	-0.545841
Zn8	Zn	0.144448	-0.357032	-0.045841
O9	O	-0.302935	-0.909671	-0.465273
O10	O	0.197065	-0.409671	0.034727
O11	O	-0.264227	-1.050417	-0.524643
O12	O	0.235773	-0.550417	-0.024643
O13	O	-0.341635	-0.948270	-0.249671
O14	O	0.158365	-0.448270	0.250329
O15	O	-0.162247	-0.871086	-0.406065
O16	O	0.337753	-0.371086	0.093935
O17	O	-0.341575	-1.050348	-0.406126
O18	O	0.158425	-0.550348	0.093874
O19	O	-0.162202	-0.948429	-0.524609
O20	O	0.337798	-0.448429	-0.024609
O21	O	-0.264331	-0.870996	-0.249645
O22	O	0.235669	-0.370996	0.250355
O23	O	-0.264321	-0.768973	-0.405938
O24	O	0.235679	-0.268973	0.094062
O25	O	-0.341558	-0.871025	-0.680840
O26	O	0.158442	-0.371025	-0.180840
O27	O	-0.341617	-0.768947	-0.524385
O28	O	0.158383	-0.268947	-0.024385
O29	O	-0.264217	-0.948394	-0.680936
O30	O	0.235783	-0.448394	-0.180936
O31	O	-0.443650	-0.948236	-0.405998
O32	O	0.056350	-0.448236	0.094002
O33	O	-0.443643	-0.870935	-0.524419
O34	O	0.056357	-0.370935	-0.024419
C35	C	-0.302975	-0.746120	-0.465144
C36	C	0.197025	-0.246120	0.034856
C37	C	-0.303008	-0.676152	-0.465111
C38	C	0.196992	-0.176152	0.034889
C39	C	-0.343310	-0.643288	-0.526691
C40	C	0.156690	-0.143288	-0.026691
C41	C	-0.343297	-0.577545	-0.526727
C42	C	0.156703	-0.077545	-0.026727
C43	C	-0.302989	-0.544669	-0.465166
C44	C	0.197011	-0.044669	0.034834
C45	C	-0.262678	-0.577541	-0.403583
C46	C	0.237322	-0.077541	0.096417
C47	C	-0.262688	-0.643282	-0.403555
C48	C	0.237312	-0.143282	0.096445
N49	N	-0.298080	-0.441396	-0.380789
N50	N	0.201920	0.058604	0.119211
N51	N	-0.298075	-0.378944	-0.380818
N52	N	0.201925	0.121056	0.119182
C53	C	-0.302957	-0.346594	-0.465247
C54	C	0.197043	0.153406	0.034753
N55	N	-0.307857	-0.379055	-0.549648
N56	N	0.192143	0.120945	-0.049648
N57	N	-0.307865	-0.441513	-0.549618
N58	N	0.192135	0.058487	-0.049618
C59	C	-0.302974	-0.473384	-0.465190
C60	C	0.197026	0.026616	0.034810
C61	C	-0.343248	-0.242445	-0.526871
C62	C	0.156752	0.257555	-0.026871
C63	C	-0.343230	-0.176701	-0.526908
C64	C	0.156770	0.323299	-0.026908
C65	C	-0.262615	-0.176698	-0.403755
C66	C	0.237385	0.323302	0.096245
C67	C	-0.262629	-0.242441	-0.403726
C68	C	0.237371	0.257559	0.096274
C69	C	-0.302948	-0.275310	-0.465283
C70	C	0.197052	0.224690	0.034717
C71	C	-0.466487	-0.909589	-0.465219
C72	C	0.033513	-0.409589	0.034781
C73	C	-0.536455	-0.909611	-0.465229
C74	C	-0.036455	-0.409611	0.034771
C75	C	-0.569305	-0.949897	-0.403630
C76	C	-0.069305	-0.449897	0.096370
C77	C	-0.635047	-0.949927	-0.403652
C78	C	-0.135047	-0.449927	0.096348
C79	C	-0.667938	-0.909659	-0.465262
C80	C	-0.167938	-0.409659	0.034738
C81	C	-0.635080	-0.869370	-0.526873
C82	C	-0.135080	-0.369370	-0.026873
C83	C	-0.569339	-0.869346	-0.526856
C84	C	-0.069339	-0.369346	-0.026856
N85	N	-0.771220	-0.854592	-0.472572
N86	N	-0.271220	-0.354592	0.027428
N87	N	-0.833672	-0.854616	-0.472582
N88	N	-0.333672	-0.354616	0.027418
C89	C	-0.866012	-0.909729	-0.465317
C90	C	-0.366012	-0.409729	0.034683
N91	N	-0.833542	-0.964819	-0.458023
N92	N	-0.333542	-0.464819	0.041977
N93	N	-0.771085	-0.964793	-0.458008
N94	N	-0.271085	-0.464793	0.041992
C95	C	-0.739223	-0.909681	-0.465287
C96	C	-0.239223	-0.409681	0.034713
C97	C	-0.970147	-0.950051	-0.403739
C98	C	-0.470147	-0.450051	0.096261
C99	C	-1.035891	-0.950082	-0.403768
C100	C	-0.535891	-0.450082	0.096232
C101	C	-1.035923	-0.869519	-0.526983
C102	C	-0.535923	-0.369519	-0.026983
C103	C	-0.970180	-0.869494	-0.526960
C104	C	-0.470180	-0.369494	-0.026960
C105	C	-0.937296	-0.909759	-0.465333
C106	C	-0.437296	-0.409759	0.034667
C107	C	-0.138745	-0.909771	-0.465348
C108	C	0.361255	-0.409771	0.034652
C109	C	-0.068777	-0.909814	-0.465380
C110	C	0.431223	-0.409814	0.034620
C111	C	-0.302880	-0.909716	-0.716866
C112	C	0.197120	-0.409716	-0.216866
C113	C	-0.302856	-0.909735	-0.824080
C114	C	0.197144	-0.409735	-0.324080
C115	C	-0.302906	-0.073862	-0.465375
C116	C	0.197094	0.426138	0.034625
C117	C	-0.302921	-0.143830	-0.465348
C118	C	0.197079	0.356170	0.034652
C119	C	-0.302813	-0.909752	-1.020375
C120	C	0.197187	-0.409752	-0.520375
C121	C	-0.302839	-0.909741	-0.911143
C122	C	0.197161	-0.409741	-0.411143
C123	C	-0.302945	-0.909663	-0.214659
C124	C	0.197055	-0.409663	0.285341
C125	C	-0.302792	-0.909766	-0.107445
C126	C	0.197208	-0.409766	0.392555
H127	H	-0.229867	-0.670039	-0.353409
H128	H	0.270133	-0.170039	0.146591
C129	C	-0.218780	-0.141126	-0.336881
C130	C	0.281220	0.358874	0.163119
C131	C	-0.183477	-0.183982	-0.282957
C132	C	0.316523	0.316018	0.217043
C133	C	-0.143081	-0.151233	-0.221353
C134	C	0.356919	0.348767	0.278647
H135	H	-0.242751	-0.115423	-0.294710
H136	H	0.257249	0.384577	0.205290
H137	H	-0.191343	-0.115548	-0.373848
H138	H	0.308657	0.384452	0.126152
H139	H	-0.210910	-0.209549	-0.245992
H140	H	0.289090	0.290451	0.254008
H141	H	-0.159493	-0.209686	-0.325102
H142	H	0.340507	0.290314	0.174898
H143	H	-0.115644	-0.125655	-0.258321
H144	H	0.384356	0.374345	0.241679
H145	H	-0.167057	-0.125531	-0.179189
H146	H	0.332943	0.374469	0.320811
H147	H	-0.119119	-0.180306	-0.184765
H148	H	0.380881	0.319694	0.315235
H149	H	-0.542592	-0.836539	-0.577018
H150	H	-0.042592	-0.336539	-0.077018
H151	H	-0.661799	-0.982735	-0.353491
H152	H	-0.161799	-0.482735	0.146509
H153	H	-0.943372	-0.982840	-0.353561
H154	H	-0.443372	-0.482840	0.146439
H155	H	-0.376141	-0.670046	-0.576817
H156	H	0.123859	-0.170046	-0.076817
C157	C	-0.934592	-0.825782	-0.593987
C158	C	-0.434592	-0.325782	-0.093987
C159	C	-0.950528	-0.839448	-0.689456
C160	C	-0.450528	-0.339448	-0.189456
C161	C	-0.917763	-0.799188	-0.751231
C162	C	-0.417763	-0.299188	-0.251231
H163	H	-0.890719	-0.831493	-0.585285
H164	H	-0.390719	-0.331493	-0.085285
H165	H	-0.945439	-0.783486	-0.579841
H166	H	-0.445439	-0.283486	-0.079841
H167	H	-0.939676	-0.881734	-0.703597
H168	H	-0.439676	-0.381734	-0.203597
H169	H	-0.994395	-0.833733	-0.698188
H170	H	-0.494395	-0.333733	-0.198188
H171	H	-0.928611	-0.756891	-0.737086
H172	H	-0.428611	-0.256891	-0.237086
H173	H	-0.873892	-0.804902	-0.742521
H174	H	-0.373892	-0.304902	-0.242521
H175	H	-0.928576	-0.808450	-0.816014
H176	H	-0.428576	-0.308450	-0.316014
H177	H	-0.229813	-0.269199	-0.353577
H178	H	0.270187	0.230801	0.146423
H179	H	-1.062636	-0.982892	-0.353609
H180	H	-0.562636	-0.482892	0.146391
C181	C	-1.071737	-0.825825	-0.593776
C182	C	-0.571737	-0.325825	-0.093776
C183	C	-1.136343	-0.834459	-0.580595
C184	C	-0.636343	-0.334459	-0.080595
C185	C	-1.169358	-0.794215	-0.642104
C186	C	-0.669358	-0.294215	-0.142104
H187	H	-1.060992	-0.834973	-0.658639
H188	H	-0.560992	-0.334973	-0.158639
H189	H	-1.061060	-0.783516	-0.579563
H190	H	-0.561060	-0.283516	-0.079563
H191	H	-1.147015	-0.876758	-0.594814
H192	H	-0.647015	-0.376758	-0.094814
H193	H	-1.147107	-0.825307	-0.515744
H194	H	-0.647107	-0.325307	-0.015744
H195	H	-1.158681	-0.751906	-0.627891
H196	H	-0.658681	-0.251906	-0.127891
H197	H	-1.158607	-0.803366	-0.706964
H198	H	-0.658607	-0.303366	-0.206964
H199	H	-1.213196	-0.800063	-0.633163
H200	H	-0.713196	-0.300063	-0.133163
H201	H	-0.376075	-0.269209	-0.576999
H202	H	0.123925	0.230791	-0.076999
C203	C	-0.670900	-0.825673	-0.593659
C204	C	-0.170900	-0.325673	-0.093659
C205	C	-0.735505	-0.834303	-0.580470
C206	C	-0.235505	-0.334303	-0.080470
C207	C	-0.768521	-0.794056	-0.641973
C208	C	-0.268521	-0.294056	-0.141973
H209	H	-0.660158	-0.834820	-0.658524
H210	H	-0.160158	-0.334820	-0.158524
H211	H	-0.660220	-0.783365	-0.579445
H212	H	-0.160220	-0.283365	-0.079445
H213	H	-0.746181	-0.876601	-0.594691
H214	H	-0.246181	-0.376601	-0.094691
H215	H	-0.746265	-0.825152	-0.515618
H216	H	-0.246265	-0.325152	-0.015618
H217	H	-0.757840	-0.751748	-0.627759
H218	H	-0.257840	-0.251748	-0.127759
H219	H	-0.757774	-0.803206	-0.706835
H220	H	-0.257774	-0.303206	-0.206835
H221	H	-0.812359	-0.799902	-0.633027
H222	H	-0.312359	-0.299902	-0.133027
C223	C	-0.386991	-0.541741	-0.593547
C224	C	0.113009	-0.041741	-0.093547
C225	C	-0.378343	-0.477133	-0.580408
C226	C	0.121657	0.022867	-0.080408
C227	C	-0.418577	-0.444132	-0.641952
C228	C	0.081423	0.055868	-0.141952
H229	H	-0.429302	-0.552387	-0.579359
H230	H	0.070698	-0.052387	-0.079359
H231	H	-0.377831	-0.552529	-0.658403
H232	H	0.122169	-0.052529	-0.158403
H233	H	-0.387507	-0.466349	-0.515566
H234	H	0.112493	0.033651	-0.015566
H235	H	-0.336041	-0.466468	-0.594602
H236	H	0.163959	0.033532	-0.094602
H237	H	-0.409417	-0.454921	-0.706808
H238	H	0.090583	0.045079	-0.206808
H239	H	-0.460885	-0.454784	-0.627759
H240	H	0.039115	0.045216	-0.127759
H241	H	-0.412710	-0.400292	-0.633052
H242	H	0.087290	0.099708	-0.133052
H243	H	-0.229858	-0.550769	-0.353461
H244	H	0.270142	-0.050769	0.146539
H245	H	-0.376048	-0.149945	-0.577060
H246	H	0.123952	0.350055	-0.077060
H247	H	-0.542533	-0.982685	-0.353452
H248	H	-0.042533	-0.482685	0.146548
