data_functionalizedCrystal
_audit_creation_method	'MofGen! by Chris Wilmer'
_symmetry_space_group_name_H-M	'P1'
_symmetry_Int_Tables_number	1
_symmetry_cell_setting	triclinic
loop_
_symmetry_equiv_pos_as_xyz
  x,y,z
_cell_length_a	14.044191
_cell_length_b	12.503567
_cell_length_c	10.654550
_cell_angle_alpha	86.444345
_cell_angle_beta	91.161660
_cell_angle_gamma	86.157210
loop_
_atom_site_label
_atom_site_type_symbol
_atom_site_fract_x
_atom_site_fract_y
_atom_site_fract_z
O1	O	1.265126	-0.089263	-0.296380
O2	O	1.765126	0.410737	0.203620
O3	O	0.989085	-0.089277	-0.285437
O4	O	1.489085	0.410723	0.214563
O5	O	1.133452	-0.089266	-0.108807
O6	O	1.633452	0.410734	0.391193
O7	O	1.120759	-0.089275	-0.473009
O8	O	1.620759	0.410725	0.026991
O9	O	1.122581	0.089376	-0.122105
O10	O	1.622581	0.589376	0.377895
O11	O	0.978215	0.089364	-0.298734
O12	O	1.478215	0.589364	0.201266
O13	O	1.254255	0.089378	-0.309678
O14	O	1.754255	0.589378	0.190322
Cu15	Cu	1.115242	0.105683	-0.305420
Cu16	Cu	1.615242	0.605683	0.194580
Cu17	Cu	1.128098	-0.105582	-0.289694
Cu18	Cu	1.628098	0.394418	0.210306
O19	O	1.109889	0.089367	-0.486307
O20	O	1.609889	0.589367	0.013693
C21	C	0.948304	0.000042	-0.287298
C22	C	1.448304	0.500042	0.212702
C23	C	0.842985	0.000037	-0.273019
C24	C	1.342985	0.500037	0.226981
N25	N	1.106207	0.254275	-0.316481
N26	N	1.606207	0.754275	0.183519
C27	C	0.593192	0.000046	-0.348185
C28	C	1.093192	0.500046	0.151815
C29	C	0.650155	0.000046	-0.246934
C30	C	1.150155	0.500046	0.253066
C31	C	0.757455	0.000041	-0.261451
C32	C	1.257455	0.500041	0.238549
C33	C	0.485882	0.000051	-0.333670
C34	C	0.985882	0.500051	0.166330
C35	C	1.150422	0.526711	-0.262364
C36	C	1.650422	1.026711	0.237636
C37	C	1.092924	0.473383	-0.332752
C38	C	1.592924	0.973383	0.167248
C39	C	1.100317	0.351460	-0.323696
C40	C	1.600317	0.851460	0.176304
C41	C	1.143031	0.648645	-0.271418
C42	C	1.643031	1.148645	0.228582
C43	C	1.295037	0.000057	-0.307816
C44	C	1.795037	0.500057	0.192184
C45	C	1.400357	0.000055	-0.322095
C46	C	1.900357	0.500055	0.177905
C47	C	1.127085	0.000053	-0.068564
C48	C	1.627085	0.500053	0.431436
C49	C	1.124297	0.000050	0.071159
C50	C	1.624297	0.500050	0.571159
N51	N	1.137136	0.745826	-0.278639
N52	N	1.637136	1.245826	0.221361
C53	C	1.116256	0.000045	-0.526550
C54	C	1.616256	0.500045	-0.026550
C55	C	1.119045	0.000042	-0.666273
C56	C	1.619045	0.500042	-0.166273
C57	C	1.209297	0.000057	0.142100
C58	C	1.709297	0.500057	0.642100
C59	C	1.206672	0.000049	0.273385
C60	C	1.706672	0.500049	0.773385
C61	C	1.034037	0.000031	0.262777
C62	C	1.534037	0.500031	0.762777
C63	C	1.036664	0.000031	0.131495
C64	C	1.536664	0.500031	0.631495
C65	C	1.308967	0.000072	0.148225
C66	C	1.808967	0.500072	0.648225
C67	C	1.306341	0.000065	0.279511
C68	C	1.806341	0.500065	0.779511
H69	H	0.618343	-0.000027	-0.149343
H70	H	1.118343	0.499973	0.350657
H71	H	0.625007	0.000040	-0.445762
H72	H	1.125007	0.500040	0.054238
H73	H	1.339346	0.074826	0.311931
H74	H	1.839346	0.574826	0.811931
H75	H	1.038147	0.519294	-0.399816
H76	H	1.538147	1.019294	0.100184
H77	H	1.205197	0.480805	-0.195307
H78	H	1.705197	0.980805	0.304693
H79	H	0.962690	0.000016	0.311918
H80	H	1.462690	0.500016	0.811918
H81	H	1.336011	0.077208	0.103666
H82	H	1.836011	0.577208	0.603666
H83	H	1.352500	-0.074682	0.120513
H84	H	1.852500	0.425318	0.620513
C85	C	1.386898	-0.172420	0.253784
C86	C	1.886898	0.327580	0.753784
C87	C	1.353349	-0.104048	0.344803
C88	C	1.853349	0.395952	0.844803
H89	H	1.415923	-0.236689	0.294097
H90	H	1.915923	0.263311	0.794097
H91	H	1.335029	-0.189167	0.201595
H92	H	1.835029	0.310833	0.701595
H93	H	1.432509	-0.137776	0.203944
H94	H	1.932509	0.362224	0.703944
H95	H	1.307733	-0.138689	0.394638
H96	H	1.807733	0.361311	0.894638
H97	H	1.405225	-0.087303	0.397014
H98	H	1.905225	0.412697	0.897014
H99	H	0.967449	0.000010	0.073741
H100	H	1.467449	0.500010	0.573741
