data_functionalizedCrystal
_audit_creation_method	'MofGen! by Chris Wilmer'
_symmetry_space_group_name_H-M	'P1'
_symmetry_Int_Tables_number	1
_symmetry_cell_setting	triclinic
loop_
_symmetry_equiv_pos_as_xyz
  x,y,z
_cell_length_a	10.654554
_cell_length_b	10.654551
_cell_length_c	15.455313
_cell_angle_alpha	92.693835
_cell_angle_beta	87.294177
_cell_angle_gamma	84.486053
loop_
_atom_site_label
_atom_site_type_symbol
_atom_site_fract_x
_atom_site_fract_y
_atom_site_fract_z
O1	O	1.673293	0.170983	-0.072098
O2	O	1.307816	0.187782	-0.072105
O3	O	1.498957	-0.003357	-0.072102
O4	O	1.482152	0.362121	-0.072101
O5	O	1.488026	0.007528	0.072160
O6	O	1.296885	0.198667	0.072157
O7	O	1.662362	0.181867	0.072164
Cu8	Cu	1.478626	0.191261	0.085333
Cu9	Cu	1.491553	0.178389	-0.085274
O10	O	1.471222	0.373006	0.072161
C11	C	1.255553	0.191990	0.000025
C12	C	1.116110	0.188295	0.000022
C13	C	1.492258	-0.044712	0.000027
C14	C	1.488566	-0.184156	0.000021
C15	C	0.905601	0.297369	0.000030
C16	C	1.036623	0.300840	0.000023
C17	C	1.064570	0.072271	0.000019
C18	C	0.933550	0.068800	0.000019
C19	C	0.826120	0.409922	0.000040
C20	C	0.877651	0.525947	0.000042
C21	C	1.008673	0.529419	0.000035
C22	C	1.088164	0.416865	0.000027
C23	C	1.492792	-0.255601	-0.078615
C24	C	1.489311	-0.386621	-0.078611
C25	C	1.477383	-0.374740	0.078672
C26	C	1.480855	-0.243721	0.078667
C27	C	1.500502	-0.196036	-0.157260
C28	C	1.504730	-0.267482	-0.235902
C29	C	1.501250	-0.398502	-0.235898
C30	C	1.493541	-0.458077	-0.157252
C31	C	1.714626	0.177660	0.000032
C32	C	1.854069	0.181354	0.000029
C33	C	1.477921	0.414362	0.000030
C34	C	1.481613	0.553805	0.000030
N35	N	1.469543	0.200314	0.205328
N36	N	1.500645	0.169326	-0.205269
C37	C	1.550775	0.119142	0.250723
C38	C	1.543918	0.126000	0.341531
C39	C	1.455833	0.214037	0.386942
C40	C	1.374593	0.295213	0.341540
C41	C	1.381445	0.288348	0.250734
C42	C	1.426257	0.243636	0.658523
C43	C	1.419413	0.250498	0.749335
C44	C	1.588737	0.081282	0.749320
C45	C	1.595587	0.074430	0.658512
C46	C	1.514342	0.155601	0.613118
N47	N	1.448825	0.221052	0.479762
N48	N	1.521345	0.148579	0.520300
H49	H	0.719433	0.407109	0.000049
H50	H	1.503340	-0.089354	-0.157272
C51	C	1.706877	0.108079	0.443638
C52	C	1.633211	0.036784	0.391438
H53	H	1.761998	0.052997	0.474453
H54	H	1.755173	0.158090	0.408203
H55	H	1.653415	0.161487	0.483670
H56	H	1.686673	-0.016617	0.351402
H57	H	1.584911	-0.013249	0.426876
C58	C	1.468684	-0.245122	0.234135
C59	C	1.476183	-0.165175	0.165104
H60	H	1.465794	-0.196627	0.287497
H61	H	1.394485	-0.287545	0.230850
H62	H	1.540702	-0.305401	0.230879
H63	H	1.404161	-0.104902	0.168356
H64	H	1.550390	-0.122731	0.168390
H65	H	1.510994	-0.218967	-0.299933
H66	H	1.302866	0.366891	0.378519
C67	C	0.664397	0.622119	0.000059
C68	C	0.790281	0.649661	0.000049
H69	H	0.610462	0.698499	0.000067
H70	H	0.652476	0.570809	-0.050245
H71	H	0.644875	0.578388	0.050370
H72	H	0.809806	0.693384	-0.050266
H73	H	0.802208	0.700992	0.050358
H74	H	0.891593	-0.025670	0.000017
C75	C	1.717444	-0.047438	0.259839
C76	C	1.647599	0.022365	0.200812
H77	H	1.777212	-0.107192	0.229026
H78	H	1.760399	0.007938	0.295243
H79	H	1.662087	-0.090417	0.295270
H80	H	1.702955	0.065351	0.165386
H81	H	1.604642	-0.033019	0.165393
C82	C	1.762256	-0.092156	0.667622
C83	C	1.692405	-0.022351	0.608600
H84	H	1.822024	-0.151907	0.636806
H85	H	1.805211	-0.036781	0.703027
H86	H	1.706902	-0.135138	0.703053
H87	H	1.747758	0.020639	0.573173
H88	H	1.649448	-0.077734	0.573180
C89	C	1.213400	0.456310	0.259864
C90	C	1.292158	0.377581	0.200832
H91	H	1.158281	0.511402	0.229055
H92	H	1.165103	0.406289	0.295290
H93	H	1.263409	0.504648	0.295272
H94	H	1.242149	0.329236	0.165427
H95	H	1.340460	0.427608	0.165390
H96	H	1.504679	-0.456669	-0.299932
H97	H	1.194851	0.419700	0.000003
H98	H	1.471108	-0.423256	0.142701
C99	C	1.252690	0.417046	0.740234
C100	C	1.322565	0.347258	0.799253
H101	H	1.192898	0.476769	0.771053
H102	H	1.308015	0.460049	0.704809
H103	H	1.209751	0.361647	0.704823
H104	H	1.365512	0.402656	0.834660
H105	H	1.267232	0.304253	0.834692
C106	C	1.277824	-0.023893	0.000025
C107	C	1.151942	-0.051441	0.000020
H108	H	1.331759	-0.100270	0.000034
H109	H	1.297359	0.019825	-0.050280
H110	H	1.289727	0.027433	0.050335
H111	H	1.140036	-0.102759	-0.050293
H112	H	1.132400	-0.095178	0.050331
H113	H	1.050626	0.623891	0.000029
C114	C	1.361580	0.308271	0.519338
C115	C	1.336974	0.332879	0.608632
H116	H	1.306456	0.363369	0.488537
H117	H	1.446631	0.321556	0.504450
H118	H	1.348319	0.223201	0.504469
H119	H	1.350245	0.417946	0.623503
H120	H	1.251903	0.319604	0.623526
H121	H	1.490689	-0.564760	-0.157256
H122	H	1.654882	0.015195	0.786288
