data_functionalizedCrystal
_audit_creation_method	'MofGen! by Chris Wilmer'
_symmetry_space_group_name_H-M	'P1'
_symmetry_Int_Tables_number	1
_symmetry_cell_setting	triclinic
loop_
_symmetry_equiv_pos_as_xyz
  x,y,z
_cell_length_a	17.077404
_cell_length_b	19.120786
_cell_length_c	17.077395
_cell_angle_alpha	87.529859
_cell_angle_beta	89.984359
_cell_angle_gamma	92.465349
loop_
_atom_site_label
_atom_site_type_symbol
_atom_site_fract_x
_atom_site_fract_y
_atom_site_fract_z
Zn1	Zn	1.186679	-0.279635	-0.430494
Zn2	Zn	1.180989	-0.397096	-0.293620
Zn3	Zn	1.055419	-0.279657	-0.299240
Zn4	Zn	1.049775	-0.397057	-0.424846
O5	O	1.118216	-0.338361	-0.362050
O6	O	1.295771	-0.295223	-0.412349
O7	O	1.164313	-0.381543	-0.184518
O8	O	1.077574	-0.181364	-0.321367
O9	O	1.291591	-0.381522	-0.311788
O10	O	1.174010	-0.181347	-0.417798
O11	O	1.072057	-0.295261	-0.188647
O12	O	0.944824	-0.295223	-0.315891
O13	O	1.067955	-0.381455	-0.535443
O14	O	0.940677	-0.381476	-0.408172
O15	O	1.168538	-0.295185	-0.539593
O16	O	1.158841	-0.495381	-0.306312
O17	O	1.062438	-0.495352	-0.402723
C18	C	0.914268	-0.338348	-0.362029
C19	C	0.827018	-0.338360	-0.362038
C20	C	0.783886	-0.383340	-0.410005
C21	C	0.701906	-0.383341	-0.410017
C22	C	0.663058	-0.338366	-0.362058
C23	C	0.706196	-0.293381	-0.314089
C24	C	0.788175	-0.293377	-0.314081
C25	C	0.535326	-0.293395	-0.314107
C26	C	0.453341	-0.293400	-0.314113
C27	C	0.449056	-0.383360	-0.410044
C28	C	0.531035	-0.383355	-0.410036
C29	C	0.574167	-0.338371	-0.362065
C30	C	1.109431	-0.520852	-0.353312
C31	C	1.105744	-0.598923	-0.349599
C32	C	1.154184	-0.635532	-0.398103
C33	C	1.150717	-0.708887	-0.394616
C34	C	1.098814	-0.745633	-0.342622
C35	C	1.050368	-0.709019	-0.294117
C36	C	1.053832	-0.635665	-0.297608
C37	C	1.085842	-0.967119	-0.329571
C38	C	1.082384	-1.040478	-0.326082
C39	C	1.182732	-1.040341	-0.426583
C40	C	1.186194	-0.966986	-0.430066
C41	C	1.137746	-0.930378	-0.381564
C42	C	1.095270	-0.820614	-0.339055
C43	C	1.141286	-0.855398	-0.385135
C44	C	1.322959	-0.338374	-0.362072
C45	C	1.410209	-0.338380	-0.362081
C46	C	1.118252	-0.338313	-0.566797
C47	C	1.118267	-0.338293	-0.654047
C48	C	1.127056	-0.155157	-0.370840
C49	C	1.130824	-0.077087	-0.374585
C50	C	1.170732	-0.293277	-1.032029
C51	C	1.170715	-0.293302	-0.950047
C52	C	1.118335	-0.338227	-0.906900
C53	C	1.065974	-0.383135	-0.945738
C54	C	1.065996	-0.383113	-1.027718
C55	C	1.065931	-0.383176	-0.774866
C56	C	1.065909	-0.383196	-0.692880
C57	C	1.170651	-0.293364	-0.697195
C58	C	1.170672	-0.293342	-0.779175
C59	C	1.118310	-0.338250	-0.818008
C60	C	1.118227	-0.338358	-0.158102
C61	C	1.118374	-0.338180	-0.070861
H62	H	0.562662	-0.419982	-0.449084
H63	H	0.666791	-0.419969	-0.449077
H64	H	0.674561	-0.256758	-0.275043
H65	H	1.014386	-0.605858	-0.258112
H66	H	0.413934	-0.419985	-0.449105
H67	H	0.823293	-0.256746	-0.275025
H68	H	1.196453	-0.605619	-0.440439
C69	C	1.228291	-0.243921	-0.826635
N70	N	1.271693	-0.206698	-0.862382
C71	C	1.228254	-0.243970	-0.654477
N72	N	1.271639	-0.206766	-0.622298
C73	C	1.032529	-0.926860	-0.276234
N74	N	0.992365	-0.896534	-0.236065
H75	H	1.213352	-0.256739	-0.918433
H76	H	0.421714	-0.256769	-0.275070
C77	C	1.228356	-0.243856	-1.079483
N78	N	1.271762	-0.206632	-1.115224
H79	H	1.190168	-0.738691	-0.434107
C80	C	1.243307	-0.926571	-0.487250
N81	N	1.286332	-0.896131	-0.530314
H82	H	1.183543	-0.825478	-0.427472
C83	C	1.008299	-0.432626	-0.645419
N84	N	0.964909	-0.469861	-0.609672
H85	H	1.222175	-1.070155	-0.466072
H86	H	1.023329	-0.419717	-0.910601
H87	H	1.023295	-0.419746	-0.806481
H88	H	1.023361	-0.419679	-1.059335
H89	H	1.053012	-0.850540	-0.296719
H90	H	0.570442	-0.256758	-0.275052
H91	H	1.040114	-1.070394	-0.283741
H92	H	0.815510	-0.419966	-0.449057
C93	C	0.993321	-0.749441	-0.236874
N94	N	0.950372	-0.779887	-0.193739
