data_functionalizedCrystal
_audit_creation_method	'MofGen! by Chris Wilmer'
_symmetry_space_group_name_H-M	'P1'
_symmetry_Int_Tables_number	1
_symmetry_cell_setting	triclinic
loop_
_symmetry_equiv_pos_as_xyz
  x,y,z
_cell_length_a	10.540539
_cell_length_b	15.944551
_cell_length_c	9.616153
_cell_angle_alpha	89.996788
_cell_angle_beta	89.995174
_cell_angle_gamma	84.012115
loop_
_atom_site_label
_atom_site_type_symbol
_atom_site_fract_x
_atom_site_fract_y
_atom_site_fract_z
O1	O	1.684280	0.118370	-0.115583
O2	O	1.314716	0.129523	-0.115601
O3	O	1.509590	0.001731	-0.115579
O4	O	1.489406	0.246161	-0.115605
O5	O	1.509563	0.001734	0.115712
O6	O	1.314689	0.129525	0.115690
O7	O	1.684254	0.118372	0.115708
Zn8	Zn	1.499467	0.123949	0.152422
Zn9	Zn	1.499502	0.123946	-0.152315
O10	O	1.489379	0.246163	0.115686
C11	C	1.267411	0.128688	0.000043
C12	C	1.126497	0.126185	0.000036
C13	C	0.944375	0.030298	0.000587
C14	C	1.090959	0.032835	0.000051
C15	C	1.064228	0.171108	-0.132042
C16	C	0.917727	0.167922	-0.132138
C17	C	0.917182	0.169824	0.130883
C18	C	1.064152	0.170684	0.132615
C19	C	1.508739	-0.029566	0.000067
C20	C	1.506227	-0.122827	0.000067
C21	C	1.379430	-0.338440	0.000042
C22	C	1.438297	-0.399105	0.114086
C23	C	1.501682	-0.293580	0.000056
C24	C	1.438352	-0.399091	-0.113950
C25	C	1.497283	-0.458519	0.000040
C26	C	1.560583	-0.353017	0.114194
C27	C	1.560621	-0.352996	-0.113944
C28	C	1.619577	-0.413643	0.000128
C29	C	1.504213	-0.198563	0.000067
C30	C	1.494762	-0.553535	0.000039
C31	C	1.731559	0.119207	0.000061
C32	C	1.872473	0.121710	0.000058
C33	C	1.490231	0.277461	0.000037
C34	C	1.492743	0.370722	0.000027
N35	N	1.499452	0.123951	0.360396
N36	N	1.499527	0.123937	-0.360289
C37	C	1.394895	0.192081	0.580755
C38	C	1.395120	0.192337	0.419587
C39	C	1.631904	0.143890	0.418850
C40	C	1.631333	0.144372	0.580067
C41	C	1.472882	0.035659	0.580316
C42	C	1.469828	0.036231	0.419089
H43	H	1.133200	-0.002764	-0.094786
N44	N	1.369856	-0.426104	-0.241664
H45	H	1.429954	-0.465796	-0.298807
H46	H	1.293988	-0.455717	-0.212463
N47	N	1.754101	-0.456775	0.000202
H48	H	1.816609	-0.412886	0.001059
H49	H	1.767509	-0.493554	0.085543
N50	N	1.264710	0.176450	0.367226
H51	H	1.206560	0.169218	0.448874
H52	H	1.228232	0.225927	0.309036
H53	H	1.411676	0.257205	0.621247
N54	N	1.092609	0.261912	-0.138588
H55	H	1.146233	0.274834	-0.055799
H56	H	1.140599	0.271507	-0.227114
N57	N	0.905050	-0.018351	-0.124172
H58	H	0.951676	-0.076994	-0.123043
H59	H	0.810054	-0.022161	-0.120846
H60	H	1.612295	-0.332559	-0.210358
H61	H	1.711616	0.095612	0.380505
N62	N	1.148024	-0.013998	0.125456
H63	H	1.210702	-0.062507	0.093911
H64	H	1.193567	0.025664	0.184853
H65	H	1.107252	0.139900	-0.230331
H66	H	0.889980	0.134718	-0.230861
N67	N	1.095002	0.260838	0.143179
H68	H	1.150071	0.274173	0.061806
H69	H	1.013236	0.299970	0.142049
N70	N	1.417402	0.279167	0.368621
H71	H	1.502344	0.294186	0.404092
H72	H	1.417515	0.279745	0.263598
H73	H	1.296131	0.180269	0.619562
N74	N	1.629001	-0.326149	0.242060
H75	H	1.705398	-0.296981	0.213156
H76	H	1.569033	-0.286096	0.298721
N77	N	1.662432	0.229680	0.629864
H78	H	1.676380	0.266619	0.547089
H79	H	1.589287	0.256848	0.687547
N80	N	1.737520	0.081158	0.631738
H81	H	1.784501	0.053108	0.549784
H82	H	1.798691	0.111022	0.689956
N83	N	1.663740	0.228236	0.365342
H84	H	1.595827	0.273805	0.396241
H85	H	1.749161	0.240426	0.403547
N86	N	1.347716	0.010530	0.634226
H87	H	1.307013	0.056122	0.697708
H88	H	1.288915	0.002740	0.553388
H89	H	1.372395	0.021118	0.380886
H90	H	1.541078	-0.016915	0.378802
H91	H	1.549185	-0.015061	0.618440
H92	H	0.868844	0.235058	-0.138140
N93	N	0.853416	0.259138	0.132084
H94	H	0.877213	0.289255	0.044984
H95	H	0.757819	0.258188	0.135758
N96	N	0.907173	-0.018553	0.126060
H97	H	0.843344	0.018093	0.183780
H98	H	0.867847	-0.070431	0.094451
N99	N	0.875945	0.129813	0.263507
H100	H	0.779878	0.131752	0.265375
H101	H	0.914792	0.069227	0.267794
N102	N	1.118981	0.127218	0.262050
H103	H	1.100962	0.066236	0.261226
H104	H	1.214185	0.130241	0.264584
H105	H	1.386578	-0.419520	0.210495
N106	N	1.245018	-0.295120	0.000169
H107	H	1.198993	-0.311772	0.086392
H108	H	1.247762	-0.231996	-0.000767
