data_functionalizedCrystal
_audit_creation_method	'MofGen! by Chris Wilmer'
_symmetry_space_group_name_H-M	'P1'
_symmetry_Int_Tables_number	1
_symmetry_cell_setting	triclinic
loop_
_symmetry_equiv_pos_as_xyz
  x,y,z
_cell_length_a	19.188930
_cell_length_b	19.188940
_cell_length_c	15.021413
_cell_angle_alpha	90.003568
_cell_angle_beta	89.978833
_cell_angle_gamma	83.146747
loop_
_atom_site_label
_atom_site_type_symbol
_atom_site_fract_x
_atom_site_fract_y
_atom_site_fract_z
O1	O	0.926152	0.087158	-0.074319
O2	O	1.259485	0.420491	0.259014
O3	O	1.592818	0.753825	0.592348
O4	O	0.722841	0.098892	-0.074258
O5	O	1.056174	0.432225	0.259075
O6	O	1.389508	0.765559	0.592409
O7	O	0.830360	-0.008630	-0.074284
O8	O	1.163693	0.324703	0.259050
O9	O	1.497027	0.658036	0.592383
O10	O	0.818633	0.194680	-0.074294
O11	O	1.151966	0.528013	0.259040
O12	O	1.485299	0.861347	0.592373
O13	O	0.830343	-0.008615	0.073781
O14	O	1.163676	0.324718	0.407114
O15	O	1.497010	0.658052	0.740447
O16	O	0.722824	0.098907	0.073806
O17	O	1.056157	0.432241	0.407139
O18	O	1.389490	0.765574	0.740473
O19	O	0.926135	0.087173	0.073745
O20	O	1.259468	0.420507	0.407078
O21	O	1.592801	0.753840	0.740412
Zn22	Zn	0.824477	0.093043	0.097284
Zn23	Zn	1.157810	0.426376	0.430617
Zn24	Zn	1.491143	0.759709	0.763951
Zn25	Zn	0.824499	0.093023	-0.097797
Zn26	Zn	1.157832	0.426356	0.235536
Zn27	Zn	1.491166	0.759689	0.568870
O28	O	0.818616	0.194695	0.073771
O29	O	1.151949	0.528029	0.407104
O30	O	1.485282	0.861362	0.740437
C31	C	0.696821	0.098520	-0.000218
C32	C	1.030155	0.431853	0.333115
C33	C	1.363488	0.765186	0.666448
C34	C	0.619317	0.097379	-0.000195
C35	C	0.952650	0.430712	0.333139
C36	C	1.285983	0.764046	0.666472
C37	C	0.574395	0.160470	-0.000212
C38	C	0.907728	0.493803	0.333121
C39	C	1.241062	0.827136	0.666455
C40	C	0.501571	0.159398	-0.000222
C41	C	0.834905	0.492731	0.333112
C42	C	1.168238	0.826065	0.666445
C43	C	0.473672	0.095232	-0.000232
C44	C	0.807006	0.428565	0.333101
C45	C	1.140339	0.761899	0.666435
C46	C	0.518604	0.032133	-0.000210
C47	C	0.851937	0.365467	0.333123
C48	C	1.185271	0.698800	0.666457
C49	C	0.591426	0.033207	-0.000191
C50	C	0.924760	0.366540	0.333142
C51	C	1.258093	0.699873	0.666475
N52	N	0.365696	0.046180	-0.050658
N53	N	0.699030	0.379513	0.282675
N54	N	1.032363	0.712847	0.616008
N55	N	0.296518	0.045165	-0.050678
N56	N	0.629851	0.378498	0.282655
N57	N	0.963184	0.711831	0.615989
C58	C	0.254264	0.091994	-0.000286
C59	C	0.587597	0.425327	0.333047
C60	C	0.920930	0.758661	0.666380
N61	N	0.283800	0.139888	0.050114
N62	N	0.617134	0.473221	0.383448
N63	N	0.950467	0.806554	0.716781
N64	N	0.352985	0.140905	0.050130
N65	N	0.686318	0.474239	0.383463
N66	N	1.019652	0.807572	0.716797
C67	C	0.394710	0.094061	-0.000252
C68	C	0.728043	0.427394	0.333082
C69	C	1.061376	0.760728	0.666415
C70	C	0.130377	0.153927	-0.000313
C71	C	0.463711	0.487260	0.333021
C72	C	0.797044	0.820594	0.666354
C73	C	0.057553	0.152853	-0.000317
C74	C	0.390886	0.486186	0.333016
C75	C	0.724219	0.819519	0.666350
C76	C	0.074587	0.025586	-0.000314
C77	C	0.407920	0.358919	0.333019
C78	C	0.741254	0.692253	0.666352
C79	C	0.147410	0.026662	-0.000301
C80	C	0.480744	0.359996	0.333032
C81	C	0.814077	0.693329	0.666366
C82	C	0.175301	0.090835	-0.000305
C83	C	0.508634	0.424168	0.333029
C84	C	0.841967	0.757501	0.666362
C85	C	0.829970	-0.034633	-0.000251
C86	C	1.163304	0.298700	0.333082
C87	C	1.496637	0.632033	0.666415
C88	C	0.828827	-0.112138	-0.000252
C89	C	1.162160	0.221196	0.333082
C90	C	1.495494	0.554529	0.666415
C91	C	0.820683	-0.665389	0.080440
C92	C	1.154017	-0.332055	0.413773
C93	C	1.487350	0.001278	0.747106
C94	C	0.821750	-0.592564	0.080444
C95	C	1.155083	-0.259231	0.413778
C96	C	1.488417	0.074103	0.747111
C97	C	0.822296	-0.556153	-0.000265
C98	C	1.155629	-0.222820	0.333069
C99	C	1.488963	0.110514	0.666402
C100	C	0.821757	-0.592570	-0.080984
C101	C	1.155090	-0.259236	0.252349
C102	C	1.488424	0.074097	0.585682
C103	C	0.820683	-0.665392	-0.080987
C104	C	1.154017	-0.332059	0.252347
C105	C	1.487350	0.001275	0.585680
N106	N	0.863719	-0.447135	-0.060350
N107	N	1.197052	-0.113802	0.272983
N108	N	1.530386	0.219532	0.606316
N109	N	0.864741	-0.377957	-0.060343
N110	N	1.198074	-0.044624	0.272991
N111	N	1.531407	0.288709	0.606324
C112	C	0.825530	-0.336744	-0.000263
C113	C	1.158863	-0.003410	0.333071
C114	C	1.492196	0.329923	0.666404
N115	N	0.785267	-0.367322	0.059823
N116	N	1.118601	-0.033989	0.393156
N117	N	1.451934	0.299344	0.726490
N118	N	0.784249	-0.436507	0.059818
N119	N	1.117582	-0.103174	0.393151
N120	N	1.450915	0.230160	0.726485
C121	C	0.823460	-0.477189	-0.000271
C122	C	1.156793	-0.143856	0.333062
C123	C	1.490126	0.189477	0.666396
C124	C	0.827220	-0.221370	0.080457
C125	C	1.160553	0.111963	0.413790
C126	C	1.493887	0.445296	0.747124
C127	C	0.828282	-0.148544	0.080458
C128	C	1.161616	0.184789	0.413792
C129	C	1.494949	0.518123	0.747125
C130	C	0.828297	-0.148552	-0.080973
C131	C	1.161630	0.184781	0.252361
C132	C	1.494963	0.518115	0.585694
C133	C	0.827227	-0.221376	-0.080972
C134	C	1.160560	0.111957	0.252362
C135	C	1.493894	0.445291	0.585695
C136	C	0.826692	-0.257781	-0.000254
C137	C	1.160026	0.075552	0.333079
C138	C	1.493359	0.408885	0.666412
C139	C	0.952154	0.087546	-0.000297
C140	C	1.285488	0.420879	0.333037
C141	C	1.618821	0.754212	0.666370
C142	C	1.029659	0.088686	-0.000326
C143	C	1.362992	0.422020	0.333007
C144	C	1.696325	0.755353	0.666341
C145	C	0.819005	0.220699	-0.000263
C146	C	1.152338	0.554032	0.333070
C147	C	1.485672	0.887365	0.666403
C148	C	0.820148	0.298203	-0.000269
C149	C	1.153482	0.631536	0.333064
C150	C	1.486815	0.964870	0.666397
N151	N	0.824466	0.093056	0.230422
N152	N	1.157800	0.426389	0.563755
N153	N	1.491133	0.759723	0.897088
N154	N	0.824515	0.093004	-0.230935
N155	N	1.157848	0.426337	0.102399
N156	N	1.491182	0.759670	0.435732
C157	C	0.774742	0.142751	0.470117
C158	C	1.108075	0.476084	0.803450
C159	C	1.441409	0.809418	1.136783
C160	C	0.837791	0.156110	0.529431
C161	C	1.171124	0.489443	0.862764
C162	C	1.504457	0.822776	1.196098
C163	C	0.824484	0.093039	0.412028
C164	C	1.157818	0.426372	0.745362
C165	C	1.491151	0.759705	1.078695
C166	C	0.761452	0.079696	0.529456
C167	C	1.094786	0.413029	0.862789
C168	C	1.428119	0.746362	1.196122
C169	C	0.824496	0.093023	0.587453
C170	C	1.157829	0.426357	0.920786
C171	C	1.491162	0.759690	1.254119
C172	C	0.887565	0.106428	0.470037
C173	C	1.220898	0.439762	0.803370
C174	C	1.554231	0.773095	1.136703
C175	C	0.811185	0.029987	0.470056
C176	C	1.144518	0.363320	0.803389
C177	C	1.477852	0.696654	1.136723
C178	C	0.874279	0.043319	0.529344
C179	C	1.207613	0.376652	0.862677
C180	C	1.540946	0.709985	1.196010
C181	C	0.824476	0.093049	0.310971
C182	C	1.157810	0.426383	0.644305
C183	C	1.491143	0.759716	0.977638
C184	C	0.824511	0.093012	0.688508
C185	C	1.157844	0.426345	1.021841
C186	C	1.491177	0.759679	1.355174
H187	H	0.628002	-0.018171	-0.000178
H188	H	0.961336	0.315162	0.333155
H189	H	1.294669	0.648496	0.666489
N190	N	0.828864	-0.109270	0.167512
N191	N	1.162197	0.224063	0.500845
N192	N	1.495531	0.557397	0.834179
H193	H	0.786036	-0.073267	0.171134
H194	H	1.119370	0.260066	0.504468
H195	H	1.452703	0.593400	0.837801
H196	H	0.828391	-0.143433	0.218591
H197	H	1.161724	0.189901	0.551924
H198	H	1.495057	0.523234	0.885258
N199	N	0.160462	0.223139	-0.000311
N200	N	0.493795	0.556472	0.333023
N201	N	0.827129	0.889806	0.666356
H202	H	0.144044	0.250775	0.054575
H203	H	0.477377	0.584108	0.387909
H204	H	0.810711	0.917442	0.721242
H205	H	0.213407	0.214189	-0.000337
H206	H	0.546740	0.547523	0.332996
H207	H	0.880073	0.880856	0.666330
N208	N	0.453111	0.227450	-0.000243
N209	N	0.786445	0.560784	0.333090
N210	N	1.119778	0.894117	0.666423
H211	H	0.462088	0.255444	-0.055134
H212	H	0.795421	0.588777	0.278200
H213	H	1.128755	0.922110	0.611533
H214	H	0.402767	0.216974	-0.000223
H215	H	0.736100	0.550308	0.333110
H216	H	1.069434	0.883641	0.666443
H217	H	0.708143	0.068417	0.555558
H218	H	1.041476	0.401750	0.888891
H219	H	1.374809	0.735084	1.222224
N220	N	0.820085	-0.704649	0.167497
N221	N	1.153419	-0.371315	0.500830
N222	N	1.486752	-0.037982	0.834163
H223	H	0.819321	-0.756307	0.155252
H224	H	1.152654	-0.422973	0.488585
H225	H	1.485987	-0.089640	0.821918
H226	H	0.863541	-0.697713	0.202734
H227	H	1.196874	-0.364380	0.536068
H228	H	1.530207	-0.031047	0.869401
H229	H	0.020977	0.204231	-0.000326
H230	H	0.354311	0.537564	0.333008
H231	H	0.687644	0.870897	0.666341
H232	H	0.916396	0.001269	0.555186
H233	H	1.249729	0.334603	0.888519
H234	H	1.583062	0.667936	1.221853
H235	H	0.822172	-0.562913	0.146169
H236	H	1.155506	-0.229579	0.479503
H237	H	1.488839	0.103754	0.812836
N238	N	0.796252	-0.040614	0.435481
N239	N	1.129585	0.292720	0.768814
N240	N	1.462919	0.626053	1.102148
H241	H	0.748598	-0.050644	0.457058
H242	H	1.081931	0.282689	0.790391
H243	H	1.415264	0.616022	1.123725
H244	H	0.796856	-0.040172	0.368254
H245	H	1.130190	0.293161	0.701587
H246	H	1.463523	0.626494	1.034920
N247	N	0.044504	-0.043622	-0.000329
N248	N	0.377838	0.289712	0.333004
N249	N	0.711171	0.623045	0.666337
H250	H	0.084016	-0.083428	-0.000319
H251	H	0.417350	0.249905	0.333014
H252	H	0.750683	0.583239	0.666348
H253	H	0.014637	-0.046833	0.054554
H254	H	0.347971	0.286500	0.387887
H255	H	0.681304	0.619834	0.721221
H256	H	0.849050	0.209424	0.555511
H257	H	1.182383	0.542758	0.888845
H258	H	1.515717	0.876091	1.222178
N259	N	0.826667	-0.260651	-0.168024
N260	N	1.160000	0.072683	0.165309
N261	N	1.493333	0.406016	0.498642
H262	H	0.825904	-0.312308	-0.155780
H263	H	1.159238	0.021026	0.177554
H264	H	1.492571	0.354359	0.510887
H265	H	0.783586	-0.242133	-0.203258
H266	H	1.116919	0.091200	0.130075
H267	H	1.450252	0.424534	0.463409
N268	N	0.958198	0.121450	0.435621
N269	N	1.291531	0.454783	0.768954
N270	N	1.624865	0.788116	1.102288
H271	H	0.957752	0.121383	0.368387
H272	H	1.291085	0.454716	0.701720
H273	H	1.624418	0.788050	1.035053
H274	H	0.968322	0.168898	0.457808
H275	H	1.301656	0.502231	0.791141
H276	H	1.634989	0.835564	1.124475
H277	H	0.183987	-0.024713	-0.000292
H278	H	0.517320	0.308620	0.333041
H279	H	0.850653	0.641954	0.666375
N280	N	0.828890	-0.109289	-0.168024
N281	N	1.162224	0.224045	0.165310
N282	N	1.495557	0.557378	0.498643
H283	H	0.828392	-0.143408	-0.219155
H284	H	1.161725	0.189925	0.114178
H285	H	1.495059	0.523259	0.447512
H286	H	0.786063	-0.073284	-0.171525
H287	H	1.119396	0.260050	0.161808
H288	H	1.452729	0.593383	0.495142
H289	H	0.822199	-0.562919	-0.146698
H290	H	1.155532	-0.229585	0.186635
H291	H	1.488866	0.103748	0.519969
H292	H	0.820247	-0.695035	-0.146712
H293	H	1.153580	-0.361702	0.186622
H294	H	1.486914	-0.028369	0.519955
H295	H	0.826778	-0.251012	0.146182
H296	H	1.160112	0.082321	0.479515
H297	H	1.493445	0.415654	0.812848
N298	N	0.719071	0.198475	0.435671
N299	N	1.052404	0.531809	0.769004
N300	N	1.385738	0.865142	1.102337
H301	H	0.729216	0.246080	0.457273
H302	H	1.062549	0.579413	0.790607
H303	H	1.395882	0.912747	1.123940
H304	H	0.719182	0.197734	0.368443
H305	H	1.052515	0.531067	0.701776
H306	H	1.385849	0.864400	1.035109
H307	H	0.597098	0.212724	-0.000216
H308	H	0.930432	0.546057	0.333117
H309	H	1.263765	0.879390	0.666450
H310	H	0.495884	-0.020111	-0.000231
H311	H	0.829217	0.313222	0.333103
H312	H	1.162551	0.646556	0.666436
