data_functionalizedCrystal
_audit_creation_method	'MofGen! by Chris Wilmer'
_symmetry_space_group_name_H-M	'P1'
_symmetry_Int_Tables_number	1
_symmetry_cell_setting	triclinic
loop_
_symmetry_equiv_pos_as_xyz
  x,y,z
_cell_length_a	16.625545
_cell_length_b	12.759401
_cell_length_c	12.759393
_cell_angle_alpha	89.979062
_cell_angle_beta	90.032830
_cell_angle_gamma	89.972917
loop_
_atom_site_label
_atom_site_type_symbol
_atom_site_fract_x
_atom_site_fract_y
_atom_site_fract_z
Zn1	Zn	-0.320930	-1.606187	0.594003
Zn2	Zn	-0.455784	-1.606045	0.418316
Zn3	Zn	-0.320973	-1.430486	0.418338
Zn4	Zn	-0.455728	-1.430444	0.593953
O5	O	-0.388354	-1.518291	0.506153
O6	O	-0.338824	-1.753189	0.570709
O7	O	-0.437943	-1.582714	0.271298
O8	O	-0.208135	-1.453870	0.441671
O9	O	-0.437901	-1.753085	0.441633
O10	O	-0.208103	-1.582957	0.570731
O11	O	-0.338897	-1.453732	0.271314
O12	O	-0.338843	-1.283459	0.441622
O13	O	-0.437805	-1.453799	0.740981
O14	O	-0.437847	-1.283429	0.570646
O15	O	-0.338770	-1.582917	0.741018
O16	O	-0.568609	-1.582674	0.441585
O17	O	-0.568568	-1.453661	0.570624
C18	C	-0.388344	-1.245323	0.506132
C19	C	-0.388359	-1.128547	0.506148
C20	C	-0.388276	-1.518369	0.780186
C21	C	-0.388243	-1.518403	0.896963
C22	C	-0.597844	-1.518176	0.506120
C23	C	-0.687466	-1.518224	0.506141
C24	C	-0.760248	-1.518265	0.506161
C25	C	-0.851556	-1.518326	0.506185
C26	C	-0.924333	-1.518380	0.506198
C27	C	-1.015647	-1.518440	0.506219
C28	C	-0.178045	-1.518434	0.506209
C29	C	-0.088424	-1.518495	0.506233
C30	C	-0.388364	-1.792324	0.506174
C31	C	-0.388369	-1.909100	0.506183
C32	C	-0.439989	-1.073696	0.573225
C33	C	-0.439992	-0.963972	0.573245
C34	C	-0.336733	-0.963958	0.439104
C35	C	-0.336727	-1.073680	0.439089
C36	C	-0.468924	-0.814069	0.697104
C37	C	-0.520566	-0.759215	0.764172
C38	C	-0.599254	-0.794793	0.780116
C39	C	-0.626316	-0.885224	0.728976
C40	C	-0.574678	-0.940072	0.661901
C41	C	-0.495979	-0.904496	0.645977
C42	C	-0.307803	-1.223586	0.315228
C43	C	-0.256168	-1.278436	0.248147
C44	C	-0.177479	-1.242860	0.232193
C45	C	-0.150420	-1.152426	0.283313
C46	C	-0.202055	-1.097575	0.350395
C47	C	-0.280743	-1.133159	0.366351
C48	C	-0.388373	-1.518273	0.233185
C49	C	-0.388178	-1.518443	0.116409
C50	C	-0.336667	-1.585639	0.951846
C51	C	-0.336632	-1.585657	1.061570
C52	C	-0.439757	-1.451199	1.061519
C53	C	-0.439787	-1.451177	0.951797
C54	C	-0.241501	-1.623292	1.211553
C55	C	-0.189932	-1.690545	1.266439
C56	C	-0.177568	-1.793061	1.230849
C57	C	-0.216784	-1.828345	1.140373
C58	C	-0.268359	-1.761098	1.085492
C59	C	-0.280708	-1.658567	1.121081
C60	C	-0.534919	-1.413552	0.801811
C61	C	-0.586499	-1.346309	0.746929
C62	C	-0.598871	-1.243792	0.782517
C63	C	-0.559669	-1.208511	0.872996
C64	C	-0.508089	-1.275754	0.927879
C65	C	-0.495716	-1.378271	0.892283
H66	H	-0.482029	-1.118365	0.627831
H67	H	-0.294695	-1.640376	0.907203
F68	F	-0.653782	-1.172235	0.724114
F69	F	-0.173255	-1.001322	0.404798
F70	F	-0.310096	-1.798643	0.989209
H71	H	-0.294697	-0.919273	0.384505
F72	F	-0.628229	-1.383865	0.650638
F73	F	-0.254646	-1.514177	1.249430
H74	H	-0.086349	-1.123447	0.270306
H75	H	-0.569746	-1.125035	0.901976
H76	H	-0.135441	-1.287524	0.177560
F77	F	-0.203632	-1.937464	1.102510
F78	F	-0.654213	-0.736414	0.851500
F79	F	-0.122685	-1.864635	1.289268
H80	H	-0.524843	-1.497028	0.772821
H81	H	-0.596711	-1.013699	0.620264
H82	H	-0.690395	-0.914178	0.741954
H83	H	-0.278207	-1.352072	0.206521
F84	F	-0.491762	-0.662978	0.818599
F85	F	-0.391587	-1.261381	0.332102
F86	F	-0.148197	-1.652991	1.362727
F87	F	-0.494613	-1.379660	1.119886
F88	F	-0.385169	-0.776207	0.680156
H89	H	-0.476169	-1.247021	1.001552
