data_functionalizedCrystal
_audit_creation_method	'MofGen! by Chris Wilmer'
_symmetry_space_group_name_H-M	'P1'
_symmetry_Int_Tables_number	1
_symmetry_cell_setting	triclinic
loop_
_symmetry_equiv_pos_as_xyz
  x,y,z
_cell_length_a	10.723023
_cell_length_b	10.723023
_cell_length_c	7.088929
_cell_angle_alpha	83.717996
_cell_angle_beta	96.263548
_cell_angle_gamma	84.467548
loop_
_atom_site_label
_atom_site_type_symbol
_atom_site_fract_x
_atom_site_fract_y
_atom_site_fract_z
O1	O	1.644490	0.187739	-0.158964
O2	O	1.281337	0.204494	-0.158972
O3	O	1.471291	0.014540	-0.158960
O4	O	1.454535	0.377694	-0.158976
O5	O	1.496676	-0.010903	0.159017
O6	O	1.306722	0.179051	0.159005
O7	O	1.669875	0.162296	0.159013
Cu8	Cu	1.490616	0.168350	0.188042
Cu9	Cu	1.460595	0.198440	-0.188002
O10	O	1.479920	0.352250	0.159001
C11	C	1.247529	0.190554	0.000015
C12	C	1.108975	0.186907	0.000013
C13	C	0.890857	0.194691	-0.164709
C14	C	1.034060	0.198461	-0.164710
C15	C	1.482764	-0.044681	0.000026
C16	C	1.479116	-0.183235	0.000020
C17	C	1.464340	-0.231820	-0.164704
C18	C	1.460570	-0.375022	-0.164714
C19	C	1.703682	0.176237	0.000021
C20	C	1.842235	0.179885	0.000011
C21	C	1.468447	0.411472	0.000010
C22	C	1.472093	0.550027	0.000004
N23	N	1.511740	0.147186	0.452532
N24	N	1.439481	0.219594	-0.452491
H25	H	0.826468	0.204569	-0.305731
C26	C	1.090604	0.215596	-0.355227
H27	H	1.179435	0.215875	-0.330234
H28	H	1.054743	0.293382	-0.426495
H29	H	1.072536	0.148082	-0.426481
H30	H	1.488968	-0.247655	0.141039
H31	H	1.067118	0.174231	0.141043
H32	H	0.906626	0.169994	0.141033
C33	C	1.338310	0.320961	0.437215
H34	H	1.339747	0.319500	0.303709
H35	H	1.355283	0.401742	0.469921
H36	H	1.257473	0.304160	0.469942
H37	H	1.586642	0.072154	0.534192
H38	H	1.447919	-0.416856	-0.305741
C39	C	1.451022	-0.144804	-0.355216
H40	H	1.455313	-0.059972	-0.330216
H41	H	1.372131	-0.151481	-0.426487
H42	H	1.517430	-0.169269	-0.426470
H43	H	1.484757	-0.408150	0.141037
