data_functionalizedCrystal
_audit_creation_method	'MofGen! by Chris Wilmer'
_symmetry_space_group_name_H-M	'P1'
_symmetry_Int_Tables_number	1
_symmetry_cell_setting	triclinic
loop_
_symmetry_equiv_pos_as_xyz
  x,y,z
_cell_length_a	8.559649
_cell_length_b	10.540535
_cell_length_c	7.681481
_cell_angle_alpha	84.198721
_cell_angle_beta	94.913240
_cell_angle_gamma	77.151153
loop_
_atom_site_label
_atom_site_type_symbol
_atom_site_fract_x
_atom_site_fract_y
_atom_site_fract_z
O1	O	2.104687	-0.029542	-0.146399
O2	O	1.640227	0.035942	-0.146411
O3	O	1.883059	-0.182618	-0.146387
O4	O	1.861855	0.189018	-0.146423
O5	O	1.912947	-0.209574	0.146474
O6	O	1.670115	0.008986	0.146449
O7	O	2.134575	-0.056497	0.146462
Zn8	Zn	1.907090	-0.028035	0.192954
Zn9	Zn	1.867712	0.007480	-0.192903
O10	O	1.891743	0.162063	0.146438
C11	C	1.595698	0.027427	0.000018
C12	C	1.418486	0.042198	0.000014
C13	C	1.896415	-0.243233	0.000044
C14	C	1.891663	-0.383684	0.000046
C15	C	1.714366	-0.401791	0.000029
C16	C	1.709294	-0.547804	-0.000667
C17	C	1.955557	-0.586116	-0.166904
C18	C	1.959318	-0.439735	-0.167013
C19	C	1.995887	-0.470798	0.166037
C20	C	1.987908	-0.616485	0.168199
C21	C	2.179104	-0.047982	0.000029
C22	C	2.356315	-0.062752	0.000021
C23	C	1.878387	0.222678	0.000002
C24	C	1.883138	0.363130	-0.000011
N25	N	1.933977	-0.052275	0.456290
N26	N	1.840838	0.031708	-0.456240
H27	H	1.336130	0.143359	-0.000006
O28	O	1.714892	0.145257	0.444144
H29	H	1.649830	0.203940	0.539071
H30	H	1.881459	-0.599106	-0.291595
O31	O	2.157354	-0.700306	0.182215
H32	H	2.227960	-0.683544	0.302277
H33	H	1.935414	-0.649648	0.291669
O34	O	2.059935	-0.165833	0.555899
H35	H	2.056446	-0.162685	0.699537
O36	O	1.465387	-0.196747	0.000040
H37	H	1.391975	-0.271298	0.000035
H38	H	2.126494	-0.462409	0.167667
H39	H	1.651528	-0.580831	0.118934
H40	H	1.627404	-0.557884	-0.121025
O41	O	1.640336	-0.351355	0.158537
H42	H	1.729106	-0.312833	0.239024
H43	H	1.953478	-0.434203	0.292587
O44	O	1.609535	-0.320316	-0.158242
H45	H	1.657994	-0.352058	-0.280339
O46	O	1.862351	-0.362847	-0.332883
H47	H	1.813214	-0.430359	-0.412260
H48	H	2.088565	-0.429658	-0.174117
H49	H	2.082920	-0.646339	-0.172640
