data_functionalizedCrystal
_audit_creation_method	'MofGen! by Chris Wilmer'
_symmetry_space_group_name_H-M	'P1'
_symmetry_Int_Tables_number	1
_symmetry_cell_setting	triclinic
loop_
_symmetry_equiv_pos_as_xyz
  x,y,z
_cell_length_a	17.699083
_cell_length_b	14.519709
_cell_length_c	16.776229
_cell_angle_alpha	89.992406
_cell_angle_beta	89.998886
_cell_angle_gamma	83.481580
loop_
_atom_site_label
_atom_site_type_symbol
_atom_site_fract_x
_atom_site_fract_y
_atom_site_fract_z
O1	O	1.004412	0.116624	-0.066178
O2	O	0.784077	0.131797	-0.066204
O3	O	0.900087	-0.010052	-0.066183
O4	O	0.888403	0.258474	-0.066199
O5	O	0.900071	-0.010061	0.066393
O6	O	0.784062	0.131789	0.066372
O7	O	1.004397	0.116616	0.066398
Zn8	Zn	0.894227	0.124201	0.087435
Zn9	Zn	0.894247	0.124212	-0.087241
O10	O	0.888388	0.258465	0.066377
C11	C	0.755871	0.131249	0.000080
C12	C	0.671848	0.129618	0.000071
C13	C	0.623466	0.212881	0.000066
C14	C	0.544518	0.211343	0.000076
C15	C	0.513954	0.126541	0.000086
C16	C	0.562343	0.043272	0.000093
C17	C	0.641289	0.044811	0.000088
C18	C	0.243962	0.037064	0.000113
C19	C	0.165010	0.035531	0.000115
C20	C	0.147191	0.203596	0.000101
C21	C	0.226137	0.205135	0.000097
C22	C	0.274519	0.121866	0.000108
C23	C	0.360123	0.123535	0.000098
C24	C	0.428352	0.124872	0.000090
C25	C	0.899534	-0.044414	0.000105
C26	C	0.897903	-0.146789	0.000105
C27	C	0.891896	-0.521659	0.000084
C28	C	0.893564	-0.417358	0.000090
C29	C	0.894899	-0.334227	0.000095
C30	C	0.896568	-0.229920	0.000100
C31	C	1.032603	0.117164	0.000112
C32	C	1.116626	0.118795	0.000116
C33	C	0.888940	0.292827	0.000087
C34	C	0.890572	0.395202	0.000082
N35	N	0.894219	0.124192	0.206646
N36	N	0.894262	0.124213	-0.206452
C37	C	0.945603	0.061407	0.248372
C38	C	0.945607	0.061406	0.331824
C39	C	0.894230	0.124196	0.373549
C40	C	0.842840	0.186984	0.331816
C41	C	0.842833	0.186980	0.248366
C42	C	0.842867	0.187002	0.668364
C43	C	0.842880	0.187004	0.751820
C44	C	0.945642	0.061429	0.751822
C45	C	0.945635	0.061424	0.668372
C46	C	0.894242	0.124209	0.626647
C47	C	0.894238	0.124208	0.536158
C48	C	0.894238	0.124202	0.464036
H49	H	0.140129	-0.033529	0.000124
O50	O	0.995604	0.000392	0.372234
C51	C	1.097523	-0.124179	0.363429
C52	C	1.040948	-0.055117	0.317568
H53	H	1.134187	-0.169090	0.319252
H54	H	1.135431	-0.084452	0.402462
H55	H	1.064788	-0.170168	0.402535
H56	H	1.073621	-0.009112	0.278418
H57	H	1.003040	-0.094902	0.278585
O58	O	0.995630	0.000391	0.792232
C59	C	1.097522	-0.124211	0.783423
C60	C	1.040967	-0.055125	0.737564
H61	H	1.134181	-0.169127	0.739244
H62	H	1.135439	-0.084505	0.822465
H63	H	1.064773	-0.170192	0.822521
H64	H	1.073654	-0.009127	0.698423
H65	H	1.003050	-0.094889	0.698573
O66	O	0.532782	-0.039186	0.000135
C67	C	0.558796	-0.205727	0.000091
C68	C	0.592372	-0.112407	0.000068
H69	H	0.606957	-0.264950	0.000020
H70	H	0.522307	-0.210719	0.055587
H71	H	0.522255	-0.210592	-0.055379
H72	H	0.628946	-0.107478	0.055500
H73	H	0.628816	-0.107455	-0.055465
H74	H	0.283346	-0.030739	0.000123
H75	H	0.107789	0.271397	0.000096
H76	H	0.680683	-0.022990	0.000091
O77	O	0.995382	0.000257	0.627820
C78	C	1.011108	-0.125985	0.533868
C79	C	0.954726	-0.056659	0.579684
H80	H	0.978260	-0.172033	0.494953
H81	H	1.049045	-0.086481	0.494667
H82	H	1.047766	-0.170809	0.578119
H83	H	0.918017	-0.011817	0.535492
H84	H	0.916841	-0.096220	0.618898
O85	O	0.653061	0.295317	-0.000050
C86	C	0.662010	0.439420	-0.068769
C87	C	0.628432	0.346100	-0.068730
H88	H	0.642123	0.480496	-0.124299
H89	H	0.642072	0.480616	-0.013325
H90	H	0.726744	0.426200	-0.068735
H91	H	0.563697	0.359236	-0.068792
H92	H	0.648429	0.304933	-0.124169
O93	O	0.792922	0.248083	0.627963
C94	C	0.690966	0.372606	0.636775
C95	C	0.747501	0.303494	0.682632
H96	H	0.654217	0.417411	0.680955
H97	H	0.723655	0.418692	0.597714
H98	H	0.653133	0.332828	0.597697
H99	H	0.785348	0.343196	0.721753
H100	H	0.714765	0.257409	0.721643
H101	H	0.505128	0.279144	0.000072
O102	O	0.793004	0.247944	0.372468
C103	C	0.747443	0.303574	0.501025
C104	C	0.803933	0.234499	0.455089
H105	H	0.756248	0.292715	0.567831
H106	H	0.757399	0.377446	0.484661
H107	H	0.686816	0.291657	0.484580
H108	H	0.864581	0.246331	0.471509
H109	H	0.793910	0.160652	0.471456
H110	H	0.801040	0.238137	0.785791
H111	H	0.251017	0.274189	0.000085
O112	O	0.792891	0.248061	0.207954
C113	C	0.690932	0.372583	0.216753
C114	C	0.747465	0.303475	0.262618
H115	H	0.654179	0.417389	0.260929
H116	H	0.723623	0.418667	0.177693
H117	H	0.653103	0.332801	0.177674
H118	H	0.785308	0.343181	0.301740
H119	H	0.714727	0.257391	0.301627
H120	H	0.987444	0.010280	0.214406
