data_functionalizedCrystal
_audit_creation_method	'MofGen! by Chris Wilmer'
_symmetry_space_group_name_H-M	'P1'
_symmetry_Int_Tables_number	1
_symmetry_cell_setting	triclinic
loop_
_symmetry_equiv_pos_as_xyz
  x,y,z
_cell_length_a	10.540539
_cell_length_b	10.968094
_cell_length_c	10.065875
_cell_angle_alpha	93.118877
_cell_angle_beta	98.880198
_cell_angle_gamma	84.618857
loop_
_atom_site_label
_atom_site_type_symbol
_atom_site_fract_x
_atom_site_fract_y
_atom_site_fract_z
O1	O	0.221407	1.614766	0.266249
O2	O	0.225042	1.264758	0.183937
O3	O	0.038820	1.447747	0.226973
O4	O	0.407629	1.431777	0.223213
O5	O	0.074479	1.412855	0.445755
O6	O	0.260701	1.229866	0.402720
O7	O	0.257067	1.579874	0.485032
Zn8	Zn	0.264545	1.399330	0.478612
Zn9	Zn	0.217563	1.445302	0.190357
O10	O	0.443288	1.396885	0.441996
C11	C	0.239914	1.202494	0.282789
C12	C	0.231087	1.068950	0.251383
C13	C	0.236487	0.853307	0.318249
C14	C	0.245621	0.991328	0.350722
C15	C	0.009301	1.429104	0.336080
C16	C	-0.131784	1.425522	0.335230
C17	C	-0.320477	1.288295	0.302449
C18	C	-0.173642	1.291849	0.303796
C19	C	-0.170648	1.469925	0.475294
C20	C	-0.317348	1.465347	0.474327
C21	C	-0.358315	1.507744	0.226169
C22	C	-0.211555	1.509239	0.224807
C23	C	0.472807	1.415529	0.332886
C24	C	0.613890	1.419112	0.333727
C25	C	0.242194	1.642138	0.386177
C26	C	0.251019	1.775684	0.417574
N27	N	0.296609	1.367964	0.675341
N28	N	0.185489	1.476677	-0.006370
C29	C	0.228710	1.434381	0.758740
C30	C	0.253398	1.410251	0.910232
H31	H	-0.147548	1.255515	0.202333
C32	C	0.125486	1.535332	0.703706
H33	H	0.086082	1.573867	0.775673
H34	H	0.164699	1.594436	0.661846
H35	H	0.061975	1.499963	0.639660
H36	H	0.329806	1.335514	0.950977
C37	C	0.271547	1.039568	0.498087
H38	H	0.279466	0.972971	0.556192
H39	H	0.349150	1.079208	0.512498
H40	H	0.201993	1.096275	0.516488
H41	H	0.211884	1.033232	0.142299
H42	H	0.270216	0.811410	0.526650
C43	C	-0.337314	1.380989	0.585370
H44	H	-0.255870	1.349830	0.630642
H45	H	-0.384215	1.426260	0.647844
H46	H	-0.384155	1.314811	0.546119
H47	H	0.217276	0.817582	0.209174
C48	C	-0.100073	1.203680	0.408803
H49	H	-0.159914	1.165557	0.450813
H50	H	-0.048624	1.142808	0.365591
H51	H	-0.046306	1.248294	0.474814
C52	C	-0.175563	1.642532	0.245589
H53	H	-0.225201	1.690982	0.177506
H54	H	-0.192752	1.674051	0.331393
H55	H	-0.086535	1.644800	0.240679
H56	H	-0.402030	1.604429	0.248035
H57	H	-0.365675	1.249780	0.200438
H58	H	-0.360761	1.560578	0.502603
C59	C	0.082259	1.577633	0.938605
H60	H	0.042856	1.616166	1.010574
H61	H	0.121469	1.636739	0.896745
H62	H	0.018746	1.542265	0.874560
H63	H	-0.338151	1.221498	0.379173
C64	C	-0.094932	1.389519	0.586698
H65	H	-0.039607	1.328856	0.548122
H66	H	-0.044937	1.439232	0.650837
H67	H	-0.153553	1.350838	0.629845
C68	C	-0.134411	1.601531	0.512770
H69	H	-0.095158	1.630633	0.443165
H70	H	-0.209914	1.653200	0.523721
H71	H	-0.075779	1.601944	0.594540
H72	H	-0.406936	1.479583	0.121302
C73	C	-0.179002	1.465663	0.085012
H74	H	-0.117050	1.396743	0.093891
H75	H	-0.254977	1.443373	0.028873
H76	H	-0.144863	1.529990	0.046038
H77	H	0.373012	1.293233	0.716092
