data_functionalizedCrystal
_audit_creation_method	'MofGen! by Chris Wilmer'
_symmetry_space_group_name_H-M	'P1'
_symmetry_Int_Tables_number	1
_symmetry_cell_setting	triclinic
loop_
_symmetry_equiv_pos_as_xyz
  x,y,z
_cell_length_a	27.732048
_cell_length_b	15.538191
_cell_length_c	14.750779
_cell_angle_alpha	97.569385
_cell_angle_beta	77.459684
_cell_angle_gamma	64.957374
loop_
_atom_site_label
_atom_site_type_symbol
_atom_site_fract_x
_atom_site_fract_y
_atom_site_fract_z
O1	O	-0.607549	-0.132983	-0.079699
O2	O	-0.463818	-0.150077	-0.079727
O3	O	-0.563661	-0.003993	-0.079712
O4	O	-0.507706	-0.279067	-0.079714
O5	O	-0.591885	0.037298	0.079943
O6	O	-0.492042	-0.108785	0.079927
O7	O	-0.635773	-0.091692	0.079956
Zn8	Zn	-0.568388	-0.093683	0.105290
Zn9	Zn	-0.531203	-0.148086	-0.105062
O10	O	-0.535930	-0.237776	0.079941
C11	C	-0.459984	-0.129074	0.000097
C12	C	-0.406513	-0.127996	0.000086
C13	C	-0.639607	-0.112696	0.000130
C14	C	-0.693077	-0.113775	0.000135
C15	C	-0.054056	-0.207510	0.000127
C16	C	0.146914	-0.203501	0.000135
O17	O	0.190643	-0.276210	0.000176
N18	N	0.151172	-0.116882	0.000134
C19	C	0.105181	-0.031257	0.000137
O20	O	0.113413	0.042512	0.000146
C21	C	-0.095789	-0.035266	0.000135
C22	C	-0.100041	-0.121893	0.000127
C23	C	-0.058311	-0.294130	0.000119
C24	C	-0.108549	-0.295133	0.000112
C25	C	-0.154534	-0.209516	0.000112
C26	C	-0.150280	-0.122896	0.000119
C27	C	-0.141779	0.050359	0.000145
C28	C	-0.192024	0.049350	0.000147
C29	C	-0.196276	-0.037277	0.000139
C30	C	-0.246504	-0.038282	0.000112
N31	N	-0.250762	-0.124901	0.000113
C32	C	-0.204777	-0.210518	0.000113
C33	C	0.210696	-0.029160	0.000136
C34	C	0.260938	-0.028158	0.000135
C35	C	0.302667	-0.200401	0.000135
C36	C	0.252424	-0.201404	0.000129
C37	C	0.206438	-0.115779	0.000137
C38	C	-0.310283	-0.212617	0.000097
C39	C	-0.360528	-0.213614	0.000085
C40	C	-0.402253	-0.041369	0.000091
C41	C	-0.352012	-0.040374	0.000097
C42	C	-0.306027	-0.126005	0.000103
O43	O	-0.290256	0.034391	0.000082
O44	O	-0.213023	-0.284271	0.000125
C45	C	-0.003818	-0.206508	0.000134
C46	C	0.000437	-0.119888	0.000142
C47	C	-0.045548	-0.034271	0.000142
C48	C	0.050679	-0.118886	0.000140
C49	C	0.096664	-0.204503	0.000140
C50	C	0.092406	-0.291122	0.000141
C51	C	0.042167	-0.292125	0.000134
C52	C	-0.041290	0.052348	0.000141
C53	C	0.008951	0.053344	0.000147
C54	C	0.054935	-0.032273	0.000147
C55	C	-0.583627	0.051833	0.000113
C56	C	-0.601064	0.156659	0.000107
C57	C	-0.515964	-0.293602	0.000113
C58	C	-0.498525	-0.398430	0.000113
N59	N	-0.593770	-0.056553	0.248850
C60	C	-0.427818	0.441924	0.000094
C61	C	-0.444217	0.540430	0.000099
C62	C	-0.536455	0.564220	0.000117
C63	C	-0.520063	0.465713	0.000107
C64	C	-0.465744	0.404572	0.000096
C65	C	-0.557989	0.428361	0.000109
C66	C	-0.541599	0.329864	0.000104
C67	C	-0.487283	0.268718	0.000097
C68	C	-0.449354	0.306075	0.000091
C69	C	-0.612310	0.489505	0.000127
C70	C	-0.650236	0.452154	0.000129
C71	C	-0.633845	0.353653	0.000117
C72	C	-0.579528	0.292507	0.000110
C73	C	-0.671774	0.316296	0.000123
C74	C	-0.655383	0.217799	0.000118
C75	C	-0.563138	0.194010	0.000105
N76	N	-0.505826	-0.185208	-0.248621
C77	C	-0.434945	-0.288864	0.600644
C78	C	-0.452733	-0.262852	0.701146
C79	C	-0.541150	-0.133542	0.701122
C80	C	-0.523367	-0.159540	0.600618
C81	C	-0.470265	-0.237203	0.550387
C82	C	-0.558687	-0.107879	0.550361
C83	C	-0.540908	-0.133878	0.449866
C84	C	-0.487808	-0.211539	0.399628
C85	C	-0.452485	-0.263202	0.449892
C86	C	-0.611791	-0.030221	0.600594
C87	C	-0.647111	0.021441	0.550337
C88	C	-0.629330	-0.004554	0.449840
C89	C	-0.576230	-0.082215	0.399602
C90	C	-0.664653	0.047109	0.399576
C91	C	-0.646873	0.021109	0.299081
C92	C	-0.558450	-0.108215	0.299107
H93	H	-0.363985	-0.284159	0.000078
H94	H	-0.423967	-0.304929	0.742060
H95	H	-0.518905	0.144224	0.000089
H96	H	-0.690349	0.084672	0.591246
H97	H	-0.413331	0.570839	0.000111
H98	H	-0.694463	0.501948	0.000141
C99	C	-0.468605	-0.239764	0.290517
C100	C	-0.505065	-0.266802	0.257251
C101	C	-0.487397	-0.292797	0.156745
H102	H	-0.431939	-0.293438	0.267677
H103	H	-0.468566	-0.185370	0.267745
H104	H	-0.505098	-0.321192	0.280013
H105	H	-0.541733	-0.213143	0.280065
H106	H	-0.487358	-0.238402	0.133973
H107	H	-0.450730	-0.346469	0.133914
H108	H	-0.512135	-0.311137	0.134161
H109	H	-0.716002	0.366094	0.000141
H110	H	-0.686267	0.187388	0.000121
H111	H	-0.626267	-0.009058	0.682423
H112	H	-0.020872	-0.363853	0.000122
H113	H	-0.138328	0.120900	0.000153
H114	H	-0.272847	-0.282346	0.000105
C115	C	-0.595419	0.630455	-0.000026
C116	C	-0.604737	0.592418	-0.082154
C117	C	-0.659050	0.653397	-0.082316
H118	H	-0.599814	0.694487	-0.000072
H119	H	-0.621547	0.633576	0.055619
H120	H	-0.578617	0.589308	-0.137785
H121	H	-0.600354	0.528394	-0.082126
H122	H	-0.685178	0.656518	-0.026671
H123	H	-0.663441	0.717426	-0.082360
H124	H	-0.665382	0.627593	-0.138034
H125	H	-0.473940	0.188517	0.000098
H126	H	-0.391701	-0.352098	0.559744
C127	C	-0.394819	-0.347582	0.395519
C128	C	-0.367693	-0.387277	0.461038
C129	C	-0.314577	-0.465014	0.410985
H130	H	-0.373614	-0.324129	0.356314
H131	H	-0.398396	-0.396851	0.356335
H132	H	-0.364114	-0.338017	0.500205
H133	H	-0.388881	-0.410750	0.500245
H134	H	-0.318154	-0.514283	0.371801
H135	H	-0.293377	-0.441553	0.371782
H136	H	-0.296167	-0.491962	0.455432
C137	C	-0.598780	-0.049099	0.755545
C138	C	-0.602878	0.037267	0.731078
C139	C	-0.655960	0.115078	0.781184
H140	H	-0.604369	-0.040878	0.822608
H141	H	-0.626421	-0.063119	0.739051
H142	H	-0.575245	0.051284	0.747579
H143	H	-0.597300	0.029078	0.664024
H144	H	-0.683600	0.101059	0.764689
H145	H	-0.661544	0.123289	0.848244
H146	H	-0.658749	0.173684	0.764583
C147	C	-0.722276	0.131423	0.454293
C148	C	-0.730283	0.143145	0.553059
C149	C	-0.783356	0.220814	0.603492
H150	H	-0.749947	0.117430	0.437926
H151	H	-0.725171	0.190160	0.437883
H152	H	-0.727393	0.084421	0.569462
H153	H	-0.702625	0.157153	0.569454
H154	H	-0.786251	0.279551	0.587082
H155	H	-0.811022	0.206813	0.587118
H156	H	-0.788794	0.228783	0.670510
H157	H	-0.383585	0.392137	0.000078
H158	H	-0.675635	0.063177	0.258161
H159	H	-0.112005	-0.365674	0.000104
H160	H	0.248967	-0.271942	0.000127
C161	C	0.160718	0.063830	0.000331
C162	C	0.116130	0.089562	0.082480
C163	C	0.070087	0.175223	0.082692
H164	H	0.150023	0.052729	-0.055280
H165	H	0.170424	0.115595	0.000378
H166	H	0.106424	0.037809	0.082424
H167	H	0.126806	0.100683	0.138104
H168	H	0.079793	0.226988	0.082739
H169	H	0.059398	0.164113	0.027077
H170	H	0.039830	0.192698	0.138433
H171	H	-0.625651	0.569705	0.000122
H172	H	-0.515207	-0.171449	0.258207
H173	H	0.340117	-0.270114	0.000135
H174	H	0.264397	0.042379	0.000127
H175	H	-0.405121	0.256288	0.000076
C176	C	-0.241880	0.142405	0.000101
C177	C	-0.227391	0.218468	0.000083
C178	C	-0.273299	0.304198	0.000022
H179	H	-0.272226	0.160127	0.055757
H180	H	-0.252497	0.131243	-0.055600
H181	H	-0.216781	0.229630	0.055778
H182	H	-0.197052	0.200779	-0.055570
H183	H	-0.283917	0.293036	-0.055679
H184	H	-0.303643	0.321910	0.055680
H185	H	-0.263474	0.355814	0.000001
H186	H	-0.439702	0.028337	0.000087
H187	H	-0.348548	0.030161	0.000090
H188	H	-0.078729	0.122071	0.000143
C189	C	0.037656	-0.386262	0.000181
C190	C	0.088682	-0.461010	0.000208
C191	C	0.084550	-0.547743	0.000266
H192	H	0.028800	-0.404772	-0.055480
H193	H	0.009099	-0.375884	0.055878
H194	H	0.117230	-0.471388	-0.055484
H195	H	0.097548	-0.442532	0.055864
H196	H	0.055993	-0.537365	0.055963
H197	H	0.075692	-0.566244	-0.055395
H198	H	0.119168	-0.598467	0.000293
H199	H	0.129857	-0.360835	0.000137
H200	H	0.012406	0.123889	0.000146
