data_functionalizedCrystal
_audit_creation_method	'MofGen! by Chris Wilmer'
_symmetry_space_group_name_H-M	'P1'
_symmetry_Int_Tables_number	1
_symmetry_cell_setting	triclinic
loop_
_symmetry_equiv_pos_as_xyz
  x,y,z
_cell_length_a	16.625547
_cell_length_b	16.625545
_cell_length_c	21.395356
_cell_angle_alpha	89.974643
_cell_angle_beta	89.972180
_cell_angle_gamma	90.025495
loop_
_atom_site_label
_atom_site_type_symbol
_atom_site_fract_x
_atom_site_fract_y
_atom_site_fract_z
Zn1	Zn	1.232687	-0.321023	-0.354342
Zn2	Zn	1.732687	0.178977	0.145658
Zn3	Zn	1.232576	-0.455860	-0.249569
Zn4	Zn	1.732576	0.044140	0.250431
Zn5	Zn	1.097842	-0.321045	-0.249571
Zn6	Zn	1.597842	0.178955	0.250429
Zn7	Zn	1.097812	-0.455818	-0.354301
Zn8	Zn	1.597812	0.044182	0.145699
O9	O	1.165229	-0.388436	-0.301946
O10	O	1.665229	0.111564	0.198054
O11	O	1.345505	-0.338918	-0.340460
O12	O	1.845505	0.161082	0.159540
O13	O	1.214669	-0.438003	-0.161891
O14	O	1.714669	0.061997	0.338109
O15	O	1.115788	-0.208210	-0.263487
O16	O	1.615788	0.291790	0.236513
O17	O	1.345423	-0.437982	-0.263484
O18	O	1.845423	0.062018	0.236516
O19	O	1.214859	-0.208194	-0.340462
O20	O	1.714859	0.291806	0.159538
O21	O	1.115681	-0.338955	-0.161893
O22	O	1.615681	0.161045	0.338107
O23	O	0.985005	-0.338914	-0.263448
O24	O	1.485005	0.161086	0.236552
O25	O	1.115737	-0.437910	-0.441985
O26	O	1.615737	0.062090	0.058015
O27	O	0.984984	-0.437931	-0.340393
O28	O	1.484984	0.062069	0.159607
O29	O	1.214830	-0.338877	-0.442015
O30	O	1.714830	0.161123	0.057985
O31	O	1.214640	-0.568687	-0.263444
O32	O	1.714640	-0.068687	0.236556
O33	O	1.115630	-0.568656	-0.340391
O34	O	1.615630	-0.068656	0.159609
C35	C	0.955738	-0.388421	-0.301916
C36	C	1.455738	0.111579	0.198084
C37	C	0.866117	-0.388434	-0.301919
C38	C	1.366117	0.111566	0.198081
C39	C	0.793335	-0.388435	-0.301926
C40	C	1.293335	0.111565	0.198074
C41	C	0.702026	-0.388439	-0.301942
C42	C	1.202026	0.111561	0.198058
C43	C	0.629250	-0.388447	-0.301958
C44	C	1.129250	0.111553	0.198042
C45	C	0.537936	-0.388452	-0.301973
C46	C	1.037936	0.111548	0.198027
C47	C	1.165142	-0.597927	-0.301926
C48	C	1.665142	-0.097927	0.198074
C49	C	1.165178	-0.687548	-0.301939
C50	C	1.665178	-0.187548	0.198061
C51	C	1.165209	-0.760331	-0.301951
C52	C	1.665209	-0.260331	0.198049
C53	C	1.165256	-0.851639	-0.301965
C54	C	1.665256	-0.351639	0.198035
C55	C	1.165298	-0.924416	-0.301973
C56	C	1.665298	-0.424416	0.198027
C57	C	1.165344	-1.015730	-0.301986
C58	C	1.665344	-0.515730	0.198014
C59	C	1.375538	-0.388453	-0.301976
C60	C	1.875538	0.111547	0.198024
C61	C	1.465159	-0.388460	-0.301989
C62	C	1.965159	0.111540	0.198011
C63	C	1.165293	-0.388387	-0.465369
C64	C	1.665293	0.111613	0.034631
C65	C	1.165320	-0.388365	-0.535011
C66	C	1.665320	0.111635	-0.035011
C67	C	1.165339	-0.178128	-0.301980
C68	C	1.665339	0.321872	0.198020
C69	C	1.165386	-0.088506	-0.301994
C70	C	1.665386	0.411494	0.198006
C71	C	1.113790	-0.336785	-0.567715
C72	C	1.613790	0.163215	-0.067715
C73	C	1.113787	-0.336770	-0.633150
C74	C	1.613787	0.163230	-0.133150
C75	C	1.165329	-0.388327	-0.665879
C76	C	1.665329	0.111673	-0.165879
C77	C	1.216862	-0.439917	-0.633167
C78	C	1.716862	0.060083	-0.133167
C79	C	1.216857	-0.439936	-0.567733
C80	C	1.716857	0.060064	-0.067733
C81	C	1.237977	-0.394666	-0.769570
C82	C	1.737977	0.105334	-0.269570
C83	C	1.237983	-0.394641	-0.835003
C84	C	1.737983	0.105359	-0.335003
C85	C	1.165342	-0.388272	-0.867700
C86	C	1.665342	0.111728	-0.367700
C87	C	1.092693	-0.381911	-0.834956
C88	C	1.592693	0.118089	-0.334956
C89	C	1.092688	-0.381931	-0.769522
C90	C	1.592688	0.118069	-0.269522
C91	C	1.165339	-0.388312	-0.736831
C92	C	1.665339	0.111688	-0.236831
C93	C	1.113805	-0.336673	-0.971357
C94	C	1.613805	0.163327	-0.471357
C95	C	1.113801	-0.336664	-1.036793
C96	C	1.613801	0.163336	-0.536793
C97	C	1.216882	-0.439807	-1.036809
C98	C	1.716882	0.060193	-0.536809
C99	C	1.216879	-0.439820	-0.971373
C100	C	1.716879	0.060180	-0.471373
C101	C	1.165342	-0.388249	-0.938651
C102	C	1.665342	0.111751	-0.438651
C103	C	1.165212	-0.388428	-0.139158
C104	C	1.665212	0.111572	0.360842
C105	C	1.165342	-0.388222	-0.069518
C106	C	1.665342	0.111778	0.430482
H107	H	1.071821	-0.294795	-0.541076
H108	H	1.571821	0.205205	-0.041076
H109	H	1.033535	-0.376753	-0.742864
H110	H	1.533535	0.123247	-0.242864
H111	H	1.071827	-0.294763	-0.659783
H112	H	1.571827	0.205237	-0.159783
H113	H	1.258822	-0.481938	-0.541105
H114	H	1.758822	0.018062	-0.041105
C115	C	1.012781	-0.374929	-0.870914
C116	C	1.512781	0.125071	-0.370914
H117	H	1.023184	-0.375844	-0.914573
H118	H	1.523184	0.124156	-0.414573
H119	H	0.987009	-0.325849	-0.860198
H120	H	1.487009	0.174151	-0.360198
H121	H	0.978856	-0.418804	-0.860162
H122	H	1.478856	0.081196	-0.360162
C123	C	1.057099	-0.279968	-0.935360
C124	C	1.557099	0.220032	-0.435360
H125	H	1.026396	-0.249257	-0.964211
H126	H	1.526396	0.250743	-0.464211
H127	H	1.087948	-0.244840	-0.909847
H128	H	1.587948	0.255160	-0.409847
H129	H	1.021952	-0.310832	-0.909820
H130	H	1.521952	0.189168	-0.409820
H131	H	1.071833	-0.294664	-1.063420
H132	H	1.571833	0.205336	-0.563420
H133	H	1.297138	-0.399817	-0.861658
H134	H	1.797138	0.100183	-0.361658
H135	H	1.258850	-0.481784	-1.063456
H136	H	1.758850	0.018216	-0.563456
H137	H	1.297135	-0.399846	-0.742953
H138	H	1.797135	0.100154	-0.242953
H139	H	1.258842	-0.481820	-0.944745
H140	H	1.758842	0.018180	-0.444745
C141	C	1.273558	-0.496625	-0.669166
C142	C	1.773558	0.003375	-0.169166
H143	H	1.266187	-0.489220	-0.712821
H144	H	1.766187	0.010780	-0.212821
H145	H	1.261731	-0.550803	-0.658431
H146	H	1.761731	-0.050803	-0.158431
H147	H	1.327741	-0.484826	-0.658460
H148	H	1.827741	0.015174	-0.158460
