data_functionalizedCrystal
_audit_creation_method	'MofGen! by Chris Wilmer'
_symmetry_space_group_name_H-M	'P1'
_symmetry_Int_Tables_number	1
_symmetry_cell_setting	triclinic
loop_
_symmetry_equiv_pos_as_xyz
  x,y,z
_cell_length_a	18.215407
_cell_length_b	18.215405
_cell_length_c	18.215399
_cell_angle_alpha	89.970580
_cell_angle_beta	90.020595
_cell_angle_gamma	89.976259
loop_
_atom_site_label
_atom_site_type_symbol
_atom_site_fract_x
_atom_site_fract_y
_atom_site_fract_z
Zn1	Zn	-1.125077	-0.292993	-0.416123
Zn2	Zn	-0.625077	0.207007	0.083877
Zn3	Zn	-1.124988	-0.416065	-0.293054
Zn4	Zn	-0.624988	0.083935	0.206946
Zn5	Zn	-1.002010	-0.293016	-0.293069
Zn6	Zn	-0.502010	0.206984	0.206931
Zn7	Zn	-1.001978	-0.416023	-0.416077
Zn8	Zn	-0.501978	0.083977	0.083923
O9	O	-1.063513	-0.354524	-0.354581
O10	O	-0.563513	0.145476	0.145419
O11	O	-1.228050	-0.309327	-0.399811
O12	O	-0.728050	0.190673	0.100189
O13	O	-1.108651	-0.399769	-0.190072
O14	O	-0.608651	0.100231	0.309928
O15	O	-1.018386	-0.190029	-0.309418
O16	O	-0.518386	0.309971	0.190582
O17	O	-1.227984	-0.399747	-0.309392
O18	O	-0.727984	0.100253	0.190608
O19	O	-1.108803	-0.190012	-0.399826
O20	O	-0.608803	0.309988	0.100174
O21	O	-1.018299	-0.309366	-0.190083
O22	O	-0.518299	0.190634	0.309917
O23	O	-0.899021	-0.309325	-0.309373
O24	O	-0.399021	0.190675	0.190627
O25	O	-1.018332	-0.399675	-0.519068
O26	O	-0.518332	0.100325	-0.019068
O27	O	-0.898998	-0.399697	-0.399747
O28	O	-0.398998	0.100303	0.100253
O29	O	-1.108772	-0.309286	-0.519102
O30	O	-0.608772	0.190714	-0.019102
O31	O	-1.108620	-0.519043	-0.309347
O32	O	-0.608620	-0.019043	0.190653
O33	O	-1.018245	-0.519012	-0.399732
O34	O	-0.518245	-0.019012	0.100268
C35	C	-0.872307	-0.354510	-0.354557
C36	C	-0.372307	0.145490	0.145443
C37	C	-0.790508	-0.354521	-0.354565
C38	C	-0.290508	0.145479	0.145435
C39	C	-1.063439	-0.545731	-0.354549
C40	C	-0.563439	-0.045731	0.145451
C41	C	-1.063475	-0.627529	-0.354560
C42	C	-0.563475	-0.127529	0.145440
C43	C	-0.602321	-0.401650	-0.401560
C44	C	-0.102321	0.098350	0.098440
C45	C	-0.525463	-0.401652	-0.401569
C46	C	-0.025463	0.098348	0.098431
C47	C	-0.525457	-0.307402	-0.307604
C48	C	-0.025457	0.192598	0.192396
C49	C	-0.602315	-0.307397	-0.307600
C50	C	-0.102315	0.192603	0.192400
C51	C	-0.640745	-0.354526	-0.354577
C52	C	-0.140745	0.145474	0.145423
C53	C	-0.487029	-0.354532	-0.354589
C54	C	0.012971	0.145468	0.145411
C55	C	-0.403695	-0.354533	-0.354598
C56	C	0.096305	0.145467	0.145402
C57	C	-0.724084	-0.354524	-0.354570
C58	C	-0.224084	0.145476	0.145430
C59	C	-0.255466	-0.354537	-0.354602
C60	C	0.244534	0.145463	0.145398
C61	C	-0.337265	-0.354536	-0.354602
C62	C	0.162735	0.145464	0.145398
C63	C	-1.110671	-0.892579	-0.307596
C64	C	-0.610671	-0.392579	0.192404
C65	C	-1.110641	-0.815720	-0.307580
C66	C	-0.610641	-0.315720	0.192420
C67	C	-1.016447	-0.815729	-0.401615
C68	C	-0.516447	-0.315729	0.098385
C69	C	-1.016474	-0.892586	-0.401628
C70	C	-0.516474	-0.392586	0.098372
C71	C	-1.063590	-0.931009	-0.354619
C72	C	-0.563590	-0.431009	0.145381
C73	C	-1.063533	-0.777293	-0.354590
C74	C	-0.563533	-0.277293	0.145410
C75	C	-1.063500	-0.693959	-0.354572
C76	C	-0.563500	-0.193959	0.145428
C77	C	-1.063623	-1.014348	-0.354636
C78	C	-0.563623	-0.514348	0.145364
C79	C	-1.063558	-0.354473	-0.546534
C80	C	-0.563558	0.145527	-0.046534
C81	C	-1.063577	-0.354452	-0.628333
C82	C	-0.563577	0.145548	-0.128333
C83	C	-1.063608	-0.162571	-0.354629
C84	C	-0.563608	0.337429	0.145371
C85	C	-1.063648	-0.080772	-0.354649
C86	C	-0.563648	0.419228	0.145351
C87	C	-1.110687	-0.307342	-0.816546
C88	C	-0.610687	0.192658	-0.316546
C89	C	-1.110695	-0.307321	-0.893404
C90	C	-0.610695	0.192679	-0.393404
C91	C	-1.016520	-0.401448	-0.893358
C92	C	-0.516520	0.098552	-0.393358
C93	C	-1.016508	-0.401465	-0.816500
C94	C	-0.516508	0.098535	-0.316500
C95	C	-1.063596	-0.354413	-0.778096
C96	C	-0.563596	0.145587	-0.278096
C97	C	-1.063616	-0.354375	-0.931813
C98	C	-0.563616	0.145625	-0.431813
C99	C	-1.063625	-0.354352	-1.015146
C100	C	-0.563625	0.145648	-0.515146
C101	C	-1.063586	-0.354435	-0.694757
C102	C	-0.563586	0.145565	-0.194757
C103	C	-1.063511	-0.354522	-0.163375
C104	C	-0.563511	0.145478	0.336625
C105	C	-1.063635	-0.354336	-0.081576
C106	C	-0.563635	0.145664	0.418424
H107	H	-0.633609	-0.440024	-0.439814
H108	H	-0.133609	0.059976	0.060186
H109	H	-0.633600	-0.269018	-0.269341
H110	H	-0.133600	0.230982	0.230659
H111	H	-0.494158	-0.269033	-0.269356
H112	H	0.005842	0.230967	0.230644
H113	H	-1.149026	-0.269028	-0.785279
H114	H	-0.649026	0.230972	-0.285279
H115	H	-1.149035	-0.923860	-0.269319
H116	H	-0.649035	-0.423860	0.230681
H117	H	-1.148977	-0.784432	-0.269288
H118	H	-0.648977	-0.284432	0.230712
H119	H	-0.494182	-0.440025	-0.439828
H120	H	0.005818	0.059975	0.060172
H121	H	-0.978132	-0.923877	-0.439921
H122	H	-0.478132	-0.423877	0.060079
H123	H	-0.978087	-0.784437	-0.439889
H124	H	-0.478087	-0.284437	0.060111
H125	H	-1.149040	-0.268990	-0.924706
H126	H	-0.649040	0.231010	-0.424706
H127	H	-0.978185	-0.439757	-0.924636
H128	H	-0.478185	0.060243	-0.424636
H129	H	-0.978156	-0.439795	-0.785194
H130	H	-0.478156	0.060205	-0.285194
