data_functionalizedCrystal
_audit_creation_method	'MofGen! by Chris Wilmer'
_symmetry_space_group_name_H-M	'P1'
_symmetry_Int_Tables_number	1
_symmetry_cell_setting	triclinic
loop_
_symmetry_equiv_pos_as_xyz
  x,y,z
_cell_length_a	13.262402
_cell_length_b	15.995292
_cell_length_c	12.376457
_cell_angle_alpha	101.276936
_cell_angle_beta	94.181204
_cell_angle_gamma	83.972139
loop_
_atom_site_label
_atom_site_type_symbol
_atom_site_fract_x
_atom_site_fract_y
_atom_site_fract_z
O1	O	1.325460	0.166105	0.313559
O2	O	1.038759	0.163378	0.225402
O3	O	1.189977	0.043291	0.271898
O4	O	1.174242	0.286192	0.267063
O5	O	1.152186	0.073269	0.448290
O6	O	1.000969	0.193357	0.401794
O7	O	1.287669	0.196084	0.489951
Zn8	Zn	1.138319	0.199480	0.473879
Zn9	Zn	1.188110	0.159981	0.241474
O10	O	1.136451	0.316171	0.443455
C11	C	0.983177	0.175762	0.302317
C12	C	0.873861	0.167988	0.268703
C13	C	1.170442	0.027048	0.359894
C14	C	1.168524	-0.066014	0.359296
C15	C	0.843104	0.147993	0.156757
C16	C	0.740395	0.140698	0.125177
C17	C	0.668434	0.153390	0.205540
C18	C	0.699191	0.173380	0.317489
C19	C	0.801909	0.180682	0.349072
C20	C	0.627239	0.186080	0.397855
C21	C	0.657997	0.206069	0.509803
C22	C	0.760705	0.213370	0.541381
C23	C	0.832666	0.200678	0.461018
C24	C	0.524521	0.178777	0.366271
C25	C	0.483326	0.211467	0.558586
C26	C	0.586035	0.218762	0.590166
C27	C	1.161464	-0.404146	0.357135
C28	C	1.270524	-0.374655	0.391090
C29	C	1.272684	-0.277931	0.391326
C30	C	1.164967	-0.236394	0.358208
C31	C	1.131979	-0.285670	0.240704
C32	C	1.130683	-0.382548	0.240219
C33	C	1.085479	-0.348438	0.440125
C34	C	1.089239	-0.251494	0.442696
C35	C	1.166941	-0.141589	0.358809
C36	C	1.159487	-0.498952	0.356526
C37	C	1.343252	0.183699	0.413033
C38	C	1.452569	0.191472	0.446640
C39	C	1.155987	0.332413	0.355456
C40	C	1.157907	0.425473	0.356047
N41	N	1.104345	0.226436	0.632491
N42	N	1.222091	0.133019	0.082864
C43	C	1.300956	0.070428	1.047929
C44	C	1.324729	0.051561	0.936899
C45	C	1.269634	0.095278	0.860791
C46	C	1.190764	0.157866	0.895725
C47	C	1.166994	0.176740	1.006768
C48	C	1.135672	0.201589	0.819630
C49	C	1.056802	0.264177	0.854564
C50	C	1.033035	0.283048	0.965596
C51	C	1.088129	0.239331	1.041703
C52	C	1.159442	0.182715	0.708587
C53	C	1.025480	0.289027	0.667426
C54	C	1.001707	0.307895	0.778456
H55	H	0.499489	0.162503	0.275122
N56	N	1.109098	-0.366129	0.555187
H57	H	1.048310	-0.388255	0.581101
H58	H	1.169324	-0.410424	0.554598
N59	N	0.793880	0.234928	0.662124
H60	H	0.869866	0.237628	0.669936
H61	H	0.758938	0.292215	0.696138
N62	N	1.062494	0.259681	1.161463
H63	H	1.071075	0.321925	1.192607
H64	H	0.989874	0.248216	1.167561
N65	N	0.557655	0.145516	0.171485
H66	H	0.549089	0.130923	0.088373
H67	H	0.532897	0.098756	0.204161
N68	N	0.619216	0.240336	0.710906
H69	H	0.558050	0.247272	0.757029
H70	H	0.668929	0.192651	0.730657
H71	H	0.715360	0.124423	0.034028
H72	H	0.424734	0.221805	0.624025
H73	H	1.388945	0.000603	0.908460
N74	N	1.346323	-0.426158	0.312984
H75	H	1.326530	-0.417277	0.235390
H76	H	1.416151	-0.406789	0.335466
H77	H	1.053516	-0.258877	0.212588
H78	H	1.184605	-0.420045	0.176543
H79	H	1.345812	0.034843	1.109903
N80	N	1.305777	-0.392363	0.503899
H81	H	1.319436	-0.336850	0.555127
H82	H	1.251365	-0.419701	0.534008
N83	N	1.350134	-0.266656	0.312999
H84	H	1.315497	-0.237058	0.253432
H85	H	1.403779	-0.230811	0.354968
N86	N	1.025987	-0.408798	0.201560
H87	H	0.980882	-0.357445	0.184903
H88	H	1.030809	-0.454511	0.132669
N89	N	0.947967	0.350549	1.003277
H90	H	0.916665	0.375376	0.938218
H91	H	0.894592	0.323851	1.035970
H92	H	1.299951	-0.244242	0.476669
N93	N	0.916643	0.375397	0.816148
H94	H	0.944398	0.422425	0.873776
H95	H	0.885373	0.400165	0.751033
N96	N	1.203442	-0.273172	0.156835
H97	H	1.257221	-0.235638	0.194722
H98	H	1.236802	-0.330621	0.121090
H99	H	0.980619	0.324627	0.605459
N100	N	1.120709	-0.207176	0.557587
H101	H	1.183754	-0.177439	0.554931
H102	H	1.064025	-0.163584	0.587789
H103	H	1.009313	-0.221893	0.424606
H104	H	1.223659	0.131756	0.680155
N105	N	0.920713	0.134311	0.070089
H106	H	0.990446	0.141973	0.107086
H107	H	0.919754	0.074471	0.025038
H108	H	1.004994	-0.366812	0.416103
N109	N	0.943453	0.208542	0.495061
H110	H	0.952129	0.268142	0.537957
H111	H	0.968033	0.165248	0.542833
N112	N	1.295270	0.074930	0.741036
H113	H	1.353592	0.028647	0.730454
H114	H	1.234042	0.054460	0.693810
