data_functionalizedCrystal
_audit_creation_method	'MofGen! by Chris Wilmer'
_symmetry_space_group_name_H-M	'P1'
_symmetry_Int_Tables_number	1
_symmetry_cell_setting	triclinic
loop_
_symmetry_equiv_pos_as_xyz
  x,y,z
_cell_length_a	14.519710
_cell_length_b	17.699083
_cell_length_c	16.176319
_cell_angle_alpha	90.007696
_cell_angle_beta	89.993531
_cell_angle_gamma	96.518420
loop_
_atom_site_label
_atom_site_type_symbol
_atom_site_fract_x
_atom_site_fract_y
_atom_site_fract_z
O1	O	1.223449	-0.099216	-0.068730
O2	O	0.954923	-0.110899	-0.068736
O3	O	1.096773	0.005110	-0.068726
O4	O	1.081600	-0.215225	-0.068741
O5	O	1.096753	0.005118	0.068768
O6	O	0.954903	-0.110892	0.068757
O7	O	1.223430	-0.099208	0.068763
Cu8	Cu	1.089165	-0.105049	0.081314
Cu9	Cu	1.089188	-0.105058	-0.081287
O10	O	1.081580	-0.215217	0.068753
C11	C	1.096219	0.033312	0.000021
C12	C	1.094588	0.117335	0.000021
C13	C	0.920556	-0.110351	0.000010
C14	C	0.818181	-0.108719	0.000008
C15	C	1.257797	-0.099756	0.000015
C16	C	1.360171	-0.101388	0.000012
C17	C	1.735042	-0.107395	0.000011
C18	C	1.630741	-0.105727	0.000011
C19	C	1.547610	-0.104392	0.000011
C20	C	1.443302	-0.102723	0.000012
C21	C	1.082134	-0.243420	0.000004
C22	C	1.083765	-0.327442	-0.000002
N23	N	1.089155	-0.105043	0.195680
C24	C	1.177851	0.165718	0.000024
C25	C	1.176313	0.244665	0.000017
C26	C	1.091511	0.275229	0.000013
C27	C	1.008242	0.226840	0.000007
C28	C	1.009781	0.147894	0.000009
C29	C	1.002033	0.545221	0.000000
C30	C	1.000501	0.624173	0.000001
C31	C	1.168566	0.641992	0.000009
C32	C	1.170105	0.563046	0.000010
C33	C	1.086836	0.514664	0.000000
C34	C	1.088505	0.429060	0.000007
C35	C	1.089841	0.360831	0.000012
N36	N	1.089205	-0.105059	-0.195653
C37	C	1.151985	-0.053695	0.238948
C38	C	1.151990	-0.053694	0.325495
C39	C	1.089168	-0.105045	0.368772
C40	C	1.026332	-0.156396	0.325497
C41	C	1.026323	-0.156392	0.238952
C42	C	1.026363	-0.156410	0.674526
C43	C	1.026378	-0.156411	0.761077
C44	C	1.152030	-0.053712	0.761069
C45	C	1.152022	-0.053708	0.674524
C46	C	1.089182	-0.105055	0.631256
C47	C	1.089177	-0.105055	0.537412
C48	C	1.089178	-0.105050	0.462615
H49	H	1.244114	0.284056	0.000021
H50	H	0.975199	-0.198220	0.639304
N51	N	1.264468	0.134489	0.000020
N52	N	1.265834	0.064001	0.000019
H53	H	1.327009	0.041947	0.000013
N54	N	1.256736	0.531840	0.000023
N55	N	1.331073	0.575048	0.000024
H56	H	1.392259	0.553011	0.000031
H57	H	1.236367	0.681395	0.000012
H58	H	1.203150	-0.011882	0.360724
H59	H	0.931441	0.649055	-0.000001
H60	H	0.934231	0.505837	-0.000007
H61	H	0.939195	0.251731	-0.000002
H62	H	0.975177	-0.198204	0.360738
H63	H	1.203195	-0.011899	0.796307
N64	N	0.924721	0.098481	-0.000005
N65	N	0.849010	0.125777	-0.000014
H66	H	0.788933	0.090879	-0.000029
N67	N	1.216115	-0.001194	0.194759
N68	N	1.272170	0.044679	0.233407
H69	H	1.317442	0.081779	0.202201
H70	H	1.203180	-0.011896	0.639290
H71	H	0.975218	-0.198229	0.796312
H72	H	0.975160	-0.198204	0.203723
