data_functionalizedCrystal
_audit_creation_method	'MofGen! by Chris Wilmer'
_symmetry_space_group_name_H-M	'P1'
_symmetry_Int_Tables_number	1
_symmetry_cell_setting	triclinic
loop_
_symmetry_equiv_pos_as_xyz
  x,y,z
_cell_length_a	19.805407
_cell_length_b	13.897448
_cell_length_c	19.805399
_cell_angle_alpha	89.974981
_cell_angle_beta	89.982197
_cell_angle_gamma	90.015009
loop_
_atom_site_label
_atom_site_type_symbol
_atom_site_fract_x
_atom_site_fract_y
_atom_site_fract_z
Zn1	Zn	1.034777	-0.384106	-0.382700
Zn2	Zn	1.534777	0.115894	0.117300
Zn3	Zn	1.034709	-0.545412	-0.269517
Zn4	Zn	1.534709	-0.045412	0.230483
Zn5	Zn	0.921591	-0.384125	-0.269528
Zn6	Zn	1.421591	0.115875	0.230472
Zn7	Zn	0.921572	-0.545353	-0.382667
Zn8	Zn	1.421572	-0.045353	0.117333
O9	O	0.978162	-0.464749	-0.326103
O10	O	1.478162	0.035251	0.173897
O11	O	1.129484	-0.405521	-0.367695
O12	O	1.629484	0.094479	0.132305
O13	O	1.019683	-0.524050	-0.174801
O14	O	1.519683	-0.024050	0.325199
O15	O	0.936642	-0.249141	-0.284559
O16	O	1.436642	0.250859	0.215441
O17	O	1.129434	-0.524031	-0.284540
O18	O	1.629434	-0.024031	0.215460
O19	O	1.019799	-0.249127	-0.367706
O20	O	1.519799	0.250873	0.132294
O21	O	0.936576	-0.405553	-0.174810
O22	O	1.436576	0.094447	0.325190
O23	O	0.826872	-0.405496	-0.284527
O24	O	1.326872	0.094504	0.215473
O25	O	0.936609	-0.523931	-0.477388
O26	O	1.436609	-0.023931	0.022612
O27	O	0.826858	-0.523950	-0.367650
O28	O	1.326858	-0.023950	0.132350
O29	O	1.019780	-0.405464	-0.477412
O30	O	1.519780	0.094536	0.022588
O31	O	1.019664	-0.680386	-0.284508
O32	O	1.519664	-0.180386	0.215492
O33	O	0.936543	-0.680343	-0.367639
O34	O	1.436543	-0.180343	0.132361
C35	C	0.802306	-0.464719	-0.326086
C36	C	1.302306	0.035281	0.173914
C37	C	0.727074	-0.464729	-0.326095
C38	C	1.227074	0.035271	0.173905
C39	C	0.691757	-0.403130	-0.369460
C40	C	1.191757	0.096870	0.130540
C41	C	0.621068	-0.403135	-0.369463
C42	C	1.121068	0.096865	0.130537
C43	C	0.585699	-0.464745	-0.326103
C44	C	1.085699	0.035255	0.173897
C45	C	0.621021	-0.526347	-0.282734
C46	C	1.121021	-0.026347	0.217266
C47	C	0.691708	-0.526337	-0.282728
C48	C	1.191708	-0.026337	0.217272
C49	C	0.335948	-0.526391	-0.282755
C50	C	0.835948	-0.026391	0.217245
C51	C	0.265256	-0.526399	-0.282765
C52	C	0.765256	-0.026399	0.217235
C53	C	0.265308	-0.403189	-0.369489
C54	C	0.765308	0.096811	0.130511
C55	C	0.335995	-0.403178	-0.369483
C56	C	0.835995	0.096822	0.130517
C57	C	0.371311	-0.464777	-0.326112
C58	C	0.871311	0.035223	0.173888
C59	C	0.447960	-0.464769	-0.326108
C60	C	0.947960	0.035231	0.173892
C61	C	0.509051	-0.464758	-0.326110
C62	C	1.009051	0.035242	0.173890
C63	C	0.978113	-0.715364	-0.326083
C64	C	1.478113	-0.215364	0.173917
C65	C	0.978154	-0.822578	-0.326097
C66	C	1.478154	-0.322578	0.173903
C67	C	0.978225	-1.018873	-0.326140
C68	C	1.478225	-0.518873	0.173860
C69	C	0.978183	-0.909640	-0.326118
C70	C	1.478183	-0.409640	0.173882
C71	C	1.154705	-0.464780	-0.326120
C72	C	1.654705	0.035220	0.173880
C73	C	1.229937	-0.464794	-0.326127
C74	C	1.729937	0.035206	0.173873
C75	C	0.978200	-0.464689	-0.502646
C76	C	1.478200	0.035311	-0.002646
C77	C	0.978216	-0.464663	-0.577878
C78	C	1.478216	0.035337	-0.077878
C79	C	0.978230	-0.213156	-0.326137
C80	C	1.478230	0.286844	0.173863
C81	C	0.978259	-0.105942	-0.326152
C82	C	1.478259	0.394058	0.173848
C83	C	1.021524	-0.402974	-0.613235
C84	C	1.521524	0.097026	-0.113235
C85	C	1.021531	-0.402946	-0.683924
C86	C	1.521531	0.097054	-0.183924
C87	C	0.978233	-0.464612	-0.719253
C88	C	1.478233	0.035388	-0.219253
C89	C	0.934920	-0.526304	-0.683890
C90	C	1.434920	-0.026304	-0.183890
C91	C	0.934910	-0.526327	-0.613203
C92	C	1.434910	-0.026327	-0.113203
C93	C	0.934958	-0.526214	-0.968964
C94	C	1.434958	-0.026214	-0.468964
C95	C	0.934973	-0.526189	-1.039656
C96	C	1.434973	-0.026189	-0.539656
C97	C	1.021579	-0.402833	-1.039684
C98	C	1.521579	0.097167	-0.539684
C99	C	1.021570	-0.402856	-0.968997
C100	C	1.521570	0.097144	-0.468997
C101	C	0.978254	-0.464544	-0.933641
C102	C	1.478254	0.035456	-0.433641
C103	C	0.978247	-0.464572	-0.856992
C104	C	1.478247	0.035428	-0.356992
C105	C	0.978244	-0.464590	-0.795900
C106	C	1.478244	0.035410	-0.295900
C107	C	0.978163	-0.464740	-0.150247
C108	C	1.478163	0.035260	0.349753
C109	C	0.978278	-0.464494	-0.075015
C110	C	1.478278	0.035506	0.424985
H111	H	0.236545	-0.353029	-0.404802
H112	H	0.736545	0.146971	0.095198
H113	H	0.236460	-0.576571	-0.247454
H114	H	0.736460	-0.076571	0.252546
N115	N	0.582868	-0.592796	-0.235971
N116	N	1.082868	-0.092796	0.264029
H117	H	0.595167	-0.661734	-0.246396
H118	H	1.095167	-0.161734	0.253604
H119	H	0.595164	-0.577641	-0.187645
H120	H	1.095164	-0.077641	0.312355
H121	H	0.592316	-0.352977	-0.404776
H122	H	1.092316	0.147023	0.095224
N123	N	1.068298	-0.336293	-1.077819
N124	N	1.568298	0.163707	-0.577819
H125	H	1.061735	-0.345630	-1.127960
H126	H	1.561735	0.154370	-0.627960
H127	H	1.057783	-0.267405	-1.065469
H128	H	1.557783	0.232595	-0.565469
N129	N	0.729800	-0.592774	-0.235952
N130	N	1.229800	-0.092774	0.264048
H131	H	0.717498	-0.661717	-0.246379
H132	H	1.217498	-0.161717	0.253621
H133	H	0.779935	-0.583335	-0.242546
H134	H	1.279935	-0.083335	0.257454
N135	N	0.729903	-0.336687	-0.416232
N136	N	1.229903	0.163313	0.083768
H137	H	0.717610	-0.267747	-0.405808
H138	H	1.217610	0.232253	0.094192
H139	H	0.780030	-0.346114	-0.409628
H140	H	1.280030	0.153886	0.090372
N141	N	0.888216	-0.592823	-0.721983
N142	N	1.388216	-0.092823	-0.221983
H143	H	0.839859	-0.577831	-0.709672
H144	H	1.339859	-0.077831	-0.209672
H145	H	0.894845	-0.583430	-0.772118
H146	H	1.394845	-0.083430	-0.272118
H147	H	0.364789	-0.353012	-0.404793
H148	H	0.864789	0.146988	0.095207
H149	H	0.364694	-0.576549	-0.247439
H150	H	0.864694	-0.076549	0.252561
N151	N	1.068230	-0.336467	-0.575133
N152	N	1.568230	0.163533	-0.075133
H153	H	1.095665	-0.297383	-0.608261
H154	H	1.595665	0.202617	-0.108261
H155	H	1.040687	-0.291832	-0.545805
H156	H	1.540687	0.208168	-0.045805
H157	H	1.056830	-0.352644	-0.940236
H158	H	1.556830	0.147356	-0.440236
H159	H	1.056799	-0.352714	-0.712709
H160	H	1.556799	0.147286	-0.212709
N161	N	0.888271	-0.592704	-1.077764
N162	N	1.388271	-0.092704	-0.577764
H163	H	0.860828	-0.631785	-1.044640
H164	H	1.360828	-0.131785	-0.544640
H165	H	0.856968	-0.553420	-1.107095
H166	H	1.356968	-0.053420	-0.607095
N167	N	0.888220	-0.592714	-0.930834
N168	N	1.388220	-0.092714	-0.430834
H169	H	0.860789	-0.631766	-0.963943
H170	H	1.360789	-0.131766	-0.463943
H171	H	0.915729	-0.637380	-0.901489
H172	H	1.415729	-0.137380	-0.401489
H173	H	0.899638	-0.576551	-0.584416
H174	H	1.399638	-0.076551	-0.084416
