data_functionalizedCrystal
_audit_creation_method	'MofGen! by Chris Wilmer'
_symmetry_space_group_name_H-M	'P1'
_symmetry_Int_Tables_number	1
_symmetry_cell_setting	triclinic
loop_
_symmetry_equiv_pos_as_xyz
  x,y,z
_cell_length_a	10.654550
_cell_length_b	10.654550
_cell_length_c	9.730223
_cell_angle_alpha	89.998384
_cell_angle_beta	89.996251
_cell_angle_gamma	84.484903
loop_
_atom_site_label
_atom_site_type_symbol
_atom_site_fract_x
_atom_site_fract_y
_atom_site_fract_z
O1	O	1.667834	0.176393	-0.114404
O2	O	1.302355	0.193199	-0.114382
O3	O	1.493498	0.002057	-0.114383
O4	O	1.476692	0.367535	-0.114403
O5	O	1.493496	0.002062	0.114196
O6	O	1.302353	0.193204	0.114198
O7	O	1.667832	0.176398	0.114176
Zn8	Zn	1.485092	0.184802	0.150479
Zn9	Zn	1.485095	0.184795	-0.150685
O10	O	1.476689	0.367540	0.114177
C11	C	1.255556	0.191968	-0.000089
C12	C	1.116113	0.188276	-0.000081
C13	C	1.492263	-0.044739	-0.000094
C14	C	1.488571	-0.184182	-0.000095
C15	C	1.036627	0.300817	-0.000106
C16	C	0.905607	0.297341	-0.000130
C17	C	0.933570	0.068771	-0.000108
C18	C	1.064588	0.072249	-0.000074
C19	C	1.020482	0.432780	-0.000125
C20	C	0.889461	0.429304	-0.000149
C21	C	1.714631	0.177630	-0.000120
C22	C	1.854074	0.181321	-0.000138
C23	C	1.477925	0.414336	-0.000115
C24	C	1.481616	0.553779	-0.000124
N25	N	1.485099	0.184805	0.356015
C26	C	1.369075	0.633265	-0.000104
C27	C	1.372551	0.764286	-0.000094
C28	C	1.601121	0.736322	-0.000119
C29	C	1.597643	0.605304	-0.000138
C30	C	1.237112	0.649410	-0.000084
C31	C	1.240589	0.780431	-0.000074
N32	N	1.485098	0.184782	-0.356221
C33	C	1.569759	0.100197	0.427941
C34	C	1.569756	0.100181	0.571824
C35	C	1.400429	0.269395	0.571843
C36	C	1.400427	0.269403	0.427963
C37	C	1.667522	0.002506	0.427931
C38	C	1.667519	0.002491	0.571814
H39	H	1.129302	-0.019393	-0.000033
H40	H	1.056138	0.474797	-0.098815
H41	H	1.689285	0.540590	-0.000170
C42	C	0.833076	0.496457	-0.129395
C43	C	0.735787	0.612282	-0.114905
C44	C	0.679405	0.679430	-0.244148
C45	C	0.720313	0.630753	-0.387880
C46	C	0.817607	0.514922	-0.402376
C47	C	0.873989	0.447774	-0.273133
H48	H	0.705500	0.648321	-0.008501
H49	H	0.607381	0.765177	-0.233416
H50	H	0.678576	0.680460	-0.483553
H51	H	0.847894	0.478883	-0.508780
H52	H	0.946013	0.362028	-0.283865
C53	C	1.167396	0.609756	-0.129308
C54	C	1.114712	0.710164	-0.233472
C55	C	1.044999	0.670509	-0.362693
C56	C	1.027970	0.530447	-0.387750
C57	C	1.080655	0.430030	-0.283583
C58	C	1.150368	0.469685	-0.154362
H59	H	1.127316	0.813854	-0.214926
H60	H	1.005998	0.744844	-0.439804
H61	H	0.976365	0.501092	-0.483407
H62	H	1.068051	0.326340	-0.302129
H63	H	1.189369	0.395350	-0.077251
H64	H	1.200714	0.826090	-0.098763
H65	H	1.331490	0.338271	0.630438
H66	H	1.758706	0.033094	0.383297
C67	C	1.173431	0.836836	0.129165
C68	C	1.115787	0.749931	0.233349
C69	C	1.048634	0.806335	0.362583
C70	C	1.039127	0.949645	0.387635
C71	C	1.096774	1.036559	0.283449
C72	C	1.163926	0.980155	0.154214
H73	H	1.122823	0.643837	0.214807
H74	H	1.005961	0.741995	0.439708
H75	H	0.989417	0.991399	0.483302
H76	H	1.089737	1.142653	0.301991
H77	H	1.206600	1.044495	0.077089
H78	H	1.646080	-0.094027	0.388883
C79	C	1.060120	0.502502	0.129104
C80	C	0.959699	0.555189	0.233257
C81	C	0.999338	0.624907	0.362483
C82	C	1.139397	0.641938	0.387555
C83	C	1.239826	0.589249	0.283398
C84	C	1.200187	0.519531	0.154172
H85	H	0.856011	0.542583	0.214700
H86	H	0.924992	0.663911	0.439587
H87	H	1.168739	0.693547	0.483215
H88	H	1.343514	0.601855	0.301955
H89	H	1.274533	0.480527	0.077069
H90	H	1.695586	0.778290	-0.000154
H91	H	1.331480	0.338287	0.369402
C92	C	1.797886	0.031568	0.624587
C93	C	1.916291	-0.055843	0.586355
C94	C	2.046648	-0.026763	0.639134
C95	C	2.058601	0.089730	0.730145
C96	C	1.940192	0.177149	0.768381
C97	C	1.809835	0.148068	0.715602
H98	H	1.907447	-0.142085	0.518980
H99	H	2.134302	-0.091477	0.610829
H100	H	2.155099	0.111257	0.769215
H101	H	1.949036	0.263390	0.835757
H102	H	1.722181	0.212782	0.743907
H103	H	0.843789	0.469187	0.098533
H104	H	0.891602	-0.025694	-0.000123
H105	H	1.637006	-0.088732	0.616436
H106	H	1.195078	0.613768	0.098604
