data_functionalizedCrystal
_audit_creation_method	'MofGen! by Chris Wilmer'
_symmetry_space_group_name_H-M	'P1'
_symmetry_Int_Tables_number	1
_symmetry_cell_setting	triclinic
loop_
_symmetry_equiv_pos_as_xyz
  x,y,z
_cell_length_a	11.792241
_cell_length_b	15.944551
_cell_length_c	10.268362
_cell_angle_alpha	89.993764
_cell_angle_beta	89.999626
_cell_angle_gamma	83.846077
loop_
_atom_site_label
_atom_site_type_symbol
_atom_site_fract_x
_atom_site_fract_y
_atom_site_fract_z
O1	O	1.505960	0.115128	-0.108177
O2	O	1.175521	0.126993	-0.108207
O3	O	1.349764	-0.001173	-0.108180
O4	O	1.331717	0.243295	-0.108205
O5	O	1.349749	-0.001179	0.108421
O6	O	1.175506	0.126988	0.108393
O7	O	1.505945	0.115123	0.108424
Cu8	Cu	1.340724	0.121055	0.128186
Cu9	Cu	1.340742	0.121061	-0.127970
O10	O	1.331702	0.243290	0.108396
C11	C	1.133229	0.126245	0.000089
C12	C	1.007234	0.124015	0.000078
C13	C	0.776555	0.119913	0.000116
C14	C	0.904922	0.122192	0.000095
C15	C	1.349008	-0.032473	0.000121
C16	C	1.346761	-0.125729	0.000121
C17	C	1.233389	-0.341098	0.000093
C18	C	1.286028	-0.401880	0.106895
C19	C	1.342698	-0.296474	0.000111
C20	C	1.286069	-0.401858	-0.106656
C21	C	1.338765	-0.461404	0.000095
C22	C	1.395367	-0.356028	0.107001
C23	C	1.395392	-0.355999	-0.106646
C24	C	1.448111	-0.416764	0.000182
C25	C	1.344961	-0.201461	0.000121
C26	C	1.336511	-0.556415	0.000095
C27	C	1.548237	0.115871	0.000124
C28	C	1.674233	0.118102	0.000127
C29	C	1.332459	0.274590	0.000093
C30	C	1.334705	0.367846	0.000084
N31	N	1.340720	0.121050	0.308352
N32	N	1.340756	0.121060	-0.308135
C33	C	1.340736	0.121060	0.574022
C34	C	1.340724	0.121057	0.426184
H35	H	1.142657	-0.308200	0.000191
H36	H	1.441555	-0.335831	0.197393
H37	H	1.441593	-0.335658	-0.196935
H38	H	1.538922	-0.449513	0.000251
F39	F	1.225592	-0.428439	0.224904
F40	F	1.225621	-0.428388	-0.224666
