data_functionalizedCrystal
_audit_creation_method	'MofGen! by Chris Wilmer'
_symmetry_space_group_name_H-M	'P1'
_symmetry_Int_Tables_number	1
_symmetry_cell_setting	triclinic
loop_
_symmetry_equiv_pos_as_xyz
  x,y,z
_cell_length_a	8.559649
_cell_length_b	14.519709
_cell_length_c	7.088929
_cell_angle_alpha	83.763835
_cell_angle_beta	95.325015
_cell_angle_gamma	76.729405
loop_
_atom_site_label
_atom_site_type_symbol
_atom_site_fract_x
_atom_site_fract_y
_atom_site_fract_z
O1	O	2.103670	-0.020642	-0.158956
O2	O	1.638600	0.026977	-0.158968
O3	O	1.883467	-0.131957	-0.158944
O4	O	1.858803	0.138292	-0.158979
O5	O	1.916191	-0.153240	0.159034
O6	O	1.671324	0.005694	0.159010
O7	O	2.136393	-0.041925	0.159023
Cu8	Cu	1.906847	-0.020059	0.188050
Cu9	Cu	1.868147	0.005111	-0.187996
O10	O	1.891526	0.117009	0.158999
C11	C	1.595443	0.019944	0.000020
C12	C	1.418093	0.030686	0.000015
C13	C	1.898680	-0.176876	0.000045
C14	C	1.895236	-0.279010	0.000046
C15	C	1.882552	-0.652993	-0.000004
C16	C	1.886074	-0.548938	0.000011
C17	C	1.888894	-0.466005	0.000023
C18	C	1.892417	-0.361944	0.000034
C19	C	2.179551	-0.034892	0.000031
C20	C	2.356899	-0.045633	0.000022
C21	C	1.876313	0.161928	0.000005
C22	C	1.879756	0.264063	-0.000008
N23	N	1.934078	-0.037763	0.452541
N24	N	1.840929	0.022807	-0.452487
H25	H	1.334795	0.104249	-0.000005
H26	H	2.030634	-0.100529	0.534206
O27	O	1.456486	-0.133327	0.000118
C28	C	1.617326	-0.124889	0.000069
H29	H	1.629961	-0.056922	0.060261
H30	H	1.649805	-0.121552	-0.152480
C31	C	1.716560	-0.295469	0.050849
C32	C	1.732081	-0.211995	0.124793
H33	H	1.787349	-0.349201	0.127777
H34	H	1.608199	-0.301154	0.050875
H35	H	1.743623	-0.292675	-0.076274
H36	H	1.704999	-0.214784	0.251904
H37	H	1.840441	-0.206312	0.124791
O38	O	1.725948	0.097725	0.449902
C39	C	1.799970	0.156197	0.334129
H40	H	1.921751	0.112552	0.304319
H41	H	1.819055	0.218430	0.411148
C42	C	1.540967	0.248565	0.180504
C43	C	1.690535	0.194957	0.143878
H44	H	1.473461	0.272478	0.063152
H45	H	1.491096	0.209174	0.258508
H46	H	1.556893	0.300419	0.244692
H47	H	1.674610	0.143098	0.079713
H48	H	1.740402	0.234340	0.065859
