data_functionalizedCrystal
_audit_creation_method	'MofGen! by Chris Wilmer'
_symmetry_space_group_name_H-M	'P1'
_symmetry_Int_Tables_number	1
_symmetry_cell_setting	triclinic
loop_
_symmetry_equiv_pos_as_xyz
  x,y,z
_cell_length_a	18.101398
_cell_length_b	21.295417
_cell_length_c	21.295412
_cell_angle_alpha	89.969332
_cell_angle_beta	89.971180
_cell_angle_gamma	90.025773
loop_
_atom_site_label
_atom_site_type_symbol
_atom_site_fract_x
_atom_site_fract_y
_atom_site_fract_z
Zn1	Zn	1.132157	-0.250704	-0.356000
Zn2	Zn	1.132044	-0.355973	-0.250726
Zn3	Zn	1.008306	-0.250713	-0.250736
Zn4	Zn	1.008268	-0.355931	-0.355948
O5	O	1.070194	-0.303330	-0.303352
O6	O	1.235775	-0.264682	-0.342053
O7	O	1.115599	-0.342031	-0.162638
O8	O	1.024798	-0.162622	-0.264726
O9	O	1.235692	-0.342023	-0.264709
O10	O	1.115791	-0.162616	-0.342063
O11	O	1.024689	-0.264697	-0.162645
O12	O	0.904668	-0.264656	-0.264674
O13	O	1.024733	-0.341951	-0.444044
O14	O	0.904640	-0.341959	-0.341973
O15	O	1.115754	-0.264642	-0.444083
O16	O	1.115562	-0.444057	-0.264658
O17	O	1.024624	-0.444026	-0.341964
C18	C	0.877783	-0.303305	-0.303320
C19	C	0.795469	-0.303309	-0.303321
C20	C	0.496378	-0.303348	-0.303373
C21	C	0.527696	-0.254468	-0.254976
C22	C	0.613315	-0.254599	-0.254770
C23	C	0.644761	-0.303328	-0.303347
C24	C	0.613642	-0.369638	-0.285216
C25	C	0.527997	-0.369367	-0.284880
C26	C	0.527999	-0.286495	-0.370015
C27	C	0.613650	-0.285018	-0.369652
C28	C	0.728620	-0.303321	-0.303333
C29	C	0.412519	-0.303360	-0.303386
C30	C	1.070097	-0.466882	-0.303318
C31	C	1.070123	-0.536850	-0.303324
C32	C	1.117516	-0.569712	-0.263112
C33	C	1.117551	-0.635454	-0.263126
C34	C	1.070179	-0.668332	-0.303345
C35	C	1.022782	-0.635463	-0.343565
C36	C	1.022754	-0.569721	-0.343554
N37	N	1.005395	-0.771594	-0.308133
N38	N	1.005424	-0.834045	-0.308140
C39	C	1.070262	-0.866407	-0.303382
N40	N	1.135072	-0.833958	-0.298604
N41	N	1.135042	-0.771501	-0.298594
C42	C	1.070205	-0.739618	-0.303362
C43	C	1.117697	-0.970554	-0.263183
C44	C	1.117733	-1.036298	-0.263201
C45	C	1.022958	-1.036305	-0.343637
C46	C	1.022928	-0.970563	-0.343622
C47	C	1.070297	-0.937691	-0.303391
C48	C	1.263356	-0.303356	-0.303386
C49	C	1.345670	-0.303367	-0.303400
C50	C	1.070252	-0.303291	-0.467543
C51	C	1.070276	-0.303274	-0.537511
C52	C	1.070311	-0.139140	-0.303401
C53	C	1.070362	-0.069172	-0.303422
C54	C	1.022952	-0.263002	-0.570371
C55	C	1.022950	-0.262990	-0.636114
C56	C	1.070284	-0.303244	-0.668994
C57	C	1.117612	-0.343525	-0.636125
C58	C	1.117608	-0.343540	-0.570384
N59	N	1.135112	-0.308056	-0.772237
N60	N	1.135114	-0.308039	-0.834688
C61	C	1.070298	-0.303202	-0.867068
N62	N	1.005479	-0.298373	-0.834638
N63	N	1.005478	-0.298387	-0.772180
C64	C	1.070294	-0.303233	-0.740279
C65	C	1.022967	-0.262915	-0.971214
C66	C	1.022963	-0.262908	-1.036958
C67	C	1.117632	-0.343439	-1.036968
C68	C	1.117629	-0.343450	-0.971226
C69	C	1.070298	-0.303184	-0.938353
C70	C	1.070179	-0.303324	-0.139801
C71	C	1.070298	-0.303163	-0.069833
H72	H	0.507980	-0.383660	-0.236161
N73	N	1.168665	-0.386938	-0.671590
H74	H	1.221585	-0.377174	-0.660172
H75	H	1.157066	-0.431899	-0.660121
N76	N	1.168652	-0.386979	-0.534937
H77	H	1.198637	-0.412480	-0.565740
H78	H	1.202942	-0.361366	-0.507684
H79	H	1.156089	-0.542950	-0.230355
H80	H	0.984213	-0.662236	-0.376314
N81	N	0.971900	-0.219585	-0.534909
H82	H	1.002018	-0.190426	-0.507652
H83	H	0.941925	-0.194110	-0.565739
H84	H	0.984421	-0.230115	-1.063712
N85	N	0.971908	-0.219498	-0.935755
H86	H	0.979090	-0.225615	-0.889121
H87	H	0.983465	-0.174539	-0.947267
N88	N	0.641997	-0.388905	-0.221381
H89	H	0.674992	-0.354782	-0.204115
H90	H	0.598877	-0.395666	-0.192026
H91	H	0.984333	-0.943805	-0.376364
H92	H	0.984160	-0.542965	-0.376301
N93	N	0.500441	-0.189134	-0.269854
H94	H	0.544005	-0.160752	-0.278465
H95	H	0.467517	-0.190643	-0.308099
N96	N	1.168682	-0.386862	-1.072421
H97	H	1.161502	-0.380744	-1.119055
H98	H	1.221579	-0.377076	-1.060955
N99	N	1.168675	-0.386884	-0.935778
H100	H	1.198662	-0.412384	-0.966581
H101	H	1.202963	-0.361271	-0.908522
N102	N	0.971905	-0.219553	-0.671567
H103	H	0.941919	-0.194049	-0.640767
H104	H	1.002079	-0.190423	-0.698863
H105	H	0.507278	-0.407019	-0.318593
H106	H	0.506428	-0.238983	-0.386499
H107	H	1.156270	-0.943789	-0.230426
N108	N	1.168850	-1.071743	-0.219823
H109	H	1.161684	-1.118378	-0.225936
H110	H	1.221731	-1.060206	-0.229659
N111	N	0.971868	-1.071757	-0.387023
H112	H	0.979078	-1.118391	-0.380931
H113	H	0.918978	-1.060311	-0.377180
H114	H	0.634356	-0.205427	-0.266135
N115	N	0.498880	-0.268880	-0.189992
H116	H	0.465658	-0.306955	-0.191761
H117	H	0.541721	-0.277540	-0.160888
H118	H	0.635059	-0.318025	-0.407644
N119	N	0.640402	-0.269356	-0.189359
H120	H	0.621515	-0.311998	-0.176140
H121	H	0.696194	-0.269466	-0.188994
H122	H	1.156147	-0.662215	-0.230381
N123	N	0.640591	-0.419173	-0.330459
H124	H	0.673314	-0.399059	-0.363219
H125	H	0.669598	-0.452016	-0.306749
H126	H	0.633994	-0.236221	-0.383323
H127	H	0.507746	-0.322097	-0.406076
