data_functionalizedCrystal
_audit_creation_method	'MofGen! by Chris Wilmer'
_symmetry_space_group_name_H-M	'P1'
_symmetry_Int_Tables_number	1
_symmetry_cell_setting	triclinic
loop_
_symmetry_equiv_pos_as_xyz
  x,y,z
_cell_length_a	13.101039
_cell_length_b	14.853567
_cell_length_c	14.853567
_cell_angle_alpha	96.365070
_cell_angle_beta	86.629197
_cell_angle_gamma	86.640591
loop_
_atom_site_label
_atom_site_type_symbol
_atom_site_fract_x
_atom_site_fract_y
_atom_site_fract_z
O1	O	0.085135	-1.201313	0.112739
O2	O	0.085152	-0.938855	0.126760
O3	O	0.085146	-1.077095	-0.011481
O4	O	0.085141	-1.063073	0.250979
O5	O	-0.085283	-1.067176	-0.001546
O6	O	-0.085278	-0.928936	0.136695
O7	O	-0.085294	-1.191395	0.122674
Zn8	Zn	-0.112345	-1.058591	0.131262
Zn9	Zn	0.112203	-1.071659	0.118172
O10	O	-0.085289	-1.053155	0.260914
C11	C	-0.000061	-0.900307	0.131092
C12	C	-0.000054	-0.800224	0.129187
C13	C	-0.000066	-1.071501	-0.040102
C14	C	-0.000057	-1.069597	-0.140186
N15	N	-0.265594	-1.049679	0.140195
C16	C	-0.474636	-1.037554	0.152356
C17	C	-0.525514	-1.092700	0.097073
C18	C	-0.641832	-1.085954	0.103840
C19	C	-0.358307	-1.044299	0.145591
N20	N	0.265451	-1.080578	0.109232
C21	C	-0.000080	-1.229943	0.118342
C22	C	-0.000080	-1.330027	0.120246
C23	C	-0.000075	-0.387689	0.039023
C24	C	-0.000078	-0.366408	0.203256
C25	C	-0.000074	-0.460441	0.205046
C26	C	-0.000070	-0.518104	0.123823
C27	C	-0.000069	-0.481732	0.040810
C28	C	-0.000065	-0.496821	0.288057
C29	C	-0.000061	-0.590860	0.289850
C30	C	-0.000064	-0.648524	0.208626
C31	C	-0.000064	-0.612147	0.125610
C32	C	-0.000059	-0.669809	0.044387
C33	C	-0.000067	-0.633433	-0.038629
C34	C	-0.000072	-0.539395	-0.040413
C35	C	-0.000058	-0.742562	0.210410
C36	C	-0.000053	-0.763852	0.046175
C37	C	-0.000070	-0.979431	-0.552719
C38	C	-0.000081	-1.143663	-0.573999
C39	C	-0.000075	-1.145453	-0.479966
C40	C	-0.000068	-1.064231	-0.422305
C41	C	-0.000068	-0.981219	-0.458677
C42	C	-0.000086	-1.228464	-0.443586
C43	C	-0.000081	-1.230258	-0.349548
C44	C	-0.000067	-1.149035	-0.291885
C45	C	-0.000065	-1.066019	-0.328262
C46	C	-0.000059	-0.984797	-0.270601
C47	C	-0.000050	-0.901780	-0.306977
C48	C	-0.000054	-0.899996	-0.401014
C49	C	-0.000063	-1.150819	-0.197848
C50	C	-0.000056	-0.986585	-0.176558
C51	C	-0.000075	-1.058749	0.289536
C52	C	-0.000077	-1.060653	0.389619
H53	H	-0.481713	-1.144980	0.044662
H54	H	-0.000101	-1.294590	-0.490540
H55	H	-0.518431	-0.985278	0.204765
H56	H	-0.000056	-0.680394	-0.104761
H57	H	-0.000054	-0.620469	0.357447
Cl58	Cl	-0.000089	-0.341961	-0.065335
Cl59	Cl	-0.000056	-0.836334	-0.055940
H60	H	-0.000077	-1.218410	-0.168234
H61	H	-0.000102	-0.509768	-0.107999
Cl62	Cl	-0.000069	-0.293919	0.305358
H63	H	-0.000058	-0.449867	0.354183
Cl64	Cl	-0.000049	-0.875073	-0.598447
Cl65	Cl	-0.000075	-1.334620	-0.303827
H66	H	-0.000054	-0.772175	0.278001
Cl67	Cl	-0.000050	-0.799676	-0.234477
Cl68	Cl	-0.000039	-0.795643	-0.446750
H69	H	-0.000046	-0.920443	-0.129615
H70	H	-0.000094	-1.209790	-0.620952
