data_functionalizedCrystal
_audit_creation_method	'MofGen! by Chris Wilmer'
_symmetry_space_group_name_H-M	'P1'
_symmetry_Int_Tables_number	1
_symmetry_cell_setting	triclinic
loop_
_symmetry_equiv_pos_as_xyz
  x,y,z
_cell_length_a	11.169417
_cell_length_b	12.759400
_cell_length_c	11.169409
_cell_angle_alpha	90.033794
_cell_angle_beta	90.019824
_cell_angle_gamma	90.015563
loop_
_atom_site_label
_atom_site_type_symbol
_atom_site_fract_x
_atom_site_fract_y
_atom_site_fract_z
Zn1	Zn	1.834926	-0.418157	0.678531
Zn2	Zn	1.834800	-0.593882	0.477842
Zn3	Zn	1.634212	-0.418221	0.477865
Zn4	Zn	1.634204	-0.593797	0.678487
O5	O	1.734536	-0.506014	0.578181
O6	O	2.002859	-0.441476	0.651918
O7	O	1.808142	-0.570643	0.309896
O8	O	1.660893	-0.271191	0.504511
O9	O	2.002767	-0.570581	0.504473
O10	O	1.808357	-0.271144	0.651939
O11	O	1.660771	-0.441585	0.309912
O12	O	1.466261	-0.441502	0.504469
O13	O	1.660880	-0.570435	0.846443
O14	O	1.466256	-0.570497	0.651866
O15	O	1.808349	-0.441393	0.846475
O16	O	1.808135	-0.740892	0.504431
O17	O	1.660758	-0.740829	0.651844
C18	C	1.422711	-0.505998	0.578166
C19	C	1.289311	-0.506017	0.578188
C20	C	1.734464	-0.778981	0.578156
C21	C	1.734544	-0.895758	0.578186
C22	C	1.811368	-0.950618	0.501513
C23	C	1.811442	-1.060342	0.501550
C24	C	1.657857	-1.060337	0.654936
C25	C	1.657790	-0.950615	0.654904
C26	C	1.888122	-0.895761	0.424794
C27	C	1.964952	-0.950621	0.348114
C28	C	1.965025	-1.060345	0.348151
C29	C	1.888270	-1.115209	0.424868
C30	C	2.047578	-0.506031	0.578198
C31	C	2.180978	-0.506038	0.578204
C32	C	1.734628	-0.505897	0.891224
C33	C	1.734667	-0.505848	1.024624
C34	C	1.734640	-0.231981	0.578233
C35	C	1.734684	-0.115204	0.578255
C36	C	1.734513	-0.506054	0.266357
C37	C	1.734706	-0.505808	0.132957
H38	H	1.888067	-0.806419	0.424752
H39	H	1.595365	-1.105016	0.717395
O40	O	1.583058	-0.897479	0.729428
C41	C	1.515346	-0.969422	0.797167
H42	H	1.511243	-1.047674	0.748026
H43	H	1.559272	-0.981000	0.888351
C44	C	1.392624	-0.830555	0.874726
C45	C	1.387577	-0.926662	0.814364
H46	H	1.313812	-0.804178	0.885339
H47	H	1.438245	-0.782084	0.829092
H48	H	1.429235	-0.840216	0.950706
H49	H	1.350980	-0.916998	0.738381
H50	H	1.341946	-0.975130	0.859985
H51	H	1.888345	-1.204554	0.424902
O52	O	2.039621	-0.897494	0.273557
C53	C	2.107425	-0.969447	0.205871
H54	H	2.111612	-1.047619	0.255062
H55	H	2.063523	-0.981223	0.114689
C56	C	2.229996	-0.830531	0.128241
C57	C	2.235147	-0.926540	0.188663
H58	H	2.308779	-0.804063	0.117620
H59	H	2.184313	-0.782053	0.173838
H60	H	2.193405	-0.840357	0.052262
H61	H	2.271722	-0.916710	0.264645
H62	H	2.280839	-0.975015	0.143078
O63	O	2.039851	-1.113652	0.273881
C64	C	2.117356	-1.176985	0.342349
H65	H	2.124602	-1.143843	0.436879
H66	H	2.080367	-1.260189	0.346444
C67	C	2.233300	-1.219245	0.167812
C68	C	2.242207	-1.178534	0.283913
H69	H	2.310312	-1.220205	0.131764
H70	H	2.181080	-1.176580	0.121682
H71	H	2.202470	-1.288578	0.171240
H72	H	2.273021	-1.109198	0.280482
H73	H	2.294434	-1.221188	0.330041
