data_functionalizedCrystal
_audit_creation_method	'MofGen! by Chris Wilmer'
_symmetry_space_group_name_H-M	'P1'
_symmetry_Int_Tables_number	1
_symmetry_cell_setting	triclinic
loop_
_symmetry_equiv_pos_as_xyz
  x,y,z
_cell_length_a	12.503572
_cell_length_b	14.519709
_cell_length_c	14.519709
_cell_angle_alpha	83.680145
_cell_angle_beta	93.534022
_cell_angle_gamma	86.467165
loop_
_atom_site_label
_atom_site_type_symbol
_atom_site_fract_x
_atom_site_fract_y
_atom_site_fract_z
O1	O	-0.089184	-1.218552	-0.126203
O2	O	0.410816	-0.718552	0.373797
O3	O	-0.089218	-0.950073	-0.140441
O4	O	0.410782	-0.450073	0.359559
O5	O	-0.089190	-1.091431	0.000917
O6	O	0.410810	-0.591431	0.500917
O7	O	-0.089212	-1.077193	-0.267561
O8	O	0.410788	-0.577193	0.232439
O9	O	0.089454	-1.102067	0.011561
O10	O	0.589454	-0.602067	0.511561
O11	O	0.089426	-0.960708	-0.129797
O12	O	0.589426	-0.460708	0.370203
O13	O	0.089460	-1.229187	-0.115559
O14	O	0.589460	-0.729187	0.384441
Cu15	Cu	0.105755	-1.095919	-0.121706
Cu16	Cu	0.605755	-0.595919	0.378294
Cu17	Cu	-0.105513	-1.083341	-0.134294
Cu18	Cu	0.394487	-0.583341	0.365706
O19	O	0.089432	-1.087829	-0.256917
O20	O	0.589432	-0.587829	0.243083
C21	C	0.000100	-0.921031	-0.134456
C22	C	0.500100	-0.421031	0.365544
C23	C	0.000088	-0.818649	-0.132469
C24	C	0.500088	-0.318649	0.367531
N25	N	-0.254107	-1.074495	-0.143141
N26	N	0.245893	-0.574495	0.356859
C27	C	0.000132	-1.096086	0.040599
C28	C	0.500132	-0.596086	0.540599
C29	C	0.000132	-1.094097	0.142980
C30	C	0.500132	-0.594097	0.642980
C31	C	-0.473224	-1.061475	-0.156155
C32	C	0.026776	-0.561475	0.343845
C33	C	-0.526541	-1.117790	-0.099841
C34	C	-0.026541	-0.617790	0.400159
C35	C	-0.648465	-1.110545	-0.107082
C36	C	-0.148465	-0.610545	0.392918
C37	C	-0.351289	-1.068718	-0.148915
C38	C	0.148711	-0.568718	0.351085
N39	N	0.254349	-1.104772	-0.112852
N40	N	0.754349	-0.604772	0.387148
C41	C	0.000139	-1.258229	-0.121544
C42	C	0.500139	-0.758229	0.378456
C43	C	0.000145	-1.360611	-0.123532
C44	C	0.500145	-0.860611	0.376468
C45	C	0.000137	-0.443756	-0.125146
C46	C	0.500137	0.056244	0.374854
C47	C	0.000123	-0.548063	-0.127180
C48	C	0.500123	-0.048063	0.372820
C49	C	0.000112	-0.631199	-0.128807
C50	C	0.500112	-0.131199	0.371193
C51	C	0.000100	-0.735513	-0.130841
C52	C	0.500100	-0.235513	0.369159
C53	C	0.000108	-1.083175	-0.296599
C54	C	0.500108	-0.583175	0.203401
C55	C	0.000101	-1.085162	-0.398981
C56	C	0.500101	-0.585162	0.101019
C57	C	0.000103	-1.086776	0.517874
C58	C	0.500103	-0.586776	1.017874
C59	C	0.000112	-1.088809	0.413567
C60	C	0.500112	-0.588809	0.913567
C61	C	0.000119	-1.090437	0.330430
C62	C	0.500119	-0.590437	0.830430
C63	C	0.000125	-1.092470	0.226116
C64	C	0.500125	-0.592470	0.726116
H65	H	-0.480617	-1.171443	-0.046190
H66	H	0.019383	-0.671443	0.453810
H67	H	-0.519142	-1.007824	-0.209801
H68	H	-0.019142	-0.507824	0.290199
