data_functionalizedCrystal
_audit_creation_method	'MofGen! by Chris Wilmer'
_symmetry_space_group_name_H-M	'P1'
_symmetry_Int_Tables_number	1
_symmetry_cell_setting	triclinic
loop_
_symmetry_equiv_pos_as_xyz
  x,y,z
_cell_length_a	20.919309
_cell_length_b	14.809374
_cell_length_c	14.809374
_cell_angle_alpha	60.797835
_cell_angle_beta	90.489664
_cell_angle_gamma	65.055241
loop_
_atom_site_label
_atom_site_type_symbol
_atom_site_fract_x
_atom_site_fract_y
_atom_site_fract_z
Zr1	Zr	0.726531	0.884033	-0.160180
O2	O	0.645958	1.049847	-0.312163
O3	O	0.739824	0.704965	-0.101308
O4	O	0.766730	0.851477	-0.286237
O5	O	0.610804	0.933638	0.004671
O6	O	0.874973	0.840874	-0.279757
O7	O	0.619052	0.903335	-0.127234
O8	O	0.826843	0.578790	0.051048
O9	O	0.658934	1.195722	-0.326134
O10	O	0.840056	0.775615	-0.086202
O11	O	0.753120	0.806143	0.007401
O12	O	0.784798	0.978642	-0.210329
O13	O	0.697862	1.009170	-0.116727
Zr14	Zr	0.886012	0.915454	0.060526
Zr15	Zr	0.899166	0.867123	-0.149846
Zr16	Zr	0.713377	0.932364	0.050192
Zr17	Zr	0.747226	1.116687	-0.182463
Zr18	Zr	0.865317	0.682800	0.082809
O19	O	0.872719	1.094522	0.001654
O20	O	0.891422	1.025802	-0.297468
O21	O	0.627254	1.118567	-0.013041
O22	O	0.966585	0.749640	0.212509
O23	O	0.985289	0.680920	-0.086613
O24	O	0.721121	0.773685	0.197814
O25	O	1.001739	0.865849	-0.104325
O26	O	0.845813	0.948010	0.186583
O27	O	0.737570	0.958613	0.180103
O28	O	0.993491	0.896152	0.027580
O29	O	0.796155	1.182280	-0.317919
O30	O	0.816388	0.617207	0.218265
O31	O	0.953609	0.603765	0.226480
O32	O	0.964065	0.565349	0.059262
O33	O	0.648478	1.234138	-0.158916
O34	O	0.785700	1.220697	-0.150702
O35	O	0.827745	0.820845	0.110675
O36	O	0.914681	0.790317	0.017073
O37	O	0.859423	0.993344	-0.107055
O38	O	0.772487	1.023872	-0.013452
C39	C	0.780385	0.608729	-0.021955
C40	C	0.771599	0.509962	-0.012496
C41	C	0.810809	0.450784	-0.054712
C42	C	0.801729	0.348702	-0.044936
C43	C	0.590332	0.920896	-0.062754
C44	C	0.517043	0.928075	-0.067141
C45	C	0.511455	0.825472	-0.004415
C46	C	0.442591	0.832224	-0.008540
C47	C	0.379317	0.941580	-0.075398
C48	C	0.384908	1.044192	-0.138127
C49	C	0.453771	1.037439	-0.133996
C50	C	0.169953	0.967271	-0.091110
C51	C	0.101088	0.974015	-0.095239
C52	C	0.158776	0.762047	0.034350
C53	C	0.227638	0.755303	0.038471
C54	C	0.233222	0.857916	-0.024254
C55	C	0.308926	0.948484	-0.079619
C56	C	0.303612	0.851012	-0.020026
C57	C	1.022212	0.878591	-0.036900
C58	C	1.095500	0.871412	-0.032513
C59	C	0.822725	0.839289	-0.312971
C60	C	0.828310	0.818771	-0.402279
C61	C	0.832158	1.190758	-0.077699
C62	C	0.840944	1.289525	-0.087158
C63	C	0.803388	0.910339	-0.503671
C64	C	0.809159	0.889135	-0.595978
C65	C	0.789818	0.960198	0.213317
C66	C	0.784233	0.980716	0.302625
C67	C	0.996325	0.587577	-0.009028
C68	C	1.060828	0.481630	0.004818
C69	C	0.763931	0.669184	0.241188
C70	C	0.749561	0.590934	0.339956
C71	C	0.979871	0.648031	0.254115
C72	C	1.038789	0.562602	0.357270
C73	C	0.632672	1.151456	-0.353769
C74	C	0.573754	1.236885	-0.456924
C75	C	0.616218	1.211910	-0.090626
C76	C	0.551716	1.317857	-0.104472
C77	C	0.848612	1.130303	-0.340842
C78	C	0.862982	1.208553	-0.439610
C79	C	1.052165	0.424200	-0.042596
C80	C	1.112768	0.324661	-0.029607
C81	C	1.182031	0.282549	0.030803
C82	C	1.190692	0.339989	0.078219
C83	C	1.130091	0.439531	0.065223
C84	C	0.781766	0.561864	0.440256
C85	C	0.768262	0.488355	0.533065
C86	C	0.722556	0.443911	0.525574
C87	C	0.690348	0.472988	0.425263
C88	C	0.703848	0.546503	0.332455
C89	C	1.111845	0.506548	0.356854
C90	C	1.167213	0.426289	0.453770
C91	C	1.149524	0.402080	0.551103
C92	C	1.076461	0.458144	0.551516
C93	C	1.021095	0.538407	0.454600
C94	C	0.500699	1.292950	-0.456509
C95	C	0.445334	1.373238	-0.553428
C96	C	0.463023	1.397452	-0.650761
C97	C	0.536085	1.341382	-0.651174
C98	C	0.591450	1.261103	-0.554256
C99	C	0.560379	1.375294	-0.057068
C100	C	0.499780	1.474854	-0.070082
C101	C	0.430517	1.516968	-0.130496
C102	C	0.421856	1.459525	-0.177907
C103	C	0.482455	1.359973	-0.164898
C104	C	0.908691	1.252974	-0.432084
C105	C	0.922207	1.326486	-0.524877
C106	C	0.890009	1.355582	-0.625195
C107	C	0.844298	1.311153	-0.632719
C108	C	0.830787	1.237635	-0.539926
H109	H	0.731311	0.485050	0.030887
N110	N	0.641064	0.425028	0.417198
H111	H	0.622707	0.454591	0.339577
H112	H	0.598073	0.452812	0.445696
H113	H	0.794495	0.464689	0.614733
H114	H	0.616770	1.341015	-0.007867
N115	N	0.943423	1.221590	-0.323886
H116	H	0.927120	1.296361	-0.324124
H117	H	0.998488	1.179076	-0.308869
H118	H	1.194613	0.336721	0.630010
H119	H	0.777782	1.004431	-0.522139
N120	N	1.057387	0.432025	0.656499
H121	H	1.103551	0.372667	0.717824
H122	H	1.023039	0.398346	0.666138
H123	H	0.550481	1.361108	-0.730434
N124	N	0.670244	1.200608	-0.554702
H125	H	0.700113	1.221226	-0.521902
H126	H	0.672981	1.228151	-0.631093
H127	H	0.901017	1.415447	-0.700745
H128	H	0.506846	1.521609	-0.031468
N129	N	0.459795	1.148109	-0.201660
H130	H	0.490173	1.138678	-0.252252
H131	H	0.483965	1.161330	-0.153344
N132	N	0.708001	0.364612	0.625676
H133	H	0.684354	0.408543	0.661533
H134	H	0.755765	0.291313	0.676773
N135	N	0.365155	1.624330	-0.144510
H136	H	0.343206	1.688607	-0.223459
H137	H	0.381208	1.654218	-0.105245
N138	N	0.347146	1.504939	-0.243045
H139	H	0.310076	1.576711	-0.244074
H140	H	0.332782	1.440881	-0.209636
H141	H	0.475390	1.313210	-0.203499
H142	H	0.174491	1.050822	-0.142203
N143	N	0.809573	1.342541	-0.740923
H144	H	0.825070	1.395858	-0.798556
H145	H	0.754508	1.384978	-0.755915
N146	N	0.942298	0.598836	0.455064
H147	H	0.909901	0.653356	0.378905
H148	H	0.937016	0.646417	0.488113
N149	N	0.971511	1.374394	-0.516748
H150	H	0.989849	1.344811	-0.439115
H151	H	0.943124	1.463861	-0.560567
N152	N	0.366536	1.433701	-0.552969
H153	H	0.363736	1.406164	-0.476599
H154	H	0.336724	1.413055	-0.585825
H155	H	0.486281	1.273241	-0.377265
H156	H	0.995775	0.458482	-0.091800
H157	H	1.247095	0.305686	0.127404
N158	N	0.579699	0.707520	0.067688
H159	H	0.565707	0.643547	0.106800
H160	H	0.606438	0.711451	0.121647
N161	N	0.669068	0.577923	0.224267
H162	H	0.638054	0.538630	0.233612
H163	H	0.708631	0.549497	0.191017
N164	N	0.781481	1.189738	-0.548063
H165	H	0.731114	1.257819	-0.595453
H166	H	0.777859	1.138731	-0.474027
H167	H	0.417935	1.462823	-0.729670
N168	N	0.371850	0.733062	0.052085
H169	H	0.398616	0.736887	0.106107
H170	H	0.404741	0.714258	0.007185
N171	N	0.864176	0.483773	-0.112184
H172	H	0.902199	0.474313	-0.060945
H173	H	0.836932	0.568843	-0.175099
N174	N	0.748360	0.315716	0.012540
H175	H	0.749440	0.247466	0.011380
H176	H	0.697366	0.386126	-0.024740
H177	H	1.226699	0.380648	0.453415
N178	N	0.894321	0.322493	-0.144625
H179	H	0.932345	0.313027	-0.093381
H180	H	0.867086	0.407562	-0.207545
N181	N	0.436561	0.721560	0.059111
H182	H	0.458067	0.685398	0.137576
H183	H	0.464235	0.662789	0.038642
H184	H	0.279155	0.666250	0.092895
N185	N	0.316665	1.162145	-0.210230
H186	H	0.272192	1.150855	-0.203332
H187	H	0.319198	1.195897	-0.287224
H188	H	0.154220	0.678506	0.085417
N189	N	1.130933	0.532638	0.251884
H190	H	1.185618	0.484942	0.266342
H191	H	1.114800	0.619902	0.204299
H192	H	0.049567	1.063070	-0.149688
N193	N	0.240676	1.066421	-0.151735
H194	H	0.243139	1.100225	-0.228764
H195	H	0.236989	1.122856	-0.129844
N196	N	0.843091	0.764486	-0.571490
H197	H	0.842406	0.767007	-0.640901
H198	H	0.814225	0.725509	-0.530980
N199	N	0.750314	1.105362	-0.721858
H200	H	0.706314	1.121999	-0.692316
H201	H	0.734523	1.163474	-0.802213
N202	N	0.862239	0.694131	-0.377804
H203	H	0.825133	0.685439	-0.412201
H204	H	0.878082	0.636013	-0.297447
N205	N	1.103410	0.262727	-0.080754
H206	H	1.067883	0.233397	-0.051921
H207	H	1.152336	0.193330	-0.063356
N208	N	1.247391	0.175187	0.044814
H209	H	1.231387	0.145200	0.005608
H210	H	1.269309	0.110989	0.123783
N211	N	1.139439	0.501466	0.116371
H212	H	1.192513	0.459674	0.156612
H213	H	1.108045	0.499790	0.167986
H214	H	0.818983	0.598043	0.446375
