data_functionalizedCrystal
_audit_creation_method	'MofGen! by Chris Wilmer'
_symmetry_space_group_name_H-M	'P1'
_symmetry_Int_Tables_number	1
_symmetry_cell_setting	triclinic
loop_
_symmetry_equiv_pos_as_xyz
  x,y,z
_cell_length_a	6.817900
_cell_length_b	11.102288
_cell_length_c	16.255661
_cell_angle_alpha	93.854370
_cell_angle_beta	103.488922
_cell_angle_gamma	108.605689
loop_
_atom_site_label
_atom_site_type_symbol
_atom_site_fract_x
_atom_site_fract_y
_atom_site_fract_z
V1	V	-4.052939	-0.176866	-0.263871
O2	O	-4.013087	0.007443	-0.258848
O3	O	-4.030117	-0.349679	-0.262067
O4	O	-4.004166	-0.174609	-0.378954
O5	O	-4.039217	-0.168840	-0.141151
V6	V	-4.533301	-0.154766	-0.249193
O7	O	-4.321131	-0.225344	-0.296069
O8	O	-4.715306	-0.106287	-0.216995
O9	O	-4.332916	0.018048	-0.250997
O10	O	-4.690550	-0.339074	-0.254216
O11	O	-4.664420	-0.162792	-0.371913
O12	O	-4.358867	-0.157023	-0.134110
C13	C	-3.881352	-0.391793	-0.257904
C14	C	-3.943976	-0.533073	-0.257196
C15	C	-3.848248	-0.168472	-0.407005
C16	C	-3.889824	-0.167770	-0.501086
C17	C	-4.156468	-0.605936	-0.261085
C18	C	-4.215302	-0.738685	-0.260426
C19	C	-3.849130	-0.725694	-0.251984
C20	C	-3.790303	-0.592949	-0.252650
C21	C	-3.799137	-0.159385	-0.723905
C22	C	-3.971599	-0.267595	-0.793381
C23	C	-3.966013	-0.166454	-0.673335
C24	C	-3.867658	-0.057005	-0.771496
C25	C	-4.039592	-0.165177	-0.839718
C26	C	-4.137972	-0.274760	-0.741581
C27	C	-4.033954	-0.064074	-0.719680
C28	C	-4.206557	-0.172315	-0.789137
C29	C	-3.923622	-0.167190	-0.577485
C30	C	-4.082002	-0.164450	-0.935567
C31	C	-4.145024	0.060155	-0.255158
C32	C	-4.061638	0.201433	-0.255872
C33	C	-4.178128	-0.163164	-0.106055
C34	C	-4.115790	-0.163859	-0.011973
H35	H	-4.281602	-0.557189	-0.264786
N36	N	-3.573217	-0.518530	-0.248666
N37	N	-3.423973	-0.514737	-0.185832
H38	H	-3.270662	-0.462180	-0.183021
N39	N	-4.066343	0.043882	-0.679400
N40	N	-3.955135	0.155557	-0.684515
H41	H	-3.977986	0.231813	-0.656064
H42	H	-4.388329	-0.798006	-0.263595
N43	N	-3.582675	-0.152673	-0.688162
N44	N	-3.429672	-0.058954	-0.695162
H45	H	-3.276800	-0.054216	-0.669916
N46	N	-3.724785	0.058408	-0.788564
N47	N	-3.526202	0.083288	-0.764354
H48	H	-3.425285	0.164783	-0.776419
H49	H	-3.945686	-0.353640	-0.825467
H50	H	-4.379245	-0.177811	-0.817484
N51	N	-3.692194	-0.786880	-0.247343
N52	N	-3.744740	-0.905401	-0.246750
H53	H	-3.633900	-0.948614	-0.243470
N54	N	-4.280833	-0.390324	-0.724680
N55	N	-4.271673	-0.409551	-0.649212
H56	H	-4.372563	-0.491167	-0.637273
