data_functionalizedCrystal
_audit_creation_method	'MofGen! by Chris Wilmer'
_symmetry_space_group_name_H-M	'P1'
_symmetry_Int_Tables_number	1
_symmetry_cell_setting	triclinic
loop_
_symmetry_equiv_pos_as_xyz
  x,y,z
_cell_length_a	21.395362
_cell_length_b	21.295417
_cell_length_c	21.395356
_cell_angle_alpha	89.970425
_cell_angle_beta	89.957023
_cell_angle_gamma	90.045579
loop_
_atom_site_label
_atom_site_type_symbol
_atom_site_fract_x
_atom_site_fract_y
_atom_site_fract_z
Zn1	Zn	0.957858	-0.250358	-0.354577
Zn2	Zn	0.957764	-0.355627	-0.249796
Zn3	Zn	0.853075	-0.250404	-0.249779
Zn4	Zn	0.853044	-0.355623	-0.354501
O5	O	0.905435	-0.303003	-0.302163
O6	O	1.045523	-0.264305	-0.340717
O7	O	0.943850	-0.341690	-0.162116
O8	O	0.867027	-0.162309	-0.263705
O9	O	1.045454	-0.341645	-0.263735
O10	O	0.944010	-0.162275	-0.340700
O11	O	0.866935	-0.264383	-0.162103
O12	O	0.765393	-0.264380	-0.263631
O13	O	0.866974	-0.341638	-0.442189
O14	O	0.765370	-0.341683	-0.340570
O15	O	0.943981	-0.264301	-0.442245
O16	O	0.943821	-0.443716	-0.263661
O17	O	0.866883	-0.443713	-0.340587
C18	C	0.742647	-0.303036	-0.302091
C19	C	0.673006	-0.303066	-0.302074
C20	C	0.640298	-0.343371	-0.342077
C21	C	0.574862	-0.343356	-0.342105
C22	C	0.542138	-0.303042	-0.302119
C23	C	0.574854	-0.262728	-0.262114
C24	C	0.640288	-0.262741	-0.262092
C25	C	0.438414	-0.297979	-0.245714
C26	C	0.372981	-0.297972	-0.245735
C27	C	0.340317	-0.303000	-0.302188
C28	C	0.373094	-0.308050	-0.358622
C29	C	0.438528	-0.308062	-0.358599
C30	C	0.471186	-0.303024	-0.302139
C31	C	0.236656	-0.343291	-0.342224
C32	C	0.171220	-0.343271	-0.342253
C33	C	0.171213	-0.262647	-0.262257
C34	C	0.236648	-0.262664	-0.262234
C35	C	0.269366	-0.302989	-0.302216
C36	C	0.905355	-0.466555	-0.302132
C37	C	0.905378	-0.536523	-0.302139
C38	C	0.945441	-0.569315	-0.342259
C39	C	0.945463	-0.635057	-0.342275
C40	C	0.905429	-0.668005	-0.302159
C41	C	0.865359	-0.635206	-0.262036
C42	C	0.865334	-0.569464	-0.262026
N43	N	0.900693	-0.771268	-0.247324
N44	N	0.900721	-0.833719	-0.247335
C45	C	0.905502	-0.866080	-0.302187
N46	N	0.910268	-0.833630	-0.357029
N47	N	0.910243	-0.771173	-0.357017
C48	C	0.905452	-0.739291	-0.302165
C49	C	0.945591	-0.970157	-0.342327
C50	C	0.945609	-1.035901	-0.342344
C51	C	0.865508	-1.036048	-0.262100
C52	C	0.865487	-0.970306	-0.262089
C53	C	0.905532	-0.937364	-0.302202
C54	C	1.068858	-0.302970	-0.302237
C55	C	1.138500	-0.302956	-0.302268
C56	C	0.905484	-0.302964	-0.465587
C57	C	0.905505	-0.302947	-0.535228
C58	C	0.905532	-0.138813	-0.302209
C59	C	0.905574	-0.068845	-0.302228
C60	C	0.865467	-0.262689	-0.567925
C61	C	0.865464	-0.262678	-0.633360
C62	C	0.905512	-0.302917	-0.666096
C63	C	0.945554	-0.343183	-0.633392
C64	C	0.945551	-0.343198	-0.567958
C65	C	0.961964	-0.307851	-0.769802
C66	C	0.961969	-0.307831	-0.835235
C67	C	0.905523	-0.302875	-0.867917
C68	C	0.849070	-0.297925	-0.835159
C69	C	0.849067	-0.297940	-0.769725
C70	C	0.905520	-0.302906	-0.737049
C71	C	0.865478	-0.262602	-0.971566
C72	C	0.865475	-0.262595	-1.037003
C73	C	0.945570	-0.343097	-1.037034
C74	C	0.945568	-0.343108	-0.971598
C75	C	0.905523	-0.302857	-0.938869
C76	C	0.905422	-0.302997	-0.139376
C77	C	0.905523	-0.302836	-0.069735
H78	H	0.346501	-0.312144	-0.404591
O79	O	0.543177	-0.382566	-0.380987
C80	C	0.550085	-0.462505	-0.460358
C81	C	0.586043	-0.418146	-0.416343
H82	H	0.584726	-0.491273	-0.488963
H83	H	0.519401	-0.495418	-0.431573
H84	H	0.519499	-0.433628	-0.493154
H85	H	0.616663	-0.446972	-0.383538
H86	H	0.616687	-0.385232	-0.445166
H87	H	0.144589	-0.376091	-0.374832
H88	H	0.465004	-0.293882	-0.199740
H89	H	0.832908	-1.062874	-0.229441
O90	O	0.984415	-0.666985	-0.381163
C91	C	1.069061	-0.741068	-0.389705
C92	C	1.024978	-0.704966	-0.345593
H93	H	1.101876	-0.771775	-0.360963
H94	H	1.040329	-0.771901	-0.422428
H95	H	1.097644	-0.706214	-0.418384
H96	H	0.996386	-0.739775	-0.316872
H97	H	1.053746	-0.674123	-0.312911
O98	O	0.826653	-0.223531	-0.536103
C99	C	0.818264	-0.138589	-0.462212
C100	C	0.862293	-0.182885	-0.498225
H101	H	0.847061	-0.105725	-0.431569
H102	H	0.789655	-0.109768	-0.496795
H103	H	0.785471	-0.167520	-0.431576
H104	H	0.895124	-0.154003	-0.528861
H105	H	0.890858	-0.211709	-0.463607
H106	H	0.465213	-0.312172	-0.404550
O107	O	0.984418	-0.382392	-0.536262
C108	C	1.014741	-0.489469	-0.516196
C109	C	0.970693	-0.445154	-0.552143
H110	H	1.003652	-0.540222	-0.529012
H111	H	1.065280	-0.478455	-0.529114
H112	H	1.007871	-0.482532	-0.463810
H113	H	0.977507	-0.452066	-0.604538
H114	H	0.920170	-0.456179	-0.539173
H115	H	1.007934	-0.311882	-0.743197
O116	O	0.984400	-0.537287	-0.381138
C117	C	1.068930	-0.462924	-0.389668
C118	C	1.024861	-0.499170	-0.345565
H119	H	1.101645	-0.432089	-0.360925
H120	H	1.097615	-0.497629	-0.418337
H121	H	1.040121	-0.432188	-0.422401
H122	H	1.053622	-0.529908	-0.312794
H123	H	0.996175	-0.464432	-0.316939
O124	O	0.984589	-1.067660	-0.381337
C125	C	1.064021	-1.060573	-0.460938
C126	C	1.019917	-1.024527	-0.416802
H127	H	1.092586	-1.025716	-0.489632
H128	H	1.096846	-1.091315	-0.432244
H129	H	1.035245	-1.091380	-0.493646
H130	H	1.048642	-0.993686	-0.384085
H131	H	0.987090	-0.993825	-0.445535
H132	H	0.978196	-0.943335	-0.374992
H133	H	0.978161	-0.375947	-0.660050
H134	H	0.144569	-0.229820	-0.229703
H135	H	0.263280	-0.229846	-0.229656
H136	H	0.666932	-0.376206	-0.374635
H137	H	0.832762	-0.662036	-0.229375
H138	H	0.263296	-0.376123	-0.374784
H139	H	0.346299	-0.293864	-0.199784
H140	H	0.666919	-0.229917	-0.229517
O141	O	0.543139	-0.223599	-0.223183
C142	C	0.523010	-0.192924	-0.116664
C143	C	0.558974	-0.237271	-0.160684
H144	H	0.535789	-0.203970	-0.066124
H145	H	0.535948	-0.142171	-0.127704
H146	H	0.470626	-0.199828	-0.123580
H147	H	0.611366	-0.230423	-0.153792
H148	H	0.545984	-0.288007	-0.149633
H149	H	0.832861	-0.229892	-0.659987
O150	O	0.826508	-0.938421	-0.223199
C151	C	0.741917	-0.864275	-0.214648
C152	C	0.786016	-0.900355	-0.258762
H153	H	0.709177	-0.833480	-0.243382
H154	H	0.713261	-0.899087	-0.185989
H155	H	0.770702	-0.833512	-0.181906
H156	H	0.757280	-0.931118	-0.291542
H157	H	0.814674	-0.865509	-0.287377
O158	O	0.794175	-0.293161	-0.738000
C159	C	0.682197	-0.283304	-0.744821
C160	C	0.744316	-0.288723	-0.780827
H161	H	0.641871	-0.279702	-0.779432
H162	H	0.675516	-0.326615	-0.714188
H163	H	0.683225	-0.239535	-0.714181
H164	H	0.743332	-0.332467	-0.811502
H165	H	0.750973	-0.245381	-0.811421
O166	O	0.826397	-0.537705	-0.222990
C167	C	0.746922	-0.544788	-0.143431
C168	C	0.790995	-0.580835	-0.187598
H169	H	0.718279	-0.579643	-0.114814
H170	H	0.775664	-0.514017	-0.110658
H171	H	0.714164	-0.514010	-0.172162
H172	H	0.823762	-0.611648	-0.158918
H173	H	0.762215	-0.611567	-0.220373
O174	O	0.794236	-0.293233	-0.866921
C175	C	0.724005	-0.341380	-0.940742
C176	C	0.786112	-0.346777	-0.904800
H177	H	0.717423	-0.384658	-0.971387
H178	H	0.683636	-0.337888	-0.906113
H179	H	0.724999	-0.297569	-0.971370
H180	H	0.785180	-0.390587	-0.874171
H181	H	0.826455	-0.350234	-0.939464
H182	H	0.832871	-0.229828	-0.944916
H183	H	0.832866	-0.229814	-1.063623
O184	O	0.984459	-0.382122	-1.068923
C185	C	1.019945	-0.417793	-1.169742
C186	C	0.975880	-0.373556	-1.133702
H187	H	1.013016	-0.410892	-1.222122
H188	H	1.070484	-0.406722	-1.156958
H189	H	1.008927	-0.468552	-1.156819
H190	H	0.986843	-0.322781	-1.146605
H191	H	0.925355	-0.384680	-1.146489
H192	H	0.978173	-0.375889	-0.944977
O193	O	1.016857	-0.312672	-0.866956
C194	C	1.128839	-0.322472	-0.860124
C195	C	1.066721	-0.317009	-0.824124
H196	H	1.169172	-0.325967	-0.825511
H197	H	1.127882	-0.366269	-0.890730
H198	H	1.135452	-0.279177	-0.890792
H199	H	1.060069	-0.360271	-0.793423
H200	H	1.067707	-0.273186	-0.793558
