data_functionalizedCrystal
_audit_creation_method	'MofGen! by Chris Wilmer'
_symmetry_space_group_name_H-M	'P1'
_symmetry_Int_Tables_number	1
_symmetry_cell_setting	triclinic
loop_
_symmetry_equiv_pos_as_xyz
  x,y,z
_cell_length_a	12.827893
_cell_length_b	12.759399
_cell_length_c	12.827885
_cell_angle_alpha	89.972517
_cell_angle_beta	90.019272
_cell_angle_gamma	89.984498
loop_
_atom_site_label
_atom_site_type_symbol
_atom_site_fract_x
_atom_site_fract_y
_atom_site_fract_z
Zn1	Zn	1.597669	0.418214	0.590867
Zn2	Zn	1.597562	0.593930	0.416135
Zn3	Zn	1.422910	0.418266	0.416140
Zn4	Zn	1.422895	0.593852	0.590835
O5	O	1.510259	0.506066	0.503494
O6	O	1.743891	0.441535	0.567699
O7	O	1.574356	0.570683	0.269899
O8	O	1.446143	0.271238	0.439334
O9	O	1.743812	0.570633	0.439324
O10	O	1.574537	0.271200	0.567705
O11	O	1.446040	0.441623	0.269904
O12	O	1.276672	0.441546	0.439303
O13	O	1.446117	0.570498	0.737075
O14	O	1.276661	0.570549	0.567650
O15	O	1.574523	0.441458	0.737099
O16	O	1.574341	0.740941	0.439293
O17	O	1.446014	0.740883	0.567644
C18	C	1.238749	0.506045	0.503474
C19	C	1.122596	0.506062	0.503490
C20	C	1.070833	0.569996	0.566903
C21	C	0.950783	0.570015	0.566921
C22	C	1.510193	0.779033	0.503487
C23	C	1.510260	0.895810	0.503520
C24	C	1.577154	0.950667	0.436764
C25	C	1.577216	1.060391	0.436802
C26	C	1.443483	1.060391	0.570355
C27	C	1.443426	0.950669	0.570321
C28	C	1.643987	0.895808	0.369963
C29	C	1.710885	0.950665	0.303201
C30	C	1.710948	1.060389	0.303239
C31	C	1.644113	1.115256	0.370039
C32	C	1.782829	0.506087	0.503515
C33	C	1.898982	0.506096	0.503523
C34	C	1.510330	0.505964	0.776064
C35	C	1.510360	0.505920	0.892218
C36	C	1.510350	1.232032	0.503538
C37	C	1.510379	1.115256	0.503592
C38	C	1.510248	0.506091	0.231984
C39	C	1.510420	0.505839	0.115832
C40	C	1.446918	0.442002	1.064049
C41	C	1.446886	0.442045	0.943998
H42	H	0.943490	0.451360	0.449227
O43	O	0.891878	0.642567	0.638837
H44	H	0.842177	0.595616	0.692082
O45	O	1.643924	0.777463	0.369903
H46	H	1.565098	0.748625	0.348696
H47	H	1.564766	0.560520	1.071288
H48	H	1.115394	0.624715	0.621182
H49	H	1.392516	0.387395	0.899467
O50	O	1.371393	1.119574	0.642384
H51	H	1.389261	1.098451	0.724414
H52	H	1.078035	0.451335	0.449219
O53	O	1.582382	0.578331	0.951179
H54	H	1.635544	0.531254	1.000912
H55	H	1.765307	0.905987	0.248820
O56	O	1.783097	1.119563	0.231238
H57	H	1.829551	1.062979	0.184779
O58	O	1.374934	0.369551	1.123033
H59	H	1.392877	0.287089	1.102148
O60	O	1.644174	1.233602	0.370084
H61	H	1.701915	1.262534	0.312438
O62	O	1.371271	0.891489	0.642310
H63	H	1.324793	0.948067	0.688753
