data_functionalizedCrystal
_audit_creation_method	'MofGen! by Chris Wilmer'
_symmetry_space_group_name_H-M	'P1'
_symmetry_Int_Tables_number	1
_symmetry_cell_setting	triclinic
loop_
_symmetry_equiv_pos_as_xyz
  x,y,z
_cell_length_a	11.169417
_cell_length_b	12.594516
_cell_length_c	11.169409
_cell_angle_alpha	90.032222
_cell_angle_beta	90.019513
_cell_angle_gamma	90.019422
loop_
_atom_site_label
_atom_site_type_symbol
_atom_site_fract_x
_atom_site_fract_y
_atom_site_fract_z
Zn1	Zn	1.834897	-0.423620	0.678534
Zn2	Zn	1.834759	-0.601647	0.477851
Zn3	Zn	1.634183	-0.423687	0.477869
Zn4	Zn	1.634163	-0.601561	0.678497
O5	O	1.734500	-0.512629	0.578188
O6	O	2.002828	-0.447244	0.651921
O7	O	1.808103	-0.578103	0.309904
O8	O	1.660874	-0.274732	0.504511
O9	O	2.002727	-0.578039	0.504480
O10	O	1.808338	-0.274683	0.651938
O11	O	1.660740	-0.447357	0.309917
O12	O	1.466231	-0.447274	0.504475
O13	O	1.660840	-0.577894	0.846452
O14	O	1.466216	-0.577958	0.651875
O15	O	1.808319	-0.447161	0.846479
O16	O	1.808083	-0.750581	0.504444
O17	O	1.660706	-0.750518	0.651858
C18	C	1.422676	-0.512614	0.578174
C19	C	1.289276	-0.512634	0.578197
C20	C	1.734410	-0.789170	0.578171
C21	C	1.734481	-0.907475	0.578204
C22	C	1.654388	-1.047496	0.658342
C23	C	1.763805	-0.976581	0.687781
C24	C	1.625076	-0.976819	0.548819
C25	C	1.844152	-1.047345	0.607745
C26	C	1.705349	-1.047590	0.468732
C27	C	1.814841	-0.976706	0.498129
C28	C	2.047543	-0.512644	0.578202
C29	C	2.180943	-0.512650	0.578208
C30	C	1.734593	-0.512511	0.891230
C31	C	1.734632	-0.512460	1.024630
C32	C	1.734624	-0.235008	0.578231
C33	C	1.734676	-0.116702	0.578249
C34	C	1.734478	-0.512670	0.266363
C35	C	1.734671	-0.512420	0.132964
H36	H	1.788535	-0.945393	0.780378
H37	H	1.680587	-1.078801	0.376161
H38	H	1.936785	-1.078198	0.632724
H39	H	1.882733	-0.945820	0.430377
C40	C	1.499976	-0.934955	0.515211
C41	C	1.483803	-0.865111	0.403253
C42	C	1.358703	-0.823247	0.369660
C43	C	1.249774	-0.851228	0.448026
C44	C	1.265943	-0.921076	0.559991
C45	C	1.391044	-0.962939	0.593584
H46	H	1.564442	-0.844395	0.345235
H47	H	1.346734	-0.771541	0.286775
H48	H	1.157167	-0.820238	0.423158
H49	H	1.185305	-0.941792	0.618009
H50	H	1.403013	-1.014646	0.676469
C51	C	1.562892	-1.089498	0.749931
C52	C	1.576370	-1.061428	0.883464
C53	C	1.484882	-1.103432	0.975055
C54	C	1.379915	-1.173507	0.933113
C55	C	1.366433	-1.201581	0.799573
C56	C	1.457921	-1.159577	0.707983
H57	H	1.654077	-1.009551	0.914518
H58	H	1.494863	-1.082649	1.073910
H59	H	1.312190	-1.204601	1.000913
H60	H	1.288726	-1.253458	0.768519
H61	H	1.447940	-1.180360	0.609128
