data_functionalizedCrystal
_audit_creation_method	'MofGen! by Chris Wilmer'
_symmetry_space_group_name_H-M	'P1'
_symmetry_Int_Tables_number	1
_symmetry_cell_setting	triclinic
loop_
_symmetry_equiv_pos_as_xyz
  x,y,z
_cell_length_a	21.395364
_cell_length_b	19.077114
_cell_length_c	21.395355
_cell_angle_alpha	92.281097
_cell_angle_beta	90.024727
_cell_angle_gamma	87.673269
loop_
_atom_site_label
_atom_site_type_symbol
_atom_site_fract_x
_atom_site_fract_y
_atom_site_fract_z
Zn1	Zn	0.947843	0.280316	0.364289
Zn2	Zn	1.447843	0.780316	0.864289
Zn3	Zn	0.943540	0.397997	0.263720
Zn4	Zn	1.443540	0.897997	0.763720
Zn5	Zn	0.843058	0.280313	0.259525
Zn6	Zn	1.343058	0.780313	0.759525
Zn7	Zn	0.838823	0.397975	0.368459
Zn8	Zn	1.338823	0.897975	0.868459
O9	O	0.893316	0.339150	0.313998
O10	O	1.393316	0.839150	0.813998
O11	O	1.034949	0.295937	0.350959
O12	O	1.534949	0.795937	0.850959
O13	O	0.930183	0.382393	0.175486
O14	O	1.430183	0.882393	0.675486
O15	O	0.860531	0.181821	0.269922
O16	O	1.360531	0.681821	0.769922
O17	O	1.031788	0.382396	0.277071
O18	O	1.531788	0.882396	0.777071
O19	O	0.937516	0.181824	0.346891
O20	O	1.437516	0.681824	0.846891
O21	O	0.856359	0.295931	0.172404
O22	O	1.356359	0.795931	0.672404
O23	O	0.754818	0.295911	0.273965
O24	O	1.254818	0.795911	0.773965
O25	O	0.853313	0.382360	0.455583
O26	O	1.353313	0.882360	0.955583
O27	O	0.751707	0.382356	0.353998
O28	O	1.251707	0.882356	0.853998
O29	O	0.933409	0.295916	0.452520
O30	O	1.433409	0.795916	0.952520
O31	O	0.926076	0.496485	0.281114
O32	O	1.426076	0.996485	0.781114
O33	O	0.849141	0.496470	0.358066
O34	O	1.349141	0.996470	0.858066
C35	C	0.730529	0.339131	0.313979
C36	C	1.230529	0.839131	0.813979
C37	C	0.660887	0.339140	0.313987
C38	C	1.160887	0.839140	0.813987
C39	C	0.157484	0.384245	0.355636
C40	C	0.657484	0.884245	0.855636
C41	C	0.222919	0.384245	0.355629
C42	C	0.722919	0.884245	0.855629
C43	C	0.257248	0.339165	0.314019
C44	C	0.757248	0.839165	0.814019
C45	C	0.226136	0.294095	0.272401
C46	C	0.726136	0.794095	0.772401
C47	C	0.160701	0.294101	0.272404
C48	C	0.660701	0.794101	0.772404
C49	C	0.363203	0.275736	0.306899
C50	C	0.863203	0.775736	0.806899
C51	C	0.428637	0.275729	0.306900
C52	C	0.928637	0.775729	0.806900
C53	C	0.459069	0.339147	0.314004
C54	C	0.959069	0.839147	0.814004
C55	C	0.424061	0.402574	0.321121
C56	C	0.924061	0.902574	0.821121
C57	C	0.358627	0.402581	0.321124
C58	C	0.858627	0.902581	0.821124
C59	C	0.328201	0.339154	0.314010
C60	C	0.828201	0.839154	0.814010
C61	C	0.561127	0.384218	0.355609
C62	C	1.061127	0.884218	0.855609
C63	C	0.626563	0.384219	0.355599
C64	C	1.126563	0.884219	0.855599
C65	C	0.629778	0.294063	0.272373
C66	C	1.129778	0.794063	0.772373
C67	C	0.564343	0.294068	0.272381
C68	C	1.064343	0.794068	0.772381
C69	C	0.530021	0.339145	0.314002
C70	C	1.030021	0.839145	0.814002
C71	C	0.886699	0.522015	0.320511
C72	C	1.386699	1.022015	0.820511
C73	C	0.883925	0.600246	0.323319
C74	C	1.383925	1.100246	0.823319
C75	C	0.922710	0.636984	0.284606
C76	C	1.422710	1.136984	0.784606
C77	C	0.920105	0.710489	0.287251
C78	C	1.420105	1.210489	0.787251
C79	C	0.878712	0.747256	0.328604
C80	C	1.378712	1.247256	0.828604
C81	C	0.839926	0.710513	0.367321
C82	C	1.339926	1.210513	0.867321
C83	C	0.842535	0.637009	0.364679
C84	C	1.342535	1.137009	0.864679
C85	C	0.866615	0.967093	0.340800
C86	C	1.366615	1.467093	0.840800
C87	C	0.864008	1.040603	0.343437
C88	C	1.364008	1.540603	0.843437
C89	C	0.944188	1.040574	0.263367
C90	C	1.444188	1.540574	0.763367
C91	C	0.946790	0.967068	0.260727
C92	C	1.446790	1.467068	0.760727
C93	C	0.908007	0.930331	0.299446
C94	C	1.408007	1.430331	0.799446
N95	N	0.876047	0.822391	0.331307
N96	N	1.376047	1.322391	0.831307
N97	N	0.910675	0.855198	0.296746
N98	N	1.410675	1.355198	0.796746
C99	C	1.056738	0.339169	0.314017
C100	C	1.556738	0.839169	0.814017
C101	C	1.126379	0.339178	0.314026
C102	C	1.626379	0.839178	0.814026
C103	C	0.899970	1.155571	0.307481
C104	C	1.399970	1.655571	0.807481
C105	C	0.902793	1.077340	0.304725
C106	C	1.402793	1.577340	0.804725
C107	C	0.893368	0.339136	0.477421
C108	C	1.393368	0.839136	0.977421
C109	C	0.893391	0.339130	0.547062
C110	C	1.393391	0.839130	1.047062
C111	C	0.893301	0.339114	0.151209
C112	C	1.393301	0.839114	0.651209
C113	C	0.893407	0.338921	0.081562
C114	C	1.393407	0.838921	0.581562
C115	C	0.935095	0.294117	0.578181
C116	C	1.435095	0.794117	1.078181
C117	C	0.935096	0.294086	0.643615
C118	C	1.435096	0.794086	1.143615
C119	C	0.893397	0.339082	0.677929
C120	C	1.393397	0.839082	1.177929
C121	C	0.851685	0.384098	0.646802
C122	C	1.351685	0.884098	1.146802
C123	C	0.851681	0.384122	0.581369
C124	C	1.351681	0.884122	1.081369
C125	C	0.886157	0.402455	0.783861
C126	C	1.386157	0.902455	1.283861
C127	C	0.886165	0.402432	0.849293
C128	C	1.386165	0.902432	1.349293
C129	C	0.893404	0.339007	0.879747
C130	C	1.393404	0.839007	1.379747
C131	C	0.900649	0.275604	0.844761
C132	C	1.400649	0.775604	1.344761
C133	C	0.900645	0.275628	0.779328
C134	C	1.400645	0.775628	1.279328
C135	C	0.893396	0.339061	0.748880
C136	C	1.393396	0.839061	1.248880
C137	C	0.935111	0.293958	0.981817
C138	C	1.435111	0.793958	1.481817
C139	C	0.935107	0.293926	1.047253
C140	C	1.435107	0.793926	1.547253
C141	C	0.851699	0.383944	1.050439
C142	C	1.351699	0.883944	1.550439
C143	C	0.851700	0.383969	0.985004
C144	C	1.351700	0.883969	1.485004
C145	C	0.893409	0.338977	0.950697
C146	C	1.393409	0.838977	1.450697
H147	H	0.539017	0.257367	0.238500
H148	H	1.039017	0.757367	0.738500
H149	H	0.135376	0.257400	0.238520
H150	H	0.635376	0.757400	0.738520
H151	H	0.448838	0.454215	0.326911
H152	H	0.948838	0.954215	0.826911
F153	F	0.807314	0.431882	0.951884
F154	F	1.307314	0.931882	1.451884
F155	F	0.985464	1.079676	0.222166
F156	F	1.485464	1.579676	0.722166
H157	H	0.806226	0.740455	0.400995
H158	H	1.306226	1.240455	0.900995
H159	H	0.880269	0.454060	0.877774
H160	H	1.380269	0.954060	1.377774
H161	H	0.533180	0.420923	0.389499
H162	H	1.033180	0.920923	0.889499
F163	F	0.819944	1.079731	0.387447
F164	F	1.319944	1.579731	0.887447
F165	F	0.659667	0.432193	0.399885
F166	F	1.159667	0.932193	0.899885
H167	H	0.835035	0.937188	0.372325
H168	H	1.335035	1.437188	0.872325
F169	F	0.990853	0.927943	0.216719
F170	F	1.490853	1.427943	0.716719
H171	H	0.338431	0.224091	0.301103
H172	H	0.838431	0.724091	0.801103
F173	F	0.878466	0.469966	0.751456
F174	F	1.378466	0.969966	1.251456
H175	H	0.969070	0.257319	0.953883
H176	H	1.469070	0.757319	1.453883
F177	F	0.666309	0.246091	0.228083
F178	F	1.166309	0.746091	0.728083
H179	H	0.810953	0.607098	0.396204
H180	H	1.310953	1.107098	0.896204
H181	H	0.951687	0.740398	0.255726
H182	H	1.451687	1.240398	0.755726
F183	F	0.979484	0.246229	0.541673
F184	F	1.479484	0.746229	1.041673
H185	H	0.969055	0.257428	0.668957
H186	H	1.469055	0.757428	1.168957
H187	H	0.969067	0.257267	1.072588
H188	H	1.469067	0.757267	1.572588
H189	H	0.906543	0.224002	0.750844
H190	H	1.406543	0.724002	1.250844
F191	F	0.465889	0.208224	0.299334
F192	F	0.965889	0.708224	0.799334
F193	F	0.262671	0.246120	0.228114
F194	F	0.762671	0.746120	0.728114
F195	F	0.908356	0.208097	0.877167
F196	F	1.408356	0.708097	1.377167
H197	H	0.817741	0.420573	1.078376
H198	H	1.317741	0.920573	1.578376
H199	H	0.817732	0.420731	0.674744
H200	H	1.317732	0.920731	1.174744
F201	F	0.966762	0.597860	0.240588
F202	F	1.466762	1.097860	0.740588
H203	H	0.129543	0.420952	0.389525
H204	H	0.629543	0.920952	0.889525
F205	F	0.321371	0.470083	0.328696
F206	F	0.821371	0.970083	0.828696
F207	F	0.256030	0.432213	0.399918
F208	F	0.756030	0.932213	0.899918
F209	F	0.807292	0.432033	0.548249
F210	F	1.307292	0.932033	1.048249
