data_functionalizedCrystal
_audit_creation_method	'MofGen! by Chris Wilmer'
_symmetry_space_group_name_H-M	'P1'
_symmetry_Int_Tables_number	1
_symmetry_cell_setting	triclinic
loop_
_symmetry_equiv_pos_as_xyz
  x,y,z
_cell_length_a	17.077404
_cell_length_b	17.077402
_cell_length_c	17.077396
_cell_angle_alpha	90.027432
_cell_angle_beta	89.980499
_cell_angle_gamma	89.975442
loop_
_atom_site_label
_atom_site_type_symbol
_atom_site_fract_x
_atom_site_fract_y
_atom_site_fract_z
Zn1	Zn	1.200047	0.312503	-0.443848
Zn2	Zn	1.700047	0.812503	0.056152
Zn3	Zn	1.199951	0.443778	-0.312585
Zn4	Zn	1.699951	0.943778	0.187415
Zn5	Zn	1.068779	0.312531	-0.312596
Zn6	Zn	1.568779	0.812531	0.187404
Zn7	Zn	1.068743	0.443732	-0.443808
Zn8	Zn	1.568743	0.943732	0.056192
O9	O	1.134380	0.378136	-0.378210
O10	O	1.634380	0.878136	0.121790
O11	O	1.309881	0.329925	-0.426448
O12	O	1.809881	0.829925	0.073552
O13	O	1.182525	0.426399	-0.202739
O14	O	1.682525	0.926399	0.297261
O15	O	1.086247	0.202680	-0.330029
O16	O	1.586247	0.702680	0.169971
O17	O	1.309810	0.426372	-0.330009
O18	O	1.809810	0.926372	0.169991
O19	O	1.182689	0.202660	-0.426459
O20	O	1.682689	0.702660	0.073541
O21	O	1.086153	0.329972	-0.202748
O22	O	1.586153	0.829972	0.297252
O23	O	0.958927	0.329927	-0.329990
O24	O	1.458927	0.829927	0.170010
O25	O	1.086186	0.426293	-0.553661
O26	O	1.586186	0.926293	-0.053661
O27	O	0.958901	0.426320	-0.426391
O28	O	1.458901	0.926320	0.073609
O29	O	1.182655	0.329880	-0.553690
O30	O	1.682655	0.829880	-0.053690
O31	O	1.182491	0.553619	-0.329970
O32	O	1.682491	1.053619	0.170030
O33	O	1.086093	0.553585	-0.426380
O34	O	1.586093	1.053585	0.073620
C35	C	0.930432	0.378122	-0.378188
C36	C	1.430432	0.878122	0.121812
C37	C	0.843182	0.378135	-0.378197
C38	C	1.343182	0.878135	0.121803
C39	C	1.134299	0.582084	-0.378187
C40	C	1.634299	1.082084	0.121813
C41	C	1.134336	0.669334	-0.378203
C42	C	1.634336	1.169334	0.121797
C43	C	0.802199	0.428402	-0.428313
C44	C	1.302199	0.928402	0.071687
C45	C	0.720219	0.428404	-0.428325
C46	C	1.220219	0.928404	0.071675
C47	C	0.679223	0.378141	-0.378218
C48	C	1.179223	0.878141	0.121782
C49	C	0.720212	0.327869	-0.328100
C50	C	1.220212	0.827869	0.171900
C51	C	0.802191	0.327863	-0.328092
C52	C	1.302191	0.827863	0.171908
C53	C	0.549342	0.327884	-0.328119
C54	C	1.049342	0.827884	0.171881
C55	C	0.467357	0.327890	-0.328126
C56	C	0.967357	0.827890	0.171874
C57	C	0.467370	0.428424	-0.428352
C58	C	0.967370	0.928424	0.071648
C59	C	0.549348	0.428419	-0.428344
C60	C	1.049348	0.928419	0.071656
C61	C	0.590332	0.378147	-0.378225
C62	C	1.090332	0.878147	0.121775
C63	C	1.184580	0.710316	-0.328058
C64	C	1.684580	1.210316	0.171942
C65	C	1.184617	0.792296	-0.328082
C66	C	1.684617	1.292296	0.171918
C67	C	1.134404	0.833293	-0.378246
C68	C	1.634404	1.333293	0.121754
C69	C	1.084158	0.792305	-0.428397
C70	C	1.584158	1.292305	0.071603
C71	C	1.084126	0.710327	-0.428377
C72	C	1.584126	1.210327	0.071623
C73	C	1.084226	0.963175	-0.428434
C74	C	1.584226	1.463175	0.071566
C75	C	1.084256	1.045160	-0.428453
C76	C	1.584256	1.545160	0.071547
C77	C	1.184717	1.045145	-0.328138
C78	C	1.684717	1.545145	0.171862
C79	C	1.184685	0.963166	-0.328118
C80	C	1.684685	1.463166	0.171882
C81	C	1.134437	0.922184	-0.378268
C82	C	1.634437	1.422184	0.121732
C83	C	1.339124	0.378151	-0.378232
C84	C	1.839124	0.878151	0.121768
C85	C	1.426374	0.378157	-0.378241
C86	C	1.926374	0.878157	0.121759
C87	C	1.134427	0.378078	-0.582954
C88	C	1.634427	0.878078	-0.082954
C89	C	1.134447	0.378054	-0.670204
C90	C	1.634447	0.878054	-0.170204
C91	C	1.134476	1.173392	-0.378260
C92	C	1.634476	1.673392	0.121740
C93	C	1.134501	1.086142	-0.378308
C94	C	1.634501	1.586142	0.121692
C95	C	1.184680	0.327847	-0.711210
C96	C	1.684680	0.827847	-0.211210
C97	C	1.184690	0.327821	-0.793191
C98	C	1.684690	0.827821	-0.293191
C99	C	1.134470	0.378006	-0.834163
C100	C	1.634470	0.878006	-0.334163
C101	C	1.084231	0.428214	-0.793151
C102	C	1.584231	0.928214	-0.293151
C103	C	1.084219	0.428236	-0.711172
C104	C	1.584219	0.928236	-0.211172
C105	C	1.084263	0.428167	-0.964021
C106	C	1.584263	0.928167	-0.464021
C107	C	1.084277	0.428147	-1.046006
C108	C	1.584277	0.928147	-0.546006
C109	C	1.184734	0.327752	-1.046040
C110	C	1.684734	0.827752	-0.546040
C111	C	1.184721	0.327774	-0.964061
C112	C	1.684721	0.827774	-0.464061
C113	C	1.134484	0.377984	-0.923054
C114	C	1.634484	0.877984	-0.423054
C115	C	1.134378	0.378137	-0.174262
C116	C	1.634378	0.878137	0.325738
C117	C	1.134509	0.377941	-0.087012
C118	C	1.634509	0.877941	0.412988
H119	H	0.835572	0.469334	-0.469113
H120	H	1.335572	0.969334	0.030887
H121	H	0.686854	0.469337	-0.469133
H122	H	1.186854	0.969337	0.030867
O123	O	1.030059	0.482337	-0.837342
O124	O	1.530059	0.982337	-0.337342
H125	H	1.043480	0.543951	-0.821593
H126	H	1.543480	1.043951	-0.321593
H127	H	0.582725	0.469352	-0.469142
H128	H	1.082725	0.969352	0.030858
H129	H	1.043384	1.078538	-0.469316
H130	H	1.543384	1.578538	0.030684
O131	O	0.423174	0.482643	-0.482417
O132	O	0.923174	0.982643	0.017583
H133	H	0.359281	0.474197	-0.474015
H134	H	0.859281	0.974197	0.025985
O135	O	1.238853	0.273724	-0.667022
O136	O	1.738853	0.773724	-0.167022
H137	H	1.203738	0.233798	-0.629667
H138	H	1.703738	0.733798	-0.129667
O139	O	1.030024	0.918969	-0.482515
O140	O	1.530024	1.418969	0.017485
H141	H	0.995105	0.961247	-0.517393
H142	H	1.495105	1.461247	-0.017393
O143	O	1.238841	0.918946	-0.274011
O144	O	1.738841	1.418946	0.225989
H145	H	1.278736	0.881535	-0.309177
H146	H	1.778736	1.381535	0.190823
O147	O	1.030026	0.482379	-0.666943
O148	O	1.530026	0.982379	-0.166943
H149	H	1.043453	0.543987	-0.682657
H150	H	1.543453	1.043987	-0.182657
H151	H	0.686826	0.286941	-0.287305
H152	H	1.186826	0.786941	0.212695
H153	H	1.225466	0.676941	-0.287205
H154	H	1.725466	1.176941	0.212795
H155	H	1.043277	0.825692	-0.469245
H156	H	1.543277	1.325692	0.030755
H157	H	1.225619	0.286913	-0.930704
H158	H	1.725619	0.786913	-0.430704
H159	H	1.225633	1.078516	-0.287307
H160	H	1.725633	1.578516	0.212693
O161	O	0.423135	0.273672	-0.274092
O162	O	0.923135	0.773672	0.225908
H163	H	0.465404	0.238704	-0.239249
H164	H	0.965404	0.738704	0.260751
H165	H	0.582708	0.286940	-0.287314
H166	H	1.082708	0.786940	0.212686
H167	H	1.043342	0.469041	-0.930636
H168	H	1.543342	0.969041	-0.430636
H169	H	0.835558	0.286927	-0.287287
H170	H	1.335558	0.786927	0.212713
O171	O	1.029923	0.666125	-0.482454
O172	O	1.529923	1.166125	0.017546
H173	H	1.043348	0.681809	-0.544079
H174	H	1.543348	1.181809	-0.044079
O175	O	1.238804	0.836501	-0.273993
O176	O	1.738804	1.336501	0.226007
H177	H	1.273706	0.794221	-0.239099
H178	H	1.773706	1.294221	0.260901
O179	O	1.238873	0.273675	-0.837423
O180	O	1.738873	0.773675	-0.337423
H181	H	1.273800	0.238791	-0.795160
H182	H	1.773800	0.738791	-0.295160
H183	H	1.225638	0.286868	-1.079432
H184	H	1.725638	0.786868	-0.579432
H185	H	1.043381	0.469010	-1.079363
H186	H	1.543381	0.969010	-0.579363
