data_functionalizedCrystal
_audit_creation_method	'MofGen! by Chris Wilmer'
_symmetry_space_group_name_H-M	'P1'
_symmetry_Int_Tables_number	1
_symmetry_cell_setting	triclinic
loop_
_symmetry_equiv_pos_as_xyz
  x,y,z
_cell_length_a	14.044220
_cell_length_b	10.723024
_cell_length_c	9.198806
_cell_angle_alpha	89.997988
_cell_angle_beta	90.000900
_cell_angle_gamma	88.828374
loop_
_atom_site_label
_atom_site_type_symbol
_atom_site_fract_x
_atom_site_fract_y
_atom_site_fract_z
O1	O	1.259664	0.301050	-0.120731
O2	O	0.983624	0.290186	-0.120768
O3	O	1.128011	0.114679	-0.120743
O4	O	1.115277	0.476557	-0.120756
O5	O	1.128000	0.114677	0.121042
O6	O	0.983612	0.290184	0.121017
O7	O	1.259652	0.301048	0.121054
Cu8	Cu	1.121631	0.295616	0.143112
Cu9	Cu	1.121645	0.295618	-0.142826
O10	O	1.115265	0.476555	0.121029
C11	C	1.127079	0.068086	0.000147
C12	C	1.124306	-0.070746	0.000142
C13	C	0.948273	0.285430	0.000120
C14	C	0.842955	0.271245	0.000106
C15	C	1.205097	-0.137646	0.000151
C16	C	1.202234	-0.281136	0.000145
C17	C	0.650125	0.245313	0.000135
C18	C	0.593146	0.345915	0.000138
C19	C	0.485848	0.331486	0.000155
C20	C	0.757432	0.259740	0.000119
C21	C	1.295003	0.305804	0.000163
C22	C	1.400321	0.319989	0.000168
C23	C	1.116197	0.523149	0.000135
C24	C	1.118970	0.661980	0.000131
N25	N	1.121629	0.295615	0.344226
N26	N	1.121655	0.295610	-0.343940
C27	C	1.182253	0.221572	0.416434
C28	C	1.182267	0.221570	0.583846
H29	H	1.276386	-0.088691	0.000169
H30	H	1.053017	-0.119700	0.000123
H31	H	0.624947	0.442880	0.000128
H32	H	0.618325	0.148357	0.000147
O33	O	1.244147	0.145763	0.657756
C34	C	1.227660	0.020458	0.620704
H35	H	1.191150	0.016568	0.510160
H36	H	1.298451	-0.033313	0.615644
H37	H	1.180052	-0.023206	0.706345
H38	H	1.234142	0.158178	0.354317
H39	H	1.069753	0.359009	0.593974
H40	H	1.069733	0.358998	0.406346
O41	O	1.284725	-0.349791	-0.000105
C42	C	1.288304	-0.425582	-0.125311
H43	H	1.240149	-0.383201	-0.212838
H44	H	1.364615	-0.431843	-0.167336
H45	H	1.263045	-0.522986	-0.097005
O46	O	1.036386	-0.269559	-0.000073
C47	C	0.983228	-0.298111	-0.125325
H48	H	1.005790	-0.394352	-0.167074
H49	H	0.904170	-0.297628	-0.097176
H50	H	0.996736	-0.225443	-0.213004
