data_functionalizedCrystal
_audit_creation_method	'MofGen! by Chris Wilmer'
_symmetry_space_group_name_H-M	'P1'
_symmetry_Int_Tables_number	1
_symmetry_cell_setting	triclinic
loop_
_symmetry_equiv_pos_as_xyz
  x,y,z
_cell_length_a	6.817900
_cell_length_b	17.982959
_cell_length_c	10.773894
_cell_angle_alpha	96.506974
_cell_angle_beta	96.645922
_cell_angle_gamma	102.451857
loop_
_atom_site_label
_atom_site_type_symbol
_atom_site_fract_x
_atom_site_fract_y
_atom_site_fract_z
V1	V	-3.943879	-0.102609	-0.389451
O2	O	-3.938325	0.007812	-0.381502
O3	O	-3.890812	-0.206227	-0.387303
O4	O	-3.861680	-0.099767	-0.559069
O5	O	-3.967659	-0.099386	-0.208547
V6	V	-4.432491	-0.089551	-0.367751
O7	O	-4.193973	-0.131254	-0.437053
O8	O	-4.632593	-0.060907	-0.320150
O9	O	-4.262351	0.014067	-0.369899
O10	O	-4.555442	-0.199972	-0.375700
O11	O	-4.526107	-0.092774	-0.548656
O12	O	-4.291483	-0.092393	-0.198133
C13	C	-3.735771	-0.231527	-0.381292
C14	C	-3.773445	-0.316228	-0.380667
C15	C	-3.971817	-0.359856	-0.386614
C16	C	-4.007205	-0.439442	-0.386034
C17	C	-3.844216	-0.475398	-0.379497
C18	C	-3.645828	-0.431764	-0.373553
C19	C	-3.610444	-0.352180	-0.374142
C20	C	-3.788521	-0.752717	-0.371177
C21	C	-3.823921	-0.832306	-0.370584
C22	C	-4.185282	-0.839979	-0.383068
C23	C	-4.149898	-0.760395	-0.383657
C24	C	-3.951516	-0.716769	-0.377720
C25	C	-3.913147	-0.630473	-0.378352
C26	C	-3.882580	-0.561692	-0.378856
C27	C	-3.698609	-0.095725	-0.600395
C28	C	-3.712655	-0.094086	-0.739062
C29	C	-3.890602	-0.096926	-0.806939
C30	C	-3.905123	-0.095233	-0.950258
C31	C	-4.080734	0.039363	-0.375906
C32	C	-4.022297	0.124063	-0.376540
C33	C	-4.117897	-0.096438	-0.156800
C34	C	-4.083090	-0.098072	-0.018132
H35	H	-4.168736	-0.474962	-0.390878
N36	N	-3.648114	-0.871087	-0.363542
H37	H	-3.700639	-0.928123	-0.364061
H38	H	-3.551531	-0.848658	-0.283196
N39	N	-4.270679	-0.102946	-0.954584
H40	H	-4.233721	-0.103463	-0.861209
H41	H	-4.374498	-0.151681	-0.992428
N42	N	-3.717568	-0.090370	-1.013837
H43	H	-3.658851	-0.136359	-1.000792
H44	H	-3.613777	-0.041611	-0.976080
H45	H	-4.282623	-0.731124	-0.388974
N46	N	-3.525113	-0.089224	-0.802647
H47	H	-3.466396	-0.135213	-0.789601
H48	H	-3.421322	-0.040465	-0.764889
N49	N	-3.574566	-0.705670	-0.364783
H50	H	-3.476689	-0.740526	-0.360552
H51	H	-3.540502	-0.665638	-0.287037
N52	N	-4.399235	-0.887018	-0.389304
H53	H	-4.396922	-0.942886	-0.387886
H54	H	-4.483650	-0.881662	-0.469804
H55	H	-3.513123	-0.461046	-0.368238
H56	H	-4.104545	-0.330586	-0.391925
N57	N	-3.396487	-0.305121	-0.367738
H58	H	-3.298601	-0.339973	-0.363506
H59	H	-3.362436	-0.265091	-0.289988
N60	N	-4.078188	-0.101810	-0.743394
H61	H	-4.136930	-0.055827	-0.756444
H62	H	-4.041089	-0.102354	-0.650043
