data_functionalizedCrystal
_audit_creation_method	'MofGen! by Chris Wilmer'
_symmetry_space_group_name_H-M	'P1'
_symmetry_Int_Tables_number	1
_symmetry_cell_setting	triclinic
loop_
_symmetry_equiv_pos_as_xyz
  x,y,z
_cell_length_a	16.959455
_cell_length_b	16.120484
_cell_length_c	16.120297
_cell_angle_alpha	95.614431
_cell_angle_beta	92.879541
_cell_angle_gamma	92.922454
loop_
_atom_site_label
_atom_site_type_symbol
_atom_site_fract_x
_atom_site_fract_y
_atom_site_fract_z
Zn1	Zn	1.167703	-0.356813	-0.489435
Zn2	Zn	1.167603	-0.489502	-0.356745
Zn3	Zn	1.042580	-0.349742	-0.349683
Zn4	Zn	1.028428	-0.496536	-0.496470
O5	O	1.101579	-0.423148	-0.423083
O6	O	1.278299	-0.374430	-0.471845
O7	O	1.156900	-0.465060	-0.238846
O8	O	1.065142	-0.233715	-0.362321
O9	O	1.278226	-0.471917	-0.374358
O10	O	1.157069	-0.238910	-0.464996
O11	O	1.065046	-0.362379	-0.233658
O12	O	0.930093	-0.369199	-0.369143
O13	O	1.041022	-0.483904	-0.612499
O14	O	0.919696	-0.477048	-0.476987
O15	O	1.143347	-0.381250	-0.607330
O16	O	1.143177	-0.607400	-0.381180
O17	O	1.040925	-0.612568	-0.483835
C18	C	0.896215	-0.423120	-0.423063
C19	C	0.808357	-0.423129	-0.423075
C20	C	0.442266	-0.366953	-0.367038
C21	C	0.431488	-0.479414	-0.479179
C22	C	0.514035	-0.479402	-0.479174
C23	C	0.560701	-0.423165	-0.423099
C24	C	0.524821	-0.366941	-0.367029
C25	C	0.549921	-0.535631	-0.535236
C26	C	0.632473	-0.535622	-0.535232
C27	C	0.679141	-0.479381	-0.479161
C28	C	0.643256	-0.423153	-0.423090
C29	C	0.689922	-0.366916	-0.367014
C30	C	0.654039	-0.310684	-0.310947
C31	C	0.571489	-0.310699	-0.310957
C32	C	0.761691	-0.479365	-0.479150
C33	C	0.772477	-0.366904	-0.367005
C34	C	1.090525	-0.640313	-0.434056
C35	C	1.085867	-0.733218	-0.438778
C36	C	1.077367	-0.903317	-0.447416
C37	C	1.125931	-0.942139	-0.398764
C38	C	1.121201	-1.036788	-0.403571
C39	C	1.082096	-0.808660	-0.442610
C40	C	1.307744	-0.423177	-0.423104
C41	C	1.395600	-0.423190	-0.423113
C42	C	1.090617	-0.434150	-0.641089
C43	C	1.085946	-0.438839	-0.733990
C44	C	1.112696	-0.205137	-0.412086
C45	C	1.117433	-0.112233	-0.407400
C46	C	1.077389	-0.447380	-0.904081
C47	C	1.125937	-0.398666	-0.942925
C48	C	1.121176	-0.403418	-1.037569
C49	C	1.082149	-0.442629	-0.809428
C50	C	1.112546	-0.412129	-0.205922
C51	C	1.117383	-0.407205	-0.113010
H52	H	0.692045	-0.264900	-0.265287
H53	H	1.171074	-0.353390	-0.905100
N54	N	1.020769	-0.504169	-0.951536
N55	N	1.016938	-0.507993	-1.029466
H56	H	0.976952	-0.548101	-1.062991
N57	N	1.182540	-0.894678	-0.341966
N58	N	1.228195	-0.931125	-0.296216
H59	H	1.268172	-0.897604	-0.256100
H60	H	0.393488	-0.525205	-0.524829
N61	N	0.820131	-0.309444	-0.309727
N62	N	0.788080	-0.259243	-0.259679
H63	H	0.821735	-0.218660	-0.219226
H64	H	0.542265	-0.264919	-0.265309
H65	H	1.032242	-0.941163	-0.492673
H66	H	0.511920	-0.581422	-0.580884
N67	N	0.405605	-0.309516	-0.309780
N68	N	0.331900	-0.309526	-0.309796
H69	H	0.306006	-0.268961	-0.269357
H70	H	0.790903	-0.525151	-0.524797
N71	N	0.669111	-0.593065	-0.592506
N72	N	0.627434	-0.643273	-0.642565
H73	H	0.653310	-0.683842	-0.683017
