data_functionalizedCrystal
_audit_creation_method	'MofGen! by Chris Wilmer'
_symmetry_space_group_name_H-M	'P1'
_symmetry_Int_Tables_number	1
_symmetry_cell_setting	triclinic
loop_
_symmetry_equiv_pos_as_xyz
  x,y,z
_cell_length_a	21.295418
_cell_length_b	21.295418
_cell_length_c	12.759393
_cell_angle_alpha	90.044954
_cell_angle_beta	89.964936
_cell_angle_gamma	89.953405
loop_
_atom_site_label
_atom_site_type_symbol
_atom_site_fract_x
_atom_site_fract_y
_atom_site_fract_z
Zn1	Zn	-0.250266	-0.962347	-0.594699
Zn2	Zn	0.249734	-0.462347	-0.094699
Zn3	Zn	-0.355550	-0.962259	-0.419009
Zn4	Zn	0.144450	-0.462259	0.080991
Zn5	Zn	-0.250332	-0.857076	-0.418957
Zn6	Zn	0.249668	-0.357076	0.081043
Zn7	Zn	-0.355534	-0.857044	-0.594569
Zn8	Zn	0.144466	-0.357044	-0.094569
O9	O	-0.302920	-0.909681	-0.506809
O10	O	0.197080	-0.409681	-0.006809
O11	O	-0.264211	-1.050425	-0.571470
O12	O	0.235789	-0.550425	-0.071470
O13	O	-0.341627	-0.948282	-0.271981
O14	O	0.158373	-0.448282	0.228019
O15	O	-0.162234	-0.871091	-0.442303
O16	O	0.337766	-0.371091	0.057697
O17	O	-0.341562	-1.050360	-0.442391
O18	O	0.158438	-0.550360	0.057609
O19	O	-0.162185	-0.948433	-0.571420
O20	O	0.337815	-0.448433	-0.071420
O21	O	-0.264323	-0.871005	-0.271943
O22	O	0.235677	-0.371005	0.228057
O23	O	-0.264309	-0.768982	-0.442177
O24	O	0.235691	-0.268982	0.057823
O25	O	-0.341536	-0.871036	-0.741607
O26	O	0.158464	-0.371036	-0.241607
O27	O	-0.341600	-0.768958	-0.571198
O28	O	0.158400	-0.268958	-0.071198
O29	O	-0.264196	-0.948402	-0.741703
O30	O	0.235804	-0.448402	-0.241703
O31	O	-0.443637	-0.948251	-0.442264
O32	O	0.056363	-0.448251	0.057736
O33	O	-0.443626	-0.870950	-0.571248
O34	O	0.056374	-0.370950	-0.071248
C35	C	-0.302960	-0.746130	-0.506668
C36	C	0.197040	-0.246130	-0.006668
C37	C	-0.302993	-0.676161	-0.506633
C38	C	0.197007	-0.176161	-0.006633
C39	C	-0.343293	-0.643299	-0.573710
C40	C	0.156707	-0.143299	-0.073710
C41	C	-0.343280	-0.577557	-0.573749
C42	C	0.156720	-0.077557	-0.073749
C43	C	-0.302974	-0.544679	-0.506693
C44	C	0.197026	-0.044679	-0.006693
C45	C	-0.262665	-0.577549	-0.439611
C46	C	0.237335	-0.077549	0.060389
C47	C	-0.262675	-0.643291	-0.439581
C48	C	0.237325	-0.143291	0.060419
N49	N	-0.298068	-0.441406	-0.414789
N50	N	0.201932	0.058594	0.085211
N51	N	-0.298063	-0.378954	-0.414820
N52	N	0.201937	0.121046	0.085180
C53	C	-0.302942	-0.346604	-0.506780
C54	C	0.197058	0.153396	-0.006780
N55	N	-0.307839	-0.379065	-0.598710
N56	N	0.192161	0.120935	-0.098710
N57	N	-0.307848	-0.441522	-0.598678
N58	N	0.192152	0.058478	-0.098678
C59	C	-0.302959	-0.473394	-0.506718
C60	C	0.197041	0.026606	-0.006718
C61	C	-0.343231	-0.242456	-0.573906
C62	C	0.156769	0.257544	-0.073906
C63	C	-0.343214	-0.176713	-0.573947
C64	C	0.156786	0.323287	-0.073947
C65	C	-0.262602	-0.176707	-0.439799
C66	C	0.237398	0.323293	0.060201
C67	C	-0.262616	-0.242449	-0.439768
C68	C	0.237384	0.257551	0.060232
C69	C	-0.302933	-0.275320	-0.506819
C70	C	0.197067	0.224680	-0.006819
C71	C	-0.466472	-0.909605	-0.506770
C72	C	0.033528	-0.409605	-0.006770
C73	C	-0.536440	-0.909630	-0.506789
C74	C	-0.036440	-0.409630	-0.006789
C75	C	-1.035819	-0.950032	-0.574175
C76	C	-0.535819	-0.450032	-0.074175
C77	C	-0.970077	-0.950014	-0.574158
C78	C	-0.470077	-0.450014	-0.074158
C79	C	-0.937280	-0.909767	-0.506874
C80	C	-0.437280	-0.409767	-0.006874
C81	C	-0.970230	-0.869548	-0.439583
C82	C	-0.470230	-0.369548	0.060417
C83	C	-1.035971	-0.869572	-0.439594
C84	C	-0.535971	-0.369572	0.060406
N85	N	-0.834128	-0.854630	-0.498674
N86	N	-0.334128	-0.354630	0.001326
N87	N	-0.771677	-0.854609	-0.498670
N88	N	-0.271677	-0.354609	0.001330
C89	C	-0.739205	-0.909693	-0.506835
C90	C	-0.239205	-0.409693	-0.006835
N91	N	-0.771544	-0.964800	-0.515025
N92	N	-0.271544	-0.464800	-0.015025
N93	N	-0.834001	-0.964821	-0.515035
N94	N	-0.334001	-0.464821	-0.015035
C95	C	-0.865994	-0.909737	-0.506854
C96	C	-0.365994	-0.409737	-0.006854
C97	C	-0.634977	-0.949893	-0.574099
C98	C	-0.134977	-0.449893	-0.074099
C99	C	-0.569233	-0.949876	-0.574075
C100	C	-0.069233	-0.449876	-0.074075
C101	C	-0.569387	-0.869404	-0.439505
C102	C	-0.069387	-0.369404	0.060495
C103	C	-0.635130	-0.869427	-0.439524
C104	C	-0.135130	-0.369427	0.060476
C105	C	-0.667921	-0.909671	-0.506826
C106	C	-0.167921	-0.409671	-0.006826
C107	C	-0.138730	-0.909775	-0.506870
C108	C	0.361270	-0.409775	-0.006870
C109	C	-0.068762	-0.909815	-0.506896
C110	C	0.431238	-0.409815	-0.006896
C111	C	-0.302857	-0.909725	-0.780842
C112	C	0.197143	-0.409725	-0.280842
C113	C	-0.302830	-0.909744	-0.897619
C114	C	0.197170	-0.409744	-0.397619
C115	C	-0.302891	-0.073872	-0.506920
C116	C	0.197109	0.426128	-0.006920
C117	C	-0.302906	-0.143840	-0.506891
C118	C	0.197094	0.356160	-0.006891
C119	C	-0.262571	-0.869520	-0.952461
C120	C	0.237429	-0.369520	-0.452461
C121	C	-0.262551	-0.869535	-1.062185
C122	C	0.237449	-0.369535	-0.562185
C123	C	-0.343052	-0.950003	-1.062216
C124	C	0.156948	-0.450003	-0.562216
C125	C	-0.343074	-0.949984	-0.952494
C126	C	0.156926	-0.449984	-0.452494
C127	C	-0.302938	-0.909674	-0.233841
C128	C	0.197062	-0.409674	0.266159
C129	C	-0.302788	-0.909777	-0.117065
C130	C	0.197212	-0.409777	0.382935
H131	H	-0.376122	-0.670058	-0.628310
H132	H	0.123878	-0.170058	-0.128310
H133	H	-0.229802	-0.269206	-0.385141
H134	H	0.270198	0.230794	0.114859
H135	H	-0.375817	-0.982766	-1.106908
H136	H	0.124183	-0.482766	-0.606908
H137	H	-1.062514	-0.982807	-0.628969
H138	H	-0.562514	-0.482807	-0.128969
N139	N	-0.219201	-0.678740	-0.367239
N140	N	0.280799	-0.178740	0.132761
H141	H	-0.193661	-0.647939	-0.324768
H142	H	0.306339	-0.147939	0.175232
H143	H	-0.244792	-0.705962	-0.318526
H144	H	0.255208	-0.205962	0.181474
N145	N	-0.934538	-0.993383	-0.646742
N146	N	-0.434538	-0.493383	-0.146742
H147	H	-0.887915	-0.987258	-0.636525
H148	H	-0.387915	-0.487258	-0.136525
H149	H	-0.945977	-1.038354	-0.630513
H150	H	-0.445977	-0.538354	-0.130513
N151	N	-0.386502	-0.993368	-0.893334
N152	N	0.113498	-0.493368	-0.393334
H153	H	-0.411990	-1.018865	-0.944745
H154	H	0.088010	-0.518865	-0.444745
H155	H	-0.360882	-1.022506	-0.847843
H156	H	0.139118	-0.522506	-0.347843
H157	H	-0.376030	-0.149957	-0.628575
H158	H	0.123970	0.350043	-0.128575
N159	N	-0.386748	-0.542101	-0.646101
N160	N	0.113252	-0.042101	-0.146101
H161	H	-0.412289	-0.572901	-0.688573
H162	H	0.087711	-0.072901	-0.188573
H163	H	-0.415842	-0.514770	-0.603252
H164	H	0.084158	-0.014770	-0.103252
N165	N	-0.219199	-0.542090	-0.367276
N166	N	0.280801	-0.042090	0.132724
H167	H	-0.174233	-0.553578	-0.383717
H168	H	0.325767	-0.053578	0.116283
H169	H	-0.225367	-0.495468	-0.377506
H170	H	0.274633	0.004532	0.122494
N171	N	-0.219122	-0.141256	-0.367480
N172	N	0.280878	0.358744	0.132520
H173	H	-0.225229	-0.094622	-0.377678
H174	H	0.274771	0.405378	0.122322
H175	H	-0.228868	-0.152689	-0.292410
H176	H	0.271132	0.347311	0.207590
H177	H	-0.943523	-0.836779	-0.384798
H178	H	-0.443523	-0.336779	0.115202
N179	N	-0.219125	-0.826152	-1.121333
N180	N	0.280875	-0.326152	-0.621333
H181	H	-0.225218	-0.832266	-1.199169
H182	H	0.274782	-0.332266	-0.699169
H183	H	-0.228937	-0.781186	-1.102106
H184	H	0.271063	-0.281186	-0.602106
N185	N	-0.534019	-0.826000	-0.366928
N186	N	-0.034019	-0.326000	0.133072
H187	H	-0.506758	-0.796803	-0.409548
H188	H	-0.006758	-0.296803	0.090452
H189	H	-0.564906	-0.800567	-0.324323
H190	H	-0.064906	-0.300567	0.175677
N191	N	-1.071507	-0.826195	-0.367025
N192	N	-0.571507	-0.326195	0.132975
H193	H	-1.040757	-0.800696	-0.324393
H194	H	-0.540757	-0.300696	0.175607
H195	H	-1.098798	-0.797057	-0.409729
H196	H	-0.598798	-0.297057	0.090271
N197	N	-0.670346	-0.993302	-0.646679
N198	N	-0.170346	-0.493302	-0.146679
H199	H	-0.658861	-1.038280	-0.630457
H200	H	-0.158861	-0.538280	-0.130457
H201	H	-0.716981	-0.987159	-0.636451
H202	H	-0.216981	-0.487159	-0.136451
N203	N	-0.386711	-0.277916	-0.646224
N204	N	0.113289	0.222084	-0.146224
H205	H	-0.412237	-0.247119	-0.688731
H206	H	0.087763	0.252881	-0.188731
H207	H	-0.361126	-0.305251	-0.694904
H208	H	0.138874	0.194749	-0.194904
N209	N	-0.533699	-0.993257	-0.646638
N210	N	-0.033699	-0.493257	-0.146638
H211	H	-0.564450	-1.018751	-0.689274
H212	H	-0.064450	-0.518751	-0.189274
H213	H	-0.506430	-0.967603	-0.695188
H214	H	-0.006430	-0.467603	-0.195188
N215	N	-0.670660	-0.826045	-0.366960
N216	N	-0.170660	-0.326045	0.133040
H217	H	-0.659265	-0.781059	-0.383173
H218	H	-0.159265	-0.281059	0.116827
H219	H	-0.717272	-0.832219	-0.377205
H220	H	-0.217272	-0.332219	0.122795
N221	N	-0.219165	-0.826122	-0.893272
N222	N	0.280835	-0.326122	-0.393272
H223	H	-0.193659	-0.800642	-0.944668
H224	H	0.306341	-0.300642	-0.444668
H225	H	-0.244802	-0.796967	-0.847708
H226	H	0.255198	-0.296967	-0.347708
