data_functionalizedCrystal
_audit_creation_method	'MofGen! by Chris Wilmer'
_symmetry_space_group_name_H-M	'P1'
_symmetry_Int_Tables_number	1
_symmetry_cell_setting	triclinic
loop_
_symmetry_equiv_pos_as_xyz
  x,y,z
_cell_length_a	19.077105
_cell_length_b	12.645330
_cell_length_c	19.076919
_cell_angle_alpha	87.723750
_cell_angle_beta	89.923776
_cell_angle_gamma	87.714233
loop_
_atom_site_label
_atom_site_type_symbol
_atom_site_fract_x
_atom_site_fract_y
_atom_site_fract_z
Zn1	Zn	1.058309	-0.512860	0.440444
Zn2	Zn	1.062962	-0.683311	0.322946
Zn3	Zn	0.945526	-0.498659	0.318237
Zn4	Zn	0.940784	-0.682672	0.435699
O5	O	1.001896	-0.594376	0.379332
O6	O	1.157259	-0.541682	0.428815
O7	O	1.051316	-0.653141	0.223990
O8	O	0.960524	-0.352199	0.334463
O9	O	1.160677	-0.666911	0.342490
O10	O	1.043386	-0.362632	0.424248
O11	O	0.965036	-0.517478	0.220530
O12	O	0.846565	-0.516858	0.329862
O13	O	0.952442	-0.665822	0.534660
O14	O	0.843081	-0.652051	0.416161
O15	O	1.038788	-0.541062	0.538146
O16	O	1.046718	-0.831570	0.337888
O17	O	0.956954	-0.831101	0.420727
C18	C	0.819326	-0.582845	0.371986
C19	C	0.741222	-0.577939	0.368860
C20	C	0.702735	-0.646120	0.412251
C21	C	0.629348	-0.641496	0.409318
C22	C	0.594448	-0.568695	0.362988
C23	C	0.632940	-0.500507	0.319594
C24	C	0.706326	-0.505126	0.322532
C25	C	0.375159	-0.547316	0.349394
C26	C	0.301768	-0.542704	0.346458
C27	C	0.298181	-0.683692	0.436183
C28	C	0.371569	-0.688309	0.439113
C29	C	0.410054	-0.620117	0.395722
N30	N	0.519434	-0.563970	0.359986
N31	N	0.485066	-0.624839	0.398728
C32	C	1.001845	-0.869801	0.379320
C33	C	1.001886	-0.987635	0.379341
C34	C	0.945633	-1.154972	0.431631
C35	C	0.945363	-1.032385	0.431445
C36	C	0.984820	-1.026659	0.304483
C37	C	0.984477	-1.149256	0.304800
C38	C	1.075561	-1.160522	0.401321
C39	C	1.075039	-1.037980	0.402922
C40	C	1.185178	-0.605952	0.386707
C41	C	1.263281	-0.610885	0.389850
C42	C	0.994567	-0.604955	0.562612
C43	C	0.991444	-0.609463	0.640716
C44	C	1.001965	-0.317876	0.379360
C45	C	1.001995	-0.200049	0.379372
C46	C	1.009236	-0.583764	0.196766
C47	C	1.012495	-0.578966	0.118668
C48	C	1.034930	-0.546628	0.679225
C49	C	1.031987	-0.550859	0.752611
C50	C	0.985561	-0.617932	0.787487
C51	C	0.942070	-0.680769	0.748972
C52	C	0.945010	-0.676531	0.675587
C53	C	0.971944	-0.637565	1.006769
C54	C	0.969009	-0.641800	1.080159
C55	C	1.058925	-0.511889	1.083793
C56	C	1.061864	-0.507662	1.010407
C57	C	1.018371	-0.570495	0.971898
N58	N	0.982553	-0.622261	0.862499
N59	N	1.021376	-0.566159	0.896887
H60	H	0.604518	-0.441227	0.281874
O61	O	0.591886	-0.707770	0.451363
C62	C	0.551031	-0.771167	0.409574
H63	H	0.542163	-0.729881	0.355926
H64	H	0.579608	-0.851039	0.402892
C65	C	0.490671	-0.839001	0.511311
C66	C	0.479774	-0.788289	0.445422
H67	H	0.446718	-0.849568	0.533425
H68	H	0.518197	-0.796293	0.539466
H69	H	0.514488	-0.905556	0.505734
H70	H	0.455966	-0.721731	0.451000
H71	H	0.452243	-0.830987	0.417269
O72	O	0.902696	-0.737419	0.638147
C73	C	0.859035	-0.671755	0.593862
H74	H	0.853830	-0.589264	0.615808
H75	H	0.882987	-0.666270	0.539120
C76	C	0.792413	-0.820186	0.562837
C77	C	0.786014	-0.718872	0.589794
H78	H	0.747371	-0.849251	0.560325
H79	H	0.821829	-0.864427	0.592670
H80	H	0.812375	-0.815601	0.517221
H81	H	0.766061	-0.723459	0.635413
H82	H	0.756592	-0.674633	0.559969
O83	O	0.743794	-0.439050	0.280348
C84	C	0.788030	-0.499346	0.236583
H85	H	0.798026	-0.581859	0.261716
H86	H	0.761820	-0.506082	0.183363
C87	C	0.845976	-0.343305	0.195852
C88	C	0.858259	-0.444646	0.226723
H89	H	0.889296	-0.309563	0.189767
H90	H	0.816172	-0.302681	0.225335
H91	H	0.824132	-0.348933	0.151505
H92	H	0.880094	-0.439017	0.271073
H93	H	0.888068	-0.485268	0.197247
O94	O	1.074201	-0.489665	0.789935
C95	C	1.059579	-0.382007	0.771399
H96	H	1.034698	-0.375037	0.717030
H97	H	1.021810	-0.346394	0.811248
C98	C	1.158795	-0.330491	0.837544
C99	C	1.128241	-0.321930	0.770764
H100	H	1.201148	-0.293430	0.837155
H101	H	1.168645	-0.403022	0.850034
H102	H	1.127315	-0.300814	0.870744
H103	H	1.159718	-0.351618	0.737567
H104	H	1.118398	-0.249402	0.758267
H105	H	0.731145	-0.705405	0.449976
H106	H	0.890765	-0.998945	0.416668
H107	H	0.904267	-0.735377	0.777373
O108	O	1.079933	-0.481406	0.645270
C109	C	1.041641	-0.407944	0.601231
H110	H	0.988822	-0.441337	0.588084
H111	H	1.032802	-0.330534	0.629214
C112	C	1.147974	-0.346141	0.549234
C113	C	1.083103	-0.387160	0.533081
H114	H	1.173550	-0.333316	0.507197
H115	H	1.173772	-0.395631	0.578906
H116	H	1.140599	-0.281637	0.572554
H117	H	1.090478	-0.451668	0.509769
H118	H	1.057306	-0.337680	0.503404
O119	O	1.031431	-1.184532	0.256482
C120	C	1.012381	-1.141838	0.189483
H121	H	0.953985	-1.118863	0.188856
H122	H	1.043807	-1.068668	0.176857
C123	C	1.099728	-1.253297	0.134969
C124	C	1.028003	-1.225087	0.134198
H125	H	1.109367	-1.304646	0.100865
H126	H	1.112565	-1.282059	0.180107
H127	H	1.125908	-1.192314	0.124449
H128	H	1.001826	-1.286066	0.144726
H129	H	1.015162	-1.196338	0.089060
O130	O	0.260688	-0.749815	0.478308
C131	C	0.188433	-0.730150	0.465771
H132	H	0.179333	-0.646333	0.442446
H133	H	0.169087	-0.789469	0.427448
C134	C	0.159105	-0.844706	0.563999
C135	C	0.147928	-0.741757	0.535357
H136	H	0.134118	-0.851870	0.606921
H137	H	0.207785	-0.857959	0.572444
H138	H	0.142984	-0.894127	0.532057
H139	H	0.164056	-0.692339	0.567295
H140	H	0.099249	-0.728497	0.526918
H141	H	0.955696	-1.006214	0.486858
O142	O	1.032304	-0.991842	0.256513
C143	C	0.997436	-0.928578	0.203832
H144	H	0.939969	-0.949783	0.201859
H145	H	1.001052	-0.841467	0.216118
C146	C	1.102674	-0.922453	0.134780
C147	C	1.032093	-0.948504	0.132352
H148	H	1.124053	-0.934739	0.090688
H149	H	1.126166	-0.965072	0.170273
H150	H	1.105677	-0.849862	0.145021
H151	H	1.029091	-1.021097	0.122120
H152	H	1.008601	-0.905898	0.096856
O153	O	1.106883	-0.442331	0.976573
C154	C	1.090830	-0.336757	0.993930
H155	H	1.033883	-0.329046	1.011832
H156	H	1.126793	-0.313897	1.038060
C157	C	1.171582	-0.272201	0.907106
C158	C	1.101637	-0.262729	0.929088
H159	H	1.178251	-0.226535	0.867110
H160	H	1.182399	-0.343328	0.895413
H161	H	1.201543	-0.253153	0.943887
H162	H	1.071678	-0.281790	0.892310
H163	H	1.090815	-0.191603	0.940772
H164	H	1.094334	-0.460732	1.115154
H165	H	1.091711	-1.195605	0.455137
H166	H	1.087964	-1.012952	0.458029
O167	O	0.923845	-0.706980	1.113927
C168	C	0.886099	-0.761549	1.064203
H169	H	0.885768	-0.714955	1.011799
H170	H	0.912120	-0.843236	1.057425
C171	C	0.810570	-0.830981	1.154200
C172	C	0.810158	-0.773748	1.089837
H173	H	0.763727	-0.838511	1.170013
H174	H	0.836002	-0.794220	1.187700
H175	H	0.832258	-0.899047	1.148542
H176	H	0.788479	-0.705679	1.095498
H177	H	0.784721	-0.810498	1.056338
O178	O	0.929629	-0.698439	0.969327
C179	C	0.885974	-0.632759	0.925046
H180	H	0.880770	-0.550275	0.947002
H181	H	0.909931	-0.627260	0.870306
C182	C	0.819349	-0.781174	0.893994
C183	C	0.812952	-0.679867	0.920964
H184	H	0.774306	-0.810234	0.891474
H185	H	0.848761	-0.825425	0.923825
H186	H	0.839315	-0.776578	0.848381
H187	H	0.792994	-0.684467	0.966580
H188	H	0.783534	-0.635618	0.891141
O189	O	0.267974	-0.471884	0.301434
C190	C	0.317678	-0.412703	0.263753
H191	H	0.368846	-0.414049	0.294633
H192	H	0.327603	-0.448800	0.210653
C193	C	0.226600	-0.295825	0.214684
C194	C	0.289444	-0.297471	0.252613
H195	H	0.209183	-0.224746	0.207809
H196	H	0.193113	-0.335699	0.240068
H197	H	0.234879	-0.325912	0.170437
H198	H	0.281162	-0.267397	0.296862
H199	H	0.322929	-0.257589	0.227237
O200	O	0.412613	-0.481232	0.307208
C201	C	0.456849	-0.541520	0.263439
H202	H	0.466857	-0.624030	0.288572
H203	H	0.430632	-0.548266	0.210222
C204	C	0.514773	-0.385466	0.222695
C205	C	0.527070	-0.486804	0.253567
H206	H	0.558088	-0.351714	0.216602
H207	H	0.484969	-0.344848	0.252181
H208	H	0.492924	-0.391102	0.178351
H209	H	0.548910	-0.481166	0.297913
H210	H	0.556879	-0.527421	0.224088
H211	H	0.399979	-0.747594	0.476839
H212	H	0.955843	-1.188371	0.487220
H213	H	0.891372	-1.181699	0.417028
H214	H	1.119004	-1.007870	0.367868
H215	H	0.930788	-1.173588	0.286552
O216	O	0.921398	-0.985099	0.282474
C217	C	0.868928	-1.017693	0.329801
H218	H	0.887732	-1.093578	0.359460
H219	H	0.857560	-0.952986	0.368660
C220	C	0.778472	-0.944998	0.252516
C221	C	0.801566	-1.038206	0.288939
H222	H	0.736919	-0.957647	0.227312
H223	H	0.813822	-0.923034	0.220632
H224	H	0.769005	-0.891084	0.284905
H225	H	0.811041	-1.092114	0.256550
H226	H	0.766216	-1.060179	0.320818
H227	H	1.117515	-1.189748	0.363295
