data_functionalizedCrystal
_audit_creation_method	'MofGen! by Chris Wilmer'
_symmetry_space_group_name_H-M	'P1'
_symmetry_Int_Tables_number	1
_symmetry_cell_setting	triclinic
loop_
_symmetry_equiv_pos_as_xyz
  x,y,z
_cell_length_a	18.050591
_cell_length_b	18.050589
_cell_length_c	18.050591
_cell_angle_alpha	90.013707
_cell_angle_beta	90.014855
_cell_angle_gamma	90.024227
loop_
_atom_site_label
_atom_site_type_symbol
_atom_site_fract_x
_atom_site_fract_y
_atom_site_fract_z
Zn1	Zn	1.135248	-0.295819	0.420054
Zn2	Zn	1.635248	0.204181	0.920054
Zn3	Zn	1.135172	-0.419992	0.295873
Zn4	Zn	1.635172	0.080008	0.795873
Zn5	Zn	1.011080	-0.295812	0.295865
Zn6	Zn	1.511080	0.204188	0.795865
Zn7	Zn	1.011015	-0.419963	0.420009
Zn8	Zn	1.511015	0.080037	0.920009
O9	O	1.073129	-0.357896	0.357950
O10	O	1.573129	0.142104	0.857950
O11	O	1.239162	-0.312306	0.403603
O12	O	1.739162	0.187694	0.903603
O13	O	1.118706	-0.403529	0.191948
O14	O	1.618706	0.096471	0.691948
O15	O	1.027611	-0.191888	0.312354
O16	O	1.527611	0.308112	0.812354
O17	O	1.239107	-0.403536	0.312368
O18	O	1.739107	0.096464	0.812368
O19	O	1.118836	-0.191893	0.403595
O20	O	1.618836	0.308107	0.903595
O21	O	1.027537	-0.312294	0.191941
O22	O	1.527537	0.187706	0.691941
O23	O	0.907147	-0.312266	0.312310
O24	O	1.407147	0.187734	0.812310
O25	O	1.027500	-0.403485	0.523939
O26	O	1.527500	0.096515	1.023939
O27	O	0.907099	-0.403479	0.403518
O28	O	1.407099	0.096521	0.903518
O29	O	1.118773	-0.312277	0.523972
O30	O	1.618773	0.187723	1.023972
O31	O	1.118643	-0.523913	0.312325
O32	O	1.618643	-0.023913	0.812325
O33	O	1.027426	-0.523891	0.403526
O34	O	1.527426	-0.023891	0.903526
C35	C	0.880177	-0.357869	0.357909
C36	C	1.380177	0.142131	0.857909
C37	C	0.797631	-0.357875	0.357909
C38	C	1.297631	0.142125	0.857909
C39	C	0.598185	-0.308216	0.308424
C40	C	1.098185	0.191784	0.808424
C41	C	0.548767	-0.375950	0.290154
C42	C	1.048767	0.124050	0.790154
C43	C	0.646501	-0.357897	0.357943
C44	C	1.146501	0.142103	0.857943
C45	C	0.548837	-0.290186	0.376212
C46	C	1.048837	0.209814	0.876212
C47	C	0.500516	-0.357913	0.357974
C48	C	1.000516	0.142087	0.857974
C49	C	0.598170	-0.425667	0.339636
C50	C	1.098170	0.074333	0.839636
C51	C	0.598244	-0.339858	0.425726
C52	C	1.098244	0.160142	0.925726
C53	C	0.548849	-0.407639	0.407481
C54	C	1.048849	0.092361	0.907481
C55	C	0.730599	-0.357887	0.357923
C56	C	1.230599	0.142113	0.857923
C57	C	0.416419	-0.357931	0.357994
C58	C	0.916419	0.142069	0.857994
C59	C	1.073039	-0.550849	0.357938
C60	C	1.573039	-0.050849	0.857938
C61	C	1.073069	-0.633394	0.357957
C62	C	1.573069	-0.133394	0.857957
C63	C	1.023514	-0.832860	0.407536
C64	C	1.523514	-0.332860	0.907536
C65	C	1.005423	-0.882288	0.339766
C66	C	1.505423	-0.382288	0.839766
C67	C	1.073142	-0.784525	0.357967
C68	C	1.573142	-0.284525	0.857967
C69	C	1.091269	-0.882179	0.425744
C70	C	1.591269	-0.382179	0.925744
C71	C	1.073211	-0.930510	0.357982
C72	C	1.573211	-0.430510	0.857982
C73	C	1.055015	-0.832865	0.290162
C74	C	1.555015	-0.332865	0.790162
C75	C	1.140893	-0.832752	0.376185
C76	C	1.640893	-0.332752	0.876185
C77	C	1.122828	-0.882157	0.308369
C78	C	1.622828	-0.382157	0.808369
C79	C	1.073100	-0.700426	0.357959
C80	C	1.573100	-0.200426	0.857959
C81	C	1.073253	-1.014606	0.357983
C82	C	1.573253	-0.514606	0.857983
C83	C	1.266834	-0.357925	0.357992
C84	C	1.766834	0.142075	0.857992
C85	C	1.349380	-0.357937	0.358010
C86	C	1.849380	0.142063	0.858010
C87	C	1.073137	-0.357879	0.551656
C88	C	1.573137	0.142121	1.051656
C89	C	1.073141	-0.357871	0.634201
C90	C	1.573141	0.142129	1.134201
C91	C	1.073239	-0.164191	0.357979
C92	C	1.573239	0.335809	0.857979
C93	C	1.073286	-0.081645	0.357991
C94	C	1.573286	0.418355	0.857991
C95	C	1.122781	-0.308285	0.883045
C96	C	1.622781	0.191715	1.383045
C97	C	1.140911	-0.376037	0.833638
C98	C	1.640911	0.123963	1.333638
C99	C	1.073140	-0.357899	0.931322
C100	C	1.573140	0.142101	1.431322
C101	C	1.055046	-0.290137	0.833647
C102	C	1.555046	0.209863	1.333647
C103	C	1.073143	-0.357882	0.785337
C104	C	1.573143	0.142118	1.285337
C105	C	1.091305	-0.425687	0.883002
C106	C	1.591305	0.074313	1.383002
C107	C	1.005409	-0.339741	0.883016
C108	C	1.505409	0.160259	1.383016
C109	C	1.023513	-0.407540	0.833631
C110	C	1.523513	0.092460	1.333631
C111	C	1.073141	-0.357907	1.015420
C112	C	1.573141	0.142093	1.515420
C113	C	1.073142	-0.357880	0.701240
C114	C	1.573142	0.142120	1.201240
C115	C	1.073122	-0.357924	1.164998
C116	C	1.573122	0.142076	1.664998
C117	C	1.073140	-0.357910	1.082452
C118	C	1.573140	0.142090	1.582452
H119	H	0.619750	-0.482953	0.324134
H120	H	1.119750	0.017047	0.824134
H121	H	0.948160	-0.904062	0.324371
H122	H	1.448160	-0.404062	0.824371
C123	C	1.112081	-0.503111	0.912161
C124	C	1.612081	-0.003111	1.412161
H125	H	1.111981	-0.502637	0.964791
H126	H	1.611981	-0.002637	1.464791
H127	H	1.077044	-0.538378	0.894848
H128	H	1.577044	-0.038378	1.394848
H129	H	1.160051	-0.516075	0.894843
H130	H	1.660051	-0.016075	1.394843
H131	H	0.527323	-0.449709	0.449370
H132	H	1.027323	0.050291	0.949370
H133	H	0.527035	-0.391220	0.232844
H134	H	1.027035	0.108780	0.732844
C135	C	1.111948	-0.911441	0.503165
C136	C	1.611948	-0.411441	1.003165
H137	H	1.076614	-0.894552	0.538314
H138	H	1.576614	-0.394552	1.038314
H139	H	1.112270	-0.964061	0.502509
H140	H	1.612270	-0.464061	1.002509
H141	H	1.159715	-0.893744	0.516440
H142	H	1.659715	-0.393744	1.016440
H143	H	1.164792	-0.266387	0.904741
H144	H	1.664792	0.233613	1.404741
H145	H	1.198191	-0.391391	0.811946
H146	H	1.698191	0.108609	1.311946
C147	C	1.179564	-0.911224	0.251692
C148	C	1.679564	-0.411224	0.751692
H149	H	1.215867	-0.940154	0.276480
H150	H	1.715867	-0.440154	0.776480
H151	H	1.154942	-0.940892	0.215851
H152	H	1.654942	-0.440892	0.715851
H153	H	1.202895	-0.870553	0.227786
H154	H	1.702895	-0.370553	0.727786
H155	H	0.948145	-0.324365	0.904722
H156	H	1.448145	0.175635	1.404722
C157	C	0.966807	-0.464271	0.804497
C158	C	1.466807	0.035729	1.304497
H159	H	0.979783	-0.512357	0.821488
H160	H	1.479783	-0.012357	1.321488
H161	H	0.918836	-0.451790	0.822151
H162	H	1.418836	0.048210	1.322151
H163	H	0.966831	-0.463676	0.751871
H164	H	1.466831	0.036324	1.251871
H165	H	0.527127	-0.232925	0.391625
H166	H	1.027127	0.267075	0.891625
C167	C	0.627633	-0.319203	0.503121
C168	C	1.127633	0.180797	1.003121
H169	H	0.610773	-0.271047	0.516018
H170	H	1.110773	0.228953	1.016018
H171	H	0.610007	-0.354008	0.538434
H172	H	1.110007	0.145992	1.038434
H173	H	0.680257	-0.319792	0.502651
H174	H	1.180257	0.180208	1.002651
C175	C	1.034362	-0.212734	0.804364
C176	C	1.534362	0.287266	1.304364
H177	H	1.069681	-0.177553	0.821295
H178	H	1.569681	0.322447	1.321295
H179	H	1.034066	-0.213388	0.751743
H180	H	1.534066	0.286612	1.251743
H181	H	0.986584	-0.199503	0.822006
H182	H	1.486584	0.300497	1.322006
H183	H	0.981483	-0.811214	0.449395
H184	H	1.481483	-0.311214	0.949395
H185	H	1.039645	-0.811293	0.232834
H186	H	1.539645	-0.311293	0.732834
C187	C	0.627458	-0.251523	0.251797
C188	C	1.127458	0.248477	0.751797
H189	H	0.610515	-0.264470	0.203669
H190	H	1.110515	0.235530	0.703669
H191	H	0.609842	-0.203538	0.264291
H192	H	1.109842	0.296462	0.764291
H193	H	0.680083	-0.251599	0.252487
H194	H	1.180083	0.248401	0.752487
C195	C	1.218245	-0.803361	0.397012
C196	C	1.718245	-0.303361	0.897012
H197	H	1.231032	-0.820223	0.445199
H198	H	1.731032	-0.320223	0.945199
H199	H	1.253628	-0.820992	0.362287
H200	H	1.753628	-0.320992	0.862287
H201	H	1.217793	-0.750737	0.396412
H202	H	1.717793	-0.250737	0.896412
