data_functionalizedCrystal
_audit_creation_method	'MofGen! by Chris Wilmer'
_symmetry_space_group_name_H-M	'P1'
_symmetry_Int_Tables_number	1
_symmetry_cell_setting	triclinic
loop_
_symmetry_equiv_pos_as_xyz
  x,y,z
_cell_length_a	16.109301
_cell_length_b	14.044220
_cell_length_c	14.586319
_cell_angle_alpha	89.995213
_cell_angle_beta	89.999213
_cell_angle_gamma	88.325179
loop_
_atom_site_label
_atom_site_type_symbol
_atom_site_fract_x
_atom_site_fract_y
_atom_site_fract_z
O1	O	1.112195	0.121835	-0.076185
O2	O	0.871261	0.136997	-0.076199
O3	O	0.988112	-0.008568	-0.076183
O4	O	0.995345	0.267399	-0.076201
O5	O	0.988103	-0.008570	0.076298
O6	O	0.871252	0.136995	0.076281
O7	O	1.112186	0.121832	0.076296
Cu8	Cu	0.991719	0.129413	0.090212
Cu9	Cu	0.991729	0.129416	-0.090115
O10	O	0.995336	0.267397	0.076280
C11	C	0.840236	0.136381	0.000039
C12	C	0.747804	0.134540	0.000034
C13	C	0.531640	0.216634	0.000039
C14	C	0.444790	0.214896	0.000045
C15	C	0.451815	0.042189	0.000052
C16	C	0.538663	0.043927	0.000053
C17	C	0.578573	0.131153	0.000042
C18	C	0.404875	0.127677	0.000047
C19	C	0.310709	0.125792	0.000054
C20	C	0.672745	0.133038	0.000037
C21	C	0.984941	-0.043882	0.000058
C22	C	0.975498	-0.149105	0.000058
C23	C	0.958232	-0.341761	0.000044
C24	C	1.025212	-0.399415	0.000045
C25	C	1.015605	-0.506616	0.000037
C26	C	0.967838	-0.234551	0.000052
C27	C	1.143211	0.122448	0.000056
C28	C	1.235644	0.124289	0.000055
C29	C	0.998506	0.302711	0.000037
C30	C	1.007950	0.407934	0.000031
N31	N	0.991717	0.129411	0.217043
N32	N	0.991737	0.129411	-0.216946
C33	C	1.043479	0.064976	0.452057
C34	C	1.043481	0.064974	0.548038
C35	C	0.939969	0.193848	0.548033
C36	C	0.939963	0.193845	0.452054
C37	C	0.991723	0.129410	0.404068
C38	C	0.991731	0.129411	0.596029
C39	C	0.991733	0.129409	0.700096
C40	C	0.991720	0.129411	0.299994
H41	H	0.406580	0.284504	0.000045
O42	O	0.413005	-0.042513	-0.000108
C43	C	0.318991	-0.144675	-0.079078
C44	C	0.362902	-0.048726	-0.079018
H45	H	0.278459	-0.149721	-0.142861
H46	H	0.367419	-0.205512	-0.079134
H47	H	0.278540	-0.149797	-0.015238
H48	H	0.403351	-0.043511	-0.142848
H49	H	0.314431	0.012065	-0.078915
H50	H	1.085623	0.012509	0.412989
H51	H	0.893680	-0.372911	0.000038
O52	O	0.584296	-0.039089	0.000215
C53	C	0.686468	-0.137328	0.079186
C54	C	0.634824	-0.043295	0.079124
H55	H	0.727346	-0.140751	0.142968
H56	H	0.643066	-0.200007	0.079245
H57	H	0.727268	-0.140812	0.015345
H58	H	0.594019	-0.039718	0.142955
H59	H	0.678273	0.019339	0.079018
O60	O	1.102170	-0.362103	0.000100
C61	C	1.182034	-0.219680	0.000071
C62	C	1.094835	-0.261814	0.000027
H63	H	1.176133	-0.138591	-0.000007
H64	H	1.217265	-0.244582	0.063903
H65	H	1.217262	-0.244685	-0.063723
H66	H	1.059537	-0.236828	0.063777
H67	H	1.059667	-0.236917	-0.063848
H68	H	1.085624	0.012505	0.587108
H69	H	0.897813	0.246315	0.412979
O70	O	0.570277	0.301443	0.000077
C71	C	0.554139	0.472561	0.000022
C72	C	0.510279	0.376579	-0.000003
H73	H	0.505651	0.533334	-0.000062
H74	H	0.594597	0.477754	0.063850
H75	H	0.594648	0.477648	-0.063776
H76	H	0.469727	0.371428	0.063752
H77	H	0.469872	0.371428	-0.063873
O78	O	0.889776	0.256407	0.594790
C79	C	0.843878	0.313495	0.742649
C80	C	0.900775	0.242607	0.689815
H81	H	0.852737	0.302349	0.819485
H82	H	0.860342	0.389438	0.723834
H83	H	0.776380	0.301133	0.723732
H84	H	0.968290	0.254882	0.708703
H85	H	0.884239	0.166689	0.708634
