data_functionalizedCrystal
_audit_creation_method	'MofGen! by Chris Wilmer'
_symmetry_space_group_name_H-M	'P1'
_symmetry_Int_Tables_number	1
_symmetry_cell_setting	triclinic
loop_
_symmetry_equiv_pos_as_xyz
  x,y,z
_cell_length_a	16.109295
_cell_length_b	15.944551
_cell_length_c	15.021413
_cell_angle_alpha	89.987930
_cell_angle_beta	89.994915
_cell_angle_gamma	83.478963
loop_
_atom_site_label
_atom_site_type_symbol
_atom_site_fract_x
_atom_site_fract_y
_atom_site_fract_z
O1	O	-0.107222	-1.114473	-0.073933
O2	O	0.392778	-0.614473	0.426067
O3	O	-0.120442	-0.869918	-0.073954
O4	O	0.379558	-0.369918	0.426046
O5	O	0.007197	-0.998916	-0.073944
O6	O	0.507197	-0.498916	0.426056
O7	O	-0.234861	-0.985475	-0.073943
O8	O	0.265139	-0.485475	0.426057
O9	O	0.007188	-0.998933	0.074120
O10	O	0.507188	-0.498933	0.574120
O11	O	-0.120451	-0.869935	0.074110
O12	O	0.379549	-0.369935	0.574110
O13	O	-0.107231	-1.114489	0.074131
O14	O	0.392769	-0.614489	0.574131
Zn15	Zn	-0.113843	-0.992215	0.097629
Zn16	Zn	0.386157	-0.492215	0.597629
Zn17	Zn	-0.113831	-0.992193	-0.097452
Zn18	Zn	0.386169	-0.492193	0.402548
O19	O	-0.234870	-0.985492	0.074121
O20	O	0.265130	-0.485492	0.574121
C21	C	0.038168	-0.998381	0.000086
C22	C	0.538168	-0.498381	0.500086
C23	C	0.130464	-0.996751	0.000079
C24	C	0.630464	-0.496751	0.500079
C25	C	-0.119898	-0.838633	0.000075
C26	C	0.380102	-0.338633	0.500075
C27	C	-0.118252	-0.745387	0.000067
C28	C	0.381748	-0.245387	0.500067
C29	C	0.352713	-1.069504	0.000053
C30	C	0.852713	-0.569504	0.500053
C31	C	0.439434	-1.067966	0.000038
C32	C	0.939434	-0.567966	0.500038
C33	C	0.419610	-0.914918	0.000029
C34	C	0.919610	-0.414918	0.500029
C35	C	0.332890	-0.916457	0.000037
C36	C	0.832890	-0.416457	0.500037
C37	C	0.299445	-0.993752	0.000054
C38	C	0.799445	-0.493752	0.500054
C39	C	0.472885	-0.990676	0.000030
C40	C	0.972885	-0.490676	0.500030
C41	C	0.566912	-0.989007	0.000014
C42	C	1.066912	-0.489007	0.500014
C43	C	0.205412	-0.995421	0.000068
C44	C	0.705412	-0.495421	0.500068
C45	C	0.734160	-0.986032	0.000068
C46	C	1.234160	-0.486032	0.500068
C47	C	0.641866	-0.987677	0.000005
C48	C	1.141866	-0.487677	0.500005
C49	C	-0.107775	-1.145775	0.000100
C50	C	0.392225	-0.645775	0.500100
C51	C	-0.109421	-1.239020	0.000103
C52	C	0.390579	-0.739020	0.500103
C53	C	-0.035203	-0.530560	0.000083
C54	C	0.464797	-0.030560	0.500083
C55	C	-0.073764	-0.469518	-0.072920
C56	C	0.426236	0.030482	0.427080
C57	C	-0.115276	-0.574663	0.000077
C58	C	0.384724	-0.074663	0.500077
C59	C	-0.073792	-0.469557	0.073060
C60	C	0.426208	0.030443	0.573060
C61	C	-0.112395	-0.409751	0.000091
C62	C	0.387605	0.090249	0.500091
C63	C	-0.153859	-0.514849	-0.072987
C64	C	0.346141	-0.014849	0.427013
C65	C	-0.153875	-0.514894	0.073059
C66	C	0.346125	-0.014894	0.573059
C67	C	-0.192495	-0.453870	0.000038
C68	C	0.307505	0.046130	0.500038
C69	C	-0.116933	-0.669664	0.000068
C70	C	0.383067	-0.169664	0.500068
C71	C	-0.110743	-0.314750	0.000094
C72	C	0.389257	0.185250	0.500094
N73	N	-0.113850	-0.992236	0.230767
N74	N	0.386150	-0.492236	0.730767
C75	C	-0.054818	-1.051899	0.470431
C76	C	0.445182	-0.551899	0.970431
C77	C	-0.038668	-0.976006	0.529753
C78	C	0.461332	-0.476006	1.029753
C79	C	-0.113841	-0.992219	0.412373
C80	C	0.386159	-0.492219	0.912373
C81	C	-0.129944	-1.068096	0.529793
C82	C	0.370056	-0.568096	1.029793
C83	C	-0.113831	-0.992209	0.587798
C84	C	0.386169	-0.492209	1.087798
C85	C	-0.097653	-0.916287	0.470389
C86	C	0.402347	-0.416287	0.970389
C87	C	-0.188963	-1.008427	0.470424
C88	C	0.311037	-0.508427	0.970424
C89	C	-0.172844	-0.932478	0.529720
C90	C	0.327156	-0.432478	1.029720
C91	C	-0.113845	-0.992226	0.311316
C92	C	0.386155	-0.492226	0.811316
C93	C	-0.113827	-0.992193	0.688853
C94	C	0.386173	-0.492193	1.188853
N95	N	-0.113824	-0.992190	0.769410
N96	N	0.386176	-0.492190	1.269410
H97	H	0.325485	-1.132444	0.000064
H98	H	0.825485	-0.632444	0.500064
H99	H	0.024865	-0.962287	0.555814
H100	H	0.524865	-0.462287	1.055814
O101	O	0.452239	-0.839910	0.000061
O102	O	0.952239	-0.339910	0.500061
C103	C	0.540203	-0.854793	0.000034
C104	C	1.040203	-0.354793	0.500034
H105	H	0.560566	-0.920353	0.028066
H106	H	1.060566	-0.420353	0.528066
H107	H	0.566830	-0.805344	0.043018
H108	H	1.066830	-0.305344	0.543018
H109	H	0.564343	-0.850717	-0.071002
H110	H	1.064343	-0.350717	0.428998
H111	H	0.289516	-0.854766	0.000036
H112	H	0.789516	-0.354766	0.500036
O113	O	0.491298	-1.141474	-0.000002
O114	O	0.991298	-0.641474	0.499998
C115	C	0.575012	-1.123547	0.000005
C116	C	1.075012	-0.623547	0.500005
H117	H	0.578337	-1.057568	-0.028032
H118	H	1.078337	-0.557568	0.471968
H119	H	0.614296	-1.171828	-0.042985
H120	H	1.114296	-0.671828	0.457015
H121	H	0.600097	-1.126748	0.071035
H122	H	1.100097	-0.626748	0.571035
H123	H	-0.143569	-1.132268	0.555886
H124	H	0.356431	-0.632268	1.055886
O125	O	0.004710	-1.112147	0.439470
O126	O	0.504710	-0.612147	0.939470
C127	C	-0.011634	-1.191930	0.471014
C128	C	0.488366	-0.691930	0.971014
H129	H	-0.051286	-1.183629	0.533934
H130	H	0.448714	-0.683629	1.033934
H131	H	0.049895	-1.231825	0.486733
H132	H	0.549895	-0.731825	0.986733
H133	H	-0.046726	-1.224852	0.417885
H134	H	0.453274	-0.724852	0.917885
O135	O	-0.081293	-0.839769	0.439250
O136	O	0.418707	-0.339769	0.939250
C137	C	-0.081490	-0.840701	0.345394
C138	C	0.418510	-0.340701	0.845394
H139	H	-0.068415	-0.908563	0.320842
H140	H	0.431585	-0.408563	0.820842
H141	H	-0.031071	-0.802283	0.319453
H142	H	0.468929	-0.302283	0.819453
H143	H	-0.145140	-0.812010	0.319992
H144	H	0.354860	-0.312010	0.819992
H145	H	-0.222756	-0.881949	0.555588
H146	H	0.277244	-0.381949	1.055588
H147	H	-0.252476	-1.022170	0.444344
H148	H	0.247524	-0.522170	0.944344
H149	H	-0.187697	-0.534818	-0.134772
H150	H	0.312303	-0.034818	0.365228
O151	O	0.044098	-0.570298	-0.000161
O152	O	0.544098	-0.070298	0.499839
C153	C	0.086016	-0.547306	-0.077269
C154	C	0.586016	-0.047306	0.422731
H155	H	0.038291	-0.525283	-0.130797
H156	H	0.538291	-0.025283	0.369203
H157	H	0.128775	-0.604106	-0.102752
H158	H	0.628775	-0.104106	0.397248
H159	H	0.124878	-0.493939	-0.060613
H160	H	0.624878	0.006061	0.439387
H161	H	-0.259017	-0.420688	-0.000003
H162	H	0.240983	0.079312	0.499997
O163	O	-0.033301	-0.445676	-0.146576
O164	O	0.466699	0.054324	0.353424
C165	C	-0.005844	-0.517565	-0.197853
C166	C	0.494156	-0.017565	0.302147
H167	H	-0.000072	-0.575942	-0.153473
H168	H	0.499928	-0.075942	0.346527
H169	H	0.057612	-0.509754	-0.228383
H170	H	0.557612	-0.009754	0.271617
H171	H	-0.052869	-0.525129	-0.253168
H172	H	0.447131	-0.025129	0.246832
O173	O	-0.194128	-0.538893	0.146781
O174	O	0.305872	-0.038893	0.646781
C175	C	-0.151709	-0.516065	0.223604
C176	C	0.348291	-0.016065	0.723604
H177	H	-0.083926	-0.509320	0.206113
H178	H	0.416074	-0.009320	0.706113
H179	H	-0.153743	-0.566999	0.276578
H180	H	0.346257	-0.066999	0.776578
H181	H	-0.183158	-0.453419	0.250242
H182	H	0.316842	0.046581	0.750242
H183	H	-0.039913	-0.449490	0.134776
H184	H	0.460087	0.050510	0.634776
