data_functionalizedCrystal
_audit_creation_method	'MofGen! by Chris Wilmer'
_symmetry_space_group_name_H-M	'P1'
_symmetry_Int_Tables_number	1
_symmetry_cell_setting	triclinic
loop_
_symmetry_equiv_pos_as_xyz
  x,y,z
_cell_length_a	16.959455
_cell_length_b	16.959453
_cell_length_c	16.959447
_cell_angle_alpha	89.968936
_cell_angle_beta	89.979626
_cell_angle_gamma	90.017008
loop_
_atom_site_label
_atom_site_type_symbol
_atom_site_fract_x
_atom_site_fract_y
_atom_site_fract_z
Zn1	Zn	1.208384	-0.314729	-0.447032
Zn2	Zn	1.208307	-0.446921	-0.314852
Zn3	Zn	1.076213	-0.314754	-0.314856
Zn4	Zn	1.076178	-0.446862	-0.446977
O5	O	1.142270	-0.380816	-0.380929
O6	O	1.318985	-0.332279	-0.429520
O7	O	1.190767	-0.429424	-0.204242
O8	O	1.093793	-0.204140	-0.332414
O9	O	1.318928	-0.429400	-0.332408
O10	O	1.190899	-0.204121	-0.429524
O11	O	1.093718	-0.332321	-0.204244
O12	O	0.965597	-0.332264	-0.332360
O13	O	1.093733	-0.429299	-0.557595
O14	O	0.965571	-0.429324	-0.429429
O15	O	1.190864	-0.332221	-0.557636
O16	O	1.190733	-0.557524	-0.332354
O17	O	1.093658	-0.557481	-0.429425
C18	C	0.936904	-0.380791	-0.380889
C19	C	0.849048	-0.380799	-0.380891
C20	C	0.477532	-0.431337	-0.330337
C21	C	0.477612	-0.330361	-0.431617
C22	C	0.560158	-0.330348	-0.431598
C23	C	0.601395	-0.380831	-0.380948
C24	C	0.560085	-0.431328	-0.330318
C25	C	0.601474	-0.279859	-0.482234
C26	C	0.684025	-0.279844	-0.482217
C27	C	0.725263	-0.330324	-0.431563
C28	C	0.683948	-0.380822	-0.380929
C29	C	0.725185	-0.431305	-0.330280
C30	C	0.683872	-0.481799	-0.279642
C31	C	0.601323	-0.481807	-0.279663
C32	C	0.807811	-0.330315	-0.431541
C33	C	0.807738	-0.431295	-0.330260
C34	C	1.142205	-0.586183	-0.380900
C35	C	1.142249	-0.674039	-0.380914
C36	C	1.192898	-1.045447	-0.431589
C37	C	1.091863	-1.045583	-0.330386
C38	C	1.091834	-0.963037	-0.330368
C39	C	1.142337	-0.921692	-0.380962
C40	C	1.192869	-0.962893	-0.431575
C41	C	1.041297	-0.921830	-0.279762
C42	C	1.041265	-0.839279	-0.279743
C43	C	1.091773	-0.797933	-0.330334
C44	C	1.142307	-0.839139	-0.380947
C45	C	1.192810	-0.797794	-0.431541
C46	C	1.243349	-0.838999	-0.482152
C47	C	1.243376	-0.921547	-0.482165
C48	C	1.091746	-0.715384	-0.330320
C49	C	1.192781	-0.715240	-0.431527
C50	C	1.348439	-0.380843	-0.380970
C51	C	1.436295	-0.380854	-0.380987
C52	C	1.142303	-0.380751	-0.587097
C53	C	1.142317	-0.380723	-0.674954
C54	C	1.142358	-0.174648	-0.380976
C55	C	1.142395	-0.086792	-0.380995
C56	C	1.091840	-0.431184	-1.046411
C57	C	1.192984	-0.330096	-1.046449
C58	C	1.192963	-0.330113	-0.963903
C59	C	1.142380	-0.380667	-0.922607
C60	C	1.091819	-0.431204	-0.963858
C61	C	1.243529	-0.279582	-0.922646
C62	C	1.243511	-0.279597	-0.840095
C63	C	1.192923	-0.330148	-0.798798
C64	C	1.142359	-0.380686	-0.840054
C65	C	1.091777	-0.431240	-0.798758
C66	C	1.041208	-0.481776	-0.840012
C67	C	1.041232	-0.481754	-0.922560
C68	C	1.192900	-0.330169	-0.716250
C69	C	1.091756	-0.431260	-0.716204
C70	C	1.142283	-0.380825	-0.175563
C71	C	1.142422	-0.380630	-0.087707
H72	H	0.567893	-0.238763	-0.523475
H73	H	1.284465	-0.805326	-0.523350
H74	H	1.284522	-0.955103	-0.523370
F75	F	0.557350	-0.535543	-0.225777
H76	H	1.000179	-0.955499	-0.238574
F77	F	1.297364	-0.225788	-0.966600
H78	H	0.841307	-0.472402	-0.289012
H79	H	1.234170	-0.288941	-1.080077
H80	H	0.717655	-0.238728	-0.523449
F81	F	1.246685	-1.089299	-0.485447
H82	H	0.443891	-0.472446	-0.289107
F83	F	1.038109	-1.089587	-0.276553
F84	F	0.433723	-0.276644	-0.485527
F85	F	0.851776	-0.276584	-0.485433
F86	F	0.987476	-0.795433	-0.225881
H87	H	1.233909	-0.681582	-0.472724
H88	H	1.050594	-0.681839	-0.289118
H89	H	1.284686	-0.238448	-0.806513
H90	H	1.050666	-0.472326	-1.080004
H91	H	1.234074	-0.289026	-0.682664
F92	F	1.037914	-0.485064	-0.672261
H93	H	1.000027	-0.522940	-0.806378
F94	F	0.987421	-0.535535	-0.966471
H95	H	0.717457	-0.522907	-0.238407
