data_functionalizedCrystal
_audit_creation_method	'MofGen! by Chris Wilmer'
_symmetry_space_group_name_H-M	'P1'
_symmetry_Int_Tables_number	1
_symmetry_cell_setting	triclinic
loop_
_symmetry_equiv_pos_as_xyz
  x,y,z
_cell_length_a	16.109301
_cell_length_b	16.992695
_cell_length_c	14.586319
_cell_angle_alpha	90.000324
_cell_angle_beta	90.003133
_cell_angle_gamma	87.064852
loop_
_atom_site_label
_atom_site_type_symbol
_atom_site_fract_x
_atom_site_fract_y
_atom_site_fract_z
O1	O	1.109859	0.100779	0.076183
O2	O	1.609859	0.600779	0.576183
O3	O	0.868634	0.113322	0.076198
O4	O	1.368634	0.613322	0.576198
O5	O	0.988280	-0.007092	0.076183
O6	O	1.488280	0.492908	0.576183
O7	O	0.990214	0.221193	0.076198
O8	O	1.490214	0.721193	0.576198
O9	O	0.988264	-0.007085	-0.076298
O10	O	1.488264	0.492915	0.423702
O11	O	0.868619	0.113329	-0.076283
O12	O	1.368619	0.613329	0.423717
O13	O	1.109844	0.100786	-0.076298
O14	O	1.609844	0.600786	0.423702
Cu15	Cu	0.989230	0.107058	-0.090213
Cu16	Cu	1.489230	0.607058	0.409787
Cu17	Cu	0.989248	0.107050	0.090113
Cu18	Cu	1.489248	0.607050	0.590113
O19	O	0.990199	0.221200	-0.076283
O20	O	1.490199	0.721200	0.423717
C21	C	0.837618	0.112817	-0.000041
C22	C	1.337618	0.612817	0.499959
C23	C	0.745221	0.111294	-0.000035
C24	C	1.245221	0.611294	0.499965
C25	C	0.985784	-0.036300	-0.000057
C26	C	1.485784	0.463700	0.499943
C27	C	0.978361	-0.123343	-0.000056
C28	C	1.478361	0.376657	0.499944
C29	C	0.527480	0.179203	-0.000042
C30	C	1.027480	0.679203	0.499958
C31	C	0.440664	0.177766	-0.000048
C32	C	0.940664	0.677766	0.499952
C33	C	0.451005	0.034899	-0.000053
C34	C	0.951005	0.534899	0.499947
C35	C	0.537819	0.036337	-0.000054
C36	C	1.037819	0.536337	0.499946
C37	C	0.576055	0.108492	-0.000043
C38	C	1.076055	0.608492	0.499957
C39	C	0.402424	0.105616	-0.000049
C40	C	0.902424	0.605616	0.499951
C41	C	0.308294	0.104057	-0.000055
C42	C	0.808294	0.604057	0.499945
C43	C	0.670191	0.110051	-0.000039
C44	C	1.170191	0.610051	0.499961
C45	C	1.049987	-0.173601	-0.000062
C46	C	1.549987	0.326399	0.499938
C47	C	1.043007	-0.255386	-0.000052
C48	C	1.543007	0.244614	0.499948
C49	C	0.964400	-0.286911	-0.000045
C50	C	1.464400	0.213089	0.499955
C51	C	0.892768	-0.236645	-0.000037
C52	C	1.392768	0.263355	0.499963
C53	C	0.899749	-0.154862	-0.000039
C54	C	1.399749	0.345138	0.499961
C55	C	0.935467	-0.530501	-0.000030
C56	C	1.435467	-0.030501	0.499970
C57	C	0.928491	-0.612291	-0.000030
C58	C	1.428491	-0.112291	0.499970
C59	C	1.078731	-0.631026	-0.000045
C60	C	1.578731	-0.131026	0.499955
C61	C	1.085704	-0.549240	-0.000053
C62	C	1.585704	-0.049240	0.499947
C63	C	1.014073	-0.498982	-0.000040
C64	C	1.514073	0.001018	0.499960
N65	N	0.957263	-0.370508	-0.000038
N66	N	1.457263	0.129492	0.499962
N67	N	1.021210	-0.415387	-0.000040
N68	N	1.521210	0.084613	0.499960
C69	C	1.140860	0.101291	-0.000057
C70	C	1.640860	0.601291	0.499943
C71	C	1.233257	0.102814	-0.000057
C72	C	1.733257	0.602814	0.499943
C73	C	0.992694	0.250408	-0.000041
C74	C	1.492694	0.750408	0.499959
C75	C	1.000118	0.337451	-0.000036
C76	C	1.500118	0.837451	0.499964
N77	N	0.989224	0.107064	-0.217045
N78	N	1.489224	0.607064	0.282955
C79	C	1.042820	0.154622	-0.452051
C80	C	1.542820	0.654622	0.047949
C81	C	1.042828	0.154617	-0.548033
C82	C	1.542828	0.654617	-0.048033
C83	C	0.935662	0.059474	-0.548042
C84	C	1.435662	0.559474	-0.048042
C85	C	0.935658	0.059476	-0.452063
C86	C	1.435658	0.559476	0.047937
C87	C	0.989236	0.107055	-0.404070
C88	C	1.489236	0.607055	0.095930
C89	C	0.989248	0.107047	-0.596030
C90	C	1.489248	0.607047	-0.096030
C91	C	0.989257	0.107041	-0.700098
C92	C	1.489257	0.607041	-0.200098
C93	C	0.989229	0.107060	-0.299996
C94	C	1.489229	0.607060	0.200004
N95	N	0.989261	0.107038	0.216945
N96	N	1.489261	0.607038	0.716945
H97	H	0.558608	0.237956	-0.000040
H98	H	1.058608	0.737956	0.499960
H99	H	0.828765	-0.262319	-0.000024
H100	H	1.328765	0.237681	0.499976
H101	H	1.086463	0.193350	-0.587095
H102	H	1.586463	0.693350	-0.087095
H103	H	1.149714	-0.523580	-0.000059
H104	H	1.649714	-0.023580	0.499941
H105	H	0.401118	0.235347	-0.000048
H106	H	0.901118	0.735347	0.499952
H107	H	1.086447	0.193363	-0.412978
H108	H	1.586447	0.693363	0.087022
Cl109	Cl	0.402931	-0.055804	-0.000060
Cl110	Cl	0.902931	0.444196	0.499940
Cl111	Cl	1.133056	-0.318566	-0.000062
Cl112	Cl	1.633056	0.181434	0.499938
H113	H	0.577371	-0.021248	-0.000057
H114	H	1.077371	0.478752	0.499943
Cl115	Cl	0.868305	-0.000329	-0.608382
Cl116	Cl	1.368305	0.499671	-0.108382
Cl117	Cl	1.168775	-0.694211	-0.000058
Cl118	Cl	1.668775	-0.194211	0.499942
Cl119	Cl	0.868289	-0.000327	-0.391738
Cl120	Cl	1.368289	0.499673	0.108262
H121	H	0.864477	-0.637954	-0.000039
H122	H	1.364477	-0.137954	0.499961
Cl123	Cl	1.148812	-0.133979	-0.000081
Cl124	Cl	1.648812	0.366021	0.499919
H125	H	0.877139	-0.489590	-0.000020
H126	H	1.377139	0.010410	0.499980
Cl127	Cl	0.809701	-0.091679	-0.000029
Cl128	Cl	1.309701	0.408321	0.499971
