data_functionalizedCrystal
_audit_creation_method	'MofGen! by Chris Wilmer'
_symmetry_space_group_name_H-M	'P1'
_symmetry_Int_Tables_number	1
_symmetry_cell_setting	triclinic
loop_
_symmetry_equiv_pos_as_xyz
  x,y,z
_cell_length_a	6.817900
_cell_length_b	11.102233
_cell_length_c	10.943624
_cell_angle_alpha	91.863433
_cell_angle_beta	108.838799
_cell_angle_gamma	108.604738
loop_
_atom_site_label
_atom_site_type_symbol
_atom_site_fract_x
_atom_site_fract_y
_atom_site_fract_z
V1	V	-4.114280	-0.175806	-0.402556
O2	O	-4.073263	0.008482	-0.394888
O3	O	-4.091036	-0.348627	-0.399807
O4	O	-4.092261	-0.173087	-0.578122
O5	O	-4.072029	-0.168273	-0.215339
V6	V	-4.591230	-0.153765	-0.380162
O7	O	-4.389957	-0.224156	-0.451677
O8	O	-4.765750	-0.105416	-0.331041
O9	O	-4.391267	0.019056	-0.382911
O10	O	-4.749644	-0.338054	-0.387830
O11	O	-4.750878	-0.161298	-0.567380
O12	O	-4.390042	-0.156484	-0.204596
C13	C	-3.941303	-0.390758	-0.393458
C14	C	-4.003761	-0.532041	-0.392381
C15	C	-3.907726	-0.724697	-0.384405
C16	C	-3.849045	-0.591948	-0.385428
C17	C	-4.217180	-0.604893	-0.398323
C18	C	-4.275863	-0.737641	-0.397308
C19	C	-3.695182	-0.717221	-0.376954
C20	C	-3.636501	-0.584472	-0.377978
C21	C	-3.942865	-0.166837	-0.620915
C22	C	-4.006312	-0.165757	-0.764441
C23	C	-3.851192	-0.158486	-0.841588
C24	C	-4.039804	-0.266417	-0.947581
C25	C	-3.930778	-0.055914	-0.914189
C26	C	-4.194134	-0.273790	-0.868557
C27	C	-4.085028	-0.063191	-0.835142
C28	C	-4.273777	-0.171154	-0.941105
C29	C	-4.204343	0.061180	-0.389257
C30	C	-4.121125	0.202462	-0.390342
C31	C	-4.202781	-0.162738	-0.161797
C32	C	-4.118571	-0.163812	-0.018269
H33	H	-3.599140	-0.741707	-0.280676
Cl34	Cl	-4.113387	0.069464	-0.759502
H35	H	-4.453054	-0.176535	-0.984349
Cl36	Cl	-3.581133	-0.539501	-0.519491
H37	H	-4.021349	-0.352334	-0.996532
H38	H	-4.304880	-0.365971	-0.848015
H39	H	-3.672028	-0.153274	-0.798140
H40	H	-4.343155	-0.556108	-0.403995
Cl41	Cl	-3.759838	0.086255	-0.946172
H42	H	-3.492152	-0.531647	-0.284626
Cl43	Cl	-4.544156	-0.829213	-0.404797
H44	H	-3.676309	-0.764303	-0.464590
