data_functionalizedCrystal
_audit_creation_method	'MofGen! by Chris Wilmer'
_symmetry_space_group_name_H-M	'P1'
_symmetry_Int_Tables_number	1
_symmetry_cell_setting	triclinic
loop_
_symmetry_equiv_pos_as_xyz
  x,y,z
_cell_length_a	16.625547
_cell_length_b	21.295417
_cell_length_c	21.295411
_cell_angle_alpha	89.971282
_cell_angle_beta	89.979339
_cell_angle_gamma	90.030443
loop_
_atom_site_label
_atom_site_type_symbol
_atom_site_fract_x
_atom_site_fract_y
_atom_site_fract_z
Zn1	Zn	1.232602	-0.250638	-0.355982
Zn2	Zn	1.565936	0.082695	-0.022649
Zn3	Zn	1.899269	0.416029	0.310684
Zn4	Zn	1.232496	-0.355903	-0.250708
Zn5	Zn	1.565830	-0.022570	0.082626
Zn6	Zn	1.899163	0.310764	0.415959
Zn7	Zn	1.097774	-0.250651	-0.250719
Zn8	Zn	1.431107	0.082682	0.082614
Zn9	Zn	1.764441	0.416015	0.415947
Zn10	Zn	1.097716	-0.355873	-0.355932
Zn11	Zn	1.431049	-0.022540	-0.022598
Zn12	Zn	1.764382	0.310793	0.310735
O13	O	1.165147	-0.303266	-0.303335
O14	O	1.498480	0.030067	0.029998
O15	O	1.831814	0.363400	0.363331
O16	O	1.345421	-0.264608	-0.342034
O17	O	1.678754	0.068725	-0.008700
O18	O	2.012087	0.402058	0.324633
O19	O	1.214605	-0.341959	-0.162620
O20	O	1.547939	-0.008626	0.170714
O21	O	1.881272	0.324708	0.504047
O22	O	1.115728	-0.162560	-0.264709
O23	O	1.449061	0.170773	0.068624
O24	O	1.782395	0.504106	0.401958
O25	O	1.345343	-0.341946	-0.264689
O26	O	1.678676	-0.008613	0.068645
O27	O	2.012010	0.324721	0.401978
O28	O	1.214786	-0.162550	-0.342045
O29	O	1.548119	0.170783	-0.008712
O30	O	1.881452	0.504116	0.324622
O31	O	1.115625	-0.264631	-0.162628
O32	O	1.448959	0.068702	0.170705
O33	O	1.782292	0.402035	0.504038
O34	O	0.984934	-0.264602	-0.264660
O35	O	1.318267	0.068731	0.068673
O36	O	1.651600	0.402064	0.402007
O37	O	1.115629	-0.341896	-0.444028
O38	O	1.448962	-0.008562	-0.110694
O39	O	1.782295	0.324771	0.222639
O40	O	0.984891	-0.341908	-0.341959
O41	O	1.318224	-0.008575	-0.008625
O42	O	1.651558	0.324758	0.324708
O43	O	1.214729	-0.264580	-0.444065
O44	O	1.548063	0.068754	-0.110732
O45	O	1.881396	0.402087	0.222602
O46	O	1.214549	-0.443988	-0.264640
O47	O	1.547882	-0.110655	0.068694
O48	O	1.881215	0.222678	0.402027
O49	O	1.115526	-0.443967	-0.341947
O50	O	1.448859	-0.110633	-0.008614
O51	O	1.782193	0.222700	0.324719
C52	C	0.955656	-0.303254	-0.303305
C53	C	1.288990	0.030079	0.030028
C54	C	1.622323	0.363413	0.363361
C55	C	0.866035	-0.303264	-0.303308
C56	C	1.199368	0.030069	0.030026
C57	C	1.532702	0.363403	0.363359
C58	C	0.793253	-0.303265	-0.303315
C59	C	1.126586	0.030068	0.030018
C60	C	1.459919	0.363401	0.363351
C61	C	0.701944	-0.303269	-0.303331
C62	C	1.035278	0.030065	0.030002
C63	C	1.368611	0.363398	0.363335
C64	C	0.629168	-0.303274	-0.303347
C65	C	0.962501	0.030059	0.029986
C66	C	1.295834	0.363392	0.363319
C67	C	0.537854	-0.303279	-0.303362
C68	C	0.871187	0.030055	0.029971
C69	C	1.204520	0.363388	0.363304
C70	C	1.165041	-0.466818	-0.303300
C71	C	1.498375	-0.133485	0.030033
C72	C	1.831708	0.199849	0.363366
C73	C	1.165070	-0.536786	-0.303306
C74	C	1.498403	-0.203453	0.030027
C75	C	1.831737	0.129881	0.363360
C76	C	1.216677	-0.569643	-0.263094
C77	C	1.550010	-0.236310	0.070240
C78	C	1.883344	0.097023	0.403573
C79	C	1.216715	-0.635386	-0.263108
C80	C	1.550048	-0.302052	0.070225
C81	C	1.883381	0.031281	0.403559
C82	C	1.165131	-0.668269	-0.303328
C83	C	1.498464	-0.334935	0.030005
C84	C	1.831798	-0.001602	0.363338
C85	C	1.113520	-0.635404	-0.343549
C86	C	1.446854	-0.302070	-0.010215
C87	C	1.780187	0.031263	0.323118
C88	C	1.113490	-0.569662	-0.343538
C89	C	1.446823	-0.236329	-0.010205
C90	C	1.780157	0.097004	0.323129
N91	N	1.094596	-0.771535	-0.308117
N92	N	1.427929	-0.438201	0.025216
N93	N	1.761262	-0.104868	0.358550
N94	N	1.094627	-0.833986	-0.308124
N95	N	1.427960	-0.500653	0.025210
N96	N	1.761294	-0.167319	0.358543
C97	C	1.165221	-0.866343	-0.303364
C98	C	1.498555	-0.533010	0.029969
C99	C	1.831888	-0.199677	0.363302
N100	N	1.235785	-0.833890	-0.298586
N101	N	1.569118	-0.500557	0.034748
N102	N	1.902451	-0.167223	0.368081
N103	N	1.235753	-0.771433	-0.298576
N104	N	1.569086	-0.438099	0.034758
N105	N	1.902419	-0.104766	0.368091
C106	C	1.165159	-0.739554	-0.303345
C107	C	1.498492	-0.406221	0.029989
C108	C	1.831826	-0.072887	0.363322
C109	C	1.216874	-0.970486	-0.263165
C110	C	1.550207	-0.637153	0.070169
C111	C	1.883540	-0.303819	0.403502
C112	C	1.216913	-1.036230	-0.263183
C113	C	1.550246	-0.702896	0.070150
C114	C	1.883580	-0.369563	0.403483
C115	C	1.113711	-1.036246	-0.343621
C116	C	1.447045	-0.702913	-0.010288
C117	C	1.780378	-0.369580	0.323046
C118	C	1.113680	-0.970504	-0.343606
C119	C	1.447013	-0.637170	-0.010272
C120	C	1.780346	-0.303837	0.323061
C121	C	1.165260	-0.937628	-0.303374
C122	C	1.498593	-0.604294	0.029959
C123	C	1.831926	-0.270961	0.363292
C124	C	1.375456	-0.303279	-0.303365
C125	C	1.708789	0.030054	0.029968
C126	C	2.042123	0.363388	0.363301
C127	C	1.465077	-0.303285	-0.303378
C128	C	1.798410	0.030049	0.029955
C129	C	2.131744	0.363382	0.363288
C130	C	1.165184	-0.303233	-0.467526
C131	C	1.498518	0.030101	-0.134192
C132	C	1.831851	0.363434	0.199141
C133	C	1.165200	-0.303219	-0.537494
C134	C	1.498533	0.030115	-0.204160
C135	C	1.831867	0.363448	0.129173
C136	C	1.165275	-0.139076	-0.303384
C137	C	1.498608	0.194257	0.029949
C138	C	1.831942	0.527591	0.363283
C139	C	1.165330	-0.069108	-0.303405
C140	C	1.498663	0.264225	0.029929
C141	C	1.831996	0.597559	0.363262
C142	C	1.216829	-0.343353	-1.036948
C143	C	1.550162	-0.010019	-0.703615
C144	C	1.883496	0.323314	-0.370281
C145	C	1.216814	-0.343373	-0.971205
C146	C	1.550148	-0.010039	-0.637872
C147	C	1.883481	0.323294	-0.304539
C148	C	1.165276	-0.303120	-0.938333
C149	C	1.498610	0.030213	-0.605000
C150	C	1.831943	0.363546	-0.271667
C151	C	1.113734	-0.262856	-0.971209
C152	C	1.447068	0.070477	-0.637876
C153	C	1.780401	0.403810	-0.304543
C154	C	1.113745	-0.262842	-1.036951
C155	C	1.447078	0.070492	-0.703617
C156	C	1.780411	0.403825	-0.370284
N157	N	1.159117	-0.248041	-0.835128
N158	N	1.492451	0.085292	-0.501794
N159	N	1.825784	0.418626	-0.168461
N160	N	1.159112	-0.248057	-0.772676
N161	N	1.492446	0.085277	-0.439343
N162	N	1.825779	0.418610	-0.106010
C163	C	1.165241	-0.303163	-0.740259
C164	C	1.498574	0.030171	-0.406925
C165	C	1.831908	0.363504	-0.073592
N166	N	1.171390	-0.358254	-0.772652
N167	N	1.504724	-0.024921	-0.439318
N168	N	1.838057	0.308413	-0.105985
N169	N	1.171400	-0.358238	-0.835109
N170	N	1.504733	-0.024904	-0.501775
N171	N	1.838066	0.308429	-0.168442
C172	C	1.165259	-0.303132	-0.867048
C173	C	1.498592	0.030201	-0.533715
C174	C	1.831926	0.363535	-0.200381
C175	C	1.216760	-0.343449	-0.636105
C176	C	1.550093	-0.010116	-0.302772
C177	C	1.883427	0.323217	0.030562
C178	C	1.216740	-0.343470	-0.570361
C179	C	1.550073	-0.010137	-0.237028
C180	C	1.883406	0.323196	0.096306
C181	C	1.113664	-0.262949	-0.570366
C182	C	1.446997	0.070385	-0.237033
C183	C	1.780330	0.403718	0.096300
C184	C	1.113680	-0.262933	-0.636109
C185	C	1.447013	0.070400	-0.302776
C186	C	1.780346	0.403734	0.030558
C187	C	1.165232	-0.303182	-0.668974
C188	C	1.498565	0.030151	-0.335641
C189	C	1.831899	0.363484	-0.002308
C190	C	1.165156	-0.303254	-0.139784
C191	C	1.498490	0.030079	0.193550
C192	C	1.831823	0.363412	0.526883
C193	C	1.165297	-0.303091	-0.069816
C194	C	1.498630	0.030242	0.263517
C195	C	1.831964	0.363575	0.596851
H196	H	1.258678	-0.542877	-0.230336
H197	H	1.592012	-0.209544	0.102997
H198	H	1.925345	0.123789	0.436330
H199	H	1.071771	-0.230083	-0.944441
H200	H	1.405104	0.103250	-0.611107
H201	H	1.738437	0.436583	-0.277774
H202	H	1.071698	-0.230176	-0.543603
H203	H	1.405032	0.103158	-0.210269
H204	H	1.738365	0.436491	0.123064
H205	H	1.071715	-1.063019	-0.376372
H206	H	1.405048	-0.729685	-0.043039
H207	H	1.738381	-0.396352	0.290295
F208	F	1.271768	-0.935494	-0.220347
F209	F	1.605102	-0.602161	0.112986
F210	F	1.938435	-0.268828	0.446320
F211	F	1.271643	-0.670362	-0.220306
F212	F	1.604977	-0.337028	0.113028
F213	F	1.938310	-0.003695	0.446361
H214	H	1.071653	-0.943750	-0.376348
H215	H	1.404986	-0.610416	-0.043015
H216	H	1.738319	-0.277083	0.290319
F217	F	1.271625	-0.386286	-0.671085
F218	F	1.604958	-0.052953	-0.337751
F219	F	1.938291	0.280380	-0.004418
H220	H	1.071522	-0.662181	-0.376298
H221	H	1.404856	-0.328848	-0.042964
H222	H	1.738189	0.004486	0.290369
F223	F	1.271663	-0.386227	-0.936218
F224	F	1.604996	-0.052893	-0.602884
F225	F	1.938330	0.280440	-0.269551
F226	F	1.058823	-0.220087	-0.671091
F227	F	1.392156	0.113246	-0.337758
F228	F	1.725490	0.446579	-0.004424
H229	H	1.258805	-0.376129	-1.063703
H230	H	1.592138	-0.042795	-0.730369
H231	H	1.925471	0.290538	-0.397036
H232	H	1.071465	-0.542909	-0.376285
H233	H	1.404798	-0.209576	-0.042951
H234	H	1.738131	0.123757	0.290382
F235	F	1.271849	-1.071198	-0.220385
F236	F	1.605182	-0.737865	0.112948
F237	F	1.938515	-0.404532	0.446282
F238	F	1.271587	-0.386327	-0.535381
F239	F	1.604920	-0.052994	-0.202047
F240	F	1.938253	0.280339	0.131286
F241	F	1.058890	-0.219992	-1.071932
F242	F	1.392224	0.113342	-0.738599
F243	F	1.725557	0.446675	-0.405266
