data_functionalizedCrystal
_audit_creation_method	'MofGen! by Chris Wilmer'
_symmetry_space_group_name_H-M	'P1'
_symmetry_Int_Tables_number	1
_symmetry_cell_setting	triclinic
loop_
_symmetry_equiv_pos_as_xyz
  x,y,z
_cell_length_a	14.519709
_cell_length_b	17.666332
_cell_length_c	14.519709
_cell_angle_alpha	90.007412
_cell_angle_beta	83.680145
_cell_angle_gamma	90.003734
loop_
_atom_site_label
_atom_site_type_symbol
_atom_site_fract_x
_atom_site_fract_y
_atom_site_fract_z
O1	O	1.223874	0.062851	0.120893
O2	O	1.557207	0.396185	0.454226
O3	O	1.890540	0.729518	0.787559
O4	O	0.955397	0.062875	0.135129
O5	O	1.288730	0.396208	0.468463
O6	O	1.622064	0.729541	0.801796
O7	O	1.096754	0.062856	-0.006227
O8	O	1.430087	0.396189	0.327106
O9	O	1.763420	0.729522	0.660439
O10	O	1.082517	0.062871	0.262250
O11	O	1.415850	0.396204	0.595583
O12	O	1.749184	0.729537	0.928916
O13	O	1.096729	-0.063041	-0.006235
O14	O	1.430062	0.270292	0.327098
O15	O	1.763395	0.603626	0.660432
O16	O	0.955372	-0.063022	0.135122
O17	O	1.288705	0.270311	0.468455
O18	O	1.622039	0.603645	0.801788
O19	O	1.223849	-0.063045	0.120885
O20	O	1.557182	0.270288	0.454219
O21	O	1.890516	0.603621	0.787552
Cu22	Cu	1.089608	-0.074529	0.128003
Cu23	Cu	1.422942	0.258804	0.461336
Cu24	Cu	1.756275	0.592138	0.794669
Cu25	Cu	1.089638	0.074358	0.128012
Cu26	Cu	1.422971	0.407692	0.461345
Cu27	Cu	1.756304	0.741025	0.794678
O28	O	1.082492	-0.063026	0.262242
O29	O	1.415826	0.270307	0.595575
O30	O	1.749159	0.603640	0.928909
C31	C	0.921025	-0.000071	0.134462
C32	C	1.254358	0.333263	0.467795
C33	C	1.587691	0.666596	0.801129
C34	C	0.818643	-0.000062	0.132474
C35	C	1.151977	0.333271	0.465807
C36	C	1.485310	0.666605	0.799141
N37	N	1.089594	-0.179248	0.127996
N38	N	1.422928	0.154085	0.461329
N39	N	1.756261	0.487418	0.794663
C40	C	0.443748	-0.000097	0.125154
C41	C	0.777081	0.333236	0.458488
C42	C	1.110414	0.666570	0.791821
C43	C	0.548056	-0.000087	0.127187
C44	C	0.881389	0.333246	0.460520
C45	C	1.214722	0.666580	0.793854
C46	C	0.631192	-0.000079	0.128814
C47	C	0.964526	0.333255	0.462147
C48	C	1.297859	0.666588	0.795481
C49	C	0.735507	-0.000070	0.130847
C50	C	1.068840	0.333263	0.464180
C51	C	1.402173	0.666596	0.797514
C52	C	1.152207	-0.218867	0.065434
C53	C	1.485541	0.114467	0.398767
C54	C	1.818874	0.447800	0.732101
C55	C	1.152213	-0.298114	0.065429
C56	C	1.485546	0.035219	0.398763
C57	C	1.818879	0.368552	0.732096
C58	C	1.089614	-0.337741	0.128003
C59	C	1.422947	-0.004407	0.461336
C60	C	1.756280	0.328926	0.794670
C61	C	1.026989	-0.298113	0.190570
C62	C	1.360322	0.035220	0.523903
C63	C	1.693656	0.368554	0.857236
C64	C	1.026979	-0.218867	0.190566
C65	C	1.360312	0.114467	0.523900
C66	C	1.693646	0.447800	0.857233
N67	N	1.078009	-0.462154	0.209587
N68	N	1.411342	-0.128821	0.542920
N69	N	1.744676	0.204513	0.876253
N70	N	1.078024	-0.537435	0.209587
N71	N	1.411357	-0.204101	0.542920
N72	N	1.744691	0.129232	0.876254
C73	C	1.089638	-0.576505	0.128016
C74	C	1.422971	-0.243171	0.461349
C75	C	1.756305	0.090162	0.794683
N76	N	1.101255	-0.537450	0.046442
N77	N	1.434588	-0.204117	0.379775
N78	N	1.767922	0.129216	0.713108
N79	N	1.101245	-0.462163	0.046442
N80	N	1.434578	-0.128830	0.379775
N81	N	1.767912	0.204504	0.713109
C82	C	1.089617	-0.423670	0.128013
C83	C	1.422950	-0.090336	0.461347
C84	C	1.756284	0.242997	0.794680
C85	C	1.152261	-0.702052	0.065444
C86	C	1.485594	-0.368719	0.398777
C87	C	1.818927	-0.035385	0.732111
C88	C	1.152259	-0.781301	0.065438
C89	C	1.485593	-0.447968	0.398772
C90	C	1.818926	-0.114635	0.732105
C91	C	1.027040	-0.781298	0.190587
C92	C	1.360373	-0.447965	0.523920
C93	C	1.693707	-0.114632	0.857253
C94	C	1.027037	-0.702051	0.190584
C95	C	1.360370	-0.368717	0.523918
C96	C	1.693703	-0.035384	0.857251
C97	C	1.089652	-0.662432	0.128014
C98	C	1.422985	-0.329099	0.461347
C99	C	1.756318	0.004234	0.794681
C100	C	1.258221	-0.000098	0.121553
C101	C	1.591554	0.333235	0.454886
C102	C	1.924888	0.666568	0.788219
C103	C	1.360602	-0.000102	0.123541
C104	C	1.693936	0.333231	0.456874
C105	C	2.027269	0.666565	0.790207
C106	C	1.096078	-0.000093	-0.040591
C107	C	1.429411	0.333241	0.292742
C108	C	1.762744	0.666574	0.626076
C109	C	1.094090	-0.000093	-0.142972
C110	C	1.427423	0.333240	0.190361
C111	C	1.760756	0.666574	0.523694
N112	N	1.089659	0.179078	0.128011
N113	N	1.422992	0.512411	0.461345
N114	N	1.756326	0.845745	0.794678
C115	C	1.086770	-0.000073	-0.517868
C116	C	1.420103	0.333261	-0.184535
C117	C	1.753437	0.666594	0.148799
C118	C	1.088803	-0.000079	-0.413560
C119	C	1.422136	0.333255	-0.080227
C120	C	1.755469	0.666588	0.253107
C121	C	1.090430	-0.000084	-0.330423
C122	C	1.423763	0.333250	0.002910
C123	C	1.757096	0.666583	0.336243
C124	C	1.092463	-0.000088	-0.226109
C125	C	1.425796	0.333245	0.107224
C126	C	1.759129	0.666579	0.440558
C127	C	1.083168	-0.000076	0.296605
C128	C	1.416501	0.333257	0.629939
C129	C	1.749835	0.666591	0.963272
C130	C	1.085156	-0.000071	0.398987
C131	C	1.418490	0.333262	0.732320
C132	C	1.751823	0.666596	1.065653
H133	H	1.203190	-0.186612	0.014483
H134	H	1.536523	0.146722	0.347817
H135	H	1.869857	0.480055	0.681150
H136	H	1.203243	-0.669794	0.014492
H137	H	1.536576	-0.336460	0.347826
H138	H	1.869910	-0.003127	0.681159
H139	H	1.203244	-0.813559	0.014488
H140	H	1.536577	-0.480226	0.347821
H141	H	1.869911	-0.146892	0.681154
H142	H	1.203202	-0.330377	0.014482
H143	H	1.536535	0.002956	0.347815
H144	H	1.869868	0.336289	0.681149
H145	H	0.976055	-0.669791	0.241532
H146	H	1.309388	-0.336458	0.574865
H147	H	1.642721	-0.003125	0.908199
H148	H	0.976067	-0.813561	0.241532
H149	H	1.309401	-0.480228	0.574865
H150	H	1.642734	-0.146895	0.908198
H151	H	0.976018	-0.330381	0.241517
H152	H	1.309352	0.002953	0.574850
H153	H	1.642685	0.336286	0.908183
H154	H	0.975991	-0.186609	0.241513
H155	H	1.309324	0.146724	0.574846
H156	H	1.642657	0.480058	0.908179
