data_functionalizedCrystal
_audit_creation_method	'MofGen! by Chris Wilmer'
_symmetry_space_group_name_H-M	'P1'
_symmetry_Int_Tables_number	1
_symmetry_cell_setting	triclinic
loop_
_symmetry_equiv_pos_as_xyz
  x,y,z
_cell_length_a	12.594516
_cell_length_b	12.594517
_cell_length_c	16.120297
_cell_angle_alpha	87.126278
_cell_angle_beta	92.876793
_cell_angle_gamma	89.986890
loop_
_atom_site_label
_atom_site_type_symbol
_atom_site_fract_x
_atom_site_fract_y
_atom_site_fract_z
Zn1	Zn	-0.454435	-1.596716	-0.471517
Zn2	Zn	0.045565	-1.096716	0.028483
Zn3	Zn	-0.623404	-1.605628	-0.332117
Zn4	Zn	-0.123404	-1.105628	0.167883
Zn5	Zn	-0.445424	-1.427748	-0.332109
Zn6	Zn	0.054576	-0.927748	0.167891
Zn7	Zn	-0.632353	-1.418698	-0.471471
Zn8	Zn	-0.132353	-0.918698	0.028529
O9	O	-0.538904	-1.512197	-0.401804
O10	O	-0.038904	-1.012197	0.098196
O11	O	-0.476875	-1.746842	-0.453048
O12	O	0.023125	-1.246842	0.046952
O13	O	-0.592278	-1.589548	-0.215453
O14	O	-0.092278	-1.089548	0.284547
O15	O	-0.297674	-1.450219	-0.350618
O16	O	0.202326	-0.950219	0.149382
O17	O	-0.601016	-1.753390	-0.350632
O18	O	-0.101016	-1.253390	0.149368
O19	O	-0.304295	-1.574359	-0.453040
O20	O	0.195705	-1.074359	0.046960
O21	O	-0.461517	-1.458861	-0.215448
O22	O	0.038483	-0.958861	0.284552
O23	O	-0.470194	-1.277603	-0.350573
O24	O	0.029806	-0.777603	0.149427
O25	O	-0.616268	-1.434796	-0.588140
O26	O	-0.116268	-0.934796	-0.088140
O27	O	-0.607530	-1.270954	-0.452962
O28	O	-0.107530	-0.770954	0.047038
O29	O	-0.485552	-1.565585	-0.588174
O30	O	0.014448	-1.065585	-0.088174
O31	O	-0.773536	-1.580773	-0.350587
O32	O	-0.273536	-1.080773	0.149413
O33	O	-0.780111	-1.443437	-0.452970
O34	O	-0.280111	-0.943437	0.047030
C35	C	-0.538856	-1.235659	-0.401762
C36	C	-0.038856	-0.735659	0.098238
C37	C	-0.538863	-1.117354	-0.401764
C38	C	-0.038863	-0.617354	0.098236
C39	C	-0.464069	-1.051679	-0.346177
C40	C	0.035931	-0.551679	0.153823
C41	C	-0.559822	-0.982193	-0.325669
C42	C	-0.059822	-0.482193	0.174331
C43	C	-0.443140	-0.976041	-0.422274
C44	C	0.056860	-0.476041	0.077726
C45	C	-0.634664	-1.049428	-0.381216
C46	C	-0.134664	-0.549428	0.118784
C47	C	-0.517919	-1.043280	-0.477857
C48	C	-0.017919	-0.543280	0.022143
C49	C	-0.613740	-0.973824	-0.457377
C50	C	-0.113740	-0.473824	0.042623
C51	C	-0.815444	-1.512118	-0.401792
C52	C	-0.315444	-1.012118	0.098208
C53	C	-0.933751	-1.512180	-0.401815
C54	C	-0.433751	-1.012180	0.098185
C55	C	-1.077380	-1.437542	-0.457473
C56	C	-0.577380	-0.937542	0.042527
C57	C	-1.007805	-1.533252	-0.477933
C58	C	-0.507805	-1.033252	0.022067
C59	C	-1.001757	-1.416477	-0.381392
C60	C	-0.501757	-0.916477	0.118608
C61	C	-1.074965	-1.608110	-0.422346
C62	C	-0.574965	-1.108110	0.077654
C63	C	-1.068922	-1.491272	-0.325770
C64	C	-0.568922	-0.991272	0.174230
C65	C	-0.999376	-1.587051	-0.346201
C66	C	-0.499376	-1.087051	0.153799
C67	C	-0.261285	-1.512305	-0.401834
C68	C	0.238715	-1.012305	0.098166
C69	C	-0.142980	-1.512351	-0.401846
C70	C	0.357020	-1.012351	0.098154
C71	C	-0.552913	-1.498187	-0.619252
C72	C	-0.052913	-0.998187	-0.119252
C73	C	-0.558884	-1.492216	-0.711916
C74	C	-0.058884	-0.992216	-0.211916
C75	C	-0.538930	-0.789816	-0.401831
C76	C	-0.038930	-0.289816	0.098169
C77	C	-0.538884	-0.908124	-0.401803
C78	C	-0.038884	-0.408124	0.098197
C79	C	-0.569760	-1.481276	-0.881573
C80	C	-0.069760	-0.981276	-0.381573
C81	C	-0.507729	-1.543328	-0.922886
C82	C	-0.007729	-1.043328	-0.422886
C83	C	-0.513780	-1.537241	-1.017289
C84	C	-0.013780	-1.037241	-0.517289
C85	C	-0.563710	-1.487362	-0.787161
C86	C	-0.063710	-0.987362	-0.287161
C87	C	-0.524872	-1.526215	-0.185201
C88	C	-0.024872	-1.026215	0.314799
C89	C	-0.518602	-1.532392	-0.092538
C90	C	-0.018602	-1.032392	0.407462
H91	H	-0.577554	-0.955199	-0.261335
H92	H	-0.077554	-0.455199	0.238665
H93	H	-0.627407	-1.423586	-0.917101
H94	H	-0.127407	-0.923586	-0.417101
H95	H	-0.715644	-1.081493	-0.363814
H96	H	-0.215644	-0.581493	0.136186
O97	O	-0.380375	-1.096833	-0.283847
O98	O	0.119625	-0.596833	0.216153
H99	H	-0.398035	-1.072507	-0.220746
H100	H	0.101965	-0.572507	0.279254
H101	H	-0.965440	-1.650310	-0.299146
H102	H	-0.465440	-1.150310	0.200854
O103	O	-0.697618	-0.928926	-0.519661
O104	O	-0.197618	-0.428926	-0.019661
H105	H	-0.776959	-0.958516	-0.502454
H106	H	-0.276959	-0.458516	-0.002454
O107	O	-0.494410	-1.079116	-0.563041
O108	O	0.005590	-0.579116	-0.063041
H109	H	-0.481920	-1.008481	-0.605381
H110	H	0.018080	-0.508481	-0.105381
H111	H	-0.362189	-0.943797	-0.439576
H112	H	0.137811	-0.443797	0.060424
O113	O	-1.122607	-1.353934	-0.519841
O114	O	-0.622607	-0.853934	-0.019841
H115	H	-1.098264	-1.371623	-0.582932
H116	H	-0.598264	-0.871623	-0.082932
O117	O	-0.972006	-1.556780	-0.563129
O118	O	-0.472006	-1.056780	-0.063129
H119	H	-1.003333	-1.494645	-0.609207
H120	H	-0.503333	-0.994645	-0.109207
O121	O	-1.117325	-1.715438	-0.445358
O122	O	-0.617325	-1.215438	0.054642
H123	H	-1.205442	-1.714652	-0.445225
H124	H	-0.705442	-1.214652	0.054775
O125	O	-1.104739	-1.467713	-0.240591
O126	O	-0.604739	-0.967713	0.259409
H127	H	-1.075446	-1.388119	-0.223763
H128	H	-0.575446	-0.888119	0.276237
H129	H	-0.450076	-1.601023	-0.887356
H130	H	0.049924	-1.101023	-0.387356
H131	H	-0.969640	-1.335470	-0.364106
H132	H	-0.469640	-0.835470	0.135894
