data_functionalizedCrystal
_audit_creation_method	'MofGen! by Chris Wilmer'
_symmetry_space_group_name_H-M	'P1'
_symmetry_Int_Tables_number	1
_symmetry_cell_setting	triclinic
loop_
_symmetry_equiv_pos_as_xyz
  x,y,z
_cell_length_a	19.805407
_cell_length_b	19.805404
_cell_length_c	11.169409
_cell_angle_alpha	90.035702
_cell_angle_beta	89.975883
_cell_angle_gamma	89.969238
loop_
_atom_site_label
_atom_site_type_symbol
_atom_site_fract_x
_atom_site_fract_y
_atom_site_fract_z
Zn1	Zn	1.034746	0.269408	-0.678652
Zn2	Zn	1.034643	0.382618	-0.477957
Zn3	Zn	0.921551	0.269448	-0.477971
Zn4	Zn	0.921515	0.382561	-0.678587
O5	O	0.978114	0.326009	-0.578292
O6	O	1.129449	0.284433	-0.652051
O7	O	1.019613	0.367646	-0.310009
O8	O	0.936625	0.174726	-0.504625
O9	O	1.129373	0.367607	-0.504601
O10	O	1.019788	0.174697	-0.652065
O11	O	0.936525	0.284500	-0.310020
O12	O	0.826830	0.284445	-0.504562
O13	O	0.936563	0.367511	-0.846545
O14	O	0.826803	0.367549	-0.651954
O15	O	1.019753	0.284378	-0.846593
O16	O	1.019578	0.477327	-0.504538
O17	O	0.936464	0.477285	-0.651940
C18	C	0.802258	0.325996	-0.578253
C19	C	0.727026	0.326006	-0.578265
C20	C	0.691685	0.369344	-0.654887
C21	C	0.620997	0.369345	-0.654904
C22	C	0.585650	0.326012	-0.578292
C23	C	0.620995	0.282670	-0.501666
C24	C	0.691682	0.282666	-0.501656
C25	C	0.335922	0.282685	-0.501706
C26	C	0.265230	0.282694	-0.501719
C27	C	0.265237	0.369364	-0.654954
C28	C	0.335924	0.369360	-0.654944
C29	C	0.371263	0.326016	-0.578323
C30	C	0.447911	0.326014	-0.578307
C31	C	0.509003	0.326016	-0.578301
C32	C	0.978024	0.501865	-0.578256
C33	C	0.978048	0.577097	-0.578281
C34	C	1.021543	1.038887	-0.501751
C35	C	1.021513	0.968198	-0.501723
C36	C	0.978190	0.932858	-0.578392
C37	C	0.934890	0.968210	-0.655086
C38	C	0.934917	1.038897	-0.655106
C39	C	0.934778	0.683137	-0.655002
C40	C	0.934755	0.612445	-0.654978
C41	C	1.021373	0.612438	-0.501619
C42	C	1.021401	0.683125	-0.501640
C43	C	0.978099	0.718471	-0.578328
C44	C	0.978131	0.795119	-0.578356
C45	C	0.978161	0.856211	-0.578372
C46	C	1.154656	0.326022	-0.578332
C47	C	1.229888	0.326028	-0.578348
C48	C	0.978166	0.325933	-0.891335
C49	C	0.978188	0.325901	-1.024735
C50	C	0.978217	1.149466	-0.578369
C51	C	0.978248	1.074234	-0.578441
C52	C	0.978101	0.326035	-0.266467
C53	C	0.978210	0.325876	-0.133068
H54	H	0.592226	0.404635	-0.717297
C55	C	0.730556	0.234993	-0.417363
N56	N	0.759835	0.199083	-0.353872
C57	C	0.226357	0.417038	-0.739249
N58	N	0.197075	0.452946	-0.802738
C59	C	0.887100	0.573572	-0.739333
N60	N	0.851210	0.544293	-0.802871
C61	C	1.069127	0.929320	-0.417334
N62	N	1.104987	0.900037	-0.353757
H63	H	0.899514	0.711907	-0.717438
C64	C	0.226350	0.235016	-0.417444
N65	N	0.197065	0.199107	-0.353974
H66	H	0.364687	0.247396	-0.439307
H67	H	0.592210	0.247384	-0.439292
C68	C	0.730560	0.417015	-0.739168
N69	N	0.759839	0.452920	-0.802655
C70	C	0.887290	1.077779	-0.739474
N71	N	0.851415	1.107063	-0.803020
H72	H	1.056825	1.067656	-0.439325
H73	H	1.056631	0.583652	-0.439172
C74	C	0.374801	0.417030	-0.739222
N75	N	0.404083	0.452935	-0.802705
C76	C	1.069057	0.721995	-0.417295
N77	N	1.104950	0.751271	-0.353759
C78	C	0.887235	0.929334	-0.739423
N79	N	0.851342	0.900052	-0.802952
