data_functionalizedCrystal
_audit_creation_method	'MofGen! by Chris Wilmer'
_symmetry_space_group_name_H-M	'P1'
_symmetry_Int_Tables_number	1
_symmetry_cell_setting	triclinic
loop_
_symmetry_equiv_pos_as_xyz
  x,y,z
_cell_length_a	12.837943
_cell_length_b	8.559649
_cell_length_c	7.088929
_cell_angle_alpha	84.661815
_cell_angle_beta	83.129233
_cell_angle_gamma	97.696198
loop_
_atom_site_label
_atom_site_type_symbol
_atom_site_fract_x
_atom_site_fract_y
_atom_site_fract_z
O1	O	1.330972	-0.425021	0.158937
O2	O	1.030780	-0.404748	0.158949
O3	O	1.207323	-0.186309	0.158940
O4	O	1.154429	-0.643460	0.158946
O5	O	1.230935	-0.157069	-0.159036
O6	O	1.054392	-0.375508	-0.159027
O7	O	1.354584	-0.395780	-0.159039
Cu8	Cu	1.206644	-0.382974	-0.188067
Cu9	Cu	1.178720	-0.417555	0.187977
O10	O	1.178041	-0.614219	-0.159030
C11	C	1.004510	-0.383279	-0.000038
C12	C	0.891059	-0.362854	-0.000033
C13	C	1.223137	-0.112770	-0.000045
C14	C	1.235068	0.062793	-0.000035
N15	N	1.226292	-0.358652	-0.452556
C16	C	0.630553	-0.608412	-0.000057
C17	C	0.523954	-0.589227	-0.000054
C18	C	0.571261	-0.305300	-0.000037
C19	C	0.677860	-0.324485	-0.000040
C20	C	0.707501	-0.476046	-0.000047
C21	C	0.814101	-0.495230	-0.000037
C22	C	0.861407	-0.211303	-0.000034
C23	C	0.754808	-0.192119	-0.000030
C24	C	1.380853	-0.417250	-0.000049
C25	C	1.494304	-0.437676	-0.000041
C26	C	1.162226	-0.687759	-0.000041
C27	C	1.150294	-0.863323	-0.000039
N28	N	1.159081	-0.441865	0.452466
H29	H	0.838232	-0.618638	-0.000045
C30	C	1.320398	-0.242162	-0.562862
N31	N	1.391280	-0.154418	-0.645956
H32	H	0.461305	-0.697013	-0.000067
H33	H	1.068587	0.065621	-0.000042
C34	C	1.064969	-0.558360	-0.437221
N35	N	0.994083	-0.646100	-0.354131
C36	C	0.663160	-0.775128	-0.000052
N37	N	0.687717	-0.900703	-0.000050
H38	H	0.547119	-0.181892	-0.000189
H39	H	0.730661	-0.068720	-0.000047
H40	H	1.316783	0.133859	-0.000053
H41	H	0.924070	-0.103522	-0.000013
