data_functionalizedCrystal
_audit_creation_method	'MofGen! by Chris Wilmer'
_symmetry_space_group_name_H-M	'P1'
_symmetry_Int_Tables_number	1
_symmetry_cell_setting	triclinic
loop_
_symmetry_equiv_pos_as_xyz
  x,y,z
_cell_length_a	12.811438
_cell_length_b	15.944551
_cell_length_c	11.295501
_cell_angle_alpha	94.599352
_cell_angle_beta	99.998097
_cell_angle_gamma	83.772108
loop_
_atom_site_label
_atom_site_type_symbol
_atom_site_fract_x
_atom_site_fract_y
_atom_site_fract_z
O1	O	1.408682	0.125994	0.251143
O2	O	1.100982	0.136595	0.217919
O3	O	1.263234	0.009095	0.235428
O4	O	1.246430	0.253495	0.233635
O5	O	1.250518	-0.001117	0.036003
O6	O	1.088266	0.126383	0.018495
O7	O	1.395966	0.115783	0.051719
Cu8	Cu	1.240955	0.120151	0.016898
Cu9	Cu	1.255993	0.132227	0.252740
O10	O	1.233714	0.243283	0.034210
C11	C	1.055249	0.130582	0.113955
C12	C	0.937924	0.127869	0.101287
C13	C	0.765628	0.118480	-0.025268
C14	C	0.875865	0.121029	-0.013371
C15	C	0.889737	0.132163	0.204054
C16	C	0.779500	0.129614	0.192156
C17	C	0.717450	0.122771	0.077491
C18	C	0.607212	0.120215	0.065595
C19	C	0.621084	0.131355	0.283018
C20	C	0.731322	0.133905	0.294916
C21	C	1.256178	-0.027311	0.135640
C22	C	1.254087	-0.120576	0.135413
C23	C	1.148517	-0.336378	0.124031
C24	C	1.191271	-0.401991	0.030996
C25	C	1.250304	-0.291336	0.135014
C26	C	1.203832	-0.391906	0.227615
C27	C	1.246642	-0.456280	0.134633
C28	C	1.293080	-0.355725	0.041901
C29	C	1.305633	-0.345629	0.238607
C30	C	1.348459	-0.411225	0.145556
C31	C	1.252410	-0.196315	0.135232
C32	C	1.244543	-0.551300	0.134407
C33	C	1.441700	0.121796	0.155685
C34	C	1.559025	0.124509	0.168362
C35	C	1.240770	0.279689	0.134001
C36	C	1.242862	0.372955	0.134235
N37	N	1.230386	0.111656	-0.148980
C38	C	1.342642	0.201903	-0.386142
C39	C	1.334663	0.195477	-0.511668
C40	C	1.206455	0.092374	-0.525559
C41	C	1.214434	0.098800	-0.400033
C42	C	1.282529	0.153567	-0.330329
C43	C	1.290501	0.159997	-0.204802
C44	C	1.162300	0.056890	-0.218695
C45	C	1.154321	0.050464	-0.344221
N46	N	1.266571	0.140715	0.418619
H47	H	0.581846	0.134852	0.366693
H48	H	1.064022	-0.303832	0.114810
O49	O	0.791764	0.140511	0.406206
C50	C	0.967729	0.149422	0.520896
C51	C	0.899411	0.141923	0.394787
H52	H	1.054772	0.150584	0.511707
H53	H	0.959226	0.092992	0.573225
H54	H	0.939745	0.210308	0.571125
H55	H	0.927349	0.081071	0.344458
H56	H	0.907918	0.198396	0.342549
O57	O	1.103731	0.010026	-0.164561
C58	C	0.928286	-0.022514	-0.145510
C59	C	0.994493	0.030621	-0.206875
H60	H	0.839955	-0.005895	-0.179716
H61	H	0.945576	-0.008512	-0.043813
H62	H	0.950324	-0.092525	-0.167632
H63	H	0.972493	0.100648	-0.184848
H64	H	0.977195	0.016548	-0.308555
H65	H	1.330790	-0.339610	-0.036675
O66	O	1.133428	-0.431464	-0.073651
C67	C	0.962686	-0.426400	-0.203388
C68	C	1.028070	-0.392972	-0.084833
H69	H	0.877498	-0.395280	-0.212479
H70	H	0.962220	-0.497832	-0.202942
H71	H	0.999969	-0.410793	-0.282561
H72	H	0.990836	-0.408518	-0.005596
H73	H	1.028539	-0.321547	-0.085384
O74	O	0.705498	0.111862	-0.136736
C75	C	0.703380	0.101020	-0.351136
C76	C	0.771597	0.108534	-0.224970
H77	H	0.756795	0.098309	-0.422506
H78	H	0.641775	0.158216	-0.363268
H79	H	0.661065	0.040905	-0.361029
H80	H	0.813981	0.168615	-0.214990
H81	H	0.833138	0.051295	-0.212895
O82	O	1.449338	-0.449864	0.156178
C83	C	1.610322	-0.475362	0.070398
C84	C	1.496091	-0.431572	0.058216
H85	H	1.648163	-0.460574	-0.008778
H86	H	1.608108	-0.546618	0.070871
H87	H	1.659290	-0.451262	0.158183
H88	H	1.447057	-0.455602	-0.029563
H89	H	1.498386	-0.360320	0.057813
H90	H	1.166067	-0.408112	0.306100
O91	O	0.547083	0.113605	-0.045875
C92	C	0.544972	0.102786	-0.260273
C93	C	0.613186	0.110288	-0.134104
H94	H	0.598390	0.100084	-0.331640
H95	H	0.483369	0.159984	-0.272396
H96	H	0.502656	0.042671	-0.270182
H97	H	0.655570	0.170369	-0.124108
H98	H	0.674726	0.053047	-0.122038
H99	H	1.353948	-0.320857	0.326385
H100	H	1.345943	0.204595	-0.148050
H101	H	1.383615	0.234836	-0.557105
O102	O	1.408865	0.255119	-0.318600
C103	C	1.535124	0.356755	-0.318071
C104	C	1.460188	0.296505	-0.394701
H105	H	1.576622	0.390246	-0.379568
H106	H	1.597296	0.319043	-0.253016
H107	H	1.486865	0.405627	-0.264893
H108	H	1.508358	0.247621	-0.447954
H109	H	1.398014	0.334274	-0.459681
O110	O	1.088191	-0.002664	-0.412115
C111	C	1.019051	-0.058246	-0.611648
C112	C	1.093970	0.001968	-0.534910
H113	H	1.023714	-0.054535	-0.710941
H114	H	0.933824	-0.039107	-0.596385
H115	H	1.044209	-0.125728	-0.584410
H116	H	1.068908	0.069468	-0.562101
H117	H	1.179180	-0.017244	-0.550181
H118	H	1.151027	0.047776	-0.582332
H119	H	0.940276	0.137742	0.297409
H120	H	0.915087	0.117537	-0.097048
