data_functionalizedCrystal
_audit_creation_method	'MofGen! by Chris Wilmer'
_symmetry_space_group_name_H-M	'P1'
_symmetry_Int_Tables_number	1
_symmetry_cell_setting	triclinic
loop_
_symmetry_equiv_pos_as_xyz
  x,y,z
_cell_length_a	18.215405
_cell_length_b	18.215407
_cell_length_c	18.215399
_cell_angle_alpha	89.983176
_cell_angle_beta	89.968171
_cell_angle_gamma	90.024268
loop_
_atom_site_label
_atom_site_type_symbol
_atom_site_fract_x
_atom_site_fract_y
_atom_site_fract_z
Zn1	Zn	-0.292966	1.125056	-0.416108
Zn2	Zn	-0.042966	1.375056	-0.166108
Zn3	Zn	0.207034	1.625056	0.083892
Zn4	Zn	0.457034	1.875056	0.333892
Zn5	Zn	-0.416042	1.124973	-0.293039
Zn6	Zn	-0.166042	1.374973	-0.043039
Zn7	Zn	0.083958	1.624973	0.206961
Zn8	Zn	0.333958	1.874973	0.456961
Zn9	Zn	-0.292995	1.001995	-0.293056
Zn10	Zn	-0.042995	1.251995	-0.043056
Zn11	Zn	0.207005	1.501995	0.206944
Zn12	Zn	0.457005	1.751995	0.456944
Zn13	Zn	-0.415996	1.001956	-0.416064
Zn14	Zn	-0.165996	1.251956	-0.166064
Zn15	Zn	0.084004	1.501956	0.083936
Zn16	Zn	0.334004	1.751956	0.333936
O17	O	-0.354500	1.063495	-0.354567
O18	O	-0.104500	1.313495	-0.104567
O19	O	0.145500	1.563495	0.145433
O20	O	0.395500	1.813495	0.395433
O21	O	-0.309299	1.228029	-0.399795
O22	O	-0.059299	1.478029	-0.149795
O23	O	0.190701	1.728029	0.100205
O24	O	0.440701	1.978029	0.350205
O25	O	-0.399751	1.108641	-0.190057
O26	O	-0.149751	1.358641	0.059943
O27	O	0.100249	1.608641	0.309943
O28	O	0.350249	1.858641	0.559943
O29	O	-0.190007	1.018370	-0.309405
O30	O	0.059993	1.268370	-0.059405
O31	O	0.309993	1.518370	0.190595
O32	O	0.559993	1.768370	0.440595
O33	O	-0.399723	1.227968	-0.309376
O34	O	-0.149723	1.477968	-0.059376
O35	O	0.100277	1.727968	0.190624
O36	O	0.350277	1.977968	0.440624
O37	O	-0.189985	1.108782	-0.399811
O38	O	0.060015	1.358782	-0.149811
O39	O	0.310015	1.608782	0.100189
O40	O	0.560015	1.858782	0.350189
O41	O	-0.309349	1.018289	-0.190069
O42	O	-0.059349	1.268289	0.059931
O43	O	0.190651	1.518289	0.309931
O44	O	0.440651	1.768289	0.559931
O45	O	-0.309304	0.899005	-0.309361
O46	O	-0.059304	1.149005	-0.059361
O47	O	0.190696	1.399005	0.190639
O48	O	0.440696	1.649005	0.440639
O49	O	-0.399644	1.018304	-0.519054
O50	O	-0.149644	1.268304	-0.269054
O51	O	0.100356	1.518304	-0.019054
O52	O	0.350356	1.768304	0.230946
O53	O	-0.399672	0.898977	-0.399735
O54	O	-0.149672	1.148977	-0.149735
O55	O	0.100328	1.398977	0.100265
O56	O	0.350328	1.648977	0.350265
O57	O	-0.309254	1.108745	-0.519087
O58	O	-0.059254	1.358745	-0.269087
O59	O	0.190746	1.608745	-0.019087
O60	O	0.440746	1.858745	0.230913
O61	O	-0.519020	1.108604	-0.309333
O62	O	-0.269020	1.358604	-0.059333
O63	O	-0.019020	1.608604	0.190667
O64	O	0.230980	1.858604	0.440667
O65	O	-0.518986	1.018224	-0.399719
O66	O	-0.268986	1.268224	-0.149719
O67	O	-0.018986	1.518224	0.100281
O68	O	0.231014	1.768224	0.350281
C69	C	-0.354487	0.872289	-0.354546
C70	C	-0.104487	1.122289	-0.104546
C71	C	0.145513	1.372289	0.145454
C72	C	0.395513	1.622289	0.395454
C73	C	-0.354499	0.790490	-0.354554
C74	C	-0.104499	1.040490	-0.104554
C75	C	0.145501	1.290490	0.145446
C76	C	0.395501	1.540490	0.395446
C77	C	-0.401628	0.602300	-0.401552
C78	C	-0.151628	0.852300	-0.151552
C79	C	0.098372	1.102300	0.098448
C80	C	0.348372	1.352300	0.348448
C81	C	-0.401630	0.525442	-0.401562
C82	C	-0.151630	0.775442	-0.151562
C83	C	0.098370	1.025442	0.098438
C84	C	0.348370	1.275442	0.348438
C85	C	-0.307384	0.525441	-0.307597
C86	C	-0.057384	0.775441	-0.057597
C87	C	0.192616	1.025441	0.192403
C88	C	0.442616	1.275441	0.442403
C89	C	-0.307379	0.602299	-0.307592
C90	C	-0.057379	0.852299	-0.057592
C91	C	0.192621	1.102299	0.192408
C92	C	0.442621	1.352299	0.442408
C93	C	-0.354505	0.640726	-0.354569
C94	C	-0.104505	0.890726	-0.104569
C95	C	0.145495	1.140726	0.145431
C96	C	0.395495	1.390726	0.395431
C97	C	-0.354513	0.487010	-0.354583
C98	C	-0.104513	0.737010	-0.104583
C99	C	0.145487	0.987010	0.145417
C100	C	0.395487	1.237010	0.395417
C101	C	-0.354515	0.403676	-0.354592
C102	C	-0.104515	0.653676	-0.104592
C103	C	0.145485	0.903676	0.145408
C104	C	0.395485	1.153676	0.395408
C105	C	-0.354502	0.724065	-0.354560
C106	C	-0.104502	0.974065	-0.104560
C107	C	0.145498	1.224065	0.145440
C108	C	0.395498	1.474065	0.395440
C109	C	-0.545706	1.063421	-0.354535
C110	C	-0.295706	1.313421	-0.104535
C111	C	-0.045706	1.563421	0.145465
C112	C	0.204294	1.813421	0.395465
C113	C	-0.627505	1.063456	-0.354546
C114	C	-0.377505	1.313456	-0.104546
C115	C	-0.127505	1.563456	0.145454
C116	C	0.122495	1.813456	0.395454
C117	C	-0.892555	1.110655	-0.307582
C118	C	-0.642555	1.360655	-0.057582
C119	C	-0.392555	1.610655	0.192418
C120	C	-0.142555	1.860655	0.442418
C121	C	-0.815697	1.110624	-0.307565
C122	C	-0.565697	1.360624	-0.057565
C123	C	-0.315697	1.610624	0.192435
C124	C	-0.065697	1.860624	0.442435
C125	C	-0.815702	1.016426	-0.401602
C126	C	-0.565702	1.266426	-0.151602
C127	C	-0.315702	1.516426	0.098398
C128	C	-0.065702	1.766426	0.348398
C129	C	-0.892560	1.016453	-0.401614
C130	C	-0.642560	1.266453	-0.151614
C131	C	-0.392560	1.516453	0.098386
C132	C	-0.142560	1.766453	0.348386
C133	C	-0.930984	1.063572	-0.354605
C134	C	-0.680984	1.313572	-0.104605
C135	C	-0.430984	1.563572	0.145395
C136	C	-0.180984	1.813572	0.395395
C137	C	-0.777268	1.063514	-0.354576
C138	C	-0.527268	1.313514	-0.104576
C139	C	-0.277268	1.563514	0.145424
C140	C	-0.027268	1.813514	0.395424
C141	C	-0.693935	1.063481	-0.354558
C142	C	-0.443935	1.313481	-0.104558
C143	C	-0.193935	1.563481	0.145442
C144	C	0.056065	1.813481	0.395442
C145	C	-1.014323	1.063604	-0.354622
C146	C	-0.764323	1.313604	-0.104622
C147	C	-0.514323	1.563604	0.145378
C148	C	-0.264323	1.813604	0.395378
C149	C	-0.162547	1.063589	-0.354615
C150	C	0.087453	1.313589	-0.104615
C151	C	0.337453	1.563589	0.145385
C152	C	0.587453	1.813589	0.395385
C153	C	-0.080748	1.063630	-0.354635
C154	C	0.169252	1.313630	-0.104635
C155	C	0.419252	1.563630	0.145365
C156	C	0.669252	1.813630	0.395365
C157	C	-0.354441	1.063530	-0.546520
C158	C	-0.104441	1.313530	-0.296520
C159	C	0.145559	1.563530	-0.046520
C160	C	0.395559	1.813530	0.203480
C161	C	-0.354416	1.063544	-0.628319
C162	C	-0.104416	1.313544	-0.378319
C163	C	0.145584	1.563544	-0.128319
C164	C	0.395584	1.813544	0.121681
C165	C	-0.354513	1.255448	-0.354588
C166	C	-0.104513	1.505448	-0.104588
C167	C	0.145487	1.755448	0.145412
C168	C	0.395487	2.005448	0.395412
C169	C	-0.354518	1.337247	-0.354598
C170	C	-0.104518	1.587247	-0.104598
C171	C	0.145482	1.837247	0.145402
C172	C	0.395482	2.087247	0.395402
C173	C	-0.307311	1.016538	-0.816520
C174	C	-0.057311	1.266538	-0.566520
C175	C	0.192689	1.516538	-0.316520
C176	C	0.442689	1.766538	-0.066520
C177	C	-0.307297	1.016551	-0.893379
C178	C	-0.057297	1.266551	-0.643379
C179	C	0.192703	1.516551	-0.393379
C180	C	0.442703	1.766551	-0.143379
C181	C	-0.401432	1.110639	-0.893355
C182	C	-0.151432	1.360639	-0.643355
C183	C	0.098568	1.610639	-0.393355
C184	C	0.348568	1.860639	-0.143355
C185	C	-0.401450	1.110622	-0.816498
C186	C	-0.151450	1.360622	-0.566498
C187	C	0.098550	1.610622	-0.316498
C188	C	0.348550	1.860622	-0.066498
C189	C	-0.354386	1.063572	-0.778082
C190	C	-0.104386	1.313572	-0.528082
C191	C	0.145614	1.563572	-0.278082
C192	C	0.395614	1.813572	-0.028082
C193	C	-0.354353	1.063602	-0.931798
C194	C	-0.104353	1.313602	-0.681798
C195	C	0.145647	1.563602	-0.431798
C196	C	0.395647	1.813602	-0.181798
C197	C	-0.354337	1.063616	-1.015132
C198	C	-0.104337	1.313616	-0.765132
C199	C	0.145663	1.563616	-0.515132
C200	C	0.395663	1.813616	-0.265132
C201	C	-0.354402	1.063557	-0.694743
C202	C	-0.104402	1.313557	-0.444743
C203	C	0.145598	1.563557	-0.194743
C204	C	0.395598	1.813557	0.055257
C205	C	-0.354505	1.063503	-0.163360
C206	C	-0.104505	1.313503	0.086640
C207	C	0.145495	1.563503	0.336640
C208	C	0.395495	1.813503	0.586640
C209	C	-0.354323	1.063630	-0.081562
C210	C	-0.104323	1.313630	0.168438
C211	C	0.145677	1.563630	0.418438
C212	C	0.395677	1.813630	0.668438
H213	H	-0.439999	0.633586	-0.439806
H214	H	-0.189999	0.883586	-0.189806
H215	H	0.060001	1.133586	0.060194
H216	H	0.310001	1.383586	0.310194
Br217	Br	-0.465302	1.174488	-0.945495
Br218	Br	-0.215302	1.424488	-0.695495
Br219	Br	0.034698	1.674488	-0.445495
Br220	Br	0.284698	1.924488	-0.195495
Br221	Br	-0.243414	0.654453	-0.243831
Br222	Br	0.006586	0.904453	0.006169
Br223	Br	0.256586	1.154453	0.256169
Br224	Br	0.506586	1.404453	0.506169
Br225	Br	-0.944701	1.174599	-0.243783
Br226	Br	-0.694701	1.424599	0.006217
Br227	Br	-0.444701	1.674599	0.256217
Br228	Br	-0.194701	1.924599	0.506217
Br229	Br	-0.465583	0.473295	-0.465332
Br230	Br	-0.215583	0.723295	-0.215332
Br231	Br	0.034417	0.973295	0.034668
Br232	Br	0.284417	1.223295	0.284668
H233	H	-0.268989	0.978228	-0.785244
H234	H	-0.018989	1.228228	-0.535244
H235	H	0.231011	1.478228	-0.285244
H236	H	0.481011	1.728228	-0.035244
H237	H	-0.784410	1.148963	-0.269273
H238	H	-0.534410	1.398963	-0.019273
H239	H	-0.284410	1.648963	0.230727
H240	H	-0.034410	1.898963	0.480727
H241	H	-0.923849	0.978109	-0.439908
H242	H	-0.673849	1.228109	-0.189908
H243	H	-0.423849	1.478109	0.060092
H244	H	-0.173849	1.728109	0.310092
Br245	Br	-0.243431	0.473285	-0.243846
Br246	Br	0.006569	0.723285	0.006154
Br247	Br	0.256569	0.973285	0.256154
Br248	Br	0.506569	1.223285	0.506154
Br249	Br	-0.763550	0.952488	-0.465402
Br250	Br	-0.513550	1.202488	-0.215402
Br251	Br	-0.263550	1.452488	0.034598
Br252	Br	-0.013550	1.702488	0.284598
Br253	Br	-0.243420	0.952703	-0.945542
Br254	Br	0.006580	1.202703	-0.695542
Br255	Br	0.256580	1.452703	-0.445542
Br256	Br	0.506580	1.702703	-0.195542
Br257	Br	-0.465347	1.174453	-0.764327
Br258	Br	-0.215347	1.424453	-0.514327
Br259	Br	0.034653	1.674453	-0.264327
Br260	Br	0.284653	1.924453	-0.014327
