data_functionalizedCrystal
_audit_creation_method	'MofGen! by Chris Wilmer'
_symmetry_space_group_name_H-M	'P1'
_symmetry_Int_Tables_number	1
_symmetry_cell_setting	triclinic
loop_
_symmetry_equiv_pos_as_xyz
  x,y,z
_cell_length_a	19.805407
_cell_length_b	18.101397
_cell_length_c	19.805399
_cell_angle_alpha	89.969268
_cell_angle_beta	89.978486
_cell_angle_gamma	90.019712
loop_
_atom_site_label
_atom_site_type_symbol
_atom_site_fract_x
_atom_site_fract_y
_atom_site_fract_z
Zn1	Zn	1.034746	-0.294851	-0.382795
Zn2	Zn	1.368079	0.038482	-0.049462
Zn3	Zn	1.701412	0.371815	0.283872
Zn4	Zn	1.034678	-0.418698	-0.269603
Zn5	Zn	1.368011	-0.085365	0.063730
Zn6	Zn	1.701344	0.247969	0.397063
Zn7	Zn	0.921566	-0.294873	-0.269610
Zn8	Zn	1.254899	0.038460	0.063723
Zn9	Zn	1.588232	0.371794	0.397056
Zn10	Zn	0.921536	-0.418654	-0.382741
Zn11	Zn	1.254869	-0.085321	-0.049408
Zn12	Zn	1.588202	0.248013	0.283926
O13	O	0.978131	-0.356769	-0.326187
O14	O	1.311464	-0.023436	0.007146
O15	O	1.644798	0.309898	0.340479
O16	O	1.129453	-0.311289	-0.367800
O17	O	1.462787	0.022044	-0.034466
O18	O	1.796120	0.355378	0.298867
O19	O	1.019657	-0.402300	-0.174888
O20	O	1.352990	-0.068967	0.158446
O21	O	1.686324	0.264367	0.491779
O22	O	0.936620	-0.191237	-0.284650
O23	O	1.269954	0.142096	0.048683
O24	O	1.603287	0.475429	0.382016
O25	O	1.129403	-0.402279	-0.284638
O26	O	1.462737	-0.068945	0.048695
O27	O	1.796070	0.264388	0.382029
O28	O	1.019773	-0.191221	-0.367806
O29	O	1.353107	0.142112	-0.034473
O30	O	1.686440	0.475445	0.298860
O31	O	0.936554	-0.311326	-0.174893
O32	O	1.269888	0.022007	0.158440
O33	O	1.603221	0.355340	0.491774
O34	O	0.826845	-0.311284	-0.284598
O35	O	1.160178	0.022050	0.048736
O36	O	1.493512	0.355383	0.382069
O37	O	0.936569	-0.402204	-0.477465
O38	O	1.269902	-0.068870	-0.144131
O39	O	1.603236	0.264463	0.189202
O40	O	0.826823	-0.402225	-0.367714
O41	O	1.160156	-0.068891	-0.034381
O42	O	1.493490	0.264442	0.298952
O43	O	1.019744	-0.311246	-0.477504
O44	O	1.353077	0.022087	-0.144171
O45	O	1.686411	0.355420	0.189162
O46	O	1.019628	-0.522325	-0.284586
O47	O	1.352961	-0.188992	0.048748
O48	O	1.686295	0.144342	0.382081
O49	O	0.936503	-0.522293	-0.367707
O50	O	1.269836	-0.188959	-0.034374
O51	O	1.603170	0.144374	0.298959
C52	C	0.802275	-0.356752	-0.326151
C53	C	1.135608	-0.023419	0.007182
C54	C	1.468942	0.309914	0.340515
C55	C	0.727043	-0.356763	-0.326152
C56	C	1.060376	-0.023430	0.007181
C57	C	1.393710	0.309904	0.340515
C58	C	0.978073	-0.549180	-0.326155
C59	C	1.311407	-0.215846	0.007179
C60	C	1.644740	0.117487	0.340512
C61	C	0.978110	-0.631494	-0.326163
C62	C	1.311444	-0.298160	0.007170
C63	C	1.644777	0.035173	0.340503
C64	C	0.265258	-0.404211	-0.369442
C65	C	0.598592	-0.070878	-0.036108
C66	C	0.931925	0.262455	0.297225
C67	C	0.335947	-0.404210	-0.369427
C68	C	0.669280	-0.070877	-0.036094
C69	C	1.002613	0.262457	0.297239
C70	C	0.371281	-0.356787	-0.326214
C71	C	0.704615	-0.023454	0.007119
C72	C	1.037948	0.309880	0.340453
C73	C	0.335924	-0.309367	-0.283007
C74	C	0.669257	0.023966	0.050326
C75	C	1.002591	0.357299	0.383659
C76	C	0.265237	-0.309373	-0.283019
C77	C	0.598570	0.023960	0.050315
C78	C	0.931903	0.357294	0.383648
C79	C	0.620997	-0.309345	-0.282960
C80	C	0.954331	0.023989	0.050374
C81	C	1.287664	0.357322	0.383707
C82	C	0.691689	-0.309341	-0.282953
C83	C	1.025023	0.023992	0.050380
C84	C	1.358356	0.357325	0.383714
C85	C	0.691707	-0.404182	-0.369368
C86	C	1.025041	-0.070848	-0.036035
C87	C	1.358374	0.262485	0.297298
C88	C	0.621020	-0.404187	-0.369380
C89	C	0.954353	-0.070854	-0.036046
C90	C	1.287687	0.262479	0.297287
C91	C	0.585669	-0.356771	-0.326171
C92	C	0.919002	-0.023438	0.007163
C93	C	1.252335	0.309896	0.340496
C94	C	0.509020	-0.356774	-0.326186
C95	C	0.842354	-0.023440	0.007147
C96	C	1.175687	0.309893	0.340481
C97	C	0.447929	-0.356780	-0.326202
C98	C	0.781262	-0.023446	0.007132
C99	C	1.114595	0.309887	0.340465
C100	C	0.978197	-0.930585	-0.326225
C101	C	1.311530	-0.597251	0.007108
C102	C	1.644863	-0.263918	0.340442
C103	C	1.030351	-0.899249	-0.273787
C104	C	1.363684	-0.565916	0.059546
C105	C	1.697018	-0.232582	0.392880
C106	C	1.030532	-0.813630	-0.273923
C107	C	1.363865	-0.480297	0.059411
C108	C	1.697198	-0.146964	0.392744
C109	C	0.978154	-0.782202	-0.326194
C110	C	1.311487	-0.448869	0.007140
C111	C	1.644821	-0.115535	0.340473
C112	C	0.997486	-0.813209	-0.397540
C113	C	1.330819	-0.479876	-0.064207
C114	C	1.664153	-0.146543	0.269127
C115	C	0.997889	-0.898854	-0.397255
C116	C	1.331223	-0.565521	-0.063921
C117	C	1.664556	-0.232188	0.269412
C118	C	0.906572	-0.899093	-0.307934
C119	C	1.239905	-0.565759	0.025399
C120	C	1.573238	-0.232426	0.358733
C121	C	0.906925	-0.813443	-0.306342
C122	C	1.240259	-0.480110	0.026992
C123	C	1.573592	-0.146776	0.360325
C124	C	0.978129	-0.698343	-0.326180
C125	C	1.311462	-0.365009	0.007153
C126	C	1.644795	-0.031676	0.340486
C127	C	0.978224	-1.014444	-0.326243
C128	C	1.311557	-0.681111	0.007090
C129	C	1.644890	-0.347777	0.340424
C130	C	1.154674	-0.356786	-0.326224
C131	C	1.488007	-0.023453	0.007109
C132	C	1.821341	0.309880	0.340443
C133	C	1.229906	-0.356794	-0.326240
C134	C	1.563239	-0.023460	0.007094
C135	C	1.896573	0.309873	0.340427
C136	C	0.978161	-0.356718	-0.502730
C137	C	1.311494	-0.023384	-0.169397
C138	C	1.644828	0.309949	0.163936
C139	C	0.978173	-0.356696	-0.577962
C140	C	1.311507	-0.023362	-0.244629
C141	C	1.644840	0.309971	0.088704
C142	C	0.978208	-0.163607	-0.326235
C143	C	1.311541	0.169726	0.007098
C144	C	1.644874	0.503060	0.340431
C145	C	0.978240	-0.081293	-0.326256
C146	C	1.311574	0.252040	0.007078
C147	C	1.644907	0.585374	0.340411
C148	C	0.934914	-0.309321	-0.613309
C149	C	1.268247	0.024012	-0.279975
C150	C	1.601581	0.357345	0.053358
C151	C	0.934923	-0.309307	-0.683997
C152	C	1.268257	0.024026	-0.350664
C153	C	1.601590	0.357360	-0.017330
C154	C	0.978196	-0.356664	-0.719338
C155	C	1.311529	-0.023330	-0.386005
C156	C	1.644863	0.310003	-0.052671
C157	C	1.021457	-0.404043	-0.683987
C158	C	1.354791	-0.070710	-0.350653
C159	C	1.688124	0.262623	-0.017320
C160	C	1.021444	-0.404061	-0.613299
C161	C	1.354777	-0.070728	-0.279966
C162	C	1.688111	0.262606	0.053367
C163	C	1.021511	-0.403974	-0.969060
C164	C	1.354844	-0.070641	-0.635727
C165	C	1.688178	0.262693	-0.302393
C166	C	1.021522	-0.403951	-1.039752
C167	C	1.354856	-0.070618	-0.706419
C168	C	1.688189	0.262715	-0.373086
C169	C	0.934990	-0.309220	-1.039758
C170	C	1.268324	0.024113	-0.706424
C171	C	1.601657	0.357447	-0.373091
C172	C	0.934977	-0.309238	-0.969071
C173	C	1.268310	0.024096	-0.635737
C174	C	1.601644	0.357429	-0.302404
C175	C	0.978236	-0.356620	-0.933725
C176	C	1.311569	-0.023286	-0.600392
C177	C	1.644902	0.310047	-0.267059
C178	C	0.978224	-0.356636	-0.857077
C179	C	1.311557	-0.023302	-0.523744
C180	C	1.644891	0.310031	-0.190410
C181	C	0.978211	-0.356645	-0.795985
C182	C	1.311545	-0.023311	-0.462652
C183	C	1.644878	0.310022	-0.129318
C184	C	0.978141	-0.356767	-0.150331
C185	C	1.311474	-0.023433	0.183002
C186	C	1.644807	0.309900	0.516335
C187	C	0.978259	-0.356580	-0.075100
C188	C	1.311592	-0.023247	0.258233
C189	C	1.644926	0.310087	0.591567
H190	H	0.236494	-0.442825	-0.404635
H191	H	0.569827	-0.109491	-0.071301
H192	H	0.903161	0.223842	0.262032
H193	H	0.720457	-0.270721	-0.247762
H194	H	1.053790	0.062613	0.085571
H195	H	1.387123	0.395946	0.418905
H196	H	0.592223	-0.270738	-0.247774
H197	H	0.925556	0.062595	0.085560
H198	H	1.258889	0.395928	0.418893
H199	H	0.592254	-0.442801	-0.404571
H200	H	0.925587	-0.109468	-0.071237
H201	H	1.258921	0.223865	0.262096
C202	C	0.851603	-0.784551	-0.354159
C203	C	1.184937	-0.451218	-0.020825
C204	C	1.518270	-0.117884	0.312508
N205	N	0.809936	-0.762790	-0.390180
N206	N	1.143270	-0.429457	-0.056847
N207	N	1.476603	-0.096123	0.276486
H208	H	1.056675	-0.442633	-0.584521
H209	H	1.390009	-0.109299	-0.251188
H210	H	1.723342	0.224034	0.082145
H211	H	1.056687	-0.442606	-0.712767
H212	H	1.390020	-0.109273	-0.379433
H213	H	1.723354	0.224061	-0.046100
C214	C	0.948807	-0.926856	-0.451844
C215	C	1.282140	-0.593523	-0.118511
C216	C	1.615474	-0.260190	0.214823
N217	N	0.911843	-0.947944	-0.492965
N218	N	1.245177	-0.614611	-0.159632
N219	N	1.578510	-0.281278	0.173702
C220	C	0.374795	-0.257196	-0.235477
C221	C	0.708128	0.076137	0.097856
C222	C	1.041461	0.409471	0.431190
N223	N	0.404071	-0.217895	-0.199680
N224	N	0.737405	0.115438	0.133653
N225	N	1.070738	0.448772	0.466986
C226	C	0.730600	-0.456349	-0.416893
C227	C	1.063933	-0.123015	-0.083559
C228	C	1.397267	0.210318	0.249774
N229	N	0.759893	-0.495640	-0.452687
N230	N	1.093226	-0.162306	-0.119354
N231	N	1.426560	0.171027	0.213979
C232	C	1.069134	-0.456054	-0.930190
C233	C	1.402468	-0.122721	-0.596856
C234	C	1.735801	0.210612	-0.263523
N235	N	1.105020	-0.495269	-0.900910
N236	N	1.438353	-0.161936	-0.567577
N237	N	1.771687	0.171397	-0.234243
C238	C	0.882814	-0.928348	-0.238864
C239	C	1.216148	-0.595015	0.094469
C240	C	1.549481	-0.261681	0.427803
N241	N	0.864928	-0.950383	-0.186838
N242	N	1.198261	-0.617050	0.146496
N243	N	1.531595	-0.283717	0.479829
C244	C	0.887310	-0.257224	-0.574440
C245	C	1.220643	0.076109	-0.241107
C246	C	1.553977	0.409442	0.092226
N247	N	0.851451	-0.217986	-0.545167
N248	N	1.184784	0.115348	-0.211833
N249	N	1.518117	0.448681	0.121500
H250	H	0.236454	-0.270759	-0.247841
H251	H	0.569787	0.062575	0.085492
H252	H	0.903120	0.395908	0.418826
C253	C	0.374831	-0.456375	-0.416951
C254	C	0.708165	-0.123042	-0.083617
C255	C	1.041498	0.210291	0.249716
N256	N	0.404119	-0.495670	-0.452746
N257	N	0.737452	-0.162337	-0.119413
N258	N	1.070785	0.170996	0.213921
H259	H	1.018437	-0.792669	-0.221021
H260	H	1.351771	-0.459335	0.112313
H261	H	1.685104	-0.126002	0.445646
C262	C	1.068621	-0.925767	-0.418176
C263	C	1.401954	-0.592434	-0.084843
C264	C	1.735287	-0.259100	0.248490
N265	N	1.121898	-0.946034	-0.433932
N266	N	1.455232	-0.612700	-0.100599
N267	N	1.788565	-0.279367	0.232735
H268	H	1.018403	-0.919892	-0.220726
H269	H	1.351736	-0.586559	0.112607
H270	H	1.685070	-0.253225	0.445940
H271	H	1.083117	-0.920718	-0.285750
H272	H	1.416450	-0.587384	0.047583
H273	H	1.749784	-0.254051	0.380916
H274	H	1.083588	-0.793088	-0.286025
H275	H	1.416921	-0.459754	0.047308
H276	H	1.750254	-0.126421	0.380641
H277	H	0.960661	-0.792850	-0.437662
H278	H	1.293994	-0.459516	-0.104328
H279	H	1.627327	-0.126183	0.229005
H280	H	0.892349	-0.793185	-0.253836
H281	H	1.225682	-0.459851	0.079497
H282	H	1.559015	-0.126518	0.412830
H283	H	1.049254	-0.791703	-0.413295
H284	H	1.382588	-0.458369	-0.079961
H285	H	1.715921	-0.125036	0.253372
H286	H	0.867713	-0.919358	-0.346127
H287	H	1.201046	-0.586024	-0.012794
H288	H	1.534380	-0.252691	0.320540
C289	C	0.887342	-0.257184	-0.722875
C290	C	1.220675	0.076150	-0.389542
C291	C	1.554008	0.409483	-0.056208
N292	N	0.851503	-0.217920	-0.752157
N293	N	1.184836	0.115413	-0.418824
N294	N	1.518170	0.448747	-0.085491
H295	H	0.899743	-0.270672	-0.940300
H296	H	1.233076	0.062661	-0.606966
H297	H	1.566409	0.395994	-0.273633
C298	C	0.887400	-0.257104	-1.078644
C299	C	1.220733	0.076230	-0.745310
C300	C	1.554066	0.409563	-0.411977
N301	N	0.851556	-0.217850	-1.107932
N302	N	1.184890	0.115483	-0.774598
N303	N	1.518223	0.448817	-0.441265
H304	H	1.056762	-0.442518	-1.068525
H305	H	1.390095	-0.109184	-0.735191
H306	H	1.723428	0.224149	-0.401858
