data_functionalizedCrystal
_audit_creation_method	'MofGen! by Chris Wilmer'
_symmetry_space_group_name_H-M	'P1'
_symmetry_Int_Tables_number	1
_symmetry_cell_setting	triclinic
loop_
_symmetry_equiv_pos_as_xyz
  x,y,z
_cell_length_a	12.594517
_cell_length_b	29.839131
_cell_length_c	12.594517
_cell_angle_alpha	90.010103
_cell_angle_beta	89.992224
_cell_angle_gamma	90.037307
loop_
_atom_site_label
_atom_site_type_symbol
_atom_site_fract_x
_atom_site_fract_y
_atom_site_fract_z
Zn1	Zn	1.626877	-0.178999	0.601530
Zn2	Zn	1.626749	-0.254101	0.423531
Zn3	Zn	1.448941	-0.178981	0.423590
Zn4	Zn	1.448784	-0.254098	0.601491
O5	O	1.537838	-0.216545	0.512535
O6	O	1.775806	-0.188971	0.577910
O7	O	1.603174	-0.244130	0.274593
O8	O	1.472663	-0.116116	0.447235
O9	O	1.775712	-0.244148	0.447134
O10	O	1.603392	-0.116130	0.577967
O11	O	1.472539	-0.188940	0.274636
O12	O	1.299974	-0.188936	0.447197
O13	O	1.472397	-0.244142	0.750442
O14	O	1.299859	-0.244124	0.577900
O15	O	1.603241	-0.188968	0.750471
O16	O	1.603022	-0.316968	0.447097
O17	O	1.472273	-0.316965	0.577843
C18	C	1.261297	-0.216528	0.512551
C19	C	1.142991	-0.216531	0.512584
C20	C	1.073706	-0.246607	0.583536
C21	C	1.002932	-0.205651	0.609725
C22	C	1.002967	-0.257522	0.486371
C23	C	1.073775	-0.175553	0.538824
C24	C	1.073816	-0.227452	0.415424
C25	C	1.003073	-0.186467	0.441577
C26	C	1.537645	-0.333267	0.512483
C27	C	1.537661	-0.383202	0.512496
C28	C	1.606043	-0.692834	0.444555
C29	C	1.606174	-0.880507	0.444596
O30	O	1.664163	-0.904762	0.386790
N31	N	1.538058	-0.903987	0.512616
C32	C	1.469910	-0.880546	0.580634
O33	O	1.411984	-0.904823	0.638498
C34	C	1.469785	-0.692873	0.580598
C35	C	1.537897	-0.669396	0.512566
C36	C	1.674151	-0.669357	0.376530
C37	C	1.674113	-0.622441	0.376516
C38	C	1.605968	-0.599003	0.444527
C39	C	1.537860	-0.622481	0.512552
C40	C	1.401642	-0.669433	0.648621
C41	C	1.401619	-0.622512	0.648608
C42	C	1.469731	-0.599035	0.580576
C43	C	1.469676	-0.552127	0.580550
N44	N	1.537792	-0.528647	0.512531
C45	C	1.605938	-0.552085	0.444519
C46	C	1.469979	-0.979076	0.580647
C47	C	1.470009	-1.025994	0.580655
C48	C	1.606275	-1.025952	0.444618
C49	C	1.606239	-0.979034	0.444606
C50	C	1.538095	-0.955596	0.512628
C51	C	1.605853	-0.453559	0.444495
C52	C	1.605806	-0.406640	0.444484
C53	C	1.469545	-0.406686	0.580525
C54	C	1.469587	-0.453601	0.580532
C55	C	1.537750	-0.477037	0.512514
O56	O	1.411727	-0.527843	0.638334
O57	O	1.663872	-0.527800	0.386681
C58	C	1.606080	-0.739749	0.444569
C59	C	1.537972	-0.763227	0.512594
C60	C	1.469827	-0.739789	0.580605
C61	C	1.538002	-0.810145	0.512602
C62	C	1.606148	-0.833583	0.444590
C63	C	1.674264	-0.810103	0.376571
C64	C	1.674226	-0.763187	0.376557
C65	C	1.401711	-0.763269	0.648624
C66	C	1.401753	-0.810184	0.648632
C67	C	1.469899	-0.833622	0.580620
C68	C	1.815458	-0.216562	0.512520
C69	C	1.933764	-0.216570	0.512513
C70	C	1.537816	-0.216556	0.790156
C71	C	1.537806	-0.216561	0.908462
C72	C	1.538060	-0.099366	0.512612
C73	C	1.538154	-0.049432	0.512644
C74	C	1.466639	-0.246566	0.977699
C75	C	1.563725	-0.257559	1.048470
C76	C	1.440726	-0.205580	1.048490
C77	C	1.634943	-0.227575	0.977674
C78	C	1.511879	-0.175577	0.977688
C79	C	1.609031	-0.186554	1.048426
C80	C	1.537836	-0.216547	1.235994
C81	C	1.537800	-0.216553	1.117689
H82	H	0.972254	-0.161020	0.381545
C83	C	1.115608	-0.280903	0.664696
N84	N	1.147168	-0.306733	0.725827
C85	C	1.482204	-0.128773	0.935644
N86	N	1.459841	-0.093521	0.903974
C87	C	0.960854	-0.193194	0.720683
N88	N	0.929160	-0.183816	0.804258
C89	C	1.326653	-0.596734	0.723440
N90	N	1.270187	-0.577319	0.779802
C91	C	1.690424	-0.152270	1.090119
N92	N	1.751732	-0.126448	1.121524
H93	H	1.585659	-0.292214	1.079561
C94	C	1.749223	-0.835894	0.301757
N95	N	1.805683	-0.855322	0.245414
C96	C	1.749117	-0.695131	0.301699
N97	N	1.805580	-0.714541	0.245325
C98	C	1.115614	-0.128731	0.568872
N99	N	1.147130	-0.093466	0.591509
H100	H	1.661272	-0.387526	0.389081
C101	C	1.329816	-0.193035	1.090508
N102	N	1.246276	-0.183589	1.122151
C103	C	1.115914	-0.239929	0.304494
N104	N	1.147625	-0.249332	0.220941
H105	H	1.414058	-0.387595	0.635896
C106	C	1.745883	-0.240175	0.935831
N107	N	1.829440	-0.249668	0.904312
H108	H	0.971859	-0.292170	0.464232
H109	H	1.406533	-0.271964	0.946645
H110	H	1.661762	-1.045043	0.389241
C111	C	1.680829	-0.479332	0.369665
N112	N	1.737295	-0.498743	0.313297
H113	H	1.346278	-0.829296	0.704030
H114	H	1.729579	-0.603329	0.321122
C115	C	1.395069	-1.051814	0.655485
N116	N	1.338626	-1.071260	0.711854
C117	C	1.681171	-0.953213	0.369770
N118	N	1.737614	-0.933767	0.313402
C119	C	1.395038	-0.953301	0.655510
N120	N	1.338600	-0.933889	0.711906
H121	H	1.346220	-0.744189	0.704009
H122	H	1.346172	-0.688540	0.704015
H123	H	1.414127	-0.472718	0.635932
H124	H	1.729690	-0.744076	0.321160
