data_functionalizedCrystal
_audit_creation_method	'MofGen! by Chris Wilmer'
_symmetry_space_group_name_H-M	'P1'
_symmetry_Int_Tables_number	1
_symmetry_cell_setting	triclinic
loop_
_symmetry_equiv_pos_as_xyz
  x,y,z
_cell_length_a	12.759401
_cell_length_b	12.759394
_cell_length_c	12.759393
_cell_angle_alpha	89.967501
_cell_angle_beta	89.982620
_cell_angle_gamma	90.014998
loop_
_atom_site_label
_atom_site_type_symbol
_atom_site_fract_x
_atom_site_fract_y
_atom_site_fract_z
Zn1	Zn	1.606243	-0.418198	-0.593976
Zn2	Zn	1.606140	-0.593917	-0.418294
Zn3	Zn	1.430548	-0.418254	-0.418315
Zn4	Zn	1.430533	-0.593836	-0.593935
O5	O	1.518366	-0.506051	-0.506130
O6	O	1.753250	-0.441518	-0.570679
O7	O	1.582811	-0.570673	-0.271276
O8	O	1.453904	-0.271225	-0.441643
O9	O	1.753175	-0.570619	-0.441607
O10	O	1.582986	-0.271184	-0.570700
O11	O	1.453804	-0.441613	-0.271291
O12	O	1.283525	-0.441534	-0.441604
O13	O	1.453878	-0.570480	-0.740962
O14	O	1.283514	-0.570534	-0.570631
O15	O	1.582971	-0.441439	-0.740992
O16	O	1.582796	-0.740928	-0.441567
O17	O	1.453778	-0.740868	-0.570610
C18	C	1.245399	-0.506032	-0.506116
C19	C	1.128622	-0.506049	-0.506135
C20	C	1.073782	-0.573327	-0.573208
C21	C	0.964058	-0.573340	-0.573219
C22	C	0.964024	-0.438795	-0.439075
C23	C	1.073746	-0.438777	-0.439070
C24	C	1.073800	-0.651008	-0.650652
C25	C	0.964076	-0.651022	-0.650664
C26	C	1.518303	-0.779019	-0.506105
C27	C	1.518372	-0.895795	-0.506129
C28	C	1.652819	-0.895804	-0.371857
C29	C	1.720070	-0.950670	-0.304734
C30	C	1.720132	-1.060391	-0.304762
C31	C	1.652937	-1.115250	-0.371924
C32	C	1.585686	-1.060385	-0.439047
C33	C	1.585630	-0.950661	-0.439009
C34	C	1.451246	-1.060376	-0.573323
C35	C	1.451178	-0.950654	-0.573291
C36	C	1.384052	-1.115235	-0.640484
C37	C	1.316794	-1.060369	-0.707604
C38	C	1.316734	-0.950641	-0.707572
C39	C	1.383927	-0.895789	-0.640414
C40	C	1.792399	-0.506071	-0.506145
C41	C	1.909176	-0.506080	-0.506151
C42	C	1.518434	-0.505944	-0.780164
C43	C	1.518463	-0.505899	-0.896940
C44	C	1.518458	-0.232018	-0.506179
C45	C	1.518497	-0.115241	-0.506199
C46	C	1.451318	-0.438685	-0.951817
C47	C	1.451350	-0.438654	-1.061541
C48	C	1.585681	-0.573053	-1.061503
C49	C	1.585643	-0.573089	-0.951781
C50	C	1.373766	-0.361087	-0.951840
C51	C	1.373798	-0.361056	-1.061564
C52	C	1.518359	-0.506082	-0.233163
C53	C	1.518533	-0.505832	-0.116387
H54	H	0.934281	-0.732371	-0.628730
Br55	Br	1.422378	-0.232290	-0.895134
Br56	Br	0.889543	-0.347499	-0.348067
H57	H	1.640304	-0.627836	-0.907104
Br58	Br	1.811409	-1.134856	-0.213674
H59	H	1.296500	-0.390182	-1.095589
Br60	Br	1.130505	-0.779804	-0.601950
H61	H	1.118393	-0.383986	-0.384459
Br62	Br	1.652531	-1.264158	-0.371469
Br63	Br	1.811266	-0.876215	-0.213598
Br64	Br	1.384188	-0.746880	-0.640703
H65	H	1.103607	-0.629309	-0.732059
H66	H	1.262095	-1.105044	-0.762287
Br67	Br	1.676846	-0.664238	-1.135935
H68	H	1.292377	-0.382877	-0.922062
Br69	Br	0.907397	-0.602610	-0.779582
Br70	Br	1.409989	-0.225375	-1.111240
H71	H	1.652762	-0.806463	-0.371814
H72	H	1.384111	-1.204576	-0.640507
Br73	Br	1.225469	-0.876190	-0.798683
