data_functionalizedCrystal
_audit_creation_method	'MofGen! by Chris Wilmer'
_symmetry_space_group_name_H-M	'P1'
_symmetry_Int_Tables_number	1
_symmetry_cell_setting	triclinic
loop_
_symmetry_equiv_pos_as_xyz
  x,y,z
_cell_length_a	10.654562
_cell_length_b	14.853567
_cell_length_c	9.130313
_cell_angle_alpha	90.002541
_cell_angle_beta	89.996930
_cell_angle_gamma	84.062517
loop_
_atom_site_label
_atom_site_type_symbol
_atom_site_fract_x
_atom_site_fract_y
_atom_site_fract_z
O1	O	1.666509	0.126676	-0.121882
O2	O	1.300907	0.138729	-0.121863
O3	O	1.493474	0.001525	-0.121877
O4	O	1.473942	0.263880	-0.121867
O5	O	1.493471	0.001529	0.121722
O6	O	1.300905	0.138732	0.121736
O7	O	1.666506	0.126680	0.121717
Cu8	Cu	1.483705	0.132707	0.143969
Cu9	Cu	1.483708	0.132702	-0.144115
O10	O	1.473940	0.263883	0.121731
C11	C	1.254117	0.137843	-0.000061
C12	C	1.114703	0.135188	-0.000054
C13	C	1.049183	0.133952	0.132720
C14	C	0.918187	0.131465	0.132696
C15	C	0.918240	0.131454	-0.132889
C16	C	1.049235	0.133935	-0.132863
C17	C	1.049151	0.133962	0.286054
C18	C	0.918155	0.131475	0.286029
C19	C	1.492588	-0.032066	-0.000082
C20	C	1.489936	-0.132164	-0.000095
C21	C	1.364336	-0.545375	-0.000060
C22	C	1.593110	-0.565423	-0.000072
C23	C	1.595603	-0.471376	-0.000081
C24	C	1.482462	-0.414324	-0.000077
C25	C	1.366826	-0.451318	-0.000064
C26	C	1.711237	-0.434374	-0.000079
C27	C	1.713735	-0.340322	-0.000086
C28	C	1.600592	-0.283267	-0.000093
C29	C	1.484952	-0.320268	-0.000082
C30	C	1.371810	-0.263215	-0.000078
C31	C	1.256169	-0.300213	-0.000077
C32	C	1.253683	-0.394264	-0.000071
C33	C	1.603077	-0.189217	-0.000099
C34	C	1.374300	-0.169159	-0.000082
C35	C	1.713296	0.127566	-0.000088
C36	C	1.852711	0.130220	-0.000105
C37	C	1.474826	0.297475	-0.000067
C38	C	1.477478	0.397573	-0.000064
N39	N	1.483713	0.132709	0.346592
N40	N	1.483711	0.132693	-0.346737
C41	C	1.569003	0.071976	0.423237
C42	C	1.568999	0.071966	0.576574
C43	C	1.398412	0.193428	0.576606
C44	C	1.398410	0.193434	0.423272
C45	C	1.667494	0.001853	0.423220
C46	C	1.667491	0.001843	0.576556
H47	H	1.078042	0.199714	0.333633
N48	N	0.847621	0.130114	-0.276124
H49	H	0.909009	0.131275	-0.360233
H50	H	0.803347	0.073293	-0.281920
N51	N	0.855974	0.214011	0.363979
H52	H	0.761465	0.212248	0.363996
H53	H	0.887521	0.214602	0.468248
H54	H	1.328949	0.242879	0.360869
H55	H	1.102578	0.134927	-0.240981
H56	H	1.282165	-0.122712	-0.000085
H57	H	1.637658	-0.063642	0.624103
N58	N	1.111298	0.051443	0.364051
H59	H	1.044547	0.012824	0.398831
H60	H	1.170558	0.015276	0.294520
N61	N	0.879844	0.044391	0.349052
H62	H	0.918657	-0.008456	0.289052
H63	H	0.910316	0.037625	0.453602
N64	N	1.727789	-0.149312	-0.000082
H65	H	1.733935	-0.110739	-0.090382
H66	H	1.733826	-0.110779	0.090282
N67	N	1.134140	-0.238675	-0.000035
H68	H	1.153273	-0.173482	-0.000023
H69	H	1.083738	-0.250724	-0.090332
H70	H	1.763841	0.017292	0.618169
H71	H	1.328960	0.242868	0.639056
H72	H	1.159534	-0.424397	-0.000069
H73	H	1.646771	-0.067442	0.381598
H74	H	1.270184	-0.575503	-0.000065
N75	N	1.715128	-0.626961	-0.000059
H76	H	1.719193	-0.666438	-0.090355
H77	H	1.788694	-0.589194	-0.000011
N78	N	1.833252	-0.495915	-0.000065
H79	H	1.837319	-0.535387	-0.090367
H80	H	1.906821	-0.458152	-0.000003
N81	N	1.838460	-0.300427	-0.000091
H82	H	1.888032	-0.321187	-0.090396
H83	H	1.822774	-0.232196	-0.000042
N84	N	1.787976	0.030930	0.360205
H85	H	1.783577	0.029872	0.249726
H86	H	1.798996	0.094287	0.394451
