data_functionalizedCrystal
_audit_creation_method	'MofGen! by Chris Wilmer'
_symmetry_space_group_name_H-M	'P1'
_symmetry_Int_Tables_number	1
_symmetry_cell_setting	triclinic
loop_
_symmetry_equiv_pos_as_xyz
  x,y,z
_cell_length_a	11.026607
_cell_length_b	16.992695
_cell_length_c	16.053802
_cell_angle_alpha	87.258926
_cell_angle_beta	86.854654
_cell_angle_gamma	80.372880
loop_
_atom_site_label
_atom_site_type_symbol
_atom_site_fract_x
_atom_site_fract_y
_atom_site_fract_z
O1	O	1.647314	-0.330284	-0.069438
O2	O	1.290332	-0.292377	-0.069438
O3	O	1.467391	-0.196986	-0.069431
O4	O	1.470254	-0.425675	-0.069445
O5	O	1.457643	-0.202209	0.069427
O6	O	1.280583	-0.297600	0.069421
O7	O	1.637565	-0.335507	0.069421
Zn8	Zn	1.457526	-0.317383	0.091467
Zn9	Zn	1.470371	-0.310501	-0.091485
O10	O	1.460506	-0.430898	0.069414
C11	C	1.239568	-0.287995	-0.000009
C12	C	1.102833	-0.267148	-0.000009
N13	N	1.448770	-0.322080	0.216327
C14	C	1.458835	-0.169865	-0.000002
C15	C	1.447849	-0.081270	-0.000002
C16	C	1.034609	-0.324710	-0.000012
C17	C	0.893286	-0.303165	-0.000012
C18	C	1.688329	-0.339889	-0.000011
C19	C	1.825065	-0.360735	-0.000016
C20	C	1.469062	-0.458018	-0.000017
C21	C	1.480048	-0.546613	-0.000022
C22	C	1.553847	-0.045991	-0.000001
C23	C	1.543518	0.037253	-0.000009
C24	C	1.427190	0.085218	-0.000012
C25	C	1.321185	0.049934	-0.000016
C26	C	1.331515	-0.033310	-0.000014
C27	C	1.384374	0.334860	-0.000024
C28	C	1.374051	0.418108	-0.000023
C29	C	1.596385	0.405422	-0.000019
C30	C	1.606705	0.322178	-0.000012
C31	C	1.500700	0.286901	-0.000019
N32	N	1.416629	0.170308	-0.000018
N33	N	1.511263	0.201813	-0.000020
N34	N	1.479136	-0.305799	-0.216345
C35	C	1.524140	-0.281513	0.260024
C36	C	1.518027	-0.284808	0.347431
C37	C	1.436548	-0.328675	0.391139
C38	C	1.361170	-0.369242	0.347436
C39	C	1.367278	-0.365942	0.260031
C40	C	1.409866	-0.343067	0.652547
C41	C	1.403766	-0.346365	0.739958
C42	C	1.560622	-0.261930	0.739947
C43	C	1.566728	-0.258638	0.652541
C44	C	1.491345	-0.299202	0.608845
N45	N	1.430300	-0.332046	0.480482
N46	N	1.497587	-0.295826	0.519503
H47	H	1.080827	-0.389941	-0.000011
Br48	Br	0.902074	-0.469468	-0.000007
H49	H	1.337414	-0.382089	0.775542
Br50	Br	1.025813	-0.158422	0.000007
Br51	Br	0.816271	-0.194434	0.000003
H52	H	1.648573	-0.085039	0.000006
Br53	Br	1.264976	-0.420993	0.200728
H54	H	1.633074	-0.222919	0.616955
Br55	Br	1.240509	0.286994	-0.000040
Br56	Br	1.687378	0.085129	-0.000008
H57	H	1.701431	0.283130	-0.000009
H58	H	1.682688	0.434154	-0.000014
Br59	Br	1.634733	-0.221984	0.200715
H60	H	1.279317	0.457159	-0.000012
Br61	Br	1.187656	-0.081189	-0.000022
H62	H	1.226468	0.088993	-0.000023
Br63	Br	1.620311	-0.229750	0.406736
H64	H	1.348488	-0.376097	0.616978
Br65	Br	1.662920	-0.206880	0.799251
H66	H	1.294822	-0.404955	0.383028
