data_functionalizedCrystal
_audit_creation_method	'MofGen! by Chris Wilmer'
_symmetry_space_group_name_H-M	'P1'
_symmetry_Int_Tables_number	1
_symmetry_cell_setting	triclinic
loop_
_symmetry_equiv_pos_as_xyz
  x,y,z
_cell_length_a	12.594516
_cell_length_b	16.625548
_cell_length_c	16.625539
_cell_angle_alpha	89.977655
_cell_angle_beta	90.024195
_cell_angle_gamma	89.981969
loop_
_atom_site_label
_atom_site_type_symbol
_atom_site_fract_x
_atom_site_fract_y
_atom_site_fract_z
Zn1	Zn	-0.423744	-1.232705	0.455971
Zn2	Zn	-0.173744	-0.982705	0.705971
Zn3	Zn	0.076256	-0.732705	0.955971
Zn4	Zn	0.326256	-0.482705	1.205971
Zn5	Zn	-0.601746	-1.232618	0.321147
Zn6	Zn	-0.351746	-0.982618	0.571147
Zn7	Zn	-0.101746	-0.732618	0.821147
Zn8	Zn	0.148254	-0.482618	1.071147
Zn9	Zn	-0.423781	-1.097866	0.321147
Zn10	Zn	-0.173781	-0.847866	0.571147
Zn11	Zn	0.076219	-0.597866	0.821147
Zn12	Zn	0.326219	-0.347866	1.071147
Zn13	Zn	-0.601681	-1.097847	0.455933
Zn14	Zn	-0.351681	-0.847847	0.705933
Zn15	Zn	-0.101681	-0.597847	0.955933
Zn16	Zn	0.148319	-0.347847	1.205933
O17	O	-0.512738	-1.165259	0.388550
O18	O	-0.262738	-0.915259	0.638550
O19	O	-0.012738	-0.665259	0.888550
O20	O	0.237262	-0.415259	1.138550
O21	O	-0.447368	-1.345525	0.438102
O22	O	-0.197368	-1.095525	0.688102
O23	O	0.052632	-0.845525	0.938102
O24	O	0.302632	-0.595525	1.188102
O25	O	-0.578181	-1.214715	0.208315
O26	O	-0.328181	-0.964715	0.458315
O27	O	-0.078181	-0.714715	0.708315
O28	O	0.171819	-0.464715	0.958315
O29	O	-0.274830	-1.115797	0.339047
O30	O	-0.024830	-0.865797	0.589047
O31	O	0.225170	-0.615797	0.839047
O32	O	0.475170	-0.365797	1.089047
O33	O	-0.578145	-1.345462	0.339048
O34	O	-0.328145	-1.095462	0.589048
O35	O	-0.078145	-0.845462	0.839048
O36	O	0.171855	-0.595462	1.089048
O37	O	-0.274803	-1.214862	0.438101
O38	O	-0.024803	-0.964862	0.688101
O39	O	0.225197	-0.714862	0.938101
O40	O	0.475197	-0.464862	1.188101
O41	O	-0.447431	-1.115713	0.208315
O42	O	-0.197431	-0.865713	0.458315
O43	O	0.052569	-0.615713	0.708315
O44	O	0.302569	-0.365713	0.958315
O45	O	-0.447368	-0.985031	0.339011
O46	O	-0.197368	-0.735031	0.589011
O47	O	0.052632	-0.485031	0.839011
O48	O	0.302632	-0.235031	1.089011
O49	O	-0.578034	-1.115764	0.568771
O50	O	-0.328034	-0.865764	0.818771
O51	O	-0.078034	-0.615764	1.068771
O52	O	0.171966	-0.365764	1.318771
O53	O	-0.578070	-0.985017	0.438038
O54	O	-0.328070	-0.735017	0.688038
O55	O	-0.078070	-0.485017	0.938038
O56	O	0.171930	-0.235017	1.188038
O57	O	-0.447305	-1.214844	0.568798
O58	O	-0.197305	-0.964844	0.818798
O59	O	0.052695	-0.714844	1.068798
O60	O	0.302695	-0.464844	1.318798
O61	O	-0.750683	-1.214696	0.339012
O62	O	-0.500683	-0.964696	0.589012
O63	O	-0.250683	-0.714696	0.839012
O64	O	-0.000683	-0.464696	1.089012
O65	O	-0.750635	-1.115680	0.438038
O66	O	-0.500635	-0.865680	0.688038
O67	O	-0.250635	-0.615680	0.938038
O68	O	-0.000635	-0.365680	1.188038
C69	C	-0.512717	-0.955768	0.388521
C70	C	-0.262717	-0.705768	0.638521
C71	C	-0.012717	-0.455768	0.888521
C72	C	0.237283	-0.205768	1.138521
C73	C	-0.512733	-0.866147	0.388527
C74	C	-0.262733	-0.616147	0.638527
C75	C	-0.012733	-0.366147	0.888527
C76	C	0.237267	-0.116147	1.138527
C77	C	-0.512731	-0.537971	0.388552
C78	C	-0.262731	-0.287971	0.638552
C79	C	-0.012731	-0.037971	0.888552
C80	C	0.237269	0.212029	1.138552
C81	C	-0.512729	-0.629280	0.388542
C82	C	-0.262729	-0.379280	0.638542
C83	C	-0.012729	-0.129280	0.888542
C84	C	0.237271	0.120720	1.138542
C85	C	-0.512733	-0.702056	0.388539
C86	C	-0.262733	-0.452056	0.638539
C87	C	-0.012733	-0.202056	0.888539
C88	C	0.237267	0.047944	1.138539
C89	C	-0.512729	-0.793371	0.388531
C90	C	-0.262729	-0.543371	0.638531
C91	C	-0.012729	-0.293371	0.888531
C92	C	0.237271	-0.043371	1.138531
C93	C	-0.789279	-1.165198	0.388538
C94	C	-0.539279	-0.915198	0.638538
C95	C	-0.289279	-0.665198	0.888538
C96	C	-0.039279	-0.415198	1.138538
C97	C	-0.907584	-1.165246	0.388561
C98	C	-0.657584	-0.915246	0.638561
C99	C	-0.407584	-0.665246	0.888561
C100	C	-0.157584	-0.415246	1.138561
C101	C	-1.047614	-1.111435	0.442394
C102	C	-0.797614	-0.861435	0.692394
C103	C	-0.547614	-0.611435	0.942394
C104	C	-0.297614	-0.361435	1.192394
C105	C	-0.976704	-1.184943	0.462178
C106	C	-0.726704	-0.934943	0.712178
C107	C	-0.476704	-0.684943	0.962178
C108	C	-0.226704	-0.434943	1.212178
C109	C	-0.976922	-1.091746	0.368812
C110	C	-0.726922	-0.841746	0.618812
C111	C	-0.476922	-0.591746	0.868812
C112	C	-0.226922	-0.341746	1.118812
C113	C	-1.047460	-1.238924	0.408413
C114	C	-0.797460	-0.988924	0.658413
C115	C	-0.547460	-0.738924	0.908413
C116	C	-0.297460	-0.488924	1.158413
C117	C	-1.047685	-1.145678	0.315013
C118	C	-0.797685	-0.895678	0.565013
C119	C	-0.547685	-0.645678	0.815013
C120	C	-0.297685	-0.395678	1.065013
C121	C	-0.976807	-1.219236	0.334769
C122	C	-0.726807	-0.969236	0.584769
C123	C	-0.476807	-0.719236	0.834769
C124	C	-0.226807	-0.469236	1.084769
C125	C	-0.235117	-1.165342	0.388578
C126	C	0.014883	-0.915342	0.638578
C127	C	0.264883	-0.665342	0.888578
C128	C	0.514883	-0.415342	1.138578
C129	C	-0.116811	-1.165377	0.388591
C130	C	0.133189	-0.915377	0.638591
C131	C	0.383189	-0.665377	0.888591
C132	C	0.633189	-0.415377	1.138591
C133	C	-0.512659	-1.165311	0.598859
C134	C	-0.262659	-0.915311	0.848859
C135	C	-0.012659	-0.665311	1.098859
C136	C	0.237341	-0.415311	1.348859
C137	C	-0.512625	-1.165334	0.688480
C138	C	-0.262625	-0.915334	0.938480
C139	C	-0.012625	-0.665334	1.188480
C140	C	0.237375	-0.415334	1.438480
C141	C	-0.512753	-0.375568	0.388571
C142	C	-0.262753	-0.125568	0.638571
C143	C	-0.012753	0.124432	0.888571
C144	C	0.237247	0.374432	1.138571
C145	C	-0.512741	-0.465189	0.388561
C146	C	-0.262741	-0.215189	0.638561
C147	C	-0.012741	0.034811	0.888561
C148	C	0.237259	0.284811	1.138561
C149	C	-0.512740	-1.165253	0.179059
C150	C	-0.262740	-0.915253	0.429059
C151	C	-0.012740	-0.665253	0.679059
C152	C	0.237260	-0.415253	0.929059
C153	C	-0.512474	-1.165387	0.089438
C154	C	-0.262474	-0.915387	0.339438
C155	C	-0.012474	-0.665387	0.589438
C156	C	0.237526	-0.415387	0.839438
C157	C	-0.512506	-1.165371	1.016656
C158	C	-0.262506	-0.915371	1.266656
C159	C	-0.012506	-0.665371	1.516656
C160	C	0.237494	-0.415371	1.766656
C161	C	-0.512542	-1.165358	0.925347
C162	C	-0.262542	-0.915358	1.175347
C163	C	-0.012542	-0.665358	1.425347
C164	C	0.237458	-0.415358	1.675347
C165	C	-0.512566	-1.165353	0.852571
C166	C	-0.262566	-0.915353	1.102571
C167	C	-0.012566	-0.665353	1.352571
C168	C	0.237434	-0.415353	1.602571
C169	C	-0.512601	-1.165339	0.761256
C170	C	-0.262601	-0.915339	1.011256
C171	C	-0.012601	-0.665339	1.261256
C172	C	0.237399	-0.415339	1.511256
H173	H	-1.078700	-1.065931	0.487941
H174	H	-0.828700	-0.815931	0.737941
H175	H	-0.578700	-0.565931	0.987941
H176	H	-0.328700	-0.315931	1.237941
H177	H	-1.078884	-1.129044	0.252820
H178	H	-0.828884	-0.879044	0.502820
H179	H	-0.578884	-0.629044	0.752820
H180	H	-0.328884	-0.379044	1.002820
Cl181	Cl	-1.095095	-1.335007	0.434333
Cl182	Cl	-0.845095	-1.085007	0.684333
Cl183	Cl	-0.595095	-0.835007	0.934333
Cl184	Cl	-0.345095	-0.585007	1.184333
Cl185	Cl	-0.929076	-0.995693	0.343002
Cl186	Cl	-0.679076	-0.745693	0.593002
Cl187	Cl	-0.429076	-0.495693	0.843002
Cl188	Cl	-0.179076	-0.245693	1.093002
H189	H	-0.945529	-1.201555	0.524389
H190	H	-0.695529	-0.951555	0.774389
H191	H	-0.445529	-0.701555	1.024389
H192	H	-0.195529	-0.451555	1.274389
H193	H	-0.945914	-1.264849	0.289257
H194	H	-0.695914	-1.014849	0.539257
H195	H	-0.445914	-0.764849	0.789257
H196	H	-0.195914	-0.514849	1.039257
