data_functionalizedCrystal
_audit_creation_method	'MofGen! by Chris Wilmer'
_symmetry_space_group_name_H-M	'P1'
_symmetry_Int_Tables_number	1
_symmetry_cell_setting	triclinic
loop_
_symmetry_equiv_pos_as_xyz
  x,y,z
_cell_length_a	10.685314
_cell_length_b	19.805407
_cell_length_c	19.805405
_cell_angle_alpha	89.973590
_cell_angle_beta	94.329394
_cell_angle_gamma	85.651913
loop_
_atom_site_label
_atom_site_type_symbol
_atom_site_fract_x
_atom_site_fract_y
_atom_site_fract_z
Zn1	Zn	-0.713459	-1.005408	-0.298746
Zn2	Zn	-0.213459	-0.505408	0.201254
Zn3	Zn	-0.502445	-1.013997	-0.403278
Zn4	Zn	-0.002445	-0.513997	0.096722
Zn5	Zn	-0.502475	-0.900896	-0.290110
Zn6	Zn	-0.002475	-0.400896	0.209890
Zn7	Zn	-0.713375	-0.892190	-0.411895
Zn8	Zn	-0.213375	-0.392190	0.088105
O9	O	-0.607938	-0.953123	-0.351007
O10	O	-0.107938	-0.453123	0.148993
O11	O	-0.685490	-1.101263	-0.312621
O12	O	-0.185490	-0.601263	0.187379
O13	O	-0.325876	-1.006232	-0.381046
O14	O	0.174124	-0.506232	0.118954
O15	O	-0.530510	-0.914808	-0.196541
O16	O	-0.030510	-0.414808	0.303459
O17	O	-0.530458	-1.107573	-0.389420
O18	O	-0.030458	-0.607573	0.110580
O19	O	-0.685519	-0.991593	-0.202886
O20	O	-0.185519	-0.491593	0.297114
O21	O	-0.325898	-0.923137	-0.297901
O22	O	0.174102	-0.423137	0.202099
O23	O	-0.530429	-0.805025	-0.306257
O24	O	-0.030429	-0.305025	0.193743
O25	O	-0.889959	-0.899971	-0.404106
O26	O	-0.389959	-0.399971	0.095894
O27	O	-0.685376	-0.798629	-0.395732
O28	O	-0.185376	-0.298629	0.104268
O29	O	-0.890020	-0.983152	-0.320976
O30	O	-0.390020	-0.483152	0.179024
O31	O	-0.530377	-0.997790	-0.499136
O32	O	-0.030377	-0.497790	0.000864
O33	O	-0.685347	-0.908299	-0.505467
O34	O	-0.185347	-0.408299	-0.005467
C35	C	-0.607898	-0.777268	-0.350993
C36	C	-0.107898	-0.277268	0.149007
C37	C	-0.607910	-0.702036	-0.351004
C38	C	-0.107910	-0.202036	0.148996
C39	C	-0.607877	-0.953049	-0.526861
C40	C	-0.107877	-0.453049	-0.026861
C41	C	-0.607893	-0.953078	-0.602093
C42	C	-0.107893	-0.453078	-0.102093
C43	C	-0.937053	-0.939632	-0.364465
C44	C	-0.437053	-0.439632	0.135535
C45	C	-1.077302	-0.933883	-0.370200
C46	C	-0.577302	-0.433883	0.129800
C47	C	-0.280104	-0.966600	-0.337553
C48	C	0.219896	-0.466600	0.162447
C49	C	-0.139856	-0.972480	-0.331627
C50	C	0.360144	-0.472480	0.168373
C51	C	-0.607980	-1.129664	-0.351022
C52	C	-0.107980	-0.629664	0.148978
C53	C	-0.607998	-1.204895	-0.351029
C54	C	-0.107998	-0.704895	0.148971
C55	C	-0.688461	-0.663384	-0.397653
C56	C	-0.188461	-0.163384	0.102347
C57	C	-0.688478	-0.592695	-0.397655
C58	C	-0.188478	-0.092695	0.102345
C59	C	-0.607938	-0.560659	-0.351010
C60	C	-0.107938	-0.060659	0.148990
C61	C	-0.527384	-0.599316	-0.304356
C62	C	-0.027384	-0.099316	0.195644
C63	C	-0.527374	-0.670003	-0.304351
C64	C	-0.027374	-0.170003	0.195649
C65	C	-0.527426	-0.314241	-0.304373
C66	C	-0.027426	0.185759	0.195627
C67	C	-0.527440	-0.243548	-0.304382
C68	C	-0.027440	0.256452	0.195618
C69	C	-0.688531	-0.236933	-0.397676
C70	C	-0.188531	0.263067	0.102324
C71	C	-0.688520	-0.307620	-0.397672
C72	C	-0.188520	0.192380	0.102328
C73	C	-0.607971	-0.346270	-0.351016
C74	C	-0.107971	0.153730	0.148984
C75	C	-0.607955	-0.422920	-0.351013
C76	C	-0.107955	0.077080	0.148987
C77	C	-0.607948	-0.484012	-0.351015
C78	C	-0.107948	0.015988	0.148985
C79	C	-0.527285	-0.999714	-0.634122
C80	C	-0.027285	-0.499714	-0.134122
C81	C	-0.527313	-0.999742	-0.704812
C82	C	-0.027313	-0.499742	-0.204812
C83	C	-0.607944	-0.953129	-0.743471
C84	C	-0.107944	-0.453129	-0.243471
C85	C	-0.688561	-0.906490	-0.711438
C86	C	-0.188561	-0.406490	-0.211438
C87	C	-0.688538	-0.906467	-0.640750
C88	C	-0.188538	-0.406467	-0.140750
C89	C	-0.688654	-0.906586	-0.996515
C90	C	-0.188654	-0.406586	-0.496515
C91	C	-0.688668	-0.906613	-1.067207
C92	C	-0.188668	-0.406613	-0.567207
C93	C	-0.527429	-0.999862	-1.060577
C94	C	-0.027429	-0.499862	-0.560577
C95	C	-0.527407	-0.999838	-0.989889
C96	C	-0.027407	-0.499838	-0.489889
C97	C	-0.608028	-0.953202	-0.957862
C98	C	-0.108028	-0.453202	-0.457862
C99	C	-0.607998	-0.953173	-0.881212
C100	C	-0.107998	-0.453173	-0.381212
C101	C	-0.607968	-0.953154	-0.820119
C102	C	-0.107968	-0.453154	-0.320119
C103	C	-0.608027	-0.953214	-0.174468
C104	C	-0.108027	-0.453214	0.325532
C105	C	-0.608065	-0.953253	-0.099238
C106	C	-0.108065	-0.453253	0.400762
H107	H	-1.086116	-1.009916	-0.294209
H108	H	-0.586116	-0.509916	0.205791
O109	O	-0.775350	-0.697927	-0.447961
O110	O	-0.275350	-0.197927	0.052039
H111	H	-0.839636	-0.727514	-0.420339
H112	H	-0.339636	-0.227514	0.079661
O113	O	-0.775421	-0.195271	-0.448019
O114	O	-0.275421	0.304729	0.051981
H115	H	-0.839772	-0.160449	-0.420438
H116	H	-0.339772	0.339551	0.079562
O117	O	-1.148484	-0.884281	-0.419761
O118	O	-0.648484	-0.384281	0.080239
H119	H	-1.123226	-0.896878	-0.471863
H120	H	-0.623226	-0.396878	0.028137
O121	O	-0.440324	-1.049999	-0.592434
O122	O	0.059676	-0.549999	-0.092434
H123	H	-0.496862	-1.082077	-0.562501
H124	H	0.003138	-0.582077	-0.062501
H125	H	-0.754070	-0.561228	-0.435642
H126	H	-0.254070	-0.061228	0.064358
O127	O	-0.440580	-0.208990	-0.254065
O128	O	0.059420	0.291010	0.245935
H129	H	-0.384577	-0.247741	-0.221615
H130	H	0.115423	0.252259	0.278385
O131	O	-0.440525	-0.355911	-0.254056
O132	O	0.059475	0.144089	0.245944
H133	H	-0.497093	-0.385813	-0.221964
H134	H	0.002907	0.114187	0.278036
O135	O	-0.775394	-0.342175	-0.447977
O136	O	-0.275394	0.157825	0.052023
H137	H	-0.831422	-0.303421	-0.480412
H138	H	-0.331422	0.196579	0.019588
H139	H	-0.461813	-0.573226	-0.266374
H140	H	0.038187	-0.073226	0.233626
H141	H	-0.461788	-0.701473	-0.266361
H142	H	0.038212	-0.201473	0.233639
O143	O	-0.440365	-1.050039	-0.739360
O144	O	0.059635	-0.550039	-0.239360
H145	H	-0.384280	-1.082440	-0.700601
H146	H	0.115720	-0.582440	-0.200601
O147	O	-0.440449	-1.050116	-0.948190
O148	O	0.059551	-0.550116	-0.448190
H149	H	-0.384411	-1.082556	-0.982339
H150	H	0.115589	-0.582556	-0.482339
O151	O	-0.440503	-1.050183	-1.095120
O152	O	0.059497	-0.550183	-0.595120
H153	H	-0.454078	-1.042382	-1.150769
H154	H	0.045922	-0.542382	-0.650769
H155	H	-0.754337	-0.868655	-1.098683
H156	H	-0.254337	-0.368655	-0.598683
O157	O	-0.775566	-0.856269	-0.961973
O158	O	-0.275566	-0.356269	-0.461973
H159	H	-0.831613	-0.823852	-1.000732
H160	H	-0.331613	-0.323852	-0.500732
O161	O	-0.775517	-0.856206	-0.753129
O162	O	-0.275517	-0.356206	-0.253129
H163	H	-0.761977	-0.864049	-0.807664
H164	H	-0.261977	-0.364049	-0.307664
H165	H	-0.754179	-0.868491	-0.614673
H166	H	-0.254179	-0.368491	-0.114673
