data_functionalizedCrystal
_audit_creation_method	'MofGen! by Chris Wilmer'
_symmetry_space_group_name_H-M	'P1'
_symmetry_Int_Tables_number	1
_symmetry_cell_setting	triclinic
loop_
_symmetry_equiv_pos_as_xyz
  x,y,z
_cell_length_a	16.959454
_cell_length_b	16.959455
_cell_length_c	16.959447
_cell_angle_alpha	90.019044
_cell_angle_beta	89.973264
_cell_angle_gamma	89.981743
loop_
_atom_site_label
_atom_site_type_symbol
_atom_site_fract_x
_atom_site_fract_y
_atom_site_fract_z
Zn1	Zn	-0.314704	-1.208384	-0.447028
Zn2	Zn	0.185296	-0.708384	0.052972
Zn3	Zn	-0.446897	-1.208306	-0.314858
Zn4	Zn	0.053103	-0.708306	0.185142
Zn5	Zn	-0.314732	-1.076212	-0.314855
Zn6	Zn	0.185268	-0.576212	0.185145
Zn7	Zn	-0.446840	-1.076177	-0.446985
Zn8	Zn	0.053160	-0.576177	0.053015
O9	O	-0.380793	-1.142270	-0.380931
O10	O	0.119207	-0.642270	0.119069
O11	O	-0.332252	-1.318984	-0.429514
O12	O	0.167748	-0.818984	0.070486
O13	O	-0.429400	-1.190766	-0.204246
O14	O	0.070600	-0.690766	0.295754
O15	O	-0.204117	-1.093792	-0.332404
O16	O	0.295883	-0.593792	0.167596
O17	O	-0.429373	-1.318927	-0.332409
O18	O	0.070627	-0.818927	0.167591
O19	O	-0.204097	-1.190898	-0.429511
O20	O	0.295903	-0.690898	0.070489
O21	O	-0.332299	-1.093717	-0.204244
O22	O	0.167701	-0.593717	0.295756
O23	O	-0.332244	-0.965597	-0.332363
O24	O	0.167756	-0.465597	0.167637
O25	O	-0.429277	-1.093732	-0.557602
O26	O	0.070723	-0.593732	-0.057602
O27	O	-0.429304	-0.965571	-0.429439
O28	O	0.070696	-0.465571	0.070561
O29	O	-0.332197	-1.190864	-0.557633
O30	O	0.167803	-0.690864	-0.057633
O31	O	-0.557500	-1.190732	-0.332368
O32	O	-0.057500	-0.690732	0.167632
O33	O	-0.557459	-1.093657	-0.429442
O34	O	-0.057459	-0.593657	0.070558
C35	C	-0.380772	-0.936904	-0.380896
C36	C	0.119228	-0.436904	0.119104
C37	C	-0.380781	-0.849047	-0.380900
C38	C	0.119219	-0.349047	0.119100
C39	C	-0.330174	-0.807763	-0.330436
C40	C	0.169826	-0.307763	0.169564
C41	C	-0.431393	-0.807777	-0.431372
C42	C	0.068607	-0.307777	0.068628
C43	C	-0.431401	-0.725231	-0.431380
C44	C	0.068599	-0.225231	0.068620
C45	C	-0.380794	-0.683948	-0.380917
C46	C	0.119206	-0.183948	0.119083
C47	C	-0.330179	-0.725209	-0.330445
C48	C	0.169821	-0.225209	0.169555
C49	C	-0.482010	-0.683963	-0.481857
C50	C	0.017990	-0.183963	0.018143
C51	C	-0.482019	-0.601412	-0.481868
C52	C	0.017981	-0.101412	0.018132
C53	C	-0.431416	-0.560127	-0.431400
C54	C	0.068584	-0.060127	0.068600
C55	C	-0.380799	-0.601394	-0.380925
C56	C	0.119201	-0.101394	0.119075
C57	C	-0.330192	-0.560110	-0.330461
C58	C	0.169808	-0.060110	0.169539
C59	C	-0.279579	-0.601376	-0.279982
C60	C	0.220421	-0.101376	0.220018
C61	C	-0.279575	-0.683924	-0.279977
C62	C	0.220425	-0.183924	0.220023
C63	C	-0.431419	-0.477579	-0.431405
C64	C	0.068581	0.022421	0.068595
C65	C	-0.330197	-0.477557	-0.330470
C66	C	0.169803	0.022443	0.169530
C67	C	-0.586160	-1.142204	-0.380918
C68	C	-0.086160	-0.642204	0.119082
C69	C	-0.674016	-1.142248	-0.380939
C70	C	-0.174016	-0.642248	0.119061
C71	C	-1.045500	-1.091796	-0.431472
C72	C	-0.545500	-0.591796	0.068528
C73	C	-1.045483	-1.192964	-0.330471
C74	C	-0.545483	-0.692964	0.169529
C75	C	-0.962937	-1.192936	-0.330464
C76	C	-0.462937	-0.692936	0.169536
C77	C	-0.921669	-1.142337	-0.380961
C78	C	-0.421669	-0.642337	0.119039
C79	C	-0.962947	-1.091765	-0.431465
C80	C	-0.462947	-0.591765	0.068535
C81	C	-0.921654	-1.243501	-0.279955
C82	C	-0.421654	-0.743501	0.220045
C83	C	-0.839103	-1.243475	-0.279945
C84	C	-0.339103	-0.743475	0.220055
C85	C	-0.797833	-1.192879	-0.330446
C86	C	-0.297833	-0.692879	0.169554
C87	C	-0.839116	-1.142306	-0.380953
C88	C	-0.339116	-0.642306	0.119047
C89	C	-0.797847	-1.091707	-0.431450
C90	C	-0.297847	-0.591707	0.068550
C91	C	-0.839128	-1.041137	-0.481962
C92	C	-0.339128	-0.541137	0.018038
C93	C	-0.921677	-1.041170	-0.481966
C94	C	-0.421677	-0.541170	0.018034
C95	C	-0.715284	-1.192847	-0.330442
C96	C	-0.215284	-0.692847	0.169558
C97	C	-0.715294	-1.091676	-0.431443
C98	C	-0.215294	-0.591676	0.068557
C99	C	-0.174625	-1.142358	-0.380962
C100	C	0.325375	-0.642358	0.119038
C101	C	-0.086768	-1.142395	-0.380975
C102	C	0.413232	-0.642395	0.119025
C103	C	-0.380728	-1.142303	-0.587100
C104	C	0.119272	-0.642303	-0.087100
C105	C	-0.380700	-1.142317	-0.674956
C106	C	0.119300	-0.642317	-0.174956
C107	C	-0.380812	-0.348438	-0.380957
C108	C	0.119188	0.151562	0.119043
C109	C	-0.380812	-0.436295	-0.380942
C110	C	0.119188	0.063705	0.119058
C111	C	-0.431162	-1.091839	-1.046418
C112	C	0.068838	-0.591839	-0.546418
C113	C	-0.330072	-1.192983	-1.046446
C114	C	0.169928	-0.692983	-0.546446
C115	C	-0.330088	-1.192962	-0.963900
C116	C	0.169912	-0.692962	-0.463900
C117	C	-0.380643	-1.142380	-0.922609
C118	C	0.119357	-0.642380	-0.422609
C119	C	-0.431182	-1.091818	-0.963865
C120	C	0.068818	-0.591818	-0.463865
C121	C	-0.279557	-1.243529	-0.922639
C122	C	0.220443	-0.743529	-0.422639
C123	C	-0.279572	-1.243510	-0.840088
C124	C	0.220428	-0.743510	-0.340088
C125	C	-0.330124	-1.192923	-0.798795
C126	C	0.169876	-0.692923	-0.298795
C127	C	-0.380663	-1.142359	-0.840056
C128	C	0.119337	-0.642359	-0.340056
C129	C	-0.431218	-1.091776	-0.798765
C130	C	0.068782	-0.591776	-0.298765
C131	C	-0.481755	-1.041207	-0.840024
C132	C	0.018245	-0.541207	-0.340024
C133	C	-0.481733	-1.041231	-0.922573
C134	C	0.018267	-0.541231	-0.422573
C135	C	-0.330145	-1.192899	-0.716247
C136	C	0.169855	-0.692899	-0.216247
C137	C	-0.431238	-1.091755	-0.716212
C138	C	0.068762	-0.591755	-0.216212
C139	C	-0.380801	-1.142283	-0.175565
C140	C	0.119199	-0.642283	0.324435
C141	C	-0.380607	-1.142422	-0.087709
C142	C	0.119393	-0.642422	0.412291
H143	H	-0.288969	-0.841365	-0.289335
H144	H	0.211031	-0.341365	0.210665
H145	H	-0.472305	-1.050665	-1.080015
H146	H	0.027695	-0.550665	-0.580015
C147	C	-1.070862	-1.053221	-0.565285
C148	C	-0.570862	-0.553221	-0.065285
C149	C	-1.090873	-1.036214	-0.486994
C150	C	-0.590873	-0.536214	0.013006
H151	H	-1.098878	-1.018909	-0.599561
H152	H	-0.598878	-0.518909	-0.099561
H153	H	-1.015799	-1.045957	-0.572499
H154	H	-0.515799	-0.545957	-0.072499
H155	H	-1.084349	-1.106330	-0.576896
H156	H	-0.584349	-0.606330	-0.076896
H157	H	-1.077381	-0.983107	-0.475381
H158	H	-0.577381	-0.483107	0.024619
H159	H	-1.145948	-1.043472	-0.479777
H160	H	-0.645948	-0.543472	0.020223
H161	H	-0.522880	-1.000063	-0.956173
H162	H	-0.022880	-0.500063	-0.456173
C163	C	-0.179639	-1.343486	-0.848416
C164	C	0.320361	-0.843486	-0.348416
C165	C	-0.224017	-1.299086	-0.794740
C166	C	0.275983	-0.799086	-0.294740
H167	H	-0.145338	-1.377791	-0.820417
H168	H	0.354662	-0.877791	-0.320417
H169	H	-0.214074	-1.373717	-0.880601
H170	H	0.285926	-0.873717	-0.380601
H171	H	-0.149399	-1.309060	-0.880623
H172	H	0.350601	-0.809060	-0.380623
H173	H	-0.254262	-1.333513	-0.762536
H174	H	0.245738	-0.833513	-0.262536
H175	H	-0.189578	-1.268853	-0.762541
H176	H	0.310422	-0.768853	-0.262541
C177	C	-0.268465	-0.776727	-0.173674
C178	C	0.231535	-0.276727	0.326326
C179	C	-0.223943	-0.729290	-0.224501
C180	C	0.276057	-0.229290	0.275499
H181	H	-0.234118	-0.804740	-0.139431
H182	H	0.265882	-0.304740	0.360569
H183	H	-0.302860	-0.744503	-0.143382
H184	H	0.197140	-0.244503	0.356618
H185	H	-0.298604	-0.813118	-0.203740
H186	H	0.201396	-0.313118	0.296260
H187	H	-0.193809	-0.692894	-0.194435
H188	H	0.306191	-0.192894	0.305565
H189	H	-0.189535	-0.761516	-0.254796
H190	H	0.310465	-0.261516	0.245204
H191	H	-0.805497	-1.284651	-0.238817
H192	H	-0.305497	-0.784651	0.261183
C193	C	-0.285164	-1.237927	-1.172999
C194	C	0.214836	-0.737927	-0.672999
C195	C	-0.274506	-1.248584	-1.091831
C196	C	0.225494	-0.748584	-0.591831
H197	H	-0.250854	-1.272252	-1.201018
H198	H	0.249146	-0.772252	-0.701018
H199	H	-0.338265	-1.249477	-1.186507
H200	H	0.161735	-0.749477	-0.686507
H201	H	-0.273585	-1.184825	-1.186520
H202	H	0.226415	-0.684825	-0.686520
H203	H	-0.286090	-1.301685	-1.078309
H204	H	0.213910	-0.801685	-0.578309
H205	H	-0.221393	-1.237040	-1.078317
H206	H	0.278607	-0.737040	-0.578317
H207	H	-1.079089	-1.234154	-0.289354
H208	H	-0.579089	-0.734154	0.210646
C209	C	-0.234653	-0.474822	-0.235183
C210	C	0.265347	0.025178	0.264817
C211	C	-0.223956	-0.555990	-0.224509
C212	C	0.276044	-0.055990	0.275491
H213	H	-0.200318	-0.446803	-0.200932
H214	H	0.299682	0.053197	0.299068
H215	H	-0.223141	-0.461330	-0.288306
H216	H	0.276859	0.038670	0.211694
H217	H	-0.287753	-0.461285	-0.223535
H218	H	0.212247	0.038715	0.276465
H219	H	-0.170856	-0.569528	-0.236163
H220	H	0.329144	-0.069528	0.263837
H221	H	-0.235462	-0.569488	-0.171374
H222	H	0.264538	-0.069488	0.328626
H223	H	-0.955295	-0.999998	-0.523089
H224	H	-0.455295	-0.499998	-0.023089
H225	H	-0.681698	-1.050475	-0.472567
H226	H	-0.181698	-0.550475	0.027433
H227	H	-0.289001	-1.234074	-0.682658
H228	H	0.210999	-0.734074	-0.182658
H229	H	-0.681677	-1.234016	-0.289312
H230	H	-0.181677	-0.734016	0.210688
H231	H	-0.288987	-0.443949	-0.289374
H232	H	0.211013	0.056051	0.210626
H233	H	-0.472592	-0.841396	-0.472461
H234	H	0.027408	-0.341396	0.027539
H235	H	-0.472400	-1.050557	-0.682599
H236	H	0.027600	-0.550557	-0.182599
H237	H	-0.238403	-1.284715	-0.956263
H238	H	0.261597	-0.784715	-0.456263
H239	H	-0.955260	-1.284690	-0.238837
H240	H	-0.455260	-0.784690	0.261163
C241	C	-0.537759	-0.384724	-0.442236
C242	C	-0.037759	0.115276	0.057764
C243	C	-0.487045	-0.432221	-0.486890
C244	C	0.012955	0.067779	0.013110
H245	H	-0.572098	-0.356721	-0.476494
H246	H	-0.072098	0.143279	0.023506
H247	H	-0.567952	-0.416906	-0.407755
H248	H	-0.067952	0.083094	0.092245
H249	H	-0.507617	-0.348324	-0.412184
H250	H	-0.007617	0.151676	0.087816
H251	H	-0.517187	-0.468626	-0.516937
H252	H	-0.017187	0.031374	-0.016937
H253	H	-0.456848	-0.400037	-0.521384
H254	H	0.043152	0.099963	-0.021384
H255	H	-0.805518	-0.999936	-0.523073
H256	H	-0.305518	-0.499936	-0.023073
C257	C	-0.493105	-0.776853	-0.588137
C258	C	0.006895	-0.276853	-0.088137
C259	C	-0.537633	-0.729347	-0.537321
C260	C	-0.037633	-0.229347	-0.037321
H261	H	-0.527448	-0.804878	-0.622374
H262	H	-0.027448	-0.304878	-0.122374
H263	H	-0.458713	-0.744675	-0.618435
H264	H	0.041287	-0.244675	-0.118435
H265	H	-0.462964	-0.813234	-0.558062
H266	H	0.037036	-0.313234	-0.058062
H267	H	-0.567770	-0.692962	-0.567395
H268	H	-0.067770	-0.192962	-0.067395
H269	H	-0.572039	-0.761529	-0.507020
H270	H	-0.072039	-0.261529	-0.007020
C271	C	-0.582080	-0.609727	-0.581632
C272	C	-0.082080	-0.109727	-0.081632
C273	C	-0.537661	-0.556057	-0.537344
C274	C	-0.037661	-0.056057	-0.037344
H275	H	-0.616436	-0.581724	-0.615874
H276	H	-0.116436	-0.081724	-0.115874
H277	H	-0.547675	-0.641939	-0.611924
H278	H	-0.047675	-0.141939	-0.111924
H279	H	-0.612265	-0.641909	-0.547131
H280	H	-0.112265	-0.141909	-0.047131
H281	H	-0.507471	-0.523880	-0.571844
H282	H	-0.007471	-0.023880	-0.071844
H283	H	-0.572070	-0.523832	-0.507049
H284	H	-0.072070	-0.023832	-0.007049
C285	C	-0.526666	-0.996275	-0.713465
C286	C	-0.026666	-0.496275	-0.213465
C287	C	-0.537323	-0.985607	-0.794632
C288	C	-0.037323	-0.485607	-0.294632
H289	H	-0.560968	-0.961947	-0.685441
H290	H	-0.060968	-0.461947	-0.185441
H291	H	-0.538247	-1.049370	-0.699950
H292	H	-0.038247	-0.549370	-0.199950
H293	H	-0.473556	-0.984729	-0.699956
H294	H	0.026444	-0.484729	-0.199956
H295	H	-0.590432	-0.997159	-0.808141
H296	H	-0.090432	-0.497159	-0.308141
H297	H	-0.525748	-0.932500	-0.808152
H298	H	-0.025748	-0.432500	-0.308152
