data_functionalizedCrystal
_audit_creation_method	'MofGen! by Chris Wilmer'
_symmetry_space_group_name_H-M	'P1'
_symmetry_Int_Tables_number	1
_symmetry_cell_setting	triclinic
loop_
_symmetry_equiv_pos_as_xyz
  x,y,z
_cell_length_a	14.044220
_cell_length_b	11.026607
_cell_length_c	12.503572
_cell_angle_alpha	85.701682
_cell_angle_beta	93.835250
_cell_angle_gamma	100.887447
loop_
_atom_site_label
_atom_site_type_symbol
_atom_site_fract_x
_atom_site_fract_y
_atom_site_fract_z
O1	O	-1.312909	-0.291527	-0.089196
O2	O	-0.812909	0.208473	0.410804
O3	O	-1.035106	-0.280770	-0.089224
O4	O	-0.535106	0.219230	0.410776
O5	O	-1.150983	-0.107003	-0.089208
O6	O	-0.650983	0.392997	0.410792
O7	O	-1.197032	-0.465294	-0.089211
O8	O	-0.697032	0.034706	0.410789
O9	O	-1.142273	-0.120095	0.089433
O10	O	-0.642273	0.379905	0.589433
O11	O	-1.026395	-0.293861	0.089417
O12	O	-0.526395	0.206139	0.589417
O13	O	-1.304198	-0.304619	0.089445
O14	O	-0.804198	0.195381	0.589445
Cu15	Cu	-1.164501	-0.300436	0.105742
Cu16	Cu	-0.664501	0.199564	0.605742
Cu17	Cu	-1.174803	-0.284953	-0.105521
Cu18	Cu	-0.674803	0.215047	0.394479
O19	O	-1.188321	-0.478386	0.089429
O20	O	-0.688321	0.021614	0.589429
C21	C	-0.994633	-0.282607	0.000093
C22	C	-0.494633	0.217393	0.500093
C23	C	-0.887011	-0.268562	0.000082
C24	C	-0.387011	0.231438	0.500082
C25	C	-1.138133	-0.067419	0.000110
C26	C	-0.638133	0.432581	0.500110
C27	C	-1.112809	0.070037	0.000104
C28	C	-0.612809	0.570037	0.500104
C29	C	-1.344671	-0.302782	0.000126
C30	C	-0.844671	0.197218	0.500126
C31	C	-1.452293	-0.316826	0.000129
C32	C	-0.952293	0.183174	0.500129
C33	C	-0.689968	-0.242889	0.000104
C34	C	-0.189968	0.257111	0.500104
C35	C	-0.649330	-0.342494	0.000108
C36	C	-0.149330	0.157506	0.500108
C37	C	-0.539689	-0.328209	0.000120
C38	C	-0.039689	0.171791	0.500120
C39	C	-0.799619	-0.257172	0.000092
C40	C	-0.299619	0.242828	0.500092
C41	C	-1.201172	-0.517970	0.000109
C42	C	-0.701172	-0.017970	0.500109
C43	C	-1.226496	-0.655425	0.000108
C44	C	-0.726496	-0.155425	0.500108
N45	N	-1.157263	-0.311325	0.254334
N46	N	-0.657263	0.188675	0.754334
C47	C	-1.182733	0.136273	0.000109
C48	C	-0.682733	0.636273	0.500109
C49	C	-1.156561	0.278341	0.000103
C50	C	-0.656561	0.778341	0.500103
N51	N	-1.182047	-0.274054	-0.254112
N52	N	-0.682047	0.225946	0.245888
C53	C	-1.146617	-0.327355	0.473447
C54	C	-0.646617	0.172645	0.973447
C55	C	-1.192691	-0.258029	0.526781
C56	C	-0.692691	0.241971	1.026781
C57	C	-1.186767	-0.266948	0.648703
C58	C	-0.686767	0.233052	1.148703
C59	C	-1.152539	-0.318437	0.351514
C60	C	-0.652539	0.181563	0.851514
H61	H	-0.696883	-0.438496	0.000102
H62	H	-0.196883	0.061504	0.500102
C63	C	-1.333555	0.279108	0.000120
C64	C	-0.833555	0.779108	0.500120
N65	N	-1.414190	0.229798	0.000130
N66	N	-0.914190	0.729798	0.500130
H67	H	-1.102726	-0.393402	0.519349
H68	H	-0.602726	0.106598	1.019349
C69	C	-1.005756	0.135511	0.000095
C70	C	-0.505756	0.635511	0.500095
N71	N	-0.925121	0.184824	0.000091
N72	N	-0.425121	0.684824	0.500091
H73	H	-1.236587	-0.191979	0.480874
H74	H	-0.736587	0.308021	0.980874
H75	H	-1.261973	0.087803	0.000124
H76	H	-0.761973	0.587803	0.500124
H77	H	-0.642418	-0.146894	0.000111
H78	H	-0.142418	0.353106	0.500111
H79	H	-1.077316	0.326806	0.000088
H80	H	-0.577316	0.826806	0.500088
