data_functionalizedCrystal
_audit_creation_method	'MofGen! by Chris Wilmer'
_symmetry_space_group_name_H-M	'P1'
_symmetry_Int_Tables_number	1
_symmetry_cell_setting	triclinic
loop_
_symmetry_equiv_pos_as_xyz
  x,y,z
_cell_length_a	17.699083
_cell_length_b	17.699083
_cell_length_c	16.776229
_cell_angle_alpha	89.992455
_cell_angle_beta	89.998886
_cell_angle_gamma	83.283015
loop_
_atom_site_label
_atom_site_type_symbol
_atom_site_fract_x
_atom_site_fract_y
_atom_site_fract_z
O1	O	1.004078	0.095713	-0.066178
O2	O	0.783700	0.108165	-0.066204
O3	O	0.900116	-0.008250	-0.066183
O4	O	0.887663	0.212128	-0.066199
O5	O	0.900100	-0.008257	0.066393
O6	O	0.783685	0.108158	0.066372
O7	O	1.004063	0.095706	0.066398
Zn8	Zn	0.893871	0.101931	0.087435
Zn9	Zn	0.893892	0.101940	-0.087241
O10	O	0.887648	0.212121	0.066378
C11	C	0.755495	0.107716	0.000081
C12	C	0.671477	0.106377	0.000071
C13	C	0.899662	-0.036451	0.000105
C14	C	0.898323	-0.120469	0.000105
C15	C	0.622856	0.174710	0.000066
C16	C	0.543913	0.173448	0.000077
C17	C	0.513592	0.103852	0.000086
C18	C	0.562219	0.035513	0.000093
C19	C	0.641161	0.036776	0.000088
C20	C	0.243856	0.030418	0.000113
C21	C	0.164908	0.029160	0.000115
C22	C	0.146608	0.167090	0.000101
C23	C	0.225550	0.168353	0.000097
C24	C	0.274170	0.100015	0.000108
C25	C	0.359769	0.101384	0.000098
C26	C	0.427995	0.102481	0.000090
C27	C	0.966656	-0.169090	0.000114
C28	C	0.965394	-0.248033	0.000107
C29	C	0.895798	-0.278354	0.000096
C30	C	0.827459	-0.229727	0.000085
C31	C	0.828722	-0.150785	0.000086
C32	C	0.822364	-0.548090	0.000078
C33	C	0.821106	-0.627038	0.000078
C34	C	0.959036	-0.645338	0.000099
C35	C	0.960299	-0.566396	0.000100
C36	C	0.891961	-0.517776	0.000084
C37	C	0.893330	-0.432177	0.000090
C38	C	0.894427	-0.363951	0.000096
C39	C	1.032268	0.096156	0.000112
C40	C	1.116286	0.097494	0.000116
C41	C	0.888102	0.240322	0.000087
C42	C	0.889440	0.324340	0.000082
N43	N	0.893863	0.101924	0.206646
N44	N	0.893906	0.101941	-0.206452
C45	C	0.945428	0.050396	0.248372
C46	C	0.945432	0.050396	0.331824
C47	C	0.893875	0.101927	0.373549
C48	C	0.842305	0.153457	0.331817
C49	C	0.842297	0.153454	0.248366
C50	C	0.842332	0.153472	0.668364
C51	C	0.842345	0.153473	0.751820
C52	C	0.945466	0.050414	0.751822
C53	C	0.945459	0.050411	0.668372
C54	C	0.893887	0.101938	0.626647
C55	C	0.893882	0.101937	0.536158
C56	C	0.893882	0.101932	0.464036
H57	H	0.647537	0.231384	0.000058
H58	H	0.680748	-0.018868	0.000091
C59	C	1.002155	-0.006281	0.377728
C60	C	1.058889	-0.062946	0.331840
C61	C	1.115614	-0.119626	0.377745
C62	C	1.115604	-0.119640	0.469537
C63	C	1.058867	-0.062972	0.515430
C64	C	1.002142	-0.006293	0.469525
H65	H	1.058899	-0.062938	0.263885
H66	H	1.157614	-0.161575	0.343771
H67	H	1.157594	-0.161597	0.503519
H68	H	1.058857	-0.062981	0.583385
H69	H	0.960142	0.035656	0.503499
C70	C	1.002192	-0.006274	0.797721
C71	C	1.002204	-0.006281	0.889513
C72	C	1.058931	-0.062966	0.935409
C73	C	1.115645	-0.119645	0.889512
C74	C	1.115635	-0.119640	0.797714
C75	C	1.058909	-0.062955	0.751819
H76	H	0.960219	0.035677	0.923494
H77	H	1.058938	-0.062969	1.003364
H78	H	1.157637	-0.161606	0.923487
H79	H	1.157620	-0.161598	0.763734
H80	H	1.058902	-0.062952	0.683864
H81	H	0.250232	0.225025	0.000085
H82	H	0.107012	0.222734	0.000097
H83	H	0.283434	-0.025228	0.000123
C84	C	0.785612	0.210154	0.622469
C85	C	0.728923	0.266863	0.668360
C86	C	0.672202	0.323548	0.622460
C87	C	0.672169	0.323525	0.530667
C88	C	0.728860	0.266815	0.484770
C89	C	0.785581	0.210130	0.530671
H90	H	0.728945	0.266881	0.736315
H91	H	0.630236	0.365529	0.656436
H92	H	0.630181	0.365488	0.496688
H93	H	0.728838	0.266796	0.416816
H94	H	0.827548	0.168149	0.496695
C95	C	1.002142	-0.006290	0.202480
C96	C	0.972676	-0.064140	0.145124
C97	C	1.029391	-0.120830	0.099234
C98	C	1.115572	-0.119671	0.110701
C99	C	1.145043	-0.061819	0.168060
C100	C	1.088328	-0.005129	0.213949
H101	H	0.908876	-0.065000	0.136633
H102	H	1.007574	-0.163656	0.056773
H103	H	1.157556	-0.161637	0.076731
H104	H	1.208843	-0.060959	0.176550
H105	H	1.110145	0.037697	0.256410
H106	H	0.537526	-0.021154	0.000112
C107	C	1.040562	-0.301516	0.000117
C108	C	1.117117	-0.268166	0.000135
C109	C	1.192289	-0.321649	0.000142
C110	C	1.190906	-0.408483	0.000132
C111	C	1.114348	-0.441838	0.000115
C112	C	1.039177	-0.388354	0.000108
H113	H	1.118143	-0.203882	0.000142
H114	H	1.248962	-0.296958	0.000155
H115	H	1.246552	-0.448075	0.000138
H116	H	1.113322	-0.506121	0.000108
H117	H	0.982504	-0.413046	0.000095
H118	H	0.800308	0.195412	0.214393
H119	H	0.140225	-0.027517	0.000124
C120	C	0.747196	-0.494611	0.000069
C121	C	0.729091	-0.437829	0.068909
C122	C	0.653920	-0.384344	0.068902
C123	C	0.596855	-0.387640	0.000055
C124	C	0.614959	-0.444424	-0.068791
C125	C	0.690129	-0.497909	-0.068784
H126	H	0.771335	-0.435387	0.119879
H127	H	0.640519	-0.342308	0.119867
H128	H	0.541209	-0.348047	0.000050
H129	H	0.572714	-0.446866	-0.119760
H130	H	0.703531	-0.539944	-0.119748
H131	H	0.770792	-0.254420	0.000071
H132	H	0.504328	0.229092	0.000072
C133	C	0.785624	0.210157	0.797719
C134	C	0.699443	0.208984	0.786266
C135	C	0.642726	0.265664	0.832165
C136	C	0.672191	0.323517	0.889519
C137	C	0.758376	0.324692	0.900975
C138	C	0.815093	0.268012	0.855075
H139	H	0.677628	0.166156	0.743807
H140	H	0.578926	0.264794	0.823684
H141	H	0.630206	0.365475	0.923496
H142	H	0.780191	0.367520	0.943434
H143	H	0.878893	0.268882	0.863556
H144	H	1.023330	-0.144409	0.000128
H145	H	1.016971	-0.541714	0.000113
H146	H	1.014680	-0.684934	0.000107
H147	H	0.773078	-0.111198	0.000078
H148	H	0.764429	-0.651721	0.000071
H149	H	0.987444	0.008452	0.634402
H150	H	0.800322	0.195412	0.365793
