data_functionalizedCrystal
_audit_creation_method	'MofGen! by Chris Wilmer'
_symmetry_space_group_name_H-M	'P1'
_symmetry_Int_Tables_number	1
_symmetry_cell_setting	triclinic
loop_
_symmetry_equiv_pos_as_xyz
  x,y,z
_cell_length_a	15.944551
_cell_length_b	10.489741
_cell_length_c	8.965430
_cell_angle_alpha	90.005579
_cell_angle_beta	90.001634
_cell_angle_gamma	95.981044
loop_
_atom_site_label
_atom_site_type_symbol
_atom_site_fract_x
_atom_site_fract_y
_atom_site_fract_z
O1	O	0.118503	-1.692398	0.123951
O2	O	0.129626	-1.321048	0.123974
O3	O	0.001851	-1.516864	0.123948
O4	O	0.246278	-1.496582	0.123977
O5	O	0.001855	-1.516873	-0.124130
O6	O	0.129630	-1.321057	-0.124105
O7	O	0.118507	-1.692407	-0.124128
Cu8	Cu	0.124069	-1.506733	-0.146768
Cu9	Cu	0.124064	-1.506722	0.146614
O10	O	0.246282	-1.496591	-0.124102
C11	C	0.128788	-1.273532	-0.000062
C12	C	0.126275	-1.131938	-0.000054
C13	C	-0.029446	-1.516026	-0.000091
C14	C	-0.122708	-1.513502	-0.000092
N15	N	0.124072	-1.506750	-0.353117
C16	C	-0.338330	-1.386093	-0.000063
C17	C	-0.398990	-1.445262	-0.122385
C18	C	-0.293461	-1.508935	-0.000080
C19	C	-0.398977	-1.445282	0.122201
C20	C	-0.458400	-1.504515	-0.000062
C21	C	-0.352892	-1.568138	-0.122503
C22	C	-0.352873	-1.568141	0.122193
C23	C	-0.413515	-1.627399	-0.000158
C24	C	-0.198443	-1.511478	-0.000092
C25	C	-0.553417	-1.501982	-0.000061
C26	C	0.277579	-1.497429	-0.000059
C27	C	0.370841	-1.499953	-0.000049
C28	C	0.119345	-1.739922	-0.000088
C29	C	0.121858	-1.881517	-0.000087
C30	C	0.044975	-1.064925	-0.000077
C31	C	0.083378	-0.972261	0.122240
C32	C	0.083401	-0.972304	-0.122346
C33	C	0.164711	-1.041139	0.122364
C34	C	0.164723	-1.041191	-0.122332
C35	C	0.203186	-0.948554	0.000015
C36	C	0.064984	-1.597337	-0.450395
C37	C	0.047972	-1.482077	-0.549794
C38	C	0.141029	-1.621965	-0.549845
C39	C	0.107022	-1.391432	-0.450327
C40	C	0.200112	-1.531395	-0.450370
C41	C	0.183132	-1.416052	-0.549724
N42	N	0.124055	-1.506715	0.352963
H43	H	-0.305636	-1.284128	-0.000179
N44	N	0.160040	-1.751047	-0.607740
H45	H	0.217046	-1.770381	-0.570020
H46	H	0.160388	-1.749746	-0.720379
H47	H	-0.332432	-1.620050	0.225606
H48	H	-0.419368	-1.393304	0.225622
N49	N	-0.426032	-1.376461	-0.259373
H50	H	-0.398417	-1.285324	-0.259283
H51	H	-0.489347	-1.376091	-0.258786
H52	H	-0.332588	-1.620056	-0.226030
H53	H	0.233096	-1.339347	-0.593062
N54	N	-0.043569	-1.131911	0.000050
H55	H	-0.074170	-1.107030	0.092526
H56	H	-0.041186	-1.227743	-0.000951
N57	N	0.087915	-1.262316	-0.392686
H58	H	0.088014	-1.263137	-0.280036
H59	H	0.030676	-1.243556	-0.429840
N60	N	-0.456629	-1.762577	-0.000243
H61	H	-0.439877	-1.808800	-0.092674
H62	H	-0.519773	-1.760039	0.000691
H63	H	0.048977	-0.941720	0.225644
N64	N	0.285275	-1.559079	-0.392462
H65	H	0.298039	-1.646192	-0.428595
H66	H	0.284743	-1.557977	-0.279824
H67	H	0.270090	-0.898203	0.000090
N68	N	0.210257	-1.081653	-0.259324
H69	H	0.171174	-1.143791	-0.319559
H70	H	0.261360	-1.124430	-0.228065
N71	N	0.210240	-1.081322	0.259502
H72	H	0.211635	-1.177360	0.258692
H73	H	0.179732	-1.055585	0.351694
N74	N	0.037825	-0.931899	-0.259326
H75	H	-0.021934	-0.974669	-0.259215
H76	H	0.067997	-0.958197	-0.351631
N77	N	-0.001231	-1.698721	-0.392617
H78	H	-0.058658	-1.679918	-0.428786
H79	H	-0.000323	-1.698519	-0.279978
H80	H	-0.016341	-1.461208	-0.593468
