data_functionalizedCrystal
_audit_creation_method	'MofGen! by Chris Wilmer'
_symmetry_space_group_name_H-M	'P1'
_symmetry_Int_Tables_number	1
_symmetry_cell_setting	triclinic
loop_
_symmetry_equiv_pos_as_xyz
  x,y,z
_cell_length_a	19.188933
_cell_length_b	19.188924
_cell_length_c	9.130313
_cell_angle_alpha	89.996698
_cell_angle_beta	90.001191
_cell_angle_gamma	83.143767
loop_
_atom_site_label
_atom_site_type_symbol
_atom_site_fract_x
_atom_site_fract_y
_atom_site_fract_z
O1	O	0.926138	0.087171	-0.121757
O2	O	0.722826	0.098904	-0.121772
O3	O	0.830352	-0.008618	-0.121747
O4	O	0.818612	0.194694	-0.121782
O5	O	0.830350	-0.008615	0.121852
O6	O	0.722825	0.098907	0.121827
O7	O	0.926136	0.087174	0.121842
Cu8	Cu	0.824481	0.093041	0.144077
Cu9	Cu	0.824482	0.093037	-0.144007
O10	O	0.818611	0.194696	0.121817
C11	C	0.696815	0.098525	0.000026
C12	C	0.619310	0.097384	0.000021
C13	C	0.066056	0.089237	-0.132747
C14	C	0.138880	0.090305	-0.132753
C15	C	0.175296	0.090844	0.000032
C16	C	0.138885	0.090297	0.132833
C17	C	0.066063	0.089222	0.132835
N18	N	0.284315	0.132264	0.098863
N19	N	0.353492	0.133287	0.098852
C20	C	0.394705	0.094082	0.000034
N21	N	0.364125	0.053825	-0.098795
N22	N	0.294941	0.052805	-0.098788
C23	C	0.254260	0.092010	0.000045
C24	C	0.510073	0.095783	-0.132765
C25	C	0.582899	0.096846	-0.132765
C26	C	0.582901	0.096845	0.132825
C27	C	0.510077	0.095774	0.132821
C28	C	0.473667	0.095246	0.000022
C29	C	0.829972	-0.034628	0.000054
C30	C	0.828833	-0.112133	0.000058
C31	C	0.828302	-0.148533	-0.132728
C32	C	0.827222	-0.221356	-0.132739
C33	C	0.826687	-0.257777	0.000043
C34	C	0.827214	-0.221367	0.132847
C35	C	0.828287	-0.148545	0.132854
N36	N	0.864734	-0.377439	0.098873
N37	N	0.863717	-0.446617	0.098856
C38	C	0.823453	-0.477186	0.000029
N39	N	0.784254	-0.435965	-0.098805
N40	N	0.785275	-0.366781	-0.098793
C41	C	0.825523	-0.336741	0.000050
C42	C	0.821750	-0.592549	-0.132779
C43	C	0.820666	-0.665373	-0.132784
C44	C	0.820665	-0.665384	0.132805
C45	C	0.821742	-0.592561	0.132807
C46	C	0.822288	-0.556149	0.000011
C47	C	0.952148	0.087553	0.000041
C48	C	1.029653	0.088694	0.000036
C49	C	0.818991	0.220706	0.000013
C50	C	0.820130	0.298211	-0.000001
N51	N	0.824485	0.093043	0.346700
N52	N	0.824484	0.093030	-0.346630
C53	C	0.872109	0.045448	0.423363
C54	C	0.872107	0.045439	0.576699
C55	C	0.776855	0.140627	0.576697
C56	C	0.776854	0.140632	0.423363
C57	C	0.927104	-0.009506	0.423365
C58	C	0.927102	-0.009514	0.576702
H59	H	0.828745	-0.118890	-0.240861
O60	O	0.474762	0.095360	-0.261849
C61	C	0.484449	0.156086	-0.342622
H62	H	0.534627	0.177016	-0.304873
H63	H	0.488754	0.142528	-0.464101
H64	H	0.437799	0.197817	-0.324210
H65	H	0.612538	0.097283	-0.240898
O66	O	0.987339	0.010176	0.366814
C67	C	0.995475	0.078599	0.414639
H68	H	0.964415	0.090422	0.519982
H69	H	1.053394	0.082636	0.435944
H70	H	0.975198	0.118066	0.326665
H71	H	0.820230	-0.695008	-0.240919
O72	O	0.828901	-0.113119	0.261757
C73	C	0.889988	-0.079108	0.269731
H74	H	0.910306	-0.070893	0.154442
H75	H	0.877147	-0.026081	0.325935
H76	H	0.931904	-0.112846	0.335265
H77	H	0.822191	-0.562900	-0.240909
O78	O	0.820017	-0.700700	0.261838
C79	C	0.759830	-0.674792	0.342616
H80	H	0.717876	-0.649116	0.264903
H81	H	0.738825	-0.719961	0.402857
H82	H	0.774121	-0.634350	0.425407
O83	O	0.822144	-0.557152	0.261761
C84	C	0.762319	-0.506923	0.269698
H85	H	0.719740	-0.523205	0.194340
H86	H	0.742040	-0.503386	0.387143
H87	H	0.776802	-0.453560	0.234031
O88	O	0.907496	-0.069785	0.633257
C89	C	0.839089	-0.078010	0.585456
H90	H	0.827214	-0.046956	0.480117
H91	H	0.835126	-0.135943	0.564154
H92	H	0.799612	-0.057785	0.673443
H93	H	0.980621	0.001819	0.618320
O94	O	0.618356	0.097274	0.261722
C95	C	0.668559	0.037429	0.269688
H96	H	0.682166	0.017437	0.154395
H97	H	0.717948	0.051777	0.325891
H98	H	0.646160	-0.005319	0.335217
O99	O	0.826579	-0.256750	-0.261683
C100	C	0.765511	-0.290794	-0.269595
H101	H	0.723579	-0.263182	-0.194259
H102	H	0.745208	-0.288916	-0.387043
H103	H	0.778365	-0.347810	-0.233884
H104	H	0.738068	0.179381	0.360945
O105	O	0.174152	0.090789	0.261952
C106	C	0.126399	0.090097	0.379156
H107	H	0.077448	0.067231	0.340229
H108	H	0.151981	0.056516	0.472028
H109	H	0.111155	0.145982	0.419986
O110	O	0.826599	-0.256807	0.261740
C111	C	0.765515	-0.290823	0.269688
H112	H	0.745203	-0.299031	0.154390
H113	H	0.778356	-0.343854	0.325889
H114	H	0.723593	-0.257093	0.335210
H115	H	0.480437	0.095334	0.240948
O116	O	0.730494	0.186784	0.651107
C117	C	0.661419	0.175613	0.613601
H118	H	0.661257	0.119714	0.571441
H119	H	0.626354	0.183722	0.714436
H120	H	0.640790	0.214368	0.524600
O121	O	0.030756	0.088810	-0.261839
C122	C	0.040438	0.149536	-0.342615
H123	H	0.090610	0.170476	-0.304854
H124	H	0.044754	0.135975	-0.464092
H125	H	-0.006218	0.191262	-0.324220
O126	O	0.174318	0.090933	-0.261649
C127	C	0.208328	0.152022	-0.269588
H128	H	0.216533	0.172330	-0.154288
H129	H	0.261359	0.139189	-0.325781
H130	H	0.174593	0.193945	-0.335115
H131	H	0.036423	0.088782	0.240967
H132	H	0.915815	-0.063037	0.381754
