data_functionalizedCrystal
_audit_creation_method	'MofGen! by Chris Wilmer'
_symmetry_space_group_name_H-M	'P1'
_symmetry_Int_Tables_number	1
_symmetry_cell_setting	triclinic
loop_
_symmetry_equiv_pos_as_xyz
  x,y,z
_cell_length_a	19.077105
_cell_length_b	18.215406
_cell_length_c	18.215399
_cell_angle_alpha	89.984834
_cell_angle_beta	87.683200
_cell_angle_gamma	87.697670
loop_
_atom_site_label
_atom_site_type_symbol
_atom_site_fract_x
_atom_site_fract_y
_atom_site_fract_z
Zn1	Zn	1.076119	-0.338271	-0.461340
Zn2	Zn	1.076081	-0.461341	-0.338299
Zn3	Zn	0.958420	-0.333342	-0.333348
Zn4	Zn	0.958436	-0.456349	-0.456387
O5	O	1.017264	-0.397325	-0.397343
O6	O	1.174607	-0.358748	-0.449163
O7	O	1.060450	-0.444387	-0.234657
O8	O	0.974042	-0.231012	-0.350327
O9	O	1.174579	-0.449167	-0.358766
O10	O	1.060515	-0.234633	-0.444362
O11	O	0.974005	-0.350347	-0.231019
O12	O	0.859929	-0.345507	-0.345525
O13	O	0.974070	-0.440659	-0.560029
O14	O	0.859942	-0.435879	-0.435921
O15	O	1.060532	-0.353908	-0.563668
O16	O	1.060467	-0.563662	-0.353963
O17	O	0.974033	-0.559995	-0.440722
C18	C	0.834397	-0.389617	-0.389649
C19	C	0.756166	-0.386337	-0.386374
C20	C	1.017267	-0.588532	-0.397360
C21	C	1.017332	-0.670333	-0.397394
C22	C	1.017307	-0.397276	-0.589298
C23	C	1.017325	-0.397256	-0.671098
C24	C	0.719438	-0.431919	-0.431826
C25	C	0.645931	-0.428828	-0.428753
C26	C	0.609155	-0.380157	-0.380223
C27	C	0.645888	-0.334570	-0.334769
C28	C	0.719393	-0.337658	-0.337847
C29	C	0.389315	-0.365864	-0.365984
C30	C	0.315805	-0.362780	-0.362909
C31	C	0.315853	-0.457037	-0.456894
C32	C	0.389360	-0.460125	-0.459964
C33	C	0.426087	-0.414535	-0.414513
N34	N	0.534019	-0.376997	-0.377079
N35	N	0.501221	-0.417691	-0.417661
C36	C	1.200845	-0.405064	-0.405069
C37	C	1.279076	-0.408362	-0.408361
C38	C	1.017281	-0.205373	-0.397344
C39	C	1.017288	-0.123575	-0.397345
C40	C	0.972283	0.066505	-0.348408
C41	C	0.972289	0.143364	-0.348417
C42	C	1.062339	0.139581	-0.446336
C43	C	1.062329	0.062724	-0.446329
C44	C	1.017302	0.026188	-0.397361
C45	C	1.017318	0.179904	-0.397377
C46	C	1.017325	0.263237	-0.397387
C47	C	1.017294	-0.057150	-0.397352
C48	C	1.062362	-0.352041	-0.861188
C49	C	1.062370	-0.352020	-0.938048
C50	C	0.972339	-0.442359	-0.934248
C51	C	0.972327	-0.442375	-0.857390
C52	C	1.017343	-0.397218	-0.820862
C53	C	1.017363	-0.397180	-0.974579
C54	C	1.017371	-0.397157	-1.057913
C55	C	1.017333	-0.397239	-0.737523
C56	C	1.017262	-0.397323	-0.206137
C57	C	1.017380	-0.397142	-0.124344
H58	H	0.749376	-0.471555	-0.471342
H59	H	0.616030	-0.465946	-0.465765
H60	H	0.419298	-0.499759	-0.499480
C61	C	1.111874	-0.302360	-0.821011
N62	N	1.149166	-0.264935	-0.790751
C63	C	0.922759	0.187709	-0.294570
N64	N	0.885448	0.221110	-0.254013
H65	H	1.098999	0.169337	-0.486203
H66	H	0.419209	-0.328747	-0.328969
C67	C	0.922798	-0.492073	-0.813028
N68	N	0.885492	-0.529502	-0.779615
C69	C	0.275351	-0.309236	-0.309521
N70	N	0.244882	-0.268909	-0.269310
C71	C	0.922747	0.026319	-0.294548
N72	N	0.885433	-0.003948	-0.253981
C73	C	1.111859	0.018373	-0.500182
N74	N	1.149163	-0.015033	-0.540741
C75	C	1.111896	-0.302324	-0.982403
N76	N	1.149202	-0.264890	-1.015811
C77	C	0.922823	-0.492028	-0.974435
N78	N	0.885526	-0.529439	-1.004703
H79	H	0.285942	-0.494153	-0.493899
H80	H	0.615938	-0.294938	-0.295259
H81	H	0.749296	-0.300536	-0.300838
