data_functionalizedCrystal
_audit_creation_method	'MofGen! by Chris Wilmer'
_symmetry_space_group_name_H-M	'P1'
_symmetry_Int_Tables_number	1
_symmetry_cell_setting	triclinic
loop_
_symmetry_equiv_pos_as_xyz
  x,y,z
_cell_length_a	17.077404
_cell_length_b	16.959454
_cell_length_c	17.077396
_cell_angle_alpha	89.975265
_cell_angle_beta	89.980499
_cell_angle_gamma	90.020300
loop_
_atom_site_label
_atom_site_type_symbol
_atom_site_fract_x
_atom_site_fract_y
_atom_site_fract_z
Zn1	Zn	1.200070	-0.314677	-0.443863
Zn2	Zn	1.700070	0.185323	0.056137
Zn3	Zn	1.199983	-0.446865	-0.312606
Zn4	Zn	1.699983	0.053135	0.187394
Zn5	Zn	1.068802	-0.314705	-0.312611
Zn6	Zn	1.568802	0.185295	0.187389
Zn7	Zn	1.068776	-0.446818	-0.443829
Zn8	Zn	1.568776	0.053182	0.056171
O9	O	1.134408	-0.380766	-0.378227
O10	O	1.634408	0.119234	0.121773
O11	O	1.309905	-0.332220	-0.426463
O12	O	1.809905	0.167780	0.073537
O13	O	1.182556	-0.429365	-0.202759
O14	O	1.682556	0.070635	0.297241
O15	O	1.086262	-0.204090	-0.330038
O16	O	1.586262	0.295910	0.169962
O17	O	1.309842	-0.429338	-0.330029
O18	O	1.809842	0.070662	0.169971
O19	O	1.182704	-0.204070	-0.426469
O20	O	1.682704	0.295930	0.073531
O21	O	1.086178	-0.332267	-0.202763
O22	O	1.586178	0.167733	0.297237
O23	O	0.958951	-0.332222	-0.330006
O24	O	1.458951	0.167778	0.169994
O25	O	1.086218	-0.429258	-0.553681
O26	O	1.586218	0.070742	-0.053681
O27	O	0.958933	-0.429285	-0.426411
O28	O	1.458933	0.070715	0.073589
O29	O	1.182679	-0.332174	-0.553706
O30	O	1.682679	0.167826	-0.053706
O31	O	1.182532	-0.557469	-0.329996
O32	O	1.682532	-0.057469	0.170004
O33	O	1.086134	-0.557435	-0.426406
O34	O	1.586134	-0.057435	0.073594
C35	C	0.930460	-0.380752	-0.378206
C36	C	1.430460	0.119248	0.121794
C37	C	0.843210	-0.380764	-0.378215
C38	C	1.343210	0.119236	0.121785
C39	C	0.802231	-0.431381	-0.428333
C40	C	1.302231	0.068619	0.071667
C41	C	0.720250	-0.431383	-0.428345
C42	C	1.220250	0.068617	0.071655
C43	C	0.679251	-0.380771	-0.378236
C44	C	1.179251	0.119229	0.121764
C45	C	0.720236	-0.330149	-0.328116
C46	C	1.220236	0.169851	0.171884
C47	C	0.802215	-0.330144	-0.328108
C48	C	1.302215	0.169856	0.171892
C49	C	0.549366	-0.330164	-0.328134
C50	C	1.049366	0.169836	0.171866
C51	C	0.467381	-0.330170	-0.328141
C52	C	0.967381	0.169830	0.171859
C53	C	0.467401	-0.431404	-0.428372
C54	C	0.967401	0.068596	0.071628
C55	C	0.549380	-0.431399	-0.428364
C56	C	1.049380	0.068601	0.071636
C57	C	0.590360	-0.380777	-0.378243
C58	C	1.090360	0.119223	0.121757
C59	C	1.134342	-0.586132	-0.378214
C60	C	1.634342	-0.086132	0.121786
C61	C	1.134386	-0.673989	-0.378235
C62	C	1.634386	-0.173989	0.121765
C63	C	1.084287	-1.045476	-0.428422
C64	C	1.584287	-0.545476	0.071578
C65	C	1.184748	-1.045452	-0.328112
C66	C	1.684748	-0.545452	0.171888
C67	C	1.184720	-0.962906	-0.328105
C68	C	1.684720	-0.462906	0.171895
C69	C	1.134474	-0.921642	-0.378256
C70	C	1.634474	-0.421642	0.121744
C71	C	1.084256	-0.962923	-0.428415
C72	C	1.584256	-0.462923	0.071585
C73	C	1.234932	-0.921619	-0.277942
C74	C	1.734932	-0.421619	0.222058
C75	C	1.234906	-0.839068	-0.277932
C76	C	1.734906	-0.339068	0.222068
C77	C	1.184664	-0.797802	-0.328088
C78	C	1.684664	-0.297802	0.171912
C79	C	1.134444	-0.839088	-0.378249
C80	C	1.634444	-0.339088	0.121751
C81	C	1.084198	-0.797823	-0.428400
C82	C	1.584198	-0.297823	0.071600
C83	C	1.033981	-0.839108	-0.478566
C84	C	1.533981	-0.339108	0.021434
C85	C	1.034013	-0.921657	-0.478571
C86	C	1.534013	-0.421657	0.021429
C87	C	1.184632	-0.715254	-0.328083
C88	C	1.684632	-0.215254	0.171917
C89	C	1.084167	-0.715270	-0.428393
C90	C	1.584167	-0.215270	0.071607
C91	C	1.339152	-0.380781	-0.378250
C92	C	1.839152	0.119219	0.121750
C93	C	1.426402	-0.380787	-0.378259
C94	C	1.926402	0.119213	0.121741
C95	C	1.134455	-0.380708	-0.582972
C96	C	1.634455	0.119292	-0.082972
C97	C	1.134476	-0.380683	-0.670222
C98	C	1.634476	0.119317	-0.170222
C99	C	1.134495	-0.174598	-0.378258
C100	C	1.634495	0.325402	0.121742
C101	C	1.134533	-0.086741	-0.378271
C102	C	1.634533	0.413259	0.121729
C103	C	1.184705	-0.330127	-0.711226
C104	C	1.684705	0.169873	-0.211226
C105	C	1.184714	-0.330101	-0.793206
C106	C	1.684714	0.169899	-0.293206
C107	C	1.134498	-0.380635	-0.834181
C108	C	1.634498	0.119365	-0.334181
C109	C	1.084263	-0.431193	-0.793171
C110	C	1.584263	0.068807	-0.293171
C111	C	1.084250	-0.431214	-0.711192
C112	C	1.584250	0.068786	-0.211192
C113	C	1.084295	-0.431145	-0.964041
C114	C	1.584295	0.068855	-0.464041
C115	C	1.084309	-0.431125	-1.046026
C116	C	1.584309	0.068875	-0.546026
C117	C	1.184759	-0.330032	-1.046056
C118	C	1.684759	0.169968	-0.546056
C119	C	1.184746	-0.330053	-0.964077
C120	C	1.684746	0.169947	-0.464077
C121	C	1.134512	-0.380613	-0.923072
C122	C	1.634512	0.119387	-0.423072
C123	C	1.134406	-0.380767	-0.174279
C124	C	1.634406	0.119233	0.325721
C125	C	1.134538	-0.380569	-0.087030
C126	C	1.634538	0.119431	0.412970
H127	H	0.835579	-0.288922	-0.287301
H128	H	1.335579	0.211078	0.212699
H129	H	1.043373	-0.472335	-0.826539
H130	H	1.543373	0.027665	-0.326539
H131	H	1.225617	-0.288936	-0.826589
H132	H	1.725617	0.211064	-0.326589
H133	H	0.582729	-0.288936	-0.287327
H134	H	1.082729	0.211064	0.212673
C135	C	0.847323	-0.487060	-0.483458
C136	C	1.347323	0.012940	0.016542
N137	N	0.881284	-0.528996	-0.524983
N138	N	1.381284	-0.028996	-0.024983
C139	C	1.240007	-1.090846	-0.272941
C140	C	1.740007	-0.590846	0.227059
N141	N	1.281630	-1.125040	-0.231383
N142	N	1.781630	-0.625040	0.268617
H143	H	1.043341	-0.472374	-0.677807
H144	H	1.543341	0.027626	-0.177807
H145	H	1.043254	-0.681677	-0.469236
H146	H	1.543254	-0.181677	0.030764
C147	C	0.675177	-0.487081	-0.483464
C148	C	1.175177	0.012919	0.016536
N149	N	0.641228	-0.529040	-0.524977
N150	N	1.141228	-0.029040	-0.024977
H151	H	1.225641	-0.288909	-0.930717
H152	H	1.725641	0.211091	-0.430717
H153	H	0.686848	-0.288936	-0.287319
H154	H	1.186848	0.211064	0.212681
C155	C	0.978712	-0.793706	-0.533730
C156	C	1.478712	-0.293706	-0.033730
N157	N	0.937085	-0.759506	-0.575280
N158	N	1.437085	-0.259506	-0.075280
C159	C	0.978771	-0.967076	-0.533739
C160	C	1.478771	-0.467076	-0.033739
N161	N	0.937159	-1.001289	-0.575288
N162	N	1.437159	-0.501289	-0.075288
H163	H	0.582760	-0.472616	-0.469164
H164	H	1.082760	0.027384	0.030836
C165	C	1.029048	-1.090889	-0.483599
C166	C	1.529048	-0.590889	0.016401
N167	N	0.987439	-1.125096	-0.525156
N168	N	1.487439	-0.625096	-0.025156
C169	C	1.239867	-0.669844	-0.272905
C170	C	1.739867	-0.169844	0.227095
N171	N	1.281476	-0.635643	-0.231345
N172	N	1.781476	-0.135643	0.268655
C173	C	1.290188	-0.967015	-0.222768
C174	C	1.790188	-0.467015	0.277232
N175	N	1.331806	-1.001211	-0.181207
N176	N	1.831806	-0.501211	0.318793
C177	C	1.240016	-0.274416	-1.091162
C178	C	1.740016	0.225584	-0.591162
N179	N	1.281636	-0.232530	-1.125140
N180	N	1.781636	0.267470	-0.625140
H181	H	1.275796	-0.805459	-0.237085
H182	H	1.775796	-0.305459	0.262915
C183	C	1.239947	-0.274534	-0.666161
C184	C	1.739947	0.225466	-0.166161
N185	N	1.281554	-0.232657	-0.632221
N186	N	1.781554	0.267343	-0.132221
C187	C	1.029038	-0.486766	-0.918938
C188	C	1.529038	0.013234	-0.418938
N189	N	0.987422	-0.528662	-0.884967
N190	N	1.487422	-0.028662	-0.384967
H191	H	0.434032	-0.472620	-0.469185
H192	H	0.934032	0.027380	0.030815
C193	C	0.422283	-0.274492	-0.273021
C194	C	0.922283	0.225508	0.226979
N195	N	0.388316	-0.232553	-0.231504
N196	N	0.888316	0.267447	0.268496
H197	H	1.043416	-0.472272	-1.079385
H198	H	1.543416	0.027728	-0.579385
