data_functionalizedCrystal
_audit_creation_method	'MofGen! by Chris Wilmer'
_symmetry_space_group_name_H-M	'P1'
_symmetry_Int_Tables_number	1
_symmetry_cell_setting	triclinic
loop_
_symmetry_equiv_pos_as_xyz
  x,y,z
_cell_length_a	11.792241
_cell_length_b	9.616153
_cell_length_c	11.792241
_cell_angle_alpha	90.002388
_cell_angle_beta	95.806584
_cell_angle_gamma	89.997972
loop_
_atom_site_label
_atom_site_type_symbol
_atom_site_fract_x
_atom_site_fract_y
_atom_site_fract_z
O1	O	-1.506913	0.115490	0.155563
O2	O	-1.176572	0.115527	0.171596
O3	O	-1.349759	0.115498	-0.001591
O4	O	-1.333726	0.115519	0.328750
O5	O	-1.349735	-0.115793	-0.001587
O6	O	-1.176548	-0.115764	0.171600
O7	O	-1.506889	-0.115801	0.155567
Zn8	Zn	-1.341715	-0.152505	0.163584
Zn9	Zn	-1.341746	0.152231	0.163579
O10	O	-1.333702	-0.115772	0.328754
C11	C	-1.134269	-0.000114	0.170591
C12	C	-1.008255	-0.000100	0.167576
C13	C	-0.777543	-0.000137	0.162034
C14	C	-0.905928	-0.000117	0.165113
N15	N	-1.341702	-0.360480	0.163587
C16	C	-1.248777	-0.580834	0.255921
C17	C	-1.248980	-0.419666	0.256265
C18	C	-1.460293	-0.418940	0.190184
C19	C	-1.459787	-0.580158	0.190837
C20	C	-1.317218	-0.580395	0.044350
C21	C	-1.314492	-0.419168	0.045131
C22	C	-0.549192	-0.000154	0.156572
C23	C	-0.675206	-0.000148	0.159587
C24	C	-1.348740	-0.000147	-0.043880
C25	C	-1.345726	-0.000145	-0.169894
N26	N	-1.341768	0.360206	0.163568
C27	C	-1.340183	-0.000121	-0.400606
C28	C	-1.343262	-0.000134	-0.272221
C29	C	-1.334721	-0.000124	0.371043
C30	C	-1.337736	-0.000116	0.497057
H31	H	-1.160373	-0.619636	0.240216
C32	C	-1.202863	-0.635359	0.010057
C33	C	-1.199828	-0.720784	-0.100054
C34	C	-1.085467	-0.775747	-0.134331
C35	C	-0.974141	-0.745284	-0.058497
C36	C	-0.977171	-0.659855	0.051621
C37	C	-1.091532	-0.604892	0.085899
H38	H	-1.282243	-0.743338	-0.156197
H39	H	-1.083225	-0.838988	-0.215849
H40	H	-0.889484	-0.785971	-0.083871
H41	H	-0.894756	-0.637301	0.107765
H42	H	-1.093774	-0.541651	0.167416
H43	H	-1.264726	-0.381083	0.344722
C44	C	-1.408808	-0.631907	-0.048513
C45	C	-1.403803	-0.587946	-0.173478
C46	C	-1.495397	-0.639465	-0.266329
C47	C	-1.591995	-0.734946	-0.234216
C48	C	-1.597004	-0.778912	-0.109245
C49	C	-1.505411	-0.727393	-0.016394
H50	H	-1.332292	-0.517260	-0.197256
H51	H	-1.491688	-0.606918	-0.358841
H52	H	-1.659798	-0.773084	-0.302950
H53	H	-1.668516	-0.849598	-0.085467
H54	H	-1.509119	-0.759940	0.076118
H55	H	-1.160853	-0.380143	0.240311
C56	C	-1.269765	-0.635527	0.374749
C57	C	-1.189633	-0.592349	0.480110
C58	C	-1.210625	-0.647043	0.598936
C59	C	-1.311750	-0.744914	0.612402
C60	C	-1.391889	-0.788097	0.507038
C61	C	-1.370897	-0.733403	0.388211
H62	H	-1.114769	-0.519895	0.470145
H63	H	-1.151301	-0.615076	0.676934
H64	H	-1.327290	-0.785401	0.700364
H65	H	-1.466753	-0.860551	0.517002
H66	H	-1.430221	-0.765370	0.310214
C67	C	-1.196638	-0.367554	0.017874
C68	C	-1.125408	-0.272564	0.102744
C69	C	-1.007554	-0.220939	0.075491
C70	C	-0.960929	-0.264306	-0.036632
C71	C	-1.032159	-0.359301	-0.121509
C72	C	-1.150013	-0.410926	-0.094256
H73	H	-1.159922	-0.240457	0.185751
H74	H	-0.954826	-0.150617	0.138323
H75	H	-0.873687	-0.226090	-0.056807
H76	H	-0.997646	-0.391408	-0.204516
H77	H	-1.202742	-0.481248	-0.157088
H78	H	-1.377760	-0.378885	-0.026869
H79	H	-1.531167	-0.380600	0.124740
H80	H	-1.481309	-0.617744	0.277804
H81	H	-1.531183	-0.619158	0.126263
C82	C	-1.490034	-0.364387	0.306343
C83	C	-1.406927	-0.266872	0.377152
C84	C	-1.436661	-0.212322	0.493314
C85	C	-1.549501	-0.255289	0.538668
C86	C	-1.632615	-0.352809	0.467858
C87	C	-1.602881	-0.407359	0.351696
H88	H	-1.323390	-0.235061	0.343579
H89	H	-1.375134	-0.140131	0.545732
H90	H	-1.571511	-0.214908	0.624659
H91	H	-1.716152	-0.384620	0.501431
H92	H	-1.664408	-0.479550	0.299278
