data_functionalizedCrystal
_audit_creation_method	'MofGen! by Chris Wilmer'
_symmetry_space_group_name_H-M	'P1'
_symmetry_Int_Tables_number	1
_symmetry_cell_setting	triclinic
loop_
_symmetry_equiv_pos_as_xyz
  x,y,z
_cell_length_a	15.944493
_cell_length_b	15.500215
_cell_length_c	17.038272
_cell_angle_alpha	92.987413
_cell_angle_beta	87.293300
_cell_angle_gamma	93.182908
loop_
_atom_site_label
_atom_site_type_symbol
_atom_site_fract_x
_atom_site_fract_y
_atom_site_fract_z
O1	O	1.125453	0.071934	0.103861
O2	O	0.881788	0.071938	0.116341
O3	O	1.002172	0.071929	-0.003715
O4	O	1.005069	0.071943	0.223917
O5	O	0.994731	-0.071960	-0.010201
O6	O	0.874347	-0.071951	0.109855
O7	O	1.118012	-0.071955	0.097375
Cu8	Cu	0.995500	-0.085091	0.103022
Cu9	Cu	1.004300	0.085075	0.110693
O10	O	0.997628	-0.071946	0.217431
C11	C	0.846736	-0.000006	0.112588
C12	C	0.753379	-0.000004	0.111058
N13	N	0.989316	-0.204777	0.097627
C14	C	0.522665	0.000001	0.181726
C15	C	0.465716	-0.070951	0.140420
C16	C	0.582455	-0.000006	0.108225
C17	C	0.473056	0.070913	0.146797
C18	C	0.417351	-0.000004	0.105494
C19	C	0.526733	-0.071016	0.066936
C20	C	0.534081	0.070912	0.073327
C21	C	0.477160	-0.000057	0.031966
C22	C	0.677567	-0.000008	0.109801
C23	C	0.322240	-0.000008	0.103912
C24	C	1.041310	-0.250048	0.143028
C25	C	1.036645	-0.340621	0.138943
C26	C	0.979980	-0.385922	0.089460
C27	C	0.927984	-0.340645	0.044053
C28	C	0.932655	-0.250073	0.048135
C29	C	0.963164	-0.659391	0.074758
C30	C	0.958496	-0.749969	0.070681
C31	C	1.067158	-0.749939	0.165570
C32	C	1.071820	-0.659366	0.169651
C33	C	1.019827	-0.614096	0.124242
C34	C	0.975208	-0.478503	0.085284
C35	C	1.024604	-0.521518	0.128413
C36	C	1.153064	-0.000009	0.101128
C37	C	1.246422	-0.000005	0.102657
C38	C	0.995817	-0.000015	-0.036087
C39	C	0.987958	-0.000015	-0.122880
N40	N	1.010490	0.204760	0.116082
C41	C	1.060116	-0.000017	-0.172987
C42	C	1.052727	-0.000009	-0.254538
C43	C	0.973178	-0.000004	-0.285981
C44	C	0.901015	0.000001	-0.235867
C45	C	0.908405	-0.000002	-0.154318
C46	C	0.947069	0.000008	-0.531741
C47	C	0.939684	0.000008	-0.613297
C48	C	1.091398	0.000000	-0.631962
C49	C	1.098781	-0.000007	-0.550410
C50	C	1.026617	0.000002	-0.500304
C51	C	0.965623	0.000002	-0.369339
C52	C	1.034173	0.000002	-0.416947
C53	C	1.003983	0.000000	0.249802
C54	C	1.011843	0.000005	0.336596
H55	H	0.435893	-0.130929	0.168756
H56	H	0.849646	0.000000	-0.113521
H57	H	1.070743	-0.484630	0.168699
H58	H	0.890315	-0.213214	0.011164
H59	H	0.874902	-0.000003	-0.638894
H60	H	1.098943	0.000018	-0.391342
O61	O	1.137457	0.000019	-0.142575
C62	C	1.199559	0.000001	-0.204293
H63	H	1.173459	0.027241	-0.258458
H64	H	1.256906	0.041777	-0.185376
H65	H	1.218530	-0.069030	-0.218953
H66	H	0.563914	0.130894	0.045014
H67	H	1.111486	-0.000012	-0.295332
H68	H	0.449437	0.130888	0.180556
O69	O	0.453283	0.000056	-0.043606
C70	C	0.409416	0.074912	-0.053767
H71	H	0.427941	0.127009	-0.007129
H72	H	0.425964	0.099613	-0.114734
H73	H	0.338874	0.058644	-0.047656
O74	O	0.554631	-0.142680	0.026647
C75	C	0.485569	-0.192814	-0.002988
H76	H	0.430511	-0.149868	-0.008106
H77	H	0.503893	-0.222704	-0.063494
H78	H	0.466460	-0.246409	0.038671
O79	O	0.823688	-0.000108	-0.266320
C80	C	0.775498	-0.074637	-0.244091
H81	H	0.801149	-0.099485	-0.188657
H82	H	0.707225	-0.057873	-0.232003
H83	H	0.779151	-0.126820	-0.293638
O84	O	0.912568	-0.615558	0.030627
C85	C	0.861568	-0.674966	-0.013933
H86	H	0.855651	-0.739524	0.015527
H87	H	0.796518	-0.648811	-0.017631
H88	H	0.891292	-0.684603	-0.075724
O89	O	0.876884	-0.000033	-0.483189
C90	C	0.805092	-0.000014	-0.528431
H91	H	0.820660	-0.027251	-0.590528
H92	H	0.752015	-0.041793	-0.500230
H93	H	0.784548	0.069016	-0.531117
O94	O	1.096427	-0.206181	0.191113
C95	C	1.141303	-0.265565	0.230322
H96	H	1.140564	-0.330129	0.195046
H97	H	1.209050	-0.239387	0.236379
H98	H	1.110584	-0.275199	0.291245
H99	H	0.929071	-0.515396	0.044995
O100	O	1.176083	0.000142	-0.519904
C101	C	1.224290	0.074649	-0.542162
H102	H	1.180572	0.126742	-0.556762
H103	H	1.264857	0.099656	-0.491638
H104	H	1.266422	0.057800	-0.596082
H105	H	1.078985	-0.377477	0.175912
H106	H	1.117965	-0.622488	0.209943
O107	O	0.546805	-0.000188	0.257211
C108	C	0.591913	-0.074346	0.266820
H109	H	0.619243	-0.098720	0.207243
H110	H	0.645124	-0.057284	0.308224
H111	H	0.547848	-0.127000	0.292763
O112	O	1.161409	0.000037	-0.680745
C113	C	1.137832	0.000018	-0.759466
H114	H	1.073040	0.027259	-0.761354
H115	H	1.185629	0.041795	-0.794533
H116	H	1.135764	-0.069012	-0.786169
O117	O	0.888403	0.000113	-0.399974
C118	C	0.883439	0.074648	-0.443206
H119	H	0.949478	0.099497	-0.462395
H120	H	0.845282	0.057888	-0.497364
H121	H	0.851542	0.126827	-0.404818
H122	H	0.912348	-0.786850	0.030386
O123	O	1.117788	-0.793820	0.209631
C124	C	1.202640	-0.771691	0.188982
H125	H	1.207468	-0.705932	0.161623
H126	H	1.241113	-0.768580	0.243877
H127	H	1.227953	-0.822664	0.144752
H128	H	0.881850	-0.377536	0.003759
