data_functionalizedCrystal
_audit_creation_method	'MofGen! by Chris Wilmer'
_symmetry_space_group_name_H-M	'P1'
_symmetry_Int_Tables_number	1
_symmetry_cell_setting	triclinic
loop_
_symmetry_equiv_pos_as_xyz
  x,y,z
_cell_length_a	17.077404
_cell_length_b	17.640280
_cell_length_c	17.640618
_cell_angle_alpha	65.681691
_cell_angle_beta	78.770857
_cell_angle_gamma	78.800538
loop_
_atom_site_label
_atom_site_type_symbol
_atom_site_fract_x
_atom_site_fract_y
_atom_site_fract_z
Zn1	Zn	1.327355	-0.233840	-0.399745
Zn2	Zn	1.327277	-0.399510	-0.234100
Zn3	Zn	1.174006	-0.261729	-0.261938
Zn4	Zn	1.218143	-0.371607	-0.371882
O5	O	1.261695	-0.316672	-0.316916
O6	O	1.437195	-0.255822	-0.377783
O7	O	1.288442	-0.404582	-0.122458
O8	O	1.175910	-0.142712	-0.303529
O9	O	1.437138	-0.377539	-0.256084
O10	O	1.288574	-0.122222	-0.404776
O11	O	1.175834	-0.303355	-0.142910
O12	O	1.070011	-0.276299	-0.276511
O13	O	1.251134	-0.329983	-0.490914
O14	O	1.102438	-0.357026	-0.357287
O15	O	1.331372	-0.228766	-0.511384
O16	O	1.331239	-0.511126	-0.229067
O17	O	1.251058	-0.490626	-0.330294
C18	C	1.057742	-0.316661	-0.316897
C19	C	0.970495	-0.316673	-0.316904
C20	C	1.295954	-0.530773	-0.273654
C21	C	1.310686	-0.622360	-0.255174
C22	C	0.946410	-0.358804	-0.358863
C23	C	0.864432	-0.358803	-0.358876
C24	C	0.806541	-0.316675	-0.316924
C25	C	0.830631	-0.274539	-0.274963
C26	C	0.912608	-0.274536	-0.274956
C27	C	0.659767	-0.274551	-0.274980
C28	C	0.577784	-0.274556	-0.274986
C29	C	0.611591	-0.358819	-0.358900
C30	C	0.693567	-0.358815	-0.358892
C31	C	0.717652	-0.316680	-0.316930
C32	C	1.150147	-0.870414	-0.457608
C33	C	1.163987	-0.956480	-0.440217
C34	C	1.247559	-0.977740	-0.334915
C35	C	1.233728	-0.891673	-0.352300
C36	C	1.185021	-0.838017	-0.413647
C37	C	1.268603	-0.859276	-0.308339
C38	C	1.254770	-0.773218	-0.325720
C39	C	1.206063	-0.719556	-0.387062
C40	C	1.171188	-0.751958	-0.431028
C41	C	1.317305	-0.912935	-0.246988
C42	C	1.352180	-0.880538	-0.203027
C43	C	1.338352	-0.794477	-0.220412
C44	C	1.289645	-0.740816	-0.281754
C45	C	1.373226	-0.762075	-0.176446
C46	C	1.359393	-0.676017	-0.193827
C47	C	1.275812	-0.654757	-0.299135
C48	C	1.466446	-0.316682	-0.316937
C49	C	1.553698	-0.316687	-0.316945
C50	C	1.296185	-0.273151	-0.531890
C51	C	1.310882	-0.254605	-0.623499
C52	C	1.227327	-0.101731	-0.360365
C53	C	1.212682	-0.010136	-0.378881
C54	C	1.373369	-0.175772	-0.763277
C55	C	1.359554	-0.193205	-0.677195
C56	C	1.276003	-0.298594	-0.655872
C57	C	1.289808	-0.281167	-0.741955
C58	C	1.338492	-0.219755	-0.795650
C59	C	1.254932	-0.325151	-0.774328
C60	C	1.268739	-0.307728	-0.860403
C61	C	1.317423	-0.246321	-0.914103
C62	C	1.352300	-0.202332	-0.881725
C63	C	1.206252	-0.386566	-0.720630
C64	C	1.171376	-0.430550	-0.753004
C65	C	1.185178	-0.413123	-0.839080
C66	C	1.233862	-0.351716	-0.892781
C67	C	1.150302	-0.457111	-0.871459
C68	C	1.164109	-0.439688	-0.957533
C69	C	1.247670	-0.334293	-0.978855
C70	C	1.227376	-0.359963	-0.102791
C71	C	1.212793	-0.378277	-0.011229
H72	H	0.993541	-0.393112	-0.393022
H73	H	1.194795	-0.649484	-0.401207
H74	H	1.135709	-0.475505	-0.983892
H75	H	0.844826	-0.393111	-0.393043
C76	C	1.426217	-0.820226	-0.109908
C77	C	1.503385	-0.795579	-0.132154
C78	C	1.552217	-0.849121	-0.070872
H79	H	1.429554	-0.876141	-0.105798
H80	H	1.403663	-0.817337	-0.057355
H81	H	1.525934	-0.798476	-0.184692
H82	H	1.500073	-0.739671	-0.136258
H83	H	1.529663	-0.846232	-0.018319
H84	H	1.555548	-0.905034	-0.066766
H85	H	1.604579	-0.832401	-0.085953
C86	C	0.756507	-0.404408	-0.404517
C87	C	0.804624	-0.347119	-0.466811
C88	C	0.862619	-0.389089	-0.508854
H89	H	0.730528	-0.429503	-0.429586
H90	H	0.789199	-0.446639	-0.365708
H91	H	0.771937	-0.304903	-0.505614
H92	H	0.830622	-0.322022	-0.441765
H93	H	0.895311	-0.431320	-0.470045
H94	H	0.836633	-0.414182	-0.533917
H95	H	0.895278	-0.350226	-0.551120
C96	C	1.426139	-0.108980	-0.821508
C97	C	1.392662	-0.031684	-0.817044
C98	C	1.441254	0.029857	-0.870667
H99	H	1.429398	-0.104794	-0.877441
H100	H	1.478552	-0.123849	-0.804967
H101	H	1.340263	-0.016818	-0.833590
H102	H	1.389404	-0.035843	-0.761124
H103	H	1.493667	0.014988	-0.854126
H104	H	1.444510	0.034036	-0.926596
H105	H	1.418551	0.082308	-0.867639
C106	C	0.938805	-0.228666	-0.229553
C107	C	0.984918	-0.166438	-0.286964
C108	C	1.009054	-0.124154	-0.245173
H109	H	0.970090	-0.267317	-0.187233
H110	H	0.892606	-0.203528	-0.204593
H111	H	1.031111	-0.191576	-0.311912
H112	H	0.953650	-0.127768	-0.329287
H113	H	0.962854	-0.099016	-0.220212
H114	H	1.040336	-0.162812	-0.202854
H115	H	1.040337	-0.081923	-0.284121
C116	C	1.126009	-0.991722	-0.487808
C117	C	1.076171	-1.050619	-0.431106
C118	C	1.041162	-1.083092	-0.474914
H119	H	1.167085	-1.018050	-0.516980
H120	H	1.094977	-0.947465	-0.526810
H121	H	1.107201	-1.094868	-0.392119
H122	H	1.035080	-1.024311	-0.401932
H123	H	1.010130	-1.038836	-0.513916
H124	H	1.082244	-1.109416	-0.504084
H125	H	1.007337	-1.123051	-0.436450
C126	C	1.118401	-0.693766	-0.497756
C127	C	1.151875	-0.698171	-0.575092
C128	C	1.103271	-0.644582	-0.636577
H129	H	1.115130	-0.637840	-0.501920
H130	H	1.065993	-0.710364	-0.482843
H131	H	1.204269	-0.681568	-0.590001
H132	H	1.155145	-0.754084	-0.570954
H133	H	1.050863	-0.661180	-0.621664
H134	H	1.100003	-0.588660	-0.640734
H135	H	1.125972	-0.647570	-0.689054
C136	C	0.585286	-0.404478	-0.404452
C137	C	0.501104	-0.395444	-0.395504
C138	C	0.476839	-0.437486	-0.437459
H139	H	0.605543	-0.462310	-0.381157
H140	H	0.605663	-0.381279	-0.462286
H141	H	0.480736	-0.418646	-0.337682
H142	H	0.480827	-0.337622	-0.418803
H143	H	0.497216	-0.414286	-0.495293
H144	H	0.497102	-0.495315	-0.414160
H145	H	0.419721	-0.431355	-0.431401
H146	H	1.391932	-0.152315	-0.925450
C147	C	1.300435	-1.036131	-0.268360
C148	C	1.305094	-1.118431	-0.262553
C149	C	1.353801	-1.172241	-0.201256
H150	H	1.277892	-1.033357	-0.215768
H151	H	1.352866	-1.019585	-0.283321
H152	H	1.252673	-1.134972	-0.247588
H153	H	1.327644	-1.121232	-0.315129
H154	H	1.406232	-1.155695	-0.216216
H155	H	1.331253	-1.169460	-0.148668
H156	H	1.356974	-1.228086	-0.197313
H157	H	1.110670	-0.507118	-0.827726
C158	C	1.223137	-0.365205	-0.597441
C159	C	1.218494	-0.371037	-0.515133
C160	C	1.169790	-0.432381	-0.461287
H161	H	1.245675	-0.417774	-0.600249
H162	H	1.170702	-0.350281	-0.613933
H163	H	1.270919	-0.385966	-0.498645
H164	H	1.195949	-0.318484	-0.512298
H165	H	1.117354	-0.417457	-0.477780
H166	H	1.192332	-0.484945	-0.464103
H167	H	1.166627	-0.436341	-0.405437
C168	C	1.397275	-0.145429	-0.641943
C169	C	1.336465	-0.102626	-0.603175
C170	C	1.371187	-0.058625	-0.570678
H171	H	1.428241	-0.106303	-0.686168
H172	H	1.431105	-0.183750	-0.601955
H173	H	1.302649	-0.064309	-0.643160
H174	H	1.305495	-0.141733	-0.558939
H175	H	1.405017	-0.096945	-0.530690
H176	H	1.402152	-0.019503	-0.614908
H177	H	1.329934	-0.029584	-0.544364
C178	C	1.404934	-0.938775	-0.136293
C179	C	1.371448	-0.934388	-0.058952
C180	C	1.420018	-0.988027	0.002546
H181	H	1.457351	-0.922229	-0.151151
H182	H	1.408167	-0.994691	-0.132172
H183	H	1.368224	-0.878484	-0.063074
H184	H	1.319036	-0.950941	-0.044067
H185	H	1.423251	-1.043943	0.006667
H186	H	1.472433	-0.971477	-0.012320
H187	H	1.397301	-0.985064	0.055030
C188	C	1.118510	-0.497161	-0.694572
C189	C	1.113867	-0.502993	-0.612264
C190	C	1.065162	-0.564337	-0.558419
H191	H	1.141047	-0.549730	-0.697380
H192	H	1.066075	-0.482237	-0.711065
H193	H	1.166292	-0.517922	-0.595776
H194	H	1.091321	-0.450440	-0.609430
H195	H	1.012727	-0.549413	-0.574911
H196	H	1.087704	-0.616901	-0.561234
H197	H	1.061999	-0.568297	-0.502568
H198	H	1.387791	-0.649640	-0.158029
H199	H	0.530650	-0.240241	-0.240836
H200	H	0.679372	-0.240232	-0.240819
H201	H	0.783489	-0.240234	-0.240809
H202	H	1.236156	-0.611066	-0.349096
C203	C	1.097360	-0.812221	-0.524336
C204	C	1.130834	-0.816627	-0.601672
C205	C	1.082230	-0.763038	-0.663157
H206	H	1.094089	-0.756295	-0.528500
H207	H	1.044952	-0.828819	-0.509423
H208	H	1.183228	-0.800024	-0.616581
H209	H	1.134103	-0.872540	-0.597535
H210	H	1.029821	-0.779636	-0.648244
H211	H	1.078962	-0.707115	-0.667314
H212	H	1.104931	-0.766025	-0.715635
H213	H	1.328666	-0.232139	-0.984190
H214	H	1.328569	-0.983008	-0.232841
H215	H	1.195016	-0.400753	-0.650543
H216	H	1.287302	-0.284276	-1.022580
