data_functionalizedCrystal
_audit_creation_method	'MofGen! by Chris Wilmer'
_symmetry_space_group_name_H-M	'P1'
_symmetry_Int_Tables_number	1
_symmetry_cell_setting	triclinic
loop_
_symmetry_equiv_pos_as_xyz
  x,y,z
_cell_length_a	15.298073
_cell_length_b	19.077068
_cell_length_c	15.298431
_cell_angle_alpha	97.833418
_cell_angle_beta	88.416715
_cell_angle_gamma	102.338104
loop_
_atom_site_label
_atom_site_type_symbol
_atom_site_fract_x
_atom_site_fract_y
_atom_site_fract_z
Zn1	Zn	-1.252739	0.012973	-0.728002
Zn2	Zn	-0.752739	0.512973	-0.228002
Zn3	Zn	-1.270080	0.147377	-0.587058
Zn4	Zn	-0.770080	0.647377	-0.087058
Zn5	Zn	-1.129259	0.052637	-0.557784
Zn6	Zn	-0.629259	0.552637	-0.057784
Zn7	Zn	-1.097933	0.154158	-0.708366
Zn8	Zn	-0.597933	0.654158	-0.208366
O9	O	-1.187503	0.091787	-0.645303
O10	O	-0.687503	0.591787	-0.145303
O11	O	-1.378760	0.011365	-0.729775
O12	O	-0.878760	0.511365	-0.229775
O13	O	-1.271767	0.148571	-0.461170
O14	O	-0.771767	0.648571	0.038830
O15	O	-1.151492	-0.051360	-0.576330
O16	O	-0.651492	0.448640	-0.076330
O17	O	-1.391500	0.110111	-0.626224
O18	O	-0.891500	0.610111	-0.126224
O19	O	-1.242213	-0.080500	-0.701389
O20	O	-0.742213	0.419500	-0.201389
O21	O	-1.168306	0.078966	-0.439663
O22	O	-0.668306	0.578966	0.060337
O23	O	-1.001383	0.085542	-0.557290
O24	O	-0.501383	0.585542	-0.057290
O25	O	-1.098101	0.121668	-0.832976
O26	O	-0.598101	0.621668	-0.332976
O27	O	-0.978368	0.160129	-0.667922
O28	O	-0.478368	0.660129	-0.167922
O29	O	-1.211837	0.017940	-0.847402
O30	O	-0.711837	0.517940	-0.347402
O31	O	-1.241391	0.247012	-0.607184
O32	O	-0.741391	0.747012	-0.107184
O33	O	-1.114916	0.251994	-0.696308
O34	O	-0.614916	0.751994	-0.196308
C35	C	-0.957796	0.127875	-0.607299
C36	C	-0.457796	0.627875	-0.107299
C37	C	-0.859522	0.143329	-0.591062
C38	C	-0.359522	0.643329	-0.091062
C39	C	-0.555898	-0.018514	-0.761314
C40	C	-0.055898	0.481486	-0.261314
C41	C	-0.648231	-0.033032	-0.776574
C42	C	-0.148231	0.466968	-0.276574
C43	C	-0.701058	0.011057	-0.730198
C44	C	-0.201058	0.511057	-0.230198
C45	C	-0.661544	0.069666	-0.668558
C46	C	-0.161544	0.569666	-0.168558
C47	C	-0.569201	0.084189	-0.653301
C48	C	-0.069201	0.584189	-0.153301
C49	C	-0.714361	0.113760	-0.622185
C50	C	-0.214361	0.613760	-0.122185
C51	C	-0.674847	0.172370	-0.560545
C52	C	-0.174847	0.672370	-0.060545
C53	C	-0.582513	0.186890	-0.545291
C54	C	-0.082513	0.686890	-0.045291
C55	C	-0.529686	0.142801	-0.591668
C56	C	-0.029686	0.642801	-0.091668
C57	C	-0.806703	0.099237	-0.637442
C58	C	-0.306703	0.599237	-0.137442
C59	C	-0.820006	0.201941	-0.529429
C60	C	-0.320006	0.701941	-0.029429
C61	C	-0.727674	0.216459	-0.514169
C62	C	-0.227674	0.716459	-0.014169
C63	C	-1.176656	0.275098	-0.652815
C64	C	-0.676656	0.775098	-0.152815
C65	C	-1.172092	0.353504	-0.656071
C66	C	-0.672092	0.853504	-0.156071
C67	C	-1.149541	0.066136	-0.872708
C68	C	-0.649541	0.566136	-0.372708
C69	C	-1.133363	0.055206	-0.969614
C70	C	-0.633363	0.555206	-0.469614
C71	C	-0.418108	0.055552	-0.683447
C72	C	0.081892	0.555552	-0.183447
C73	C	-0.516383	0.040098	-0.699680
C74	C	-0.016383	0.540098	-0.199680
C75	C	-1.198412	-0.092247	-0.637785
C76	C	-0.698412	0.407753	-0.137785
C77	C	-1.203062	-0.170671	-0.634581
C78	C	-0.703062	0.329329	-0.134581
C79	C	-1.235833	0.387709	-0.611252
C80	C	-0.735833	0.887709	-0.111252
C81	C	-1.231545	0.461378	-0.614320
C82	C	-0.731545	0.961378	-0.114320
C83	C	-1.163511	0.500842	-0.662203
C84	C	-0.663511	1.000842	-0.162203
C85	C	-1.099767	0.466630	-0.707028
C86	C	-0.599767	0.966630	-0.207028
C87	C	-1.104060	0.392961	-0.703964
C88	C	-0.604060	0.892961	-0.203964
C89	C	-1.143610	0.721449	-0.676342
C90	C	-0.643610	1.221449	-0.176342
C91	C	-1.139321	0.795123	-0.679400
C92	C	-0.639321	1.295123	-0.179400
C93	C	-1.271100	0.789866	-0.586693
C94	C	-0.771100	1.289866	-0.086693
C95	C	-1.275384	0.716197	-0.583629
C96	C	-0.775384	1.216197	-0.083629
C97	C	-1.211642	0.681991	-0.628458
C98	C	-0.711642	1.181991	-0.128458
N99	N	-1.159124	0.576144	-0.665339
N100	N	-0.659124	1.076144	-0.165339
N101	N	-1.216034	0.606689	-0.625327
N102	N	-0.716034	1.106689	-0.125327
C103	C	-1.071895	0.013829	-1.003936
C104	C	-0.571895	0.513829	-0.503936
C105	C	-1.056685	0.003561	-1.094983
C106	C	-0.556685	0.503561	-0.594983
C107	C	-1.102945	0.034666	-1.151717
C108	C	-0.602945	0.534666	-0.651717
C109	C	-1.164419	0.076039	-1.117396
C110	C	-0.664419	0.576039	-0.617396
C111	C	-1.179626	0.086312	-1.026340
C112	C	-0.679626	0.586312	-0.526340
C113	C	-1.210676	0.107149	-1.174121
C114	C	-0.710676	0.607149	-0.674121
C115	C	-1.272150	0.148523	-1.139800
C116	C	-0.772150	0.648523	-0.639800
C117	C	-1.287354	0.158794	-1.048752
C118	C	-0.787354	0.658794	-0.548752
C119	C	-1.241094	0.127689	-0.992018
C120	C	-0.741094	0.627689	-0.492018
C121	C	-1.195469	0.096876	-1.265177
C122	C	-0.695469	0.596876	-0.765177
C123	C	-1.303199	0.169360	-1.287581
C124	C	-0.803199	0.669360	-0.787581
C125	C	-1.318410	0.179627	-1.196534
C126	C	-0.818410	0.679627	-0.696534
C127	C	-1.225371	0.117278	-0.418789
C128	C	-0.725371	0.617278	0.081211
C129	C	-1.241731	0.127983	-0.321903
C130	C	-0.741731	0.627983	0.178097
H131	H	-0.695488	0.264180	-0.463982
H132	H	-0.195488	0.764180	0.036018
H133	H	-0.512878	-0.054401	-0.799072
H134	H	-0.012878	0.445599	-0.299072
Br135	Br	-0.860319	0.019699	-0.721093
Br136	Br	-0.360319	0.519699	-0.221093
H137	H	-0.863018	0.237844	-0.491669
H138	H	-0.363018	0.737844	0.008331
Br139	Br	-1.318059	0.507796	-0.553498
Br140	Br	-0.818059	1.007796	-0.053498
Br141	Br	-0.404373	0.162499	-0.570955
Br142	Br	0.095627	0.662499	-0.070955
Br143	Br	-0.528888	0.266431	-0.461637
Br144	Br	-0.028888	0.766431	0.038363
H145	H	-1.291230	0.355584	-0.572256
H146	H	-0.791230	0.855584	-0.072256
Br147	Br	-1.017556	0.346537	-0.764799
Br148	Br	-0.517556	0.846537	-0.264799
Br149	Br	-1.367728	0.662641	-0.518656
Br150	Br	-0.867728	1.162641	-0.018656
H151	H	-1.322995	0.817724	-0.550198
H152	H	-0.822995	1.317724	-0.050198
H153	H	-0.680396	-0.080750	-0.826764
H154	H	-0.180396	0.419250	-0.326764
Br155	Br	-1.046971	0.848685	-0.744371
Br156	Br	-0.546971	1.348685	-0.244371
Br157	Br	-1.007440	0.520185	-0.772021
Br158	Br	-0.507440	1.020185	-0.272021
Br159	Br	-0.973218	-0.052548	-1.141551
Br160	Br	-0.473218	0.447452	-0.641551
H161	H	-1.091708	0.693605	-0.712841
H162	H	-0.591708	1.193605	-0.212841
H163	H	-1.368462	0.213314	-1.168577
H164	H	-0.868462	0.713314	-0.668577
H165	H	-1.145417	0.063188	-1.293112
H166	H	-0.645417	0.563188	-0.793112
Br167	Br	-1.082300	0.020732	-1.275282
Br168	Br	-0.582300	0.520732	-0.775282
Br169	Br	-1.365980	0.211581	-1.364569
Br170	Br	-0.865980	0.711581	-0.864569
H171	H	-1.034231	-0.011487	-0.957735
H172	H	-0.534231	0.488513	-0.457735
H173	H	-1.337398	0.192494	-1.020810
H174	H	-0.837398	0.692494	-0.520810
Br175	Br	-1.261744	0.141614	-0.868450
Br176	Br	-0.761744	0.641614	-0.368450
H177	H	-0.776240	-0.000769	-0.742623
H178	H	-0.276240	0.499231	-0.242623
