data_functionalizedCrystal
_audit_creation_method	'MofGen! by Chris Wilmer'
_symmetry_space_group_name_H-M	'P1'
_symmetry_Int_Tables_number	1
_symmetry_cell_setting	triclinic
loop_
_symmetry_equiv_pos_as_xyz
  x,y,z
_cell_length_a	19.805407
_cell_length_b	19.121063
_cell_length_c	19.805399
_cell_angle_alpha	92.411105
_cell_angle_beta	89.980427
_cell_angle_gamma	92.469032
loop_
_atom_site_label
_atom_site_type_symbol
_atom_site_fract_x
_atom_site_fract_y
_atom_site_fract_z
Zn1	Zn	1.023234	-0.279631	-0.394203
Zn2	Zn	1.523234	0.220369	0.105797
Zn3	Zn	1.018317	-0.397083	-0.285838
Zn4	Zn	1.518317	0.102917	0.214162
Zn5	Zn	0.910048	-0.279650	-0.281028
Zn6	Zn	1.410048	0.220350	0.218972
Zn7	Zn	0.905182	-0.397046	-0.398983
Zn8	Zn	1.405182	0.102954	0.101017
O9	O	0.964195	-0.338352	-0.340013
O10	O	1.464195	0.161648	0.159987
O11	O	1.117298	-0.295218	-0.379840
O12	O	1.617298	0.204782	0.120160
O13	O	1.003934	-0.381529	-0.190484
O14	O	1.503934	0.118471	0.309516
O15	O	0.929156	-0.181363	-0.292028
O16	O	1.429156	0.318637	0.207972
O17	O	1.113686	-0.381510	-0.300225
O18	O	1.613686	0.118490	0.199775
O19	O	1.012313	-0.181348	-0.375177
O20	O	1.512313	0.318652	0.124823
O21	O	0.924388	-0.295251	-0.186951
O22	O	1.424388	0.204749	0.313049
O23	O	0.814686	-0.295215	-0.296663
O24	O	1.314686	0.204785	0.203337
O25	O	0.920863	-0.381447	-0.493065
O26	O	1.420863	0.118553	0.006935
O27	O	0.811111	-0.381465	-0.383324
O28	O	1.311111	0.118535	0.116676
O29	O	1.007595	-0.295182	-0.489553
O30	O	1.507595	0.204818	0.010447
O31	O	0.999216	-0.495363	-0.304860
O32	O	1.499216	0.004637	0.195140
O33	O	0.916096	-0.495335	-0.387987
O34	O	1.416096	0.004665	0.112013
C35	C	0.788340	-0.338339	-0.339991
C36	C	1.288340	0.161661	0.160009
C37	C	0.713107	-0.338350	-0.339998
C38	C	1.213107	0.161650	0.160002
C39	C	0.675917	-0.383328	-0.385055
C40	C	1.175917	0.116672	0.114945
C41	C	0.605228	-0.383329	-0.385064
C42	C	1.105228	0.116671	0.114936
C43	C	0.571732	-0.338356	-0.340013
C44	C	1.071732	0.161644	0.159987
C45	C	0.608927	-0.293373	-0.294954
C46	C	1.108927	0.206627	0.205046
C47	C	0.679614	-0.293368	-0.294948
C48	C	1.179614	0.206632	0.205052
C49	C	0.323853	-0.293388	-0.294977
C50	C	0.823853	0.206612	0.205023
C51	C	0.253161	-0.293397	-0.294985
C52	C	0.753161	0.206603	0.205015
C53	C	0.249467	-0.383349	-0.385093
C54	C	0.749467	0.116651	0.114907
C55	C	0.320154	-0.383345	-0.385087
C56	C	0.820154	0.116655	0.114913
C57	C	0.357344	-0.338360	-0.340031
C58	C	0.857344	0.161640	0.159969
C59	C	0.433992	-0.338358	-0.340022
C60	C	0.933992	0.161642	0.159978
C61	C	0.495084	-0.338360	-0.340018
C62	C	0.995084	0.161640	0.159982
C63	C	0.956613	-0.520833	-0.347479
C64	C	1.456613	-0.020833	0.152521
C65	C	0.953431	-0.598899	-0.350696
C66	C	1.453431	-0.098899	0.149304
C67	C	0.995246	-0.635566	-0.308963
C68	C	1.495246	-0.135566	0.191037
C69	C	0.992258	-0.708917	-0.311992
C70	C	1.492258	-0.208917	0.188008
C71	C	0.947451	-0.745601	-0.356752
C72	C	1.447451	-0.245601	0.143248
C73	C	0.905634	-0.708929	-0.398489
C74	C	1.405634	-0.208929	0.101511
C75	C	0.908626	-0.635579	-0.395463
C76	C	1.408626	-0.135579	0.104537
C77	C	0.936252	-0.967071	-0.368056
C78	C	1.436252	-0.467071	0.131944
C79	C	0.933262	-1.040426	-0.371078
C80	C	1.433262	-0.540426	0.128922
C81	C	1.019887	-1.040409	-0.284581
C82	C	1.519887	-0.540409	0.215419
C83	C	1.022872	-0.967058	-0.281556
C84	C	1.522872	-0.467058	0.218444
C85	C	0.981058	-0.930393	-0.323296
C86	C	1.481058	-0.430393	0.176704
C87	C	0.944394	-0.820578	-0.359848
C88	C	1.444394	-0.320578	0.140152
C89	C	0.984119	-0.855417	-0.320203
C90	C	1.484119	-0.355417	0.179797
C91	C	1.140737	-0.338366	-0.340036
C92	C	1.640737	0.161634	0.159964
C93	C	1.215969	-0.338372	-0.340046
C94	C	1.715969	0.161628	0.159954
C95	C	0.964235	-0.338308	-0.516554
C96	C	1.464235	0.161692	-0.016554
C97	C	0.964252	-0.338289	-0.591785
C98	C	1.464252	0.161711	-0.091785
C99	C	0.971825	-0.155159	-0.332532
C100	C	1.471825	0.344841	0.167468
C101	C	0.975077	-0.077093	-0.329345
C102	C	1.475077	0.422907	0.170655
C103	C	1.009414	-0.293369	-0.625302
C104	C	1.509414	0.206631	-0.125302
C105	C	1.009422	-0.293349	-0.695989
C106	C	1.509422	0.206651	-0.195989
C107	C	0.964270	-0.338253	-0.733159
C108	C	1.464270	0.161747	-0.233159
C109	C	0.919103	-0.383175	-0.699638
C110	C	1.419103	0.116825	-0.199638
C111	C	0.919093	-0.383191	-0.628952
C112	C	1.419093	0.116809	-0.128952
C113	C	0.919144	-0.383109	-0.984709
C114	C	1.419144	0.116891	-0.484709
C115	C	0.919159	-0.383091	-1.055400
C116	C	1.419159	0.116909	-0.555400
C117	C	1.009474	-0.293267	-1.051747
C118	C	1.509474	0.206733	-0.551747
C119	C	1.009463	-0.293283	-0.981060
C120	C	1.509463	0.206717	-0.481060
C121	C	0.964294	-0.338202	-0.947545
C122	C	1.464294	0.161798	-0.447545
C123	C	0.964285	-0.338223	-0.870897
C124	C	1.464285	0.161777	-0.370897
C125	C	0.964282	-0.338236	-0.809806
C126	C	1.464282	0.161764	-0.309806
C127	C	0.964197	-0.338346	-0.164157
C128	C	1.464197	0.161654	0.335843
C129	C	0.964319	-0.338167	-0.088918
C130	C	1.464319	0.161833	0.411082
H131	H	0.219179	-0.419976	-0.421783
H132	H	0.719179	0.080024	0.078217
C133	C	0.881184	-0.502127	-0.612026
C134	C	1.381184	-0.002127	-0.112026
C135	C	0.869460	-0.432575	-0.592101
C136	C	1.369460	0.067425	-0.092101
H137	H	0.850545	-0.532614	-0.589272
H138	H	1.350545	-0.032614	-0.089272
H139	H	0.874720	-0.508542	-0.659437
H140	H	1.374720	-0.008542	-0.159437
H141	H	0.926236	-0.512396	-0.600872
H142	H	1.426236	-0.012396	-0.100872
H143	H	0.824409	-0.422305	-0.603260
H144	H	1.324409	0.077695	-0.103260
H145	H	0.875918	-0.426157	-0.544680
H146	H	1.375918	0.073843	-0.044680
C147	C	0.403710	-0.283494	-0.203534
C148	C	0.903710	0.216506	0.296466
C149	C	0.364724	-0.243945	-0.245446
C150	C	0.864724	0.256055	0.254554
H151	H	0.428945	-0.252967	-0.172957
H152	H	0.928945	0.247033	0.327043
H153	H	0.374855	-0.314059	-0.178853
H154	H	0.874855	0.185941	0.321147
H155	H	0.433778	-0.310270	-0.230370
H156	H	0.933778	0.189730	0.269630
H157	H	0.334653	-0.217173	-0.218611
H158	H	0.834653	0.282827	0.281389
H159	H	0.393582	-0.213369	-0.270129
H160	H	0.893582	0.286631	0.229871
H161	H	0.882374	-0.419695	-0.957430
H162	H	1.382374	0.080305	-0.457430
H163	H	0.581649	-0.256751	-0.258275
H164	H	1.081649	0.243249	0.241725
H165	H	0.225890	-0.256770	-0.258298
H166	H	0.725890	0.243230	0.241702
C167	C	0.676170	-0.204463	-0.205868
C168	C	1.176170	0.295537	0.294132
C169	C	0.720497	-0.243933	-0.245414
C170	C	1.220497	0.256067	0.254586
H171	H	0.701410	-0.173946	-0.175285
H172	H	1.201410	0.326054	0.324715
H173	H	0.649728	-0.177637	-0.234303
H174	H	1.149728	0.322363	0.265697
H175	H	0.647316	-0.235039	-0.181187
H176	H	1.147316	0.264961	0.318813
H177	H	0.749347	-0.213357	-0.270099
H178	H	1.249347	0.286643	0.229901
H179	H	0.746950	-0.270761	-0.216975
H180	H	1.246950	0.229239	0.283025
H181	H	0.703185	-0.419953	-0.421739
H182	H	1.203185	0.080047	0.078261
H183	H	1.031730	-0.605703	-0.272512
H184	H	1.531730	-0.105703	0.227488
C185	C	1.133601	-1.062904	-0.252649
C186	C	1.633601	-0.562904	0.247351
C187	C	1.065856	-1.080709	-0.238707
C188	C	1.565856	-0.580709	0.261293
H189	H	1.161982	-1.087780	-0.224325
H190	H	1.661982	-0.587780	0.275675
H191	H	1.142984	-1.074891	-0.298624
H192	H	1.642984	-0.574891	0.201376
H193	H	1.141782	-1.013968	-0.244443
H194	H	1.641782	-0.513968	0.255557
H195	H	1.057673	-1.129644	-0.246918
H196	H	1.557673	-0.629644	0.253082
H197	H	1.056469	-1.068727	-0.192721
H198	H	1.556469	-0.568727	0.307279
H199	H	0.882337	-0.419734	-0.729907
H200	H	1.382337	0.080266	-0.229907
H201	H	0.574951	-0.419956	-0.421754
H202	H	1.074951	0.080044	0.078246
H203	H	0.347424	-0.419970	-0.421771
H204	H	0.847424	0.080030	0.078229
C205	C	0.876516	-0.612945	-0.509109
C206	C	1.376516	-0.112945	-0.009109
C207	C	0.862664	-0.595271	-0.441338
C208	C	1.362664	-0.095271	0.058662
H209	H	0.848139	-0.588063	-0.537432
H210	H	1.348139	-0.088063	-0.037432
H211	H	0.922475	-0.600879	-0.518551
H212	H	1.422475	-0.100879	-0.018551
H213	H	0.868317	-0.661880	-0.517308
H214	H	1.368317	-0.161880	-0.017308
H215	H	0.870868	-0.546337	-0.433138
H216	H	1.370868	-0.046337	0.066862
H217	H	0.816694	-0.607333	-0.431892
H218	H	1.316694	-0.107333	0.068108
H219	H	1.026308	-0.738768	-0.278008
H220	H	1.526308	-0.238768	0.221992
H221	H	1.020604	-0.825547	-0.283763
H222	H	1.520604	-0.325547	0.216237
C223	C	1.056843	-0.944534	-0.166048
C224	C	1.556843	-0.444534	0.333952
C225	C	1.072134	-0.926743	-0.232359
C226	C	1.572134	-0.426743	0.267641
H227	H	1.087258	-0.919649	-0.135677
H228	H	1.587258	-0.419649	0.364323
H229	H	1.011868	-0.932552	-0.155607
H230	H	1.511868	-0.432552	0.344393
H231	H	1.061044	-0.993468	-0.161889
H232	H	1.561044	-0.493468	0.338111
H233	H	1.067928	-0.877809	-0.236520
H234	H	1.567928	-0.377809	0.263480
H235	H	1.117120	-0.938721	-0.242803
H236	H	1.617120	-0.438721	0.257197
H237	H	0.907910	-0.850454	-0.396289
H238	H	1.407910	-0.350454	0.103711
C239	C	1.047410	-0.174330	-1.068651
C240	C	1.547410	0.325670	-0.568651
C241	C	1.059121	-0.243882	-1.088586
C242	C	1.559121	0.256118	-0.588586
H243	H	1.078064	-0.143846	-1.091390
H244	H	1.578064	0.356154	-0.591390
H245	H	1.002369	-0.164047	-1.079811
H246	H	1.502369	0.335953	-0.579811
H247	H	1.053865	-0.167927	-1.021232
H248	H	1.553865	0.332073	-0.521232
H249	H	1.052661	-0.250287	-1.136004
H250	H	1.552661	0.249713	-0.636004
H251	H	1.104173	-0.254169	-1.077431
H252	H	1.604173	0.245831	-0.577431
H253	H	0.902204	-0.937224	-0.402041
H254	H	1.402204	-0.437224	0.097959
C255	C	0.847947	-1.033079	-0.456289
C256	C	1.347947	-0.533079	0.043711
C257	C	0.884013	-1.080750	-0.420287
C258	C	1.384013	-0.580750	0.079713
H259	H	0.817548	-1.057975	-0.486670
H260	H	1.317548	-0.557975	0.013330
H261	H	0.823234	-1.004514	-0.425603
H262	H	1.323234	-0.504514	0.074397
H263	H	0.878600	-1.004425	-0.481021
H264	H	1.378600	-0.504425	0.018979
H265	H	0.853360	-1.109401	-0.395552
H266	H	1.353360	-0.609401	0.104448
H267	H	0.908727	-1.109327	-0.450978
H268	H	1.408727	-0.609327	0.049022
H269	H	0.882388	-0.419658	-1.085662
H270	H	1.382388	0.080342	-0.585662
H271	H	0.869154	-0.738803	-0.434936
H272	H	1.369154	-0.238803	0.065064
H273	H	1.046184	-0.256805	-0.595043
H274	H	1.546184	0.243195	-0.095043
C275	C	1.098705	-0.204573	-0.685278
C276	C	1.598705	0.295427	-0.185278
C277	C	1.059071	-0.243976	-0.732831
C278	C	1.559071	0.256024	-0.232831
H279	H	1.129359	-0.174094	-0.708024
H280	H	1.629359	0.325906	-0.208024
H281	H	1.070333	-0.177709	-0.656607
H282	H	1.570333	0.322291	-0.156607
H283	H	1.123311	-0.235194	-0.658962
H284	H	1.623311	0.264806	-0.158962
H285	H	1.034461	-0.213355	-0.759144
H286	H	1.534461	0.286645	-0.259144
H287	H	1.087446	-0.270841	-0.761514
H288	H	1.587446	0.229159	-0.261514
C289	C	1.022773	-0.198822	-0.897721
C290	C	1.522773	0.301178	-0.397721
C291	C	1.059088	-0.243913	-0.940207
C292	C	1.559088	0.256087	-0.440207
H293	H	1.053408	-0.168341	-0.872500
H294	H	1.553408	0.331659	-0.372500
H295	H	0.994407	-0.171961	-0.924200
H296	H	1.494407	0.328039	-0.424200
H297	H	0.995882	-0.225587	-0.867642
H298	H	1.495882	0.274413	-0.367642
H299	H	1.085975	-0.217148	-0.970290
H300	H	1.585975	0.282852	-0.470290
H301	H	1.087465	-0.270777	-0.913726
H302	H	1.587465	0.229223	-0.413726
