data_functionalizedCrystal
_audit_creation_method	'MofGen! by Chris Wilmer'
_symmetry_space_group_name_H-M	'P1'
_symmetry_Int_Tables_number	1
_symmetry_cell_setting	triclinic
loop_
_symmetry_equiv_pos_as_xyz
  x,y,z
_cell_length_a	8.597340
_cell_length_b	11.792241
_cell_length_c	7.088929
_cell_angle_alpha	96.266551
_cell_angle_beta	76.045281
_cell_angle_gamma	84.766049
loop_
_atom_site_label
_atom_site_type_symbol
_atom_site_fract_x
_atom_site_fract_y
_atom_site_fract_z
O1	O	2.102716	0.155872	-0.187392
O2	O	2.602716	0.655872	0.312608
O3	O	1.638193	0.174400	-0.110867
O4	O	2.138193	0.674400	0.389133
O5	O	1.881728	-0.000096	-0.151001
O6	O	2.381728	0.499904	0.348999
O7	O	1.859180	0.330368	-0.147259
O8	O	2.359180	0.830368	0.352741
O9	O	1.914274	-0.023469	-0.474339
O10	O	2.414274	0.476531	0.025661
O11	O	1.670739	0.151027	-0.434206
O12	O	2.170739	0.651027	0.065794
O13	O	2.135261	0.132500	-0.510731
O14	O	2.635261	0.632500	-0.010731
Cu15	Cu	1.905972	0.139629	-0.501992
Cu16	Cu	2.405972	0.639629	-0.001992
Cu17	Cu	1.867483	0.167270	-0.119607
Cu18	Cu	2.367483	0.667270	0.380393
O19	O	1.891726	0.306996	-0.470598
O20	O	2.391726	0.806996	0.029402
C21	C	1.594997	0.162026	-0.262740
C22	C	2.094997	0.662026	0.237260
C23	C	1.417798	0.159963	-0.233549
C24	C	1.917798	0.659963	0.266451
C25	C	1.896585	-0.054066	-0.312436
C26	C	2.396585	0.445934	0.187564
C27	C	1.892346	-0.180056	-0.311736
C28	C	2.392346	0.319944	0.188264
C29	C	1.884548	-0.410724	-0.310419
C30	C	2.384548	0.089276	0.189581
C31	C	1.888881	-0.282364	-0.311150
C32	C	2.388881	0.217636	0.188850
C33	C	2.178457	0.144874	-0.358854
C34	C	2.678457	0.644874	0.141146
C35	C	2.355655	0.146938	-0.388033
C36	C	2.855655	0.646938	0.111967
C37	C	1.876869	0.360965	-0.309158
C38	C	2.376869	0.860965	0.190842
C39	C	1.881107	0.486957	-0.309846
C40	C	2.381107	0.986957	0.190154
N41	N	1.933054	0.120188	-0.770943
N42	N	2.433054	0.620188	-0.270943
N43	N	1.840413	0.186702	0.149342
N44	N	2.340413	0.686702	0.649342
H45	H	1.335428	0.169538	-0.078938
H46	H	1.835428	0.669538	0.421062
H47	H	1.744400	0.255631	-0.753189
H48	H	2.244400	0.755631	-0.253189
H49	H	2.029085	0.051263	-0.868424
H50	H	2.529085	0.551263	-0.368424
H51	H	1.438017	0.137355	-0.542633
H52	H	1.938017	0.637355	-0.042633
