data_functionalizedCrystal
_audit_creation_method	'MofGen! by Chris Wilmer'
_symmetry_space_group_name_H-M	'P1'
_symmetry_Int_Tables_number	1
_symmetry_cell_setting	triclinic
loop_
_symmetry_equiv_pos_as_xyz
  x,y,z
_cell_length_a	27.732048
_cell_length_b	27.732048
_cell_length_c	26.210047
_cell_angle_alpha	90.024823
_cell_angle_beta	89.996010
_cell_angle_gamma	82.642655
loop_
_atom_site_label
_atom_site_type_symbol
_atom_site_fract_x
_atom_site_fract_y
_atom_site_fract_z
O1	O	0.640924	0.057528	0.042369
O2	O	1.140924	0.557528	0.542369
O3	O	0.500130	0.066273	0.042385
O4	O	1.000130	0.566273	0.542385
O5	O	0.574900	-0.008496	0.042367
O6	O	1.074900	0.491504	0.542367
O7	O	0.566154	0.132297	0.042387
O8	O	1.066154	0.632297	0.542387
O9	O	0.574900	-0.008520	-0.042491
O10	O	1.074900	0.491480	0.457509
O11	O	0.500131	0.066249	-0.042473
O12	O	1.000131	0.566249	0.457527
O13	O	0.640924	0.057504	-0.042489
O14	O	1.140924	0.557504	0.457511
Cu15	Cu	0.570528	0.061874	-0.050229
Cu16	Cu	1.070528	0.561874	0.449771
Cu17	Cu	0.570527	0.061903	0.050125
Cu18	Cu	1.070527	0.561903	0.550125
O19	O	0.566155	0.132273	-0.042471
O20	O	1.066155	0.632273	0.457529
C21	C	0.482124	0.066078	-0.000042
C22	C	0.982124	0.566078	0.499958
C23	C	0.428469	0.065525	-0.000036
C24	C	0.928469	0.565525	0.499964
C25	C	0.089654	0.106229	-0.000053
C26	C	0.589654	0.606229	0.499947
C27	C	-0.112006	0.104178	-0.000057
C28	C	0.387994	0.604178	0.499943
O29	O	-0.143262	0.141398	-0.000074
O30	O	0.356738	0.641398	0.499926
N31	N	-0.131130	0.059843	-0.000063
N32	N	0.368870	0.559843	0.499937
C33	C	-0.099835	0.016017	-0.000071
C34	C	0.400165	0.516017	0.499929
O35	O	-0.120728	-0.021740	-0.000081
O36	O	0.379272	0.478260	0.499919
C37	C	0.101824	0.018068	-0.000069
C38	C	0.601824	0.518068	0.499931
C39	C	0.120944	0.062407	-0.000059
C40	C	0.620944	0.562407	0.499941
C41	C	0.108775	0.150563	-0.000043
C42	C	0.608775	0.650563	0.499957
C43	C	0.159187	0.151075	-0.000039
C44	C	0.659187	0.651075	0.499961
C45	C	0.190477	0.107253	-0.000045
C46	C	0.690477	0.607253	0.499955
C47	C	0.171356	0.062919	-0.000055
C48	C	0.671356	0.562919	0.499945
C49	C	0.133117	-0.025757	-0.000081
C50	C	0.633117	0.474243	0.499919
C51	C	0.183535	-0.025240	-0.000082
C52	C	0.683535	0.474760	0.499918
C53	C	0.202655	0.019098	-0.000071
C54	C	0.702655	0.519098	0.499929
C55	C	0.253059	0.019609	-0.000057
C56	C	0.753059	0.519609	0.499943
N57	N	0.272183	0.063944	-0.000051
N58	N	0.772183	0.563944	0.499949
C59	C	0.240892	0.107766	-0.000045
C60	C	0.740892	0.607766	0.499955
C61	C	-0.205709	0.014943	-0.000070
C62	C	0.294291	0.514943	0.499930
C63	C	-0.256124	0.014430	-0.000070
C64	C	0.243876	0.514430	0.499930
C65	C	-0.268291	0.102591	-0.000057
C66	C	0.231709	0.602591	0.499943
C67	C	-0.217876	0.103103	-0.000054
C68	C	0.282124	0.603103	0.499946
C69	C	-0.186585	0.059278	-0.000065
C70	C	0.313415	0.559278	0.499935
C71	C	0.346761	0.108839	-0.000036
C72	C	0.846761	0.608839	0.499964
C73	C	0.397178	0.109347	-0.000030
C74	C	0.897178	0.609347	0.499970
C75	C	0.409341	0.021186	-0.000045
C76	C	0.909341	0.521186	0.499955
C77	C	0.358929	0.020678	-0.000049
C78	C	0.858929	0.520678	0.499951
C79	C	0.327639	0.064508	-0.000046
C80	C	0.827639	0.564508	0.499954
O81	O	0.284343	-0.017592	-0.000046
O82	O	0.784343	0.482408	0.499954
O83	O	0.261794	0.145518	-0.000047
O84	O	0.761794	0.645518	0.499953
C85	C	0.039242	0.105716	-0.000057
C86	C	0.539242	0.605716	0.499943
C87	C	0.020120	0.061382	-0.000067
C88	C	0.520120	0.561382	0.499933
C89	C	0.051411	0.017560	-0.000073
C90	C	0.551411	0.517560	0.499927
C91	C	-0.030294	0.060869	-0.000066
C92	C	0.469706	0.560869	0.499934
C93	C	-0.061585	0.104691	-0.000060
C94	C	0.438415	0.604691	0.499940
C95	C	-0.042461	0.149026	-0.000054
C96	C	0.457539	0.649026	0.499946
C97	C	0.007951	0.149539	-0.000050
C98	C	0.507951	0.649539	0.499950
C99	C	0.032287	-0.026775	-0.000078
C100	C	0.532287	0.473225	0.499922
C101	C	-0.018125	-0.027284	-0.000082
C102	C	0.481875	0.472716	0.499918
C103	C	-0.049416	0.016538	-0.000076
C104	C	0.450584	0.516538	0.499924
C105	C	0.574716	-0.026515	-0.000064
C106	C	1.074716	0.473485	0.499936
C107	C	0.574164	-0.080170	-0.000068
C108	C	1.074164	0.419830	0.499932
C109	C	0.614867	-0.418985	-0.000046
C110	C	1.114867	0.081015	0.499954
C111	C	0.612816	-0.620645	-0.000039
C112	C	1.112816	-0.120645	0.499961
O113	O	0.650037	-0.651900	-0.000021
O114	O	1.150037	-0.151900	0.499979
N115	N	0.568481	-0.639768	-0.000034
N116	N	1.068481	-0.139768	0.499966
C117	C	0.524656	-0.608474	-0.000028
C118	C	1.024656	-0.108474	0.499972
O119	O	0.486899	-0.629367	-0.000019
O120	O	0.986899	-0.129367	0.499981
C121	C	0.526707	-0.406815	-0.000032
C122	C	1.026707	0.093185	0.499968
C123	C	0.571045	-0.387694	-0.000042
C124	C	1.071045	0.112306	0.499958
C125	C	0.659202	-0.399864	-0.000056
C126	C	1.159202	0.100136	0.499944
C127	C	0.659714	-0.349452	-0.000060
C128	C	1.159714	0.150548	0.499940
C129	C	0.615892	-0.318161	-0.000056
C130	C	1.115892	0.181839	0.499944
C131	C	0.571557	-0.337282	-0.000046
C132	C	1.071557	0.162718	0.499954
C133	C	0.482882	-0.375521	-0.000022
C134	C	0.982882	0.124479	0.499978
C135	C	0.483399	-0.325104	-0.000022
C136	C	0.983399	0.174896	0.499978
C137	C	0.527737	-0.305983	-0.000032
C138	C	1.027737	0.194017	0.499968
C139	C	0.528248	-0.255580	-0.000046
C140	C	1.028248	0.244420	0.499954
N141	N	0.572583	-0.236456	-0.000051
N142	N	1.072583	0.263544	0.499949
C143	C	0.616405	-0.267747	-0.000056
C144	C	1.116405	0.232253	0.499944
C145	C	0.523582	-0.714348	-0.000027
C146	C	1.023582	-0.214348	0.499973
C147	C	0.523069	-0.764762	-0.000027
C148	C	1.023069	-0.264762	0.499973
C149	C	0.611230	-0.776930	-0.000037
C150	C	1.111230	-0.276930	0.499963
C151	C	0.611742	-0.726514	-0.000041
C152	C	1.111742	-0.226514	0.499959
C153	C	0.567917	-0.695224	-0.000032
C154	C	1.067917	-0.195224	0.499968
C155	C	0.617477	-0.161878	-0.000066
C156	C	1.117477	0.338122	0.499934
C157	C	0.617986	-0.111461	-0.000073
C158	C	1.117986	0.388539	0.499927
C159	C	0.529825	-0.099298	-0.000060
C160	C	1.029825	0.400702	0.499940
C161	C	0.529316	-0.149710	-0.000056
C162	C	1.029316	0.350290	0.499944
C163	C	0.573147	-0.180999	-0.000057
C164	C	1.073147	0.319001	0.499943
O165	O	0.491047	-0.224296	-0.000059
O166	O	0.991047	0.275704	0.499941
O167	O	0.654156	-0.246844	-0.000054
O168	O	1.154156	0.253156	0.499946
C169	C	0.614355	-0.469397	-0.000042
C170	C	1.114355	0.030603	0.499958
C171	C	0.570021	-0.488518	-0.000033
C172	C	1.070021	0.011482	0.499967
C173	C	0.526198	-0.457228	-0.000028
C174	C	1.026198	0.042772	0.499972
C175	C	0.569508	-0.538933	-0.000033
C176	C	1.069508	-0.038933	0.499967
C177	C	0.613330	-0.570223	-0.000037
C178	C	1.113330	-0.070223	0.499963
C179	C	0.657665	-0.551100	-0.000042
C180	C	1.157665	-0.051100	0.499958
C181	C	0.658177	-0.500688	-0.000046
C182	C	1.158177	-0.000688	0.499954
C183	C	0.481863	-0.476351	-0.000023
C184	C	0.981863	0.023649	0.499977
C185	C	0.481355	-0.526764	-0.000019
C186	C	0.981355	-0.026764	0.499981
C187	C	0.525177	-0.558054	-0.000024
C188	C	1.025177	-0.058054	0.499976
C189	C	0.658931	0.057699	-0.000061
C190	C	1.158931	0.557699	0.499939
C191	C	0.712586	0.058252	-0.000064
C192	C	1.212586	0.558252	0.499936
C193	C	0.566338	0.150292	-0.000040
C194	C	1.066338	0.650292	0.499960
C195	C	0.566891	0.203947	-0.000032
C196	C	1.066891	0.703947	0.499968
N197	N	0.570527	0.061920	0.120709
N198	N	1.070527	0.561920	0.620709
N199	N	0.570532	0.061854	-0.120813
N200	N	1.070532	0.561854	0.379187
C201	C	0.541500	0.032699	0.473222
C202	C	1.041500	0.532699	0.973222
C203	C	0.541501	0.032684	0.686880
C204	C	1.041501	0.532684	1.186880
O205	O	0.516826	0.007852	0.714501
O206	O	1.016826	0.507852	1.214501
N207	N	0.570533	0.061862	0.713603
N208	N	1.070533	0.561862	1.213603
C209	C	0.599569	0.091044	0.686907
C210	C	1.099569	0.591044	1.186907
O211	O	0.624266	0.115858	0.714539
O212	O	1.124266	0.615858	1.214539
C213	C	0.599570	0.091056	0.473250
C214	C	1.099570	0.591056	0.973250
C215	C	0.570533	0.061880	0.446530
C216	C	1.070533	0.561880	0.946530
C217	C	0.512465	0.003525	0.446502
C218	C	1.012465	0.503525	0.946502
C219	C	0.512463	0.003531	0.393091
C220	C	1.012463	0.503531	0.893091
C221	C	0.541496	0.032712	0.366399
C222	C	1.041496	0.532712	0.866399
C223	C	0.570531	0.061886	0.393119
C224	C	1.070531	0.561886	0.893119
C225	C	0.628608	0.120235	0.446555
C226	C	1.128608	0.620235	0.946555
C227	C	0.628607	0.120234	0.393137
C228	C	1.128607	0.620234	0.893137
C229	C	0.599570	0.091058	0.366418
C230	C	1.099570	0.591058	0.866418
C231	C	0.599561	0.091072	0.313015
C232	C	1.099561	0.591072	0.813015
N233	N	0.570530	0.061894	0.286293
N234	N	1.070530	0.561894	0.786293
C235	C	0.541497	0.032714	0.312985
C236	C	1.041497	0.532714	0.812985
C237	C	0.599565	0.091036	0.799081
C238	C	1.099565	0.591036	1.299081
C239	C	0.599564	0.091034	0.852495
C240	C	1.099564	0.591034	1.352495
C241	C	0.541497	0.032674	0.852464
C242	C	1.041497	0.532674	1.352464
C243	C	0.541496	0.032679	0.799049
C244	C	1.041496	0.532679	1.299049
C245	C	0.570533	0.061858	0.772358
C246	C	1.070533	0.561858	1.272358
C247	C	0.541495	0.032729	0.200817
C248	C	1.041495	0.532729	0.700817
C249	C	0.541494	0.032739	0.147401
C250	C	1.041494	0.532739	0.647401
C251	C	0.599563	0.091098	0.147436
C252	C	1.099563	0.591098	0.647436
C253	C	0.599562	0.091090	0.200847
C254	C	1.099562	0.591090	0.700847
C255	C	0.570527	0.061901	0.227537
C256	C	1.070527	0.561901	0.727537
O257	O	0.624227	0.115887	0.285361
O258	O	1.124227	0.615887	0.785361
O259	O	0.516812	0.007896	0.285344
O260	O	1.016812	0.507896	0.785344
C261	C	0.541502	0.032693	0.526633
C262	C	1.041502	0.532693	1.026633
C263	C	0.570537	0.061868	0.553353
C264	C	1.070537	0.561868	1.053353
C265	C	0.599569	0.091048	0.526661
C266	C	1.099569	0.591048	1.026661
C267	C	0.570536	0.061865	0.606767
C268	C	1.070536	0.561865	1.106767
C269	C	0.541503	0.032685	0.633459
C270	C	1.041503	0.532685	1.133459
C271	C	0.512471	0.003507	0.606737
C272	C	1.012471	0.503507	1.106737
C273	C	0.512469	0.003513	0.553325
C274	C	1.012469	0.503513	1.053325
C275	C	0.628601	0.120226	0.553384
C276	C	1.128601	0.620226	1.053384
C277	C	0.628600	0.120218	0.606795
C278	C	1.128600	0.620218	1.106795
C279	C	0.599567	0.091038	0.633487
C280	C	1.099567	0.591038	1.133487
H281	H	0.434827	-0.014492	-0.000048
H282	H	0.934827	0.485508	0.499952
H283	H	0.623212	0.114799	0.777354
H284	H	1.123212	0.614799	1.277354
H285	H	0.412743	0.145454	-0.000021
H286	H	0.912743	0.645454	0.499979
H287	H	0.652255	0.143992	0.468301
H288	H	1.152255	0.643992	0.968301
O289	O	0.177695	0.194179	0.000036
O290	O	0.677695	0.694179	0.500036
C291	C	0.182710	0.269692	0.044024
C292	C	0.682710	0.769692	0.544024
C293	C	0.161717	0.220896	0.043998
C294	C	0.661717	0.720896	0.543998
H295	H	0.169809	0.291302	0.079569
H296	H	0.669809	0.791302	0.579569
H297	H	0.169780	0.291348	0.008538
H298	H	0.669780	0.791348	0.508538
H299	H	0.224118	0.262534	0.044000
H300	H	0.724118	0.762534	0.544000
H301	H	0.120309	0.228010	0.044041
H302	H	0.620309	0.728010	0.544041
H303	H	0.174685	0.199256	0.079481
H304	H	0.674685	0.699256	0.579481
O305	O	0.654799	-0.707920	-0.000136
O306	O	1.154799	-0.207920	0.499864
C307	C	0.706540	-0.658064	-0.044084
C308	C	1.206540	-0.158064	0.455916
C309	C	0.657763	-0.679094	-0.044048
C310	C	1.157763	-0.179094	0.455952
H311	H	0.708947	-0.634746	-0.079578
H312	H	1.208947	-0.134746	0.420422
H313	H	0.737789	-0.689074	-0.044122
H314	H	1.237789	-0.189074	0.455878
H315	H	0.708979	-0.634774	-0.008554
H316	H	1.208979	-0.134774	0.491446
H317	H	0.655276	-0.702379	-0.079573
H318	H	1.155276	-0.202379	0.420427
H319	H	0.626537	-0.648061	-0.043985
H320	H	1.126537	-0.148061	0.456015
O321	O	0.513275	0.004350	0.121524
O322	O	1.013275	0.504350	0.621524
C323	C	0.455637	-0.053492	0.127138
C324	C	0.955637	0.446508	0.627138
C325	C	0.487578	-0.021375	0.156504
C326	C	0.987578	0.478625	0.656504
H327	H	0.434845	-0.074292	0.155407
H328	H	0.934845	0.425708	0.655407
H329	H	0.479635	-0.080359	0.102145
H330	H	0.979635	0.419641	0.602145
H331	H	0.428757	-0.029573	0.102115
H332	H	0.928757	0.470427	0.602115
H333	H	0.514462	-0.045256	0.181555
H334	H	1.014462	0.454744	0.681555
H335	H	0.463549	0.005496	0.181465
H336	H	0.963549	0.505496	0.681465
H337	H	0.493213	-0.165279	-0.000062
H338	H	0.993213	0.334721	0.499938
H339	H	0.694889	-0.425336	-0.000058
H340	H	1.194889	0.074664	0.499942
O341	O	0.656872	0.148548	0.527517
O342	O	1.156872	0.648548	1.027517
C343	C	0.738028	0.167017	0.511166
C344	C	1.238028	0.667017	1.011166
C345	C	0.706067	0.134911	0.540497
C346	C	1.206067	0.634911	1.040497
H347	H	0.777810	0.155996	0.521642
H348	H	1.277810	0.655996	1.021642
H349	H	0.726916	0.206775	0.521708
H350	H	1.226916	0.706775	1.021708
H351	H	0.733019	0.162025	0.468401
H352	H	1.233019	0.662025	0.968401
H353	H	0.711060	0.139860	0.583269
H354	H	1.211060	0.639860	1.083269
H355	H	0.717188	0.095165	0.529913
H356	H	1.217188	0.595165	1.029913
H357	H	0.654093	-0.095896	-0.000082
H358	H	1.154093	0.404104	0.499918
H359	H	0.694282	-0.485125	-0.000054
H360	H	1.194282	0.014875	0.499946
O361	O	0.656827	0.148626	0.367290
O362	O	1.156827	0.648626	0.867290
C363	C	0.714450	0.206482	0.372962
C364	C	1.214450	0.706482	0.872962
C365	C	0.682506	0.174361	0.402296
C366	C	1.182506	0.674361	0.902296
H367	H	0.735227	0.227291	0.401252
H368	H	1.235227	0.727291	0.901252
H369	H	0.690454	0.233342	0.347986
H370	H	1.190454	0.733342	0.847986
H371	H	0.741342	0.182564	0.347926
H372	H	1.241342	0.682564	0.847926
H373	H	0.655609	0.198241	0.427361
H374	H	1.155609	0.698241	0.927361
H375	H	0.706532	0.147499	0.427240
H376	H	1.206532	0.647499	0.927240
H377	H	0.343360	-0.015426	-0.000050
H378	H	0.843360	0.484574	0.499950
O379	O	-0.036638	-0.070388	-0.000023
O380	O	0.463362	0.429612	0.499977
C381	C	-0.041683	-0.145877	0.043932
C382	C	0.458317	0.354123	0.543932
C383	C	-0.020679	-0.097086	0.043930
C384	C	0.479321	0.402914	0.543930
H385	H	-0.028798	-0.167472	0.079470
H386	H	0.471202	0.332528	0.579470
H387	H	-0.028746	-0.167552	0.008439
H388	H	0.471254	0.332448	0.508439
H389	H	-0.083090	-0.138711	0.043904
H390	H	0.416910	0.361289	0.543904
H391	H	0.020728	-0.104208	0.043976
H392	H	0.520728	0.395792	0.543976
H393	H	-0.033655	-0.075427	0.079420
H394	H	0.466345	0.424573	0.579420
H395	H	0.653168	-0.187348	-0.000065
H396	H	1.153168	0.312652	0.499935
H397	H	0.321291	0.144529	-0.000036
H398	H	0.821291	0.644529	0.499964
O399	O	0.438238	-0.545254	0.000012
O400	O	0.938238	-0.045254	0.500012
C401	C	0.350850	-0.527850	0.000002
C402	C	0.850850	-0.027850	0.500002
C403	C	0.399642	-0.506848	-0.000028
C404	C	0.899642	-0.006848	0.499972
H405	H	0.319632	-0.496810	-0.000042
H406	H	0.819632	0.003190	0.499958
H407	H	0.348373	-0.551111	0.035527
H408	H	0.848373	-0.051111	0.535527
H409	H	0.348426	-0.551184	-0.035499
H410	H	0.848426	-0.051184	0.464501
H411	H	0.402099	-0.483493	0.035448
H412	H	0.902099	0.016507	0.535448
H413	H	0.402098	-0.483615	-0.035577
H414	H	0.902098	0.016385	0.464423
H415	H	-0.293777	0.138273	-0.000053
H416	H	0.206223	0.638273	0.499947
O417	O	0.487214	-0.068966	-0.000074
O418	O	0.987214	0.431034	0.499926
C419	C	0.399716	-0.062203	-0.000016
C420	C	0.899716	0.437797	0.499984
C421	C	0.447937	-0.096611	-0.000018
C422	C	0.947937	0.403389	0.499982
H423	H	0.367948	-0.084541	0.000040
H424	H	0.867948	0.415459	0.500040
H425	H	0.397715	-0.038318	-0.035536
H426	H	0.897715	0.461682	0.464464
H427	H	0.397788	-0.038274	0.035490
H428	H	0.897788	0.461726	0.535490
H429	H	0.449897	-0.120571	-0.035500
H430	H	0.949897	0.379429	0.464500
H431	H	0.449917	-0.120463	0.035525
H432	H	0.949917	0.379537	0.535525
O433	O	0.439304	-0.445940	0.000070
O434	O	0.939304	0.054060	0.500070
C435	C	0.388717	-0.381923	0.044013
C436	C	0.888717	0.118077	0.544013
C437	C	0.436931	-0.416340	0.043980
C438	C	0.936931	0.083660	0.543980
H439	H	0.386787	-0.357976	0.079505
H440	H	0.886787	0.142024	0.579505
H441	H	0.356927	-0.404233	0.044050
H442	H	0.856927	0.095767	0.544050
H443	H	0.386757	-0.358057	0.008481
H444	H	0.886757	0.141943	0.508481
H445	H	0.438939	-0.440214	0.079506
H446	H	0.938939	0.059786	0.579506
H447	H	0.468698	-0.394001	0.043916
H448	H	0.968698	0.105999	0.543916
H449	H	0.517851	0.008961	0.222541
H450	H	1.017851	0.508961	0.722541
H451	H	0.623200	0.114854	0.222604
H452	H	1.123200	0.614854	0.722604
O453	O	0.513279	0.004290	0.773174
O454	O	1.013279	0.504290	1.273174
C455	C	0.455648	-0.053558	0.778795
C456	C	0.955648	0.446442	1.278795
C457	C	0.487588	-0.021437	0.808158
C458	C	0.987588	0.478563	1.308158
H459	H	0.434860	-0.074359	0.807066
H460	H	0.934860	0.425641	1.307066
H461	H	0.479646	-0.080424	0.753801
H462	H	0.979646	0.419576	1.253801
H463	H	0.428764	-0.029640	0.753774
H464	H	0.928764	0.470360	1.253774
H465	H	0.514476	-0.045316	0.833207
H466	H	1.014476	0.454684	1.333207
H467	H	0.463559	0.005432	0.833120
H468	H	0.963559	0.505432	1.333120
H469	H	0.623199	0.114857	0.125694
H470	H	1.123199	0.614857	0.625694
H471	H	0.693347	-0.576585	-0.000048
H472	H	1.193347	-0.076585	0.499952
H473	H	0.488830	-0.020251	0.628478
H474	H	0.988830	0.479749	1.128478
O475	O	0.440794	-0.294758	0.000054
O476	O	0.940794	0.205242	0.500054
C477	C	0.365615	-0.268895	0.044045
C478	C	0.865615	0.231105	0.544045
C479	C	0.413840	-0.303295	0.044018
C480	C	0.913840	0.196705	0.544018
H481	H	0.343814	-0.275778	0.079592
H482	H	0.843814	0.224222	0.579592
H483	H	0.343742	-0.275829	0.008562
H484	H	0.843742	0.224171	0.508562
H485	H	0.373606	-0.229580	0.044017
H486	H	0.873606	0.270420	0.544017
H487	H	0.405894	-0.342622	0.044065
H488	H	0.905894	0.157378	0.544065
H489	H	0.435699	-0.296319	0.079499
H490	H	0.935699	0.203681	0.579499
H491	H	0.695819	-0.333889	-0.000066
H492	H	1.195819	0.166111	0.499934
H493	H	-0.271687	-0.021674	-0.000070
H494	H	0.228313	0.478326	0.499930
H495	H	0.646911	-0.802415	-0.000041
H496	H	1.146911	-0.302415	0.499959
O497	O	0.627812	0.119393	0.878368
O498	O	1.127812	0.619393	1.378368
C499	C	0.685386	0.177298	0.872746
C500	C	1.185386	0.677298	1.372746
C501	C	0.653424	0.145198	0.843384
C502	C	1.153424	0.645198	1.343384
H503	H	0.706094	0.198178	0.844474
H504	H	1.206094	0.698178	1.344474
H505	H	0.712333	0.153406	0.897725
H506	H	1.212333	0.653406	1.397725
H507	H	0.661363	0.204101	0.897782
H508	H	1.161363	0.704101	1.397782
H509	H	0.677408	0.118390	0.818320
H510	H	1.177408	0.618390	1.318320
H511	H	0.626474	0.169120	0.818438
H512	H	1.126474	0.669120	1.318438
O513	O	0.484252	-0.024876	0.527451
O514	O	0.984252	0.475124	1.027451
C515	C	0.426617	-0.082720	0.533075
C516	C	0.926617	0.417280	1.033075
C517	C	0.458558	-0.050599	0.562436
C518	C	0.958558	0.449401	1.062436
H519	H	0.405827	-0.103517	0.561348
H520	H	0.905827	0.396483	1.061348
H521	H	0.450615	-0.109588	0.508084
H522	H	0.950615	0.390412	1.008084
H523	H	0.399735	-0.058803	0.508052
H524	H	0.899735	0.441197	1.008052
H525	H	0.485444	-0.074477	0.587488
H526	H	0.985444	0.425523	1.087488
H527	H	0.434530	-0.023726	0.587395
H528	H	0.934530	0.476274	1.087395
H529	H	-0.180236	-0.020747	-0.000079
H530	H	0.319764	0.479253	0.499921
H531	H	0.652245	0.143982	0.628546
H532	H	1.152245	0.643982	1.128546
H533	H	0.083302	0.186251	-0.000039
H534	H	0.583302	0.686251	0.499961
H535	H	-0.202311	0.139207	-0.000049
H536	H	0.297689	0.639207	0.499951
H537	H	0.517856	0.008915	0.874206
H538	H	1.017856	0.508915	1.374206
H539	H	0.209009	-0.060929	-0.000091
H540	H	0.709009	0.439071	0.499909
H541	H	0.117558	-0.061861	-0.000090
H542	H	0.617558	0.438139	0.499910
H543	H	0.023514	0.185643	-0.000042
H544	H	0.523514	0.685643	0.499958
H545	H	-0.067947	0.184708	-0.000047
H546	H	0.432053	0.684708	0.499953
H547	H	0.446777	-0.391080	-0.000011
H548	H	0.946777	0.108920	0.499989
O549	O	0.479956	-0.783252	-0.000001
O550	O	0.979956	-0.283252	0.499999
C551	C	0.392567	-0.765849	-0.000018
C552	C	0.892567	-0.265849	0.499982
C553	C	0.441359	-0.744847	-0.000040
C554	C	0.941359	-0.244847	0.499960
H555	H	0.361349	-0.734809	-0.000061
H556	H	0.861349	-0.234809	0.499939
H557	H	0.390088	-0.789114	0.035504
H558	H	0.890088	-0.289114	0.535504
H559	H	0.390146	-0.789179	-0.035522
H560	H	0.890146	-0.289179	0.464478
H561	H	0.443813	-0.721496	0.035439
H562	H	0.943813	-0.221496	0.535439
H563	H	0.443818	-0.721610	-0.035586
H564	H	0.943818	-0.221610	0.464414
H565	H	0.487892	-0.688875	-0.000020
H566	H	0.987892	-0.188875	0.499980
O567	O	0.062700	-0.069334	-0.000171
O568	O	0.562700	0.430666	0.499829
C569	C	0.126707	-0.119932	-0.044111
C570	C	0.626707	0.380068	0.455889
C571	C	0.092287	-0.071719	-0.044081
C572	C	0.592287	0.428281	0.455919
H573	H	0.150644	-0.121872	-0.079603
H574	H	0.650644	0.378128	0.420397
H575	H	0.104399	-0.151723	-0.044148
H576	H	0.604399	0.348277	0.455852
H577	H	0.150583	-0.121879	-0.008578
H578	H	0.650583	0.378121	0.491422
H579	H	0.068404	-0.069725	-0.079607
H580	H	0.568404	0.430275	0.420393
H581	H	0.114624	-0.039951	-0.044017
H582	H	0.614624	0.460049	0.455983
O583	O	0.484249	-0.024859	0.367216
O584	O	0.984249	0.475141	0.867216
C585	C	0.426619	-0.082709	0.372837
C586	C	0.926619	0.417291	0.872837
C587	C	0.458556	-0.050585	0.402199
C588	C	0.958556	0.449415	0.902199
H589	H	0.405830	-0.103509	0.401108
H590	H	0.905830	0.396491	0.901108
H591	H	0.450620	-0.109576	0.347845
H592	H	0.950620	0.390424	0.847845
H593	H	0.399736	-0.058794	0.347813
H594	H	0.899736	0.441206	0.847813
H595	H	0.485444	-0.074462	0.427251
H596	H	0.985444	0.425538	0.927251
H597	H	0.434525	-0.023716	0.427159
H598	H	0.934525	0.476284	0.927159
H599	H	0.488823	-0.020240	0.468229
H600	H	0.988823	0.479760	0.968229
