data_functionalizedCrystal
_audit_creation_method	'MofGen! by Chris Wilmer'
_symmetry_space_group_name_H-M	'P1'
_symmetry_Int_Tables_number	1
_symmetry_cell_setting	triclinic
loop_
_symmetry_equiv_pos_as_xyz
  x,y,z
_cell_length_a	27.440280
_cell_length_b	14.560438
_cell_length_c	14.560438
_cell_angle_alpha	90.001361
_cell_angle_beta	60.007584
_cell_angle_gamma	59.998988
loop_
_atom_site_label
_atom_site_type_symbol
_atom_site_fract_x
_atom_site_fract_y
_atom_site_fract_z
Zr1	Zr	0.533397	-0.120498	0.884883
O2	O	0.635056	-0.267144	0.738263
O3	O	0.431736	-0.075545	0.929813
O4	O	0.533396	-0.267143	0.929840
O5	O	0.533397	0.075593	0.738235
O6	O	0.533397	-0.267141	1.080978
O7	O	0.533396	-0.075545	0.738237
O8	O	0.351546	0.075594	1.080930
O9	O	0.715248	-0.267142	0.738283
O10	O	0.473552	-0.056369	1.061789
O11	O	0.473552	0.056422	0.948995
O12	O	0.593244	-0.169161	0.949026
O13	O	0.593244	-0.056370	0.836232
Zr14	Zr	0.533401	0.120554	1.125929
Zr15	Zr	0.533399	-0.120494	1.125931
Zr16	Zr	0.533399	0.120550	0.884881
Zr17	Zr	0.661294	-0.120495	0.884914
Zr18	Zr	0.405503	0.120551	1.125898
O19	O	0.635062	0.075601	1.080999
O20	O	0.635059	-0.267139	1.081003
O21	O	0.635059	0.075595	0.738260
O22	O	0.431742	0.267200	1.272549
O23	O	0.431739	-0.075539	1.272552
O24	O	0.431739	0.267195	0.929810
O25	O	0.533401	-0.075537	1.272577
O26	O	0.533402	0.267199	1.080973
O27	O	0.533401	0.267197	0.929835
O28	O	0.533402	0.075601	1.272576
O29	O	0.715250	-0.267139	0.929884
O30	O	0.351548	0.267195	1.080929
O31	O	0.351550	0.267198	1.272530
O32	O	0.351548	0.075597	1.272532
O33	O	0.715250	-0.075541	0.738281
O34	O	0.715252	-0.075538	0.929882
O35	O	0.473554	0.169217	1.061786
O36	O	0.473554	0.056426	1.174580
O37	O	0.593246	-0.056366	1.061818
O38	O	0.593246	0.056425	0.949024
C39	C	0.373418	0.000024	1.005367
C40	C	0.319122	0.000023	1.005354
C41	C	0.533396	0.000023	0.703892
C42	C	0.533395	0.000022	0.601561
C43	C	0.533402	0.301542	1.005403
C44	C	0.533402	0.403874	1.005402
C45	C	-0.017620	-0.058838	1.064315
C46	C	-0.068643	-0.058835	1.064325
O47	O	-0.095050	-0.108872	1.114432
N48	N	-0.094160	0.000039	1.005447
C49	C	-0.068654	0.058922	0.946564
O50	O	-0.095043	0.109000	0.896485
C51	C	-0.017635	0.058925	0.946561
C52	C	0.007884	0.000038	1.005434
C53	C	0.007898	-0.117719	1.123184
C54	C	0.058920	-0.117723	1.123172
C55	C	0.084423	-0.058847	1.064290
C56	C	0.058905	0.000034	1.005421
C57	C	0.007866	0.117814	0.887685
C58	C	0.058889	0.117813	0.887688
C59	C	0.084407	0.058926	0.946561
C60	C	0.135430	0.058906	0.946528
N61	N	0.160946	0.000032	1.005406
C62	C	0.135442	-0.058844	1.064287
C63	C	-0.175799	0.058913	0.946576
C64	C	-0.226814	0.058905	0.946572
C65	C	-0.226801	-0.058851	1.064335
C66	C	-0.175782	-0.058848	1.064332
C67	C	-0.150283	0.000040	1.005454
C68	C	0.242591	-0.058850	1.064257
C69	C	0.293619	-0.058853	1.064235
C70	C	0.293599	0.058907	0.946477
C71	C	0.242578	0.058906	0.946493
C72	C	0.217074	0.000025	1.005391
O73	O	0.161866	0.108921	0.896450
O74	O	0.161831	-0.108901	1.114370
C75	C	0.693379	0.000032	1.005445
C76	C	0.747675	0.000033	1.005458
C77	C	0.533396	-0.301486	1.005409
C78	C	0.533395	-0.403818	1.005410
C79	C	0.595879	0.393076	0.946547
C80	C	0.595876	0.489231	0.946547
C81	C	0.470914	0.606978	1.064267
C82	C	0.470918	0.510824	1.064260
C83	C	0.658364	0.286125	0.887690
C84	C	0.720845	0.275323	0.828830
C85	C	0.720842	0.371478	0.828830
C86	C	0.658357	0.478435	0.887690
C87	C	0.470919	0.058897	0.612343
C88	C	0.470922	0.058908	0.516188
C89	C	0.595884	-0.058843	0.398472
C90	C	0.595880	-0.058846	0.494625
C91	C	0.408434	0.117765	0.719278
C92	C	0.345952	0.176645	0.730065
C93	C	0.345956	0.176655	0.633910
C94	C	0.408441	0.117785	0.526968
C95	C	0.533402	0.000033	1.306921
C96	C	0.533402	0.000035	1.409252
C97	C	0.373421	0.000029	1.306882
C98	C	0.319126	0.000030	1.409200
C99	C	0.373421	0.301539	1.005365
C100	C	0.319126	0.403869	1.005350
C101	C	0.373424	0.301544	1.306879
C102	C	0.319130	0.403875	1.409196
C103	C	0.693374	-0.301488	0.703934
C104	C	0.747668	-0.403819	0.601617
C105	C	0.693377	0.000027	0.703931
C106	C	0.747672	0.000026	0.601613
C107	C	0.693377	-0.301483	1.005448
C108	C	0.747672	-0.403813	1.005462
C109	C	0.293627	-0.058858	1.398373
C110	C	0.242619	-0.058880	1.494503
C111	C	0.217106	-0.000007	1.601458
C112	C	0.242609	0.058882	1.612282
C113	C	0.293621	0.058897	1.516153
C114	C	0.293630	0.510812	1.064220
C115	C	0.242621	0.606971	1.064202
C116	C	0.217106	0.596185	1.005321
C117	C	0.242607	0.489230	0.946444
C118	C	0.293619	0.393074	0.946456
C119	C	0.293633	0.393056	1.516132
C120	C	0.242625	0.489198	1.612279
C121	C	0.217111	0.596159	1.601487
C122	C	0.242613	0.606976	1.494540
C123	C	0.293624	0.510835	1.398395
C124	C	0.773171	-0.393000	0.494680
C125	C	0.824195	-0.489142	0.398533
C126	C	0.849711	-0.596103	0.409325
C127	C	0.824206	-0.606920	0.516273
C128	C	0.773186	-0.510779	0.612417
C129	C	0.773176	0.058904	0.612439
C130	C	0.824198	0.058899	0.516310
C131	C	0.849713	0.000023	0.409355
C132	C	0.824207	-0.058861	0.398531
C133	C	0.773189	-0.058863	0.494659
C134	C	0.773170	-0.392990	1.064355
C135	C	0.824179	-0.489131	1.064390
C136	C	0.849692	-0.596093	1.005525
C137	C	0.824189	-0.606913	0.946631
C138	C	0.773177	-0.510774	0.946603
H139	H	0.221831	-0.106794	1.112218
H140	H	0.221864	0.694048	1.112151
C141	C	0.745131	-0.123616	0.482736
H142	H	0.767631	-0.158666	0.405268
H143	H	0.753484	-0.179337	0.517793
H144	H	0.696966	-0.072783	0.517772
C145	C	0.277231	0.241420	0.645774
H146	H	0.240020	0.276469	0.723232
H147	H	0.274630	0.297141	0.610721
H148	H	0.274639	0.190591	0.610703
H149	H	0.221833	0.694077	1.485769
C150	C	-0.254879	0.123679	0.881811
H151	H	-0.232383	0.158749	0.846755
H152	H	-0.246530	0.072873	0.826103
H153	H	-0.303044	0.179405	0.932641
H154	H	0.408424	0.117761	0.797579
C155	C	0.160992	0.701960	1.005318
H156	H	0.149447	0.680227	0.961815
H157	H	0.121194	0.745455	1.080324
H158	H	0.177725	0.745448	0.973793
C159	C	0.852232	-0.477209	1.129161
H160	H	0.829738	-0.399736	1.164193
H161	H	0.843869	-0.512251	1.184890
H162	H	0.900399	-0.512270	1.078345
C163	C	0.745119	0.123666	0.730079
H164	H	0.711076	0.115248	0.785791
H165	H	0.781744	0.094584	0.738520
H166	H	0.725218	0.201130	0.738507
H167	H	0.314375	0.106857	1.524984
H168	H	0.221826	0.480465	0.898505
C169	C	0.402188	0.724622	1.129009
H170	H	0.411134	0.780341	1.120590
H171	H	0.376517	0.733054	1.099924
H172	H	0.376515	0.733056	1.206468
C173	C	0.745111	-0.275342	1.129113
H174	H	0.711080	-0.219624	1.120664
H175	H	0.725207	-0.266910	1.206568
H176	H	0.781738	-0.266909	1.100046
C177	C	0.086977	-0.182486	1.187945
H178	H	0.064469	-0.217535	1.223019
H179	H	0.135140	-0.238207	1.137142
H180	H	0.078613	-0.131657	1.243660
H181	H	0.844988	-0.694019	0.525047
H182	H	0.752422	-0.519602	0.699487
H183	H	0.420044	0.519620	1.112182
H184	H	0.314371	0.305999	0.898521
H185	H	0.314398	0.305971	1.524941
C186	C	0.277225	0.241398	0.847691
H187	H	0.286170	0.232953	0.903415
H188	H	0.251552	0.318860	0.856128
H189	H	0.251557	0.212312	0.856105
H190	H	0.408438	0.117805	0.448677
H191	H	-0.247576	-0.106789	1.112281
H192	H	0.314398	0.519616	1.112168
C193	C	0.160996	0.701904	1.707253
H194	H	0.149463	0.680131	1.772482
H195	H	0.177710	0.745411	1.707278
H196	H	0.121185	0.745396	1.707258
H197	H	0.844953	-0.480312	0.311461
H198	H	0.646756	-0.106775	0.311395
H199	H	0.891256	0.000034	0.331090
C200	C	0.905805	-0.701840	1.005559
H201	H	0.917348	-0.767098	0.962074
H202	H	0.945605	-0.701835	0.974054
H203	H	0.889073	-0.701831	1.080579
H204	H	0.646754	-0.106767	0.485842
H205	H	0.844957	0.106855	0.525145
C206	C	0.852273	-0.123610	0.280878
H207	H	0.886304	-0.115158	0.225187
H208	H	0.872178	-0.201074	0.272427
H209	H	0.815648	-0.094519	0.272428
C210	C	0.214575	0.477279	1.729907
H211	H	0.237069	0.399806	1.722555
H212	H	0.222940	0.512322	1.769875
H213	H	0.166408	0.512340	1.769850
C214	C	0.852263	-0.724574	0.881875
H215	H	0.886302	-0.780273	0.890322
H216	H	0.815650	-0.733033	0.910924
H217	H	0.872176	-0.733013	0.804412
H218	H	0.752422	-0.519601	0.898641
C219	C	0.321658	0.522751	1.280771
H220	H	0.299148	0.600224	1.288124
H221	H	0.369822	0.487696	1.240806
H222	H	0.313282	0.487702	1.240823
C223	C	0.905822	-0.701848	0.303560
H224	H	0.917346	-0.680075	0.238330
H225	H	0.945632	-0.745358	0.303543
H226	H	0.889092	-0.745337	0.303546
H227	H	0.314396	-0.106809	1.112176
C228	C	-0.020153	-0.182481	1.187962
H229	H	-0.054198	-0.174054	1.179551
H230	H	0.016474	-0.259938	1.158895
H231	H	-0.040049	-0.153392	1.265417
C232	C	-0.147723	-0.123609	1.129105
H233	H	-0.170227	-0.158664	1.164175
H234	H	-0.099559	-0.179325	1.078301
H235	H	-0.156090	-0.072777	1.184822
H236	H	0.221860	-0.106834	1.485667
C237	C	-0.147746	0.123676	0.881788
H238	H	-0.170248	0.158725	0.846718
H239	H	-0.156100	0.179398	0.932588
H240	H	-0.099580	0.072847	0.826070
H241	H	-0.012903	0.165768	0.839746
H242	H	0.314400	-0.106813	1.311294
H243	H	0.175568	-0.000027	1.679722
C244	C	0.745113	-0.275353	0.482793
H245	H	0.711070	-0.219633	0.555362
H246	H	0.781738	-0.266919	0.442858
H247	H	0.725212	-0.266923	0.442830
H248	H	0.079648	0.165766	0.839740
C249	C	0.321656	0.123669	0.881713
H250	H	0.299157	0.158735	0.846643
H251	H	0.313301	0.179378	0.932529
H252	H	0.369821	0.072841	0.825997
C253	C	0.214477	0.123734	0.881792
H254	H	0.236964	0.158820	0.846745
H255	H	0.222802	0.072971	0.826081
H256	H	0.166315	0.179452	0.932668
H257	H	0.221829	0.106814	1.699377
H258	H	0.658373	0.207825	0.887686
C259	C	0.789565	0.359604	0.764088
H260	H	0.780616	0.432185	0.772510
H261	H	0.815235	0.319658	0.793173
H262	H	0.815238	0.319653	0.686628
C263	C	0.658351	0.584206	0.887686
H264	H	0.612190	0.649448	0.931166
H265	H	0.681426	0.584220	0.919212
H266	H	0.681423	0.584210	0.812672
H267	H	0.771718	0.188234	0.780901
