data_functionalizedCrystal
_audit_creation_method	'MofGen! by Chris Wilmer'
_symmetry_space_group_name_H-M	'P1'
_symmetry_Int_Tables_number	1
_symmetry_cell_setting	triclinic
loop_
_symmetry_equiv_pos_as_xyz
  x,y,z
_cell_length_a	23.532356
_cell_length_b	23.532355
_cell_length_c	10.868271
_cell_angle_alpha	90.001502
_cell_angle_beta	89.996979
_cell_angle_gamma	97.172372
loop_
_atom_site_label
_atom_site_type_symbol
_atom_site_fract_x
_atom_site_fract_y
_atom_site_fract_z
O1	O	-0.068996	0.755266	-0.102134
O2	O	-0.079031	0.589396	-0.102170
O3	O	0.008921	0.677348	-0.102168
O4	O	-0.156948	0.667314	-0.102136
O5	O	0.008925	0.677341	0.102476
O6	O	-0.079027	0.589389	0.102475
O7	O	-0.068993	0.755259	0.102511
Zn8	Zn	-0.074009	0.672323	0.134984
Zn9	Zn	-0.074014	0.672332	-0.134644
O10	O	-0.156945	0.667307	0.102509
C11	C	-0.078778	0.568176	0.000147
C12	C	-0.078024	0.504958	0.000132
C13	C	-0.073284	0.112941	0.111735
C14	C	-0.072566	0.053542	0.111739
O15	O	-0.072174	0.022820	0.206609
N16	N	-0.072213	0.023837	0.000188
C17	C	-0.072570	0.053536	-0.111376
O18	O	-0.072203	0.022816	-0.206258
C19	C	-0.073284	0.112935	-0.111379
C20	C	-0.073643	0.142635	0.000180
C21	C	-0.073643	0.142642	0.223284
C22	C	-0.074361	0.202037	0.223279
C23	C	-0.074721	0.231731	0.111725
C24	C	-0.074362	0.202030	0.000175
C25	C	-0.073637	0.142633	-0.222941
C26	C	-0.074350	0.202035	-0.222935
C27	C	-0.074710	0.231736	-0.111376
C28	C	-0.075440	0.291119	-0.111385
N29	N	-0.075794	0.320824	0.000166
C30	C	-0.075434	0.291130	0.111721
C31	C	-0.071071	-0.071205	-0.111360
C32	C	-0.070362	-0.130604	-0.111358
C33	C	-0.070357	-0.130594	0.111757
C34	C	-0.071070	-0.071195	0.111754
C35	C	-0.071425	-0.041501	0.000191
C36	C	-0.076944	0.415864	0.111702
C37	C	-0.077665	0.475264	0.111687
C38	C	-0.077666	0.475249	-0.111427
C39	C	-0.076948	0.415853	-0.111413
C40	C	-0.076585	0.386163	0.000162
O41	O	-0.075830	0.321879	-0.206206
O42	O	-0.075794	0.321858	0.206588
C43	C	-0.178163	0.667561	0.000191
C44	C	-0.241381	0.668316	0.000204
C45	C	-0.633396	0.673057	-0.111406
C46	C	-0.692795	0.673775	-0.111412
O47	O	-0.723516	0.674168	-0.206282
N48	N	-0.722502	0.674127	0.000139
C49	C	-0.692806	0.673767	0.111703
O50	O	-0.723528	0.674132	0.206585
C51	C	-0.633407	0.673053	0.111708
C52	C	-0.603704	0.672696	0.000149
C53	C	-0.603693	0.672700	-0.222955
C54	C	-0.544298	0.671982	-0.222949
C55	C	-0.514606	0.671620	-0.111393
C56	C	-0.544309	0.671977	0.000156
C57	C	-0.603711	0.672698	0.223270
C58	C	-0.544308	0.671985	0.223265
C59	C	-0.514605	0.671627	0.111707
C60	C	-0.455222	0.670898	0.111717
N61	N	-0.425515	0.670546	0.000167
C62	C	-0.455207	0.670907	-0.111389
C63	C	-0.817547	0.675266	0.111685
C64	C	-0.876945	0.675975	0.111682
C65	C	-0.876931	0.675984	-0.111434
C66	C	-0.817532	0.675271	-0.111429
C67	C	-0.787840	0.674914	0.000134
C68	C	-0.330473	0.669398	-0.111367
C69	C	-0.271074	0.668677	-0.111351
C70	C	-0.271093	0.668671	0.111764
C71	C	-0.330488	0.669389	0.111748
C72	C	-0.360177	0.669754	0.000173
O73	O	-0.424464	0.670506	0.206539
O74	O	-0.424477	0.670549	-0.206255
C75	C	0.030140	0.677094	0.000147
C76	C	0.093358	0.676339	0.000126
C77	C	-0.069245	0.776479	0.000191
C78	C	-0.069999	0.839697	0.000198
N79	N	-0.074006	0.672321	0.318999
N80	N	-0.074013	0.672339	-0.318658
C81	C	-0.074013	0.672329	0.570005
C82	C	-0.074011	0.672323	0.430327
H83	H	-0.071364	-0.047017	0.202595
Br84	Br	-0.074828	0.242331	-0.374350
H85	H	-0.076665	0.391669	-0.202253
H86	H	-0.520119	0.671695	-0.313791
Br87	Br	-0.230766	0.668189	-0.262762
Br88	Br	-0.643978	0.673192	-0.374373
Br89	Br	-0.777227	0.674785	-0.262834
Br90	Br	-0.073149	0.102340	-0.374352
Br91	Br	-0.917241	0.676460	-0.262832
H92	H	-0.901126	0.676255	0.202524
Br93	Br	-0.370756	0.669894	-0.262792
Br94	Br	-0.777258	0.674776	0.263107
H95	H	-0.627884	0.672995	0.314113
Br96	Br	-0.074847	0.242336	0.374689
H97	H	-0.071365	-0.047033	-0.202213
Br98	Br	-0.076449	0.375578	0.263126
Br99	Br	-0.504015	0.671505	0.374681
Br100	Br	-0.073157	0.102353	0.374701
H101	H	-0.077961	0.499436	-0.202252
Br102	Br	-0.230786	0.668174	0.263153
Br103	Br	-0.078156	0.515568	0.263099
Br104	Br	-0.069869	-0.170904	0.263155
H105	H	-0.070078	-0.154782	-0.202200
Br106	Br	-0.370800	0.669872	0.263149
