data_functionalizedCrystal
_audit_creation_method	'MofGen! by Chris Wilmer'
_symmetry_space_group_name_H-M	'P1'
_symmetry_Int_Tables_number	1
_symmetry_cell_setting	triclinic
loop_
_symmetry_equiv_pos_as_xyz
  x,y,z
_cell_length_a	19.288864
_cell_length_b	10.654550
_cell_length_c	18.366186
_cell_angle_alpha	89.994973
_cell_angle_beta	89.977106
_cell_angle_gamma	83.810575
loop_
_atom_site_label
_atom_site_type_symbol
_atom_site_fract_x
_atom_site_fract_y
_atom_site_fract_z
O1	O	0.922379	0.156657	-0.060782
O2	O	0.720256	0.177789	-0.060732
O3	O	0.825965	-0.015616	-0.060755
O4	O	0.816670	0.350062	-0.060758
O5	O	0.825946	-0.015625	0.060344
O6	O	0.720238	0.177780	0.060368
O7	O	0.922360	0.156647	0.060318
Zn8	Zn	0.821296	0.167212	0.079570
Zn9	Zn	0.821320	0.167224	-0.079984
O10	O	0.816652	0.350052	0.060341
C11	C	0.694366	0.177105	-0.000176
C12	C	0.617249	0.175063	-0.000156
C13	C	0.573296	0.288545	-0.000169
C14	C	0.500836	0.286627	-0.000177
C15	C	0.472333	0.171222	-0.000187
C16	C	0.516296	0.057725	-0.000171
C17	C	0.588754	0.059646	-0.000155
C18	C	0.363484	0.080503	-0.042637
C19	C	0.291027	0.078587	-0.042657
C20	C	0.248849	0.165292	-0.000231
C21	C	0.279136	0.253935	0.042205
C22	C	0.351594	0.255855	0.042221
C23	C	0.393766	0.169126	-0.000203
C24	C	0.126326	0.276702	-0.000251
C25	C	0.053865	0.274779	-0.000255
C26	C	0.069327	0.045875	-0.000256
C27	C	0.141786	0.047800	-0.000245
C28	C	0.170281	0.163217	-0.000246
C29	C	0.825273	-0.062404	-0.000206
C30	C	0.823231	-0.201803	-0.000208
C31	C	0.885471	-0.282621	-0.000221
C32	C	0.883548	-0.413601	-0.000226
C33	C	0.757141	-0.382932	-0.000201
C34	C	0.759065	-0.251955	-0.000202
C35	C	0.958451	-0.300329	-0.000232
C36	C	0.956528	-0.431309	-0.000237
C37	C	0.948250	0.157332	-0.000240
C38	C	1.025367	0.159373	-0.000264
C39	C	0.817344	0.396840	-0.000209
C40	C	0.819385	0.536240	-0.000212
N41	N	0.821285	0.167203	0.188461
N42	N	0.821337	0.167224	-0.188875
C43	C	0.868108	0.081605	0.226551
C44	C	0.868113	0.081599	0.302779
C45	C	0.821300	0.167213	0.340914
C46	C	0.774468	0.252817	0.302815
C47	C	0.774461	0.252812	0.226588
C48	C	0.812752	0.281634	0.461675
C49	C	0.812764	0.281641	0.537899
C50	C	0.821320	0.167229	0.576021
C51	C	0.829879	0.052804	0.537909
C52	C	0.829871	0.052799	0.461682
C53	C	0.821303	0.167228	0.423569
C54	C	0.868151	0.081618	0.696766
C55	C	0.868151	0.081610	0.772995
C56	C	0.774509	0.252840	0.773030
C57	C	0.774507	0.252836	0.696802
C58	C	0.821331	0.167226	0.658675
H59	H	0.596492	0.382526	-0.000171
O60	O	0.982784	-0.486163	-0.062690
C61	C	0.943417	-0.435626	-0.122557
H62	H	0.916260	-0.338727	-0.107548
H63	H	0.979488	-0.426127	-0.170970
H64	H	0.902670	-0.501154	-0.137564
H65	H	0.708383	-0.186156	-0.000201
H66	H	0.736331	0.322517	0.195575
H67	H	0.981682	-0.265204	0.052050
O68	O	0.694872	-0.431861	-0.000159
C69	C	0.706519	-0.564796	-0.000184
H70	H	0.760569	-0.595868	0.022731
H71	H	0.665417	-0.604788	0.034980
H72	H	0.702989	-0.601225	-0.058282
H73	H	0.266373	0.006414	-0.077214
H74	H	0.984018	-0.473662	0.050435
O75	O	0.728966	0.335811	0.339937
C76	C	0.685793	0.268754	0.384046
H77	H	0.712987	0.170361	0.395458
H78	H	0.675063	0.321225	0.437650
H79	H	0.634417	0.260453	0.354699
O80	O	0.184516	-0.062402	-0.000115
C81	C	0.226870	-0.068135	0.062602
H82	H	0.200624	-0.003777	0.106437
H83	H	0.234519	-0.169340	0.083651
H84	H	0.279715	-0.035925	0.048432
O85	O	0.913613	-0.001684	0.189629
C86	C	0.954953	-0.077216	0.239600
H87	H	0.926476	-0.078496	0.293953
H88	H	0.965067	-0.177559	0.217582
H89	H	1.006743	-0.036675	0.247674
H90	H	0.465043	0.379040	-0.000185
H91	H	0.906243	0.011892	0.333797
O92	O	0.838239	-0.058457	0.574817
C93	C	0.845777	-0.159444	0.524834
H94	H	0.865012	-0.124794	0.470483
H95	H	0.885136	-0.237764	0.546840
H96	H	0.793281	-0.197438	0.516760
O97	O	0.380905	0.341995	0.083512
C98	C	0.328146	0.418139	0.120943
H99	H	0.279951	0.365525	0.126056
H100	H	0.347557	0.440819	0.177557
H101	H	0.314268	0.509642	0.089485
O102	O	0.992515	-0.265806	-0.060645
C103	C	0.994373	-0.133879	-0.060539
H104	H	0.988102	-0.096846	-0.002416
H105	H	1.046428	-0.110669	-0.083452
H106	H	0.950094	-0.087442	-0.095664
H107	H	0.493084	-0.036239	-0.000189
H108	H	0.836838	-0.040369	0.430654
H109	H	0.906276	0.011905	0.665722
O110	O	0.913705	-0.001590	0.809886
C111	C	0.955018	-0.077164	0.759884
H112	H	0.956041	-0.025681	0.705543
H113	H	1.010395	-0.096563	0.781881
H114	H	0.932028	-0.170359	0.751795
H115	H	0.736391	0.322543	0.804079
O116	O	0.041763	-0.066342	-0.000233
C117	C	0.096100	-0.166095	-0.000242
H118	H	0.145472	-0.131175	0.022693
H119	H	0.080552	-0.246698	0.034913
H120	H	0.106214	-0.201078	-0.058338
H121	H	0.736381	0.322543	0.665787
H122	H	0.805800	0.374812	0.568925
H123	H	0.805772	0.374809	0.430642
O124	O	0.404519	-0.003552	-0.083898
C125	C	0.442080	0.062217	-0.134483
H126	H	0.446204	0.161926	-0.113655
H127	H	0.496606	0.010750	-0.141625
H128	H	0.413804	0.067159	-0.189073
O129	O	0.153897	0.388922	-0.000212
C130	C	0.099560	0.488676	-0.000236
H131	H	0.050164	0.453753	0.022683
H132	H	0.115072	0.569271	0.034927
H133	H	0.089507	0.523670	-0.058334
O134	O	0.011097	0.384941	-0.000365
C135	C	-0.031232	0.390686	-0.063101
H136	H	-0.035366	0.291028	-0.084004
H137	H	-0.085463	0.437779	-0.049008
H138	H	-0.007096	0.447896	-0.107018
O139	O	0.631355	-0.050711	-0.000180
C140	C	0.590664	-0.152987	-0.000169
H141	H	0.536758	-0.120805	-0.023103
H142	H	0.617024	-0.232472	-0.035325
H143	H	0.585306	-0.188387	0.057927
H144	H	0.244796	0.324537	0.076753
