data_functionalizedCrystal
_audit_creation_method	'MofGen! by Chris Wilmer'
_symmetry_space_group_name_H-M	'P1'
_symmetry_Int_Tables_number	1
_symmetry_cell_setting	triclinic
loop_
_symmetry_equiv_pos_as_xyz
  x,y,z
_cell_length_a	17.699083
_cell_length_b	17.038272
_cell_length_c	16.176319
_cell_angle_alpha	89.993159
_cell_angle_beta	89.998611
_cell_angle_gamma	87.197286
loop_
_atom_site_label
_atom_site_type_symbol
_atom_site_fract_x
_atom_site_fract_y
_atom_site_fract_z
O1	O	1.010620	0.098861	-0.068631
O2	O	1.510620	0.598861	0.431369
O3	O	0.791093	0.111723	-0.068658
O4	O	1.291093	0.611723	0.431342
O5	O	0.899552	-0.008521	-0.068638
O6	O	1.399552	0.491479	0.431362
O7	O	0.902161	0.219105	-0.068651
O8	O	1.402161	0.719105	0.431349
O9	O	0.899535	-0.008529	0.068855
O10	O	1.399535	0.491471	0.568855
O11	O	0.791077	0.111715	0.068835
O12	O	1.291077	0.611715	0.568835
O13	O	1.010604	0.098853	0.068862
O14	O	1.510604	0.598853	0.568862
Cu15	Cu	0.900839	0.105284	0.081403
Cu16	Cu	1.400839	0.605284	0.581403
Cu17	Cu	0.900858	0.105293	-0.081199
Cu18	Cu	1.400858	0.605293	0.418801
O19	O	0.902145	0.219098	0.068842
O20	O	1.402145	0.719098	0.568842
C21	C	0.762857	0.111258	0.000085
C22	C	1.262857	0.611258	0.500085
C23	C	0.678748	0.109876	0.000075
C24	C	1.178748	0.609876	0.500075
C25	C	0.634797	0.180457	0.000071
C26	C	1.134797	0.680457	0.500071
C27	C	0.555767	0.179153	0.000082
C28	C	1.055767	0.679153	0.500082
C29	C	0.520690	0.107267	0.000091
C30	C	1.020690	0.607267	0.500091
C31	C	0.564647	0.036681	0.000097
C32	C	1.064647	0.536681	0.500097
C33	C	0.643675	0.037986	0.000092
C34	C	1.143675	0.537986	0.500092
C35	C	0.245935	0.031418	0.000118
C36	C	0.745935	0.531418	0.500118
C37	C	0.166901	0.030119	0.000120
C38	C	0.666901	0.530119	0.500120
C39	C	0.158028	0.172585	0.000108
C40	C	0.658028	0.672585	0.500108
C41	C	0.237056	0.173890	0.000103
C42	C	0.737056	0.673890	0.500103
C43	C	0.281006	0.103304	0.000113
C44	C	0.781006	0.603304	0.500113
C45	C	0.366699	0.104719	0.000103
C46	C	0.866699	0.604719	0.500103
C47	C	0.434999	0.105852	0.000095
C48	C	0.934999	0.605852	0.500095
C49	C	0.897170	-0.037649	0.000108
C50	C	1.397170	0.462351	0.500108
C51	C	0.890090	-0.124431	0.000107
C52	C	1.390090	0.375569	0.500107
C53	C	0.955100	-0.174651	0.000116
C54	C	1.455100	0.325349	0.500116
C55	C	0.948442	-0.256191	0.000107
C56	C	1.448442	0.243809	0.500107
C57	C	0.876773	-0.287509	0.000096
C58	C	1.376773	0.212491	0.500096
C59	C	0.811758	-0.237282	0.000084
C60	C	1.311758	0.262718	0.500084
C61	C	0.818417	-0.155744	0.000087
C62	C	1.318417	0.344256	0.500087
C63	C	0.853251	-0.533228	0.000081
C64	C	1.353251	-0.033228	0.500081
C65	C	0.846597	-0.614773	0.000081
C66	C	1.346597	-0.114773	0.500081
C67	C	0.983282	-0.633676	0.000103
C68	C	1.483282	-0.133676	0.500103
C69	C	0.989934	-0.552135	0.000110
C70	C	1.489934	-0.052135	0.500110
C71	C	0.924919	-0.501916	0.000095
C72	C	1.424919	-0.001916	0.500095
C73	C	0.869967	-0.370855	0.000089
C74	C	1.369967	0.129145	0.500089
C75	C	0.931726	-0.418571	0.000095
C76	C	1.431726	0.081429	0.500095
C77	C	1.038840	0.099318	0.000117
C78	C	1.538840	0.599318	0.500117
C79	C	1.122949	0.100701	0.000122
C80	C	1.622949	0.600701	0.500122
C81	C	0.904526	0.248226	0.000094
C82	C	1.404526	0.748226	0.500094
C83	C	0.911607	0.335007	0.000090
C84	C	1.411607	0.835007	0.500090
N85	N	0.900830	0.105277	0.195768
N86	N	1.400830	0.605277	0.695768
N87	N	0.900872	0.105293	-0.195564
N88	N	1.400872	0.605293	0.304436
C89	C	0.948873	0.052054	0.239041
C90	C	1.448873	0.552054	0.739041
C91	C	0.948877	0.052054	0.325588
C92	C	1.448877	0.552054	0.825588
C93	C	0.900841	0.105280	0.368861
C94	C	1.400841	0.605280	0.868861
C95	C	0.852793	0.158505	0.325582
C96	C	1.352793	0.658505	0.825582
C97	C	0.852786	0.158501	0.239036
C98	C	1.352786	0.658501	0.739036
C99	C	0.852820	0.158519	0.674610
C100	C	1.352820	0.658519	1.174610
C101	C	0.852833	0.158520	0.761162
C102	C	1.352833	0.658520	1.261162
C103	C	0.948911	0.052072	0.761162
C104	C	1.448911	0.552072	1.261162
C105	C	0.948904	0.052068	0.674617
C106	C	1.448904	0.552068	1.174617
C107	C	0.900853	0.105290	0.631345
C108	C	1.400853	0.605290	1.131345
C109	C	0.900849	0.105289	0.537501
C110	C	1.400849	0.605289	1.037501
C111	C	0.900849	0.105285	0.462703
C112	C	1.400849	0.605285	0.962703
H113	H	0.265612	0.232426	0.000092
H114	H	0.765612	0.732426	0.500092
H115	H	0.813678	0.201840	0.360819
H116	H	1.313678	0.701840	0.860819
H117	H	0.987996	0.008715	0.360821
H118	H	1.487996	0.508715	0.860821
H119	H	0.138344	-0.028422	0.000128
H120	H	0.638344	0.471578	0.500128
H121	H	0.788233	-0.640268	0.000085
H122	H	1.288233	-0.140268	0.500085
H123	H	0.800310	-0.492349	0.000069
H124	H	1.300310	0.007651	0.500069
H125	H	0.519986	0.236627	0.000078
H126	H	1.019986	0.736627	0.500078
O127	O	1.000706	-0.005350	0.627949
O128	O	1.500706	0.494650	1.127949
H129	H	0.992631	0.003591	0.560498
H130	H	1.492631	0.503591	1.060498
O131	O	1.000732	-0.005343	0.807832
O132	O	1.500732	0.494657	1.307832
H133	H	0.992664	0.003591	0.875282
H134	H	1.492664	0.503591	1.375282
O135	O	0.293332	-0.044711	0.000121
O136	O	0.793332	0.455289	0.500121
H137	H	0.329544	-0.047532	0.056164
H138	H	0.829544	0.452468	0.556164
H139	H	0.813714	0.201865	0.796393
H140	H	1.313714	0.701865	1.296393
H141	H	0.663351	0.238994	0.000064
H142	H	1.163351	0.738994	0.500064
H143	H	0.753404	-0.262788	0.000070
H144	H	1.253404	0.237212	0.500070
O145	O	1.053403	-0.687839	0.000118
O146	O	1.553403	-0.187839	0.500118
H147	H	1.053653	-0.725430	-0.055925
H148	H	1.553653	-0.225430	0.444075
O149	O	0.748300	-0.101572	0.000086
O150	O	1.248300	0.398428	0.500086
H151	H	0.697345	-0.137046	0.000088
H152	H	1.197345	0.362954	0.500088
O153	O	0.526819	-0.040856	0.000109
O154	O	1.026819	0.459144	0.500109
H155	H	0.464482	-0.029907	0.000104
H156	H	0.964482	0.470093	0.500104
H157	H	0.990079	-0.393068	0.000086
H158	H	1.490079	0.106932	0.500086
O159	O	0.792669	-0.404639	0.000095
O160	O	1.292669	0.095361	0.500095
H161	H	0.786374	-0.441336	-0.055942
H162	H	1.286374	0.058664	0.444058
H163	H	0.987992	0.008715	0.203814
H164	H	1.487992	0.508715	0.703814
O165	O	0.691085	-0.038140	0.000093
O166	O	1.191085	0.461860	0.500093
H167	H	0.653418	-0.088346	0.000093
H168	H	1.153418	0.411654	0.500093
H169	H	0.813664	0.201839	0.203804
H170	H	1.313664	0.701839	0.703804
H171	H	0.813698	0.201856	0.639385
H172	H	1.313698	0.701856	1.139385
H173	H	0.122235	0.230060	0.000104
H174	H	0.622235	0.730060	0.500104
H175	H	1.001381	-0.297077	0.000116
H176	H	1.501381	0.202923	0.500116
O177	O	1.032402	-0.140878	0.000119
O178	O	1.532402	0.359122	0.500119
H179	H	1.063894	-0.161074	0.056157
H180	H	1.563894	0.338926	0.556157
O181	O	1.067233	-0.518355	0.000103
O182	O	1.567233	-0.018355	0.500103
H183	H	1.111322	-0.566976	0.000095
H184	H	1.611322	-0.066976	0.500095
