data_functionalizedCrystal
_audit_creation_method	'MofGen! by Chris Wilmer'
_symmetry_space_group_name_H-M	'P1'
_symmetry_Int_Tables_number	1
_symmetry_cell_setting	triclinic
loop_
_symmetry_equiv_pos_as_xyz
  x,y,z
_cell_length_a	19.188930
_cell_length_b	11.792241
_cell_length_c	10.268362
_cell_angle_alpha	90.000374
_cell_angle_beta	89.989600
_cell_angle_gamma	96.330901
loop_
_atom_site_label
_atom_site_type_symbol
_atom_site_fract_x
_atom_site_fract_y
_atom_site_fract_z
O1	O	0.095695	-1.505476	-0.108190
O2	O	0.105558	-1.174988	-0.108222
O3	O	-0.000975	-1.349769	-0.108179
O4	O	0.202228	-1.330695	-0.108232
O5	O	-0.000980	-1.349754	0.108421
O6	O	0.105553	-1.174973	0.108379
O7	O	0.095691	-1.505461	0.108411
Cu8	Cu	0.100622	-1.340216	0.128172
Cu9	Cu	0.100627	-1.340233	-0.127983
O10	O	0.202224	-1.330680	0.108368
C11	C	0.104936	-1.132699	0.000075
C12	C	0.103082	-1.006713	0.000064
C13	C	-0.026992	-1.349144	0.000125
C14	C	-0.104507	-1.347290	0.000136
C15	C	0.096313	-1.547751	0.000111
C16	C	0.098167	-1.673737	0.000114
C17	C	-0.148850	-1.449846	0.000152
C18	C	-0.221684	-1.448104	0.000131
C19	C	-0.250171	-1.343800	0.000120
C20	C	-0.205818	-1.241230	0.000096
C21	C	-0.132986	-1.242975	0.000104
N22	N	-0.358629	-1.264067	0.073825
N23	N	-0.427817	-1.262416	0.073820
C24	C	-0.469609	-1.338536	0.000093
N25	N	-0.439602	-1.416387	-0.073614
N26	N	-0.370407	-1.418041	-0.073603
C27	C	-0.329144	-1.341896	0.000110
C28	C	-0.592928	-1.439211	0.000084
C29	C	-0.665762	-1.437464	0.000055
C30	C	-0.649895	-1.230588	0.000034
C31	C	-0.577062	-1.232337	0.000050
C32	C	-0.548583	-1.336652	0.000081
C33	C	0.228240	-1.331305	0.000062
C34	C	0.305755	-1.333159	0.000042
N35	N	0.100617	-1.340211	0.308338
C36	C	0.099672	-0.776051	0.000102
C37	C	0.101566	-0.904408	0.000081
N38	N	0.100625	-1.340247	-0.308149
C39	C	0.100625	-1.340228	0.574009
C40	C	0.100623	-1.340215	0.426171
H41	H	-0.125667	-1.534787	0.000173
N42	N	-0.236534	-1.128725	0.000086
H43	H	-0.266391	-1.123396	-0.080208
H44	H	-0.266370	-1.123449	0.080433
N45	N	-0.529229	-1.121722	0.000040
H46	H	-0.558325	-1.055380	0.000031
H47	H	-0.498675	-1.117935	0.080340
N48	N	-0.085153	-1.132357	0.000086
H49	H	-0.114249	-1.066013	0.000071
H50	H	-0.054601	-1.128569	0.080388
H51	H	-0.701866	-1.520981	0.000061
N52	N	-0.269523	-1.558721	0.000145
H53	H	-0.240430	-1.625067	0.000164
H54	H	-0.300095	-1.562486	0.080441
H55	H	-0.569739	-1.524150	0.000104
N56	N	-0.680603	-1.118079	0.000019
H57	H	-0.710456	-1.112746	-0.080280
H58	H	-0.710442	-1.112801	0.080361
