data_functionalizedCrystal
_audit_creation_method	'MofGen! by Chris Wilmer'
_symmetry_space_group_name_H-M	'P1'
_symmetry_Int_Tables_number	1
_symmetry_cell_setting	triclinic
loop_
_symmetry_equiv_pos_as_xyz
  x,y,z
_cell_length_a	12.837943
_cell_length_b	11.792241
_cell_length_c	11.295483
_cell_angle_alpha	94.123059
_cell_angle_beta	85.461227
_cell_angle_gamma	89.511178
loop_
_atom_site_label
_atom_site_type_symbol
_atom_site_fract_x
_atom_site_fract_y
_atom_site_fract_z
O1	O	1.384055	0.288341	-0.099005
O2	O	1.884055	0.788341	0.400995
O3	O	1.082168	0.273757	-0.099012
O4	O	1.582168	0.773757	0.400988
O5	O	1.240437	0.116622	-0.099000
O6	O	1.740437	0.616622	0.401000
O7	O	1.225787	0.445476	-0.099017
O8	O	1.725787	0.945476	0.400983
O9	O	1.226536	0.130400	0.099050
O10	O	1.726536	0.630400	0.599050
O11	O	1.068267	0.287535	0.099038
O12	O	1.568267	0.787535	0.599038
O13	O	1.370154	0.302119	0.099045
O14	O	1.870154	0.802119	0.599045
Cu15	Cu	1.217941	0.296085	0.117125
Cu16	Cu	1.717941	0.796085	0.617125
Cu17	Cu	1.234381	0.279791	-0.117092
Cu18	Cu	1.734381	0.779791	0.382908
O19	O	1.211885	0.459254	0.099033
O20	O	1.711885	0.959254	0.599033
C21	C	1.036570	0.275719	0.000012
C22	C	1.536570	0.775719	0.500012
C23	C	0.921410	0.261025	0.000010
C24	C	1.421410	0.761025	0.500010
C25	C	0.681444	0.437671	0.000018
C26	C	1.181444	0.937671	0.500018
C27	C	0.573241	0.423870	0.000016
C28	C	1.073241	0.923870	0.500016
C29	C	0.596797	0.219624	0.000014
C30	C	1.096797	0.719624	0.500014
C31	C	0.705001	0.233425	0.000016
C32	C	1.205001	0.733425	0.500016
C33	C	0.747320	0.342452	0.000016
C34	C	1.247320	0.842452	0.500016
C35	C	0.855526	0.356251	0.000008
C36	C	1.355526	0.856251	0.500008
C37	C	0.879080	0.152006	0.000015
C38	C	1.379080	0.652006	0.500015
C39	C	0.770877	0.138205	0.000013
C40	C	1.270877	0.638205	0.500013
C41	C	1.232566	0.081127	0.000025
C42	C	1.732566	0.581127	0.500025
C43	C	1.229812	-0.045167	0.000023
C44	C	1.729812	0.454833	0.500023
C45	C	1.224748	-0.276394	0.000003
C46	C	1.724748	0.223606	0.500003
C47	C	1.227561	-0.147723	0.000014
C48	C	1.727561	0.352277	0.500014
C49	C	1.415753	0.300157	0.000018
C50	C	1.915753	0.800157	0.500018
C51	C	1.530913	0.314850	0.000013
C52	C	2.030913	0.814850	0.500013
C53	C	1.219756	0.494749	0.000006
C54	C	1.719756	0.994749	0.500006
C55	C	1.222512	0.621042	-0.000001
C56	C	1.722512	1.121042	0.499999
N57	N	1.206386	0.307545	0.281860
N58	N	1.706386	0.807545	0.781860
N59	N	1.245945	0.268322	-0.281827
N60	N	1.745945	0.768322	0.218173
C61	C	1.329126	0.185760	0.531159
C62	C	1.829126	0.685760	1.031159
C63	C	1.320401	0.194430	0.655822
C64	C	1.820401	0.694430	1.155822
C65	C	1.180207	0.333547	0.655852
C66	C	1.680207	0.833547	1.155852
C67	C	1.188932	0.324878	0.531189
C68	C	1.688932	0.824878	1.031189
C69	C	1.263395	0.250983	0.468847
C70	C	1.763395	0.750983	0.968847
C71	C	1.272124	0.242320	0.344181
C72	C	1.772124	0.742320	0.844181
C73	C	1.131925	0.381431	0.344213
C74	C	1.631925	0.881431	0.844213
C75	C	1.123200	0.390100	0.468876
C76	C	1.623200	0.890100	0.968876
H77	H	0.889980	0.445026	0.000010
H78	H	1.389980	0.945026	0.500010
O79	O	1.042895	0.469807	0.536117
O80	O	1.542895	0.969807	1.036117
H81	H	1.047875	0.464886	0.633272
H82	H	1.547875	0.964886	1.133272
H83	H	1.389764	0.125601	0.480399
H84	H	1.889764	0.625601	0.980399
O85	O	1.391296	0.124085	0.723036
O86	O	1.891296	0.624085	1.223036
H87	H	1.437993	0.181325	0.779825
H88	H	1.937993	0.681325	1.279825
H89	H	0.519607	0.501409	0.000021
H90	H	1.019607	1.001409	0.500021
H91	H	1.332758	0.182155	0.293424
H92	H	1.832758	0.682155	0.793424
H93	H	1.119573	0.393702	0.706627
H94	H	1.619573	0.893702	1.206627
H95	H	0.562315	0.130866	0.000112
H96	H	1.062315	0.630866	0.500112
H97	H	1.078406	0.434543	0.293464
H98	H	1.578406	0.934543	0.793464
H99	H	0.736404	0.049439	0.000027
H100	H	1.236404	0.549439	0.500027
O101	O	0.727100	0.555256	0.000020
O102	O	1.227100	1.055256	0.500020
H103	H	0.663112	0.619152	0.000026
H104	H	1.163112	1.119152	0.500026
H105	H	0.932729	0.074471	0.000005
H106	H	1.432729	0.574471	0.500005
