data_functionalizedCrystal
_audit_creation_method	'MofGen! by Chris Wilmer'
_symmetry_space_group_name_H-M	'P1'
_symmetry_Int_Tables_number	1
_symmetry_cell_setting	triclinic
loop_
_symmetry_equiv_pos_as_xyz
  x,y,z
_cell_length_a	12.759401
_cell_length_b	12.759399
_cell_length_c	12.759393
_cell_angle_alpha	89.971029
_cell_angle_beta	89.980446
_cell_angle_gamma	90.015963
loop_
_atom_site_label
_atom_site_type_symbol
_atom_site_fract_x
_atom_site_fract_y
_atom_site_fract_z
Zn1	Zn	1.606258	-0.418211	-0.593992
Zn2	Zn	2.106258	0.081789	-0.093992
Zn3	Zn	1.606146	-0.593927	-0.418317
Zn4	Zn	2.106146	-0.093927	0.081683
Zn5	Zn	1.430557	-0.418263	-0.418332
Zn6	Zn	1.930557	0.081737	0.081668
Zn7	Zn	1.430546	-0.593849	-0.593959
Zn8	Zn	1.930546	-0.093849	-0.093959
O9	O	1.518377	-0.506062	-0.506150
O10	O	2.018377	-0.006062	-0.006150
O11	O	1.753264	-0.441531	-0.570697
O12	O	2.253264	0.058469	-0.070697
O13	O	1.582812	-0.570678	-0.271298
O14	O	2.082812	-0.070678	0.228702
O15	O	1.453916	-0.271235	-0.441654
O16	O	1.953916	0.228765	0.058346
O17	O	1.753182	-0.570628	-0.441629
O18	O	2.253182	-0.070628	0.058371
O19	O	1.583003	-0.271197	-0.570711
O20	O	2.083003	0.228803	-0.070711
O21	O	1.453807	-0.441619	-0.271309
O22	O	1.953807	0.058381	0.228691
O23	O	1.283534	-0.441544	-0.441621
O24	O	1.783534	0.058456	0.058379
O25	O	1.453896	-0.570496	-0.740984
O26	O	1.953896	-0.070496	-0.240984
O27	O	1.283526	-0.570546	-0.570653
O28	O	1.783526	-0.070546	-0.070653
O29	O	1.582992	-0.441456	-0.741009
O30	O	2.082992	0.058544	-0.241009
O31	O	1.582800	-0.740937	-0.441596
O32	O	2.082800	-0.240937	0.058404
O33	O	1.453788	-0.740880	-0.570639
O34	O	1.953788	-0.240880	-0.070639
C35	C	1.245409	-0.506043	-0.506136
C36	C	1.745409	-0.006043	-0.006136
C37	C	1.128633	-0.506060	-0.506155
C38	C	1.628633	-0.006060	-0.006155
C39	C	1.073794	-0.573339	-0.573231
C40	C	1.573794	-0.073339	-0.073231
C41	C	0.964070	-0.573352	-0.573242
C42	C	1.464070	-0.073352	-0.073242
C43	C	0.964033	-0.438805	-0.439092
C44	C	1.464033	0.061195	0.060908
C45	C	1.073755	-0.438787	-0.439087
C46	C	1.573755	0.061213	0.060913
C47	C	1.128671	-0.640612	-0.640298
C48	C	1.628671	-0.140612	-0.140298
C49	C	1.073832	-0.707898	-0.707379
C50	C	1.573832	-0.207898	-0.207379
C51	C	0.964108	-0.707911	-0.707390
C52	C	1.464108	-0.207911	-0.207390
C53	C	0.909223	-0.640639	-0.640321
C54	C	1.409223	-0.140639	-0.140321
C55	C	1.518309	-0.779030	-0.506135
C56	C	2.018309	-0.279030	-0.006135
C57	C	1.518376	-0.895806	-0.506164
C58	C	2.018376	-0.395806	-0.006164
C59	C	1.451254	-0.950771	-0.438930
C60	C	1.951254	-0.450771	0.061070
C61	C	1.451326	-1.060495	-0.438947
C62	C	1.951326	-0.560495	0.061053
C63	C	1.585644	-1.060280	-0.573441
C64	C	2.085644	-0.560280	-0.073441
C65	C	1.585577	-0.950558	-0.573418
C66	C	2.085577	-0.450558	-0.073418
C67	C	1.384054	-0.896020	-0.371677
C68	C	1.884054	-0.396020	0.128323
C69	C	1.316926	-0.950985	-0.304438
C70	C	1.816926	-0.450985	0.195562
C71	C	1.316997	-1.060709	-0.304455
C72	C	1.816997	-0.560709	0.195545
C73	C	1.384196	-1.115468	-0.371710
C74	C	1.884196	-0.615468	0.128290
C75	C	1.792410	-0.506082	-0.506165
C76	C	2.292410	-0.006082	-0.006165
C77	C	1.909187	-0.506091	-0.506171
C78	C	2.409187	-0.006091	-0.006171
C79	C	1.518455	-0.505961	-0.780184
C80	C	2.018455	-0.005961	-0.280184
C81	C	1.518489	-0.505918	-0.896960
C82	C	2.018489	-0.005918	-0.396960
C83	C	1.518473	-0.232029	-0.506188
C84	C	2.018473	0.267971	-0.006188
C85	C	1.518514	-0.115252	-0.506204
C86	C	2.018514	0.384748	-0.006204
C87	C	1.585714	-0.438716	-0.951837
C88	C	2.085714	0.061284	-0.451837
C89	C	1.585732	-0.438671	-1.061561
C90	C	2.085732	0.061329	-0.561561
C91	C	1.451296	-0.573039	-1.061522
C92	C	1.951296	-0.073039	-0.561522
C93	C	1.451274	-0.573078	-0.951800
C94	C	1.951274	-0.073078	-0.451800
C95	C	1.518359	-0.506087	-0.233183
C96	C	2.018359	-0.006087	0.266817
C97	C	1.518529	-0.505834	-0.116407
C98	C	2.018529	-0.005834	0.383593
H99	H	0.919337	-0.384036	-0.384487
H100	H	1.419337	0.115964	0.115513
H101	H	1.640471	-0.383947	-1.106237
H102	H	2.140471	0.116053	-0.606237
H103	H	1.118406	-0.383994	-0.384476
H104	H	1.618406	0.116006	0.115524
H105	H	1.396575	-0.627720	-1.106186
H106	H	1.896575	-0.127720	-0.606186
H107	H	1.262345	-1.105458	-0.249699
H108	H	1.762345	-0.605458	0.250301
H109	H	1.640353	-1.104873	-0.628198
H110	H	2.140353	-0.604873	-0.128198
H111	H	1.396524	-0.627801	-0.907118
H112	H	1.896524	-0.127801	-0.407118
H113	H	1.383987	-0.806677	-0.371657
H114	H	1.883987	-0.306677	0.128343
H115	H	0.819878	-0.640646	-0.640345
H116	H	1.319878	-0.140646	-0.140345
H117	H	1.118527	-0.762662	-0.761990
H118	H	1.618527	-0.262662	-0.261990
H119	H	1.218014	-0.640611	-0.640294
H120	H	1.718014	-0.140611	-0.140294
H121	H	0.919461	-0.762691	-0.762018
H122	H	1.419461	-0.262691	-0.262018
H123	H	1.262220	-0.906394	-0.249675
H124	H	1.762220	-0.406394	0.250325
H125	H	1.640235	-0.905805	-0.628165
H126	H	2.140235	-0.405805	-0.128165
H127	H	1.384256	-1.204812	-0.371712
H128	H	1.884256	-0.704812	0.128288
H129	H	1.640441	-0.384028	-0.907189
H130	H	2.140441	0.115972	-0.407189
