data_functionalizedCrystal
_audit_creation_method	'MofGen! by Chris Wilmer'
_symmetry_space_group_name_H-M	'P1'
_symmetry_Int_Tables_number	1
_symmetry_cell_setting	triclinic
loop_
_symmetry_equiv_pos_as_xyz
  x,y,z
_cell_length_a	18.050591
_cell_length_b	10.685676
_cell_length_c	10.686551
_cell_angle_alpha	89.695509
_cell_angle_beta	94.392811
_cell_angle_gamma	94.386127
loop_
_atom_site_label
_atom_site_type_symbol
_atom_site_fract_x
_atom_site_fract_y
_atom_site_fract_z
Zn1	Zn	-1.149107	0.444954	-0.747513
Zn2	Zn	-1.130090	0.670863	-0.553848
Zn3	Zn	-1.014707	0.461111	-0.537779
Zn4	Zn	-1.016166	0.654666	-0.763565
O5	O	-1.077517	0.557899	-0.650676
O6	O	-1.250508	0.474938	-0.721830
O7	O	-1.106214	0.656579	-0.376175
O8	O	-1.039884	0.283421	-0.552157
O9	O	-1.236536	0.640912	-0.579545
O10	O	-1.138627	0.271551	-0.706248
O11	O	-1.021443	0.502475	-0.364369
O12	O	-0.910976	0.486770	-0.567722
O13	O	-1.042371	0.613308	-0.936977
O14	O	-0.912049	0.628974	-0.733606
O15	O	-1.140042	0.459233	-0.925184
O16	O	-1.107629	0.844261	-0.595110
O17	O	-1.023930	0.832362	-0.749188
C18	C	-0.884566	0.557869	-0.650663
C19	C	-0.802021	0.557884	-0.650690
C20	C	-1.063896	0.883827	-0.675662
C21	C	-1.058139	1.023257	-0.686394
C22	C	-1.093490	0.532662	-0.977869
C23	C	-1.100297	0.521907	-1.117299
C24	C	-1.271222	0.557930	-0.650690
C25	C	-1.353768	0.557943	-0.650695
C26	C	-0.553787	0.635397	-0.740797
C27	C	-0.596311	0.674733	-0.628641
C28	C	-0.504899	0.557924	-0.650691
C29	C	-0.609454	0.518627	-0.762844
C30	C	-0.650885	0.557907	-0.650697
C31	C	-0.546330	0.597324	-0.538479
C32	C	-0.559475	0.441159	-0.672755
C33	C	-0.601975	0.480458	-0.560517
C34	C	-0.420800	0.557936	-0.650689
C35	C	-0.734981	0.557895	-0.650685
C36	C	-1.091208	1.230695	-0.625634
C37	C	-1.097027	1.091257	-0.614999
C38	C	-1.061653	0.582947	-0.324749
C39	C	-1.055005	0.593348	-0.185292
H40	H	-0.532601	0.700981	-0.816910
F41	F	-0.997516	0.684055	-1.121960
F42	F	-1.157796	0.431208	-1.180638
H43	H	-1.020443	1.071708	-0.755731
F44	F	-0.617734	0.803791	-0.604239
F45	F	-0.510501	0.640907	-0.414485
H46	H	-0.623013	0.414940	-0.484238
H47	H	-0.636954	0.485398	-0.857688
F48	F	-0.538033	0.312132	-0.697204
H49	H	-1.134732	1.042801	-0.545667
