data_functionalizedCrystal
_audit_creation_method	'MofGen! by Chris Wilmer'
_symmetry_space_group_name_H-M	'P1'
_symmetry_Int_Tables_number	1
_symmetry_cell_setting	triclinic
loop_
_symmetry_equiv_pos_as_xyz
  x,y,z
_cell_length_a	16.959455
_cell_length_b	17.640280
_cell_length_c	16.959447
_cell_angle_alpha	78.773258
_cell_angle_beta	89.985678
_cell_angle_gamma	78.797529
loop_
_atom_site_label
_atom_site_type_symbol
_atom_site_fract_x
_atom_site_fract_y
_atom_site_fract_z
Zn1	Zn	1.272058	-0.314718	-0.383358
Zn2	Zn	1.298725	-0.446906	-0.224487
Zn3	Zn	1.139892	-0.314743	-0.251191
Zn4	Zn	1.166584	-0.446847	-0.356638
O5	O	1.219315	-0.380803	-0.303918
O6	O	1.386210	-0.332268	-0.362291
O7	O	1.277645	-0.429409	-0.117412
O8	O	1.135093	-0.204133	-0.291081
O9	O	1.405802	-0.429385	-0.245569
O10	O	1.232195	-0.204115	-0.388184
O11	O	1.160951	-0.332310	-0.137030
O12	O	1.032819	-0.332252	-0.265171
O13	O	1.180586	-0.429284	-0.470800
O14	O	1.052429	-0.429308	-0.342643
O15	O	1.258077	-0.332210	-0.490432
O16	O	1.303527	-0.557504	-0.219659
O17	O	1.206444	-0.557461	-0.316750
C18	C	1.013943	-0.380777	-0.303906
C19	C	0.926088	-0.380785	-0.303915
C20	C	1.260797	-0.586162	-0.262425
C21	C	1.278616	-0.674015	-0.244700
C22	C	0.544372	-0.330225	-0.263693
C23	C	0.564874	-0.431447	-0.344176
C24	C	0.647417	-0.431435	-0.344174
C25	C	0.678442	-0.380819	-0.303929
C26	C	0.626924	-0.330214	-0.263687
C27	C	0.698943	-0.482045	-0.384408
C28	C	0.781492	-0.482037	-0.384406
C29	C	0.812518	-0.431416	-0.344166
C30	C	0.760993	-0.380808	-0.303923
C31	C	0.792018	-0.330191	-0.263679
C32	C	0.740495	-0.279579	-0.223440
C33	C	0.657949	-0.279593	-0.223447
C34	C	0.895063	-0.431402	-0.344159
C35	C	0.874570	-0.330180	-0.263673
C36	C	1.084273	-0.962977	-0.438860
C37	C	1.101018	-1.045529	-0.422179
C38	C	1.202174	-1.045509	-0.321181
C39	C	1.185440	-0.962956	-0.337856
C40	C	1.126488	-0.921696	-0.396695
C41	C	1.227655	-0.921675	-0.295692
C42	C	1.210920	-0.839129	-0.312362
C43	C	1.151969	-0.797864	-0.371197
C44	C	1.109753	-0.839151	-0.413366
C45	C	1.286603	-0.962935	-0.236849
C46	C	1.328818	-0.921654	-0.194684
C47	C	1.312087	-0.839107	-0.211358
C48	C	1.253136	-0.797842	-0.270193
C49	C	1.354303	-0.797820	-0.169190
C50	C	1.337568	-0.715274	-0.185860
C51	C	1.236401	-0.715296	-0.286864
C52	C	1.425488	-0.380830	-0.303932
C53	C	1.513347	-0.380841	-0.303937
C54	C	1.219334	-0.380738	-0.510100
C55	C	1.219343	-0.380710	-0.597962
C56	C	1.177692	-0.174643	-0.345592
C57	C	1.159955	-0.086790	-0.363350
C58	C	1.179074	-0.431169	-0.959236
C59	C	1.259767	-0.330085	-0.979674
C60	C	1.259749	-0.330101	-0.897124
C61	C	1.219394	-0.380653	-0.845627
C62	C	1.179057	-0.431189	-0.876679
C63	C	1.300092	-0.279573	-0.866065
C64	C	1.300077	-0.279588	-0.783511
C65	C	1.259717	-0.330137	-0.732013
C66	C	1.219377	-0.380673	-0.763069
C67	C	1.179023	-0.431225	-0.711572
C68	C	1.138678	-0.481759	-0.742628
C69	C	1.138697	-0.481737	-0.825180
C70	C	1.259698	-0.330158	-0.649460
C71	C	1.179006	-0.431245	-0.629014
C72	C	1.219329	-0.380811	-0.098551
C73	C	1.219429	-0.380617	-0.010734
H74	H	0.899822	-0.288956	-0.230907
C75	C	1.167590	-0.564998	-0.957582
C76	C	1.134729	-0.486715	-0.993366
H77	H	1.140208	-0.599288	-0.978650
H78	H	1.223028	-0.576564	-0.968780
H79	H	1.161805	-0.572234	-0.901047
H80	H	1.140519	-0.479478	-1.049901
H81	H	1.079276	-0.475145	-0.982174
H82	H	1.292548	-0.289017	-0.624177
H83	H	1.036274	-0.929383	-0.486779
C84	C	1.165834	-0.588764	-0.357271
C85	C	1.171604	-0.669934	-0.351547
H86	H	1.125836	-0.560762	-0.397205
H87	H	1.151562	-0.575279	-0.306882
H88	H	1.216189	-0.575203	-0.371623
H89	H	1.121250	-0.683497	-0.337189
H90	H	1.185872	-0.683425	-0.401947
C91	C	1.385847	-0.291597	-1.012868
C92	C	1.304126	-0.274522	-1.036275
H93	H	1.413233	-0.257295	-1.047818
H94	H	1.391601	-0.284372	-0.959266
H95	H	1.408132	-0.344704	-1.015659
H96	H	1.281840	-0.221416	-1.033478
H97	H	1.298367	-0.281741	-1.089891
C98	C	0.857938	-0.234627	-0.187699
C99	C	0.774603	-0.223941	-0.179205
H100	H	0.878995	-0.200276	-0.160394
H101	H	0.882182	-0.287713	-0.165313
H102	H	0.869151	-0.223126	-0.243152
H103	H	0.763390	-0.235448	-0.123751
H104	H	0.750351	-0.170844	-0.201588
C105	C	1.479431	-0.890593	-0.139553
C106	C	1.419092	-0.843181	-0.104508
H107	H	1.519429	-0.918593	-0.099618
H108	H	1.456681	-0.926987	-0.162275
H109	H	1.503114	-0.858351	-0.180526
H110	H	1.395405	-0.875424	-0.063539
H111	H	1.441845	-0.806783	-0.081773
C112	C	1.127219	-0.615567	-0.823533
C113	C	1.094359	-0.537284	-0.859318
H114	H	1.099845	-0.649858	-0.844608
H115	H	1.182661	-0.627130	-0.834721
H116	H	1.121424	-0.622804	-0.766998
H117	H	1.100160	-0.530046	-0.915852
H118	H	1.038904	-0.525717	-0.848135
H119	H	1.371943	-0.681663	-0.151525
C120	C	0.990180	-0.442505	-0.448207
C121	C	0.951700	-0.487028	-0.388383
H122	H	1.025149	-0.476850	-0.475506
H123	H	0.951034	-0.408122	-0.485449
H124	H	1.020466	-0.412358	-0.424232
H125	H	0.921409	-0.517171	-0.412358
H126	H	0.990852	-0.521426	-0.351134
C127	C	0.895824	-0.588357	-0.373736
C128	C	0.838122	-0.537661	-0.428643
H129	H	0.930782	-0.622697	-0.401049
H130	H	0.926111	-0.558210	-0.349776
H131	H	0.869709	-0.618555	-0.333152
H132	H	0.864236	-0.507458	-0.469223
H133	H	0.807831	-0.567811	-0.452616
H134	H	1.146135	-0.472404	-0.587091
H135	H	0.673677	-0.523260	-0.417166
C136	C	1.011445	-0.847453	-0.511555
C137	C	1.044962	-0.793790	-0.478055
H138	H	0.971447	-0.819448	-0.551487
H139	H	1.052386	-0.879611	-0.535318
H140	H	0.987758	-0.879687	-0.470577
H141	H	1.068654	-0.761561	-0.519032
H142	H	1.004014	-0.761619	-0.454292
H143	H	1.332953	-0.238421	-0.907999
C144	C	1.272733	-1.172037	-0.250762
C145	C	1.266962	-1.090865	-0.256497
H146	H	1.312732	-1.200035	-0.210828
H147	H	1.222384	-1.185597	-0.236412
H148	H	1.287010	-1.185529	-0.301155
H149	H	1.252679	-1.077372	-0.206105
H150	H	1.317322	-1.077300	-0.270842
H151	H	0.502418	-0.289015	-0.230934
C152	C	0.522309	-0.234661	-0.187729
C153	C	0.601313	-0.223960	-0.179225
H154	H	0.487344	-0.200317	-0.160425
H155	H	0.506484	-0.223168	-0.243176
H156	H	0.519518	-0.287756	-0.165338
H157	H	0.604105	-0.170866	-0.201621
H158	H	0.617143	-0.235448	-0.123766
C159	C	1.379836	-0.179661	-0.812015
C160	C	1.344414	-0.224036	-0.749379
H161	H	1.407201	-0.145362	-0.790942
H162	H	1.417033	-0.214095	-0.837243
H163	H	1.339291	-0.149422	-0.850333
H164	H	1.384959	-0.254281	-0.711064
H165	H	1.307213	-0.189598	-0.724139
H166	H	1.105825	-0.522921	-0.700687
H167	H	0.539609	-0.472661	-0.376936
C168	C	0.999343	-1.037256	-0.523704
C169	C	1.054616	-1.090906	-0.468539
H170	H	0.970702	-1.065271	-0.552326
H171	H	0.962611	-1.005103	-0.495731
H172	H	1.027234	-1.005016	-0.560477
H173	H	1.026724	-1.123142	-0.431762
H174	H	1.091353	-1.123072	-0.496513
H175	H	1.300229	-1.030149	-0.223279
C176	C	1.453947	-1.014427	-0.165053
C177	C	1.393609	-0.967016	-0.130004
H178	H	1.493946	-1.042427	-0.125119
H179	H	1.431196	-1.050819	-0.187776
H180	H	1.477628	-0.982182	-0.206025
H181	H	1.369923	-0.999261	-0.089035
H182	H	1.416362	-0.930619	-0.107268
H183	H	1.138338	-0.730650	-0.384764
