data_functionalizedCrystal
_audit_creation_method	'MofGen! by Chris Wilmer'
_symmetry_space_group_name_H-M	'P1'
_symmetry_Int_Tables_number	1
_symmetry_cell_setting	triclinic
loop_
_symmetry_equiv_pos_as_xyz
  x,y,z
_cell_length_a	15.944545
_cell_length_b	15.944551
_cell_length_c	14.421503
_cell_angle_alpha	90.003340
_cell_angle_beta	89.995153
_cell_angle_gamma	83.497455
loop_
_atom_site_label
_atom_site_type_symbol
_atom_site_fract_x
_atom_site_fract_y
_atom_site_fract_z
O1	O	1.114533	0.108295	-0.077054
O2	O	0.869982	0.121657	-0.077069
O3	O	0.998936	-0.007299	-0.077053
O4	O	0.985579	0.237251	-0.077070
O5	O	0.998914	-0.007280	0.077171
O6	O	0.869961	0.121676	0.077154
O7	O	1.114511	0.108315	0.077170
Cu8	Cu	0.992234	0.114997	0.091244
Cu9	Cu	0.992259	0.114974	-0.091143
O10	O	0.985558	0.237270	0.077153
C11	C	0.838677	0.121113	0.000041
C12	C	0.745431	0.119453	0.000035
C13	C	0.474798	0.034559	0.000051
C14	C	0.525370	0.075497	0.076091
C15	C	0.409787	0.113532	0.000052
C16	C	0.525371	0.075500	-0.075961
C17	C	0.574701	0.116437	0.000042
C18	C	0.459130	0.154449	0.076154
C19	C	0.459128	0.154440	-0.075967
C20	C	0.509667	0.195436	0.000092
C21	C	0.314785	0.111856	0.000058
C22	C	0.669700	0.118119	0.000042
C23	C	0.998370	-0.038583	0.000059
C24	C	0.996708	-0.131829	0.000060
C25	C	0.912803	-0.346684	0.000042
C26	C	0.951755	-0.407693	0.076086
C27	C	0.993701	-0.302555	0.000052
C28	C	0.951796	-0.407695	-0.075967
C29	C	0.990790	-0.467468	0.000041
C30	C	1.032675	-0.362335	0.076159
C31	C	1.032704	-0.362331	-0.075961
C32	C	1.071715	-0.423322	0.000101
C33	C	0.995375	-0.207553	0.000060
C34	C	0.989122	-0.562469	0.000041
C35	C	1.145816	0.108859	0.000058
C36	C	1.239062	0.110519	0.000057
C37	C	0.986123	0.268555	0.000039
C38	C	0.987785	0.361801	0.000033
N39	N	0.992222	0.115013	0.219525
N40	N	0.992278	0.114952	-0.219424
C41	C	0.932584	0.174615	0.469171
C42	C	1.008484	0.190921	0.530977
C43	C	0.992243	0.114993	0.408687
C44	C	0.916362	0.098707	0.530974
C45	C	0.992256	0.114975	0.591408
C46	C	1.068181	0.131336	0.469132
C47	C	0.976010	0.039089	0.469124
C48	C	1.051965	0.055362	0.530902
C49	C	0.992234	0.115005	0.303426
C50	C	0.992273	0.114962	0.696667
H51	H	0.430191	0.187755	-0.140259
H52	H	1.138922	-0.456483	0.000148
C53	C	1.078901	-0.335138	-0.162807
C54	C	1.044955	-0.352726	-0.260017
C55	C	1.091144	-0.325529	-0.346871
C56	C	1.171278	-0.280745	-0.336517
C57	C	1.205228	-0.263156	-0.239303
C58	C	1.159040	-0.290352	-0.152449
H59	H	0.985631	-0.385879	-0.267686
H60	H	1.066011	-0.338550	-0.418835
H61	H	1.205470	-0.260613	-0.400812
H62	H	1.264553	-0.230002	-0.231634
H63	H	1.184172	-0.277331	-0.080485
H64	H	0.882184	0.225076	0.442067
C65	C	0.822094	-0.301678	0.000133
C66	C	0.807013	-0.204562	-0.000673
C67	C	0.716307	-0.159555	-0.000577
C68	C	0.640682	-0.211664	0.000324
C69	C	0.655760	-0.308786	0.001129
C70	C	0.746466	-0.353793	0.001033
H71	H	0.862998	-0.165983	-0.001340
H72	H	0.705145	-0.087659	-0.001173
H73	H	0.573535	-0.178347	0.000394
H74	H	0.599776	-0.347365	0.001796
H75	H	0.757628	-0.425689	0.001630
H76	H	0.459145	-0.033453	0.000130
H77	H	0.917578	-0.427779	-0.140260
H78	H	1.022227	0.255103	0.558146
H79	H	0.554291	0.042153	0.140381
H80	H	0.430312	0.187785	0.140508
C81	C	1.078845	-0.335328	0.163110
C82	C	1.088912	-0.241515	0.179204
C83	C	1.135077	-0.214506	0.266154
C84	C	1.171176	-0.281309	0.337011
C85	C	1.161111	-0.375127	0.320919
C86	C	1.114945	-0.402137	0.233969
H87	H	1.062188	-0.192059	0.126750
H88	H	1.142528	-0.145055	0.278066
H89	H	1.205351	-0.261314	0.401377
H90	H	1.187835	-0.424584	0.373373
H91	H	1.107495	-0.471588	0.222057
H92	H	0.554298	0.042126	-0.140243
H93	H	1.132372	0.145180	0.442081
H94	H	1.102477	0.004931	0.557836
C95	C	0.957415	-0.047588	0.432380
C96	C	0.873457	-0.081489	0.456732
C97	C	0.854850	-0.168165	0.419986
C98	C	0.920202	-0.220940	0.358888
C99	C	1.004165	-0.187039	0.334532
C100	C	1.022771	-0.100363	0.371279
H101	H	0.825075	-0.042421	0.501964
H102	H	0.792695	-0.193260	0.438016
H103	H	0.906428	-0.285103	0.331686
H104	H	1.052547	-0.226107	0.289301
H105	H	1.084927	-0.075268	0.353249
C106	C	0.905523	-0.434856	0.162928
C107	C	0.812513	-0.400658	0.179627
C108	C	0.766275	-0.427817	0.266465
C109	C	0.813047	-0.489175	0.336603
C110	C	0.906063	-0.523376	0.319906
C111	C	0.952301	-0.496216	0.233068
H112	H	0.777885	-0.355234	0.127705
H113	H	0.697419	-0.402499	0.278825
H114	H	0.778819	-0.509280	0.400885
H115	H	0.940691	-0.568799	0.371828
H116	H	1.021157	-0.521535	0.220708
H117	H	0.852186	0.084940	0.558142
H118	H	0.525158	0.263501	0.000131
