data_functionalizedCrystal
_audit_creation_method	'MofGen! by Chris Wilmer'
_symmetry_space_group_name_H-M	'P1'
_symmetry_Int_Tables_number	1
_symmetry_cell_setting	triclinic
loop_
_symmetry_equiv_pos_as_xyz
  x,y,z
_cell_length_a	12.827893
_cell_length_b	14.908520
_cell_length_c	12.827885
_cell_angle_alpha	93.263516
_cell_angle_beta	89.980728
_cell_angle_gamma	93.320575
loop_
_atom_site_label
_atom_site_type_symbol
_atom_site_fract_x
_atom_site_fract_y
_atom_site_fract_z
Zn1	Zn	1.573615	-0.359115	-0.614817
Zn2	Zn	1.563402	-0.509998	-0.450147
Zn3	Zn	1.398853	-0.359159	-0.440093
Zn4	Zn	1.388739	-0.509931	-0.624843
O5	O	1.481152	-0.434551	-0.532475
O6	O	1.718495	-0.379139	-0.592984
O7	O	1.541533	-0.490036	-0.302580
O8	O	1.430542	-0.232908	-0.454867
O9	O	1.710992	-0.489993	-0.472002
O10	O	1.558939	-0.232876	-0.583236
O11	O	1.420640	-0.379214	-0.295194
O12	O	1.251276	-0.379149	-0.464589
O13	O	1.413304	-0.489879	-0.769746
O14	O	1.243845	-0.489921	-0.600323
O15	O	1.549132	-0.379074	-0.762380
O16	O	1.531726	-0.636234	-0.481724
O17	O	1.403401	-0.636184	-0.610072
C18	C	1.209643	-0.434533	-0.532454
C19	C	1.093489	-0.434548	-0.532471
C20	C	1.038049	-0.489447	-0.599545
C21	C	0.917998	-0.489463	-0.599564
C22	C	1.465386	-0.668943	-0.548100
C23	C	1.458737	-0.769217	-0.554820
C24	C	1.580004	-0.957632	-0.433905
C25	C	1.573760	-1.051849	-0.440215
C26	C	1.440011	-1.051867	-0.573755
C27	C	1.446255	-0.957651	-0.567444
C28	C	1.516253	-0.910537	-0.497516
C29	C	1.522491	-0.816319	-0.491201
C30	C	1.388748	-0.816339	-0.624745
C31	C	1.382504	-0.910555	-0.631056
C32	C	1.753721	-0.434569	-0.532497
C33	C	1.869874	-0.434576	-0.532506
C34	C	1.481229	-0.434464	-0.805039
C35	C	1.481262	-0.434427	-0.921190
C36	C	1.497008	-0.199243	-0.516811
C37	C	1.503765	-0.098969	-0.510137
C38	C	1.548481	-0.379587	-0.969329
C39	C	1.548517	-0.379547	-1.089377
C40	C	1.481140	-0.434572	-0.260966
C41	C	1.481327	-0.434355	-0.144799
H42	H	1.579483	-0.777959	-0.434260
H43	H	1.423733	-0.481343	-0.968851
C44	C	1.626267	-0.316119	-1.145308
H45	H	1.668421	-0.281743	-1.094964
H46	H	1.588916	-0.276828	-1.185273
H47	H	1.669450	-0.350659	-1.190185
H48	H	1.052076	-0.387555	-0.475065
H49	H	1.079463	-0.536433	-0.656958
H50	H	1.636991	-0.919271	-0.376960
H51	H	1.383030	-1.090244	-0.630693
C52	C	0.934243	-0.371074	-0.454924
H53	H	0.888476	-0.336645	-0.412852
H54	H	0.979476	-0.331836	-0.492390
H55	H	0.974482	-0.405570	-0.411652
C56	C	1.305509	-0.962386	-0.707965
H57	H	1.310914	-1.025243	-0.702609
H58	H	1.321777	-0.946890	-0.777157
H59	H	1.236321	-0.947008	-0.691560
C60	C	0.853618	-0.552958	-0.677144
H61	H	0.781376	-0.544635	-0.666985
H62	H	0.867378	-0.613570	-0.665794
H63	H	0.872369	-0.539830	-0.746524
C64	C	1.643881	-1.103651	-0.370238
H65	H	1.686455	-1.062094	-0.327685
H66	H	1.686957	-1.140348	-0.412710
H67	H	1.601485	-1.140460	-0.327129
C68	C	1.318622	-0.764533	-0.694724
H69	H	1.332367	-0.701672	-0.680957
H70	H	1.247390	-0.780038	-0.680405
H71	H	1.332862	-0.779916	-0.765986
H72	H	1.606000	-0.332662	-0.921668
C73	C	1.403589	-0.497801	-1.088876
H74	H	1.361449	-0.532189	-1.139221
H75	H	1.360406	-0.463282	-1.043985
H76	H	1.440964	-0.537092	-1.048927
