data_functionalizedCrystal
_audit_creation_method	'MofGen! by Chris Wilmer'
_symmetry_space_group_name_H-M	'P1'
_symmetry_Int_Tables_number	1
_symmetry_cell_setting	triclinic
loop_
_symmetry_equiv_pos_as_xyz
  x,y,z
_cell_length_a	16.120530
_cell_length_b	25.639239
_cell_length_c	16.120297
_cell_angle_alpha	92.868703
_cell_angle_beta	90.128140
_cell_angle_gamma	87.134054
loop_
_atom_site_label
_atom_site_type_symbol
_atom_site_fract_x
_atom_site_fract_y
_atom_site_fract_z
Zn1	Zn	1.247330	-0.264883	-0.534536
Zn2	Zn	1.747330	0.235117	-0.034536
Zn3	Zn	1.254246	-0.348114	-0.395469
Zn4	Zn	1.754246	0.151886	0.104531
Zn5	Zn	1.115324	-0.256048	-0.388455
Zn6	Zn	1.615324	0.243952	0.111545
Zn7	Zn	1.108202	-0.347633	-0.527439
Zn8	Zn	1.608202	0.152367	-0.027439
O9	O	1.181275	-0.304170	-0.461475
O10	O	1.681275	0.195830	0.038525
O11	O	1.364612	-0.279823	-0.521994
O12	O	1.864612	0.220177	-0.021994
O13	O	1.241692	-0.332406	-0.278174
O14	O	1.741692	0.167594	0.221826
O15	O	1.132921	-0.184058	-0.407868
O16	O	1.632921	0.315942	0.092132
O17	O	1.369693	-0.340973	-0.419823
O18	O	1.869693	0.159027	0.080177
O19	O	1.229905	-0.190549	-0.515193
O20	O	1.729905	0.309451	-0.015193
O21	O	1.139627	-0.264765	-0.273020
O22	O	1.639627	0.235235	0.226980
O23	O	0.998015	-0.264298	-0.400986
O24	O	1.498015	0.235702	0.099014
O25	O	1.120783	-0.340152	-0.644745
O26	O	1.620783	0.159848	-0.144745
O27	O	0.992782	-0.331585	-0.503096
O28	O	1.492782	0.168415	-0.003096
O29	O	1.223000	-0.279356	-0.649960
O30	O	1.723000	0.220644	-0.149960
O31	O	1.234787	-0.421212	-0.412941
O32	O	1.734787	0.078788	0.087059
O33	O	1.127489	-0.420858	-0.509898
O34	O	1.627489	0.079142	-0.009898
C35	C	0.965226	-0.296931	-0.450510
C36	C	1.465226	0.203069	0.049490
C37	C	0.872799	-0.293847	-0.445839
C38	C	1.372799	0.206153	0.054161
C39	C	0.703571	-0.288206	-0.437318
C40	C	1.203571	0.211794	0.062682
C41	C	0.659817	-0.320174	-0.485692
C42	C	1.159817	0.179826	0.014308
C43	C	0.565653	-0.317035	-0.480951
C44	C	1.065653	0.182965	0.019049
C45	C	0.797744	-0.291344	-0.442058
C46	C	1.297744	0.208656	0.057942
C47	C	1.181138	-0.440006	-0.461430
C48	C	1.681138	0.059994	0.038570
C49	C	1.181153	-0.498121	-0.461442
C50	C	1.681153	0.001879	0.038558
C51	C	1.237279	-0.858668	-0.411087
C52	C	1.737279	-0.358668	0.088913
C53	C	1.237311	-0.913274	-0.411099
C54	C	1.737311	-0.413274	0.088901
O55	O	1.284889	-0.941661	-0.368236
O56	O	1.784889	-0.441661	0.131764
N57	N	1.181419	-0.940415	-0.461537
N58	N	1.681419	-0.440415	0.038463
C59	C	1.125497	-0.912948	-0.511972
C60	C	1.625497	-0.412948	-0.011972
O61	O	1.077960	-0.941048	-0.554875
O62	O	1.577960	-0.441048	-0.054875
C63	C	1.125470	-0.858344	-0.511963
C64	C	1.625470	-0.358344	-0.011963
C65	C	1.181360	-0.831205	-0.461515
C66	C	1.681360	-0.331205	0.038485
C67	C	1.293166	-0.831529	-0.360644
C68	C	1.793166	-0.331529	0.139356
C69	C	1.293133	-0.776927	-0.360630
C70	C	1.793133	-0.276927	0.139370
C71	C	1.237214	-0.749464	-0.411059
C72	C	1.737214	-0.249464	0.088941
C73	C	1.181327	-0.776603	-0.461502
C74	C	1.681327	-0.276603	0.038498
C75	C	1.069553	-0.830878	-0.562401
C76	C	1.569553	-0.330878	-0.062401
C77	C	1.069531	-0.776270	-0.562388
C78	C	1.569531	-0.276270	-0.062388
C79	C	1.125421	-0.749131	-0.511941
C80	C	1.625421	-0.249131	-0.011941
C81	C	1.125375	-0.694538	-0.511917
C82	C	1.625375	-0.194538	-0.011917
N83	N	1.181267	-0.667396	-0.461479
N84	N	1.681267	-0.167396	0.038521
C85	C	1.237187	-0.694860	-0.411050
C86	C	1.737187	-0.194860	0.088950
C87	C	1.125559	-1.027621	-0.511988
C88	C	1.625559	-0.527621	-0.011988
C89	C	1.125581	-1.082224	-0.511993
C90	C	1.625581	-0.582224	-0.011993
C91	C	1.237397	-1.082546	-0.411121
C92	C	1.737397	-0.582546	0.088879
C93	C	1.237370	-1.027942	-0.411113
C94	C	1.737370	-0.527942	0.088887
C95	C	1.181451	-1.000480	-0.461550
C96	C	1.681451	-0.500480	0.038450
C97	C	1.237113	-0.580191	-0.411025
C98	C	1.737113	-0.080191	0.088975
C99	C	1.237072	-0.525584	-0.411013
C100	C	1.737072	-0.025584	0.088987
C101	C	1.125260	-0.525267	-0.511887
C102	C	1.625260	-0.025267	-0.011887
C103	C	1.125297	-0.579869	-0.511896
C104	C	1.625297	-0.079869	-0.011896
C105	C	1.181230	-0.607330	-0.461463
C106	C	1.681230	-0.107330	0.038537
O107	O	1.077824	-0.666116	-0.554760
O108	O	1.577824	-0.166116	-0.054760
O109	O	1.284723	-0.666754	-0.368163
O110	O	1.784723	-0.166754	0.131837
C111	C	1.398168	-0.311437	-0.472483
C112	C	1.898168	0.188563	0.027517
C113	C	1.490595	-0.314534	-0.477173
C114	C	1.990595	0.185466	0.022827
C115	C	1.170326	-0.310686	-0.678368
C116	C	1.670326	0.189314	-0.178368
C117	C	1.165659	-0.313462	-0.770795
C118	C	1.665659	0.186538	-0.270795
C119	C	1.181436	-0.167804	-0.461539
C120	C	1.681436	0.332196	0.038461
C121	C	1.181504	-0.109693	-0.461567
C122	C	1.681504	0.390307	0.038433
C123	C	1.157110	-0.318520	-0.940019
C124	C	1.657110	0.181480	-0.440019
C125	C	1.205605	-0.289668	-0.983790
C126	C	1.705605	0.210332	-0.483790
C127	C	1.200848	-0.292482	-1.077952
C128	C	1.700848	0.207518	-0.577952
C129	C	1.161866	-0.315706	-0.845849
C130	C	1.661866	0.184294	-0.345849
C131	C	1.192231	-0.297643	-0.245427
C132	C	1.692231	0.202357	0.254573
C133	C	1.197058	-0.294724	-0.153009
C134	C	1.697058	0.205276	0.346991
H135	H	1.282585	-0.503490	-0.369930
H136	H	1.782585	-0.003490	0.130070
H137	H	1.079789	-0.601967	-0.552977
H138	H	1.579789	-0.101967	-0.052977
O139	O	1.071024	-0.498505	-0.560850
O140	O	1.571024	0.001495	-0.060850
C141	C	1.021410	-0.414232	-0.605497
C142	C	1.521410	0.085768	-0.105497
C143	C	1.082884	-0.444477	-0.550015
C144	C	1.582884	0.055523	-0.050015
H145	H	1.030966	-0.370545	-0.596744
H146	H	1.530966	0.129455	-0.096744
H147	H	1.032584	-0.427404	-0.673320
H148	H	1.532584	0.072596	-0.173320
H149	H	0.955121	-0.422360	-0.587458
H150	H	1.455121	0.077640	-0.087458
H151	H	1.149197	-0.436364	-0.567981
H152	H	1.649197	0.063636	-0.067981
H153	H	1.071638	-0.431301	-0.482207
H154	H	1.571638	0.068699	0.017793
H155	H	1.250696	-0.262854	-0.950546
H156	H	1.750696	0.237146	-0.450546
H157	H	0.693077	-0.349899	-0.530667
H158	H	1.193077	0.150101	-0.030667
O159	O	0.663771	-0.252791	-0.383684
O160	O	1.163771	0.247209	0.116316
C161	C	0.532253	-0.217305	-0.330062
C162	C	1.032253	0.282695	0.169938
C163	C	0.577235	-0.257442	-0.390826
C164	C	1.077235	0.242558	0.109174
H165	H	0.462281	-0.221044	-0.335828
H166	H	0.962281	0.278956	0.164172
H167	H	0.552566	-0.224962	-0.263801
H168	H	1.052566	0.275038	0.236199
H169	H	0.548620	-0.176166	-0.345615
H170	H	1.048620	0.323834	0.154385
H171	H	0.560891	-0.298597	-0.375349
H172	H	1.060891	0.201403	0.124651
H173	H	0.556920	-0.249740	-0.457069
H174	H	1.056920	0.250260	0.042931
H175	H	1.080017	-1.005264	-0.553057
H176	H	1.580017	-0.505264	-0.053057
H177	H	1.338706	-0.853884	-0.319579
H178	H	1.838706	-0.353884	0.180421
H179	H	1.282660	-0.602544	-0.369959
H180	H	1.782660	-0.102544	0.130041
O181	O	1.347513	-0.750652	-0.311612
O182	O	1.847513	-0.250652	0.188388
C183	C	1.458398	-0.756753	-0.211540
C184	C	1.958398	-0.256753	0.288460
C185	C	1.396863	-0.786571	-0.267025
C186	C	1.896863	-0.286571	0.232975
H187	H	1.498302	-0.785780	-0.175464
H188	H	1.998302	-0.285780	0.324536
H189	H	1.499965	-0.733772	-0.251919
H190	H	1.999965	-0.233772	0.248081
H191	H	1.422437	-0.728624	-0.166115
H192	H	1.922437	-0.228624	0.333885
H193	H	1.432756	-0.814726	-0.312459
H194	H	1.932756	-0.314726	0.187541
H195	H	1.355297	-0.809518	-0.226595
H196	H	1.855297	-0.309518	0.273405
H197	H	1.282881	-1.005849	-0.370035
H198	H	1.782881	-0.505849	0.129965
O199	O	1.103394	-0.350499	-0.979804
O200	O	1.603394	0.149501	-0.479804
C201	C	1.049571	-0.382455	-1.111301
C202	C	1.549571	0.117545	-0.611301
C203	C	1.110450	-0.346225	-1.066338
C204	C	1.610450	0.153775	-0.566338
H205	H	1.055242	-0.379004	-1.181269
H206	H	1.555242	0.120996	-0.681269
H207	H	1.064970	-0.424616	-1.095080
H208	H	1.564970	0.075384	-0.595080
H209	H	0.983382	-0.370538	-1.090828
H210	H	1.483382	0.129462	-0.590828
H211	H	1.176660	-0.358095	-1.086785
H212	H	1.676660	0.141905	-0.586785
H213	H	1.094979	-0.304072	-1.082559
H214	H	1.594979	0.195928	-0.582559
H215	H	1.282932	-1.104917	-0.370062
H216	H	1.782932	-0.604917	0.129938
H217	H	1.080062	-1.104316	-0.553064
H218	H	1.580062	-0.604316	-0.053064
O219	O	1.015232	-0.857153	-0.611487
O220	O	1.515232	-0.357153	-0.111487
C221	C	0.904306	-0.851045	-0.711513
C222	C	1.404306	-0.351045	-0.211513
C223	C	0.965795	-0.821226	-0.655973
C224	C	1.465795	-0.321226	-0.155973
H225	H	0.864308	-0.822011	-0.747482
H226	H	1.364308	-0.322011	-0.247482
H227	H	0.940223	-0.879143	-0.757022
H228	H	1.440223	-0.379143	-0.257022
H229	H	0.862826	-0.874061	-0.671101
H230	H	1.362826	-0.374061	-0.171101
H231	H	1.007290	-0.798181	-0.696319
H232	H	1.507290	-0.298181	-0.196319
H233	H	0.929827	-0.793160	-0.610459
H234	H	1.429827	-0.293160	-0.110459
H235	H	1.023996	-0.753913	-0.603463
H236	H	1.523996	-0.253913	-0.103463
