data_functionalizedCrystal
_audit_creation_method	'MofGen! by Chris Wilmer'
_symmetry_space_group_name_H-M	'P1'
_symmetry_Int_Tables_number	1
_symmetry_cell_setting	triclinic
loop_
_symmetry_equiv_pos_as_xyz
  x,y,z
_cell_length_a	19.288867
_cell_length_b	12.811415
_cell_length_c	11.295692
_cell_angle_alpha	90.841778
_cell_angle_beta	85.400138
_cell_angle_gamma	83.592416
loop_
_atom_site_label
_atom_site_type_symbol
_atom_site_fract_x
_atom_site_fract_y
_atom_site_fract_z
O1	O	0.917247	0.123803	0.112347
O2	O	1.417247	0.623803	0.612347
O3	O	0.714993	0.141342	0.114252
O4	O	1.214993	0.641342	0.614252
O5	O	0.821899	-0.019202	0.096904
O6	O	1.321899	0.480798	0.596904
O7	O	0.810341	0.284347	0.129694
O8	O	1.310341	0.784347	0.629694
O9	O	0.830207	-0.006707	-0.099790
O10	O	1.330207	0.493293	0.400210
O11	O	0.723301	0.153837	-0.082443
O12	O	1.223301	0.653837	0.417557
O13	O	0.925555	0.136298	-0.084348
O14	O	1.425555	0.636298	0.415652
Cu15	Cu	0.825186	0.146208	-0.101355
Cu16	Cu	1.325186	0.646208	0.398645
Cu17	Cu	0.815362	0.131431	0.131259
Cu18	Cu	1.315362	0.631431	0.631259
O19	O	0.818649	0.296842	-0.067000
O20	O	1.318649	0.796842	0.433000
C21	C	0.693271	0.147025	0.015845
C22	C	1.193271	0.647025	0.515845
C23	C	0.616166	0.145329	0.015666
C24	C	1.116166	0.645329	0.515666
C25	C	0.056068	0.126308	0.121552
C26	C	0.556068	0.626308	0.621552
C27	C	0.128516	0.127895	0.121728
C28	C	0.628516	0.627895	0.621728
C29	C	0.169273	0.135504	0.014596
C30	C	0.669273	0.635504	0.514596
C31	C	0.137579	0.141500	-0.092722
C32	C	0.637579	0.641500	0.407278
C33	C	0.065133	0.139903	-0.092896
C34	C	0.565133	0.639903	0.407104
C35	C	0.282097	0.204307	-0.060678
C36	C	0.782097	0.704307	0.439322
C37	C	0.354541	0.205910	-0.060499
C38	C	0.854541	0.705910	0.439501
C39	C	0.392721	0.140425	0.015127
C40	C	0.892721	0.640425	0.515127
C41	C	0.358446	0.073349	0.090596
C42	C	0.858446	0.573349	0.590596
C43	C	0.286000	0.071752	0.090422
C44	C	0.786000	0.571752	0.590422
C45	C	0.247829	0.137236	0.014772
C46	C	0.747829	0.637236	0.514772
C47	C	0.502963	0.136142	0.122629
C48	C	1.002963	0.636142	0.622629
C49	C	0.575413	0.137722	0.122799
C50	C	1.075413	0.637722	0.622799
C51	C	0.584475	0.151338	-0.091653
C52	C	1.084475	0.651338	0.408347
C53	C	0.512027	0.149747	-0.091821
C54	C	1.012027	0.649747	0.408179
C55	C	0.471275	0.142154	0.015323
C56	C	0.971275	0.642154	0.515323
C57	C	0.825660	-0.051790	-0.005635
C58	C	1.325660	0.448210	0.494365
C59	C	0.824481	-0.167507	-0.018127
C60	C	1.324481	0.332493	0.481873
C61	C	0.813195	-0.398562	0.172860
C62	C	1.313195	0.101438	0.672860
C63	C	0.812087	-0.507288	0.161128
C64	C	1.312087	-0.007288	0.661128
C65	C	0.821152	-0.493686	-0.053321
C66	C	1.321152	0.006314	0.446679
C67	C	0.822260	-0.384960	-0.041589
C68	C	1.322260	0.115040	0.458411
C69	C	0.818282	-0.337402	0.071505
C70	C	1.318282	0.162598	0.571505
C71	C	0.819396	-0.228675	0.083235
C72	C	1.319396	0.271325	0.583235
C73	C	0.828455	-0.215074	-0.131213
C74	C	1.328455	0.284926	0.368787
C75	C	0.827347	-0.323800	-0.142944
C76	C	1.327347	0.176200	0.357056
C77	C	0.947277	0.130615	0.014062
C78	C	1.447277	0.630615	0.514062
C79	C	1.024381	0.132310	0.014248
C80	C	1.524381	0.632310	0.514248
C81	C	0.814888	0.329430	0.035542
C82	C	1.314888	0.829430	0.535542
C83	C	0.816066	0.445145	0.048042
C84	C	1.316066	0.945145	0.548042
N85	N	0.832102	0.156601	-0.264963
N86	N	1.332102	0.656601	0.235037
C87	C	0.881990	0.231453	-0.443858
C88	C	1.381990	0.731453	0.056142
C89	C	0.876742	0.223595	-0.320047
C90	C	1.376742	0.723595	0.179953
C91	C	0.792705	0.097463	-0.333699
C92	C	1.292705	0.597463	0.166301
C93	C	0.797953	0.105321	-0.457509
C94	C	1.297953	0.605321	0.042491
C95	C	0.842597	0.172317	-0.512585
C96	C	1.342597	0.672317	-0.012585
C97	C	0.847849	0.180169	-0.636398
C98	C	1.347849	0.680169	-0.136398
C99	C	0.763808	0.054043	-0.650046
C100	C	1.263808	0.554043	-0.150046
C101	C	0.758560	0.046185	-0.526236
C102	C	1.258560	0.546185	-0.026236
N103	N	0.808452	0.121031	0.294866
N104	N	1.308452	0.621031	0.794866
H105	H	0.258097	0.017135	0.151869
H106	H	0.758097	0.517135	0.651869
O107	O	0.808905	-0.347255	0.294831
O108	O	1.308905	0.152745	0.794831
H109	H	0.805178	-0.408050	0.363341
H110	H	1.305178	0.091950	0.863341
O111	O	0.240927	0.274922	-0.142281
O112	O	0.740927	0.774922	0.357719
H113	H	0.184796	0.262528	-0.129743
H114	H	0.684796	0.762528	0.370257
O115	O	0.833946	-0.149116	-0.240548
O116	O	1.333946	0.350884	0.259452
H117	H	0.787341	-0.089743	-0.239322
H118	H	1.287341	0.410257	0.260678
O119	O	0.391524	0.278134	-0.142022
O120	O	0.891524	0.778134	0.357978
H121	H	0.352814	0.323344	-0.194705
H122	H	0.852814	0.823344	0.305295
O123	O	0.181538	0.149716	-0.208269
O124	O	0.681538	0.649716	0.291731
H125	H	0.163489	0.223706	-0.252045
H126	H	0.663489	0.723706	0.247955
H127	H	0.884202	0.234718	-0.681239
H128	H	1.384202	0.734718	-0.181239
H129	H	0.816159	-0.189956	0.175322
H130	H	1.316159	0.310044	0.675322
H131	H	0.824385	-0.532426	-0.145397
H132	H	1.324385	-0.032426	0.354603
O133	O	0.710410	-0.026069	-0.466822
O134	O	1.210410	0.473931	0.033178
H135	H	0.683897	-0.065866	-0.535416
H136	H	1.183897	0.434134	-0.035416
H137	H	0.807942	-0.557080	0.243663
H138	H	1.307942	-0.057080	0.743663
O139	O	0.459008	0.127941	0.238187
O140	O	0.959008	0.627941	0.738187
H141	H	0.403306	0.127855	0.220042
H142	H	0.903306	0.627855	0.720042
O143	O	0.930152	0.303693	-0.503266
O144	O	1.430152	0.803693	-0.003266
H145	H	0.927189	0.299212	-0.600907
H146	H	1.427189	0.799212	-0.100907
O147	O	0.721313	-0.009743	-0.724170
O148	O	1.221313	0.490257	-0.224170
H149	H	0.732458	0.006978	-0.819516
H150	H	1.232458	0.506978	-0.319516
O151	O	0.919230	0.287374	-0.245915
O152	O	1.419230	0.787374	0.254085
H153	H	0.951157	0.335273	-0.305019
H154	H	1.451157	0.835273	0.194981
H155	H	0.756353	0.042923	-0.288834
H156	H	1.256353	0.542923	0.211166
O157	O	0.012117	0.118060	0.237102
O158	O	0.512117	0.618060	0.737102
H159	H	0.046329	0.114128	0.311745
H160	H	0.546329	0.614128	0.811745
O161	O	0.162704	0.121434	0.237467
O162	O	0.662704	0.621434	0.737467
H163	H	0.122195	0.115893	0.311941
H164	H	0.622195	0.615893	0.811941
O165	O	0.030949	0.146390	-0.208633
O166	O	0.530949	0.646390	0.291367
H167	H	0.071458	0.151953	-0.283102
H168	H	0.571458	0.651953	0.216898
O169	O	0.399616	0.002702	0.172163
O170	O	0.899616	0.502702	0.672163
H171	H	0.425714	0.051395	0.233257
H172	H	0.925714	0.551395	0.733257
O173	O	0.609595	0.131249	0.238539
O174	O	1.109595	0.631249	0.738539
H175	H	0.569083	0.125711	0.313009
H176	H	1.069083	0.625711	0.813009
O177	O	0.628423	0.159549	-0.207208
O178	O	1.128423	0.659549	0.292792
H179	H	0.684123	0.159658	-0.189061
H180	H	1.184123	0.659658	0.310939
H181	H	0.830583	-0.362537	-0.235022
H182	H	1.330583	0.137463	0.264978
O183	O	0.477842	0.156240	-0.207554
O184	O	0.977842	0.656240	0.292446
H185	H	0.518351	0.161808	-0.282021
H186	H	1.018351	0.661808	0.217979
