data_functionalizedCrystal
_audit_creation_method	'MofGen! by Chris Wilmer'
_symmetry_space_group_name_H-M	'P1'
_symmetry_Int_Tables_number	1
_symmetry_cell_setting	triclinic
loop_
_symmetry_equiv_pos_as_xyz
  x,y,z
_cell_length_a	14.519731
_cell_length_b	10.489763
_cell_length_c	8.965430
_cell_angle_alpha	89.994510
_cell_angle_beta	89.997186
_cell_angle_gamma	95.881393
loop_
_atom_site_label
_atom_site_type_symbol
_atom_site_fract_x
_atom_site_fract_y
_atom_site_fract_z
O1	O	1.224767	-0.167323	0.124059
O2	O	1.724767	0.332677	0.624059
O3	O	0.956401	-0.186985	0.124063
O4	O	1.456401	0.313015	0.624063
O5	O	1.096680	0.008505	0.124033
O6	O	1.596680	0.508505	0.624033
O7	O	1.084489	-0.362813	0.124089
O8	O	1.584489	0.137187	0.624089
O9	O	1.096687	0.008499	-0.124046
O10	O	1.596687	0.508499	0.375954
O11	O	0.956408	-0.186991	-0.124016
O12	O	1.456408	0.313009	0.375984
O13	O	1.224774	-0.167329	-0.124020
O14	O	1.724774	0.332671	0.375980
Cu15	Cu	1.090592	-0.177160	-0.146669
Cu16	Cu	1.590592	0.322840	0.353331
Cu17	Cu	1.090584	-0.177153	0.146713
Cu18	Cu	1.590584	0.322847	0.646713
O19	O	1.084495	-0.362819	-0.123990
O20	O	1.584495	0.137181	0.376010
C21	C	0.922040	-0.186066	0.000024
C22	C	1.422040	0.313934	0.500024
C23	C	0.819645	-0.183306	0.000024
C24	C	1.319645	0.316694	0.500024
C25	C	0.736488	-0.181063	0.000030
C26	C	1.236488	0.318937	0.500030
C27	C	0.632164	-0.178260	0.000030
C28	C	1.132164	0.321740	0.500030
C29	C	0.549013	-0.176035	0.000030
C30	C	1.049013	0.323965	0.500030
C31	C	0.444682	-0.173232	0.000032
C32	C	0.944682	0.326768	0.500032
C33	C	1.095758	0.056024	-0.000010
C34	C	1.595758	0.556024	0.499990
C35	C	1.092990	0.197623	-0.000022
C36	C	1.592990	0.697623	0.499978
C37	C	1.003724	0.264842	-0.000018
C38	C	1.503724	0.764842	0.499982
C39	C	1.045889	0.357395	-0.122343
C40	C	1.545889	0.857395	0.377657
C41	C	1.045903	0.357376	0.122243
C42	C	1.545903	0.857376	0.622243
C43	C	1.135192	0.288312	-0.122449
C44	C	1.635192	0.788312	0.377551
C45	C	1.135194	0.288283	0.122248
C46	C	1.635194	0.788283	0.622248
C47	C	1.177424	0.380810	-0.000108
C48	C	1.677424	0.880810	0.499892
C49	C	1.259135	-0.168247	0.000023
C50	C	1.759135	0.331753	0.500023
C51	C	1.361531	-0.171008	0.000032
C52	C	1.861531	0.328992	0.500032
N53	N	1.090604	-0.177165	-0.353019
N54	N	1.590604	0.322835	0.146981
C55	C	1.085403	0.589660	0.000031
C56	C	1.585403	1.089660	0.500031
C57	C	1.088127	0.448053	-0.000024
C58	C	1.588127	0.948053	0.499976
C59	C	1.155499	-0.086763	-0.450298
C60	C	1.655499	0.413237	0.049702
C61	C	1.071997	-0.061790	-0.549706
C62	C	1.571997	0.438210	-0.049706
C63	C	1.174073	-0.202055	-0.549738
C64	C	1.674073	0.297945	-0.049738
C65	C	1.007059	-0.152135	-0.450237
C66	C	1.507059	0.347865	0.049763
C67	C	1.109191	-0.292450	-0.450261
C68	C	1.609191	0.207550	0.049739
C69	C	1.025629	-0.267526	-0.549624
C70	C	1.525629	0.232474	-0.049624
N71	N	1.090579	-0.177139	0.353062
N72	N	1.590579	0.322861	0.853062
H73	H	0.930336	0.214434	-0.000135
H74	H	1.430336	0.714434	0.499865
H75	H	1.008121	0.388014	-0.225755
H76	H	1.508121	0.888014	0.274245
H77	H	1.210326	-0.010274	-0.406685
H78	H	1.710326	0.489726	0.093315
Br79	Br	1.198093	0.237190	0.294618
Br80	Br	1.698093	0.737190	0.794618
H81	H	1.172933	0.257867	-0.225970
H82	H	1.672933	0.757867	0.274030
H83	H	1.008118	0.387952	0.225659
H84	H	1.508118	0.887952	0.725659
Br85	Br	1.299850	0.464454	-0.000220
Br86	Br	1.799850	0.964454	0.499780
Br87	Br	1.045753	0.100723	-0.622495
Br88	Br	1.545753	0.600723	-0.122495
Br89	Br	1.291740	-0.237159	-0.622600
Br90	Br	1.791740	0.262841	-0.122600
H91	H	1.124955	-0.389924	-0.406546
H92	H	1.624955	0.110076	0.093454
H93	H	0.936443	-0.130960	-0.406715
H94	H	1.436443	0.369040	0.093285
H95	H	0.970678	-0.343969	-0.592960
H96	H	1.470678	0.156031	-0.092960
