data_functionalizedCrystal
_audit_creation_method	'MofGen! by Chris Wilmer'
_symmetry_space_group_name_H-M	'P1'
_symmetry_Int_Tables_number	1
_symmetry_cell_setting	triclinic
loop_
_symmetry_equiv_pos_as_xyz
  x,y,z
_cell_length_a	12.827893
_cell_length_b	18.101397
_cell_length_c	18.101389
_cell_angle_alpha	89.978953
_cell_angle_beta	89.983171
_cell_angle_gamma	90.020627
loop_
_atom_site_label
_atom_site_type_symbol
_atom_site_fract_x
_atom_site_fract_y
_atom_site_fract_z
Zn1	Zn	1.597609	-0.294904	-0.418677
Zn2	Zn	1.597495	-0.418730	-0.294830
Zn3	Zn	1.422858	-0.294907	-0.294854
Zn4	Zn	1.422821	-0.418709	-0.418635
O5	O	1.510196	-0.356812	-0.356749
O6	O	1.743830	-0.311337	-0.402256
O7	O	1.574297	-0.402314	-0.191200
O8	O	1.446102	-0.191274	-0.311308
O9	O	1.743746	-0.402312	-0.311266
O10	O	1.574492	-0.191272	-0.402280
O11	O	1.445991	-0.311342	-0.191218
O12	O	1.276617	-0.311322	-0.311267
O13	O	1.446039	-0.402276	-0.522273
O14	O	1.276590	-0.402278	-0.402207
O15	O	1.574456	-0.311317	-0.522304
O16	O	1.574261	-0.522360	-0.311225
O17	O	1.445928	-0.522344	-0.402184
C18	C	1.238686	-0.356799	-0.356736
C19	C	1.122533	-0.356811	-0.356747
C20	C	1.510106	-0.549223	-0.356713
C21	C	1.510164	-0.631537	-0.356723
C22	C	1.070734	-0.311743	-0.311827
C23	C	0.950684	-0.311754	-0.311838
C24	C	1.510297	-0.930628	-0.356790
C25	C	1.590815	-0.899282	-0.299408
C26	C	1.591094	-0.813663	-0.299557
C27	C	1.510231	-0.782245	-0.356756
C28	C	1.540084	-0.813266	-0.434816
C29	C	1.540707	-0.898910	-0.434503
C30	C	1.399711	-0.899134	-0.336788
C31	C	1.400257	-0.813484	-0.335045
C32	C	1.510192	-0.698386	-0.356741
C33	C	1.510339	-1.014487	-0.356810
C34	C	1.782766	-0.356827	-0.356763
C35	C	1.898919	-0.356833	-0.356769
C36	C	1.510256	-0.356794	-0.549911
C37	C	1.510282	-0.356786	-0.632225
C38	C	1.510314	-0.163650	-0.356801
C39	C	1.510364	-0.081336	-0.356824
C40	C	1.510343	-0.356647	-0.931316
C41	C	1.429268	-0.413694	-0.899971
C42	C	1.429487	-0.413958	-0.814353
C43	C	1.510312	-0.356716	-0.782934
C44	C	1.620418	-0.377900	-0.814028
C45	C	1.619967	-0.378274	-0.899673
C46	C	1.482268	-0.278289	-0.899747
C47	C	1.479818	-0.278742	-0.814096
C48	C	1.510301	-0.356753	-0.699074
C49	C	1.510361	-0.356611	-1.015176
C50	C	1.510196	-0.356778	-0.164338
C51	C	1.510372	-0.356577	-0.082025
H52	H	1.115264	-0.273153	-0.273357
Cl53	Cl	1.354709	-0.254079	-0.782728
Cl54	Cl	1.365494	-0.782187	-0.246356
Cl55	Cl	1.303430	-0.393489	-0.781890
H56	H	1.682422	-0.338527	-0.920410
H57	H	1.337038	-0.792105	-0.373779
H58	H	1.078003	-0.395405	-0.395212
Cl59	Cl	1.307087	-0.930435	-0.401311
Cl60	Cl	1.716193	-0.315767	-0.782613
Cl61	Cl	1.716599	-0.932425	-0.319604
Cl62	Cl	1.717565	-0.781943	-0.319994
H63	H	1.621540	-0.918832	-0.451447
H64	H	1.572417	-0.792692	-0.241676
Cl65	Cl	1.302823	-0.393435	-0.931759
H66	H	1.447621	-0.471420	-0.921493
Cl67	Cl	1.458167	-0.503622	-0.782718
H68	H	1.484630	-0.919645	-0.478731
H69	H	0.906138	-0.273167	-0.273383
Cl70	Cl	0.967681	-0.416405	-0.416155
H71	H	1.572364	-0.919915	-0.241354
Cl72	Cl	1.360456	-0.248492	-0.933082
H73	H	1.643765	-0.435554	-0.919652
H74	H	1.483232	-0.792914	-0.478720
H75	H	1.620012	-0.791761	-0.452046
Cl76	Cl	1.357779	-0.932561	-0.250430
Cl77	Cl	1.657800	-0.465396	-0.780919
H78	H	1.534558	-0.233983	-0.792709
Cl79	Cl	1.573436	-0.212668	-0.931045
