data_functionalizedCrystal
_audit_creation_method	'MofGen! by Chris Wilmer'
_symmetry_space_group_name_H-M	'P1'
_symmetry_Int_Tables_number	1
_symmetry_cell_setting	triclinic
loop_
_symmetry_equiv_pos_as_xyz
  x,y,z
_cell_length_a	12.645331
_cell_length_b	18.050589
_cell_length_c	12.645331
_cell_angle_alpha	89.999012
_cell_angle_beta	90.006044
_cell_angle_gamma	90.027200
loop_
_atom_site_label
_atom_site_type_symbol
_atom_site_fract_x
_atom_site_fract_y
_atom_site_fract_z
Zn1	Zn	1.620480	-0.295868	0.599442
Zn2	Zn	1.620380	-0.420009	0.422180
Zn3	Zn	1.443246	-0.295835	0.422186
Zn4	Zn	1.443143	-0.420018	0.599395
O5	O	1.531812	-0.357933	0.510801
O6	O	1.768814	-0.312345	0.575944
O7	O	1.596884	-0.403520	0.273834
O8	O	1.466841	-0.191915	0.445721
O9	O	1.768741	-0.403551	0.445711
O10	O	1.597054	-0.191939	0.575950
O11	O	1.466744	-0.312290	0.273838
O12	O	1.294885	-0.312299	0.445676
O13	O	1.466666	-0.403566	0.747749
O14	O	1.294810	-0.403535	0.575871
O15	O	1.596954	-0.312354	0.747783
O16	O	1.596785	-0.523935	0.445666
O17	O	1.466570	-0.523941	0.575865
C18	C	1.256382	-0.357915	0.510770
C19	C	1.138552	-0.357925	0.510782
C20	C	0.971000	-0.300265	0.429328
C21	C	1.093560	-0.300414	0.428969
C22	C	1.094020	-0.436149	0.480266
C23	C	0.971422	-0.435834	0.479710
C24	C	0.971376	-0.338107	0.623066
C25	C	1.093982	-0.336359	0.622443
C26	C	1.531684	-0.550885	0.510783
C27	C	1.531726	-0.633430	0.510811
C28	C	1.460985	-0.832912	0.581589
C29	C	1.435167	-0.882323	0.484854
C30	C	1.531831	-0.784561	0.510825
C31	C	1.557701	-0.882232	0.607570
C32	C	1.531929	-0.930546	0.510847
C33	C	1.505961	-0.832885	0.414039
C34	C	1.628541	-0.832789	0.536821
C35	C	1.602759	-0.882178	0.440019
C36	C	1.531771	-0.700463	0.510814
C37	C	1.531989	-1.014642	0.510847
C38	C	1.808317	-0.357951	0.510832
C39	C	1.926147	-0.357959	0.510845
C40	C	1.531810	-0.357965	0.787306
C41	C	1.531809	-0.357978	0.905136
C42	C	1.531970	-0.164227	0.510842
C43	C	1.532037	-0.081681	0.510859
C44	C	1.449543	-0.415144	1.072678
C45	C	1.449794	-0.415387	0.950119
C46	C	1.643490	-0.379234	0.949655
C47	C	1.643003	-0.379631	1.072254
C48	C	1.503340	-0.279360	1.072335
C49	C	1.500883	-0.279792	0.949728
C50	C	1.531802	-0.357928	1.235371
C51	C	1.531791	-0.357948	1.117541
H52	H	1.124611	-0.375318	0.686427
O53	O	1.326890	-0.911142	0.455730
H54	H	1.332659	-0.944957	0.382649
H55	H	0.942796	-0.452672	0.397671
H56	H	1.468140	-0.473039	1.103497
H57	H	1.484025	-0.811299	0.332209
H58	H	1.122859	-0.313531	0.345809
H59	H	1.423303	-0.260009	1.103239
H60	H	0.940486	-0.282065	0.650819
H61	H	1.400985	-0.811278	0.641347
O62	O	0.932943	-0.393759	0.703530
H63	H	0.960198	-0.449963	0.680668
O64	O	1.682180	-0.910660	0.360684
H65	H	1.660498	-0.890788	0.280499
H66	H	0.940173	-0.313237	0.346657
O67	O	1.736910	-0.804110	0.565854
H68	H	1.758213	-0.823899	0.646183
H69	H	1.706432	-0.338872	0.920521
O70	O	0.932103	-0.494691	0.554930
H71	H	1.000657	-0.523259	0.591533
O72	O	1.574476	-0.220327	0.909203
H73	H	1.528312	-0.178475	0.864457
O74	O	1.674947	-0.455728	1.110155
H75	H	1.674921	-0.456766	1.197918
H76	H	1.123162	-0.480282	0.537776
O77	O	1.134633	-0.458843	0.372758
H78	H	1.186520	-0.414540	0.340887
H79	H	1.366977	-0.402085	0.920017
H80	H	1.579543	-0.903907	0.689378
H81	H	1.563246	-0.236745	1.101349
H82	H	1.123094	-0.278796	0.645453
O83	O	1.339485	-0.397721	1.111701
H84	H	1.342225	-0.348114	1.163495
O85	O	1.474695	-0.492550	0.911356
H86	H	1.547799	-0.491167	0.862818
O87	O	1.726943	-0.326861	1.111581
H88	H	1.767709	-0.301175	1.043031
H89	H	1.668043	-0.436060	0.918966
O90	O	1.392026	-0.258544	0.911171
H91	H	1.360073	-0.303475	0.860454
H92	H	0.941546	-0.242083	0.448250
O93	O	1.133459	-0.223574	0.454270
H94	H	1.065187	-0.185972	0.466870
