data_functionalizedCrystal
_audit_creation_method	'MofGen! by Chris Wilmer'
_symmetry_space_group_name_H-M	'P1'
_symmetry_Int_Tables_number	1
_symmetry_cell_setting	triclinic
loop_
_symmetry_equiv_pos_as_xyz
  x,y,z
_cell_length_a	42.784839
_cell_length_b	42.784841
_cell_length_c	42.784893
_cell_angle_alpha	90.002418
_cell_angle_beta	59.997780
_cell_angle_gamma	119.999863
loop_
_atom_site_label
_atom_site_type_symbol
_atom_site_fract_x
_atom_site_fract_y
_atom_site_fract_z
O1	O	0.275695	-0.214412	-0.009300
O2	O	0.211692	-0.168961	0.009253
O3	O	0.275692	-0.168961	-0.054750
O4	O	0.211694	-0.214412	0.054702
O5	O	0.223708	-0.220945	-0.054749
O6	O	0.159708	-0.220945	0.009253
O7	O	0.223710	-0.266397	-0.009300
Cu8	Cu	0.186962	-0.248417	-0.000023
Cu9	Cu	0.248440	-0.186940	-0.000024
O10	O	0.159710	-0.266396	0.054703
C11	C	0.051021	-0.022778	0.028112
C12	C	0.013142	-0.041761	0.028375
C13	C	0.051018	-0.079378	0.028116
C14	C	0.013139	-0.098275	0.028379
C15	C	-0.005578	-0.079377	0.028112
C16	C	0.069652	-0.041762	0.028379
C17	C	0.152948	0.113708	0.017863
C18	C	0.173786	0.152360	0.014965
C19	C	0.155902	0.171750	0.013509
C20	C	0.178499	0.213661	0.010359
C21	C	0.117177	0.152485	0.014953
C22	C	0.096339	0.113835	0.017857
C23	C	0.114226	0.094447	0.019312
C24	C	-0.131813	-0.113936	0.017859
C25	C	-0.167567	-0.131750	0.014961
C26	C	-0.185502	-0.169024	0.013506
C27	C	-0.224264	-0.188340	0.010358
C28	C	-0.167685	-0.188485	0.014954
C29	C	-0.131938	-0.170675	0.017859
C30	C	-0.114002	-0.133396	0.019309
C31	C	0.152939	-0.113943	0.017877
C32	C	0.173778	-0.131757	0.014977
C33	C	0.155892	-0.169032	0.013523
C34	C	0.178486	-0.188349	0.010377
C35	C	0.117170	-0.188491	0.014967
C36	C	0.096334	-0.170675	0.017865
C37	C	0.114220	-0.133401	0.019323
C38	C	0.091629	0.052537	0.022456
C39	C	0.073617	0.019131	0.024964
C40	C	0.073613	-0.098693	0.024971
C41	C	0.091623	-0.114089	0.022466
C42	C	-0.044339	-0.098690	0.024964
C43	C	-0.075237	-0.114084	0.022456
O44	O	-0.327856	-0.266388	-0.009322
O45	O	-0.236954	-0.220935	0.009228
O46	O	-0.236950	-0.220939	-0.054773
O47	O	-0.327860	-0.266385	0.054680
O48	O	-0.236948	-0.168954	-0.054776
O49	O	-0.236952	-0.168950	0.009225
O50	O	-0.327854	-0.214403	-0.009325
Cu51	Cu	-0.282403	-0.186930	-0.000050
Cu52	Cu	-0.282405	-0.248408	-0.000046
O53	O	-0.327858	-0.214400	0.054676
C54	C	0.384390	-0.079141	-0.361606
C55	C	0.422270	-0.041526	-0.380503
C56	C	0.384390	-0.079141	-0.305008
C57	C	0.422270	-0.041526	-0.323990
C58	C	0.440988	-0.022543	-0.361606
C59	C	0.365758	-0.098038	-0.323991
C60	C	0.282465	-0.170819	-0.396168
C61	C	0.261627	-0.188759	-0.413983
C62	C	0.279513	-0.169420	-0.451257
C63	C	0.256917	-0.188867	-0.470572
C64	C	0.318239	-0.132140	-0.470717
C65	C	0.339076	-0.114205	-0.452905
C66	C	0.321187	-0.133546	-0.415628
C67	C	0.567227	0.113942	-0.453282
C68	C	0.602981	0.152594	-0.471222
C69	C	0.620916	0.171985	-0.451883
C70	C	0.659678	0.213894	-0.471328
C71	C	0.603097	0.152719	-0.414603
C72	C	0.567349	0.114068	-0.396667
C73	C	0.549414	0.094682	-0.416011
C74	C	0.282465	-0.170819	-0.168522
C75	C	0.261624	-0.188757	-0.129868
C76	C	0.279510	-0.169418	-0.110479
C77	C	0.256914	-0.188865	-0.068568
C78	C	0.318233	-0.132140	-0.129742
C79	C	0.339070	-0.114203	-0.168394
C80	C	0.321184	-0.133548	-0.187782
C81	C	0.343783	-0.114094	-0.396315
C82	C	0.361794	-0.098590	-0.380920
C83	C	0.361794	-0.098590	-0.263099
C84	C	0.343783	-0.114094	-0.229693
C85	C	0.479750	0.019366	-0.381054
C86	C	0.510649	0.052771	-0.396557
C87	C	0.440758	-0.356212	-0.028193
C88	C	0.422041	-0.393827	-0.028459
C89	C	0.384158	-0.356213	-0.028190
C90	C	0.365526	-0.393828	-0.028456
C91	C	0.384160	-0.412810	-0.028193
C92	C	0.422038	-0.337315	-0.028456
C93	C	0.567000	-0.264532	-0.017949
C94	C	0.602755	-0.246591	-0.015053
C95	C	0.620692	-0.265931	-0.013601
C96	C	0.659455	-0.246483	-0.010453
C97	C	0.602873	-0.303210	-0.015048
C98	C	0.567125	-0.321146	-0.017949
C99	C	0.549188	-0.301805	-0.019399
C100	C	0.339356	-0.549295	-0.017951
C101	C	0.318645	-0.587947	-0.015055
C102	C	0.279915	-0.607338	-0.013597
C103	C	0.257452	-0.649247	-0.010452
C104	C	0.261899	-0.588073	-0.015042
C105	C	0.282613	-0.549422	-0.017945
C106	C	0.321343	-0.530035	-0.019397
C107	C	0.339344	-0.264537	-0.017936
C108	C	0.318628	-0.246599	-0.015032
C109	C	0.279898	-0.265939	-0.013577
C110	C	0.257433	-0.246493	-0.010426
C111	C	0.261884	-0.303217	-0.015022
C112	C	0.282601	-0.321153	-0.017924
C113	C	0.321334	-0.301808	-0.019385
C114	C	0.510421	-0.321258	-0.022542
C115	C	0.479522	-0.336762	-0.025048
C116	C	0.361696	-0.336765	-0.025041
C117	C	0.343793	-0.321261	-0.022532
C118	C	0.361701	-0.454719	-0.025047
C119	C	0.343799	-0.488125	-0.022541
O120	O	0.223728	0.336934	-0.009323
O121	O	0.159726	0.227482	0.009227
O122	O	0.223729	0.291478	-0.054775
O123	O	0.159725	0.272938	0.054678
O124	O	0.275711	0.291477	-0.054771
O125	O	0.211707	0.227481	0.009230
O126	O	0.275710	0.336932	-0.009320
Cu127	Cu	0.248455	0.282206	-0.000045
Cu128	Cu	0.186981	0.282208	-0.000049
O129	O	0.211707	0.272936	0.054681
O130	O	0.763271	0.337164	-0.496871
O131	O	0.672367	0.227713	-0.451422
O132	O	0.672365	0.291711	-0.451418
O133	O	0.763273	0.273165	-0.496876
O134	O	0.672366	0.291712	-0.503402
O135	O	0.672368	0.227714	-0.503407
O136	O	0.763272	0.337165	-0.548856
Cu137	Cu	0.717820	0.282440	-0.530878
Cu138	Cu	0.717819	0.282438	-0.469400
O139	O	0.763275	0.273167	-0.548860
O140	O	0.211690	-0.214417	-0.548617
O141	O	0.275691	-0.168962	-0.503167
O142	O	0.211689	-0.168964	-0.503163
O143	O	0.275692	-0.214415	-0.548621
O144	O	0.159706	-0.220947	-0.451179
O145	O	0.223708	-0.220945	-0.451183
O146	O	0.159707	-0.266400	-0.496633
Cu147	Cu	0.186961	-0.248419	-0.469161
Cu148	Cu	0.248437	-0.186943	-0.530639
O149	O	0.223709	-0.266398	-0.496637
C150	C	-0.005343	-0.412572	0.361558
C151	C	0.013375	-0.393590	0.380456
C152	C	0.051255	-0.355974	0.304961
C153	C	0.069887	-0.337077	0.323944
C154	C	0.051254	-0.355974	0.361560
C155	C	0.013375	-0.393589	0.323943
C156	C	-0.131582	-0.549057	0.396116
C157	C	-0.167336	-0.587709	0.413930
C158	C	-0.185271	-0.607098	0.451205
C159	C	-0.224034	-0.649009	0.470519
C160	C	-0.167452	-0.587833	0.470666
C161	C	-0.131705	-0.549184	0.452854
C162	C	-0.113770	-0.529796	0.415578
C163	C	0.096061	-0.321414	0.453239
C164	C	0.116773	-0.303600	0.471179
C165	C	0.155502	-0.266327	0.451842
C166	C	0.177965	-0.247011	0.471288
C167	C	0.173517	-0.246866	0.414562
C168	C	0.152802	-0.264677	0.396625
C169	C	0.114073	-0.301955	0.415968
C170	C	0.096064	-0.321412	0.168474
C171	C	0.116779	-0.303599	0.129820
C172	C	0.155508	-0.266324	0.110432
C173	C	0.177972	-0.247009	0.068521
C174	C	0.173522	-0.246865	0.129696
C175	C	0.152807	-0.264680	0.168348
C176	C	0.114075	-0.301953	0.187735
C177	C	-0.075004	-0.487887	0.396265
C178	C	-0.044106	-0.454481	0.380871
C179	C	0.073715	-0.336660	0.263052
C180	C	0.091618	-0.321265	0.229646
C181	C	0.073714	-0.336661	0.381009
C182	C	0.091616	-0.321267	0.396513
C183	C	0.051046	-0.022794	-0.361634
C184	C	0.069679	-0.041778	-0.380530
C185	C	-0.005555	-0.079390	-0.305034
C186	C	0.013163	-0.098288	-0.324016
C187	C	0.051045	-0.079393	-0.361631
C188	C	0.013164	-0.041775	-0.324018
C189	C	0.095858	0.113693	-0.396200
C190	C	0.116571	0.152344	-0.414015
C191	C	0.155302	0.171732	-0.451290
C192	C	0.177767	0.213642	-0.470607
C193	C	0.173317	0.152465	-0.470750
C194	C	0.152600	0.113815	-0.452936
C195	C	0.113869	0.094429	-0.415659
C196	C	0.152973	-0.113959	-0.453306
C197	C	0.173810	-0.131775	-0.471245
C198	C	0.155926	-0.169048	-0.451906
C199	C	0.178519	-0.188366	-0.471350
C200	C	0.117198	-0.188507	-0.414626
C201	C	0.096358	-0.170694	-0.396690
C202	C	0.114251	-0.133416	-0.416035
C203	C	-0.131801	-0.113944	-0.168548
C204	C	-0.167554	-0.131755	-0.129895
C205	C	-0.185491	-0.169029	-0.110504
C206	C	-0.224255	-0.188343	-0.068593
C207	C	-0.167671	-0.188490	-0.129767
C208	C	-0.131918	-0.170677	-0.168418
C209	C	-0.113988	-0.133404	-0.187808
C210	C	0.091411	0.052521	-0.396344
C211	C	0.073508	0.019115	-0.380949
C212	C	-0.044320	-0.098701	-0.263125
C213	C	-0.075220	-0.114094	-0.229719
C214	C	0.073641	-0.098707	-0.381079
C215	C	0.091652	-0.114103	-0.396582
C216	C	-0.615853	-0.356193	0.361535
C217	C	-0.634487	-0.393808	0.380433
C218	C	-0.559253	-0.356195	0.304938
C219	C	-0.577972	-0.393810	0.323921
C220	C	-0.615854	-0.412792	0.361537
C221	C	-0.577972	-0.337297	0.323920
C222	C	-0.660661	-0.264512	0.396093
C223	C	-0.681373	-0.246571	0.413906
C224	C	-0.720104	-0.265909	0.451181
C225	C	-0.742568	-0.246461	0.470495
C226	C	-0.738120	-0.303189	0.470643
C227	C	-0.717405	-0.321125	0.452831
C228	C	-0.678674	-0.301785	0.415554
C229	C	-0.717784	-0.549275	0.453218
C230	C	-0.738622	-0.587926	0.471159
C231	C	-0.720740	-0.607319	0.451822
C232	C	-0.743333	-0.649227	0.471268
C233	C	-0.682012	-0.588055	0.414542
C234	C	-0.661170	-0.549403	0.396604
C235	C	-0.679063	-0.530016	0.415946
C236	C	-0.433006	-0.264522	0.168449
C237	C	-0.397253	-0.246585	0.129796
C238	C	-0.379317	-0.265926	0.110407
C239	C	-0.340553	-0.246480	0.068496
C240	C	-0.397138	-0.303204	0.129672
C241	C	-0.432891	-0.321139	0.168324
C242	C	-0.450820	-0.301793	0.187711
C243	C	-0.656216	-0.321238	0.396242
C244	C	-0.638314	-0.336743	0.380848
C245	C	-0.520488	-0.336748	0.263028
C246	C	-0.489588	-0.321245	0.229622
C247	C	-0.638451	-0.454700	0.380987
C248	C	-0.656463	-0.488106	0.396492
C249	C	0.440756	0.310302	-0.361620
C250	C	0.422038	0.310564	-0.380518
C251	C	0.384160	0.310312	-0.305026
C252	C	0.365528	0.310574	-0.324010
C253	C	0.384159	0.310303	-0.361624
C254	C	0.422038	0.310573	-0.324006
C255	C	0.566989	0.300046	-0.396172
C256	C	0.602741	0.297145	-0.413984
C257	C	0.620675	0.295684	-0.451257
C258	C	0.659436	0.292531	-0.470569
C259	C	0.602857	0.297127	-0.470719
C260	C	0.567111	0.300033	-0.452909
C261	C	0.549177	0.301493	-0.415634
C262	C	0.339351	0.300042	-0.453303
C263	C	0.318640	0.297142	-0.471244
C264	C	0.279912	0.295690	-0.451908
C265	C	0.257449	0.292541	-0.471354
C266	C	0.261899	0.297143	-0.414629
C267	C	0.282613	0.300049	-0.396692
C268	C	0.321341	0.301496	-0.416033
C269	C	0.339354	0.300088	-0.168540
C270	C	0.318640	0.297192	-0.129888
C271	C	0.279912	0.295742	-0.110501
C272	C	0.257450	0.292601	-0.068591
C273	C	0.261898	0.297184	-0.129766
C274	C	0.282612	0.300078	-0.168417
C275	C	0.321344	0.301533	-0.187802
C276	C	0.510413	0.304640	-0.396323
C277	C	0.479516	0.307151	-0.380931
C278	C	0.361701	0.307173	-0.263117
C279	C	0.343799	0.304671	-0.229712
C280	C	0.361700	0.307154	-0.381073
C281	C	0.343798	0.304644	-0.396578
O282	O	0.275503	0.336913	-0.548651
O283	O	0.211494	0.227461	-0.503201
O284	O	0.275490	0.291455	-0.503192
O285	O	0.211507	0.272919	-0.548659
O286	O	0.223502	0.291457	-0.451211
O287	O	0.159506	0.227463	-0.451219
O288	O	0.223515	0.336915	-0.496669
Cu289	Cu	0.186764	0.282189	-0.469197
Cu290	Cu	0.248246	0.282187	-0.530672
O291	O	0.159519	0.272921	-0.496677
C292	C	0.051032	0.254111	0.361530
C293	C	0.013154	0.253851	0.380425
C294	C	0.051031	0.254102	0.304932
C295	C	0.013153	0.253842	0.323913
C296	C	-0.005564	0.254113	0.361527
C297	C	0.069663	0.253840	0.323916
C298	C	0.152954	0.264360	0.396096
C299	C	0.173791	0.267260	0.413911
C300	C	0.155906	0.268721	0.451185
C301	C	0.178502	0.271871	0.470501
C302	C	0.117182	0.267279	0.470643
C303	C	0.096345	0.264374	0.452830
C304	C	0.114233	0.262915	0.415555
C305	C	-0.131796	0.264379	0.453195
C306	C	-0.167548	0.267281	0.471133
C307	C	-0.185483	0.268734	0.451793
C308	C	-0.224243	0.271886	0.471236
C309	C	-0.167664	0.267282	0.414515
C310	C	-0.131919	0.264374	0.396581
C311	C	-0.113984	0.262925	0.415925
C312	C	0.152952	0.264325	0.168451
C313	C	0.173792	0.267221	0.129798
C314	C	0.155907	0.268673	0.110407
C315	C	0.178502	0.271814	0.068498
C316	C	0.117186	0.267232	0.129669
C317	C	0.096350	0.264339	0.168320
C318	C	0.114234	0.262881	0.187709
C319	C	0.091638	0.259769	0.396240
C320	C	0.073627	0.257260	0.380845
C321	C	0.073626	0.257242	0.263024
C322	C	0.091636	0.259743	0.229619
C323	C	-0.044324	0.257264	0.380973
C324	C	-0.075221	0.259775	0.396474
H325	H	-0.182293	-0.218837	0.013775
H326	H	-0.117197	0.263199	0.468949
O327	O	-0.114610	-0.189561	-0.187185
C328	C	-0.118117	-0.193049	-0.218246
H329	H	-0.120769	-0.169781	-0.226996
H330	H	-0.087563	-0.189810	-0.243440
H331	H	-0.148852	-0.222377	-0.209421
H332	H	0.230346	-0.318966	-0.013835
O333	O	-0.185157	-0.224723	-0.110935
C334	C	-0.230018	-0.248811	-0.097280
H335	H	-0.236107	-0.235794	-0.115053
H336	H	-0.238587	-0.278158	-0.099713
H337	H	-0.251634	-0.251960	-0.066033
H338	H	0.437704	-0.306410	-0.028878
H339	H	0.102624	0.268416	0.113879
H340	H	0.167477	-0.248833	0.184031
O341	O	0.440783	0.311150	-0.305859
C342	C	0.484540	0.344285	-0.326349
H343	H	0.488185	0.367028	-0.344468
H344	H	0.492509	0.355707	-0.305375
H345	H	0.508309	0.336915	-0.345772
O346	O	-0.114331	-0.077705	0.019209
C347	C	-0.069468	-0.053617	-0.011994
H348	H	-0.063376	-0.066632	-0.035859
H349	H	-0.060896	-0.024268	-0.022993
H350	H	-0.047856	-0.050472	-0.002360
H351	H	-0.117212	-0.083598	-0.184336
O352	O	0.224040	-0.224985	-0.111131
C353	C	0.231096	-0.249144	-0.097499
H354	H	0.259481	-0.231284	-0.094556
H355	H	0.199784	-0.271021	-0.068387
H356	H	0.239727	-0.264663	-0.118529
H357	H	0.064802	-0.186523	0.019045
O358	O	-0.005506	-0.135150	0.028902
C359	C	0.019161	-0.147830	0.029063
H360	H	0.038335	-0.129828	0.040814
H361	H	-0.004197	-0.179155	0.047894
H362	H	0.043290	-0.144758	-0.001388
O363	O	0.376987	0.301518	-0.187432
C364	C	0.391402	0.304374	-0.225675
H365	H	0.377455	0.316790	-0.234087
H366	H	0.429054	0.323910	-0.245289
H367	H	0.379352	0.274731	-0.228572
H368	H	-0.182070	-0.115902	0.013781
H369	H	0.064821	0.263164	0.184001
H370	H	-0.629638	-0.533721	0.366252
H371	H	0.333309	0.296016	-0.114204
H372	H	0.064523	-0.351759	0.184259
O373	O	0.170238	-0.245767	0.360440
C374	C	0.139147	-0.242298	0.360459
H375	H	0.114752	-0.244577	0.390378
H376	H	0.157020	-0.213356	0.339275
H377	H	0.120527	-0.266155	0.351740
H378	H	0.230362	0.296001	-0.113978
H379	H	-0.382753	-0.216236	0.114110
H380	H	-0.117435	-0.186523	0.019040
O381	O	-0.114440	-0.530532	0.471806
C382	C	-0.137943	-0.555928	0.508528
H383	H	-0.154571	-0.586647	0.508493
H384	H	-0.114102	-0.549686	0.516446
H385	H	-0.164158	-0.551988	0.530341
O386	O	0.329117	-0.412047	-0.028896
C387	C	0.294228	-0.445045	0.003891
H388	H	0.300150	-0.441588	0.027239
H389	H	0.261671	-0.449115	0.014611
H390	H	0.292651	-0.471116	-0.003662
O391	O	0.550118	0.095384	-0.360475
C392	C	0.583061	0.096145	-0.359727
H393	H	0.617062	0.121285	-0.384830
H394	H	0.578900	0.099484	-0.331725
H395	H	0.579860	0.068282	-0.362021
H396	H	0.205059	-0.216514	0.113907
H397	H	0.100368	-0.306171	0.308703
H398	H	-0.182059	-0.115906	-0.114213
O399	O	0.335671	-0.113337	-0.110953
C400	C	0.378778	-0.103824	-0.129056
H401	H	0.392810	-0.102869	-0.160046
H402	H	0.400695	-0.074599	-0.128348
H403	H	0.377688	-0.126310	-0.113412
O404	O	0.265031	-0.189598	-0.187322
C405	C	0.221917	-0.199121	-0.169199
H406	H	0.218211	-0.179041	-0.152445
H407	H	0.215804	-0.196106	-0.191723
H408	H	0.196875	-0.229917	-0.148774
O409	O	-0.005378	-0.411821	0.417331
C410	C	-0.042909	-0.449154	0.430021
H411	H	-0.039896	-0.458525	0.404284
H412	H	-0.045323	-0.469668	0.449511
H413	H	-0.073856	-0.449459	0.446529
O414	O	-0.776276	-0.606695	0.507348
C415	C	-0.810819	-0.637753	0.507319
H416	H	-0.796292	-0.646499	0.481396
H417	H	-0.832777	-0.662949	0.534630
H418	H	-0.831319	-0.628927	0.505908
H419	H	0.552621	-0.351498	-0.019128
H420	H	-0.562326	-0.306401	0.308670
O421	O	0.329346	-0.134885	-0.305813
C422	C	0.294456	-0.136959	-0.303894
H423	H	0.308573	-0.111566	-0.327508
H424	H	0.274416	-0.164739	-0.307794
H425	H	0.272167	-0.136249	-0.274830
O426	O	0.441006	-0.023281	-0.305861
C427	C	0.478530	0.014053	-0.330703
H428	H	0.475530	0.023405	-0.353444
H429	H	0.480919	0.034574	-0.313631
H430	H	0.509486	0.014372	-0.345120
O431	O	0.211368	0.171019	0.013612
C432	C	0.202696	0.152833	0.047214
H433	H	0.172584	0.121883	0.060286
H434	H	0.232556	0.153413	0.039919
H435	H	0.195938	0.168497	0.068609
H436	H	-0.447397	-0.351491	0.184007
O437	O	0.440805	-0.411953	-0.029028
C438	C	0.484549	-0.391472	-0.062182
H439	H	0.497270	-0.360406	-0.072863
H440	H	0.506456	-0.392586	-0.055125
H441	H	0.485296	-0.404860	-0.085367
O442	O	-0.005512	-0.023535	0.028912
C443	C	0.019125	0.013796	0.029117
H444	H	0.054239	0.023176	0.016719
H445	H	0.020132	0.034309	0.011034
H446	H	0.002928	0.014091	0.059764
H447	H	0.333296	-0.216247	-0.013853
H448	H	0.205322	0.268398	0.114116
O449	O	0.170040	0.095068	-0.471846
C450	C	0.138953	0.063994	-0.475318
H451	H	0.114558	0.069516	-0.473041
H452	H	0.156832	0.060685	-0.504261
H453	H	0.120334	0.036656	-0.451462
H454	H	0.167506	-0.083593	0.019063
H455	H	-0.447603	-0.248768	0.184232
O456	O	0.170397	0.262935	0.187223
C457	C	0.209037	0.264822	0.161937
H458	H	0.223197	0.278908	0.131180
H459	H	0.234471	0.282419	0.168264
H460	H	0.200688	0.234665	0.165920
H461	H	-0.002509	-0.129196	-0.308775
H462	H	-0.002293	-0.408830	0.308704
H463	H	0.100131	-0.026521	0.028807
O464	O	0.376648	-0.077972	-0.187054
C465	C	0.367968	-0.053046	-0.168862
H466	H	0.337860	-0.070089	-0.137909
H467	H	0.397827	-0.030476	-0.169446
H468	H	0.361198	-0.038418	-0.184518
H469	H	0.552629	0.098160	-0.469035
O470	O	-0.005573	-0.023644	-0.305775
C471	C	-0.043100	-0.048485	-0.268440
H472	H	-0.040100	-0.071227	-0.259087
H473	H	-0.045490	-0.031414	-0.247919
H474	H	-0.074053	-0.062901	-0.268123
H475	H	0.617704	0.168507	-0.398859
H476	H	0.617463	0.295940	-0.501068
H477	H	0.100165	-0.026535	-0.411435
O478	O	0.549523	-0.245777	-0.019299
C479	C	0.504661	-0.266542	0.011905
H480	H	0.498565	-0.285652	0.035771
H481	H	0.496098	-0.245760	0.022904
H482	H	0.483046	-0.285006	0.002273
O483	O	0.099290	-0.322443	0.111081
C484	C	0.088766	-0.301751	0.097450
H485	H	0.109570	-0.270424	0.094511
H486	H	0.096001	-0.303947	0.068338
H487	H	0.052217	-0.314148	0.118480
O488	O	0.058227	0.094915	-0.359996
C489	C	0.046775	0.120209	-0.346639
H490	H	0.062254	0.144592	-0.372073
H491	H	0.009287	0.104113	-0.328427
H492	H	0.059522	0.132373	-0.328615
O493	O	0.549636	0.301477	-0.359969
C494	C	0.573020	0.299571	-0.346609
H495	H	0.607360	0.309523	-0.372042
H496	H	0.576201	0.318850	-0.328400
H497	H	0.554410	0.268801	-0.328583
O498	O	-0.114103	-0.530217	0.359890
C499	C	-0.069239	-0.516549	0.335792
H500	H	-0.063139	-0.534326	0.348790
H501	H	-0.060667	-0.518963	0.306439
H502	H	-0.047632	-0.485307	0.332660
O503	O	0.549844	0.301414	-0.471860
C504	C	0.573343	0.299512	-0.508581
H505	H	0.589973	0.285424	-0.508544
H506	H	0.549501	0.281909	-0.516495
H507	H	0.599558	0.329665	-0.530397
O508	O	0.440978	-0.023285	-0.417360
C509	C	0.441175	0.009707	-0.419462
H510	H	0.439363	0.019196	-0.394056
H511	H	0.472885	0.033639	-0.447231
H512	H	0.411437	0.002963	-0.418799
O513	O	0.376952	-0.245700	-0.019327
C514	C	0.388412	-0.208951	-0.017433
H515	H	0.357725	-0.208882	-0.003342
H516	H	0.402575	-0.201114	0.000165
H517	H	0.414203	-0.187139	-0.047588
O518	O	-0.184583	-0.606366	0.394969
C519	C	-0.161097	-0.580963	0.358255
H520	H	-0.126789	-0.556617	0.349450
H521	H	-0.157842	-0.596971	0.336787
H522	H	-0.179669	-0.568758	0.358841
O523	O	0.620045	0.295685	-0.395098
C524	C	0.616531	0.261114	-0.391605
H525	H	0.613878	0.249709	-0.414873
H526	H	0.647081	0.266469	-0.394842
H527	H	0.585793	0.239208	-0.362277
O528	O	0.376980	0.301465	-0.472152
C529	C	0.388431	0.299553	-0.508895
H530	H	0.372953	0.309507	-0.517803
H531	H	0.425920	0.318828	-0.530287
H532	H	0.375682	0.268781	-0.508307
O533	O	-0.775727	-0.322021	0.506857
C534	C	-0.787191	-0.358771	0.520210
H535	H	-0.756504	-0.358840	0.503615
H536	H	-0.801361	-0.366610	0.551973
H537	H	-0.812978	-0.380580	0.515840
O538	O	0.265041	-0.189670	-0.359965
C539	C	0.226390	-0.226414	-0.346607
H540	H	0.227439	-0.235320	-0.372040
H541	H	0.224276	-0.247805	-0.328397
H542	H	0.196202	-0.225830	-0.328582
H543	H	-0.182052	0.268464	0.501484
O544	O	0.099149	0.171113	-0.395132
C545	C	0.130234	0.202172	-0.391646
H546	H	0.164903	0.210918	-0.414915
H547	H	0.128118	0.227368	-0.394886
H548	H	0.122816	0.193347	-0.362318
O549	O	0.619994	-0.210388	-0.013631
C550	C	0.596503	-0.197162	-0.015541
H551	H	0.562200	-0.222666	-0.005588
H552	H	0.593236	-0.178961	0.003734
H553	H	0.615077	-0.179165	-0.046314
H554	H	0.064526	-0.351765	0.468991
O555	O	0.223974	-0.224947	-0.395096
C556	C	0.189429	-0.224919	-0.391608
H557	H	0.203953	-0.198999	-0.414880
H558	H	0.167469	-0.252232	-0.394844
H559	H	0.168932	-0.223504	-0.362282
H560	H	-0.182060	-0.603623	0.501016
O561	O	0.210981	0.171331	-0.506931
C562	C	0.245458	0.202410	-0.506846
H563	H	0.237651	0.196817	-0.476931
H564	H	0.277767	0.205827	-0.528078
H565	H	0.248833	0.229717	-0.515460
H566	H	-0.666703	-0.216219	0.398058
H567	H	0.335046	0.310999	-0.308768
O568	O	0.620371	-0.321937	-0.013686
C569	C	0.665227	-0.301172	-0.044901
H570	H	0.678591	-0.269878	-0.055433
H571	H	0.684956	-0.303258	-0.035465
H572	H	0.668406	-0.313590	-0.069047
O573	O	0.058711	-0.189654	-0.360498
C574	C	0.025782	-0.223346	-0.359751
H575	H	0.042027	-0.232244	-0.384855
H576	H	0.005279	-0.247188	-0.331750
H577	H	0.003414	-0.217852	-0.362045
O578	O	0.336159	0.295794	-0.507475
C579	C	0.346669	0.326994	-0.531638
H580	H	0.351357	0.350859	-0.518625
H581	H	0.378506	0.337996	-0.560936
H582	H	0.318643	0.317359	-0.534892
H583	H	-0.562304	-0.409050	0.308680
H584	H	-0.732075	-0.351477	0.468678
H585	H	0.205320	0.268435	0.398066
H586	H	0.167522	0.263171	0.365746
H587	H	-0.664969	-0.409045	0.411340
O588	O	0.099231	-0.322566	0.507382
C589	C	0.060603	-0.359282	0.520608
H590	H	0.061756	-0.368080	0.495103
H591	H	0.058413	-0.380749	0.538805
H592	H	0.030406	-0.358707	0.538609
O593	O	0.335548	-0.113347	-0.506898
C594	C	0.304381	-0.109952	-0.506808
H595	H	0.280064	-0.112161	-0.476893
H596	H	0.322194	-0.081062	-0.528042
H597	H	0.285685	-0.133885	-0.515419
O598	O	0.376677	-0.077987	-0.471854
C599	C	0.388002	-0.064766	-0.508576
H600	H	0.357249	-0.081432	-0.508542
H601	H	0.402156	-0.033009	-0.516490
H602	H	0.413759	-0.069164	-0.530391
H603	H	0.230368	0.295965	-0.398887
O604	O	0.211104	-0.210641	0.395833
C605	C	0.203978	-0.186551	0.416600
H606	H	0.175515	-0.204482	0.447896
H607	H	0.235231	-0.164736	0.414513
H608	H	0.195428	-0.170955	0.404185
H609	H	0.617485	0.168277	-0.501573
O610	O	0.170397	-0.077757	-0.472158
C611	C	0.209049	-0.064401	-0.508903
H612	H	0.208001	-0.089834	-0.517808
H613	H	0.211164	-0.046192	-0.530296
H614	H	0.239236	-0.046376	-0.508319
H615	H	-0.382532	-0.318952	0.113884
O616	O	0.376987	-0.530515	-0.019380
C617	C	0.388441	-0.555806	-0.017476
H618	H	0.372962	-0.580192	-0.027430
H619	H	0.425930	-0.539710	-0.036755
H620	H	0.375696	-0.567968	0.013294
H621	H	0.167516	0.097925	0.019049
H622	H	0.333315	-0.603629	-0.013877
O623	O	0.265048	0.301439	-0.360475
C624	C	0.226431	0.299546	-0.347256
H625	H	0.212377	0.285456	-0.363921
H626	H	0.200913	0.281949	-0.315498
H627	H	0.234776	0.329701	-0.351660
O628	O	-0.185010	0.268739	0.395669
C629	C	-0.152134	0.300921	0.361978
H630	H	-0.118102	0.309775	0.352975
H631	H	-0.156403	0.293425	0.338188
H632	H	-0.155315	0.325585	0.367529
H633	H	-0.629125	-0.248761	0.365741
O634	O	0.224310	-0.606934	-0.013678
C635	C	0.231435	-0.620575	-0.044894
H636	H	0.259901	-0.623405	-0.055428
H637	H	0.200184	-0.649741	-0.035456
H638	H	0.239982	-0.599611	-0.069038
O639	O	0.099813	0.171346	0.013589
C640	C	0.089362	0.184987	0.044804
H641	H	0.110125	0.187820	0.055336
H642	H	0.096712	0.214152	0.035366
H643	H	0.052799	0.164022	0.068949
H644	H	-0.117415	0.263190	0.366230
O645	O	0.265045	-0.530772	-0.019326
C646	C	0.226426	-0.556169	-0.017429
H647	H	0.212374	-0.586887	-0.003343
H648	H	0.200908	-0.549929	0.000174
H649	H	0.234767	-0.552227	-0.047584
H650	H	0.267931	-0.351506	-0.019101
O651	O	0.099865	-0.224681	0.013501
C652	C	0.131020	-0.224598	-0.021067
H653	H	0.165651	-0.198611	-0.032462
H654	H	0.129011	-0.251851	-0.015710
H655	H	0.123589	-0.223267	-0.042982
O656	O	0.211464	-0.112893	-0.507434
C657	C	0.246007	-0.109408	-0.507406
H658	H	0.231482	-0.132677	-0.481483
H659	H	0.267965	-0.112648	-0.534717
H660	H	0.266507	-0.080081	-0.505996
O661	O	0.265069	0.301495	-0.187078
C662	C	0.226441	0.299587	-0.161678
H663	H	0.227596	0.309545	-0.137330
H664	H	0.224249	0.318858	-0.177690
H665	H	0.196244	0.268814	-0.149475
H666	H	0.437707	0.310988	-0.411425
H667	H	-0.002512	0.253428	0.411332
O668	O	0.099830	-0.224732	-0.395895
C669	C	0.089381	-0.248823	-0.416660
H670	H	0.110146	-0.230894	-0.447956
H671	H	0.096731	-0.270638	-0.414572
H672	H	0.052819	-0.264419	-0.404244
O673	O	-0.735208	-0.530495	0.472068
C674	C	-0.773860	-0.555785	0.508813
H675	H	-0.772813	-0.580170	0.517720
H676	H	-0.775975	-0.539688	0.530205
H677	H	-0.804047	-0.567948	0.508228
H678	H	-0.002510	0.253416	0.308669
H679	H	0.205307	-0.115910	0.013801
O680	O	-0.664646	-0.606916	0.395815
C681	C	-0.654200	-0.620556	0.416584
H682	H	-0.674963	-0.623384	0.447878
H683	H	-0.661553	-0.649723	0.414500
H684	H	-0.617637	-0.599592	0.404167
H685	H	0.100149	0.253421	0.308676
O686	O	0.058739	0.095185	0.019237
C687	C	0.047416	0.120583	0.017338
H688	H	0.078170	0.151301	0.003253
H689	H	0.033265	0.114343	-0.000266
H690	H	0.021658	0.116642	0.047492
O691	O	0.099871	0.268769	0.506822
C692	C	0.131038	0.303334	0.506731
H693	H	0.155360	0.325436	0.476813
H694	H	0.113226	0.314417	0.527958
H695	H	0.149729	0.298097	0.515348
H696	H	0.064816	0.263199	0.468675
