data_functionalizedCrystal
_audit_creation_method	'MofGen! by Chris Wilmer'
_symmetry_space_group_name_H-M	'P1'
_symmetry_Int_Tables_number	1
_symmetry_cell_setting	triclinic
loop_
_symmetry_equiv_pos_as_xyz
  x,y,z
_cell_length_a	19.805407
_cell_length_b	19.805405
_cell_length_c	19.805399
_cell_angle_alpha	90.029301
_cell_angle_beta	90.017803
_cell_angle_gamma	90.023727
loop_
_atom_site_label
_atom_site_type_symbol
_atom_site_fract_x
_atom_site_fract_y
_atom_site_fract_z
Zn1	Zn	1.034736	-0.269527	0.382680
Zn2	Zn	1.534736	0.230473	0.882680
Zn3	Zn	1.034650	-0.382716	0.269488
Zn4	Zn	1.534650	0.117284	0.769488
Zn5	Zn	0.921550	-0.269541	0.269508
Zn6	Zn	1.421550	0.230459	0.769508
Zn7	Zn	0.921514	-0.382674	0.382638
Zn8	Zn	1.421514	0.117326	0.882638
O9	O	0.978113	-0.326115	0.326078
O10	O	1.478113	0.173885	0.826078
O11	O	1.129441	-0.284554	0.367674
O12	O	1.629441	0.215446	0.867674
O13	O	1.019627	-0.367726	0.174774
O14	O	1.519627	0.132274	0.674774
O15	O	0.936615	-0.174822	0.284546
O16	O	1.436615	0.325178	0.784546
O17	O	1.129378	-0.367713	0.284512
O18	O	1.629378	0.132287	0.784512
O19	O	1.019772	-0.174813	0.367693
O20	O	1.519772	0.325187	0.867693
O21	O	0.936533	-0.284576	0.174788
O22	O	1.436533	0.215424	0.674788
O23	O	0.826829	-0.284536	0.284506
O24	O	1.326829	0.215464	0.784506
O25	O	0.936553	-0.367642	0.477360
O26	O	1.436553	0.132358	0.977360
O27	O	0.826802	-0.367655	0.367622
O28	O	1.326802	0.132345	0.867622
O29	O	1.019737	-0.284514	0.477391
O30	O	1.519737	0.215486	0.977391
O31	O	1.019592	-0.477427	0.284472
O32	O	1.519592	0.022573	0.784472
O33	O	0.936471	-0.477397	0.367603
O34	O	1.436471	0.022603	0.867603
C35	C	0.978036	-0.501971	0.326046
C36	C	1.478036	-0.001971	0.826046
C37	C	0.978066	-0.577203	0.326054
C38	C	1.478066	-0.077203	0.826054
C39	C	0.802257	-0.326093	0.326062
C40	C	1.302257	0.173907	0.826062
C41	C	0.727025	-0.326101	0.326071
C42	C	1.227025	0.173899	0.826071
C43	C	1.021389	-0.612540	0.282813
C44	C	1.521389	-0.112540	0.782813
C45	C	1.021418	-0.683228	0.282828
C46	C	1.521418	-0.183228	0.782828
C47	C	0.978119	-0.718578	0.326081
C48	C	1.478119	-0.218578	0.826081
C49	C	0.934794	-0.683236	0.369327
C50	C	1.434794	-0.183236	0.869327
C51	C	0.934769	-0.612549	0.369315
C52	C	1.434769	-0.112549	0.869315
C53	C	0.934894	-0.968309	0.369377
C54	C	1.434894	-0.468309	0.869377
C55	C	0.934921	-1.039001	0.369384
C56	C	1.434921	-0.539001	0.869384
C57	C	1.021542	-1.038989	0.282890
C58	C	1.521542	-0.538989	0.782890
C59	C	1.021517	-0.968302	0.282878
C60	C	1.521517	-0.468302	0.782878
C61	C	0.978195	-0.932965	0.326126
C62	C	1.478195	-0.432965	0.826126
C63	C	0.978165	-0.856317	0.326110
C64	C	1.478165	-0.356317	0.826110
C65	C	0.978145	-0.795225	0.326094
C66	C	1.478145	-0.295225	0.826094
C67	C	0.691714	-0.282876	0.369439
C68	C	1.191714	0.217124	0.869439
C69	C	0.621025	-0.282880	0.369442
C70	C	1.121025	0.217120	0.869442
C71	C	0.585649	-0.326112	0.326079
C72	C	1.085649	0.173888	0.826079
C73	C	0.620965	-0.369338	0.282706
C74	C	1.120965	0.130662	0.782706
C75	C	0.691652	-0.369330	0.282701
C76	C	1.191652	0.130670	0.782701
C77	C	0.335892	-0.369368	0.282727
C78	C	0.835892	0.130632	0.782727
C79	C	0.265199	-0.369374	0.282737
C80	C	0.765199	0.130626	0.782737
C81	C	0.265265	-0.282918	0.369468
C82	C	0.765265	0.217082	0.869468
C83	C	0.335952	-0.282910	0.369462
C84	C	0.835952	0.217090	0.869462
C85	C	0.371262	-0.326134	0.326087
C86	C	0.871262	0.173866	0.826087
C87	C	0.447910	-0.326128	0.326084
C88	C	0.947910	0.173872	0.826084
C89	C	0.509002	-0.326121	0.326085
C90	C	1.009002	0.173879	0.826085
C91	C	1.154655	-0.326136	0.326095
C92	C	1.654655	0.173864	0.826095
C93	C	1.229887	-0.326146	0.326102
C94	C	1.729887	0.173854	0.826102
C95	C	0.978151	-0.326072	0.502621
C96	C	1.478151	0.173928	1.002621
C97	C	0.978167	-0.326054	0.577853
C98	C	1.478167	0.173946	1.077853
C99	C	0.978207	-0.149572	0.326126
C100	C	1.478207	0.350428	0.826126
C101	C	0.978248	-0.074340	0.326146
C102	C	1.478248	0.425660	0.826146
C103	C	0.978114	-0.326108	0.150222
C104	C	1.478114	0.173892	0.650222
C105	C	0.978229	-0.325936	0.074991
C106	C	1.478229	0.174064	0.574991
C107	C	1.021481	-0.282767	0.613214
C108	C	1.521481	0.217233	1.113214
C109	C	1.021488	-0.282747	0.683903
C110	C	1.521488	0.217253	1.183903
C111	C	0.978184	-0.326018	0.719229
C112	C	1.478184	0.173982	1.219229
C113	C	0.934864	-0.369308	0.683863
C114	C	1.434864	0.130692	1.183863
C115	C	0.934854	-0.369323	0.613176
C116	C	1.434854	0.130677	1.113176
C117	C	0.934902	-0.369244	0.968936
C118	C	1.434902	0.130756	1.468936
C119	C	0.934917	-0.369227	1.039628
C120	C	1.434917	0.130773	1.539628
C121	C	1.021536	-0.282668	1.039663
C122	C	1.521536	0.217332	1.539663
C123	C	1.021527	-0.282684	0.968976
C124	C	1.521527	0.217316	1.468976
C125	C	0.978205	-0.325970	0.933616
C126	C	1.478205	0.174030	1.433616
C127	C	0.978197	-0.325990	0.856968
C128	C	1.478197	0.174010	1.356968
C129	C	0.978194	-0.326002	0.795876
C130	C	1.478194	0.173998	1.295876
H131	H	1.056695	-0.711997	0.247617
H132	H	1.556695	-0.211997	0.747617
C133	C	0.374238	-0.235897	0.416567
C134	C	0.874238	0.264103	0.916567
C135	C	0.328183	-0.198029	0.454535
C136	C	0.828183	0.301971	0.954535
C137	C	0.363426	-0.154705	0.497927
C138	C	0.863426	0.345295	0.997927
H139	H	0.401820	-0.261748	0.446069
H140	H	0.901820	0.238252	0.946069
H141	H	0.401796	-0.206334	0.390739
H142	H	0.901796	0.293666	0.890739
H143	H	0.300636	-0.227589	0.480361
H144	H	0.800636	0.272411	0.980361
H145	H	0.300600	-0.172165	0.425051
H146	H	0.800600	0.327835	0.925051
H147	H	0.390985	-0.125142	0.472099
H148	H	0.890985	0.374858	0.972099
H149	H	0.391007	-0.180561	0.527424
H150	H	0.891007	0.319439	1.027424
H151	H	0.332184	-0.129002	0.523689
H152	H	0.832184	0.370998	1.023689
C153	C	0.887853	-0.416249	0.574659
C154	C	1.387853	0.083751	1.074659
C155	C	0.897099	-0.406988	0.505193
C156	C	1.397099	0.093012	1.005193
C157	C	0.853804	-0.450197	0.469692
C158	C	1.353804	0.049803	0.969692
H159	H	0.897692	-0.461753	0.586149
H160	H	1.397692	0.038247	1.086149
H161	H	0.842369	-0.406327	0.586200
H162	H	1.342369	0.093673	1.086200
H163	H	0.942573	-0.416915	0.493657
H164	H	1.442573	0.083085	0.993657
H165	H	0.887256	-0.361493	0.493683
H166	H	1.387256	0.138507	0.993683
H167	H	0.808319	-0.440275	0.481234
H168	H	1.308319	0.059725	0.981234
H169	H	0.863646	-0.495698	0.481187
H170	H	1.363646	0.004302	0.981187
H171	H	0.860066	-0.443915	0.422556
H172	H	1.360066	0.056085	0.922556
H173	H	0.899650	-0.404465	1.068389
H174	H	1.399650	0.095535	1.568389
H175	H	1.056761	-0.247500	0.712691
H176	H	1.556761	0.252500	1.212691
H177	H	0.899663	-1.067781	0.404611
H178	H	1.399663	-0.567781	0.904611
C179	C	1.068569	-0.235628	0.930745
C180	C	1.568569	0.264372	1.430745
C181	C	1.106491	-0.197700	0.976843
C182	C	1.606491	0.302300	1.476843
C183	C	1.149825	-0.154336	0.941651
C184	C	1.649825	0.345664	1.441651
H185	H	1.098102	-0.261453	0.903164
H186	H	1.598102	0.238547	1.403164
H187	H	1.042701	-0.206104	0.903189
H188	H	1.542701	0.293896	1.403189
H189	H	1.132356	-0.227220	1.004387
H190	H	1.632356	0.272780	1.504387
H191	H	1.076976	-0.171861	1.004426
H192	H	1.576976	0.328139	1.504426
H193	H	1.123958	-0.124812	0.914095
H194	H	1.623958	0.375188	1.414095
H195	H	1.179354	-0.180166	0.914071
H196	H	1.679354	0.319834	1.414071
H197	H	1.175556	-0.128592	0.972923
H198	H	1.675556	0.371408	1.472923
C199	C	1.068454	-0.235579	1.078091
C200	C	1.568454	0.264421	1.578091
C201	C	1.030160	-0.192166	1.118662
C202	C	1.530160	0.307834	1.618662
C203	C	1.073356	-0.148775	1.154061
C204	C	1.573356	0.351225	1.654061
H205	H	1.097948	-0.261387	1.105721
H206	H	1.597948	0.238613	1.605721
H207	H	1.094232	-0.209773	1.046948
H208	H	1.594232	0.290227	1.546948
H209	H	1.004393	-0.217969	1.149801
H210	H	1.504393	0.282031	1.649801
H211	H	1.000667	-0.166343	1.091049
H212	H	1.500667	0.333657	1.591049
H213	H	1.099134	-0.122970	1.122918
H214	H	1.599134	0.377030	1.622918
H215	H	1.102849	-0.174590	1.181687
H216	H	1.602849	0.325410	1.681687
H217	H	1.047380	-0.119311	1.181588
H218	H	1.547380	0.380689	1.681588
H219	H	1.056644	-0.583763	0.247589
H220	H	1.556644	-0.083763	0.747589
C221	C	0.226911	-0.416336	0.235578
C222	C	0.726911	0.083664	0.735578
C223	C	0.272962	-0.454175	0.197576
C224	C	0.772962	0.045825	0.697576
C225	C	0.237716	-0.497435	0.154123
C226	C	0.737716	0.002565	0.654123
H227	H	0.199336	-0.445926	0.261341
H228	H	0.699336	0.054074	0.761341
H229	H	0.199346	-0.390419	0.206104
H230	H	0.699346	0.109581	0.706104
H231	H	0.300517	-0.480090	0.227046
H232	H	0.800517	0.019910	0.727046
H233	H	0.300539	-0.424603	0.171799
H234	H	0.800539	0.075397	0.671799
H235	H	0.210150	-0.471518	0.124650
H236	H	0.710150	0.028482	0.624650
H237	H	0.210142	-0.527020	0.179892
H238	H	0.710142	-0.027020	0.679892
H239	H	0.268956	-0.523109	0.128330
H240	H	0.768956	-0.023109	0.628330
C241	C	0.226805	-0.236008	0.416483
C242	C	0.726805	0.263992	0.916483
C243	C	0.157328	-0.245249	0.407197
C244	C	0.657328	0.254751	0.907197
C245	C	0.121881	-0.202045	0.450490
C246	C	0.621881	0.297955	0.950490
H247	H	0.238323	-0.245932	0.461969
H248	H	0.738323	0.254068	0.961969
H249	H	0.238364	-0.190502	0.406655
H250	H	0.738364	0.309498	0.906655
H251	H	0.145774	-0.290745	0.417030
H252	H	0.645774	0.209255	0.917030
H253	H	0.145791	-0.235320	0.361721
H254	H	0.645791	0.264680	0.861721
H255	H	0.133439	-0.156539	0.440661
H256	H	0.633439	0.343461	0.940661
H257	H	0.133404	-0.211972	0.495972
H258	H	0.633404	0.288028	0.995972
H259	H	0.074737	-0.208304	0.444190
H260	H	0.574737	0.291696	0.944190
C261	C	0.729997	-0.235865	0.416547
C262	C	1.229997	0.264135	0.916547
C263	C	0.683939	-0.198000	0.454515
C264	C	1.183939	0.302000	0.954515
C265	C	0.719179	-0.154678	0.497912
C266	C	1.219179	0.345322	0.997912
H267	H	0.757577	-0.261718	0.446050
H268	H	1.257577	0.238282	0.946050
H269	H	0.757557	-0.206300	0.390724
H270	H	1.257557	0.293700	0.890724
H271	H	0.656391	-0.227561	0.480337
H272	H	1.156391	0.272439	0.980337
H273	H	0.656358	-0.172134	0.425030
H274	H	1.156358	0.327866	0.925030
H275	H	0.746739	-0.125113	0.472088
H276	H	1.246739	0.374887	0.972088
H277	H	0.746758	-0.180536	0.527410
H278	H	1.246758	0.319464	1.027410
H279	H	0.687934	-0.128977	0.523673
H280	H	1.187934	0.371023	1.023673
H281	H	1.056773	-0.939522	0.247655
H282	H	1.556773	-0.439522	0.747655
C283	C	0.887943	-0.416350	0.930595
C284	C	1.387943	0.083650	1.430595
C285	C	0.902650	-0.483320	0.947759
C286	C	1.402650	0.016680	1.447759
C287	C	0.859404	-0.526732	0.912447
C288	C	1.359404	-0.026732	1.412447
H289	H	0.842455	-0.406515	0.942159
H290	H	1.342455	0.093485	1.442159
H291	H	0.894131	-0.410213	0.883429
H292	H	1.394131	0.089787	1.383429
H293	H	0.896456	-0.489454	0.994915
H294	H	1.396456	0.010546	1.494915
H295	H	0.948131	-0.493176	0.936194
H296	H	1.448131	0.006824	1.436194
H297	H	0.865591	-0.520595	0.865280
H298	H	1.365591	-0.020595	1.365280
H299	H	0.813917	-0.516891	0.924014
H300	H	1.313917	-0.016891	1.424014
H301	H	0.869380	-0.572176	0.924083
H302	H	1.369380	-0.072176	1.424083
H303	H	0.899602	-0.404538	0.712631
H304	H	1.399602	0.095462	1.212631
C305	C	0.887675	-0.721526	0.416251
C306	C	1.387675	-0.221526	0.916251
C307	C	0.820710	-0.704377	0.401463
C308	C	1.320710	-0.204377	0.901463
C309	C	0.777283	-0.739627	0.444681
C310	C	1.277283	-0.239627	0.944681
H311	H	0.893799	-0.768696	0.410109
H312	H	1.393799	-0.268696	0.910109
H313	H	0.897511	-0.709888	0.461746
H314	H	1.397511	-0.209888	0.961746
H315	H	0.810877	-0.716019	0.355978
H316	H	1.310877	-0.216019	0.855978
H317	H	0.814564	-0.657212	0.407609
H318	H	1.314564	-0.157212	0.907609
H319	H	0.787119	-0.727989	0.490176
H320	H	1.287119	-0.227989	0.990176
H321	H	0.783414	-0.786796	0.438536
H322	H	1.283414	-0.286796	0.938536
H323	H	0.731843	-0.727992	0.434657
H324	H	1.231843	-0.227992	0.934657
C325	C	0.887774	-0.930072	0.416345
C326	C	1.387774	-0.430072	0.916345
C327	C	0.849845	-0.976162	0.454206
C328	C	1.349845	-0.476162	0.954206
C329	C	0.806419	-0.940960	0.497471
C330	C	1.306419	-0.440960	0.997471
H331	H	0.913554	-0.902452	0.445920
H332	H	1.413554	-0.402452	0.945920
H333	H	0.858254	-0.902555	0.390431
H334	H	1.358254	-0.402555	0.890431
H335	H	0.879361	-1.003667	0.480118
H336	H	1.379361	-0.503667	0.980118
H337	H	0.824051	-1.003784	0.424649
H338	H	1.324051	-0.503784	0.924649
H339	H	0.776899	-0.913443	0.471557
H340	H	1.276899	-0.413443	0.971557
H341	H	0.832204	-0.913341	0.527042
H342	H	1.332204	-0.413341	1.027042
H343	H	0.780674	-0.972226	0.523161
H344	H	1.280674	-0.472226	1.023161
C345	C	0.582604	-0.236063	0.416572
C346	C	1.082604	0.263937	0.916572
C347	C	0.542014	-0.274450	0.459874
C348	C	1.042014	0.225550	0.959874
C349	C	0.506606	-0.231343	0.503297
C350	C	1.006606	0.268657	1.003297
H351	H	0.613721	-0.210304	0.442463
H352	H	1.113721	0.289696	0.942463
H353	H	0.554989	-0.206546	0.390760
H354	H	1.054989	0.293454	0.890760
H355	H	0.569626	-0.303955	0.485684
H356	H	1.069626	0.196045	0.985684
H357	H	0.510884	-0.300207	0.434002
H358	H	1.010884	0.199793	0.934002
H359	H	0.478992	-0.201826	0.477484
H360	H	0.978992	0.298174	0.977484
H361	H	0.537728	-0.205587	0.529182
H362	H	1.037728	0.294413	1.029182
H363	H	0.479057	-0.257382	0.532678
H364	H	0.979057	0.242618	1.032678
C365	C	1.068701	-1.077262	0.235979
C366	C	1.568701	-0.577262	0.735979
C367	C	1.135650	-1.059980	0.250767
C368	C	1.635650	-0.559980	0.750767
C369	C	1.179110	-1.095212	0.207560
C370	C	1.679110	-0.595212	0.707560
H371	H	1.062618	-1.124435	0.242132
H372	H	1.562618	-0.624435	0.742132
H373	H	1.058858	-1.065699	0.190480
H374	H	1.558858	-0.565699	0.690480
H375	H	1.145490	-1.071548	0.296255
H376	H	1.645490	-0.571548	0.796255
H377	H	1.141755	-1.012813	0.244609
H378	H	1.641755	-0.512813	0.744609
H379	H	1.169267	-1.083649	0.162061
H380	H	1.669267	-0.583649	0.662061
H381	H	1.173021	-1.142383	0.213717
H382	H	1.673021	-0.642383	0.713717
H383	H	1.224539	-1.083486	0.217583
H384	H	1.724539	-0.583486	0.717583
C385	C	0.374344	-0.416229	0.235670
C386	C	0.874344	0.083771	0.735670
C387	C	0.443821	-0.406962	0.244928
C388	C	0.943821	0.093038	0.744928
C389	C	0.479267	-0.450117	0.201584
C390	C	0.979267	0.049883	0.701584
H391	H	0.362828	-0.461747	0.245455
H392	H	0.862828	0.038253	0.745455
H393	H	0.362782	-0.406262	0.190196
H394	H	0.862782	0.093738	0.690196
H395	H	0.455378	-0.416934	0.290391
H396	H	0.955378	0.083066	0.790391
H397	H	0.455357	-0.361454	0.235138
H398	H	0.955357	0.138546	0.735138
H399	H	0.467706	-0.440149	0.156111
H400	H	0.967706	0.059851	0.656111
H401	H	0.467746	-0.495631	0.211373
H402	H	0.967746	0.004369	0.711373
H403	H	0.526411	-0.443830	0.207855
H404	H	1.026411	0.056170	0.707855
C405	C	0.582681	-0.416304	0.235554
C406	C	1.082681	0.083696	0.735554
C407	C	0.628737	-0.454144	0.197560
C408	C	1.128737	0.045856	0.697560
C409	C	0.593496	-0.497413	0.154111
C410	C	1.093496	0.002587	0.654111
H411	H	0.555106	-0.445892	0.261320
H412	H	1.055106	0.054108	0.761320
H413	H	0.555115	-0.390393	0.206075
H414	H	1.055115	0.109607	0.706075
H415	H	0.656291	-0.480053	0.227035
H416	H	1.156291	0.019947	0.727035
H417	H	0.656313	-0.424574	0.171780
H418	H	1.156313	0.075426	0.671780
H419	H	0.565930	-0.471502	0.124633
H420	H	1.065930	0.028498	0.624633
H421	H	0.565923	-0.526996	0.179883
H422	H	1.065923	-0.026996	0.679883
H423	H	0.624740	-0.523088	0.128323
H424	H	1.124740	-0.023088	0.628323
H425	H	0.899492	-0.583777	0.404527
H426	H	1.399492	-0.083777	0.904527
H427	H	0.720401	-0.404528	0.247386
H428	H	1.220401	0.095472	0.747386
H429	H	1.056747	-0.247532	0.584457
H430	H	1.556747	0.252468	1.084457
