data_functionalizedCrystal
_audit_creation_method	'MofGen! by Chris Wilmer'
_symmetry_space_group_name_H-M	'P1'
_symmetry_Int_Tables_number	1
_symmetry_cell_setting	triclinic
loop_
_symmetry_equiv_pos_as_xyz
  x,y,z
_cell_length_a	12.759401
_cell_length_b	12.759394
_cell_length_c	12.759387
_cell_angle_alpha	89.968340
_cell_angle_beta	89.978910
_cell_angle_gamma	90.016362
loop_
_atom_site_label
_atom_site_type_symbol
_atom_site_fract_x
_atom_site_fract_y
_atom_site_fract_z
Zn1	Zn	1.606267	-0.418168	-0.594015
Zn2	Zn	2.106267	0.081832	-0.094015
Zn3	Zn	1.606157	-0.593885	-0.418333
Zn4	Zn	2.106157	-0.093885	0.081667
Zn5	Zn	1.430565	-0.418226	-0.418350
Zn6	Zn	1.930565	0.081774	0.081650
Zn7	Zn	1.430557	-0.593811	-0.593970
Zn8	Zn	1.930557	-0.093811	-0.093970
O9	O	1.518387	-0.506022	-0.506167
O10	O	2.018387	-0.006022	-0.006167
O11	O	1.753273	-0.441485	-0.570722
O12	O	2.253273	0.058515	-0.070722
O13	O	1.582822	-0.570639	-0.271314
O14	O	2.082822	-0.070639	0.228686
O15	O	1.453922	-0.271197	-0.441679
O16	O	1.953922	0.228803	0.058321
O17	O	1.753193	-0.570583	-0.441649
O18	O	2.253193	-0.070583	0.058351
O19	O	1.583009	-0.271155	-0.570739
O20	O	2.083009	0.228845	-0.070739
O21	O	1.453815	-0.441582	-0.271327
O22	O	1.953815	0.058418	0.228673
O23	O	1.283543	-0.441510	-0.441635
O24	O	1.783543	0.058490	0.058365
O25	O	1.453908	-0.570456	-0.740997
O26	O	1.953908	-0.070456	-0.240997
O27	O	1.283537	-0.570512	-0.570662
O28	O	1.783537	-0.070512	-0.070662
O29	O	1.583001	-0.441412	-0.741030
O30	O	2.083001	0.058588	-0.241030
O31	O	1.582814	-0.740897	-0.441606
O32	O	2.082814	-0.240897	0.058394
O33	O	1.453802	-0.740842	-0.570646
O34	O	1.953802	-0.240842	-0.070646
C35	C	1.245419	-0.506010	-0.506146
C36	C	1.745419	-0.006010	-0.006146
C37	C	1.128643	-0.506029	-0.506162
C38	C	1.628643	-0.006029	-0.006162
C39	C	1.073805	-0.573303	-0.573241
C40	C	1.573805	-0.073303	-0.073241
C41	C	0.964081	-0.573307	-0.573262
C42	C	1.464081	-0.073307	-0.073262
C43	C	0.964042	-0.438761	-0.439116
C44	C	1.464042	0.061239	0.060884
C45	C	1.073764	-0.438753	-0.439101
C46	C	1.573764	0.061247	0.060899
C47	C	1.518324	-0.778990	-0.506142
C48	C	2.018324	-0.278990	-0.006142
C49	C	1.518393	-0.895767	-0.506166
C50	C	2.018393	-0.395767	-0.006166
C51	C	1.652834	-0.895770	-0.371897
C52	C	2.152834	-0.395770	0.128103
C53	C	1.720082	-0.950633	-0.304775
C54	C	2.220082	-0.450633	0.195225
C55	C	1.720144	-1.060355	-0.304804
C56	C	2.220144	-0.560355	0.195196
C57	C	1.652952	-1.115216	-0.371964
C58	C	2.152952	-0.615216	0.128036
C59	C	1.585704	-1.060353	-0.439086
C60	C	2.085704	-0.560353	0.060914
C61	C	1.585648	-0.950629	-0.439048
C62	C	2.085648	-0.450629	0.060952
C63	C	1.451270	-1.060350	-0.573358
C64	C	1.951270	-0.560350	-0.073358
C65	C	1.451201	-0.950628	-0.573326
C66	C	1.951201	-0.450628	-0.073326
C67	C	1.384078	-1.115211	-0.640518
C68	C	1.884078	-0.615211	-0.140518
C69	C	1.316823	-1.060348	-0.707636
C70	C	1.816823	-0.560348	-0.207636
C71	C	1.316763	-0.950620	-0.707604
C72	C	1.816763	-0.450620	-0.207604
C73	C	1.383953	-0.895765	-0.640448
C74	C	1.883953	-0.395765	-0.140448
C75	C	1.792420	-0.506036	-0.506189
C76	C	2.292420	-0.006036	-0.006189
C77	C	1.909196	-0.506042	-0.506198
C78	C	2.409196	-0.006042	-0.006198
C79	C	1.518466	-0.505919	-0.780201
C80	C	2.018466	-0.005919	-0.280201
C81	C	1.518500	-0.505876	-0.896978
C82	C	2.018500	-0.005876	-0.396978
C83	C	1.518479	-0.231989	-0.506216
C84	C	2.018479	0.268011	-0.006216
C85	C	1.518518	-0.115212	-0.506236
C86	C	2.018518	0.384788	-0.006236
C87	C	1.652934	-0.371511	-0.897032
C88	C	2.152934	0.128489	-0.397032
C89	C	1.720165	-0.304313	-0.951920
C90	C	2.220165	0.195687	-0.451920
C91	C	1.720191	-0.304275	-1.061641
C92	C	2.220191	0.195725	-0.561641
C93	C	1.652975	-0.371440	-1.116478
C94	C	2.152975	0.128560	-0.616478
C95	C	1.585744	-0.438638	-1.061590
C96	C	2.085744	0.061362	-0.561590
C97	C	1.585728	-0.438671	-0.951865
C98	C	2.085728	0.061329	-0.451865
C99	C	1.451306	-0.572995	-1.061536
C100	C	1.951306	-0.072995	-0.561536
C101	C	1.451284	-0.573040	-0.951814
C102	C	1.951284	-0.073040	-0.451814
C103	C	1.384091	-0.640160	-1.116372
C104	C	1.884091	-0.140160	-0.616372
C105	C	1.316863	-0.707364	-1.061484
C106	C	1.816863	-0.207364	-0.561484
C107	C	1.316841	-0.707401	-0.951756
C108	C	1.816841	-0.207401	-0.451756
C109	C	1.384053	-0.640238	-0.896926
C110	C	1.884053	-0.140238	-0.396926
C111	C	1.518368	-0.506049	-0.233200
C112	C	2.018368	-0.006049	0.266800
C113	C	1.518538	-0.505797	-0.116423
C114	C	2.018538	-0.005797	0.383577
H115	H	1.652777	-0.806429	-0.371854
H116	H	2.152777	-0.306429	0.128146
F117	F	1.384040	-0.640276	-0.780150
F118	F	1.884040	-0.140276	-0.280150
F119	F	1.245330	-0.778832	-1.119850
F120	F	1.745330	-0.278832	-0.619850
F121	F	0.905627	-0.367166	-0.367748
F122	F	1.405627	0.132834	0.132252
F123	F	1.245328	-1.118741	-0.779111
F124	F	1.745328	-0.618741	-0.279111
F125	F	1.652925	-0.371559	-0.780256
F126	F	2.152925	0.128441	-0.280256
H127	H	1.118484	-0.628081	-0.627849
H128	H	1.618484	-0.128081	-0.127849
H129	H	1.262006	-0.905957	-0.762267
H130	H	1.762006	-0.405957	-0.262267
F131	F	1.384118	-0.640116	-1.233148
F132	F	1.884118	-0.140116	-0.733148
F133	F	1.384134	-0.778990	-0.640647
F134	F	1.884134	-0.278990	-0.140647
H135	H	1.262081	-0.762110	-0.907072
H136	H	1.762081	-0.262110	-0.407072
F137	F	1.132129	-0.367142	-0.367709
F138	F	1.632129	0.132858	0.132291
H139	H	1.774792	-0.905956	-0.250096
H140	H	2.274792	-0.405956	0.249904
H141	H	1.774909	-1.105024	-0.250153
H142	H	2.274909	-0.605024	0.249847
H143	H	0.919437	-0.628086	-0.627886
H144	H	1.419437	-0.128086	-0.127886
H145	H	1.653018	-1.204557	-0.371990
H146	H	2.153018	-0.704557	0.128010
F147	F	1.791677	-0.232815	-0.893552
F148	F	2.291677	0.267185	-0.393552
F149	F	1.652997	-0.371387	-1.233253
F150	F	2.152997	0.128613	-0.733253
F151	F	1.383797	-1.231986	-0.640199
F152	F	1.883797	-0.731986	-0.140199
H153	H	1.774930	-0.249550	-1.106331
H154	H	2.274930	0.250450	-0.606331
