data_functionalizedCrystal
_audit_creation_method	'MofGen! by Chris Wilmer'
_symmetry_space_group_name_H-M	'P1'
_symmetry_Int_Tables_number	1
_symmetry_cell_setting	triclinic
loop_
_symmetry_equiv_pos_as_xyz
  x,y,z
_cell_length_a	17.019330
_cell_length_b	17.038272
_cell_length_c	15.500227
_cell_angle_alpha	93.033254
_cell_angle_beta	96.715470
_cell_angle_gamma	92.753247
loop_
_atom_site_label
_atom_site_type_symbol
_atom_site_fract_x
_atom_site_fract_y
_atom_site_fract_z
O1	O	-1.060551	0.092032	-0.150968
O2	O	-0.727218	0.425365	0.182365
O3	O	-0.393885	0.758699	0.515698
O4	O	-0.830924	0.105585	-0.133860
O5	O	-0.497591	0.438918	0.199473
O6	O	-0.164257	0.772252	0.532806
O7	O	-0.944373	-0.015000	-0.142306
O8	O	-0.611039	0.318333	0.191028
O9	O	-0.277706	0.651666	0.524361
O10	O	-0.947103	0.212617	-0.142523
O11	O	-0.613769	0.545951	0.190810
O12	O	-0.280436	0.879284	0.524144
O13	O	-0.937486	-0.007711	0.002096
O14	O	-0.604153	0.325622	0.335429
O15	O	-0.270820	0.658955	0.668762
O16	O	-0.824038	0.112874	0.010541
O17	O	-0.490704	0.446207	0.343874
O18	O	-0.157371	0.779540	0.677208
O19	O	-1.053665	0.099321	-0.006567
O20	O	-0.720332	0.432654	0.326766
O21	O	-0.386998	0.765988	0.660100
Cu22	Cu	-0.938223	0.106763	0.015172
Cu23	Cu	-0.604889	0.440096	0.348505
Cu24	Cu	-0.271556	0.773430	0.681839
Cu25	Cu	-0.946366	0.098143	-0.155599
Cu26	Cu	-0.613033	0.431476	0.177734
Cu27	Cu	-0.279700	0.764810	0.511067
O28	O	-0.940216	0.219906	0.001878
O29	O	-0.606883	0.553239	0.335212
O30	O	-0.273550	0.886573	0.668545
C31	C	-0.797955	0.108857	-0.059460
C32	C	-0.464621	0.442191	0.273874
C33	C	-0.131288	0.775524	0.607207
C34	C	-0.709976	0.107739	-0.052905
C35	C	-0.376642	0.441073	0.280428
C36	C	-0.043309	0.774406	0.613762
C37	C	-0.212192	0.101642	-0.011884
C38	C	0.121141	0.434975	0.321449
C39	C	0.454474	0.768308	0.654782
C40	C	-0.294858	0.102692	-0.018045
C41	C	0.038475	0.436025	0.315288
C42	C	0.371808	0.769359	0.648621
C43	C	-0.339946	0.099238	-0.099840
C44	C	-0.006612	0.432571	0.233493
C45	C	0.326721	0.765905	0.566826
C46	C	-0.302362	0.094741	-0.175479
C47	C	0.030971	0.428075	0.157854
C48	C	0.364304	0.761408	0.491187
C49	C	-0.219698	0.093697	-0.169318
C50	C	0.113636	0.427030	0.164016
C51	C	0.446969	0.760363	0.497349
C52	C	-0.589728	0.102198	-0.122382
C53	C	-0.256394	0.435532	0.210951
C54	C	0.076939	0.768865	0.544284
C55	C	-0.672398	0.103241	-0.128538
C56	C	-0.339065	0.436574	0.204795
C57	C	-0.005731	0.769907	0.538128
C58	C	-0.664888	0.111193	0.028897
C59	C	-0.331555	0.444526	0.362230
C60	C	0.001779	0.777859	0.695563
C61	C	-0.582222	0.110143	0.035051
C62	C	-0.248889	0.443476	0.368384
C63	C	0.084444	0.776810	0.701718
C64	C	-0.544646	0.105651	-0.040588
C65	C	-0.211313	0.438984	0.292745
C66	C	0.122021	0.772317	0.626079
C67	C	-0.424444	0.100309	-0.106139
C68	C	-0.091110	0.433642	0.227194
C69	C	0.242223	0.766976	0.560527
C70	C	-0.460149	0.104585	-0.034288
C71	C	-0.126816	0.437919	0.299045
C72	C	0.206518	0.771252	0.632379
C73	C	-0.938447	-0.040473	-0.069920
C74	C	-0.605114	0.292861	0.263413
C75	C	-0.271780	0.626194	0.596746
C76	C	-0.931040	-0.127232	-0.069369
C77	C	-0.597707	0.206101	0.263965
C78	C	-0.264374	0.539435	0.597298
C79	C	-0.999042	-0.177656	-0.074434
C80	C	-0.665708	0.155677	0.258899
C81	C	-0.332375	0.489010	0.592233
C82	C	-0.992078	-0.259176	-0.073924
C83	C	-0.658745	0.074158	0.259410
C84	C	-0.325411	0.407491	0.592743
C85	C	-0.917112	-0.290268	-0.068341
C86	C	-0.583779	0.043065	0.264992
C87	C	-0.250445	0.376398	0.598325
C88	C	-0.849106	-0.239837	-0.063278
C89	C	-0.515773	0.093496	0.270055
C90	C	-0.182439	0.426829	0.603389
C91	C	-0.856071	-0.158320	-0.063795
C92	C	-0.522737	0.175013	0.269538
C93	C	-0.189404	0.508347	0.602872
C94	C	-0.892508	-0.535914	-0.066520
C95	C	-0.559174	-0.202581	0.266813
C96	C	-0.225841	0.130752	0.600147
C97	C	-0.885548	-0.617438	-0.066001
C98	C	-0.552214	-0.284105	0.267332
C99	C	-0.218881	0.049229	0.600666
C100	C	-1.028521	-0.636771	-0.076648
C101	C	-0.695187	-0.303437	0.256685
C102	C	-0.361854	0.029896	0.590019
C103	C	-1.035479	-0.555251	-0.077159
C104	C	-0.702145	-0.221917	0.256174
C105	C	-0.368812	0.111416	0.589507
C106	C	-0.967473	-0.504827	-0.072101
C107	C	-0.634139	-0.171494	0.261233
C108	C	-0.300806	0.161839	0.594566
C109	C	-0.909992	-0.373594	-0.067816
C110	C	-0.576659	-0.040260	0.265517
C111	C	-0.243326	0.293073	0.598850
C112	C	-0.974593	-0.421504	-0.072632
C113	C	-0.641260	-0.088171	0.260702
C114	C	-0.307927	0.245163	0.594035
C115	C	-0.086635	0.096043	-0.080966
C116	C	0.246699	0.429376	0.252367
C117	C	0.580032	0.762709	0.585700
C118	C	-0.174615	0.097143	-0.087518
C119	C	0.158718	0.430476	0.245816
C120	C	0.492052	0.763810	0.579149
C121	C	-0.946142	0.245379	-0.070509
C122	C	-0.612809	0.578712	0.262824
C123	C	-0.279476	0.912045	0.596158
C124	C	-0.953549	0.332137	-0.071066
C125	C	-0.620216	0.665471	0.262267
C126	C	-0.286882	0.998804	0.595600
N127	N	-0.932500	0.112825	0.135283
N128	N	-0.599167	0.446158	0.468616
N129	N	-0.265834	0.779492	0.801950
N130	N	-0.952094	0.092075	-0.275711
N131	N	-0.618761	0.425408	0.057623
N132	N	-0.285428	0.758741	0.390956
C133	C	-0.980592	0.061748	0.176979
C134	C	-0.647258	0.395081	0.510313
C135	C	-0.313925	0.728414	0.843646
C136	C	-0.976272	0.066340	0.267874
C137	C	-0.642939	0.399673	0.601207
C138	C	-0.309605	0.733006	0.934541
C139	C	-0.923864	0.122013	0.317070
C140	C	-0.590531	0.455347	0.650403
C141	C	-0.257198	0.788680	0.983736
C142	C	-0.875768	0.173093	0.275367
C143	C	-0.542434	0.506427	0.608701
C144	C	-0.209101	0.839760	0.942034
C145	C	-0.880084	0.168497	0.184475
C146	C	-0.546751	0.501830	0.517808
C147	C	-0.213417	0.835164	0.851141
C148	C	-0.908314	0.138558	0.591694
C149	C	-0.574981	0.471891	0.925028
C150	C	-0.241648	0.805225	1.258361
C151	C	-0.904003	0.143152	0.682593
C152	C	-0.570670	0.476485	1.015926
C153	C	-0.237337	0.809819	1.349259
C154	C	-1.004507	0.036397	0.675093
C155	C	-0.671173	0.369730	1.008426
C156	C	-0.337840	0.703064	1.341760
C157	C	-1.008822	0.031809	0.584199
C158	C	-0.675489	0.365142	0.917532
C159	C	-0.342155	0.698475	1.250866
C160	C	-0.960722	0.082886	0.542505
C161	C	-0.627389	0.416219	0.875838
C162	C	-0.294056	0.749552	1.209171
C163	C	-0.919449	0.126710	0.409978
C164	C	-0.586116	0.460043	0.743312
C165	C	-0.252783	0.793377	1.076645
C166	C	-0.965134	0.078185	0.449598
C167	C	-0.631801	0.411518	0.782931
C168	C	-0.298467	0.744851	1.116264
H169	H	-0.325450	0.106353	0.043544
H170	H	0.007883	0.439687	0.376877
H171	H	0.341217	0.773020	0.710210
H172	H	-0.695492	0.114852	0.090477
H173	H	-0.362158	0.448185	0.423811
H174	H	-0.028825	0.781519	0.757144
Br175	Br	-1.079950	-0.043746	0.517431
Br176	Br	-0.746617	0.289588	0.850765
Br177	Br	-0.413283	0.622921	1.184098
Br178	Br	-0.804635	0.248647	0.342130
Br179	Br	-0.471302	0.581980	0.675464
Br180	Br	-0.137969	0.915313	1.008797
Br181	Br	-0.814809	0.237815	0.127887
Br182	Br	-0.481475	0.571148	0.461220
Br183	Br	-0.148142	0.904481	0.794554
H184	H	-0.423435	0.107402	0.032309
H185	H	-0.090102	0.440735	0.365643
H186	H	0.243231	0.774069	0.698976
Br187	Br	-0.363551	0.090057	-0.286488
Br188	Br	-0.030218	0.423390	0.046845
Br189	Br	0.303115	0.756723	0.380178
Br190	Br	-1.137223	-0.513061	-0.084763
Br191	Br	-0.803890	-0.179728	0.248570
Br192	Br	-0.470556	0.153606	0.581903
Br193	Br	-1.051726	-0.013808	0.110222
Br194	Br	-0.718393	0.319525	0.443556
Br195	Br	-0.385059	0.652859	0.776889
H196	H	-1.007801	0.032852	0.409540
H197	H	-0.674468	0.366186	0.742873
H198	H	-0.341135	0.699519	1.076207
Br199	Br	-0.168698	0.087599	-0.271967
Br200	Br	0.164635	0.420932	0.061366
Br201	Br	0.497969	0.754266	0.394700
Br202	Br	-0.848325	0.202267	0.476748
Br203	Br	-0.514992	0.535600	0.810081
Br204	Br	-0.181658	0.868934	1.143414
H205	H	-0.788067	-0.265160	-0.058738
H206	H	-0.454734	0.068174	0.274595
H207	H	-0.121400	0.401507	0.607928
H208	H	-0.545519	0.112939	0.101657
H209	H	-0.212185	0.446272	0.434990
H210	H	0.121148	0.779605	0.768324
H211	H	-0.559143	0.098537	-0.183973
H212	H	-0.225810	0.431871	0.149360
H213	H	0.107523	0.765204	0.482694
H214	H	-0.175488	0.104458	0.054722
H215	H	0.157846	0.437791	0.388055
H216	H	0.491179	0.771124	0.721389
H217	H	-0.861325	0.188492	0.722645
H218	H	-0.527991	0.521825	1.055978
H219	H	-0.194658	0.855158	1.389311
H220	H	-1.083887	-0.677834	-0.080768
H221	H	-0.750554	-0.344501	0.252565
H222	H	-0.417221	-0.011167	0.585899
Br223	Br	-0.485641	0.095613	-0.217144
Br224	Br	-0.152307	0.428946	0.116189
Br225	Br	0.181026	0.762280	0.449522
H226	H	-0.709106	0.100434	-0.195149
H227	H	-0.375773	0.433768	0.138184
H228	H	-0.042439	0.767101	0.471518
H229	H	-0.800696	-0.117264	-0.059670
H230	H	-0.467363	0.216069	0.273663
H231	H	-0.134030	0.549402	0.606996
Br232	Br	-1.100785	-0.135467	-0.081998
Br233	Br	-0.767452	0.197866	0.251335
Br234	Br	-0.434119	0.531199	0.584669
H235	H	-1.035631	-0.396186	-0.077196
H236	H	-0.702298	-0.062852	0.256137
H237	H	-0.368965	0.270481	0.589471
H238	H	-1.047452	-0.300229	-0.078046
H239	H	-0.714119	0.033105	0.255287
H240	H	-0.380785	0.366438	0.588620
H241	H	-0.824498	-0.642749	-0.061441
H242	H	-0.491165	-0.309416	0.271892
H243	H	-0.157831	0.023918	0.605226
H244	H	-0.837132	-0.494869	-0.062401
H245	H	-0.503798	-0.161536	0.270933
H246	H	-0.170465	0.171798	0.604266
Br247	Br	-0.808256	-0.415798	-0.060249
Br248	Br	-0.474922	-0.082465	0.273084
Br249	Br	-0.141589	0.250869	0.606418
H250	H	-1.015431	0.024748	0.301823
H251	H	-0.682098	0.358081	0.635156
H252	H	-0.348764	0.691414	0.968489
Br253	Br	-1.069780	-0.032920	0.731682
Br254	Br	-0.736447	0.300413	1.065015
Br255	Br	-0.403113	0.633747	1.398348
H256	H	-0.869151	0.180149	0.557754
H257	H	-0.535818	0.513482	0.891087
H258	H	-0.202484	0.846815	1.224421
