data_functionalizedCrystal
_audit_creation_method	'MofGen! by Chris Wilmer'
_symmetry_space_group_name_H-M	'P1'
_symmetry_Int_Tables_number	1
_symmetry_cell_setting	triclinic
loop_
_symmetry_equiv_pos_as_xyz
  x,y,z
_cell_length_a	10.686220
_cell_length_b	13.897448
_cell_length_c	13.897449
_cell_angle_alpha	90.010270
_cell_angle_beta	85.637603
_cell_angle_gamma	94.399460
loop_
_atom_site_label
_atom_site_type_symbol
_atom_site_fract_x
_atom_site_fract_y
_atom_site_fract_z
Zn1	Zn	1.928957	-0.270874	0.432425
Zn2	Zn	2.428957	0.229126	0.932425
Zn3	Zn	1.928873	-0.432144	0.271131
Zn4	Zn	2.428873	0.067856	0.771131
Zn5	Zn	1.717992	-0.283251	0.283497
Zn6	Zn	2.217992	0.216749	0.783497
Zn7	Zn	1.717914	-0.444525	0.444737
Zn8	Zn	2.217914	0.055475	0.944737
O9	O	1.823434	-0.357699	0.357948
O10	O	2.323434	0.142301	0.857948
O11	O	2.105523	-0.281906	0.400701
O12	O	2.605523	0.218094	0.900701
O13	O	1.900897	-0.412391	0.137790
O14	O	2.400897	0.087609	0.637790
O15	O	1.746045	-0.146624	0.303275
O16	O	2.246045	0.353376	0.803275
O17	O	2.105461	-0.400390	0.282200
O18	O	2.605461	0.099610	0.782200
O19	O	1.901040	-0.137531	0.412692
O20	O	2.401040	0.362469	0.912692
O21	O	1.745963	-0.303000	0.146875
O22	O	2.245963	0.197000	0.646875
O23	O	1.541405	-0.315006	0.315214
O24	O	2.041405	0.184994	0.815214
O25	O	1.745912	-0.421492	0.578085
O26	O	2.245912	0.078508	1.078085
O27	O	1.541347	-0.433493	0.433676
O28	O	2.041347	0.066507	0.933676
O29	O	1.900964	-0.293912	0.569040
O30	O	2.400964	0.206088	1.069040
O31	O	1.900821	-0.568772	0.294138
O32	O	2.400821	-0.068772	0.794138
O33	O	1.745830	-0.577869	0.421686
O34	O	2.245830	-0.077869	0.921686
C35	C	1.495591	-0.376937	0.377124
C36	C	1.995591	0.123063	0.877124
C37	C	1.355339	-0.385191	0.385350
C38	C	1.855339	0.114809	0.885350
C39	C	1.823342	-0.608318	0.357925
C40	C	2.323342	-0.108318	0.857925
C41	C	1.823418	-0.715528	0.357941
C42	C	2.323418	-0.215528	0.857941
C43	C	1.823550	-0.911815	0.357994
C44	C	2.323550	-0.411815	0.857994
C45	C	1.823473	-0.802587	0.357968
C46	C	2.323473	-0.302587	0.857968
C47	C	2.152557	-0.338386	0.338698
C48	C	2.652557	0.161614	0.838698
C49	C	2.292809	-0.330156	0.330494
C50	C	2.792809	0.169844	0.830494
C51	C	1.823439	-0.357702	0.609540
C52	C	2.323439	0.142298	1.109540
C53	C	1.823441	-0.357704	0.716754
C54	C	2.323441	0.142296	1.216754
C55	C	1.823561	-0.106098	0.357989
C56	C	2.323561	0.393902	0.857989
C57	C	1.823615	0.001119	0.358007
C58	C	2.323615	0.501119	0.858007
C59	C	1.823409	-0.357710	0.913051
C60	C	2.323409	0.142290	1.413051
C61	C	1.823423	-0.357710	0.803818
C62	C	2.323423	0.142290	1.303818
C63	C	1.823417	-0.357715	1.107334
C64	C	2.323417	0.142285	1.607334
C65	C	1.823407	-0.357708	1.000121
C66	C	2.323407	0.142292	1.500121
H67	H	1.346573	-0.276725	0.277236
H68	H	1.846573	0.223275	0.777236
Br69	Br	1.265730	-0.474268	0.474112
Br70	Br	1.765730	0.025732	0.974112
