data_functionalizedCrystal
_audit_creation_method	'MofGen! by Chris Wilmer'
_symmetry_space_group_name_H-M	'P1'
_symmetry_Int_Tables_number	1
_symmetry_cell_setting	triclinic
loop_
_symmetry_equiv_pos_as_xyz
  x,y,z
_cell_length_a	6.817900
_cell_length_b	11.102210
_cell_length_c	19.551833
_cell_angle_alpha	94.521970
_cell_angle_beta	101.663477
_cell_angle_gamma	108.604261
loop_
_atom_site_label
_atom_site_type_symbol
_atom_site_fract_x
_atom_site_fract_y
_atom_site_fract_z
V1	V	-4.032640	-0.177171	-0.217856
O2	O	-3.993184	0.007143	-0.213711
O3	O	-4.009948	-0.349981	-0.216365
O4	O	-3.975019	-0.175047	-0.312872
O5	O	-4.028355	-0.169002	-0.116536
V6	V	-4.514132	-0.155054	-0.205738
O7	O	-4.298355	-0.225686	-0.244439
O8	O	-4.698615	-0.106538	-0.179155
O9	O	-4.313618	0.017757	-0.207229
O10	O	-4.670986	-0.339367	-0.209883
O11	O	-4.635814	-0.163222	-0.307058
O12	O	-4.348547	-0.157177	-0.110722
C13	C	-3.861502	-0.392090	-0.212928
C14	C	-3.924174	-0.533369	-0.212342
C15	C	-3.975531	-0.713966	-0.147539
C16	C	-3.916623	-0.581217	-0.148081
C17	C	-3.990617	-0.618277	-0.276063
C18	C	-4.049509	-0.751023	-0.275519
C19	C	-3.816944	-0.168942	-0.336031
C20	C	-3.851286	-0.168350	-0.413707
C21	C	-4.050142	-0.174450	-0.453754
C22	C	-4.082410	-0.173893	-0.526738
C23	C	-3.915823	-0.167261	-0.559675
C24	C	-3.716935	-0.161152	-0.519618
C25	C	-3.684666	-0.161696	-0.446633
C26	C	-3.863300	-0.236364	-0.678986
C27	C	-3.895580	-0.235828	-0.751970
C28	C	-4.015339	-0.165577	-0.784782
C29	C	-4.102858	-0.095879	-0.744603
C30	C	-4.070589	-0.096423	-0.671619
C31	C	-3.950792	-0.166670	-0.638813
C32	C	-4.249196	-0.171072	-0.903967
C33	C	-4.281453	-0.170507	-0.976952
C34	C	-3.915978	-0.157779	-0.969831
C35	C	-3.883721	-0.158331	-0.896846
C36	C	-4.050340	-0.164984	-0.863919
C37	C	-4.125408	0.059859	-0.210665
C38	C	-4.041974	0.201136	-0.211255
C39	C	-4.169965	-0.163286	-0.087560
C40	C	-4.114861	-0.163873	-0.009883
H41	H	-4.185818	-0.179863	-0.426949
Cl42	Cl	-3.706536	-0.149417	-1.011228
Cl43	Cl	-3.833090	-0.474493	-0.067976
Cl44	Cl	-3.785573	-0.323456	-0.802473
Cl45	Cl	-3.966042	-0.774104	-0.066749
Cl46	Cl	-4.531466	-0.178175	-1.027298
Cl47	Cl	-4.180604	-0.008807	-0.621111
Cl48	Cl	-4.253432	-0.007565	-0.785844
Cl49	Cl	-3.712703	-0.324670	-0.637743
H50	H	-3.721798	-0.153376	-0.864240
Cl51	Cl	-4.000086	-0.558124	-0.356848
H52	H	-4.384866	-0.176485	-0.877156
H53	H	-3.581298	-0.155748	-0.546439
Cl54	Cl	-3.434658	-0.154032	-0.396286
H55	H	-4.103606	-0.820151	-0.327408
H56	H	-4.244352	-0.178868	-0.559352
