data_functionalizedCrystal
_audit_creation_method	'MofGen! by Chris Wilmer'
_symmetry_space_group_name_H-M	'P1'
_symmetry_Int_Tables_number	1
_symmetry_cell_setting	triclinic
loop_
_symmetry_equiv_pos_as_xyz
  x,y,z
_cell_length_a	15.995350
_cell_length_b	14.044191
_cell_length_c	12.503572
_cell_angle_alpha	86.162165
_cell_angle_beta	93.525550
_cell_angle_gamma	88.342076
loop_
_atom_site_label
_atom_site_type_symbol
_atom_site_fract_x
_atom_site_fract_y
_atom_site_fract_z
O1	O	0.197459	1.263171	-0.089258
O2	O	0.697459	1.763171	0.410742
O3	O	0.190168	0.987202	-0.089272
O4	O	0.690168	1.487202	0.410728
O5	O	0.072489	1.132730	-0.089264
O6	O	0.572489	1.632730	0.410736
O7	O	0.315137	1.117643	-0.089267
O8	O	0.815137	1.617643	0.410733
O9	O	0.081355	1.121785	0.089377
O10	O	0.581355	1.621785	0.589377
O11	O	0.199034	0.976257	0.089369
O12	O	0.699034	1.476257	0.589369
O13	O	0.206325	1.252226	0.089383
O14	O	0.706325	1.752226	0.589383
Cu15	Cu	0.203489	1.113242	0.105687
Cu16	Cu	0.703489	1.613242	0.605687
Cu17	Cu	0.193004	1.126186	-0.105577
Cu18	Cu	0.693004	1.626186	0.394423
O19	O	0.324003	1.106698	0.089375
O20	O	0.824003	1.606698	0.589375
C21	C	0.191411	0.946415	0.000046
C22	C	0.691411	1.446415	0.500046
C23	C	0.181898	0.841190	0.000041
C24	C	0.681898	1.341190	0.500041
C25	C	0.231977	0.590903	0.000051
C26	C	0.731977	1.090903	0.500051
C27	C	0.164519	0.648532	0.000050
C28	C	0.664519	1.148532	0.500050
C29	C	0.174191	0.755736	0.000045
C30	C	0.674191	1.255736	0.500045
C31	C	0.222306	0.483688	0.000056
C32	C	0.722306	0.983688	0.500056
C33	C	0.045681	1.126634	0.000055
C34	C	0.545681	1.626634	0.500055
C35	C	-0.047410	1.124765	0.000048
C36	C	0.452590	1.624765	0.500048
C37	C	-0.385659	1.118049	0.000052
C38	C	0.114341	1.618049	0.500052
C39	C	-0.345988	1.014431	-0.000354
C40	C	0.154012	1.514431	0.499646
C41	C	-0.249138	1.016276	0.000049
C42	C	0.250862	1.516276	0.500049
C43	C	-0.217849	1.121380	0.000049
C44	C	0.282151	1.621380	0.500049
C45	C	-0.250045	1.166250	0.102063
C46	C	0.249955	1.666250	0.602063
C47	C	-0.346871	1.163641	0.102148
C48	C	0.153129	1.663641	0.602148
C49	C	-0.357151	1.178229	-0.101000
C50	C	0.142849	1.678229	0.399000
C51	C	-0.260275	1.178287	-0.102348
C52	C	0.239725	1.678287	0.397652
C53	C	-0.123011	1.123268	0.000052
C54	C	0.376989	1.623268	0.500052
C55	C	-0.480497	1.116163	0.000057
C56	C	0.019503	1.616163	0.500057
C57	C	0.350811	1.112794	0.000054
C58	C	0.850811	1.612794	0.500054
C59	C	0.443902	1.114664	0.000053
C60	C	0.943902	1.614664	0.500053
C61	C	0.205081	1.293013	0.000062
C62	C	0.705081	1.793013	0.500062
C63	C	0.214594	1.398239	0.000060
C64	C	0.714594	1.898239	0.500060
N65	N	0.210864	1.104146	0.254279
N66	N	0.710864	1.604146	0.754279
N67	N	0.185623	1.135290	-0.254168
N68	N	0.685623	1.635290	0.245832
C69	C	0.221719	1.090764	0.473394
C70	C	0.721719	1.590764	0.973394
C71	C	0.174770	1.148668	0.526724
C72	C	0.674770	1.648668	1.026724
C73	C	0.180810	1.141223	0.648647
C74	C	0.680810	1.641223	1.148647
C75	C	0.215680	1.098209	0.351460
C76	C	0.715680	1.598209	0.851460
H77	H	-0.371246	0.977488	-0.073510
H78	H	0.128754	1.477488	0.426490
N79	N	0.078396	0.607244	0.000037
N80	N	0.578396	1.107244	0.500037
H81	H	0.034723	0.660643	0.000031
H82	H	0.534723	1.160643	0.500031
H83	H	0.074740	0.562646	0.066261
H84	H	0.574740	1.062646	0.566261
N85	N	0.280968	1.017694	0.534194
N86	N	0.780968	1.517694	1.034194
H87	H	0.276938	1.022669	0.613934
H88	H	0.776938	1.522669	1.113934
H89	H	0.340216	1.029940	0.514607
H90	H	0.840216	1.529940	1.014607
H91	H	0.296987	0.622076	0.000047
H92	H	0.796987	1.122076	0.500047
H93	H	-0.365053	0.968733	0.072390
H94	H	0.134947	1.468733	0.572390
N95	N	-0.220265	0.968982	-0.096812
N96	N	0.279735	1.468982	0.403188
H97	H	-0.270482	0.946744	-0.140156
H98	H	0.229518	1.446744	0.359844
H99	H	-0.181813	0.912366	-0.072363
H100	H	0.318187	1.412366	0.427637
H101	H	-0.220660	0.971335	0.073297
H102	H	0.279340	1.471335	0.573297
H103	H	-0.364172	1.121693	0.178404
H104	H	0.135828	1.621693	0.678404
H105	H	-0.373204	1.239451	0.106778
H106	H	0.126796	1.739451	0.606778
H107	H	-0.229962	1.243235	0.105858
H108	H	0.270038	1.743235	0.605858
N109	N	-0.232754	1.280316	-0.110515
N110	N	0.267246	1.780316	0.389485
H111	H	-0.192215	1.291145	-0.047670
H112	H	0.307785	1.791145	0.452330
H113	H	-0.283308	1.324972	-0.109638
H114	H	0.216692	1.824972	0.390362
H115	H	-0.220548	1.126094	0.177977
H116	H	0.279452	1.626094	0.677977
N117	N	-0.391694	1.279508	-0.101917
N118	N	0.108306	1.779508	0.398083
H119	H	-0.454929	1.279345	-0.104705
H120	H	0.045071	1.779345	0.395295
H121	H	-0.373109	1.317766	-0.167013
H122	H	0.126891	1.817766	0.332987
N123	N	-0.392794	1.139627	-0.203424
N124	N	0.107206	1.639627	0.296576
H125	H	-0.427787	1.082732	-0.185353
H126	H	0.072213	1.582732	0.314647
H127	H	-0.345441	1.119506	-0.247691
H128	H	0.154559	1.619506	0.252309
H129	H	0.130039	1.203834	0.480814
H130	H	0.630039	1.703834	0.980814
H131	H	-0.239564	1.145535	-0.177815
H132	H	0.260436	1.645535	0.322185
