data_functionalizedCrystal
_audit_creation_method	'MofGen! by Chris Wilmer'
_symmetry_space_group_name_H-M	'P1'
_symmetry_Int_Tables_number	1
_symmetry_cell_setting	triclinic
loop_
_symmetry_equiv_pos_as_xyz
  x,y,z
_cell_length_a	11.169417
_cell_length_b	12.594516
_cell_length_c	11.169409
_cell_angle_alpha	89.968646
_cell_angle_beta	89.980176
_cell_angle_gamma	90.016931
loop_
_atom_site_label
_atom_site_type_symbol
_atom_site_fract_x
_atom_site_fract_y
_atom_site_fract_z
Zn1	Zn	1.834915	-0.423631	-0.678551
Zn2	Zn	1.834784	-0.601657	-0.477871
Zn3	Zn	1.634201	-0.423696	-0.477885
Zn4	Zn	1.634188	-0.601571	-0.678516
O5	O	1.734522	-0.512639	-0.578206
O6	O	2.002847	-0.447256	-0.651939
O7	O	1.808127	-0.578114	-0.309923
O8	O	1.660886	-0.274741	-0.504524
O9	O	2.002751	-0.578051	-0.504501
O10	O	1.808349	-0.274694	-0.651953
O11	O	1.660759	-0.447366	-0.309934
O12	O	1.466249	-0.447282	-0.504491
O13	O	1.660864	-0.577903	-0.846471
O14	O	1.466240	-0.577966	-0.651893
O15	O	1.808337	-0.447172	-0.846496
O16	O	1.808115	-0.750592	-0.504467
O17	O	1.660738	-0.750528	-0.651880
C18	C	1.422697	-0.512623	-0.578190
C19	C	1.289297	-0.512641	-0.578212
C20	C	1.734443	-0.789180	-0.578194
C21	C	1.734519	-0.907485	-0.578229
C22	C	1.654353	-0.976742	-0.658351
C23	C	1.625107	-1.047617	-0.548838
C24	C	1.763875	-1.047410	-0.687761
C25	C	1.705215	-0.976801	-0.468658
C26	C	1.844034	-0.976588	-0.607656
C27	C	1.814829	-1.047430	-0.498067
C28	C	2.047564	-0.512656	-0.578222
C29	C	2.180964	-0.512663	-0.578229
C30	C	1.734614	-0.512520	-0.891249
C31	C	1.734653	-0.512470	-1.024649
C32	C	1.734634	-0.235018	-0.578244
C33	C	1.734681	-0.116712	-0.578260
C34	C	1.734499	-0.512680	-0.266381
C35	C	1.734692	-0.512430	-0.132982
H36	H	1.532568	-1.078839	-0.523974
C37	C	1.906508	-1.089109	-0.406453
C38	C	2.011654	-1.158907	-0.448320
C39	C	2.103326	-1.200589	-0.356704
C40	C	2.089852	-1.172472	-0.223220
C41	C	1.984702	-1.102671	-0.181346
C42	C	1.893030	-1.060989	-0.272963
H43	H	2.021632	-1.179724	-0.547139
H44	H	2.181165	-1.252260	-0.387703
H45	H	2.157713	-1.203327	-0.155400
H46	H	1.974723	-1.081854	-0.082528
H47	H	1.815190	-1.009317	-0.241964
H48	H	1.936553	-0.945368	-0.632572
C49	C	1.797341	-1.089312	-0.812877
C50	C	1.804621	-1.209733	-0.835541
C51	C	1.838076	-1.251630	-0.960658
C52	C	1.864251	-1.173107	-1.063111
C53	C	1.856970	-1.052678	-1.040450
C54	C	1.823515	-1.010780	-0.915332
H55	H	1.785245	-1.267867	-0.759697
H56	H	1.843466	-1.340780	-0.977433
H57	H	1.889016	-1.204122	-1.155730
H58	H	1.876347	-0.994543	-1.116294
H59	H	1.818126	-0.921631	-0.898558
C60	C	1.562613	-0.934797	-0.749750
C61	C	1.429114	-0.962888	-0.736062
C62	C	1.337372	-0.920939	-0.827453
C63	C	1.379128	-0.850899	-0.932532
C64	C	1.512633	-0.822805	-0.946224
C65	C	1.604375	-0.864753	-0.854833
H66	H	1.398198	-1.014738	-0.658273
H67	H	1.238543	-0.941737	-0.817317
H68	H	1.311215	-0.819847	-1.000185
H69	H	1.543550	-0.770954	-1.024014
H70	H	1.703205	-0.843955	-0.864970
H71	H	1.680344	-0.945914	-0.376015
