data_functionalizedCrystal
_audit_creation_method	'MofGen! by Chris Wilmer'
_symmetry_space_group_name_H-M	'P1'
_symmetry_Int_Tables_number	1
_symmetry_cell_setting	triclinic
loop_
_symmetry_equiv_pos_as_xyz
  x,y,z
_cell_length_a	21.295418
_cell_length_b	21.295417
_cell_length_c	12.645323
_cell_angle_alpha	89.966008
_cell_angle_beta	89.958322
_cell_angle_gamma	90.046319
loop_
_atom_site_label
_atom_site_type_symbol
_atom_site_fract_x
_atom_site_fract_y
_atom_site_fract_z
Zn1	Zn	0.962343	-0.250338	-0.599917
Zn2	Zn	0.962249	-0.355613	-0.422629
Zn3	Zn	0.857070	-0.250391	-0.422602
Zn4	Zn	0.857036	-0.355603	-0.599785
O5	O	0.909674	-0.302986	-0.511233
O6	O	1.050420	-0.264286	-0.576465
O7	O	0.948272	-0.341681	-0.274278
O8	O	0.871088	-0.162294	-0.446168
O9	O	1.050351	-0.341631	-0.446212
O10	O	0.948432	-0.162256	-0.576440
O11	O	0.870997	-0.264375	-0.274258
O12	O	0.768976	-0.264365	-0.446040
O13	O	0.871030	-0.341613	-0.748150
O14	O	0.768951	-0.341664	-0.576215
O15	O	0.948399	-0.264276	-0.748247
O16	O	0.948239	-0.443701	-0.446085
O17	O	0.870939	-0.443694	-0.576241
C18	C	0.746123	-0.303019	-0.511111
C19	C	0.676155	-0.303049	-0.511084
C20	C	0.643291	-0.343352	-0.578765
C21	C	0.577549	-0.343336	-0.578813
C22	C	0.544672	-0.303024	-0.511160
C23	C	0.577543	-0.262714	-0.443475
C24	C	0.643285	-0.262726	-0.443437
N25	N	0.441398	-0.298109	-0.418440
N26	N	0.378947	-0.298101	-0.418480
C27	C	0.346598	-0.302984	-0.511273
N28	N	0.379059	-0.307888	-0.604027
N29	N	0.441516	-0.307899	-0.603987
C30	C	0.473387	-0.303006	-0.511195
C31	C	0.242449	-0.343272	-0.579011
C32	C	0.176705	-0.343252	-0.579061
C33	C	0.176701	-0.262633	-0.443713
C34	C	0.242443	-0.262650	-0.443673
C35	C	0.275313	-0.302973	-0.511321
C36	C	0.909592	-0.466538	-0.511175
C37	C	0.909614	-0.536506	-0.511185
C38	C	0.949900	-0.569356	-0.443482
C39	C	0.949930	-0.635098	-0.443506
C40	C	0.909662	-0.667988	-0.511221
C41	C	0.869373	-0.635131	-0.578937
C42	C	0.869349	-0.569390	-0.578919
N43	N	0.854595	-0.771269	-0.519262
N44	N	0.854619	-0.833721	-0.519273
C45	C	0.909733	-0.866063	-0.511282
N46	N	0.964822	-0.833595	-0.503259
N47	N	0.964796	-0.771138	-0.503242
C48	C	0.909684	-0.739274	-0.511249
C49	C	0.950054	-0.970198	-0.443602
C50	C	0.950084	-1.035942	-0.443633
C51	C	0.869522	-1.035973	-0.579059
C52	C	0.869497	-0.970231	-0.579033
C53	C	0.909762	-0.937347	-0.511299
C54	C	1.073865	-0.302953	-0.511356
C55	C	1.143833	-0.302939	-0.511409
C56	C	0.909721	-0.302938	-0.787739
C57	C	0.909741	-0.302917	-0.905569
C58	C	0.909774	-0.138796	-0.511315
C59	C	0.909817	-0.068828	-0.511350
C60	C	0.860918	-0.351341	-1.073072
C61	C	0.861045	-0.351580	-0.950512
C62	C	0.976064	-0.320902	-0.950121
C63	C	0.975797	-0.321205	-1.072719
C64	C	0.892867	-0.236237	-1.072775
C65	C	0.891387	-0.236637	-0.950168
C66	C	0.909665	-0.302989	-0.235804
C67	C	0.909767	-0.302833	-0.117974
H68	H	0.269201	-0.229834	-0.388554
H69	H	0.149933	-0.229808	-0.388634
H70	H	0.670050	-0.376185	-0.633851
C71	C	0.584150	-0.423030	-0.712588
C72	C	0.541415	-0.387638	-0.653217
H73	H	0.561842	-0.450380	-0.758518
H74	H	0.609844	-0.395640	-0.753207
H75	H	0.609738	-0.447080	-0.666300
H76	H	0.515830	-0.363584	-0.699504
H77	H	0.515710	-0.415031	-0.612594
C78	C	0.965998	-0.156201	-0.994400
C79	C	0.935907	-0.185263	-0.908881
H80	H	0.993482	-0.124483	-0.968910
H81	H	0.989440	-0.186557	-1.032696
H82	H	0.935477	-0.137844	-1.039584
H83	H	0.966428	-0.203624	-0.863701
H84	H	0.912463	-0.154901	-0.870568
C85	C	1.034856	-1.109698	-0.429230
C86	C	0.994434	-1.072018	-0.369267
H87	H	1.062256	-1.131957	-0.383335
H88	H	1.010883	-1.138718	-0.469506
H89	H	1.058849	-1.083970	-0.475505
H90	H	0.970437	-1.097747	-0.322998
H91	H	1.018409	-1.042995	-0.328974
H92	H	0.811590	-0.340197	-1.102521
H93	H	0.928446	-0.200097	-1.101818
H94	H	0.836739	-1.062752	-0.634199
H95	H	0.836690	-0.943483	-0.634159
H96	H	0.845346	-0.219840	-1.103657
H97	H	0.871964	-0.400403	-1.103884
H98	H	0.811864	-0.340328	-0.920386
C99	C	0.885127	-0.458078	-0.997638
C100	C	0.876154	-0.418216	-0.910919
H101	H	0.894466	-0.499215	-0.973193
H102	H	0.847984	-0.459104	-1.039141
H103	H	0.919026	-0.442952	-1.039383
H104	H	0.842252	-0.433339	-0.869179
H105	H	0.913302	-0.417192	-0.869399
H106	H	0.990123	-0.369887	-1.101325
H107	H	0.149949	-0.376071	-0.634181
H108	H	0.982842	-0.943423	-0.388451
H109	H	1.013426	-0.287407	-1.102428
H110	H	1.013436	-0.286688	-0.921016
H111	H	0.836588	-0.661914	-0.634074
H112	H	0.982737	-0.661849	-0.388374
C113	C	1.005118	-0.426616	-0.994210
C114	C	0.995740	-0.385934	-0.908701
H115	H	1.017266	-0.466763	-0.968639
H116	H	0.967240	-0.430364	-1.033323
H117	H	1.037216	-0.410312	-1.038649
H118	H	0.963638	-0.402236	-0.864265
H119	H	1.033622	-0.382187	-0.869570
H120	H	0.982688	-0.542584	-0.388331
H121	H	0.836543	-0.542643	-0.634052
H122	H	0.670042	-0.229904	-0.388322
C123	C	0.809533	-0.159165	-0.951018
C124	C	0.825498	-0.218321	-0.910858
H125	H	0.768854	-0.147862	-0.926750
H126	H	0.839221	-0.128960	-0.927442
H127	H	0.809687	-0.160557	-1.026102
H128	H	0.825348	-0.216927	-0.835773
H129	H	0.795802	-0.248533	-0.934428
C130	C	0.503539	-0.253856	-0.300932
C131	C	0.541411	-0.218405	-0.369099
H132	H	0.481238	-0.226499	-0.255011
H133	H	0.474557	-0.277849	-0.341248
H134	H	0.529142	-0.281256	-0.260292
H135	H	0.515807	-0.191009	-0.409745
H136	H	0.570397	-0.194401	-0.328779
C137	C	0.235852	-0.422951	-0.712813
C138	C	0.278585	-0.387585	-0.653382
H139	H	0.258161	-0.450303	-0.758731
H140	H	0.210158	-0.446992	-0.666570
H141	H	0.210263	-0.395540	-0.753457
H142	H	0.304171	-0.414996	-0.612732
H143	H	0.304289	-0.363542	-0.699631
