data_functionalizedCrystal
_audit_creation_method	'MofGen! by Chris Wilmer'
_symmetry_space_group_name_H-M	'P1'
_symmetry_Int_Tables_number	1
_symmetry_cell_setting	triclinic
loop_
_symmetry_equiv_pos_as_xyz
  x,y,z
_cell_length_a	16.956995
_cell_length_b	13.339070
_cell_length_c	16.053789
_cell_angle_alpha	92.059919
_cell_angle_beta	93.052461
_cell_angle_gamma	95.841883
loop_
_atom_site_label
_atom_site_type_symbol
_atom_site_fract_x
_atom_site_fract_y
_atom_site_fract_z
O1	O	1.070918	0.044657	0.069487
O2	O	0.846475	0.079525	0.069476
O3	O	0.932938	-0.083019	0.069477
O4	O	0.984456	0.207201	0.069485
O5	O	0.925385	-0.090000	-0.069382
O6	O	0.838922	0.072544	-0.069384
O7	O	1.063366	0.037676	-0.069373
Zn8	Zn	0.949945	0.054002	-0.091426
Zn9	Zn	0.959896	0.063199	0.091528
O10	O	0.976903	0.200220	-0.069375
C11	C	0.813386	0.077820	0.000044
C12	C	0.726039	0.083128	0.000040
C13	C	0.235526	0.122838	0.000072
C14	C	0.317596	0.117843	0.000071
C15	C	0.347940	0.024082	0.000062
C16	C	0.296209	-0.064689	0.000063
C17	C	0.214141	-0.059692	0.000070
C18	C	0.592241	-0.000647	0.000047
C19	C	0.674315	-0.005637	0.000038
C20	C	0.695697	0.176896	0.000048
C21	C	0.613626	0.181884	0.000049
C22	C	0.561902	0.093113	0.000054
N23	N	0.431828	0.018974	0.000059
N24	N	0.478016	0.098223	0.000064
C25	C	0.920459	-0.123471	0.000048
C26	C	0.894520	-0.233604	0.000050
C27	C	1.096212	-0.615261	0.000060
C28	C	1.120586	-0.511786	0.000053
C29	C	1.064071	-0.442236	0.000053
C30	C	0.983179	-0.476169	0.000058
C31	C	0.958803	-0.579654	0.000059
C32	C	0.926662	-0.406629	0.000051
C33	C	0.845770	-0.440563	0.000057
C34	C	0.821398	-0.544038	0.000058
C35	C	0.877912	-0.613588	0.000058
C36	C	0.951038	-0.303144	0.000051
C37	C	0.813629	-0.267538	0.000050
C38	C	0.789255	-0.371012	0.000057
C39	C	1.096455	0.039381	0.000060
C40	C	1.183802	0.034074	0.000070
C41	C	0.989382	0.240672	0.000056
C42	C	1.015322	0.350805	0.000060
N43	N	0.943159	0.047723	-0.216287
C44	C	1.001603	0.101836	-0.259973
C45	C	0.996865	0.097436	-0.347381
C46	C	0.933680	0.038930	-0.391100
C47	C	0.875233	-0.015189	-0.347407
C48	C	0.879974	-0.010795	-0.260002
C49	C	0.912981	0.019745	-0.652512
C50	C	0.908243	0.015357	-0.739924
C51	C	1.029876	0.127981	-0.739891
C52	C	1.034609	0.132375	-0.652484
C53	C	0.976165	0.078252	-0.608799
N54	N	0.928834	0.034434	-0.480444
N55	N	0.981014	0.082743	-0.519456
N56	N	0.966686	0.069469	0.216389
H57	H	0.699017	-0.081992	0.000035
H58	H	0.823789	-0.062831	-0.383011
O59	O	0.584203	0.272998	0.000210
C60	C	0.614699	0.330917	0.072118
H61	H	0.633739	0.278666	0.122379
H62	H	0.668120	0.384103	0.055858
C63	C	0.526743	0.457097	0.043004
C64	C	0.550122	0.392921	0.104738
H65	H	0.486911	0.495347	0.063124
H66	H	0.506199	0.418078	-0.005444
H67	H	0.571266	0.501409	0.029460
H68	H	0.505601	0.348602	0.118273
H69	H	0.570657	0.431934	0.153189
H70	H	0.832383	-0.054858	-0.224433
H71	H	1.083921	-0.357983	0.000047
H72	H	0.767610	-0.210909	0.000045
O73	O	1.063053	0.158685	-0.217637
C74	C	1.113610	0.205520	-0.274944
H75	H	1.105703	0.160889	-0.337250
H76	H	1.098094	0.285691	-0.284244
C77	C	1.210186	0.263489	-0.164289
C78	C	1.200480	0.208667	-0.240812
H79	H	1.263771	0.265435	-0.143234
H80	H	1.176124	0.231939	-0.125679
H81	H	1.197252	0.330292	-0.172049
H82	H	1.213404	0.141862	-0.233049
H83	H	1.234546	0.240207	-0.279420
H84	H	0.858071	-0.697847	0.000067
O85	O	1.053695	0.149844	-0.389851
C86	C	1.090977	0.082315	-0.440412
H87	H	1.083328	0.003905	-0.414074
H88	H	1.062825	0.079312	-0.506664
C89	C	1.189459	0.214832	-0.474072
C90	C	1.180070	0.118528	-0.441720
H91	H	1.244415	0.237171	-0.474882
H92	H	1.164339	0.260329	-0.440011
H93	H	1.165993	0.212317	-0.529279
H94	H	1.203527	0.121047	-0.386511
H95	H	1.205196	0.073033	-0.475772
H96	H	1.086063	0.180014	-0.616894
O97	O	1.086601	0.180448	-0.782457
C98	C	1.068861	0.164048	-0.868978
H99	H	1.029248	0.090067	-0.880927
H100	H	1.036690	0.228797	-0.893789
C101	C	1.195103	0.249467	-0.899157
C102	C	1.146455	0.158599	-0.913833
H103	H	1.242967	0.246111	-0.926827
H104	H	1.207054	0.260521	-0.840866
H105	H	1.168285	0.303415	-0.919833
H106	H	1.173270	0.104655	-0.893148
H107	H	1.134511	0.147536	-0.972122
O108	O	0.856179	-0.032654	-0.610004
C109	C	0.818880	0.034901	-0.559485
H110	H	0.860278	0.107222	-0.546364
H111	H	0.761578	0.053320	-0.593205
C112	C	0.748775	-0.102705	-0.492590
C113	C	0.799623	-0.013883	-0.476468
H114	H	0.736892	-0.132797	-0.441382
H115	H	0.773901	-0.148218	-0.526627
H116	H	0.701029	-0.087343	-0.520692
H117	H	0.847372	-0.029247	-0.448376
H118	H	0.774504	0.031628	-0.442424
O119	O	0.542112	-0.086975	0.000004
C120	C	0.586497	-0.170796	0.000010
H121	H	0.646700	-0.148914	-0.026280
H122	H	0.595569	-0.196051	0.066624
C123	C	0.467460	-0.284680	-0.022165
C124	C	0.541400	-0.257806	-0.054462
H125	H	0.439642	-0.338354	-0.055762
H126	H	0.437557	-0.228209	-0.022166
H127	H	0.475031	-0.305720	0.033346
H128	H	0.533829	-0.236756	-0.109967
H129	H	0.571302	-0.314276	-0.054472
H130	H	1.142217	-0.671897	0.000053
O131	O	0.367728	0.204164	0.000032
C132	C	0.323348	0.287991	0.000056
H133	H	0.260280	0.263473	-0.026231
H134	H	0.321537	0.319934	0.066674
C135	C	0.439973	0.399641	-0.022116
C136	C	0.362513	0.369529	-0.054408
H137	H	0.464133	0.449941	-0.055708
H138	H	0.469873	0.343167	-0.022129
H139	H	0.438453	0.426254	0.033399
H140	H	0.364035	0.342906	-0.109918
H141	H	0.332614	0.426002	-0.054406
H142	H	0.737818	0.249168	0.000045
H143	H	0.210827	0.199188	0.000073
O144	O	0.846827	-0.041568	-0.782263
C145	C	0.796251	-0.088375	-0.724961
H146	H	0.830763	-0.093727	-0.662649
H147	H	0.744342	-0.041902	-0.715673
C148	C	0.722114	-0.188479	-0.835619
C149	C	0.764505	-0.195060	-0.759088
H150	H	0.702529	-0.254285	-0.856671
H151	H	0.756187	-0.156942	-0.874225
H152	H	0.678863	-0.149747	-0.827869
H153	H	0.807761	-0.233780	-0.766841
H154	H	0.730439	-0.226606	-0.720483
O155	O	1.199191	-0.478994	0.000085
C156	C	1.243845	-0.562567	0.000064
H157	H	1.207762	-0.629787	0.026358
H158	H	1.258746	-0.582402	-0.066555
C159	C	1.365553	-0.453701	0.022219
C160	C	1.321238	-0.536259	0.054521
H161	H	1.413294	-0.437473	0.055807
H162	H	1.335469	-0.397395	0.022230
H163	H	1.377962	-0.470241	-0.033296
H164	H	1.308820	-0.519714	0.110030
H165	H	1.351321	-0.592561	0.054520
H166	H	0.172027	-0.131974	0.000070
H167	H	0.320922	-0.141031	0.000061
H168	H	1.016901	-0.275527	0.000047
H169	H	0.723391	-0.398656	0.000061
H170	H	0.755530	-0.571662	0.000056
