data_functionalizedCrystal
_audit_creation_method	'MofGen! by Chris Wilmer'
_symmetry_space_group_name_H-M	'P1'
_symmetry_Int_Tables_number	1
_symmetry_cell_setting	triclinic
loop_
_symmetry_equiv_pos_as_xyz
  x,y,z
_cell_length_a	12.837943
_cell_length_b	15.944551
_cell_length_c	11.892095
_cell_angle_alpha	93.888509
_cell_angle_beta	85.689438
_cell_angle_gamma	89.163839
loop_
_atom_site_label
_atom_site_type_symbol
_atom_site_fract_x
_atom_site_fract_y
_atom_site_fract_z
O1	O	1.382096	0.213524	-0.093988
O2	O	1.080290	0.202737	-0.093995
O3	O	1.239434	0.086515	-0.093981
O4	O	1.222952	0.329745	-0.094002
O5	O	1.226164	0.096189	0.094025
O6	O	1.067021	0.212411	0.094012
O7	O	1.368826	0.223198	0.094018
Zn8	Zn	1.215817	0.219340	0.123865
Zn9	Zn	1.233299	0.206594	-0.123842
O10	O	1.209683	0.339419	0.094005
C11	C	1.035034	0.203930	0.000008
C12	C	0.919957	0.193062	0.000006
C13	C	0.679007	0.323714	0.000011
C14	C	0.570881	0.313507	0.000010
C15	C	0.595575	0.162440	0.000010
C16	C	0.703701	0.172648	0.000012
C17	C	0.745413	0.253287	0.000010
C18	C	0.853542	0.263494	0.000003
C19	C	0.878234	0.112428	0.000012
C20	C	0.770107	0.102221	0.000011
C21	C	1.232115	0.060004	0.000022
C22	C	1.230063	-0.033407	0.000023
C23	C	1.126515	-0.256548	0.000005
C24	C	1.168058	-0.308949	0.092705
C25	C	1.226352	-0.204430	0.000014
C26	C	1.181163	-0.318468	-0.092655
C27	C	1.222761	-0.369631	0.000001
C28	C	1.267917	-0.255596	0.092790
C29	C	1.281014	-0.265115	-0.092653
C30	C	1.322628	-0.317491	0.000069
C31	C	1.228418	-0.109262	0.000023
C32	C	1.220702	-0.464796	0.000000
C33	C	1.414082	0.222005	0.000013
C34	C	1.529160	0.232872	0.000008
C35	C	1.217002	0.365931	-0.000001
C36	C	1.219054	0.459340	-0.000009
N37	N	1.203893	0.228039	0.292918
N38	N	1.245231	0.197890	-0.292895
C39	C	1.328203	0.137313	0.529576
C40	C	1.319876	0.143400	0.647918
C41	C	1.178907	0.246295	0.647944
C42	C	1.187234	0.240208	0.529603
C43	C	1.261886	0.185716	0.470423
C44	C	1.270217	0.179634	0.352080
C45	C	1.129244	0.282524	0.352108
C46	C	1.120917	0.288611	0.470449
H47	H	0.932315	0.055081	0.000004
H48	H	1.331005	0.135266	0.303897
O49	O	1.311577	-0.222772	0.186357
C50	C	1.362546	-0.097361	0.291297
C51	C	1.313065	-0.134423	0.185300
H52	H	1.363786	-0.025928	0.290466
H53	H	1.314704	-0.115692	0.370236
H54	H	1.445858	-0.123040	0.291621
H55	H	1.229759	-0.108764	0.184867
H56	H	1.360985	-0.116099	0.106410
H57	H	1.043639	-0.229864	0.000096
O58	O	1.337810	-0.241772	-0.186177
C59	C	1.338590	-0.167069	-0.355710
C60	C	1.274167	-0.193432	-0.249815
H61	H	1.287156	-0.127996	-0.407204
H62	H	1.407493	-0.128135	-0.329068
H63	H	1.368804	-0.225619	-0.409296
H64	H	1.243881	-0.134929	-0.196183
H65	H	1.205318	-0.232396	-0.276536
H66	H	1.075247	0.321940	0.303932
H67	H	1.388994	0.092949	0.481392
H68	H	0.887502	0.329155	0.000004
O69	O	0.719358	0.402104	0.000052
C70	C	0.683464	0.550860	-0.000039
C71	C	0.637629	0.462133	-0.000057
H72	H	0.617410	0.599416	-0.000150
H73	H	0.727878	0.563521	0.078660
H74	H	0.739056	0.555321	-0.078701
H75	H	0.581994	0.457608	0.078553
H76	H	0.593278	0.449510	-0.078807
O77	O	1.384408	0.096348	0.705205
C78	C	1.525060	-0.006397	0.692685
C79	C	1.452060	0.046861	0.627668
H80	H	1.579759	-0.046433	0.630025
H81	H	1.573025	0.036842	0.748047
H82	H	1.476377	-0.049070	0.748131
H83	H	1.500661	0.089541	0.572161
H84	H	1.404090	0.003574	0.572378
H85	H	1.144455	-0.345956	-0.171031
H86	H	1.060134	0.332975	0.518647
O87	O	0.506279	0.381848	-0.000146
C88	C	0.376794	0.453014	-0.097589
C89	C	0.449887	0.375562	-0.097540
H90	H	0.331198	0.447966	-0.176335
H91	H	0.319933	0.456061	-0.018964
H92	H	0.425204	0.512389	-0.097535
H93	H	0.401563	0.316144	-0.097634
H94	H	0.506752	0.372589	-0.176159
O95	O	1.106250	0.299116	0.705397
C96	C	0.923459	0.335700	0.741610
C97	C	1.005636	0.275813	0.676491
H98	H	0.842097	0.316893	0.718245
H99	H	0.928812	0.331717	0.836363
H100	H	0.938647	0.402872	0.718370
H101	H	0.990502	0.208615	0.699636
H102	H	1.000264	0.279870	0.581753
O103	O	1.421573	-0.349090	0.000329
C104	C	1.579058	-0.352579	0.098262
C105	C	1.467016	-0.316745	0.098115
H106	H	1.615839	-0.326429	0.177302
H107	H	1.576889	-0.424064	0.097586
H108	H	1.627420	-0.333727	0.019949
H109	H	1.418589	-0.335533	0.176415
H110	H	1.469264	-0.245266	0.098733
H111	H	1.120299	-0.328402	0.171073
H112	H	0.736129	0.036567	0.000025
O113	O	0.554875	0.084171	-0.000026
C114	C	0.399229	0.001510	0.000075
C115	C	0.445184	0.090196	0.000085
H116	H	0.310536	0.006353	0.000188
H117	H	0.432043	-0.037804	-0.078620
H118	H	0.421093	-0.029674	0.078740
H119	H	0.423337	0.121453	-0.078527
H120	H	0.412372	0.129449	0.078832
