data_functionalizedCrystal
_audit_creation_method	'MofGen! by Chris Wilmer'
_symmetry_space_group_name_H-M	'P1'
_symmetry_Int_Tables_number	1
_symmetry_cell_setting	triclinic
loop_
_symmetry_equiv_pos_as_xyz
  x,y,z
_cell_length_a	17.077404
_cell_length_b	10.686203
_cell_length_c	17.077396
_cell_angle_alpha	85.611112
_cell_angle_beta	90.019501
_cell_angle_gamma	94.365430
loop_
_atom_site_label
_atom_site_type_symbol
_atom_site_fract_x
_atom_site_fract_y
_atom_site_fract_z
Zn1	Zn	1.224099	0.502339	0.419951
Zn2	Zn	1.234107	0.713359	0.278649
Zn3	Zn	1.092833	0.502383	0.288697
Zn4	Zn	1.102896	0.713284	0.409876
O5	O	1.163484	0.607841	0.349293
O6	O	1.335274	0.530344	0.401218
O7	O	1.215343	0.685422	0.170133
O8	O	1.101846	0.325802	0.314530
O9	O	1.342627	0.685379	0.297404
O10	O	1.198287	0.325769	0.410962
O11	O	1.111550	0.530419	0.177515
O12	O	0.984320	0.530347	0.304760
O13	O	1.118997	0.685252	0.521062
O14	O	0.991714	0.685295	0.393790
O15	O	1.208044	0.530271	0.528464
O16	O	1.225101	0.889924	0.287635
O17	O	1.128701	0.889869	0.384047
C18	C	0.959535	0.607818	0.349273
C19	C	0.872286	0.607839	0.349281
C20	C	0.835172	0.688642	0.395553
C21	C	0.753192	0.688645	0.395565
C22	C	0.708327	0.607850	0.349301
C23	C	0.745447	0.527038	0.303028
C24	C	0.827425	0.527030	0.303020
C25	C	0.574578	0.527063	0.303046
C26	C	0.492594	0.527072	0.303052
C27	C	0.500344	0.688678	0.395590
C28	C	0.582323	0.688670	0.395583
C29	C	0.619437	0.607859	0.349308
C30	C	1.179100	0.935681	0.333674
C31	C	1.185853	1.075932	0.327019
C32	C	1.368229	0.607865	0.349314
C33	C	1.455479	0.607875	0.349323
C34	C	1.163527	0.607748	0.554042
C35	C	1.163545	0.607709	0.641294
C36	C	1.147820	1.278722	0.364999
C37	C	1.141126	1.138470	0.371713
C38	C	1.163482	0.607843	0.145345
C39	C	1.163598	0.607527	0.058111
C40	C	1.209914	0.527004	0.686140
C41	C	1.209921	0.526962	0.768122
C42	C	1.163564	0.607632	0.805257
C43	C	1.117190	0.688341	0.760405
C44	C	1.117179	0.688375	0.678424
C45	C	1.117218	0.688265	0.931279
C46	C	1.117230	0.688232	1.013265
C47	C	1.209960	0.526851	1.020977
C48	C	1.209949	0.526886	0.938996
C49	C	1.163576	0.607596	0.894150
H50	H	0.722977	0.754444	0.433243
H51	H	1.247702	0.461204	0.908763
H52	H	1.097668	1.084717	0.415070
C53	C	0.631672	0.777555	0.446471
N54	N	0.668843	0.844503	0.484802
C55	C	1.260971	0.438068	1.070309
N56	N	1.299393	0.371202	1.107470
C57	C	0.459517	0.777565	0.446497
N58	N	0.428763	0.844513	0.484837
H59	H	1.229308	1.129693	0.283654
H60	H	0.871695	0.754439	0.433223
C61	C	0.615401	0.438169	0.252139
N62	N	0.646150	0.371222	0.213792
H63	H	1.247666	0.461316	0.655911
C64	C	1.260932	0.438182	0.817450
N65	N	1.299355	0.371309	0.854602
H66	H	1.079443	0.753968	0.894768
H67	H	0.708911	0.461248	0.265363
H68	H	1.079480	0.753918	1.043498
C69	C	1.066188	0.777067	0.801257
N70	N	1.027772	0.843897	0.832025
H71	H	0.456066	0.461267	0.265390
C72	C	0.868250	0.438143	0.252116
N73	N	0.898998	0.371188	0.213775
C74	C	1.066171	0.777159	0.629094
N75	N	1.027749	0.844032	0.591939
