data_functionalizedCrystal
_audit_creation_method	'MofGen! by Chris Wilmer'
_symmetry_space_group_name_H-M	'P1'
_symmetry_Int_Tables_number	1
_symmetry_cell_setting	triclinic
loop_
_symmetry_equiv_pos_as_xyz
  x,y,z
_cell_length_a	17.699077
_cell_length_b	14.044190
_cell_length_c	16.176319
_cell_angle_alpha	89.988653
_cell_angle_beta	89.993140
_cell_angle_gamma	88.236177
loop_
_atom_site_label
_atom_site_type_symbol
_atom_site_fract_x
_atom_site_fract_y
_atom_site_fract_z
O1	O	1.012350	0.119823	-0.068745
O2	O	1.512350	0.619823	0.431255
O3	O	0.793047	0.135422	-0.068750
O4	O	1.293047	0.635422	0.431250
O5	O	0.899404	-0.010354	-0.068731
O6	O	1.399404	0.489646	0.431269
O7	O	0.905993	0.265600	-0.068764
O8	O	1.405993	0.765600	0.431236
O9	O	0.899387	-0.010364	0.068762
O10	O	1.399387	0.489636	0.568762
O11	O	0.793030	0.135413	0.068743
O12	O	1.293030	0.635413	0.568743
O13	O	1.012333	0.119814	0.068748
O14	O	1.512333	0.619814	0.568748
Cu15	Cu	0.902680	0.127613	0.081300
Cu16	Cu	1.402680	0.627613	0.581300
Cu17	Cu	0.902700	0.127624	-0.081302
Cu18	Cu	1.402700	0.627624	0.418698
O19	O	0.905976	0.265591	0.068730
O20	O	1.405976	0.765591	0.568730
C21	C	0.764803	0.134859	-0.000004
C22	C	1.264803	0.634859	0.499996
C23	C	0.680669	0.133185	-0.000005
C24	C	1.180669	0.633185	0.499995
C25	C	0.641138	0.132392	0.074943
C26	C	1.141138	0.632392	0.574943
C27	C	0.562086	0.130804	0.074944
C28	C	1.062086	0.630804	0.574944
C29	C	0.522566	0.130016	-0.000004
C30	C	1.022566	0.630016	0.499996
C31	C	0.562103	0.130807	-0.074958
C32	C	1.062103	0.630807	0.425042
C33	C	0.641154	0.132389	-0.074958
C34	C	1.141154	0.632389	0.425042
C35	C	0.243299	0.124430	-0.074959
C36	C	0.743299	0.624430	0.425041
C37	C	0.164243	0.122851	-0.074953
C38	C	0.664243	0.622851	0.425047
C39	C	0.164232	0.122845	0.074944
C40	C	0.664232	0.622845	0.574944
C41	C	0.243283	0.124426	0.074944
C42	C	0.743283	0.624426	0.574944
C43	C	0.282813	0.125212	-0.000010
C44	C	0.782813	0.625212	0.499990
C45	C	0.368530	0.126932	-0.000010
C46	C	0.868530	0.626932	0.499990
C47	C	0.436850	0.128303	-0.000005
C48	C	0.936850	0.628303	0.499995
C49	C	0.896513	-0.045667	0.000018
C50	C	1.396513	0.454333	0.500018
C51	C	0.887915	-0.150873	0.000025
C52	C	1.387915	0.349127	0.500025
C53	C	0.933175	-0.401265	-0.000007
C54	C	1.433175	0.098735	0.499993
C55	C	0.872208	-0.343494	-0.000002
C56	C	1.372208	0.156506	0.499998
C57	C	0.880950	-0.236310	0.000013
C58	C	1.380950	0.263690	0.500013
C59	C	0.924435	-0.508459	-0.000022
C60	C	1.424435	-0.008459	0.499978
C61	C	1.040577	0.120377	0.000000
C62	C	1.540577	0.620377	0.500000
C63	C	1.124711	0.122051	-0.000004
C64	C	1.624711	0.622051	0.499996
C65	C	0.908867	0.300903	-0.000021
C66	C	1.408867	0.800903	0.499979
C67	C	0.917465	0.406109	-0.000034
C68	C	1.417465	0.906109	0.499966
N69	N	0.902672	0.127604	0.195665
N70	N	1.402672	0.627604	0.695665
N71	N	0.902714	0.127624	-0.195667
N72	N	1.402714	0.627624	0.304333
C73	C	0.949784	0.063081	0.238938
C74	C	1.449784	0.563081	0.738938
C75	C	0.949788	0.063080	0.325485
C76	C	1.449788	0.563080	0.825485
C77	C	0.902683	0.127608	0.368758
C78	C	1.402683	0.627608	0.868758
C79	C	0.855565	0.192134	0.325479
C80	C	1.355565	0.692134	0.825479
C81	C	0.855558	0.192130	0.238934
C82	C	1.355558	0.692130	0.738934
C83	C	0.855593	0.192152	0.674507
C84	C	1.355593	0.692152	1.174507
C85	C	0.855605	0.192153	0.761059
C86	C	1.355605	0.692153	1.261059
C87	C	0.949822	0.063102	0.761059
C88	C	1.449822	0.563102	1.261059
C89	C	0.949815	0.063098	0.674513
C90	C	1.449815	0.563098	1.174513
C91	C	0.902695	0.127620	0.631242
C92	C	1.402695	0.627620	1.131242
C93	C	0.902690	0.127619	0.537398
C94	C	1.402690	0.627619	1.037398
C95	C	0.902691	0.127614	0.462600
C96	C	1.402691	0.627614	0.962600
H97	H	0.132068	0.122209	-0.135989
H98	H	0.632068	0.622209	0.364011
O99	O	0.802066	-0.380403	0.000106
O100	O	1.302066	0.119597	0.500106
C101	C	0.762530	-0.349405	0.071331
C102	C	1.262530	0.150595	0.571331
H103	H	0.787689	-0.280844	0.095077
H104	H	1.287689	0.219156	0.595077
H105	H	0.700423	-0.335664	0.055322
H106	H	1.200423	0.164336	0.555322
H107	H	0.767507	-0.406639	0.121188
H108	H	1.267507	0.093361	0.621188
O109	O	0.995483	0.000216	0.632584
O110	O	1.495483	0.500216	1.132584
C111	C	0.976793	-0.093529	0.653870
C112	C	1.476793	0.406471	1.153870
H113	H	0.916160	-0.093798	0.677634
H114	H	1.416160	0.406202	1.177634
H115	H	0.982288	-0.141204	0.597023
H116	H	1.482288	0.358796	1.097023
H117	H	1.016815	-0.121388	0.704163
H118	H	1.516815	0.378612	1.204163
O119	O	0.281700	0.125356	0.147726
O120	O	0.781700	0.625356	0.647726
C121	C	0.324408	0.208304	0.152196
C122	C	0.824408	0.708304	0.652196
H123	H	0.298468	0.265183	0.109662
H124	H	0.798468	0.765183	0.609662
H125	H	0.324283	0.235853	0.218483
H126	H	0.824283	0.735853	0.718483
H127	H	0.385006	0.190953	0.132057
H128	H	0.885006	0.690953	0.632057
O129	O	0.995419	0.000321	0.196834
O130	O	1.495419	0.500321	0.696834
C131	C	0.950913	-0.058099	0.146837
C132	C	1.450913	0.441901	0.646837
H133	H	0.894262	-0.020223	0.133857
H134	H	1.394262	0.479777	0.633857
H135	H	0.981477	-0.073207	0.085982
H136	H	1.481477	0.426793	0.585982
H137	H	0.941011	-0.128104	0.180242
H138	H	1.441011	0.371896	0.680242
O139	O	1.003218	-0.364087	0.000046
O140	O	1.503218	0.135913	0.500046
C141	C	0.996461	-0.263794	0.000040
C142	C	1.496461	0.236206	0.500040
H143	H	0.938938	-0.240580	0.026063
H144	H	1.438938	0.259420	0.526063
H145	H	1.043018	-0.233458	0.039972
H146	H	1.543018	0.266542	0.539972
H147	H	1.001965	-0.236243	-0.065917
H148	H	1.501965	0.263757	0.434083
O149	O	0.995698	0.000504	0.803054
O150	O	1.495698	0.500504	1.303054
C151	C	1.071646	0.015775	0.781871
C152	C	1.571646	0.515775	1.281871
H153	H	1.077137	0.091657	0.758071
H154	H	1.577137	0.591657	1.258071
H155	H	1.108894	0.004806	0.838779
H156	H	1.608894	0.504806	1.338779
H157	H	1.090322	-0.036787	0.731636
H158	H	1.590322	0.463213	1.231636
H159	H	0.817194	0.244670	0.203702
H160	H	1.317194	0.744670	0.703702
H161	H	0.817244	0.244701	0.796290
H162	H	1.317244	0.744701	1.296290
O163	O	0.995632	0.000376	0.367391
O164	O	1.495632	0.500376	0.867391
C165	C	1.037200	-0.056585	0.310639
C166	C	1.537200	0.443415	0.810639
H167	H	1.040662	-0.017732	0.248936
H168	H	1.540662	0.482268	0.748936
H169	H	1.096664	-0.071120	0.335630
H170	H	1.596664	0.428880	0.835630
H171	H	1.007890	-0.126961	0.301460
H172	H	1.507890	0.373039	0.801460
H173	H	0.817227	0.244690	0.639283
H174	H	1.317227	0.744690	1.139283
H175	H	0.529920	0.130160	-0.135983
H176	H	1.029920	0.630160	0.364017
O177	O	0.679409	0.133111	0.147823
O178	O	1.179409	0.633111	0.647823
C179	C	0.627562	0.132091	0.213974
C180	C	1.127562	0.632091	0.713974
H181	H	0.572324	0.100974	0.192003
H182	H	1.072324	0.600974	0.692003
H183	H	0.652097	0.086548	0.266398
H184	H	1.152097	0.586548	0.766398
H185	H	0.616340	0.207923	0.237013
H186	H	1.116340	0.707923	0.737013
O187	O	0.523664	0.129857	0.147731
O188	O	1.023664	0.629857	0.647731
C189	C	0.480968	0.046898	0.152220
C190	C	0.980968	0.546898	0.652220
H191	H	0.506916	-0.009962	0.109687
H192	H	1.006916	0.490038	0.609687
H193	H	0.481095	0.019329	0.218511
H194	H	0.981095	0.519329	0.718511
H195	H	0.420368	0.064243	0.132093
H196	H	0.920368	0.564243	0.632093
H197	H	0.817208	0.244671	0.360717
H198	H	1.317208	0.744671	0.860717
O199	O	0.125920	0.121945	0.147809
O200	O	0.625920	0.621945	0.647809
C201	C	0.148259	0.040271	0.193408
C202	C	0.648259	0.540271	0.693408
H203	H	0.206669	0.014068	0.172096
H204	H	0.706669	0.514068	0.672096
H205	H	0.150277	0.058777	0.261971
H206	H	0.650277	0.558777	0.761971
H207	H	0.105896	-0.018074	0.183030
H208	H	0.605896	0.481926	0.683030
H209	H	0.275475	0.125067	-0.135991
H210	H	0.775475	0.625067	0.364009
O211	O	0.679438	0.133206	-0.147838
O212	O	1.179438	0.633206	0.352162
C213	C	0.627608	0.132152	-0.213990
C214	C	1.127608	0.632152	0.286010
H215	H	0.570145	0.161015	-0.192021
H216	H	1.070145	0.661015	0.307979
H217	H	0.648752	0.178608	-0.266414
H218	H	1.148752	0.678608	0.233586
H219	H	0.622016	0.055982	-0.237028
H220	H	1.122016	0.555982	0.262972
