data_functionalizedCrystal
_audit_creation_method	'MofGen! by Chris Wilmer'
_symmetry_space_group_name_H-M	'P1'
_symmetry_Int_Tables_number	1
_symmetry_cell_setting	triclinic
loop_
_symmetry_equiv_pos_as_xyz
  x,y,z
_cell_length_a	23.532407
_cell_length_b	23.532407
_cell_length_c	16.098538
_cell_angle_alpha	87.283857
_cell_angle_beta	87.286853
_cell_angle_gamma	97.151323
loop_
_atom_site_label
_atom_site_type_symbol
_atom_site_fract_x
_atom_site_fract_y
_atom_site_fract_z
O1	O	-0.066579	0.757820	-0.069139
O2	O	-0.076582	0.591957	-0.069162
O3	O	0.011351	0.679890	-0.069160
O4	O	-0.154513	0.669886	-0.069141
O5	O	0.006235	0.674754	0.069352
O6	O	-0.081698	0.586821	0.069351
O7	O	-0.071696	0.752683	0.069374
Zn8	Zn	-0.077510	0.668936	0.091354
Zn9	Zn	-0.070768	0.675704	-0.091142
O10	O	-0.159629	0.664750	0.069372
C11	C	-0.078885	0.568173	0.000091
C12	C	-0.078119	0.504956	0.000082
C13	C	-0.125354	0.105852	0.000125
C14	C	-0.124643	0.046451	0.000130
O15	O	-0.168430	0.009705	0.000166
N16	N	-0.072366	0.023825	0.000123
C17	C	-0.020798	0.060603	0.000119
O18	O	0.023733	0.035904	0.000114
C19	C	-0.021510	0.120002	0.000120
C20	C	-0.073790	0.142625	0.000119
C21	C	-0.177630	0.128475	0.000126
C22	C	-0.178341	0.187871	0.000119
C23	C	-0.126776	0.224644	0.000112
C24	C	-0.074501	0.202021	0.000112
C25	C	0.030058	0.156778	0.000122
C26	C	0.029341	0.216181	0.000123
C27	C	-0.022939	0.238804	0.000122
C28	C	-0.023647	0.298191	0.000099
N29	N	-0.075924	0.320817	0.000107
C30	C	-0.127488	0.284043	0.000113
C31	C	-0.019306	-0.064140	0.000118
C32	C	-0.018594	-0.123537	0.000111
C33	C	-0.122439	-0.137685	0.000125
C34	C	-0.123151	-0.078286	0.000126
C35	C	-0.071583	-0.041514	0.000126
C36	C	-0.128977	0.408781	0.000099
C37	C	-0.129684	0.468183	0.000089
C38	C	-0.025839	0.482326	0.000080
C39	C	-0.025132	0.422929	0.000086
C40	C	-0.076706	0.386157	0.000098
O41	O	0.020117	0.334971	0.000067
O42	O	-0.172012	0.308751	0.000129
C43	C	-0.178287	0.667573	0.000118
C44	C	-0.241505	0.668338	0.000126
C45	C	-0.640606	0.621107	0.000077
C46	C	-0.700006	0.621818	0.000072
O47	O	-0.736749	0.578034	0.000035
N48	N	-0.722632	0.674094	0.000080
C49	C	-0.685855	0.725662	0.000085
O50	O	-0.710555	0.770193	0.000091
C51	C	-0.626456	0.724950	0.000085
C52	C	-0.603833	0.672671	0.000085
C53	C	-0.617983	0.568831	0.000077
C54	C	-0.558587	0.568120	0.000084
C55	C	-0.521814	0.619684	0.000092
C56	C	-0.544437	0.671959	0.000093
C57	C	-0.589679	0.776518	0.000084
C58	C	-0.530277	0.775801	0.000084
C59	C	-0.507654	0.723522	0.000084
C60	C	-0.448269	0.722812	0.000108
N61	N	-0.425642	0.670536	0.000100
C62	C	-0.462415	0.618972	0.000092
C63	C	-0.810597	0.727154	0.000084
C64	C	-0.869995	0.727866	0.000090
C65	C	-0.884142	0.624022	0.000075
C66	C	-0.824743	0.623310	0.000075
C67	C	-0.787971	0.674878	0.000076
C68	C	-0.337679	0.617481	0.000108
C69	C	-0.278277	0.616774	0.000118
C70	C	-0.264135	0.720618	0.000129
C71	C	-0.323532	0.721326	0.000123
C72	C	-0.360303	0.669753	0.000109
O73	O	-0.411491	0.766573	0.000141
O74	O	-0.437706	0.574449	0.000075
C75	C	0.030009	0.677068	0.000092
C76	C	0.093227	0.676302	0.000078
C77	C	-0.069393	0.776467	0.000118
C78	C	-0.070159	0.839684	0.000122
N79	N	-0.082110	0.664322	0.215903
N80	N	-0.066163	0.680323	-0.215692
C81	C	-0.044801	0.701658	0.259489
C82	C	-0.048024	0.698435	0.346678
C83	C	-0.088560	0.657878	0.390280
C84	C	-0.125871	0.620539	0.346688
C85	C	-0.122645	0.623759	0.259500
C86	C	-0.100248	0.646204	0.653529
C87	C	-0.103473	0.642987	0.740723
C88	C	-0.025625	0.720883	0.740707
C89	C	-0.022404	0.724102	0.653518
C90	C	-0.059713	0.686760	0.609934
C91	C	-0.091858	0.654584	0.479401
C92	C	-0.056412	0.690052	0.520814
H93	H	0.017439	0.404509	0.000074
F94	F	-0.657111	0.513945	0.000065
H95	H	0.016144	0.512277	0.000071
F96	F	0.037050	-0.147606	0.000093
H97	H	-0.170974	0.378847	0.000111
F98	F	-0.139956	0.606464	0.607151
F99	F	-0.254205	0.561129	0.000121
F100	F	-0.232517	0.089346	0.000133
H101	H	-0.367611	0.575486	0.000096
F102	F	-0.233984	0.211940	0.000122
H103	H	-0.165722	-0.059871	0.000130
H104	H	-0.341952	0.763896	0.000135
F105	F	-0.177319	-0.176832	0.000135
F106	F	0.035583	-0.025007	0.000111
F107	F	-0.169011	0.577372	0.393093
H108	H	-0.124864	0.621564	0.514908
F109	F	-0.923289	0.569143	0.000066
F110	F	0.085702	0.132715	0.000111
F111	F	-0.894066	0.783509	0.000102
H112	H	-0.540173	0.525549	0.000077
F113	F	0.084228	0.255314	0.000126
F114	F	-0.800672	0.567668	0.000074
H115	H	-0.153025	0.593356	0.224014
H116	H	-0.780660	0.769149	0.000091
F117	F	-0.613742	0.832163	0.000069
H118	H	-0.500339	0.817795	0.000080
F119	F	-0.013270	0.733212	0.474409
F120	F	-0.224989	0.775493	0.000144
H121	H	-0.011794	0.734685	0.223994
F122	F	-0.008315	0.738171	0.393065
H123	H	0.010604	0.757126	0.618019
H124	H	-0.172258	0.486599	0.000088
H125	H	0.004751	0.751284	0.776201
H126	H	-0.136484	0.609959	0.776219
