data_functionalizedCrystal
_audit_creation_method	'MofGen! by Chris Wilmer'
_symmetry_space_group_name_H-M	'P1'
_symmetry_Int_Tables_number	1
_symmetry_cell_setting	triclinic
loop_
_symmetry_equiv_pos_as_xyz
  x,y,z
_cell_length_a	16.120530
_cell_length_b	18.101397
_cell_length_c	18.101389
_cell_angle_alpha	89.978953
_cell_angle_beta	87.084523
_cell_angle_gamma	87.115827
loop_
_atom_site_label
_atom_site_type_symbol
_atom_site_fract_x
_atom_site_fract_y
_atom_site_fract_z
Zn1	Zn	1.274561	-0.352405	-0.476057
Zn2	Zn	1.524561	-0.102405	-0.226057
Zn3	Zn	1.774561	0.147595	0.023943
Zn4	Zn	2.024561	0.397595	0.273943
Zn5	Zn	1.274469	-0.476226	-0.352206
Zn6	Zn	1.524469	-0.226226	-0.102206
Zn7	Zn	1.774469	0.023774	0.147794
Zn8	Zn	2.024469	0.273774	0.397794
Zn9	Zn	1.135145	-0.346118	-0.345958
Zn10	Zn	1.385145	-0.096118	-0.095958
Zn11	Zn	1.635145	0.153882	0.154042
Zn12	Zn	1.885145	0.403882	0.404042
Zn13	Zn	1.135116	-0.469918	-0.469737
Zn14	Zn	1.385116	-0.219918	-0.219737
Zn15	Zn	1.635116	0.030082	0.030263
Zn16	Zn	1.885116	0.280082	0.280263
O17	O	1.204823	-0.411167	-0.410989
O18	O	1.454823	-0.161167	-0.160989
O19	O	1.704823	0.088833	0.089011
O20	O	1.954823	0.338833	0.339011
O21	O	1.391215	-0.374101	-0.464887
O22	O	1.641215	-0.124101	-0.214887
O23	O	1.891215	0.125899	0.035113
O24	O	2.141215	0.375899	0.285113
O25	O	1.255962	-0.458976	-0.247743
O26	O	1.505962	-0.208976	0.002257
O27	O	1.755962	0.041024	0.252257
O28	O	2.005962	0.291024	0.502257
O29	O	1.153690	-0.243321	-0.363246
O30	O	1.403690	0.006679	-0.113246
O31	O	1.653690	0.256679	0.136754
O32	O	1.903690	0.506679	0.386754
O33	O	1.391148	-0.465072	-0.373894
O34	O	1.641148	-0.215072	-0.123894
O35	O	1.891148	0.034928	0.126106
O36	O	2.141148	0.284928	0.376106
O37	O	1.256118	-0.247940	-0.458829
O38	O	1.506118	0.002060	-0.208829
O39	O	1.756118	0.252060	0.041171
O40	O	2.006118	0.502060	0.291171
O41	O	1.153601	-0.363386	-0.243153
O42	O	1.403601	-0.113386	0.006847
O43	O	1.653601	0.136614	0.256847
O44	O	1.903601	0.386614	0.506847
O45	O	1.018475	-0.357269	-0.357118
O46	O	1.268475	-0.107269	-0.107118
O47	O	1.518475	0.142731	0.142882
O48	O	1.768475	0.392731	0.392882
O49	O	1.153639	-0.454321	-0.574209
O50	O	1.403639	-0.204321	-0.324209
O51	O	1.653639	0.045679	-0.074209
O52	O	1.903639	0.295679	0.175791
O53	O	1.018454	-0.448225	-0.448057
O54	O	1.268454	-0.198225	-0.198057
O55	O	1.518454	0.051775	0.051943
O56	O	1.768454	0.301775	0.301943
O57	O	1.256089	-0.367984	-0.578853
O58	O	1.506089	-0.117984	-0.328853
O59	O	1.756089	0.132016	-0.078853
O60	O	2.006089	0.382016	0.171147
O61	O	1.255933	-0.579020	-0.367766
O62	O	1.505933	-0.329020	-0.117766
O63	O	1.755933	-0.079020	0.132234
O64	O	2.005933	0.170980	0.382234
O65	O	1.153551	-0.574386	-0.454116
O66	O	1.403551	-0.324386	-0.204116
O67	O	1.653551	-0.074386	0.045884
O68	O	1.903551	0.175614	0.295884
C69	C	0.988214	-0.401381	-0.401224
C70	C	1.238214	-0.151381	-0.151224
C71	C	1.488214	0.098619	0.098776
C72	C	1.738214	0.348619	0.348776
C73	C	0.895548	-0.397212	-0.397064
C74	C	1.145548	-0.147212	-0.147064
C75	C	1.395548	0.102788	0.102936
C76	C	1.645548	0.352788	0.352936
C77	C	0.725886	-0.389585	-0.389476
C78	C	0.975886	-0.139585	-0.139476
C79	C	1.225886	0.110415	0.110524
C80	C	1.475886	0.360415	0.360524
C81	C	0.684600	-0.432804	-0.432557
C82	C	0.934600	-0.182804	-0.182557
C83	C	1.184600	0.067196	0.067443
C84	C	1.434600	0.317196	0.317443
C85	C	0.590194	-0.428559	-0.428335
C86	C	0.840194	-0.178559	-0.178335
C87	C	1.090194	0.071441	0.071665
C88	C	1.340194	0.321441	0.321665
C89	C	0.820300	-0.393828	-0.393697
C90	C	1.070300	-0.143828	-0.143697
C91	C	1.320300	0.106172	0.106303
C92	C	1.570300	0.356172	0.356303
C93	C	1.204751	-0.603574	-0.410950
C94	C	1.454751	-0.353574	-0.160950
C95	C	1.704751	-0.103574	0.089050
C96	C	1.954751	0.146426	0.339050
C97	C	1.204797	-0.685890	-0.410962
C98	C	1.454797	-0.435890	-0.160962
C99	C	1.704797	-0.185890	0.089038
C100	C	1.954797	0.064110	0.339038
C101	C	1.204904	-0.984986	-0.411034
C102	C	1.454904	-0.734986	-0.161034
C103	C	1.704904	-0.484986	0.088966
C104	C	1.954904	-0.234986	0.338966
C105	C	1.269140	-0.956538	-0.356544
C106	C	1.519140	-0.706538	-0.106544
C107	C	1.769140	-0.456538	0.143456
C108	C	2.019140	-0.206538	0.393456
C109	C	1.269363	-0.870929	-0.356702
C110	C	1.519363	-0.620929	-0.106702
C111	C	1.769363	-0.370929	0.143298
C112	C	2.019363	-0.120929	0.393298
C113	C	1.204851	-0.836601	-0.410997
C114	C	1.454851	-0.586601	-0.160997
C115	C	1.704851	-0.336601	0.089003
C116	C	1.954851	-0.086601	0.339003
C117	C	1.228667	-0.868696	-0.490130
C118	C	1.478667	-0.618696	-0.240130
C119	C	1.728667	-0.368696	0.009870
C120	C	1.978667	-0.118696	0.259870
C121	C	1.229165	-0.954363	-0.489839
C122	C	1.479165	-0.704363	-0.239839
C123	C	1.729165	-0.454363	0.010161
C124	C	1.979165	-0.204363	0.260161
C125	C	1.116679	-0.949512	-0.387060
C126	C	1.366679	-0.699512	-0.137060
C127	C	1.616679	-0.449512	0.112940
C128	C	1.866679	-0.199512	0.362940
C129	C	1.117115	-0.863882	-0.385337
C130	C	1.367115	-0.613882	-0.135337
C131	C	1.617115	-0.363882	0.114663
C132	C	1.867115	-0.113882	0.364663
C133	C	1.204820	-0.752740	-0.410982
C134	C	1.454820	-0.502740	-0.160982
C135	C	1.704820	-0.252740	0.089018
C136	C	1.954820	-0.002740	0.339018
C137	C	1.204937	-1.068847	-0.411055
C138	C	1.454937	-0.818847	-0.161055
C139	C	1.704937	-0.568847	0.088945
C140	C	1.954937	-0.318847	0.338945
C141	C	1.422277	-0.420991	-0.420793
C142	C	1.672277	-0.170991	-0.170793
C143	C	1.922277	0.079009	0.079207
C144	C	2.172277	0.329009	0.329207
C145	C	1.514943	-0.425178	-0.424971
C146	C	1.764943	-0.175178	-0.174971
C147	C	2.014943	0.074822	0.075029
C148	C	2.264943	0.324822	0.325029
C149	C	1.204871	-0.411150	-0.604153
C150	C	1.454871	-0.161150	-0.354153
C151	C	1.704871	0.088850	-0.104153
C152	C	1.954871	0.338850	0.145847
C153	C	1.204891	-0.411143	-0.686468
C154	C	1.454891	-0.161143	-0.436468
C155	C	1.704891	0.088857	-0.186468
C156	C	1.954891	0.338857	0.063532
C157	C	1.204917	-0.218009	-0.411046
C158	C	1.454917	0.031991	-0.161046
C159	C	1.704917	0.281991	0.088954
C160	C	1.954917	0.531991	0.338954
C161	C	1.204957	-0.135697	-0.411070
C162	C	1.454957	0.114303	-0.161070
C163	C	1.704957	0.364303	0.088930
C164	C	1.954957	0.614303	0.338930
C165	C	1.204940	-0.411007	-0.985562
C166	C	1.454940	-0.161007	-0.735562
C167	C	1.704940	0.088993	-0.485562
C168	C	1.954940	0.338993	-0.235562
C169	C	1.140259	-0.465135	-0.951305
C170	C	1.390259	-0.215135	-0.701305
C171	C	1.640259	0.034865	-0.451305
C172	C	1.890259	0.284865	-0.201305
C173	C	1.140434	-0.465408	-0.865695
C174	C	1.390434	-0.215408	-0.615695
C175	C	1.640434	0.034592	-0.365695
C176	C	1.890434	0.284592	-0.115695
C177	C	1.204915	-0.411074	-0.837178
C178	C	1.454915	-0.161074	-0.587178
C179	C	1.704915	0.088926	-0.337178
C180	C	1.954915	0.338926	-0.087178
C181	C	1.292758	-0.436221	-0.872227
C182	C	1.542758	-0.186221	-0.622227
C183	C	1.792758	0.063779	-0.372227
C184	C	2.042758	0.313779	-0.122227
C185	C	1.292397	-0.436579	-0.957856
C186	C	1.542397	-0.186579	-0.707856
C187	C	1.792397	0.063421	-0.457856
C188	C	2.042397	0.313421	-0.207856
C189	C	1.182542	-0.331639	-0.952984
C190	C	1.432542	-0.081639	-0.702984
C191	C	1.682542	0.168361	-0.452984
C192	C	1.932542	0.418361	-0.202984
C193	C	1.180588	-0.332003	-0.867245
C194	C	1.430588	-0.082003	-0.617245
C195	C	1.680588	0.167997	-0.367245
C196	C	1.930588	0.417997	-0.117245
C197	C	1.204907	-0.411112	-0.753318
C198	C	1.454907	-0.161112	-0.503318
C199	C	1.704907	0.088888	-0.253318
C200	C	1.954907	0.338888	-0.003318
C201	C	1.204955	-0.410971	-1.069422
C202	C	1.454955	-0.160971	-0.819422
C203	C	1.704955	0.089029	-0.569422
C204	C	1.954955	0.339029	-0.319422
C205	C	1.204823	-0.411132	-0.218579
C206	C	1.454823	-0.161132	0.031421
C207	C	1.704823	0.088868	0.281421
C208	C	1.954823	0.338868	0.531421
C209	C	1.204964	-0.410938	-0.136271
C210	C	1.454964	-0.160938	0.113729
C211	C	1.704964	0.089062	0.363729
C212	C	1.954964	0.339062	0.613729
H213	H	0.690334	-0.349400	-0.349424
H214	H	0.940334	-0.099400	-0.099424
H215	H	1.190334	0.150600	0.150576
H216	H	1.440334	0.400600	0.400576
H217	H	1.254463	-0.849286	-0.298151
H218	H	1.504463	-0.599286	-0.048151
H219	H	1.754463	-0.349286	0.201849
H220	H	2.004463	-0.099286	0.451849
Cl221	Cl	1.246421	-0.987373	-0.265888
Cl222	Cl	1.496421	-0.737373	-0.015888
Cl223	Cl	1.746421	-0.487373	0.234112
Cl224	Cl	1.996421	-0.237373	0.484112
H225	H	1.334135	-0.980940	-0.372552
H226	H	1.584135	-0.730940	-0.122552
H227	H	1.834135	-0.480940	0.127448
H228	H	2.084135	-0.230940	0.377448
H229	H	1.183311	-0.846298	-0.531991
H230	H	1.433311	-0.596298	-0.281991
H231	H	1.683311	-0.346298	-0.031991
H232	H	1.933311	-0.096298	0.218009
Cl233	Cl	1.327118	-0.839940	-0.521166
Cl234	Cl	1.577118	-0.589940	-0.271166
Cl235	Cl	1.827118	-0.339940	-0.021166
Cl236	Cl	2.077118	-0.089940	0.228834
H237	H	1.155223	-0.524156	-0.845874
H238	H	1.405223	-0.274156	-0.595874
H239	H	1.655223	-0.024156	-0.345874
H240	H	1.905223	0.225844	-0.095874
Cl241	Cl	1.328729	-0.989616	-0.520479
Cl242	Cl	1.578729	-0.739616	-0.270479
Cl243	Cl	1.828729	-0.489616	-0.020479
Cl244	Cl	2.078729	-0.239616	0.229521
H245	H	1.095012	-0.970185	-0.330151
H246	H	1.345012	-0.720185	-0.080151
H247	H	1.595012	-0.470185	0.169849
H248	H	1.845012	-0.220185	0.419849
Cl249	Cl	1.370260	-0.843761	-0.381682
Cl250	Cl	1.620260	-0.593761	-0.131682
Cl251	Cl	1.870260	-0.343761	0.118318
Cl252	Cl	2.120260	-0.093761	0.368318
H253	H	1.119600	-0.309499	-0.971744
H254	H	1.369600	-0.059499	-0.721744
H255	H	1.619600	0.190501	-0.471744
H256	H	1.869600	0.440501	-0.221744
Cl257	Cl	1.039383	-0.440326	-0.978552
Cl258	Cl	1.289383	-0.190326	-0.728552
Cl259	Cl	1.539383	0.059674	-0.478552
Cl260	Cl	1.789383	0.309674	-0.228552
Cl261	Cl	1.321707	-0.526338	-0.990024
Cl262	Cl	1.571707	-0.276338	-0.740024
Cl263	Cl	1.821707	-0.026338	-0.490024
Cl264	Cl	2.071707	0.223662	-0.240024
H265	H	1.184427	-0.973079	-0.532053
H266	H	1.434427	-0.723079	-0.282053
H267	H	1.684427	-0.473079	-0.032053
H268	H	1.934427	-0.223079	0.217947
H269	H	1.099156	-0.842803	-0.327083
H270	H	1.349156	-0.592803	-0.077083
H271	H	1.599156	-0.342803	0.172917
H272	H	1.849156	-0.092803	0.422917
H273	H	1.066679	-0.840227	-0.421800
H274	H	1.316679	-0.590227	-0.171800
H275	H	1.566679	-0.340227	0.078200
H276	H	1.816679	-0.090227	0.328200
H277	H	0.720155	-0.472991	-0.472612
H278	H	0.970155	-0.222991	-0.222612
H279	H	1.220155	0.027009	0.027388
H280	H	1.470155	0.277009	0.277388
Cl281	Cl	1.042784	-0.977479	-0.448257
Cl282	Cl	1.292784	-0.727479	-0.198257
Cl283	Cl	1.542784	-0.477479	0.051743
Cl284	Cl	1.792784	-0.227479	0.301743
H285	H	1.115943	-0.313112	-0.844011
H286	H	1.365943	-0.063112	-0.594011
H287	H	1.615943	0.186888	-0.344011
H288	H	1.865943	0.436888	-0.094011
H289	H	1.075296	-0.449213	-0.841738
H290	H	1.325296	-0.199213	-0.591738
H291	H	1.575296	0.050787	-0.341738
H292	H	1.825296	0.300787	-0.091738
Cl293	Cl	1.248022	-0.265939	-0.837274
Cl294	Cl	1.498022	-0.015939	-0.587274
Cl295	Cl	1.748022	0.234061	-0.337274
Cl296	Cl	1.998022	0.484061	-0.087274
Cl297	Cl	1.162815	-0.555269	-0.985601
Cl298	Cl	1.412815	-0.305269	-0.735601
Cl299	Cl	1.662815	-0.055269	-0.485601
Cl300	Cl	1.912815	0.194731	-0.235601
H301	H	1.229652	-0.291261	-0.975377
H302	H	1.479652	-0.041261	-0.725377
H303	H	1.729652	0.208739	-0.475377
H304	H	1.979652	0.458739	-0.225377
H305	H	1.342224	-0.399080	-0.980835
H306	H	1.592224	-0.149080	-0.730835
H307	H	1.842224	0.100920	-0.480835
H308	H	2.092224	0.350920	-0.230835
Cl309	Cl	1.369166	-0.377535	-0.844252
Cl310	Cl	1.619166	-0.127535	-0.594252
Cl311	Cl	1.869166	0.122465	-0.344252
Cl312	Cl	2.119166	0.372465	-0.094252
H313	H	1.312072	-0.493764	-0.851650
H314	H	1.562072	-0.243764	-0.601650
H315	H	1.812072	0.006236	-0.351650
H316	H	2.062072	0.256236	-0.101650
