data_functionalizedCrystal
_audit_creation_method	'MofGen! by Chris Wilmer'
_symmetry_space_group_name_H-M	'P1'
_symmetry_Int_Tables_number	1
_symmetry_cell_setting	triclinic
loop_
_symmetry_equiv_pos_as_xyz
  x,y,z
_cell_length_a	16.109301
_cell_length_b	15.186229
_cell_length_c	16.109301
_cell_angle_alpha	90.011978
_cell_angle_beta	83.461481
_cell_angle_gamma	90.002431
loop_
_atom_site_label
_atom_site_type_symbol
_atom_site_fract_x
_atom_site_fract_y
_atom_site_fract_z
O1	O	1.103132	0.073176	0.106874
O2	O	1.353132	0.323176	0.356874
O3	O	1.603132	0.573176	0.606874
O4	O	1.853132	0.823176	0.856874
O5	O	0.861070	0.073190	0.120173
O6	O	1.111070	0.323190	0.370173
O7	O	1.361070	0.573190	0.620173
O8	O	1.611070	0.823190	0.870173
O9	O	0.988751	0.073174	-0.007507
O10	O	1.238751	0.323174	0.242493
O11	O	1.488751	0.573174	0.492493
O12	O	1.738751	0.823174	0.742493
O13	O	0.975451	0.073192	0.234555
O14	O	1.225451	0.323192	0.484555
O15	O	1.475451	0.573192	0.734555
O16	O	1.725451	0.823192	0.984555
O17	O	0.988740	-0.073284	-0.007525
O18	O	1.238740	0.176716	0.242475
O19	O	1.488740	0.426716	0.492475
O20	O	1.738740	0.676716	0.742475
O21	O	0.861059	-0.073267	0.120156
O22	O	1.111059	0.176733	0.370156
O23	O	1.361059	0.426733	0.620156
O24	O	1.611059	0.676733	0.870156
O25	O	1.103121	-0.073282	0.106856
O26	O	1.353121	0.176718	0.356856
O27	O	1.603121	0.426718	0.606856
O28	O	1.853121	0.676718	0.856856
Zn29	Zn	0.982088	-0.096528	0.113503
Zn30	Zn	1.232088	0.153472	0.363503
Zn31	Zn	1.482088	0.403472	0.613503
Zn32	Zn	1.732088	0.653472	0.863503
Zn33	Zn	0.982103	0.096436	0.113527
Zn34	Zn	1.232103	0.346436	0.363527
Zn35	Zn	1.482103	0.596436	0.613527
Zn36	Zn	1.732103	0.846436	0.863527
O37	O	0.975440	-0.073265	0.234537
O38	O	1.225440	0.176735	0.484537
O39	O	1.475440	0.426735	0.734537
O40	O	1.725440	0.676735	0.984537
C41	C	0.830090	-0.000037	0.119626
C42	C	1.080090	0.249963	0.369626
C43	C	1.330090	0.499963	0.619626
C44	C	1.580090	0.749963	0.869626
C45	C	0.737794	-0.000032	0.118011
C46	C	0.987794	0.249968	0.368011
C47	C	1.237794	0.499968	0.618011
C48	C	1.487794	0.749968	0.868011
C49	C	0.515522	-0.000036	0.190018
C50	C	0.765522	0.249964	0.440018
C51	C	1.015522	0.499964	0.690018
C52	C	1.265522	0.749964	0.940018
C53	C	0.428801	-0.000042	0.188494
C54	C	0.678801	0.249958	0.438494
C55	C	0.928801	0.499958	0.688494
C56	C	1.178801	0.749958	0.938494
C57	C	0.448676	-0.000050	0.037006
C58	C	0.698676	0.249950	0.287006
C59	C	0.948676	0.499950	0.537006
C60	C	1.198676	0.749950	0.787006
C61	C	0.535394	-0.000051	0.038530
C62	C	0.785394	0.249949	0.288530
C63	C	1.035394	0.499949	0.538530
C64	C	1.285394	0.749949	0.788530
C65	C	0.568815	-0.000039	0.115039
C66	C	0.818815	0.249961	0.365039
C67	C	1.068815	0.499961	0.615039
C68	C	1.318815	0.749961	0.865039
C69	C	0.395376	-0.000045	0.111990
C70	C	0.645376	0.249955	0.361990
C71	C	0.895376	0.499955	0.611990
C72	C	1.145376	0.749955	0.861990
C73	C	0.301350	-0.000051	0.110337
C74	C	0.551350	0.249949	0.360337
C75	C	0.801350	0.499949	0.610337
C76	C	1.051350	0.749949	0.860337
C77	C	0.662847	-0.000035	0.116693
C78	C	0.912847	0.249965	0.366693
C79	C	1.162847	0.499965	0.616693
C80	C	1.412847	0.749965	0.866693
C81	C	0.988206	-0.000056	-0.038491
C82	C	1.238206	0.249944	0.211509
C83	C	1.488206	0.499944	0.461509
C84	C	1.738206	0.749944	0.711509
C85	C	0.986591	-0.000057	-0.130786
C86	C	1.236591	0.249943	0.119214
C87	C	1.486591	0.499943	0.369214
C88	C	1.736591	0.749943	0.619214
C89	C	1.134101	-0.000053	0.107404
C90	C	1.384101	0.249947	0.357404
C91	C	1.634101	0.499947	0.607404
C92	C	1.884101	0.749947	0.857404
C93	C	1.226397	-0.000052	0.109019
C94	C	1.476397	0.249948	0.359019
C95	C	1.726397	0.499948	0.609019
C96	C	1.976397	0.749948	0.859019
N97	N	0.982084	-0.228220	0.113486
N98	N	1.232084	0.021780	0.363486
N99	N	1.482084	0.271780	0.613486
N100	N	1.732084	0.521780	0.863486
N101	N	0.982113	0.228129	0.113537
N102	N	1.232113	0.478129	0.363537
N103	N	1.482113	0.728129	0.613537
N104	N	1.732113	0.978129	0.863537
C105	C	1.038744	0.546040	0.057089
C106	C	1.288744	0.796040	0.307089
C107	C	1.538744	1.046040	0.557089
C108	C	1.788744	1.296040	0.807089
C109	C	1.038748	0.453850	0.057096
C110	C	1.288748	0.703850	0.307096
C111	C	1.538748	0.953850	0.557096
C112	C	1.788748	1.203850	0.807096
C113	C	0.925448	0.453875	0.169936
C114	C	1.175448	0.703875	0.419936
C115	C	1.425448	0.953875	0.669936
C116	C	1.675448	1.203875	0.919936
C117	C	0.925440	0.546063	0.169925
C118	C	1.175440	0.796063	0.419925
C119	C	1.425440	1.046063	0.669925
C120	C	1.675440	1.296063	0.919925
C121	C	0.982093	0.592143	0.113503
C122	C	1.232093	0.842143	0.363503
C123	C	1.482093	1.092143	0.613503
C124	C	1.732093	1.342143	0.863503
C125	C	0.982104	0.407765	0.113520
C126	C	1.232104	0.657765	0.363520
C127	C	1.482104	0.907765	0.613520
C128	C	1.732104	1.157765	0.863520
C129	C	0.982108	0.307809	0.113528
C130	C	1.232108	0.557809	0.363528
C131	C	1.482108	0.807809	0.613528
C132	C	1.732108	1.057809	0.863528
C133	C	0.982088	0.692106	0.113494
C134	C	1.232088	0.942106	0.363494
C135	C	1.482088	1.192106	0.613494
C136	C	1.732088	1.442106	0.863494
C137	C	1.058599	-0.000047	-0.353059
C138	C	1.308599	0.249953	-0.103059
C139	C	1.558599	0.499953	0.146941
C140	C	1.808599	0.749953	0.396941
C141	C	1.057075	-0.000040	-0.439779
C142	C	1.307075	0.249960	-0.189779
C143	C	1.557075	0.499960	0.060221
C144	C	1.807075	0.749960	0.310221
C145	C	0.905586	-0.000034	-0.419905
C146	C	1.155586	0.249966	-0.169905
C147	C	1.405586	0.499966	0.080095
C148	C	1.655586	0.749966	0.330095
C149	C	0.907111	-0.000035	-0.333186
C150	C	1.157111	0.249965	-0.083186
C151	C	1.407111	0.499965	0.166814
C152	C	1.657111	0.749965	0.416814
C153	C	0.983620	-0.000046	-0.299766
C154	C	1.233620	0.249954	-0.049766
C155	C	1.483620	0.499954	0.200234
C156	C	1.733620	0.749954	0.450234
C157	C	0.980571	-0.000038	-0.473205
C158	C	1.230571	0.249962	-0.223205
C159	C	1.480571	0.499962	0.026795
C160	C	1.730571	0.749962	0.276795
C161	C	0.978918	-0.000030	-0.567231
C162	C	1.228918	0.249970	-0.317231
C163	C	1.478918	0.499970	-0.067231
C164	C	1.728918	0.749970	0.182769
C165	C	0.985273	-0.000052	-0.205734
C166	C	1.235273	0.249948	0.044266
C167	C	1.485273	0.499948	0.294266
C168	C	1.735273	0.749948	0.544266
C169	C	0.975984	-0.000034	0.265521
C170	C	1.225984	0.249966	0.515521
C171	C	1.475984	0.499966	0.765521
C172	C	1.725984	0.749966	1.015521
C173	C	0.977600	-0.000027	0.357816
C174	C	1.227600	0.249973	0.607816
C175	C	1.477600	0.499973	0.857816
C176	C	1.727600	0.749973	1.107816
H177	H	0.421454	-0.000065	-0.025285
H178	H	0.671454	0.249935	0.224715
H179	H	0.921454	0.499935	0.474715
H180	H	1.171454	0.749935	0.724715
Cl181	Cl	0.557533	-0.000027	0.286200
Cl182	Cl	0.807533	0.249973	0.536200
Cl183	Cl	1.057533	0.499973	0.786200
Cl184	Cl	1.307533	0.749973	1.036200
Cl185	Cl	0.602397	-0.000061	-0.055737
Cl186	Cl	0.852397	0.249939	0.194263
Cl187	Cl	1.102397	0.499939	0.444263
Cl188	Cl	1.352397	0.749939	0.694263
Cl189	Cl	1.109961	0.603965	-0.013845
Cl190	Cl	1.359961	0.853965	0.236155
Cl191	Cl	1.609961	1.103965	0.486155
Cl192	Cl	1.859961	1.353965	0.736155
Cl193	Cl	0.854213	0.604027	0.240846
Cl194	Cl	1.104213	0.854027	0.490846
Cl195	Cl	1.354213	1.104027	0.740846
Cl196	Cl	1.604213	1.354027	0.990846
Cl197	Cl	1.154781	-0.000058	-0.311047
Cl198	Cl	1.404781	0.249942	-0.061047
Cl199	Cl	1.654781	0.499942	0.188953
Cl200	Cl	1.904781	0.749942	0.438953
Cl201	Cl	1.109966	0.395894	-0.013828
Cl202	Cl	1.359966	0.645894	0.236172
Cl203	Cl	1.609966	0.895894	0.486172
Cl204	Cl	1.859966	1.145894	0.736172
Cl205	Cl	1.151339	-0.000039	-0.506773
Cl206	Cl	1.401339	0.249961	-0.256773
Cl207	Cl	1.651339	0.499961	-0.006773
Cl208	Cl	1.901339	0.749961	0.243227
Cl209	Cl	0.809409	-0.000021	-0.461926
Cl210	Cl	1.059409	0.249979	-0.211926
Cl211	Cl	1.309409	0.499979	0.038074
Cl212	Cl	1.559409	0.749979	0.288074
Cl213	Cl	0.812844	-0.000026	-0.266184
Cl214	Cl	1.062844	0.249974	-0.016184
Cl215	Cl	1.312844	0.499974	0.233816
Cl216	Cl	1.562844	0.749974	0.483816
H217	H	0.385413	-0.000041	0.249550
H218	H	0.635413	0.249959	0.499550
H219	H	0.885413	0.499959	0.749550
H220	H	1.135413	0.749959	0.999550
Cl221	Cl	0.854234	0.395942	0.240868
Cl222	Cl	1.104234	0.645942	0.490868
Cl223	Cl	1.354234	0.895942	0.740868
Cl224	Cl	1.604234	1.145942	0.990868
