data_functionalizedCrystal
_audit_creation_method	'MofGen! by Chris Wilmer'
_symmetry_space_group_name_H-M	'P1'
_symmetry_Int_Tables_number	1
_symmetry_cell_setting	triclinic
loop_
_symmetry_equiv_pos_as_xyz
  x,y,z
_cell_length_a	19.188925
_cell_length_b	19.188930
_cell_length_c	16.053802
_cell_angle_alpha	92.551696
_cell_angle_beta	87.426601
_cell_angle_gamma	83.143665
loop_
_atom_site_label
_atom_site_type_symbol
_atom_site_fract_x
_atom_site_fract_y
_atom_site_fract_z
O1	O	0.929103	0.084200	-0.069456
O2	O	0.725791	0.095938	-0.069455
O3	O	0.833313	-0.011586	-0.069439
O4	O	0.821580	0.191724	-0.069472
O5	O	0.827395	-0.005692	0.069419
O6	O	0.719873	0.101832	0.069403
O7	O	0.923185	0.090094	0.069402
Zn8	Zn	0.820589	0.096899	0.091449
Zn9	Zn	0.828387	0.089133	-0.091502
O10	O	0.815662	0.197618	0.069386
C11	C	0.696821	0.098505	-0.000026
C12	C	0.619316	0.097366	-0.000025
C13	C	0.057546	0.152830	-0.000036
C14	C	0.130370	0.153906	-0.000040
C15	C	0.175304	0.090815	-0.000029
C16	C	0.147410	0.026641	-0.000034
C17	C	0.074588	0.025566	-0.000038
N18	N	0.293966	0.047145	0.047247
N19	N	0.363143	0.048170	0.047252
C20	C	0.394712	0.094049	-0.000019
N21	N	0.354490	0.138874	-0.047286
N22	N	0.285306	0.137851	-0.047287
C23	C	0.254268	0.091973	-0.000025
C24	C	0.501562	0.159385	-0.000025
C25	C	0.574387	0.160459	-0.000035
C26	C	0.591426	0.033192	-0.000020
C27	C	0.518602	0.032120	-0.000019
C28	C	0.473674	0.095219	-0.000017
C29	C	0.829974	-0.034650	-0.000008
C30	C	0.828833	-0.112154	-0.000001
C31	C	0.891924	-0.157079	0.000003
C32	C	0.890853	-0.229904	-0.000011
C33	C	0.826687	-0.257799	-0.000011
C34	C	0.763588	-0.212864	-0.000019
C35	C	0.764661	-0.140042	-0.000014
N36	N	0.775625	-0.363797	0.047245
N37	N	0.774610	-0.432976	0.047242
C38	C	0.823449	-0.477208	-0.000028
N39	N	0.873353	-0.449650	-0.047284
N40	N	0.874370	-0.380465	-0.047278
C41	C	0.825516	-0.336762	-0.000017
C42	C	0.885383	-0.601098	-0.000040
C43	C	0.884310	-0.673924	-0.000058
C44	C	0.757042	-0.656883	-0.000059
C45	C	0.758118	-0.584059	-0.000048
C46	C	0.822290	-0.556171	-0.000035
C47	C	0.952155	0.087526	-0.000029
C48	C	1.029660	0.088665	-0.000036
C49	C	0.819002	0.220682	-0.000047
C50	C	0.820143	0.298186	-0.000060
N51	N	0.815273	0.102198	0.216309
N52	N	0.833709	0.083828	-0.216362
C53	C	0.861040	0.056463	0.260009
C54	C	0.857328	0.060176	0.347415
C55	C	0.807850	0.109629	0.391119
C56	C	0.762078	0.155367	0.347413
C57	C	0.765788	0.151649	0.260008
C58	C	0.791646	0.125848	0.652527
C59	C	0.787941	0.129563	0.739937
C60	C	0.883190	0.034371	0.739934
C61	C	0.886898	0.030661	0.652528
C62	C	0.841124	0.076396	0.608829
N63	N	0.804056	0.113428	0.480463
N64	N	0.844915	0.072594	0.519487
H65	H	0.464979	0.210764	-0.000026
H66	H	0.704797	-0.679594	-0.000063
H67	H	0.713283	-0.103463	-0.000017
H68	H	0.894595	0.022934	0.382996
C69	C	1.003773	-0.152208	-0.071375
C70	C	0.962462	-0.126427	0.000007
H71	H	1.047319	-0.133280	-0.071374
H72	H	1.012159	-0.202002	-0.071370
H73	H	0.979862	-0.138815	-0.119792
H74	H	0.986371	-0.139825	0.048425
H75	H	0.954078	-0.076622	0.000010
C76	C	0.637901	-0.188708	-0.000028
C77	C	0.693054	-0.243523	-0.000022
H78	H	0.594357	-0.207636	-0.000039
H79	H	0.638900	-0.158612	0.048394
H80	H	0.643039	-0.162707	-0.048452
H81	H	0.687919	-0.269521	0.048405
H82	H	0.692055	-0.273631	-0.048449
C83	C	0.995504	-0.713875	-0.071428
C84	C	0.953667	-0.723307	-0.000055
H85	H	1.038324	-0.744359	-0.071421
H86	H	0.971252	-0.724360	-0.119846
H87	H	1.005318	-0.666510	-0.071410
H88	H	0.943849	-0.770671	-0.000076
H89	H	0.977924	-0.712827	0.048376
H90	H	0.597090	0.212711	-0.000042
C91	C	0.768312	0.228812	0.838199
C92	C	0.733548	0.183926	0.787973
H93	H	0.734733	0.262374	0.867848
H94	H	0.795034	0.202108	0.876733
H95	H	0.798738	0.252403	0.804074
H96	H	0.703125	0.160331	0.822099
H97	H	0.706814	0.210633	0.749435
H98	H	0.706742	-0.547480	-0.000047
H99	H	0.184000	-0.024729	-0.000027
H100	H	0.901332	0.016196	0.224431
H101	H	0.754375	0.163089	0.616954
C102	C	0.686245	-0.042454	-0.071390
C103	C	0.640809	-0.036161	-0.000010
H104	H	0.716736	-0.085270	-0.071383
H105	H	0.659545	-0.042283	-0.119804
H106	H	0.713275	-0.004081	-0.071384
H107	H	0.613775	-0.074531	-0.000020
H108	H	0.667512	-0.036338	0.048416
H109	H	0.051884	-0.026686	-0.000038
C110	C	0.963455	-0.532095	-0.071412
C111	C	0.955917	-0.570434	-0.000037
H112	H	1.006998	-0.513162	-0.071406
H113	H	0.962459	-0.562197	-0.119829
H114	H	0.926027	-0.494918	-0.071396
H115	H	0.993343	-0.607615	-0.000056
H116	H	0.956920	-0.540331	0.048393
C117	C	0.980669	-0.063066	0.661308
C118	C	0.941282	-0.023703	0.604491
H119	H	1.014240	-0.096630	0.631650
H120	H	1.004246	-0.032617	0.695380
H121	H	0.950230	-0.086657	0.695417
H122	H	0.971720	-0.000108	0.570386
H123	H	0.917703	-0.054157	0.570404
C124	C	0.714104	0.203338	0.481397
C125	C	0.707693	0.209729	0.395450
H126	H	0.680531	0.236905	0.511051
H127	H	0.706055	0.157375	0.495736
H128	H	0.760071	0.211414	0.495695
H129	H	0.661726	0.201648	0.381152
H130	H	0.715736	0.255703	0.381106
H131	H	0.942231	-0.266489	-0.000011
H132	H	0.495897	-0.020130	-0.000014
C133	C	0.671273	0.246121	0.268785
C134	C	0.715482	0.201927	0.211969
H135	H	0.640218	0.277162	0.239126
H136	H	0.644803	0.218571	0.302890
H137	H	0.698818	0.272612	0.302861
H138	H	0.687937	0.175432	0.177896
H139	H	0.741954	0.229480	0.177849
H140	H	0.020970	0.204210	-0.000038
C141	C	0.141321	0.259696	-0.071411
C142	C	0.161033	0.224441	-0.000032
H143	H	0.160248	0.303242	-0.071400
H144	H	0.158825	0.231680	-0.119825
H145	H	0.091520	0.268084	-0.071407
H146	H	0.210834	0.216048	-0.000039
H147	H	0.143533	0.252463	0.048395
H148	H	0.920457	-0.002865	0.775522
