data_functionalizedCrystal
_audit_creation_method	'MofGen! by Chris Wilmer'
_symmetry_space_group_name_H-M	'P1'
_symmetry_Int_Tables_number	1
_symmetry_cell_setting	triclinic
loop_
_symmetry_equiv_pos_as_xyz
  x,y,z
_cell_length_a	16.109318
_cell_length_b	17.038272
_cell_length_c	15.186229
_cell_angle_alpha	89.995962
_cell_angle_beta	90.000224
_cell_angle_gamma	87.290060
loop_
_atom_site_label
_atom_site_type_symbol
_atom_site_fract_x
_atom_site_fract_y
_atom_site_fract_z
O1	O	1.110263	0.100560	-0.073156
O2	O	1.443597	0.433893	0.260178
O3	O	1.776930	0.767227	0.593511
O4	O	0.869090	0.113052	-0.073174
O5	O	1.202424	0.446386	0.260160
O6	O	1.535757	0.779719	0.593493
O7	O	0.988243	-0.007009	-0.073158
O8	O	1.321577	0.326324	0.260175
O9	O	1.654910	0.659657	0.593509
O10	O	0.991110	0.220621	-0.073172
O11	O	1.324443	0.553955	0.260162
O12	O	1.657777	0.887288	0.593495
O13	O	0.988235	-0.007011	0.073299
O14	O	1.321568	0.326322	0.406633
O15	O	1.654901	0.659656	0.739966
O16	O	0.869082	0.113050	0.073284
O17	O	1.202415	0.446384	0.406617
O18	O	1.535748	0.779717	0.739950
O19	O	1.110255	0.100558	0.073301
O20	O	1.443588	0.433891	0.406635
O21	O	1.776921	0.767225	0.739968
Zn22	Zn	0.989667	0.106804	0.096546
Zn23	Zn	1.323000	0.440137	0.429879
Zn24	Zn	1.656333	0.773471	0.763212
Zn25	Zn	0.989678	0.106806	-0.096418
Zn26	Zn	1.323011	0.440140	0.236915
Zn27	Zn	1.656345	0.773473	0.570249
O28	O	0.991102	0.220620	0.073286
O29	O	1.324435	0.553953	0.406619
O30	O	1.657768	0.887286	0.739952
C31	C	0.838075	0.112543	0.000053
C32	C	1.171409	0.445876	0.333386
C33	C	1.504742	0.779210	0.666719
C34	C	0.745673	0.111019	0.000046
C35	C	1.079006	0.444352	0.333379
C36	C	1.412339	0.777685	0.666713
C37	C	0.985632	-0.036139	0.000070
C38	C	1.318965	0.297195	0.333404
C39	C	1.652298	0.630528	0.666737
C40	C	0.977853	-0.122932	0.000070
C41	C	1.311186	0.210401	0.333403
C42	C	1.644519	0.543735	0.666736
C43	C	0.446254	0.106097	-0.079772
C44	C	0.779587	0.439430	0.253561
C45	C	1.112921	0.772763	0.586895
C46	C	0.533077	0.107524	-0.079778
C47	C	0.866410	0.440857	0.253556
C48	C	1.199743	0.774190	0.586889
C49	C	0.533085	0.107511	0.079898
C50	C	0.866418	0.440844	0.413232
C51	C	1.199752	0.774178	0.746565
C52	C	0.446264	0.106079	0.079903
C53	C	0.779598	0.439412	0.413236
C54	C	1.112931	0.772745	0.746569
C55	C	0.402851	0.105375	0.000065
C56	C	0.736184	0.438709	0.333398
C57	C	1.069518	0.772042	0.666732
C58	C	0.576494	0.108235	0.000055
C59	C	0.909827	0.441568	0.333388
C60	C	1.243161	0.774902	0.666722
C61	C	0.670631	0.109782	0.000050
C62	C	1.003964	0.443115	0.333383
C63	C	1.337298	0.776449	0.666716
C64	C	0.308708	0.103827	0.000070
C65	C	0.642041	0.437160	0.333403
C66	C	0.975375	0.770493	0.666737
C67	C	1.049273	-0.173043	0.000076
C68	C	1.382607	0.160291	0.333409
C69	C	1.715940	0.493624	0.666743
C70	C	1.041959	-0.254593	0.000067
C71	C	1.375292	0.078740	0.333400
C72	C	1.708626	0.412073	0.666734
C73	C	0.963224	-0.286032	0.000058
C74	C	1.296557	0.047301	0.333391
C75	C	1.629890	0.380635	0.666725
C76	C	0.891798	-0.235915	0.000049
C77	C	1.225131	0.097418	0.333383
C78	C	1.558465	0.430752	0.666716
C79	C	0.899113	-0.154366	0.000052
C80	C	1.232446	0.178968	0.333385
C81	C	1.565780	0.512301	0.666719
C82	C	0.937381	-0.531791	0.000044
C83	C	1.270715	-0.198458	0.333377
C84	C	1.604048	0.134875	0.666711
C85	C	0.930072	-0.613347	0.000044
C86	C	1.263405	-0.280014	0.333378
C87	C	1.596738	0.053320	0.666711
C88	C	1.080234	-0.632020	0.000060
C89	C	1.413567	-0.298686	0.333394
C90	C	1.746900	0.034647	0.666727
C91	C	1.087542	-0.550468	0.000068
C92	C	1.420875	-0.217135	0.333401
C93	C	1.754208	0.116199	0.666735
C94	C	1.016116	-0.500358	0.000055
C95	C	1.349449	-0.167025	0.333388
C96	C	1.682783	0.166308	0.666721
C97	C	0.955746	-0.369390	0.000052
C98	C	1.289079	-0.036057	0.333385
C99	C	1.622412	0.297277	0.666718
C100	C	1.023595	-0.417002	0.000055
C101	C	1.356928	-0.083669	0.333388
C102	C	1.690261	0.249665	0.666721
C103	C	1.141270	0.101067	0.000073
C104	C	1.474603	0.434401	0.333406
C105	C	1.807936	0.767734	0.666740
C106	C	1.233672	0.102592	0.000074
C107	C	1.567006	0.435925	0.333407
C108	C	1.900339	0.769258	0.666741
C109	C	0.993713	0.249749	0.000055
C110	C	1.327047	0.583082	0.333389
C111	C	1.660380	0.916416	0.666722
C112	C	1.001492	0.336542	0.000050
C113	C	1.334826	0.669876	0.333384
C114	C	1.668159	1.003209	0.666717
N115	N	0.989665	0.106802	0.228238
N116	N	1.322998	0.440135	0.561572
N117	N	1.656332	0.773469	0.894905
N118	N	0.989686	0.106802	-0.228111
N119	N	1.323019	0.440135	0.105223
N120	N	1.656353	0.773469	0.438556
C121	C	1.042447	0.053657	0.453968
C122	C	1.375780	0.386990	0.787302
C123	C	1.709113	0.720323	1.120635
C124	C	1.042449	0.053655	0.546158
C125	C	1.375782	0.386988	0.879491
C126	C	1.709116	0.720321	1.212825
C127	C	0.936899	0.159950	0.546153
C128	C	1.270232	0.493283	0.879486
C129	C	1.603565	0.826617	1.212820
C130	C	0.936893	0.159948	0.453965
C131	C	1.270226	0.493281	0.787298
C132	C	1.603559	0.826614	1.120632
C133	C	0.989671	0.106802	0.407875
C134	C	1.323005	0.440135	0.741208
C135	C	1.656338	0.773468	1.074542
C136	C	0.989680	0.106802	0.592253
C137	C	1.323013	0.440136	0.925586
C138	C	1.656347	0.773469	1.258919
C139	C	0.989682	0.106801	0.692209
C140	C	1.323016	0.440134	1.025542
C141	C	1.656349	0.773467	1.358875
C142	C	0.989668	0.106802	0.307913
C143	C	1.323001	0.440135	0.641246
C144	C	1.656335	0.773469	0.974579
H145	H	0.410909	0.105523	-0.144781
H146	H	0.744242	0.438857	0.188552
H147	H	1.077576	0.772190	0.521886
H148	H	0.568412	0.108110	-0.144789
H149	H	0.901745	0.441443	0.188544
H150	H	1.235078	0.774777	0.521878
H151	H	0.568443	0.108085	0.144899
H152	H	0.901776	0.441419	0.478233
H153	H	1.235110	0.774752	0.811566
H154	H	0.410925	0.105490	0.144920
H155	H	0.744258	0.438824	0.478253
H156	H	1.077591	0.772157	0.811586
H157	H	0.893929	0.203221	0.583689
H158	H	1.227262	0.536555	0.917022
H159	H	1.560595	0.869888	1.250355
H160	H	0.893913	0.203225	0.416433
H161	H	1.227246	0.536558	0.749767
H162	H	1.560579	0.869892	1.083100
H163	H	1.151656	-0.524877	0.000075
H164	H	1.484989	-0.191544	0.333409
H165	H	1.818323	0.141789	0.666742
H166	H	1.113388	-0.147452	0.000088
H167	H	1.446721	0.185881	0.333422
H168	H	1.780054	0.519215	0.666755
H169	H	1.100117	-0.295391	0.000074
H170	H	1.433451	0.037943	0.333407
H171	H	1.766784	0.371276	0.666741
H172	H	1.138384	-0.672828	0.000070
H173	H	1.471717	-0.339494	0.333403
H174	H	1.805051	-0.006161	0.666736
H175	H	0.865953	-0.638941	0.000051
H176	H	1.199286	-0.305607	0.333385
H177	H	1.532620	0.027726	0.666718
H178	H	0.827690	-0.261519	0.000037
H179	H	1.161023	0.071814	0.333370
H180	H	1.494356	0.405148	0.666703
H181	H	0.879221	-0.491001	0.000033
H182	H	1.212554	-0.157668	0.333367
H183	H	1.545888	0.175665	0.666700
H184	H	0.840955	-0.113566	0.000047
H185	H	1.174288	0.219767	0.333380
H186	H	1.507621	0.553101	0.666713
H187	H	1.087701	-0.391401	0.000042
H188	H	1.421034	-0.058068	0.333376
H189	H	1.754367	0.275266	0.666709
H190	H	0.891639	-0.394997	0.000047
H191	H	1.224972	-0.061663	0.333380
H192	H	1.558305	0.271670	0.666713
H193	H	1.085421	0.010381	0.416444
H194	H	1.418754	0.343714	0.749777
H195	H	1.752088	0.677048	1.083111
H196	H	1.085422	0.010378	0.583685
H197	H	1.418756	0.343712	0.917018
H198	H	1.752089	0.677045	1.250351
