data_functionalizedCrystal
_audit_creation_method	'MofGen! by Chris Wilmer'
_symmetry_space_group_name_H-M	'P1'
_symmetry_Int_Tables_number	1
_symmetry_cell_setting	triclinic
loop_
_symmetry_equiv_pos_as_xyz
  x,y,z
_cell_length_a	16.109302
_cell_length_b	10.723023
_cell_length_c	9.798715
_cell_angle_alpha	90.002376
_cell_angle_beta	90.005394
_cell_angle_gamma	83.964664
loop_
_atom_site_label
_atom_site_type_symbol
_atom_site_fract_x
_atom_site_fract_y
_atom_site_fract_z
O1	O	1.104074	0.160394	0.113549
O2	O	1.604074	0.660394	0.613549
O3	O	0.862129	0.180354	0.113538
O4	O	1.362129	0.680354	0.613538
O5	O	0.988683	-0.011276	0.113538
O6	O	1.488683	0.488724	0.613538
O7	O	0.977520	0.352024	0.113549
O8	O	1.477520	0.852024	0.613549
O9	O	0.988674	-0.011277	-0.113444
O10	O	1.488674	0.488723	0.386556
O11	O	0.862121	0.180352	-0.113444
O12	O	1.362121	0.680352	0.386556
O13	O	1.104065	0.160393	-0.113433
O14	O	1.604065	0.660393	0.386567
Zn15	Zn	0.983091	0.170373	-0.149477
Zn16	Zn	1.483091	0.670373	0.350523
Zn17	Zn	0.983103	0.170374	0.149582
Zn18	Zn	1.483103	0.670374	0.649582
O19	O	0.977512	0.352023	-0.113433
O20	O	1.477512	0.852023	0.386567
C21	C	0.831145	0.179545	0.000046
C22	C	1.331145	0.679545	0.500046
C23	C	0.738836	0.177120	0.000042
C24	C	1.238836	0.677120	0.500042
C25	C	0.526457	0.171513	-0.123673
C26	C	1.026457	0.671513	0.376327
C27	C	0.439724	0.169222	-0.123668
C28	C	0.939724	0.669222	0.376332
C29	C	0.439744	0.169230	0.123800
C30	C	0.939744	0.669230	0.623800
C31	C	0.526476	0.171512	0.123794
C32	C	1.026476	0.671512	0.623794
C33	C	0.569830	0.172660	0.000053
C34	C	1.069830	0.672660	0.500053
C35	C	0.396364	0.168087	0.000064
C36	C	0.896364	0.668087	0.500064
C37	C	0.302324	0.165602	0.000070
C38	C	0.802324	0.665602	0.500070
C39	C	0.663877	0.175143	0.000047
C40	C	1.163877	0.675143	0.500047
C41	C	0.987866	-0.057766	0.000049
C42	C	1.487866	0.442234	0.500049
C43	C	0.985436	-0.196288	0.000053
C44	C	1.485436	0.303712	0.500053
C45	C	0.984358	-0.258038	0.117638
C46	C	1.484358	0.241962	0.617638
C47	C	0.981846	-0.401208	0.117646
C48	C	1.481846	0.098792	0.617646
C49	C	1.135049	0.161202	0.000063
C50	C	1.635049	0.661202	0.500063
C51	C	1.227359	0.163627	0.000076
C52	C	1.727359	0.663627	0.500076
C53	C	0.978328	0.398512	0.000060
C54	C	1.478328	0.898512	0.500060
C55	C	0.980758	0.537035	0.000064
C56	C	1.480758	1.037035	0.500064
N57	N	0.983089	0.170371	-0.353576
N58	N	1.483089	0.670371	0.146424
C59	C	0.929964	0.251179	-0.421387
C60	C	1.429964	0.751179	0.078613
C61	C	0.929975	0.251178	-0.578549
C62	C	1.429975	0.751178	-0.078549
N63	N	0.983111	0.170366	0.353682
N64	N	1.483111	0.670366	0.853682
H65	H	0.404434	0.168296	0.224545
H66	H	0.904434	0.668296	0.724545
H67	H	0.981690	-0.409870	-0.100610
H68	H	1.481690	0.090130	0.399390
Br69	Br	0.585347	0.173053	0.291721
Br70	Br	1.085347	0.673053	0.791721
Br71	Br	0.983867	-0.284819	-0.167737
Br72	Br	1.483867	0.215181	0.332263
Br73	Br	0.585293	0.173067	-0.291605
Br74	Br	1.085293	0.673067	0.208395
H75	H	0.404413	0.168288	-0.224419
H76	H	0.904413	0.668288	0.275581
Br77	Br	0.854156	0.366486	-0.675735
Br78	Br	1.354156	0.866486	-0.175735
H79	H	0.980922	-0.454313	0.218315
H80	H	1.480922	0.045687	0.718315
Br81	Br	0.985936	-0.169509	0.285429
Br82	Br	1.485936	0.330491	0.785429
Br83	Br	0.854143	0.366511	-0.324239
Br84	Br	1.354143	0.866511	0.175761
H85	H	1.028594	0.101174	-0.588013
H86	H	1.528594	0.601174	-0.088013
H87	H	1.028584	0.101190	-0.411872
H88	H	1.528584	0.601190	0.088128
