data_functionalizedCrystal
_audit_creation_method	'MofGen! by Chris Wilmer'
_symmetry_space_group_name_H-M	'P1'
_symmetry_Int_Tables_number	1
_symmetry_cell_setting	triclinic
loop_
_symmetry_equiv_pos_as_xyz
  x,y,z
_cell_length_a	10.654550
_cell_length_b	10.540539
_cell_length_c	9.130313
_cell_angle_alpha	89.997616
_cell_angle_beta	89.999724
_cell_angle_gamma	84.505211
loop_
_atom_site_label
_atom_site_type_symbol
_atom_site_fract_x
_atom_site_fract_y
_atom_site_fract_z
O1	O	1.667902	0.178301	-0.121682
O2	O	1.302430	0.195288	-0.121709
O3	O	1.493504	0.002085	-0.121693
O4	O	1.476828	0.371504	-0.121698
O5	O	1.493491	0.002079	0.121906
O6	O	1.302416	0.195282	0.121890
O7	O	1.667889	0.178295	0.121916
Cu8	Cu	1.485152	0.186788	0.144146
Cu9	Cu	1.485167	0.186795	-0.143938
O10	O	1.476815	0.371498	0.121901
C11	C	1.255625	0.194038	0.000087
C12	C	1.116180	0.190306	0.000077
C13	C	1.036735	0.304061	0.000080
C14	C	0.905712	0.300547	0.000105
C15	C	0.933594	0.069513	0.000119
C16	C	1.064614	0.073029	0.000104
C17	C	1.492247	-0.045221	0.000104
C18	C	1.488505	-0.186167	0.000095
C19	C	1.345134	-0.369543	-0.000462
C20	C	1.348927	-0.222926	0.000087
C21	C	1.555669	-0.247852	0.139207
C22	C	1.550905	-0.394395	0.139324
C23	C	1.553759	-0.394908	-0.137693
C24	C	1.555045	-0.247926	-0.139532
C25	C	1.714694	0.179545	0.000117
C26	C	1.854139	0.183277	0.000118
C27	C	1.478072	0.418804	0.000101
C28	C	1.481813	0.559750	0.000099
N29	N	1.485150	0.186783	0.346768
N30	N	1.485179	0.186790	-0.346561
C31	C	1.569786	0.101269	0.423427
C32	C	1.569798	0.101269	0.576764
C33	C	1.400533	0.272308	0.576770
C34	C	1.400516	0.272301	0.423436
H35	H	0.841032	0.393178	0.000111
Br36	Br	1.285635	0.388354	0.319387
Br37	Br	1.478464	-0.447447	-0.313432
H38	H	1.638715	0.031634	0.639175
Br39	Br	1.106714	0.463222	0.000048
Br40	Br	1.718210	-0.474414	0.149873
H41	H	1.638698	0.031633	0.361008
Br42	Br	1.285680	0.388367	0.680823
H43	H	1.129302	-0.019610	0.000106
H44	H	0.891593	-0.025970	0.000150
Br45	Br	1.260844	-0.151875	-0.166122
H46	H	1.290003	-0.398120	-0.100221
H47	H	1.290216	-0.399733	0.098732
Br48	Br	1.477893	-0.176833	0.311746
H49	H	1.501257	-0.422579	0.243306
Br50	Br	1.726516	-0.210664	0.147849
Br51	Br	1.260199	-0.153289	0.166555
Br52	Br	1.473837	-0.178969	-0.311088
H53	H	1.656809	-0.223741	-0.147925
Br54	Br	1.721793	-0.473680	-0.139244
