data_functionalizedCrystal
_audit_creation_method	'MofGen! by Chris Wilmer'
_symmetry_space_group_name_H-M	'P1'
_symmetry_Int_Tables_number	1
_symmetry_cell_setting	triclinic
loop_
_symmetry_equiv_pos_as_xyz
  x,y,z
_cell_length_a	34.571875
_cell_length_b	34.571051
_cell_length_c	34.567439
_cell_angle_alpha	60.004367
_cell_angle_beta	60.008842
_cell_angle_gamma	59.994195
loop_
_atom_site_label
_atom_site_type_symbol
_atom_site_fract_x
_atom_site_fract_y
_atom_site_fract_z
O1	O	0.053721	-0.565181	0.472559
O2	O	0.553721	-0.065181	0.972559
O3	O	0.020283	-0.440038	0.380761
O4	O	0.520283	0.059962	0.880761
O5	O	0.099534	-0.519209	0.380676
O6	O	0.599534	-0.019209	0.880676
O7	O	-0.025530	-0.486010	0.472643
O8	O	0.474470	0.013990	0.972643
O9	O	0.125831	-0.492917	0.406885
O10	O	0.625831	0.007083	0.906885
O11	O	0.046580	-0.413746	0.406969
O12	O	0.546580	0.086254	0.906969
O13	O	0.080018	-0.538889	0.498767
O14	O	0.580018	-0.038889	0.998767
Zn15	Zn	0.067475	-0.472143	0.457030
Zn16	Zn	0.567475	0.027857	0.957030
Zn17	Zn	0.032827	-0.506784	0.422498
Zn18	Zn	0.532827	-0.006784	0.922498
O19	O	0.000767	-0.459718	0.498852
O20	O	0.500767	0.040282	0.998852
N21	N	0.091122	-0.448505	0.480598
N22	N	0.591122	0.051495	0.980598
N23	N	0.009184	-0.530426	0.398930
N24	N	0.509184	-0.030426	0.898930
C25	C	0.124402	-0.415465	0.717633
C26	C	0.624402	0.084535	1.217633
C27	C	0.328327	-0.415388	0.513477
C28	C	0.828327	0.084612	1.013477
C29	C	0.124221	-0.415437	0.513630
C30	C	0.624221	0.084563	1.013630
C31	C	0.124201	-0.211364	0.513624
C32	C	0.624201	0.288636	1.013624
C33	C	0.157075	-0.309853	0.546423
C34	C	0.657075	0.190147	1.046423
C35	C	0.157084	-0.382601	0.546423
C36	C	0.657084	0.117399	1.046423
C37	C	0.175289	-0.364414	0.564591
C38	C	0.675289	0.135586	1.064591
C39	C	0.254624	-0.350722	0.522790
C40	C	0.754624	0.149278	1.022790
C41	C	0.304220	-0.367243	0.506229
C42	C	0.804220	0.132757	1.006229
C43	C	0.304249	-0.447494	0.536832
C44	C	0.804249	0.052506	1.036832
C45	C	0.254655	-0.430972	0.553394
C46	C	0.754655	0.069028	1.053394
C47	C	0.169014	-0.285043	0.497667
C48	C	0.669014	0.214957	0.997667
C49	C	0.152454	-0.235444	0.481153
C50	C	0.652454	0.264556	0.981153
C51	C	0.112020	-0.235469	0.562154
C52	C	0.612020	0.264531	1.062154
C53	C	0.128580	-0.285068	0.578668
C54	C	0.628580	0.214932	1.078668
C55	C	0.108321	-0.370634	0.558439
C56	C	0.608321	0.129366	1.058439
C57	C	0.091776	-0.387168	0.541918
C58	C	0.591776	0.112832	1.041918
C59	C	0.172754	-0.427637	0.501375
C60	C	0.672754	0.072363	1.001375
C61	C	0.189301	-0.411103	0.517891
C62	C	0.689301	0.088897	1.017891
C63	C	0.108399	-0.370649	0.643978
C64	C	0.608399	0.129351	1.143978
C65	C	0.091911	-0.387197	0.693575
C66	C	0.591911	0.112803	1.193575
C67	C	0.172928	-0.427676	0.693511
C68	C	0.672928	0.072324	1.193511
C69	C	0.189415	-0.411128	0.643912
C70	C	0.689415	0.088872	1.143912
C71	C	0.157149	-0.382613	0.619147
C72	C	0.657149	0.117387	1.119147
C73	C	0.229844	-0.382585	0.546371
C74	C	0.729844	0.117415	1.046371
C75	C	0.105624	-0.433333	0.772186
C76	C	0.605624	0.066667	1.272186
C77	C	0.382878	-0.432925	0.495007
C78	C	0.882878	0.067075	0.995007
C79	C	0.105380	-0.433313	0.495792
C80	C	0.605380	0.066687	0.995792
C81	C	0.105683	-0.156808	0.496094
C82	C	0.605683	0.343192	0.996094
C83	C	-0.023527	-0.563458	0.161535
C84	C	0.476473	-0.063458	0.661535
C85	C	-0.023851	-0.767445	0.365663
C86	C	0.476149	-0.267445	0.865663
C87	C	-0.023821	-0.563448	0.365756
C88	C	0.476179	-0.063448	0.865756
C89	C	-0.227785	-0.563229	0.365355
C90	C	0.272215	-0.063229	0.865355
C91	C	-0.129302	-0.596153	0.332678
C92	C	0.370698	-0.096153	0.832678
C93	C	-0.056593	-0.596234	0.332823
C94	C	0.443407	-0.096234	0.832823
C95	C	-0.074746	-0.614396	0.314578
C96	C	0.425254	-0.114396	0.814578
C97	C	-0.088477	-0.693710	0.356299
C98	C	0.411523	-0.193710	0.856299
C99	C	-0.071982	-0.743310	0.372851
C100	C	0.428018	-0.243310	0.872851
C101	C	0.008266	-0.743392	0.342376
C102	C	0.508266	-0.243392	0.842376
C103	C	-0.008230	-0.693794	0.325823
C104	C	0.491770	-0.193794	0.825823
C105	C	-0.154162	-0.608103	0.381422
C106	C	0.345838	-0.108103	0.881422
C107	C	-0.203757	-0.591517	0.397874
C108	C	0.296243	-0.091517	0.897874
C109	C	-0.203630	-0.551037	0.316836
C110	C	0.296370	-0.051037	0.816836
C111	C	-0.154034	-0.567623	0.300384
C112	C	0.345966	-0.067623	0.800384
C113	C	-0.068543	-0.547475	0.320829
C114	C	0.431457	-0.047475	0.820829
C115	C	-0.052041	-0.530969	0.337421
C116	C	0.447959	-0.030969	0.837421
C117	C	-0.011639	-0.611977	0.377990
C118	C	0.488361	-0.111977	0.877990
C119	C	-0.028141	-0.628485	0.361404
C120	C	0.471859	-0.128485	0.861404
C121	C	-0.068417	-0.547482	0.235199
C122	C	0.431583	-0.047482	0.735199
C123	C	-0.051814	-0.530977	0.185602
C124	C	0.448186	-0.030977	0.685602
C125	C	-0.011349	-0.611990	0.185649
C126	C	0.488651	-0.111990	0.685649
C127	C	-0.027951	-0.628493	0.235248
C128	C	0.472049	-0.128493	0.735248
C129	C	-0.056486	-0.596238	0.260022
C130	C	0.443514	-0.096238	0.760022
C131	C	-0.056602	-0.668955	0.332787
C132	C	0.443398	-0.168955	0.832787
C133	C	-0.005599	-0.544662	0.106983
C134	C	0.494401	-0.044662	0.606983
C135	C	-0.006342	-0.821999	0.384121
C136	C	0.493658	-0.321999	0.884121
C137	C	-0.005979	-0.544649	0.383673
C138	C	0.494021	-0.044649	0.883673
C139	C	-0.282336	-0.544682	0.382817
C140	C	0.217664	-0.044682	0.882817
N141	N	0.427518	-0.448428	0.480350
N142	N	0.927518	0.051572	0.980350
O143	O	0.589573	-0.456297	0.363634
O144	O	1.089573	0.043703	0.863634
O145	O	0.589761	-0.548399	0.488643
O146	O	1.089761	-0.048399	0.988643
O147	O	0.589681	-0.548188	0.409364
O148	O	1.089681	-0.048188	0.909364
O149	O	0.589654	-0.456508	0.442913
O150	O	1.089654	0.043492	0.942913
O151	O	0.510890	-0.521988	0.435708
O152	O	1.010890	-0.021988	0.935708
O153	O	0.510970	-0.522199	0.514987
O154	O	1.010970	-0.022199	1.014987
O155	O	0.510782	-0.430098	0.389978
O156	O	1.010782	0.069902	0.889978
Zn157	Zn	0.498366	-0.471989	0.456665
Zn158	Zn	0.998366	0.028011	0.956665
Zn159	Zn	0.602177	-0.506508	0.421956
Zn160	Zn	1.102177	-0.006508	0.921956
O161	O	0.510862	-0.430308	0.469257
O162	O	1.010862	0.069692	0.969257
N163	N	0.673025	-0.530068	0.398267
N164	N	1.173025	-0.030068	0.898267
N165	N	0.091092	-0.112167	0.480590
N166	N	0.591092	0.387833	0.980590
O167	O	-0.025539	0.049976	0.472612
O168	O	0.474461	0.549976	0.972612
O169	O	0.099472	0.050011	0.380491
O170	O	0.599472	0.550011	0.880491
O171	O	0.020155	0.049979	0.380751
O172	O	0.520155	0.549979	0.880751
O173	O	0.053778	0.050009	0.472352
O174	O	0.553778	0.550009	0.972352
O175	O	0.046458	-0.028818	0.407008
O176	O	0.546458	0.471182	0.907008
O177	O	0.125775	-0.028785	0.406748
O178	O	0.625775	0.471215	0.906748
O179	O	0.000764	-0.028821	0.498869
O180	O	0.500764	0.471179	0.998869
Zn181	Zn	0.067445	-0.041314	0.456977
Zn182	Zn	0.567445	0.458686	0.956977
Zn183	Zn	0.032791	0.062504	0.422382
Zn184	Zn	0.532791	0.562504	0.922382
O185	O	0.080081	-0.028788	0.498609
O186	O	0.580081	0.471212	0.998609
N187	N	0.009138	0.133358	0.398771
N188	N	0.509138	0.633358	0.898771
N189	N	0.091421	-0.448552	0.816827
N190	N	0.591421	0.051448	1.316827
O191	O	0.083469	-0.565164	0.978960
O192	O	0.583469	-0.065164	1.478960
O193	O	-0.008614	-0.440110	0.979002
O194	O	0.491386	0.059890	1.479002
O195	O	-0.008399	-0.519410	0.978978
O196	O	0.491601	-0.019410	1.478978
O197	O	0.083253	-0.485863	0.978984
O198	O	0.583253	0.014137	1.478984
O199	O	0.017837	-0.493128	0.900185
O200	O	0.517837	0.006872	1.400185
O201	O	0.017621	-0.413827	0.900208
O202	O	0.517621	0.086173	1.400208
O203	O	0.109704	-0.538881	0.900167
O204	O	0.609704	-0.038881	1.400167
Zn205	Zn	0.067828	-0.472181	0.887677
Zn206	Zn	0.567828	0.027819	1.387677
Zn207	Zn	0.033262	-0.506810	0.991491
Zn208	Zn	0.533262	-0.006810	1.491491
O209	O	0.109489	-0.459581	0.900191
O210	O	0.609489	0.040419	1.400191
N211	N	0.009668	-0.530444	1.062341
N212	N	0.509668	-0.030444	1.562341
C213	C	0.030297	-0.411123	0.381218
C214	C	0.530297	0.088877	0.881218
C215	C	0.128439	-0.509167	0.381113
C216	C	0.628439	-0.009167	0.881113
C217	C	0.070004	-0.567805	0.498310
C218	C	0.570004	-0.067805	0.998310
C219	C	-0.028138	-0.469761	0.498415
C220	C	0.471862	0.030239	0.998415
C221	C	0.550388	-0.547982	0.517564
C222	C	1.050388	-0.047982	1.017564
C223	C	0.550290	-0.547721	0.419387
C224	C	1.050290	-0.047721	0.919387
C225	C	0.550153	-0.430514	0.361058
C226	C	1.050153	0.069486	0.861058
C227	C	0.550253	-0.430775	0.459234
C228	C	1.050253	0.069225	0.959234
C229	C	0.128339	0.010714	0.380902
C230	C	0.628339	0.510714	0.880902
C231	C	0.030148	0.010577	0.381256
C232	C	0.530148	0.510577	0.881256
C233	C	-0.028136	0.010574	0.498426
C234	C	0.471864	0.510574	0.998426
C235	C	0.070089	0.010613	0.498104
C236	C	0.570089	0.510613	0.998104
C237	C	-0.008178	-0.411214	0.939610
C238	C	0.491822	0.088786	1.439610
C239	C	-0.007906	-0.509413	0.939566
C240	C	0.492094	-0.009413	1.439566
C241	C	0.109268	-0.567777	0.939558
C242	C	0.609268	-0.067777	1.439558
C243	C	0.109002	-0.469572	0.939586
C244	C	0.609002	0.030428	1.439586
H245	H	0.082121	-0.347425	0.623816
H246	H	0.582121	0.152575	1.123816
H247	H	0.077290	0.010621	0.526881
H248	H	0.577290	0.510621	1.026881
H249	H	0.023152	-0.375173	0.352387
H250	H	0.523152	0.124827	0.852387
O251	O	-0.042624	-0.368349	0.939646
O252	O	0.457376	0.131651	1.439646
C253	C	-0.064643	-0.290291	0.939640
C254	C	0.435357	0.209709	1.439640
C255	C	-0.025596	-0.338817	0.939611
C256	C	0.474404	0.161183	1.439611
H257	H	-0.050888	-0.266398	0.939602
H258	H	0.449112	0.233602	1.439602
H259	H	-0.096948	-0.295244	0.972625
H260	H	0.403052	0.204756	1.472625
H261	H	-0.074994	-0.273296	0.906676
H262	H	0.425006	0.226704	1.406676
H263	H	-0.015205	-0.355839	0.972553
H264	H	0.484795	0.144161	1.472553
H265	H	0.006683	-0.333834	0.906604
H266	H	0.506683	0.166166	1.406604
H267	H	0.022945	0.010574	0.352477
H268	H	0.522945	0.510574	0.852477
O269	O	-0.071001	0.010653	0.532885
O270	O	0.428999	0.510653	1.032885
C271	C	-0.155286	0.051453	0.555785
C272	C	0.344714	0.551453	1.055785
C273	C	-0.106771	0.051424	0.516724
C274	C	0.393229	0.551424	1.016724
H275	H	-0.184220	0.084407	0.542730
H276	H	0.315780	0.584407	1.042730
H277	H	-0.155352	0.051492	0.588779
H278	H	0.344648	0.551492	1.088779
H279	H	-0.162204	0.018456	0.564756
H280	H	0.337796	0.518456	1.064756
H281	H	-0.099822	0.084415	0.507712
H282	H	0.400178	0.584415	1.007712
H283	H	-0.106728	0.051360	0.483755
H284	H	0.393272	0.551360	0.983755
H285	H	0.077150	-0.603753	0.527142
H286	H	0.577150	-0.103753	1.027142
O287	O	-0.042184	-0.518030	0.939502
O288	O	0.457816	-0.018030	1.439502
C289	C	-0.063839	-0.574305	0.939456
C290	C	0.436161	-0.074305	1.439456
C291	C	-0.024973	-0.564606	0.939516
C292	C	0.475027	-0.064606	1.439516
H293	H	-0.049941	-0.611965	0.939477
H294	H	0.450059	-0.111965	1.439477
H295	H	-0.074180	-0.548093	0.906467
H296	H	0.425820	-0.048093	1.406467
H297	H	-0.096185	-0.570045	0.972417
H298	H	0.403815	-0.070045	1.472417
H299	H	0.007398	-0.568873	0.906578
H300	H	0.507398	-0.068873	1.406578
H301	H	-0.014672	-0.590817	0.972527
H302	H	0.485328	-0.090817	1.472527
H303	H	0.138179	-0.603691	0.939539
H304	H	0.638179	-0.103691	1.439539
H305	H	0.164358	-0.516243	0.352233
H306	H	0.664358	-0.016243	0.852233
H307	H	0.550436	-0.576894	0.553469
H308	H	1.050436	-0.076894	1.053469
O309	O	0.044536	-0.375505	0.717618
O310	O	0.544536	0.124495	1.217618
C311	C	-0.034079	-0.333622	0.712442
C312	C	0.465921	0.166378	1.212442
C313	C	0.019558	-0.346819	0.685154
C314	C	0.519558	0.153181	1.185154
H315	H	-0.054290	-0.310436	0.686207
H316	H	0.445710	0.189564	1.186207
H317	H	-0.043849	-0.313406	0.735649
H318	H	0.456151	0.186594	1.235649
H319	H	-0.043806	-0.367290	0.735678
H320	H	0.456194	0.132710	1.235678
H321	H	0.029324	-0.313176	0.661892
H322	H	0.529324	0.186824	1.161892
H323	H	0.029299	-0.367054	0.661977
H324	H	0.529299	0.132946	1.161977
O325	O	0.204336	-0.455379	0.717491
O326	O	0.704336	0.044621	1.217491
C327	C	0.286435	-0.493745	0.712186
C328	C	0.786435	0.006255	1.212186
C329	C	0.250916	-0.462377	0.684969
C330	C	0.750916	0.037623	1.184969
H331	H	0.324104	-0.499404	0.685904
H332	H	0.824104	0.000596	1.185904
H333	H	0.280786	-0.529449	0.735392
H334	H	0.780786	-0.029449	1.235392
H335	H	0.280707	-0.475573	0.735416
H336	H	0.780707	0.024427	1.235416
H337	H	0.256623	-0.480506	0.661714
H338	H	0.756623	0.019494	1.161714
H339	H	0.256575	-0.426674	0.661793
H340	H	0.756575	0.073326	1.161793
O341	O	-0.071009	-0.461239	0.532824
O342	O	0.428991	0.038761	1.032824
C343	C	-0.149036	-0.405123	0.554739
C344	C	0.350964	0.094877	1.054739
C345	C	-0.100505	-0.414708	0.515731
C346	C	0.399495	0.085292	1.015731
H347	H	-0.172900	-0.367507	0.540930
H348	H	0.327100	0.132493	1.040930
H349	H	-0.144091	-0.409363	0.587041
H350	H	0.355909	0.090637	1.087041
H351	H	-0.166056	-0.431424	0.565114
H352	H	0.333944	0.068576	1.065114
H353	H	-0.083458	-0.388416	0.505316
H354	H	0.416542	0.111584	1.005316
H355	H	-0.105481	-0.410485	0.483455
H356	H	0.394519	0.089515	0.983455
H357	H	0.137795	-0.462392	0.939581
H358	H	0.637795	0.037608	1.439581
O359	O	-0.102938	-0.767357	0.395634
O360	O	0.397062	-0.267357	0.895634
C361	C	-0.125678	-0.823304	0.396421
C362	C	0.374322	-0.323304	0.896421
C363	C	-0.090579	-0.796105	0.370558
C364	C	0.409421	-0.296105	0.870558
H365	H	-0.115693	-0.846561	0.376164
H366	H	0.384307	-0.346561	0.876164
H367	H	-0.163080	-0.797025	0.398532
H368	H	0.336920	-0.297025	0.898532
H369	H	-0.124227	-0.846487	0.433739
H370	H	0.375773	-0.346487	0.933739
H371	H	-0.091988	-0.772922	0.333229
H372	H	0.408012	-0.272922	0.833229
H373	H	-0.053193	-0.822410	0.368485
H374	H	0.446807	-0.322410	0.868485
H375	H	0.082085	-0.347427	0.581670
H376	H	0.582085	0.152573	1.081670
O377	O	0.044392	-0.375521	0.553653
O378	O	0.544392	0.124479	1.053653
C379	C	-0.034186	-0.333626	0.595599
C380	C	0.465814	0.166374	1.095599
C381	C	0.019463	-0.346786	0.582352
C382	C	0.519463	0.153214	1.082352
H383	H	-0.054356	-0.310383	0.618795
H384	H	0.445644	0.189617	1.118795
H385	H	-0.043949	-0.367277	0.615820
H386	H	0.456051	0.132723	1.115820
H387	H	-0.043968	-0.313447	0.561954
H388	H	0.456032	0.186553	1.061954
H389	H	0.029284	-0.366953	0.615971
H390	H	0.529284	0.133047	1.115971
H391	H	0.029197	-0.313118	0.562112
H392	H	0.529197	0.186882	1.062112
H393	H	0.550303	-0.576522	0.412207
H394	H	1.050303	-0.076522	0.912207
H395	H	0.229113	-0.420876	0.623698
H396	H	0.729113	0.079124	1.123698
H397	H	0.550247	-0.401977	0.466412
H398	H	1.050247	0.098023	0.966412
O399	O	0.204115	-0.455304	0.473651
O400	O	0.704115	0.044696	0.973651
C401	C	0.286185	-0.493724	0.435208
C402	C	0.786185	0.006276	0.935208
C403	C	0.250719	-0.462380	0.466602
C404	C	0.750719	0.037620	0.966602
H405	H	0.323872	-0.499463	0.429508
H406	H	0.823872	0.000537	0.929508
H407	H	0.280474	-0.475552	0.399525
H408	H	0.780474	0.024448	0.899525
H409	H	0.280460	-0.529393	0.453380
H410	H	0.780460	-0.029393	0.953380
H411	H	0.256422	-0.426705	0.448472
H412	H	0.756422	0.073295	0.948472
H413	H	0.256439	-0.480589	0.502283
H414	H	0.756439	0.019411	1.002283
H415	H	0.550093	-0.401597	0.325157
H416	H	1.050093	0.098403	0.825157
O417	O	0.171121	0.010925	0.346372
O418	O	0.671121	0.510925	0.846372
C419	C	0.255469	-0.029504	0.323168
C420	C	0.755469	0.470496	0.823168
C421	C	0.207050	-0.029794	0.362314
C422	C	0.707050	0.470206	0.862314
H423	H	0.284530	-0.062427	0.336039
H424	H	0.784530	0.437573	0.836039
H425	H	0.262253	0.003529	0.314320
H426	H	0.762253	0.503529	0.814320
H427	H	0.255463	-0.029414	0.290146
H428	H	0.755463	0.470586	0.790146
H429	H	0.207021	-0.029902	0.395360
H430	H	0.707021	0.470098	0.895360
H431	H	0.200285	-0.062825	0.371121
H432	H	0.700285	0.437175	0.871121
O433	O	0.230655	-0.461987	0.576272
O434	O	0.730655	0.038013	1.076272
C435	C	0.235920	-0.543333	0.604899
C436	C	0.735920	-0.043333	1.104899
C437	C	0.263158	-0.508259	0.578972
C438	C	0.763158	-0.008259	1.078972
H439	H	0.262187	-0.580753	0.607099
H440	H	0.762187	-0.080753	1.107099
H441	H	0.212689	-0.533415	0.584642
H442	H	0.712689	-0.033415	1.084642
H443	H	0.212715	-0.541798	0.642184
H444	H	0.712715	-0.041798	1.142184
H445	H	0.286389	-0.509776	0.541687
H446	H	0.786389	-0.009776	1.041687
H447	H	0.286360	-0.518189	0.599265
H448	H	0.786360	-0.018189	1.099265
H449	H	0.229008	-0.420842	0.508101
H450	H	0.729008	0.079158	1.008101
H451	H	0.324395	-0.341295	0.487026
H452	H	0.824395	0.158705	0.987026
O453	O	0.328377	-0.494482	0.543564
O454	O	0.828377	0.005518	1.043564
C455	C	0.384385	-0.554478	0.506999
C456	C	0.884385	-0.054478	1.006999
C457	C	0.357082	-0.501254	0.499306
C458	C	0.857082	-0.001254	0.999306
H459	H	0.407607	-0.559969	0.471223
H460	H	0.907607	-0.059969	0.971223
H461	H	0.358177	-0.574438	0.526671
H462	H	0.858177	-0.074438	1.026671
H463	H	0.407609	-0.568428	0.528804
H464	H	0.907609	-0.068428	1.028804
H465	H	0.333857	-0.487261	0.477490
H466	H	0.833857	0.012739	0.977490
H467	H	0.383315	-0.481326	0.479655
H468	H	0.883315	0.018674	0.979655
O469	O	-0.227836	-0.603188	0.445243
O470	O	0.272164	-0.103188	0.945243
C471	C	-0.222731	-0.645075	0.523888
C472	C	0.277269	-0.145075	1.023888
C473	C	-0.195404	-0.631898	0.470258
C474	C	0.304596	-0.131898	0.970258
H475	H	-0.196522	-0.668281	0.544128
H476	H	0.303478	-0.168281	1.044128
H477	H	-0.245942	-0.665265	0.533624
H478	H	0.254058	-0.165265	1.033624
H479	H	-0.245966	-0.611400	0.533615
H480	H	0.254034	-0.111400	1.033615
H481	H	-0.172144	-0.665548	0.460492
H482	H	0.327856	-0.165548	0.960492
H483	H	-0.172224	-0.611690	0.460551
H484	H	0.327776	-0.111690	0.960551
H485	H	0.192214	-0.305222	0.471410
H486	H	0.692214	0.194778	0.971410
O487	O	0.230598	-0.303707	0.515947
O488	O	0.730598	0.196293	1.015947
C489	C	0.235807	-0.225849	0.483816
C490	C	0.735807	0.274151	0.983816
C491	C	0.263076	-0.279083	0.491545
C492	C	0.763076	0.220917	0.991545
H493	H	0.262053	-0.205924	0.464078
H494	H	0.762053	0.294076	0.964078
H495	H	0.212625	-0.220302	0.519572
H496	H	0.712625	0.279698	1.019572
H497	H	0.212549	-0.211908	0.462049
H498	H	0.712549	0.288092	0.962049
H499	H	0.286360	-0.293060	0.513296
H500	H	0.786360	0.206940	1.013296
H501	H	0.286228	-0.284599	0.455773
H502	H	0.786228	0.215401	0.955773
O503	O	0.164028	-0.211391	0.433778
O504	O	0.664028	0.288609	0.933778
C505	C	0.160156	-0.196175	0.359521
C506	C	0.660156	0.303825	0.859521
C507	C	0.147027	-0.223452	0.413163
C508	C	0.647027	0.276548	0.913163
H509	H	0.146407	-0.205908	0.342840
H510	H	0.646407	0.294092	0.842840
H511	H	0.200310	-0.205921	0.342747
H512	H	0.700310	0.294079	0.842747
H513	H	0.143440	-0.156470	0.353269
H514	H	0.643440	0.343530	0.853269
H515	H	0.163710	-0.263162	0.419457
H516	H	0.663710	0.236838	0.919457
H517	H	0.106868	-0.213666	0.429910
H518	H	0.606868	0.286334	0.929910
O519	O	0.084332	-0.211463	0.593539
O520	O	0.584332	0.288537	1.093539
C521	C	0.046012	-0.216721	0.675624
C522	C	0.546012	0.283279	1.175624
C523	C	0.077363	-0.243965	0.640133
C524	C	0.577363	0.256035	1.140133
H525	H	0.040376	-0.242987	0.713304
H526	H	0.540376	0.257013	1.213304
H527	H	0.010299	-0.193524	0.669979
H528	H	0.510299	0.306476	1.169979
H529	H	0.064182	-0.193477	0.669861
H530	H	0.564182	0.306523	1.169861
H531	H	0.059235	-0.267234	0.645875
H532	H	0.559235	0.232766	1.145875
H533	H	0.113074	-0.267132	0.645788
H534	H	0.613074	0.232868	1.145788
H535	H	0.118851	-0.305270	0.618371
H536	H	0.618851	0.194730	1.118371
O537	O	-0.063473	-0.483597	0.161568
O538	O	0.436527	0.016403	0.661568
C539	C	-0.105347	-0.404987	0.166760
C540	C	0.394653	0.095013	0.666760
C541	C	-0.092189	-0.458631	0.194039
C542	C	0.407811	0.041369	0.694039
H543	H	-0.128557	-0.384786	0.193002
H544	H	0.371443	0.115214	0.693002
H545	H	-0.125524	-0.395182	0.143500
H546	H	0.374476	0.104818	0.643500
H547	H	-0.071668	-0.395278	0.143579
H548	H	0.428332	0.104722	0.643579
H549	H	-0.125843	-0.468378	0.217247
H550	H	0.374157	0.031622	0.717247
H551	H	-0.071994	-0.468406	0.217270
H552	H	0.428006	0.031594	0.717270
H553	H	0.011877	-0.638258	0.165483
H554	H	0.511877	-0.138258	0.665483
O555	O	-0.096204	-0.516161	0.259281
O556	O	0.403796	-0.016161	0.759281
C557	C	-0.171735	-0.487751	0.315199
C558	C	0.328265	0.012249	0.815199
C559	C	-0.140323	-0.523238	0.287950
C560	C	0.359677	-0.023238	0.787950
H561	H	-0.207408	-0.493467	0.338392
H562	H	0.292592	0.006533	0.838392
H563	H	-0.177449	-0.450059	0.288954
H564	H	0.322551	0.049941	0.788954
H565	H	-0.153586	-0.493475	0.338448
H566	H	0.346414	0.006525	0.838448
H567	H	-0.158445	-0.517557	0.264701
H568	H	0.341555	-0.017557	0.764701
H569	H	-0.134608	-0.560917	0.314221
H570	H	0.365392	-0.060917	0.814221
H571	H	-0.018232	-0.668197	0.255455
H572	H	0.481768	-0.168197	0.755455
H573	H	-0.061773	-0.491265	0.327657
H574	H	0.438227	0.008735	0.827657
O575	O	0.016050	-0.643353	0.405694
O576	O	0.516050	-0.143353	0.905694
C577	C	0.089009	-0.707561	0.412141
C578	C	0.589009	-0.207561	0.912141
C579	C	0.057694	-0.672060	0.380719
C580	C	0.557694	-0.172060	0.880719
H581	H	0.122689	-0.730773	0.391957
H582	H	0.622689	-0.230773	0.891957
H583	H	0.068806	-0.730786	0.445768
H584	H	0.568806	-0.230786	0.945768
H585	H	0.098727	-0.687380	0.421953
H586	H	0.598727	-0.187380	0.921953
H587	H	0.047967	-0.692202	0.370871
H588	H	0.547967	-0.192202	0.870871
H589	H	0.077914	-0.648836	0.347115
H590	H	0.577914	-0.148836	0.847115
O591	O	0.022796	-0.669818	0.303011
O592	O	0.522796	-0.169818	0.803011
C593	C	0.104137	-0.675136	0.274506
C594	C	0.604137	-0.175136	0.774506
C595	C	0.069050	-0.702346	0.300360
C596	C	0.569050	-0.202346	0.800360
H597	H	0.141542	-0.701423	0.272346
H598	H	0.641542	-0.201423	0.772346
H599	H	0.094197	-0.651923	0.294792
H600	H	0.594197	-0.151923	0.794792
H601	H	0.102648	-0.651911	0.237207
H602	H	0.602648	-0.151911	0.737207
H603	H	0.070521	-0.725597	0.337660
H604	H	0.570521	-0.225597	0.837660
H605	H	0.079002	-0.725529	0.280038
H606	H	0.579002	-0.225529	0.780038
O607	O	-0.016554	-0.675858	0.373118
O608	O	0.483446	-0.175858	0.873118
C609	C	-0.020454	-0.750125	0.435972
C610	C	0.479546	-0.250125	0.935972
C611	C	-0.033599	-0.696487	0.422784
C612	C	0.466401	-0.196487	0.922784
H613	H	-0.034237	-0.766818	0.476127
H614	H	0.465763	-0.266818	0.976127
H615	H	0.019704	-0.766910	0.422375
H616	H	0.519704	-0.266910	0.922375
H617	H	-0.037126	-0.756351	0.419170
H618	H	0.462874	-0.256351	0.919170
H619	H	-0.016958	-0.690218	0.439582
H620	H	0.483042	-0.190218	0.939582
H621	H	-0.073760	-0.679729	0.436373
H622	H	0.426240	-0.179729	0.936373
H623	H	0.047655	-0.763617	0.336709
H624	H	0.547655	-0.263617	0.836709
O625	O	-0.135476	-0.669657	0.363069
O626	O	0.364524	-0.169657	0.863069
C627	C	-0.213328	-0.674814	0.395036
C628	C	0.286672	-0.174814	0.895036
C629	C	-0.160114	-0.702114	0.387401
C630	C	0.339886	-0.202114	0.887401
H631	H	-0.233264	-0.701043	0.414718
H632	H	0.266736	-0.201043	0.914718
H633	H	-0.218808	-0.651618	0.359250
H634	H	0.281192	-0.151618	0.859250
H635	H	-0.227310	-0.651563	0.416823
H636	H	0.272690	-0.151563	0.916823
H637	H	-0.146096	-0.725390	0.365631
H638	H	0.353904	-0.225390	0.865631
H639	H	-0.154665	-0.725279	0.423203
H640	H	0.345335	-0.225279	0.923203
H641	H	-0.091707	-0.521211	0.297556
H642	H	0.408293	-0.021211	0.797556
H643	H	-0.134026	-0.631339	0.407719
H644	H	0.365974	-0.131339	0.907719
H645	H	-0.223768	-0.527810	0.290539
H646	H	0.276232	-0.027810	0.790539
H647	H	-0.133793	-0.557888	0.260690
H648	H	0.366207	-0.057888	0.760690
