data_functionalizedCrystal
_audit_creation_method	'MofGen! by Chris Wilmer'
_symmetry_space_group_name_H-M	'P1'
_symmetry_Int_Tables_number	1
_symmetry_cell_setting	triclinic
loop_
_symmetry_equiv_pos_as_xyz
  x,y,z
_cell_length_a	19.288856
_cell_length_b	13.448316
_cell_length_c	14.971486
_cell_angle_alpha	90.006811
_cell_angle_beta	96.626555
_cell_angle_gamma	89.991245
loop_
_atom_site_label
_atom_site_type_symbol
_atom_site_fract_x
_atom_site_fract_y
_atom_site_fract_z
O1	O	-0.921718	0.082738	0.111545
O2	O	-0.588384	0.416071	0.444879
O3	O	-0.255051	0.749404	0.778212
O4	O	-0.719505	0.082730	0.126605
O5	O	-0.386172	0.416063	0.459939
O6	O	-0.052839	0.749397	0.793272
O7	O	-0.826031	0.082727	-0.011154
O8	O	-0.492698	0.416060	0.322179
O9	O	-0.159365	0.749394	0.655512
O10	O	-0.815192	0.082741	0.249305
O11	O	-0.481858	0.416074	0.582638
O12	O	-0.148525	0.749407	0.915972
O13	O	-0.826018	-0.082657	-0.011163
O14	O	-0.492685	0.250676	0.322171
O15	O	-0.159351	0.584010	0.655504
O16	O	-0.719492	-0.082654	0.126597
O17	O	-0.386159	0.250679	0.459930
O18	O	-0.052825	0.584013	0.793264
O19	O	-0.921704	-0.082646	0.111537
O20	O	-0.588371	0.250687	0.444870
O21	O	-0.255038	0.584021	0.778204
Cu22	Cu	-0.820597	-0.097751	0.119066
Cu23	Cu	-0.487264	0.235582	0.452399
Cu24	Cu	-0.153930	0.568916	0.785733
Cu25	Cu	-0.820613	0.097835	0.119076
Cu26	Cu	-0.487279	0.431168	0.452409
Cu27	Cu	-0.153946	0.764501	0.785743
O28	O	-0.815178	-0.082643	0.249296
O29	O	-0.481845	0.250690	0.582630
O30	O	-0.148512	0.584024	0.915963
C31	C	-0.693621	0.000037	0.126118
C32	C	-0.360287	0.333370	0.459451
C33	C	-0.026954	0.666704	0.792784
C34	C	-0.616512	0.000034	0.124667
C35	C	-0.283179	0.333367	0.458000
C36	C	0.050155	0.666700	0.791334
N37	N	-0.820591	-0.235315	0.119059
N38	N	-0.487258	0.098018	0.452392
N39	N	-0.153924	0.431352	0.785725
C40	C	-0.052702	0.000023	0.195683
C41	C	0.280631	0.333356	0.529017
C42	C	0.613965	0.666690	0.862350
C43	C	-0.125153	0.000031	0.197054
C44	C	0.208180	0.333364	0.530388
C45	C	0.541513	0.666697	0.863721
C46	C	-0.169596	0.000025	0.116223
C47	C	0.163737	0.333359	0.449557
C48	C	0.497070	0.666692	0.782890
C49	C	-0.141583	0.000039	0.034015
C50	C	0.191750	0.333372	0.367349
C51	C	0.525083	0.666705	0.700682
C52	C	-0.069134	0.000041	0.032647
C53	C	0.264200	0.333375	0.365980
C54	C	0.597533	0.666708	0.699313
C55	C	-0.290666	-0.057919	0.055936
C56	C	0.042668	0.275414	0.389270
C57	C	0.376001	0.608747	0.722603
C58	C	-0.363114	-0.057928	0.057308
C59	C	-0.029781	0.275405	0.390642
C60	C	0.303553	0.608739	0.723975
C61	C	-0.393056	0.000022	0.120442
C62	C	-0.059723	0.333355	0.453775
C63	C	0.273610	0.666688	0.787108
C64	C	-0.350540	0.057968	0.182218
C65	C	-0.017207	0.391301	0.515551
C66	C	0.316126	0.724634	0.848884
C67	C	-0.278090	0.057970	0.180849
C68	C	0.055243	0.391304	0.514182
C69	C	0.388576	0.724637	0.847516
C70	C	-0.248157	0.000023	0.117698
C71	C	0.085176	0.333357	0.451032
C72	C	0.418510	0.666690	0.784365
C73	C	-0.499621	0.000024	0.204131
C74	C	-0.166288	0.333357	0.537464
C75	C	0.167046	0.666690	0.870798
C76	C	-0.572074	0.000037	0.205499
C77	C	-0.238740	0.333370	0.538832
C78	C	0.094593	0.666704	0.872165
C79	C	-0.588503	0.000035	0.042457
C80	C	-0.255169	0.333369	0.375791
C81	C	0.078164	0.666702	0.709124
C82	C	-0.516051	0.000032	0.041092
C83	C	-0.182718	0.333365	0.374425
C84	C	0.150616	0.666698	0.707759
C85	C	-0.471614	0.000021	0.121931
C86	C	-0.138281	0.333355	0.455265
C87	C	0.195052	0.666688	0.788598
C88	C	-0.867775	-0.287357	0.058084
C89	C	-0.534442	0.045977	0.391417
C90	C	-0.201109	0.379310	0.724750
C91	C	-0.867780	-0.391460	0.058083
C92	C	-0.534446	-0.058127	0.391416
C93	C	-0.201113	0.275207	0.724749
C94	C	-0.820602	-0.443520	0.119062
C95	C	-0.487269	-0.110186	0.452395
C96	C	-0.153936	0.223147	0.785729
C97	C	-0.773413	-0.391471	0.180040
C98	C	-0.440080	-0.058137	0.513373
C99	C	-0.106746	0.275196	0.846707
C100	C	-0.773406	-0.287369	0.180036
C101	C	-0.440072	0.045964	0.513369
C102	C	-0.106739	0.379297	0.846702
C103	C	-0.773432	-0.608451	0.180046
C104	C	-0.440099	-0.275118	0.513379
C105	C	-0.106766	0.058216	0.846713
C106	C	-0.773440	-0.712559	0.180051
C107	C	-0.440107	-0.379226	0.513385
C108	C	-0.106773	-0.045893	0.846718
C109	C	-0.867806	-0.712541	0.058093
C110	C	-0.534473	-0.379208	0.391426
C111	C	-0.201139	-0.045875	0.724760
C112	C	-0.867799	-0.608440	0.058089
C113	C	-0.534466	-0.275107	0.391422
C114	C	-0.201132	0.058227	0.724755
C115	C	-0.820610	-0.556398	0.119068
C116	C	-0.487277	-0.223065	0.452401
C117	C	-0.153943	0.110268	0.785735
C118	C	0.052411	0.000042	0.112027
C119	C	0.385744	0.333375	0.445360
C120	C	0.719078	0.666709	0.778694
C121	C	-0.024697	0.000031	0.113486
C122	C	0.308637	0.333364	0.446819
C123	C	0.641970	0.666697	0.780153
C124	C	-0.825540	0.000035	-0.044481
C125	C	-0.492207	0.333369	0.288853
C126	C	-0.158873	0.666702	0.622186
C127	C	-0.824087	0.000036	-0.143770
C128	C	-0.490754	0.333369	0.189564
C129	C	-0.157421	0.666703	0.522897
N130	N	-0.820624	0.235399	0.119076
N131	N	-0.487291	0.568732	0.452410
N132	N	-0.153958	0.902066	0.785743
C133	C	-0.886668	0.000038	-0.201336
C134	C	-0.553335	0.333371	0.131997
C135	C	-0.220002	0.666705	0.465331
C136	C	-0.885299	0.000048	-0.294628
C137	C	-0.551966	0.333381	0.038705
C138	C	-0.218633	0.666715	0.372039
C139	C	-0.821348	0.000049	-0.330352
C140	C	-0.488015	0.333382	0.002981
C141	C	-0.154682	0.666716	0.336315
C142	C	-0.758762	0.000050	-0.272778
C143	C	-0.425429	0.333384	0.060555
C144	C	-0.092096	0.666717	0.393888
C145	C	-0.760132	0.000047	-0.179488
C146	C	-0.426799	0.333381	0.153845
C147	C	-0.093466	0.666714	0.487178
C148	C	-0.755912	0.000054	-0.467225
C149	C	-0.422578	0.333387	-0.133892
C150	C	-0.089245	0.666720	0.199441
C151	C	-0.754541	0.000055	-0.560522
C152	C	-0.421208	0.333388	-0.227189
C153	C	-0.087875	0.666721	0.106145
C154	C	-0.881079	0.000054	-0.582365
C155	C	-0.547745	0.333388	-0.249032
C156	C	-0.214412	0.666721	0.084302
C157	C	-0.882449	0.000051	-0.489075
C158	C	-0.549115	0.333385	-0.155742
C159	C	-0.215782	0.666718	0.177592
C160	C	-0.819862	0.000051	-0.431508
C161	C	-0.486529	0.333384	-0.098174
C162	C	-0.153196	0.666717	0.235159
C163	C	-0.815670	0.000051	0.282623
C164	C	-0.482336	0.333384	0.615956
C165	C	-0.149003	0.666717	0.949289
C166	C	-0.817123	0.000056	0.381912
C167	C	-0.483789	0.333390	0.715245
C168	C	-0.150456	0.666723	1.048579
H169	H	-0.016526	0.000019	0.261509
H170	H	0.316808	0.333353	0.594843
H171	H	0.650141	0.666686	0.928176
H172	H	-0.702467	0.000040	-0.589605
H173	H	-0.369134	0.333373	-0.256272
H174	H	-0.035800	0.666706	0.077062
H175	H	-0.936259	0.000047	-0.341495
H176	H	-0.602926	0.333380	-0.008162
H177	H	-0.269593	0.666714	0.325171
H178	H	-0.934523	0.000043	-0.459992
H179	H	-0.601190	0.333377	-0.126658
H180	H	-0.267856	0.666710	0.206675
H181	H	-0.147960	0.000015	0.263991
H182	H	0.185374	0.333348	0.597325
H183	H	0.518707	0.666682	0.930658
Br184	Br	-0.709362	-0.216741	0.262786
Br185	Br	-0.376029	0.116592	0.596119
Br186	Br	-0.042696	0.449925	0.929452
H187	H	-0.906195	-0.244977	0.008431
H188	H	-0.572862	0.088357	0.341764
H189	H	-0.239529	0.421690	0.675098
H190	H	-0.624688	0.000039	-0.023357
H191	H	-0.291354	0.333372	0.309977
H192	H	0.041979	0.666706	0.643310
H193	H	-0.266294	-0.105111	0.004521
H194	H	0.067040	0.228222	0.337854
H195	H	0.400373	0.561556	0.671188
Br196	Br	-0.478041	0.000050	-0.070468
Br197	Br	-0.144707	0.333384	0.262866
Br198	Br	0.188626	0.666717	0.596199
Br199	Br	-0.031123	0.000058	-0.078916
Br200	Br	0.302210	0.333391	0.254418
Br201	Br	0.635543	0.666724	0.587751
Br202	Br	-0.931831	-0.537784	-0.024661
Br203	Br	-0.598497	-0.204451	0.308673
Br204	Br	-0.265164	0.128883	0.642006
H205	H	-0.397725	-0.105116	0.007011
H206	H	-0.064392	0.228217	0.340344
H207	H	0.268942	0.561550	0.673677
Br208	Br	-0.709411	-0.783204	0.262813
Br209	Br	-0.376077	-0.449871	0.596146
Br210	Br	-0.042744	-0.116538	0.929479
H211	H	-0.243477	0.105154	0.231148
H212	H	0.089857	0.438487	0.564481
H213	H	0.423190	0.771820	0.897815
Br214	Br	-0.675197	0.000053	-0.101361
Br215	Br	-0.341864	0.333386	0.231972
Br216	Br	-0.008531	0.666720	0.565306
H217	H	-0.594873	0.000039	0.272436
H218	H	-0.261540	0.333372	0.605769
H219	H	0.071794	0.666706	0.939103
Br220	Br	-0.973464	0.000022	-0.152863
Br221	Br	-0.640130	0.333355	0.180470
Br222	Br	-0.306797	0.666689	0.513804
H223	H	-0.906228	-0.754920	0.008442
H224	H	-0.572895	-0.421587	0.341775
H225	H	-0.239562	-0.088253	0.675108
Br226	Br	-0.391165	0.136604	0.267917
Br227	Br	-0.057831	0.469938	0.601250
Br228	Br	0.275502	0.803271	0.934583
H229	H	-0.463438	0.000017	0.269955
H230	H	-0.130105	0.333350	0.603289
H231	H	0.203228	0.666683	0.936622
H232	H	-0.177774	0.000037	-0.031798
H233	H	0.155560	0.333371	0.301536
H234	H	0.488893	0.666704	0.634869
H235	H	-0.932039	0.000058	-0.629241
H236	H	-0.598705	0.333391	-0.295908
H237	H	-0.265372	0.666724	0.037426
H238	H	-0.734997	-0.433864	0.229688
H239	H	-0.401663	-0.100530	0.563021
H240	H	-0.068330	0.232803	0.896354
Br241	Br	-0.931814	-0.462091	-0.024673
Br242	Br	-0.598481	-0.128758	0.308660
Br243	Br	-0.265147	0.204575	0.641993
Br244	Br	-0.671970	0.000068	-0.321260
Br245	Br	-0.338637	0.333402	0.012074
Br246	Br	-0.005304	0.666735	0.345407
Br247	Br	-0.709386	-0.537826	0.262801
Br248	Br	-0.376052	-0.204493	0.596135
Br249	Br	-0.042719	0.128841	0.929468
H250	H	-0.704947	0.000056	-0.420356
H251	H	-0.371614	0.333389	-0.087023
H252	H	-0.038280	0.666722	0.246311
