data_functionalizedCrystal
_audit_creation_method	'MofGen! by Chris Wilmer'
_symmetry_space_group_name_H-M	'P1'
_symmetry_Int_Tables_number	1
_symmetry_cell_setting	triclinic
loop_
_symmetry_equiv_pos_as_xyz
  x,y,z
_cell_length_a	17.640280
_cell_length_b	17.640112
_cell_length_c	17.640968
_cell_angle_alpha	92.139080
_cell_angle_beta	114.317439
_cell_angle_gamma	87.815931
loop_
_atom_site_label
_atom_site_type_symbol
_atom_site_fract_x
_atom_site_fract_y
_atom_site_fract_z
Zn1	Zn	-0.023073	-1.251359	0.189698
Zn2	Zn	-0.188752	-1.251298	0.024069
Zn3	Zn	-0.075311	-1.106797	0.076159
Zn4	Zn	-0.178182	-1.148399	0.179117
O5	O	-0.116329	-1.189463	0.117261
O6	O	-0.027613	-1.354914	0.150355
O7	O	-0.199989	-1.214694	-0.081425
O8	O	0.044008	-1.108588	0.117448
O9	O	-0.149337	-1.354870	0.028669
O10	O	0.082386	-1.214797	0.200865
O11	O	-0.116644	-1.108529	-0.043155
O12	O	-0.106394	-1.008752	0.107188
O13	O	-0.131321	-1.179493	0.292925
O14	O	-0.181973	-1.039317	0.182831
O15	O	-0.017364	-1.255137	0.300699
O16	O	-0.299739	-1.255033	0.018409
O17	O	-0.291973	-1.179434	0.132322
C18	C	-0.324990	-1.221764	0.068579
C19	C	-0.414238	-1.235655	0.047768
C20	C	-0.148705	-0.997182	0.149514
C21	C	-0.162571	-0.914929	0.163327
C22	C	-0.687787	-1.084287	0.275600
C23	C	-0.771655	-1.097337	0.256019
C24	C	-0.779643	-1.176134	0.137496
C25	C	-0.695773	-1.163094	0.157069
C26	C	-0.649852	-1.117169	0.226122
C27	C	-0.657837	-1.195976	0.107591
C28	C	-0.573976	-1.182933	0.127160
C29	C	-0.528050	-1.137009	0.196208
C30	C	-0.565990	-1.104127	0.245691
C31	C	-0.703761	-1.241896	0.038535
C32	C	-0.665825	-1.274778	-0.010944
C33	C	-0.581961	-1.261740	0.008629
C34	C	-0.536035	-1.215815	0.077677
C35	C	-0.544020	-1.294622	-0.040854
C36	C	-0.460159	-1.281579	-0.021285
C37	C	-0.452173	-1.202773	0.097246
C38	C	-0.067336	-1.221962	0.326772
C39	C	-0.046458	-1.235811	0.416053
C40	C	0.093153	-1.157059	0.166147
C41	C	0.182422	-1.143250	0.186980
C42	C	-0.083827	-1.382495	0.084882
C43	C	-0.069977	-1.464754	0.071084
C44	C	-0.010979	-0.564743	0.012337
C45	C	-0.024022	-0.487458	0.025323
C46	C	-0.102905	-0.519334	0.103880
C47	C	-0.089865	-0.596623	0.090904
C48	C	-0.043903	-0.619321	0.045131
C49	C	-0.122789	-0.651201	0.123697
C50	C	-0.109754	-0.728483	0.110718
C51	C	-0.063796	-0.751188	0.064946
C52	C	-0.030868	-0.696603	0.032152
C53	C	-0.168756	-0.628502	0.169465
C54	C	-0.201680	-0.683080	0.202259
C55	C	-0.188640	-0.760364	0.189285
C56	C	-0.142682	-0.783068	0.143512
C57	C	-0.221568	-0.814949	0.222079
C58	C	-0.208534	-0.892231	0.209100
C59	C	-0.129647	-0.860351	0.130533
C60	C	-0.165067	-1.157124	-0.091429
C61	C	-0.185695	-1.143383	-0.180681
C62	C	-0.274453	-1.084469	0.689444
C63	C	-0.254822	-1.097496	0.773337
C64	C	-0.136168	-1.176258	0.781421
C65	C	-0.155787	-1.163234	0.697528
C66	C	-0.224930	-1.117340	0.651546
C67	C	-0.106264	-1.196105	0.659630
C68	C	-0.125884	-1.183085	0.575743
C69	C	-0.195026	-1.137195	0.529754
C70	C	-0.244550	-1.104320	0.567659
C71	C	-0.037124	-1.242004	0.705612
C72	C	0.012398	-1.274874	0.667713
C73	C	-0.007218	-1.261851	0.583827
C74	C	-0.076360	-1.215960	0.537838
C75	C	0.042306	-1.294725	0.545922
C76	C	0.022686	-1.281706	0.462035
C77	C	-0.095980	-1.202940	0.453951
H78	H	-0.414780	-1.165383	0.153481
O79	O	-0.163057	-1.158255	0.409290
C80	C	-0.136741	-1.095859	0.379436
H81	H	-0.068343	-1.085422	0.420236
H82	H	-0.175601	-1.043254	0.381270
H83	H	-0.145001	-1.108444	0.312662
O84	O	-0.240619	-0.945280	0.240817
C85	C	-0.295579	-0.990906	0.175410
H86	H	-0.319170	-0.958540	0.114918
H87	H	-0.350507	-1.005868	0.189782
H88	H	-0.261503	-1.045203	0.168639
H89	H	-0.300838	-1.066927	0.530225
O90	O	-0.824367	-1.220740	0.070463
C91	C	-0.906530	-1.225178	0.063780
H92	H	-0.907595	-1.212299	0.127147
H93	H	-0.930291	-1.284722	0.041640
H94	H	-0.948142	-1.182104	0.017150
O95	O	-0.341682	-1.039909	0.644875
C96	C	-0.381181	-1.013674	0.696315
H97	H	-0.364855	-1.053684	0.750390
H98	H	-0.451458	-1.011834	0.658636
H99	H	-0.359173	-0.954292	0.721512
O100	O	-0.302984	-1.065682	0.810155
C101	C	-0.336396	-1.123369	0.839526
H102	H	-0.337462	-1.178501	0.803304
H103	H	-0.402485	-1.106310	0.830553
H104	H	-0.296261	-1.131944	0.908467
O105	O	-0.069013	-1.220791	0.826221
C106	C	-0.062327	-1.225253	0.908382
H107	H	-0.095570	-1.173990	0.923288
H108	H	0.006132	-1.225912	0.953461
H109	H	-0.092136	-1.279463	0.914837
O110	O	-0.147463	-0.497370	0.148456
C111	C	-0.108095	-0.525976	0.229440
H112	H	-0.067366	-0.577572	0.228929
H113	H	-0.157254	-0.543188	0.251395
H114	H	-0.067834	-0.480300	0.273483
O115	O	-0.050985	-0.826238	0.052374
C116	C	0.035159	-0.843361	0.086761
H117	H	0.070735	-0.789532	0.091392
H118	H	0.049741	-0.887217	0.045214
H119	H	0.054660	-0.867180	0.151479
H120	H	0.002799	-0.443020	-0.001378
H121	H	-0.258998	-0.796456	0.259340
O122	O	-0.588523	-1.339220	-0.107981
C123	C	-0.537050	-1.365464	-0.147444
H124	H	-0.483054	-1.325430	-0.131222
H125	H	-0.574743	-1.367357	-0.217712
H126	H	-0.511730	-1.424825	-0.125311
O127	O	-0.423184	-1.313562	-0.069220
C128	C	-0.355887	-1.360887	-0.020129
H129	H	-0.333511	-1.342226	0.048035
H130	H	-0.302887	-1.356583	-0.040744
H131	H	-0.376844	-1.422121	-0.027982
H132	H	-0.459767	-1.126385	0.212135
H133	H	-0.211002	-1.126598	0.461447
O134	O	-0.018209	-1.254679	0.787065
C135	C	-0.085419	-1.289956	0.793941
H136	H	-0.145117	-1.276960	0.736930
H137	H	-0.092182	-1.267495	0.852338
H138	H	-0.073307	-1.353935	0.798117
O139	O	-0.808644	-1.065425	0.303979
C140	C	-0.892504	-1.086798	0.271915
H141	H	-0.914348	-1.103254	0.203204
H142	H	-0.932498	-1.037160	0.279160
H143	H	-0.898478	-1.137261	0.307450
H144	H	-0.772045	-1.252515	0.022606
H145	H	0.063013	-1.308471	0.431178
O146	O	0.079553	-1.319407	0.712513
C147	C	0.086239	-1.323869	0.794675
H148	H	0.052996	-1.272607	0.809580
H149	H	0.154698	-1.324529	0.839753
H150	H	0.056430	-1.378080	0.801130
H151	H	0.098597	-1.332098	0.583371
O152	O	-0.246448	-0.661069	0.246611
C153	C	-0.327406	-0.689627	0.207110
H154	H	-0.342802	-0.701511	0.138441
H155	H	-0.374058	-0.646022	0.213252
H156	H	-0.330823	-0.744437	0.237693
O157	O	-0.521424	-1.059593	0.312861
C158	C	-0.520427	-1.091329	0.385454
H159	H	-0.576111	-1.129496	0.368170
H160	H	-0.523908	-1.043928	0.429722
H161	H	-0.460456	-1.126224	0.417172
O162	O	-0.643298	-1.039641	0.342696
C163	C	-0.694752	-1.013438	0.382196
H164	H	-0.762664	-1.015080	0.335770
H165	H	-0.678389	-0.952688	0.406153
H166	H	-0.684812	-1.051353	0.436604
H167	H	-0.092205	-0.878832	0.093275
H168	H	-0.703226	-1.312167	-0.067168
H169	H	0.006574	-0.715084	-0.005106
H170	H	-0.179368	-0.565572	0.180031
O171	O	0.033655	-0.586668	-0.032181
C172	C	0.059942	-0.521925	-0.058327
H173	H	0.017105	-0.471488	-0.059578
H174	H	0.057565	-0.533084	-0.123329
H175	H	0.126409	-0.508851	-0.013217
