data_functionalizedCrystal
_audit_creation_method	'MofGen! by Chris Wilmer'
_symmetry_space_group_name_H-M	'P1'
_symmetry_Int_Tables_number	1
_symmetry_cell_setting	triclinic
loop_
_symmetry_equiv_pos_as_xyz
  x,y,z
_cell_length_a	10.540539
_cell_length_b	16.176319
_cell_length_c	17.699083
_cell_angle_alpha	90.004339
_cell_angle_beta	83.904253
_cell_angle_gamma	90.003933
loop_
_atom_site_label
_atom_site_type_symbol
_atom_site_fract_x
_atom_site_fract_y
_atom_site_fract_z
O1	O	1.683940	0.068709	0.106658
O2	O	1.314343	0.068720	0.116708
O3	O	1.509583	0.068707	0.001562
O4	O	1.488699	0.068722	0.221804
O5	O	1.509560	-0.068786	0.001561
O6	O	1.314320	-0.068773	0.116707
O7	O	1.683917	-0.068784	0.106658
Cu8	Cu	1.499116	-0.081333	0.111682
Cu9	Cu	1.499143	0.081269	0.111683
O10	O	1.488676	-0.068771	0.221804
C11	C	1.267042	-0.000026	0.115954
C12	C	1.126135	-0.000022	0.113699
N13	N	1.499106	-0.195698	0.111682
C14	C	1.508823	-0.000040	-0.026641
C15	C	1.506578	-0.000040	-0.110673
C16	C	0.944289	-0.000349	0.027300
C17	C	1.090865	-0.000030	0.029586
C18	C	1.063735	0.078493	0.154178
C19	C	0.917243	0.078550	0.151307
C20	C	0.916698	-0.077805	0.153018
C21	C	1.063665	-0.078834	0.153793
C22	C	1.731217	-0.000037	0.107412
C23	C	1.872124	-0.000035	0.109666
C24	C	1.575942	-0.238958	0.158030
C25	C	1.575956	-0.325505	0.158027
C26	C	1.499126	-0.368791	0.111679
C27	C	1.422287	-0.325525	0.065326
C28	C	1.422281	-0.238979	0.065325
C29	C	1.422310	-0.674553	0.065327
C30	C	1.422319	-0.761105	0.065333
C31	C	1.575986	-0.761078	0.158029
C32	C	1.575980	-0.674533	0.158028
C33	C	1.499146	-0.631275	0.111672
C34	C	1.499134	-0.537431	0.111674
C35	C	1.499130	-0.462633	0.111680
N36	N	1.499163	0.195634	0.111678
C37	C	1.621180	-0.000044	-0.158549
C38	C	1.619064	-0.000037	-0.237506
C39	C	1.502343	-0.000031	-0.268586
C40	C	1.387732	-0.000024	-0.220704
C41	C	1.389851	-0.000026	-0.141748
C42	C	1.379187	-0.000017	-0.539122
C43	C	1.377078	-0.000018	-0.618084
C44	C	1.608400	-0.000029	-0.634880
C45	C	1.610518	-0.000030	-0.555925
C46	C	1.495908	-0.000019	-0.508050
C47	C	1.498205	-0.000025	-0.422436
C48	C	1.500045	-0.000031	-0.354198
C49	C	1.489436	-0.000022	0.250006
C50	C	1.491681	-0.000017	0.334038
H51	H	1.134052	-0.056314	-0.002265
C52	C	1.660432	-0.373086	0.209044
N53	N	1.724045	-0.408924	0.247482
C54	C	1.660502	-0.626923	0.209012
N55	N	1.724172	-0.591065	0.247411
H56	H	1.282024	-0.000015	-0.643386
H57	H	0.916302	-0.056657	-0.005930
C58	C	1.738919	-0.000036	-0.521742
N59	N	1.835634	-0.000037	-0.495997
H60	H	1.638551	-0.796309	0.195772
C61	C	1.337802	-0.808718	0.014341
N62	N	1.274146	-0.844580	-0.024064
H63	H	1.359748	-0.639343	0.027581
H64	H	1.105159	-0.136919	0.124221
H65	H	1.716228	-0.000054	-0.133251
H66	H	1.285864	-0.000008	-0.500152
H67	H	1.084959	0.081419	0.215949
H68	H	1.701721	-0.000033	-0.673870
C69	C	1.337752	-0.191394	0.014340
N70	N	1.274084	-0.155555	-0.024064
C71	C	1.745135	-0.000055	-0.290167
N72	N	1.840098	-0.000073	-0.329831
H73	H	1.292697	-0.000014	-0.246015
H74	H	1.296530	-0.000022	-0.102768
H75	H	0.868359	-0.078331	0.213773
C76	C	0.904292	0.075281	-0.017409
N77	N	0.874162	0.132245	-0.051083
H78	H	1.086769	-0.083570	0.215117
H79	H	1.359737	-0.360775	0.027585
C80	C	1.148071	0.076135	-0.013743
N81	N	1.191158	0.133506	-0.046378
C82	C	0.879884	0.157829	0.110882
N83	N	0.851751	0.217541	0.080430
H84	H	1.638499	-0.203720	0.195776
C85	C	0.850942	0.083388	0.233028
N86	N	0.801010	0.087040	0.294580
H87	H	1.106848	0.136922	0.126059
C88	C	0.874753	-0.158206	0.116238
N89	N	0.843163	-0.218760	0.088526
