data_functionalizedCrystal
_audit_creation_method	'MofGen! by Chris Wilmer'
_symmetry_space_group_name_H-M	'P1'
_symmetry_Int_Tables_number	1
_symmetry_cell_setting	triclinic
loop_
_symmetry_equiv_pos_as_xyz
  x,y,z
_cell_length_a	10.489741
_cell_length_b	14.853567
_cell_length_c	9.565339
_cell_angle_alpha	89.999413
_cell_angle_beta	89.999484
_cell_angle_gamma	95.912948
loop_
_atom_site_label
_atom_site_type_symbol
_atom_site_fract_x
_atom_site_fract_y
_atom_site_fract_z
O1	O	0.166520	-1.197298	0.116163
O2	O	0.186357	-0.934950	0.116187
O3	O	-0.009226	-1.072093	0.116166
O4	O	0.362103	-1.060154	0.116184
O5	O	-0.009214	-1.072083	-0.116354
O6	O	0.186369	-0.934939	-0.116334
O7	O	0.166532	-1.197287	-0.116357
Zn8	Zn	0.176453	-1.066111	-0.153263
Zn9	Zn	0.176437	-1.066126	0.153092
O10	O	0.362115	-1.060143	-0.116337
C11	C	0.185464	-0.901351	-0.000070
C12	C	0.182771	-0.801252	-0.000062
C13	C	-0.056742	-1.071186	-0.000093
C14	C	-0.198341	-1.068488	-0.000091
N15	N	0.176463	-1.066108	-0.362342
C16	C	-0.265502	-0.981228	-0.000072
C17	C	-0.358081	-1.022444	-0.114721
C18	C	-0.358068	-1.022475	0.114526
C19	C	-0.289055	-1.109740	-0.114833
C20	C	-0.289032	-1.109759	0.114516
C21	C	-0.381585	-1.151038	-0.000160
C22	C	0.409631	-1.061051	-0.000074
C23	C	0.551230	-1.063748	-0.000068
C24	C	0.167425	-1.230886	-0.000097
C25	C	0.170118	-1.330985	-0.000097
C26	C	0.055204	-0.388003	-0.000099
C27	C	0.287562	-0.368025	-0.000086
C28	C	0.290094	-0.462072	-0.000082
C29	C	0.175180	-0.519090	-0.000084
C30	C	0.057733	-0.482060	-0.000090
C31	C	0.407539	-0.499110	-0.000061
C32	C	0.410077	-0.593163	-0.000055
C33	C	0.295161	-0.650183	-0.000067
C34	C	0.177709	-0.613147	-0.000075
C35	C	0.062795	-0.670164	-0.000077
C36	C	-0.054658	-0.633130	-0.000095
C37	C	-0.057183	-0.539079	-0.000102
C38	C	0.297685	-0.744234	-0.000060
C39	C	0.065324	-0.764221	-0.000068
C40	C	0.266884	-1.002664	-0.453536
C41	C	0.291778	-1.084293	-0.546721
C42	C	0.151578	-0.984514	-0.546713
C43	C	0.201414	-1.147779	-0.453476
C44	C	0.061165	-1.047945	-0.453459
C45	C	0.086010	-1.129633	-0.546602
N46	N	0.176416	-1.066136	0.362172
H47	H	-0.215045	-0.909483	-0.000181
H48	H	0.222558	-1.216809	-0.412693
C49	C	-0.017324	-1.202204	-0.601474
C50	C	-0.010751	-1.302494	-0.564310
C51	C	-0.114079	-1.375067	-0.619186
C52	C	-0.223979	-1.347348	-0.711225
C53	C	-0.230556	-1.247053	-0.748394
C54	C	-0.127228	-1.174481	-0.693519
H55	H	0.070607	-1.323017	-0.496173
H56	H	-0.109210	-1.449312	-0.591670
H57	H	-0.300468	-1.401071	-0.751847
H58	H	-0.311914	-1.226530	-0.816531
H59	H	-0.132098	-1.100236	-0.721034
C60	C	-0.399424	-0.972563	-0.245650
C61	C	-0.347667	-0.873070	-0.270828
C62	C	-0.389005	-0.823183	-0.401750
C63	C	-0.482098	-0.872788	-0.507495
C64	C	-0.533860	-0.972286	-0.482320
C65	C	-0.492522	-1.022174	-0.351398
H66	H	-0.278749	-0.836344	-0.192547
H67	H	-0.350687	-0.749527	-0.420386
H68	H	-0.512699	-0.835859	-0.604411
H69	H	-0.602778	-1.009012	-0.560601
H70	H	-0.530840	-1.095829	-0.332762
C71	C	0.123158	-0.891283	-0.602039
C72	C	0.213451	-0.806192	-0.565307
C73	C	0.185043	-0.712960	-0.620628
C74	C	0.066342	-0.704818	-0.712681
C75	C	-0.023960	-0.789912	-0.749419
C76	C	0.004448	-0.883145	-0.694098
H77	H	0.301329	-0.812216	-0.497159
H78	H	0.251891	-0.649967	-0.593432
H79	H	0.045312	-0.635802	-0.753633
H80	H	-0.111837	-0.783888	-0.817567
H81	H	-0.062400	-0.946137	-0.721293
C82	C	-0.247968	-1.159567	-0.245929
C83	C	-0.105495	-1.171291	-0.270197
C84	C	-0.064404	-1.221113	-0.401292
C85	C	-0.165787	-1.259210	-0.508119
C86	C	-0.308269	-1.247486	-0.483854
C87	C	-0.349360	-1.197664	-0.352759
H88	H	-0.030437	-1.143089	-0.191114
H89	H	0.041071	-1.229791	-0.419254
H90	H	-0.135369	-1.296090	-0.605164
H91	H	-0.383327	-1.275688	-0.562937
H92	H	-0.454835	-1.188986	-0.334797
H93	H	-0.431815	-1.222848	-0.000230
H94	H	0.343420	-0.949061	-0.412673
H95	H	-0.258407	-1.146654	0.211441
H96	H	-0.388622	-0.985547	0.211461
H97	H	-0.028255	-0.810640	-0.000075
H98	H	0.389263	-1.099674	-0.587685
H99	H	-0.036289	-1.032539	-0.412463
H100	H	0.501096	-0.452680	-0.000045
H101	H	-0.148221	-0.679566	-0.000087
H102	H	-0.152807	-0.508917	-0.000150
H103	H	-0.040424	-0.357845	-0.000119
H104	H	0.381119	-0.321596	-0.000073
H105	H	0.505714	-0.623308	-0.000040
H106	H	0.393314	-0.774383	-0.000047
