data_functionalizedCrystal
_audit_creation_method	'MofGen! by Chris Wilmer'
_symmetry_space_group_name_H-M	'P1'
_symmetry_Int_Tables_number	1
_symmetry_cell_setting	triclinic
loop_
_symmetry_equiv_pos_as_xyz
  x,y,z
_cell_length_a	21.295417
_cell_length_b	17.077404
_cell_length_c	17.077396
_cell_angle_alpha	89.981638
_cell_angle_beta	89.966808
_cell_angle_gamma	90.028477
loop_
_atom_site_label
_atom_site_type_symbol
_atom_site_fract_x
_atom_site_fract_y
_atom_site_fract_z
Zn1	Zn	-0.250643	1.200013	-0.443793
Zn2	Zn	0.249357	1.700013	0.056207
Zn3	Zn	-0.355916	1.199903	-0.312516
Zn4	Zn	0.144084	1.699903	0.187484
Zn5	Zn	-0.250661	1.068745	-0.312544
Zn6	Zn	0.249339	1.568745	0.187456
Zn7	Zn	-0.355875	1.068695	-0.443743
Zn8	Zn	0.144125	1.568695	0.056257
O9	O	-0.303274	1.134339	-0.378149
O10	O	0.196726	1.634339	0.121851
O11	O	-0.264618	1.309845	-0.426389
O12	O	0.235382	1.809845	0.073611
O13	O	-0.341979	1.182479	-0.202673
O14	O	0.158021	1.682479	0.297327
O15	O	-0.162569	1.086225	-0.329987
O16	O	0.337431	1.586225	0.170013
O17	O	-0.341962	1.309764	-0.329940
O18	O	0.158038	1.809764	0.170060
O19	O	-0.162556	1.182667	-0.426415
O20	O	0.337444	1.682667	0.073585
O21	O	-0.264648	1.086118	-0.202693
O22	O	0.235352	1.586118	0.297307
O23	O	-0.264608	0.958891	-0.329938
O24	O	0.235392	1.458891	0.170062
O25	O	-0.341891	1.086140	-0.553596
O26	O	0.158109	1.586140	-0.053596
O27	O	-0.341908	0.958855	-0.426329
O28	O	0.158092	1.458855	0.073671
O29	O	-0.264578	1.182619	-0.553633
O30	O	0.235422	1.682619	-0.053633
O31	O	-0.444000	1.182431	-0.329891
O32	O	0.056000	1.682431	0.170109
O33	O	-0.443970	1.086033	-0.426302
O34	O	0.056030	1.586033	0.073698
C35	C	-0.303256	0.930391	-0.378131
C36	C	0.196744	1.430391	0.121869
C37	C	-0.303264	0.843141	-0.378142
C38	C	0.196736	1.343141	0.121858
C39	C	-0.263062	0.802194	-0.428440
C40	C	0.236938	1.302194	0.071560
C41	C	-0.263066	0.720214	-0.428443
C42	C	0.236934	1.220214	0.071557
C43	C	-0.303275	0.679182	-0.378153
C44	C	0.196725	1.179182	0.121847
C45	C	-0.343478	0.720135	-0.327850
C46	C	0.156522	1.220135	0.172150
C47	C	-0.343471	0.802114	-0.327843
C48	C	0.156529	1.302114	0.172157
C49	C	-0.343493	0.549265	-0.327870
C50	C	0.156507	1.049265	0.172130
C51	C	-0.343501	0.467280	-0.327877
C52	C	0.156499	0.967280	0.172123
C53	C	-0.263088	0.467365	-0.428470
C54	C	0.236912	0.967365	0.071530
C55	C	-0.263081	0.549344	-0.428463
C56	C	0.236919	1.049344	0.071537
C57	C	-0.303285	0.590291	-0.378161
C58	C	0.196715	1.090291	0.121839
C59	C	-0.466826	1.134236	-0.378105
C60	C	0.033174	1.634236	0.121895
C61	C	-0.536794	1.134264	-0.378113
C62	C	-0.036794	1.634264	0.121887
C63	C	-0.569655	1.184503	-0.327963
C64	C	-0.069655	1.684503	0.172037
C65	C	-0.635398	1.184539	-0.327981
C66	C	-0.135398	1.684539	0.172019
C67	C	-0.668276	1.134323	-0.378140
C68	C	-0.168276	1.634323	0.121860
C69	C	-0.635407	1.084081	-0.428300
C70	C	-0.135407	1.584081	0.071700
C71	C	-0.569665	1.084051	-0.428286
C72	C	-0.069665	1.584051	0.071714
N73	N	-0.771540	1.065655	-0.384118
N74	N	-0.271540	1.565655	0.115882
N75	N	-0.833991	1.065685	-0.384127
N76	N	-0.333991	1.565685	0.115873
C77	C	-0.866351	1.134411	-0.378185
C78	C	-0.366351	1.634411	0.121815
N79	N	-0.833900	1.203107	-0.372220
N80	N	-0.333900	1.703107	0.127780
N81	N	-0.771443	1.203076	-0.372207
N82	N	-0.271443	1.703076	0.127793
C83	C	-0.739562	1.134350	-0.378161
C84	C	-0.239562	1.634350	0.121839
C85	C	-0.970498	1.184694	-0.328052
C86	C	-0.470498	1.684694	0.171948
C87	C	-1.036242	1.184732	-0.328075
C88	C	-0.536242	1.684732	0.171925
C89	C	-1.036249	1.084267	-0.428390
C90	C	-0.536249	1.584267	0.071610
C91	C	-0.970507	1.084236	-0.428371
C92	C	-0.470507	1.584236	0.071629
C93	C	-0.937635	1.134448	-0.378198
C94	C	-0.437635	1.634448	0.121802
C95	C	-0.139084	1.134464	-0.378210
C96	C	0.360916	1.634464	0.121790
C97	C	-0.069116	1.134517	-0.378236
C98	C	0.430884	1.634517	0.121764
C99	C	-0.303228	1.134386	-0.582893
C100	C	0.196772	1.634386	-0.082893
C101	C	-0.303208	1.134407	-0.670143
C102	C	0.196792	1.634407	-0.170143
C103	C	-0.303292	1.339083	-0.378167
C104	C	0.196708	1.839083	0.121833
C105	C	-0.303300	1.426333	-0.378175
C106	C	0.196700	1.926333	0.121825
C107	C	-0.262948	1.184645	-0.711154
C108	C	0.237052	1.684645	-0.211154
C109	C	-0.262927	1.184654	-0.793134
C110	C	0.237073	1.684654	-0.293134
C111	C	-0.303170	1.134429	-0.834103
C112	C	0.196830	1.634429	-0.334103
C113	C	-0.343432	1.084185	-0.793086
C114	C	0.156568	1.584185	-0.293086
C115	C	-0.343449	1.084172	-0.711107
C116	C	0.156551	1.584172	-0.211107
C117	C	-0.343394	1.084217	-0.963956
C118	C	0.156606	1.584217	-0.463956
C119	C	-0.343377	1.084231	-1.045941
C120	C	0.156623	1.584231	-0.545941
C121	C	-0.262871	1.184699	-1.045984
C122	C	0.237129	1.684699	-0.545984
C123	C	-0.262889	1.184686	-0.964005
C124	C	0.237111	1.684686	-0.464005
C125	C	-0.303152	1.134443	-0.922994
C126	C	0.196848	1.634443	-0.422994
C127	C	-0.303275	1.134337	-0.174201
C128	C	0.196725	1.634337	0.325799
C129	C	-0.303117	1.134469	-0.086952
C130	C	0.196883	1.634469	0.413048
H131	H	-0.376214	0.686720	-0.286899
H132	H	0.123786	1.186720	0.213101
H133	H	-0.230179	1.225547	-0.677803
H134	H	0.269821	1.725547	-0.177803
Cl135	Cl	-0.676738	1.020956	-0.491361
Cl136	Cl	-0.176738	1.520956	0.008639
H137	H	-0.376227	1.043255	-0.677717
H138	H	0.123773	1.543255	-0.177717
H139	H	-0.230144	1.225565	-0.826522
H140	H	0.269856	1.725565	-0.326522
H141	H	-0.542893	1.225390	-0.287111
H142	H	-0.042893	1.725390	0.212889
Cl143	Cl	-0.528351	1.020888	-0.491337
Cl144	Cl	-0.028351	1.520888	0.008663
H145	H	-0.230087	1.225607	-1.079379
H146	H	0.269913	1.725607	-0.579379
H147	H	-0.376229	0.582602	-0.286906
H148	H	0.123771	1.082602	0.213094
Cl149	Cl	-0.212300	1.247832	-0.912503
Cl150	Cl	0.287700	1.747832	-0.412503
Cl151	Cl	-0.393962	1.021080	-1.097443
Cl152	Cl	0.106038	1.521080	-0.597443
Cl153	Cl	-0.394021	1.021041	-0.844589
Cl154	Cl	0.105979	1.521041	-0.344589
H155	H	-0.230332	0.686878	-0.469402
H156	H	0.269668	1.186878	0.030598
Cl157	Cl	-0.212514	0.853769	-0.491669
Cl158	Cl	0.287486	1.353769	0.008331
H159	H	-0.376170	1.043291	-0.930568
H160	H	0.123830	1.543291	-0.430568
Cl161	Cl	-0.929171	1.247817	-0.264978
Cl162	Cl	-0.429171	1.747817	0.235022
Cl163	Cl	-0.394012	0.853591	-0.264610
Cl164	Cl	0.105988	1.353591	0.235390
Cl165	Cl	-0.676718	1.247700	-0.264929
Cl166	Cl	-0.176718	1.747700	0.235071
H167	H	-0.230343	0.582750	-0.469418
H168	H	0.269657	1.082750	0.030582
H169	H	-0.230352	0.434021	-0.469426
H170	H	0.269648	0.934021	0.030574
H171	H	-1.062997	1.225648	-0.287238
H172	H	-0.562997	1.725648	0.212762
H173	H	-1.063018	1.043384	-0.469234
H174	H	-0.563018	1.543384	0.030766
H175	H	-0.376243	0.433874	-0.286927
H176	H	0.123757	0.933874	0.213073
Cl177	Cl	-0.929193	1.021071	-0.491417
Cl178	Cl	-0.429193	1.521071	0.008583
