data_functionalizedCrystal
_audit_creation_method	'MofGen! by Chris Wilmer'
_symmetry_space_group_name_H-M	'P1'
_symmetry_Int_Tables_number	1
_symmetry_cell_setting	triclinic
loop_
_symmetry_equiv_pos_as_xyz
  x,y,z
_cell_length_a	12.594517
_cell_length_b	12.594516
_cell_length_c	12.594510
_cell_angle_alpha	90.032321
_cell_angle_beta	89.978880
_cell_angle_gamma	89.984147
loop_
_atom_site_label
_atom_site_type_symbol
_atom_site_fract_x
_atom_site_fract_y
_atom_site_fract_z
Zn1	Zn	1.627265	0.423651	-0.601875
Zn2	Zn	2.127265	0.923651	-0.101875
Zn3	Zn	1.627156	0.601681	-0.423903
Zn4	Zn	2.127156	1.101681	0.076097
Zn5	Zn	1.449269	0.423716	-0.423904
Zn6	Zn	1.949269	0.923716	0.076096
Zn7	Zn	1.449251	0.601588	-0.601833
Zn8	Zn	1.949251	1.101588	-0.101833
O9	O	1.538235	0.512659	-0.512879
O10	O	2.038235	1.012659	-0.012879
O11	O	1.776196	0.447279	-0.578284
O12	O	2.276196	0.947279	-0.078284
O13	O	1.603522	0.578139	-0.274957
O14	O	2.103522	1.078139	0.225043
O15	O	1.472934	0.274762	-0.447530
O16	O	1.972934	0.774762	0.052470
O17	O	1.776116	0.578077	-0.447528
O18	O	2.276116	1.078077	0.052472
O19	O	1.603706	0.274714	-0.578285
O20	O	2.103706	0.774714	-0.078285
O21	O	1.472829	0.447389	-0.274958
O22	O	1.972829	0.947389	0.225042
O23	O	1.300321	0.447299	-0.447489
O24	O	1.800321	0.947299	0.052511
O25	O	1.472903	0.577918	-0.750784
O26	O	1.972903	1.077918	-0.250784
O27	O	1.300308	0.577981	-0.578213
O28	O	1.800308	1.077981	-0.078213
O29	O	1.603689	0.447189	-0.750815
O30	O	2.103689	0.947189	-0.250815
O31	O	1.603504	0.750614	-0.447488
O32	O	2.103504	1.250614	0.052512
O33	O	1.472797	0.750546	-0.578212
O34	O	1.972797	1.250546	-0.078212
C35	C	1.261694	0.512638	-0.512847
C36	C	1.761694	1.012638	-0.012847
C37	C	1.143389	0.512654	-0.512859
C38	C	1.643389	1.012654	-0.012859
C39	C	1.538166	0.789200	-0.512868
C40	C	2.038166	1.289200	-0.012868
C41	C	1.538233	0.907505	-0.512899
C42	C	2.038233	1.407505	-0.012899
C43	C	1.538306	0.512536	-0.790500
C44	C	2.038306	1.012536	-0.290500
C45	C	1.538336	0.512484	-0.908805
C46	C	2.038336	1.012484	-0.408805
C47	C	1.074112	0.441479	-0.441894
C48	C	1.574112	0.941479	0.058106
C49	C	1.003301	0.538571	-0.415718
C50	C	1.503301	1.038571	0.084282
C51	C	1.003401	0.415610	-0.539054
C52	C	1.503401	0.915610	-0.039054
C53	C	1.074136	0.609797	-0.486632
C54	C	1.574136	1.109797	0.013368
C55	C	1.074242	0.486770	-0.610013
C56	C	1.574242	0.986770	-0.110013
C57	C	1.003463	0.583929	-0.583874
C58	C	1.503463	1.083929	-0.083874
C59	C	1.815856	0.512681	-0.512911
C60	C	2.315856	1.012681	-0.012911
C61	C	1.934162	0.512691	-0.512924
C62	C	2.434162	1.012691	-0.012924
C63	C	1.538334	0.235038	-0.512912
C64	C	2.038334	0.735038	-0.012912
C65	C	1.538377	0.116733	-0.512927
C66	C	2.038377	0.616733	-0.012927
C67	C	1.467135	0.976760	-0.583950
C68	C	1.967135	1.476760	-0.083950
C69	C	1.441202	1.047636	-0.486827
C70	C	1.941202	1.547636	0.013173
C71	C	1.564263	1.047429	-0.610039
C72	C	2.064263	1.547429	-0.110039
C73	C	1.512249	0.976823	-0.415725
C74	C	2.012249	1.476823	0.084275
C75	C	1.635355	0.976610	-0.539002
C76	C	2.135355	1.476610	-0.039002
C77	C	1.609459	1.047453	-0.441812
C78	C	2.109459	1.547453	0.058188
C79	C	1.609491	0.441375	-0.978075
C80	C	2.109491	0.941375	-0.478075
C81	C	1.512415	0.415322	-1.048865
C82	C	2.012415	0.915322	-0.548865
C83	C	1.635468	0.538462	-1.048814
C84	C	2.135468	1.038462	-0.548814
C85	C	1.441208	0.486381	-0.978037
C86	C	1.941208	0.986381	-0.478037
C87	C	1.564326	0.609566	-0.977980
C88	C	2.064326	1.109566	-0.477980
C89	C	1.467183	0.583550	-1.048738
C90	C	1.967183	1.083550	-0.548738
C91	C	1.538227	0.512705	-0.236338
C92	C	2.038227	1.012705	0.263662
C93	C	1.538403	0.512457	-0.118033
C94	C	2.038403	1.012457	0.381967
H95	H	1.105133	0.381348	-0.381807
H96	H	1.605133	0.881348	0.118193
Br97	Br	1.772111	0.924573	-0.575839
Br98	Br	2.272111	1.424573	-0.075839
H99	H	1.669559	0.381206	-0.947045
H100	H	2.169559	0.881206	-0.447045
Br101	Br	1.366825	0.683749	-1.100151
Br102	Br	1.866825	1.183749	-0.600151
Br103	Br	1.600977	0.746388	-0.926042
Br104	Br	2.100977	1.246388	-0.426042
H105	H	1.105426	0.464825	-0.692122
H106	H	1.605426	0.964825	-0.192122
Br107	Br	0.951367	0.575102	-0.278826
Br108	Br	1.451367	1.075102	0.221174
Br109	Br	1.125699	0.746650	-0.449593
Br110	Br	1.625699	1.246650	0.050407
Br111	Br	0.951600	0.278802	-0.575932
Br112	Br	1.451600	0.778802	-0.075932
H113	H	1.717584	0.560444	-1.079908
H114	H	2.217584	1.060444	-0.579908
Br115	Br	1.475497	0.925351	-0.278780
Br116	Br	1.975497	1.425351	0.221220
H117	H	0.972637	0.644204	-0.643914
H118	H	1.472637	1.144204	-0.143914
H119	H	1.359135	1.078857	-0.464772
H120	H	1.859135	1.578857	0.035228
H121	H	1.669646	1.078298	-0.381669
H122	H	2.169646	1.578298	0.118331
Br123	Br	1.366751	0.925020	-0.683955
Br124	Br	1.866751	1.425020	-0.183955
H125	H	1.586221	1.078444	-0.692178
H126	H	2.086221	1.578444	-0.192178
H127	H	1.359068	0.464301	-0.947078
H128	H	1.859068	0.964301	-0.447078
Br129	Br	1.475810	0.278466	-1.100766
Br130	Br	1.975810	0.778466	-0.600766
