data_functionalizedCrystal
_audit_creation_method	'MofGen! by Chris Wilmer'
_symmetry_space_group_name_H-M	'P1'
_symmetry_Int_Tables_number	1
_symmetry_cell_setting	triclinic
loop_
_symmetry_equiv_pos_as_xyz
  x,y,z
_cell_length_a	6.817900
_cell_length_b	12.840946
_cell_length_c	11.102289
_cell_angle_alpha	81.893828
_cell_angle_beta	108.605707
_cell_angle_gamma	88.344365
loop_
_atom_site_label
_atom_site_type_symbol
_atom_site_fract_x
_atom_site_fract_y
_atom_site_fract_z
V1	V	-3.924917	0.325216	-0.178852
O2	O	-3.887502	0.319025	0.005495
O3	O	-3.902970	0.322991	-0.351651
O4	O	-3.820309	0.467054	-0.177461
O5	O	-3.970735	0.173966	-0.169902
V6	V	-4.412400	0.307125	-0.156641
O7	O	-4.177488	0.364899	-0.227573
O8	O	-4.610026	0.267442	-0.107920
O9	O	-4.211140	0.309350	0.016159
O10	O	-4.567212	0.313316	-0.340987
O11	O	-4.483979	0.458375	-0.165591
O12	O	-4.293801	0.165287	-0.158032
C13	C	-3.756225	0.317861	-0.393734
C14	C	-3.819193	0.316988	-0.535008
C15	C	-4.029797	0.321781	-0.607901
C16	C	-4.088951	0.320969	-0.740645
C17	C	-3.726875	0.310567	-0.727591
C18	C	-3.667725	0.311386	-0.594851
C19	C	-4.238839	0.327782	-0.615438
C20	C	-4.297993	0.326970	-0.748182
C21	C	-3.650794	0.501625	-0.171530
C22	C	-3.646646	0.619758	-0.171535
C23	C	-4.109694	0.012587	-0.164011
C24	C	-4.126690	0.130715	-0.163983
V25	V	-3.907893	0.811383	-0.178888
O26	O	-3.943108	0.962590	-0.169954
O27	O	-3.813417	0.664199	-0.177482
O28	O	-3.884409	0.852787	-0.351688
O29	O	-3.871624	0.772696	0.005458
V30	V	-4.393434	0.848829	-0.156688
O31	O	-4.162399	0.795857	-0.227610
O32	O	-4.588334	0.887042	-0.107975
O33	O	-4.265096	0.984766	-0.158091
O34	O	-4.475409	0.703538	-0.165625
O35	O	-4.546893	0.893432	-0.341037
O36	O	-4.194104	0.796177	0.016116
C37	C	-4.021229	0.314477	0.058234
C38	C	-3.937497	0.315357	0.199508
C39	C	-3.737214	0.860322	-0.393762
C40	C	-3.798849	0.897314	-0.535036
C41	C	-4.005230	0.771674	0.058202
C42	C	-3.922871	0.733646	0.199480
C43	C	-4.008829	0.920140	-0.607910
C44	C	-4.066768	0.954913	-0.740650
C45	C	-3.914724	0.966852	-0.800517
C46	C	-3.704726	0.944027	-0.727633
C47	C	-3.646789	0.909262	-0.594893
C48	C	-3.711102	0.703363	0.259321
C49	C	-3.633685	0.667644	0.392068
C50	C	-3.768042	0.662200	0.464970
C51	C	-3.979828	0.692488	0.405121
C52	C	-4.057240	0.728214	0.272377
H53	H	-4.385460	0.404245	-0.806765
H54	H	-3.601670	0.707795	0.199981
H55	H	-3.961928	0.995161	-0.908603
H56	H	-3.603563	0.306007	-0.776331
C57	C	-3.539980	0.957000	-0.792891
C58	C	-3.635696	0.992299	-0.924741
C59	C	-3.484005	1.004242	-0.984906
H60	H	-3.448404	1.007071	-0.756448
H61	H	-3.463746	0.891072	-0.780725
H62	H	-3.711894	1.058218	-0.936899
H63	H	-3.727258	0.942241	-0.961220
H64	H	-3.407772	0.938314	-0.972740
H65	H	-3.392438	1.054312	-0.948453
H66	H	-3.548928	1.028184	-1.074373
C67	C	-4.294936	0.229778	-0.543305
C68	C	-4.231496	0.235848	-0.411649
C69	C	-4.283107	0.145578	-0.345157
H70	H	-4.440890	0.225285	-0.574183
H71	H	-4.226985	0.168914	-0.556615
H72	H	-4.299453	0.296694	-0.398347
H73	H	-4.085548	0.240325	-0.380733
H74	H	-4.215156	0.084715	-0.358467
H75	H	-4.429061	0.141094	-0.376045
H76	H	-4.240054	0.149680	-0.255820
C77	C	-4.330027	0.429020	-0.590999
C78	C	-4.444943	0.490128	-0.708755
C79	C	-4.528947	0.583399	-0.686293
H80	H	-4.418163	0.412300	-0.540982
H81	H	-4.220905	0.467568	-0.545914
H82	H	-4.554051	0.451587	-0.753820
H83	H	-4.356853	0.506876	-0.758789
H84	H	-4.419824	0.621947	-0.641208
H85	H	-4.617073	0.566669	-0.636273
H86	H	-4.606911	0.624876	-0.766186
H87	H	-4.390185	0.255720	-0.772491
H88	H	-4.132660	0.910419	-0.559186
C89	C	-3.418897	0.884269	-0.515664
C90	C	-3.386306	0.778447	-0.457036
C91	C	-3.176397	0.755390	-0.384036
H92	H	-3.336440	0.896263	-0.570201
H93	H	-3.381080	0.928410	-0.451356
H94	H	-3.424099	0.734319	-0.521335
H95	H	-3.468713	0.766428	-0.402478
H96	H	-3.138580	0.799531	-0.319728
H97	H	-3.093958	0.767389	-0.438582
H98	H	-3.154260	0.683592	-0.344239
H99	H	-3.496236	0.307495	-0.535508
H100	H	-4.237768	0.973490	-0.799975
H101	H	-3.461235	0.642984	0.440777
H102	H	-3.704982	0.633105	0.573056
H103	H	-4.089205	0.688051	0.464498
H104	H	-4.229683	0.752864	0.223665
