data_functionalizedCrystal
_audit_creation_method	'MofGen! by Chris Wilmer'
_symmetry_space_group_name_H-M	'P1'
_symmetry_Int_Tables_number	1
_symmetry_cell_setting	triclinic
loop_
_symmetry_equiv_pos_as_xyz
  x,y,z
_cell_length_a	16.959454
_cell_length_b	16.959455
_cell_length_c	18.215399
_cell_angle_alpha	90.023285
_cell_angle_beta	89.976304
_cell_angle_gamma	89.981743
loop_
_atom_site_label
_atom_site_type_symbol
_atom_site_fract_x
_atom_site_fract_y
_atom_site_fract_z
Zn1	Zn	-0.314728	-1.208417	-0.416205
Zn2	Zn	0.018605	-0.875084	-0.082872
Zn3	Zn	0.351939	-0.541750	0.250461
Zn4	Zn	-0.446913	-1.208330	-0.293148
Zn5	Zn	-0.113580	-0.874996	0.040185
Zn6	Zn	0.219753	-0.541663	0.373518
Zn7	Zn	-0.314749	-1.076236	-0.293145
Zn8	Zn	0.018585	-0.742902	0.040188
Zn9	Zn	0.351918	-0.409569	0.373521
Zn10	Zn	-0.446864	-1.076210	-0.416166
Zn11	Zn	-0.113531	-0.742877	-0.082832
Zn12	Zn	0.219803	-0.409543	0.250501
O13	O	-0.380814	-1.142298	-0.354666
O14	O	-0.047480	-0.808965	-0.021333
O15	O	0.285853	-0.475631	0.312000
O16	O	-0.332275	-1.319016	-0.399899
O17	O	0.001059	-0.985683	-0.066566
O18	O	0.334392	-0.652350	0.266767
O19	O	-0.429411	-1.190781	-0.190164
O20	O	-0.096077	-0.857448	0.143170
O21	O	0.237256	-0.524115	0.476503
O22	O	-0.204135	-1.093817	-0.309485
O23	O	0.129198	-0.760484	0.023848
O24	O	0.462532	-0.427150	0.357182
O25	O	-0.429391	-1.318952	-0.309490
O26	O	-0.096057	-0.985619	0.023843
O27	O	0.237276	-0.652285	0.357177
O28	O	-0.204120	-1.190930	-0.399897
O29	O	0.129214	-0.857597	-0.066563
O30	O	0.462547	-0.524263	0.266770
O31	O	-0.332310	-1.093732	-0.190161
O32	O	0.001024	-0.760399	0.143172
O33	O	0.334357	-0.427066	0.476505
O34	O	-0.332262	-0.965621	-0.309446
O35	O	0.001071	-0.632288	0.023887
O36	O	0.334405	-0.298955	0.357220
O37	O	-0.429307	-1.093773	-0.519155
O38	O	-0.095973	-0.760440	-0.185822
O39	O	0.237360	-0.427107	0.147511
O40	O	-0.429327	-0.965603	-0.399829
O41	O	-0.095993	-0.632269	-0.066496
O42	O	0.237340	-0.298936	0.266838
O43	O	-0.332227	-1.190905	-0.519184
O44	O	0.001106	-0.857572	-0.185851
O45	O	0.334440	-0.524239	0.147482
O46	O	-0.557518	-1.190756	-0.309451
O47	O	-0.224184	-0.857423	0.023882
O48	O	0.109149	-0.524090	0.357215
O49	O	-0.557482	-1.093689	-0.399832
O50	O	-0.224148	-0.760355	-0.066498
O51	O	0.109185	-0.427022	0.266835
C52	C	-0.380792	-0.936932	-0.354634
C53	C	-0.047459	-0.603598	-0.021300
C54	C	0.285875	-0.270265	0.312033
C55	C	-0.380802	-0.849075	-0.354637
C56	C	-0.047468	-0.515742	-0.021304
C57	C	0.285865	-0.182408	0.312030
C58	C	-0.330192	-0.807787	-0.307653
C59	C	0.003141	-0.474454	0.025680
C60	C	0.336475	-0.141121	0.359014
C61	C	-0.431416	-0.807809	-0.401629
C62	C	-0.098083	-0.474476	-0.068296
C63	C	0.235250	-0.141143	0.265038
C64	C	-0.431424	-0.725263	-0.401637
C65	C	-0.098091	-0.391930	-0.068303
C66	C	0.235242	-0.058597	0.265030
C67	C	-0.380814	-0.683976	-0.354653
C68	C	-0.047481	-0.350642	-0.021319
C69	C	0.285852	-0.017309	0.312014
C70	C	-0.330197	-0.725234	-0.307661
C71	C	0.003137	-0.391901	0.025673
C72	C	0.336470	-0.058567	0.359006
C73	C	-0.482035	-0.683999	-0.448633
C74	C	-0.148702	-0.350666	-0.115300
C75	C	0.184631	-0.017332	0.218034
C76	C	-0.482045	-0.601448	-0.448643
C77	C	-0.148712	-0.268115	-0.115310
C78	C	0.184622	0.065219	0.218024
C79	C	-0.431438	-0.560159	-0.401655
C80	C	-0.098105	-0.226826	-0.068321
C81	C	0.235228	0.106508	0.265012
C82	C	-0.380819	-0.601422	-0.354660
C83	C	-0.047486	-0.268089	-0.021327
C84	C	0.285847	0.065244	0.312006
C85	C	-0.330209	-0.560135	-0.307676
C86	C	0.003124	-0.226801	0.025657
C87	C	0.336457	0.106532	0.358991
C88	C	-0.279593	-0.601396	-0.260678
C89	C	0.053740	-0.268063	0.072656
C90	C	0.387073	0.065270	0.405989
C91	C	-0.279590	-0.683945	-0.260672
C92	C	0.053743	-0.350611	0.072661
C93	C	0.387077	-0.017278	0.405994
C94	C	-0.431442	-0.477610	-0.401660
C95	C	-0.098108	-0.144277	-0.068327
C96	C	0.235225	0.189056	0.265007
C97	C	-0.330214	-0.477581	-0.307684
C98	C	0.003119	-0.144248	0.025649
C99	C	0.336453	0.189086	0.358983
C100	C	-0.586180	-1.142232	-0.354654
C101	C	-0.252846	-0.808898	-0.021320
C102	C	0.080487	-0.475565	0.312013
C103	C	-0.674036	-1.142276	-0.354673
C104	C	-0.340703	-0.808942	-0.021340
C105	C	-0.007370	-0.475609	0.311994
C106	C	-1.045523	-1.091828	-0.401722
C107	C	-0.712190	-0.758495	-0.068389
C108	C	-0.378856	-0.425162	0.264944
C109	C	-1.045501	-1.192988	-0.307685
C110	C	-0.712167	-0.859655	0.025648
C111	C	-0.378834	-0.526321	0.358982
C112	C	-0.962955	-1.192960	-0.307678
C113	C	-0.629622	-0.859627	0.025655
C114	C	-0.296288	-0.526294	0.358988
C115	C	-0.921689	-1.142365	-0.354693
C116	C	-0.588356	-0.809032	-0.021360
C117	C	-0.255023	-0.475698	0.311973
C118	C	-0.962970	-1.091797	-0.401715
C119	C	-0.629636	-0.758464	-0.068382
C120	C	-0.296303	-0.425131	0.264951
C121	C	-0.921668	-1.243521	-0.260652
C122	C	-0.588335	-0.910188	0.072681
C123	C	-0.255002	-0.576855	0.406015
C124	C	-0.839118	-1.243495	-0.260643
C125	C	-0.505784	-0.910162	0.072691
C126	C	-0.172451	-0.576829	0.406024
C127	C	-0.797850	-1.192903	-0.307662
C128	C	-0.464517	-0.859570	0.025671
C129	C	-0.131184	-0.526237	0.359004
C130	C	-0.839136	-1.142334	-0.354687
C131	C	-0.505802	-0.809001	-0.021353
C132	C	-0.172469	-0.475668	0.311980
C133	C	-0.797870	-1.091739	-0.401702
C134	C	-0.464537	-0.758406	-0.068368
C135	C	-0.131203	-0.425072	0.264965
C136	C	-0.839154	-1.041173	-0.448730
C137	C	-0.505821	-0.707840	-0.115397
C138	C	-0.172487	-0.374506	0.217936
C139	C	-0.921702	-1.041205	-0.448735
C140	C	-0.588369	-0.707872	-0.115401
C141	C	-0.255036	-0.374539	0.217932
C142	C	-0.715302	-1.192871	-0.307658
C143	C	-0.381969	-0.859538	0.025676
C144	C	-0.048635	-0.526204	0.359009
C145	C	-0.715317	-1.091708	-0.401695
C146	C	-0.381983	-0.758375	-0.068361
C147	C	-0.048650	-0.425041	0.264972
C148	C	-0.174645	-1.142386	-0.354695
C149	C	0.158688	-0.809053	-0.021362
C150	C	0.492021	-0.475719	0.311972
C151	C	-0.086789	-1.142424	-0.354707
C152	C	0.246545	-0.809090	-0.021374
C153	C	0.579878	-0.475757	0.311960
C154	C	-0.380759	-1.142346	-0.546619
C155	C	-0.047426	-0.809013	-0.213286
C156	C	0.285908	-0.475679	0.120047
C157	C	-0.380736	-1.142367	-0.628418
C158	C	-0.047402	-0.809033	-0.295085
C159	C	0.285931	-0.475700	0.038249
C160	C	-0.380832	-0.348466	-0.354690
C161	C	-0.047499	-0.015133	-0.021357
C162	C	0.285834	0.318200	0.311977
C163	C	-0.380832	-0.436323	-0.354676
C164	C	-0.047499	-0.102989	-0.021342
C165	C	0.285835	0.230344	0.311991
C166	C	-0.330139	-1.192961	-0.816629
C167	C	0.003194	-0.859628	-0.483295
C168	C	0.336528	-0.526295	-0.149962
C169	C	-0.330116	-1.192971	-0.893487
C170	C	0.003217	-0.859638	-0.560154
C171	C	0.336551	-0.526304	-0.226821
C172	C	-0.431210	-1.091828	-0.893446
C173	C	-0.097877	-0.758495	-0.560112
C174	C	0.235456	-0.425161	-0.226779
C175	C	-0.431229	-1.091815	-0.816588
C176	C	-0.097895	-0.758482	-0.483255
C177	C	0.235438	-0.425148	-0.149922
C178	C	-0.380694	-1.142386	-0.778182
C179	C	-0.047361	-0.809053	-0.444848
C180	C	0.285972	-0.475720	-0.111515
C181	C	-0.380653	-1.142409	-0.931898
C182	C	-0.047319	-0.809075	-0.598565
C183	C	0.286014	-0.475742	-0.265231
C184	C	-0.380628	-1.142418	-1.015232
C185	C	-0.047295	-0.809085	-0.681898
C186	C	0.286038	-0.475752	-0.348565
C187	C	-0.380718	-1.142376	-0.694843
C188	C	-0.047384	-0.809042	-0.361509
C189	C	0.285949	-0.475709	-0.028176
C190	C	-0.380811	-1.142296	-0.163460
C191	C	-0.047477	-0.808962	0.169873
C192	C	0.285856	-0.475629	0.503207
C193	C	-0.380611	-1.142428	-0.081661
C194	C	-0.047278	-0.809095	0.251672
C195	C	0.286055	-0.475761	0.585005
H196	H	-0.238383	-0.567769	-0.222426
H197	H	0.094950	-0.234436	0.110907
H198	H	0.428283	0.098898	0.444240
F199	F	-0.671405	-1.037860	-0.451740
F200	F	-0.338072	-0.704527	-0.118406
F201	F	-0.004738	-0.371194	0.214927
H202	H	-0.289002	-0.443970	-0.269422
H203	H	0.044331	-0.110637	0.063911
H204	H	0.377665	0.222696	0.397245
H205	H	-0.955323	-1.000037	-0.487022
H206	H	-0.621990	-0.666703	-0.153689
H207	H	-0.288656	-0.333370	0.179645
H208	H	-0.955273	-1.284708	-0.222369
H209	H	-0.621940	-0.951374	0.110964
H210	H	-0.288606	-0.618041	0.444297
H211	H	-0.472396	-1.050625	-0.785284
H212	H	-0.139063	-0.717292	-0.451951
H213	H	0.194270	-0.383958	-0.118617
F214	F	-0.795188	-1.297316	-0.210596
F215	F	-0.461854	-0.963983	0.122737
F216	F	-0.128521	-0.630649	0.456071
F217	F	-1.089460	-1.038019	-0.451774
F218	F	-0.756126	-0.704685	-0.118441
F219	F	-0.422793	-0.371352	0.214893
F220	F	-0.225723	-0.727864	-0.210660
F221	F	0.107610	-0.394530	0.122673
F222	F	0.440944	-0.061197	0.456006
H223	H	-0.681692	-1.234037	-0.269364
H224	H	-0.348359	-0.900704	0.063969
H225	H	-0.015026	-0.567371	0.397302
F226	F	-0.276354	-1.246782	-0.775756
F227	F	0.056980	-0.913448	-0.442423
F228	F	0.390313	-0.580115	-0.109089
F229	F	-0.535905	-0.727944	-0.498623
F230	F	-0.202571	-0.394611	-0.165290
F231	F	0.130762	-0.061277	0.168043
H232	H	-0.472355	-1.050656	-0.924726
H233	H	-0.139022	-0.717323	-0.591392
H234	H	0.194311	-0.383990	-0.258059
H235	H	-0.288948	-1.234153	-0.924787
H236	H	0.044386	-0.900820	-0.591454
H237	H	0.377719	-0.567486	-0.258121
F238	F	-0.795227	-0.987324	-0.498762
F239	F	-0.461893	-0.653991	-0.165429
F240	F	-0.128560	-0.320658	0.167904
H241	H	-0.288984	-0.841386	-0.269386
H242	H	0.044349	-0.508053	0.063948
H243	H	0.377683	-0.174720	0.397281
F244	F	-0.535916	-0.557542	-0.498661
F245	F	-0.202583	-0.224208	-0.165327
F246	F	0.130751	0.109125	0.168006
F247	F	-0.485302	-0.433700	-0.451680
F248	F	-0.151969	-0.100367	-0.118347
F249	F	0.181365	0.232966	0.214987
F250	F	-0.485279	-0.851752	-0.451626
F251	F	-0.151946	-0.518419	-0.118293
F252	F	0.181387	-0.185086	0.215041
H253	H	-1.079104	-1.234176	-0.269403
H254	H	-0.745771	-0.900842	0.063930
H255	H	-0.412438	-0.567509	0.397264
