data_functionalizedCrystal
_audit_creation_method	'MofGen! by Chris Wilmer'
_symmetry_space_group_name_H-M	'P1'
_symmetry_Int_Tables_number	1
_symmetry_cell_setting	triclinic
loop_
_symmetry_equiv_pos_as_xyz
  x,y,z
_cell_length_a	14.446369
_cell_length_b	18.426585
_cell_length_c	14.446369
_cell_angle_alpha	60.004610
_cell_angle_beta	90.002026
_cell_angle_gamma	59.997627
loop_
_atom_site_label
_atom_site_type_symbol
_atom_site_fract_x
_atom_site_fract_y
_atom_site_fract_z
Zr1	Zr	0.891766	0.794306	-0.121403
O2	O	0.743956	0.945706	-0.269202
O3	O	0.937078	0.642907	-0.076099
O4	O	0.937078	0.794298	-0.269202
O5	O	0.743956	0.794321	0.076230
O6	O	1.089415	0.794292	-0.269197
O7	O	0.743956	0.794315	-0.076099
O8	O	1.089416	0.523480	0.076229
O9	O	0.743955	1.065132	-0.269197
O10	O	1.070090	0.705175	-0.056768
O11	O	0.956402	0.705185	0.056909
O12	O	0.956402	0.883428	-0.170445
O13	O	0.842714	0.883438	-0.056768
Zr14	Zr	1.134726	0.794306	0.121553
Zr15	Zr	1.134726	0.794296	-0.121394
Zr16	Zr	0.891765	0.794317	0.121544
Zr17	Zr	0.891765	0.984778	-0.121394
Zr18	Zr	1.134727	0.603835	0.121544
O19	O	1.089413	0.945706	0.076249
O20	O	1.089414	0.945691	-0.269190
O21	O	0.743955	0.945721	0.076237
O22	O	1.282536	0.642907	0.269352
O23	O	1.282536	0.642892	-0.076087
O24	O	0.937078	0.642922	0.269340
O25	O	1.282535	0.794292	-0.076079
O26	O	1.089414	0.794315	0.269353
O27	O	0.937077	0.794321	0.269347
O28	O	1.282535	0.794298	0.076249
O29	O	0.937076	1.065124	-0.269190
O30	O	1.089416	0.523489	0.269340
O31	O	1.282537	0.523480	0.269347
O32	O	1.282537	0.523472	0.076236
O33	O	0.743955	1.065141	-0.076086
O34	O	0.937076	1.065132	-0.076079
O35	O	1.070090	0.705185	0.170595
O36	O	1.183777	0.705175	0.056918
O37	O	1.070089	0.883428	-0.056759
O38	O	0.956401	0.883438	0.056918
C39	C	1.013247	0.556056	0.000064
C40	C	1.013248	0.475195	0.000060
C41	C	1.013241	0.179086	0.000093
C42	C	1.013240	0.261473	0.000086
C43	C	1.013244	0.327139	0.000076
C44	C	1.013244	0.409530	0.000070
C45	C	0.709340	0.794319	0.000064
C46	C	0.606197	0.794324	0.000060
C47	C	0.387827	0.906736	-0.071275
C48	C	0.495059	0.906812	-0.071676
C49	C	0.602874	0.738478	-0.052241
C50	C	0.495105	0.739192	-0.052764
C51	C	0.496468	0.736884	0.123787
C52	C	0.602437	0.739003	0.123592
C53	C	1.317152	0.794293	0.000086
C54	C	1.420295	0.794289	0.000090
C55	C	1.013246	0.794293	-0.303814
C56	C	1.013246	0.794289	-0.406952
C57	C	1.013244	1.032557	0.000086
C58	C	1.013244	1.113417	0.000090
C59	C	1.085307	0.681876	-0.481937
C60	C	1.084994	0.681800	-0.374608
C61	C	0.889716	0.850135	-0.481513
C62	C	0.890111	0.849421	-0.588372
C63	C	1.063718	0.851729	-0.589939
C64	C	1.066218	0.849610	-0.481268
C65	C	1.013245	0.794319	0.303964
C66	C	1.013245	0.794324	0.407102
C67	C	1.317153	0.556043	0.000075
C68	C	1.420297	0.475178	0.000075
C69	C	1.013247	0.556069	0.303953
C70	C	1.013247	0.475213	0.407087
C71	C	1.317153	0.556056	0.303964
C72	C	1.420296	0.475195	0.407102
C73	C	0.709339	1.032557	-0.303814
C74	C	0.606195	1.113417	-0.406951
C75	C	0.709338	1.032570	0.000075
C76	C	0.606195	1.113435	0.000075
C77	C	1.013245	1.032544	-0.303803
C78	C	1.013244	1.113400	-0.406936
C79	C	1.409390	0.437203	-0.059278
C80	C	1.506295	0.361233	-0.059301
C81	C	1.614106	0.323234	0.000037
C82	C	1.625010	0.361216	0.059391
C83	C	1.528106	0.437190	0.059407
C84	C	1.072591	0.437242	0.514872
C85	C	1.072587	0.361280	0.611786
C86	C	1.013245	0.323285	0.600912
C87	C	0.953894	0.361264	0.493116
C88	C	0.953892	0.437229	0.396204
C89	C	1.528087	0.437218	0.396198
C90	C	1.625011	0.361252	0.493097
C91	C	1.614140	0.323260	0.600899
C92	C	1.506338	0.361245	0.611800
C93	C	1.409417	0.437215	0.514902
C94	C	0.498404	1.151404	-0.396047
C95	C	0.401481	1.227394	-0.492947
C96	C	0.412351	1.265390	-0.600748
C97	C	0.520153	1.227400	-0.611650
C98	C	0.617074	1.151417	-0.514752
C99	C	0.617101	1.151418	0.059418
C100	C	0.520196	1.227409	0.059414
C101	C	0.412386	1.265411	0.000073
C102	C	0.401482	1.227425	-0.059277
C103	C	0.498386	1.151440	-0.059279
C104	C	1.072598	1.151371	-0.396026
C105	C	1.072619	1.227333	-0.492922
C106	C	1.013281	1.265328	-0.600726
C107	C	0.953925	1.227350	-0.611634
C108	C	0.953911	1.151384	-0.514740
H109	H	0.493299	0.950851	-0.036866
Cl110	Cl	1.760520	0.313510	0.479366
Cl111	Cl	1.735997	0.227751	0.722704
Cl112	Cl	0.752622	1.103665	0.134021
H113	H	0.833497	0.931922	-0.666950
Cl114	Cl	0.752580	1.103663	-0.528480
H115	H	0.333871	0.950871	-0.036370
H116	H	0.529097	1.258324	0.107748
Cl117	Cl	1.273912	0.484943	0.528630
H118	H	0.905580	0.330317	0.484279
Cl119	Cl	1.030860	0.613794	-0.291612
Cl120	Cl	0.723711	0.610780	0.024142
H121	H	0.849704	0.809739	-0.588106
H122	H	0.333490	1.327282	0.000084
Cl123	Cl	1.147235	1.275068	-0.479183
Cl124	Cl	1.225437	0.614141	-0.290800
Cl125	Cl	1.492692	0.313471	0.747332
Cl126	Cl	0.879321	1.275136	-0.747169
H127	H	0.489532	1.120472	-0.308278
H128	H	0.313690	1.258378	-0.107590
Cl129	Cl	0.265972	1.275133	-0.479215
H130	H	0.528991	1.258346	-0.699434
H131	H	0.489490	1.120517	-0.107600
Cl132	Cl	1.013306	1.360834	-0.722527
H133	H	0.333422	1.327260	-0.679640
H134	H	1.321615	0.468141	-0.107611
H135	H	1.120922	0.330368	0.699549
Cl136	Cl	0.879275	1.103668	-0.528475
H137	H	1.712802	0.330266	0.107701
H138	H	1.013256	0.261429	0.679833
H139	H	1.536960	0.468140	0.308429
Cl140	Cl	0.538852	0.608989	0.206264
Cl141	Cl	0.302939	0.974541	-0.211306
Cl142	Cl	0.491279	0.974882	-0.212556
H143	H	1.120918	1.120447	-0.308255
Cl144	Cl	1.492561	0.313495	-0.133918
Cl145	Cl	1.541837	0.484914	0.134039
H146	H	0.521759	0.656691	-0.004146
Cl147	Cl	0.606166	0.798355	-0.191443
Cl148	Cl	0.419232	0.792428	0.191248
Cl149	Cl	0.417366	0.800467	-0.193299
Cl150	Cl	1.735918	0.227720	0.000009
H151	H	0.905571	0.468135	0.308444
H152	H	0.833693	0.932844	-0.508742
H153	H	0.681596	0.656936	0.181238
Cl154	Cl	0.601666	0.801851	0.183931
H155	H	1.176506	0.637741	-0.479597
H156	H	1.050619	0.637965	-0.480906
Cl157	Cl	1.147204	0.484989	0.528572
Cl158	Cl	1.202041	0.796168	-0.596291
Cl159	Cl	1.206728	0.786745	-0.401877
Cl160	Cl	0.826884	0.790258	-0.401854
Cl161	Cl	0.983070	0.979622	-0.710691
H162	H	1.019188	0.931675	-0.506781
