data_functionalizedCrystal
_audit_creation_method	'MofGen! by Chris Wilmer'
_symmetry_space_group_name_H-M	'P1'
_symmetry_Int_Tables_number	1
_symmetry_cell_setting	triclinic
loop_
_symmetry_equiv_pos_as_xyz
  x,y,z
_cell_length_a	7.681481
_cell_length_b	8.559649
_cell_length_c	8.559649
_cell_angle_alpha	69.778664
_cell_angle_beta	94.913501
_cell_angle_gamma	85.069100
loop_
_atom_site_label
_atom_site_type_symbol
_atom_site_fract_x
_atom_site_fract_y
_atom_site_fract_z
O1	O	-0.146391	-0.037798	2.109662
O2	O	-0.146400	0.045984	1.634176
O3	O	-0.146393	-0.233650	1.913810
O4	O	-0.146398	0.241836	1.830028
O5	O	0.146466	-0.268138	1.948237
O6	O	0.146459	0.011496	1.668603
O7	O	0.146468	-0.072286	2.144089
Zn8	Zn	0.192961	-0.035870	1.911812
Zn9	Zn	-0.192893	0.009569	1.866453
O10	O	0.146461	0.207348	1.864455
C11	C	0.000028	0.035090	1.591081
C12	C	0.000024	0.053989	1.411381
C13	C	0.000034	-0.311202	1.937372
C14	C	0.000024	-0.490900	1.956270
N15	N	0.456296	-0.066884	1.942780
N16	N	-0.456228	0.040567	1.835500
C17	C	0.000031	0.284901	1.840893
C18	C	0.000029	0.464600	1.821993
C19	C	0.000036	-0.061391	2.187184
C20	C	0.000028	-0.080289	2.366883
H21	H	0.468572	0.150244	1.725989
Br22	Br	0.000060	-0.656546	2.172002
H23	H	0.000017	-0.209707	2.466260
H24	H	0.000018	0.183418	2.311992
Br25	Br	0.581636	-0.249680	2.125340
Br26	Br	0.000035	-0.369767	1.606276
