data_functionalizedCrystal
_audit_creation_method	'MofGen! by Chris Wilmer'
_symmetry_space_group_name_H-M	'P1'
_symmetry_Int_Tables_number	1
_symmetry_cell_setting	triclinic
loop_
_symmetry_equiv_pos_as_xyz
  x,y,z
_cell_length_a	19.121063
_cell_length_b	19.077142
_cell_length_c	19.076919
_cell_angle_alpha	90.074357
_cell_angle_beta	85.393653
_cell_angle_gamma	89.737710
loop_
_atom_site_label
_atom_site_type_symbol
_atom_site_fract_x
_atom_site_fract_y
_atom_site_fract_z
Zn1	Zn	-0.339751	-1.043167	0.454345
Zn2	Zn	0.160249	-0.543167	0.954345
Zn3	Zn	-0.452662	-1.042788	0.341455
Zn4	Zn	0.047338	-0.542788	0.841455
Zn5	Zn	-0.330341	-0.930803	0.331749
Zn6	Zn	0.169659	-0.430803	0.831749
Zn7	Zn	-0.452237	-0.920629	0.454186
Zn8	Zn	0.047763	-0.420629	0.954186
O9	O	-0.393748	-0.984347	0.395434
O10	O	0.106252	-0.484347	0.895434
O11	O	-0.358844	-1.141265	0.443498
O12	O	0.141156	-0.641265	0.943498
O13	O	-0.432676	-1.032032	0.241682
O14	O	0.067324	-0.532032	0.741682
O15	O	-0.233322	-0.950125	0.344017
O16	O	0.266678	-0.450125	0.844017
O17	O	-0.441800	-1.140987	0.360558
O18	O	0.058200	-0.640987	0.860558
O19	O	-0.240235	-1.032678	0.434087
O20	O	0.259765	-0.532678	0.934087
O21	O	-0.342808	-0.949758	0.234552
O22	O	0.157192	-0.449758	0.734552
O23	O	-0.342395	-0.831305	0.343863
O24	O	0.157605	-0.331305	0.843863
O25	O	-0.441075	-0.932784	0.552692
O26	O	0.058925	-0.432784	1.052692
O27	O	-0.431951	-0.823830	0.433816
O28	O	0.068049	-0.323830	0.933816
O29	O	-0.358432	-1.022813	0.552808
O30	O	0.141568	-0.522813	1.052808
O31	O	-0.550873	-1.022167	0.360404
O32	O	-0.050873	-0.522167	0.860404
O33	O	-0.550561	-0.932417	0.443227
O34	O	-0.050561	-0.432417	0.943227
C35	C	-0.386107	-0.802118	0.387770
C36	C	0.113893	-0.302118	0.887770
C37	C	-0.382855	-0.724159	0.384508
C38	C	0.117145	-0.224159	0.884508
C39	C	-0.428020	-0.683660	0.429742
C40	C	0.071980	-0.183660	0.929742
C41	C	-0.424956	-0.610409	0.426681
C42	C	0.075044	-0.110409	0.926681
C43	C	-0.376730	-0.577658	0.378382
C44	C	0.123270	-0.077658	0.878382
C45	C	-0.331561	-0.618163	0.333146
C46	C	0.168439	-0.118163	0.833146
C47	C	-0.334622	-0.691412	0.336211
C48	C	0.165378	-0.191412	0.836211
C49	C	-0.362564	-0.359001	0.364203
C50	C	0.137436	0.140999	0.864203
C51	C	-0.359508	-0.285746	0.361139
C52	C	0.140492	0.214254	0.861139
C53	C	-0.452902	-0.277997	0.454675
C54	C	0.047098	0.222003	0.954675
C55	C	-0.455962	-0.351248	0.457733
C56	C	0.044038	0.148752	0.957733
C57	C	-0.410791	-0.391746	0.412500
C58	C	0.089209	0.108254	0.912500
N59	N	-0.373598	-0.502784	0.375250
N60	N	0.126402	-0.002784	0.875250
N61	N	-0.413919	-0.466619	0.415636
N62	N	0.086081	0.033381	0.915636
C63	C	-0.576198	-0.976165	0.402867
C64	C	-0.076198	-0.476165	0.902867
C65	C	-0.654255	-0.972728	0.406074
C66	C	-0.154255	-0.472728	0.906074
C67	C	-0.691068	-1.017875	0.364497
C68	C	-0.191068	-0.517875	0.864497
C69	C	-0.764411	-1.014646	0.367517
C70	C	-0.264411	-0.514646	0.867517
C71	C	-0.800938	-0.966267	0.412111
C72	C	-0.300938	-0.466267	0.912111
C73	C	-0.764120	-0.921119	0.453692
C74	C	-0.264120	-0.421119	0.953692
C75	C	-0.690779	-0.924351	0.450675
C76	C	-0.190779	-0.424351	0.950675
C77	C	-1.022374	-0.954171	0.423378
C78	C	-0.522374	-0.454171	0.923378
C79	C	-1.095721	-0.950941	0.426390
C80	C	-0.595721	-0.450941	0.926390
C81	C	-1.096006	-1.044469	0.340216
C82	C	-0.596006	-0.544469	0.840216
C83	C	-1.022664	-1.047695	0.337201
C84	C	-0.522664	-0.547695	0.837201
C85	C	-0.985852	-1.002549	0.378784
C86	C	-0.485852	-0.502549	0.878784
C87	C	-0.875906	-0.962964	0.415197
C88	C	-0.375906	-0.462964	0.915197
C89	C	-0.910885	-1.005855	0.375701
C90	C	-0.410885	-0.505855	0.875701
C91	C	-0.210586	-0.992579	0.387987
C92	C	0.289414	-0.492579	0.887987
C93	C	-0.132534	-0.996087	0.384814
C94	C	0.367466	-0.496087	0.884814
C95	C	-0.400756	-0.976706	0.579000
C96	C	0.099244	-0.476706	1.079000
C97	C	-0.403742	-0.973450	0.657225
C98	C	0.096258	-0.473450	1.157225
C99	C	-0.401415	-0.167287	0.403120
C100	C	0.098585	0.332713	0.903120
C101	C	-0.404672	-0.245247	0.406373
C102	C	0.095328	0.254753	0.906373
C103	C	-0.386718	-0.992001	0.212581
C104	C	0.113282	-0.492001	0.712581
C105	C	-0.383540	-0.995401	0.134354
C106	C	0.116460	-0.495401	0.634354
C107	C	-0.362119	-1.018791	0.694037
C108	C	0.137881	-0.518791	1.194037
C109	C	-0.364922	-1.015723	0.767538
C110	C	0.135078	-0.515723	1.267538
C111	C	-0.409352	-0.967317	0.804225
C112	C	0.090648	-0.467317	1.304225
C113	C	-0.450976	-0.921971	0.767407
C114	C	0.049024	-0.421971	1.267407
C115	C	-0.448169	-0.925036	0.693908
C116	C	0.051831	-0.425036	1.193908
C117	C	-0.422357	-0.953121	1.024037
C118	C	0.077643	-0.453121	1.524037
C119	C	-0.425163	-0.950061	1.097542
C120	C	0.074837	-0.450061	1.597542
C121	C	-0.339107	-1.043812	1.097667
C122	C	0.160893	-0.543812	1.597667
C123	C	-0.336307	-1.046875	1.024166
C124	C	0.163693	-0.546875	1.524166
C125	C	-0.377929	-1.001527	0.987355
C126	C	0.122071	-0.501527	1.487355
N127	N	-0.412219	-0.964181	0.879354
N128	N	0.087781	-0.464181	1.379354
N129	N	-0.375057	-1.004660	0.912227
N130	N	0.124943	-0.504660	1.412227
H131	H	-0.320229	-0.259083	0.321812
H132	H	0.179771	0.240917	0.821812
O133	O	-0.467253	-0.904213	0.984343
O134	O	0.032747	-0.404213	1.484343
H135	H	-0.457834	-0.914466	0.927070
H136	H	0.042166	-0.414466	1.427070
H137	H	-0.660806	-0.887589	0.484532
H138	H	-0.160806	-0.387589	0.984532
O139	O	-0.982687	-0.905465	0.468223
O140	O	-0.482687	-0.405465	0.968223
H141	H	-0.951917	-0.936799	0.504011
H142	H	-0.451917	-0.436799	1.004011
O143	O	-0.871486	-1.058038	0.327614
O144	O	-0.371486	-0.558038	0.827614
H145	H	-0.882980	-1.047738	0.272442
H146	H	-0.382980	-0.547738	0.772442
O147	O	-0.915313	-0.910781	0.463283
O148	O	-0.415313	-0.410781	0.963283
H149	H	-0.903825	-0.921083	0.518456
H150	H	-0.403825	-0.421083	1.018456
H151	H	-0.325941	-1.058210	0.664172
H152	H	0.174059	-0.558210	1.164172
H153	H	-0.482056	-0.888108	0.663936
H154	H	0.017944	-0.388108	1.163936
H155	H	-0.300129	-1.086294	0.994301
H156	H	0.199871	-0.586294	1.494301
O157	O	-0.983271	-1.099870	0.289094
O158	O	-0.483271	-0.599870	0.789094
H159	H	-0.926086	-1.094525	0.293974
H160	H	-0.426086	-0.594525	0.793974
O161	O	-0.285910	-0.735099	0.287424
O162	O	0.214090	-0.235099	0.787424
H163	H	-0.317311	-0.768556	0.254247
H164	H	0.182689	-0.268556	0.754247
H165	H	-0.305220	-1.080730	1.127646
H166	H	0.194780	-0.580730	1.627646
O167	O	-0.320033	-1.064629	0.807245
O168	O	0.179967	-0.564629	1.307245
H169	H	-0.288675	-1.098811	0.769387
H170	H	0.211325	-0.598811	1.269387
H171	H	-0.794381	-1.051409	0.333661
H172	H	-0.294381	-0.551409	0.833661
H173	H	-0.461734	-0.577437	0.463514
H174	H	0.038266	-0.077437	0.963514
O175	O	-0.473081	-0.897845	1.137116
O176	O	0.026919	-0.397845	1.637116
H177	H	-0.501546	-0.866821	1.099171
H178	H	-0.001546	-0.366821	1.599171
O179	O	-1.135710	-1.093181	0.295388
O180	O	-0.635710	-0.593181	0.795388
H181	H	-1.192846	-1.082817	0.304985
H182	H	-0.692846	-0.582817	0.804985
H183	H	-0.487149	-0.882556	0.797284
H184	H	0.012851	-0.382556	1.297284
O185	O	-0.313867	-0.402677	0.315397
O186	O	0.186133	0.097323	0.815397
H187	H	-0.279832	-0.367595	0.281286
H188	H	0.220168	0.132405	0.781286
H189	H	-0.793867	-0.881730	0.490004
H190	H	-0.293867	-0.381730	0.990004
O191	O	-0.480032	-0.718983	0.481839
O192	O	0.019968	-0.218983	0.981839
H193	H	-0.510917	-0.678512	0.512784
H194	H	-0.010917	-0.178512	1.012784
H195	H	-0.489678	-0.245016	0.491503
H196	H	0.010322	0.254984	0.991503
O197	O	-0.507971	-0.386573	0.509833
O198	O	-0.007971	0.113427	1.009833
H199	H	-0.538858	-0.346104	0.540779
H200	H	-0.038858	0.153896	1.040779
H201	H	-1.125460	-0.911552	0.462716
H202	H	-0.625460	-0.411552	0.962716
O203	O	-0.279561	-0.582844	0.281033
O204	O	0.220439	-0.082844	0.781033
H205	H	-0.285030	-0.525105	0.286488
H206	H	0.214970	-0.025105	0.786488
H207	H	-0.661332	-1.057267	0.328182
H208	H	-0.161332	-0.557267	0.828182
