data_functionalizedCrystal
_audit_creation_method	'MofGen! by Chris Wilmer'
_symmetry_space_group_name_H-M	'P1'
_symmetry_Int_Tables_number	1
_symmetry_cell_setting	triclinic
loop_
_symmetry_equiv_pos_as_xyz
  x,y,z
_cell_length_a	9.065215
_cell_length_b	9.065215
_cell_length_c	7.540329
_cell_angle_alpha	90.004628
_cell_angle_beta	90.000101
_cell_angle_gamma	94.985303
loop_
_atom_site_label
_atom_site_type_symbol
_atom_site_fract_x
_atom_site_fract_y
_atom_site_fract_z
O1	O	-1.960393	0.216339	0.147458
O2	O	-1.460393	0.716339	0.647458
O3	O	-1.531107	0.234090	0.147466
O4	O	-1.031107	0.734090	0.647466
O5	O	-1.754625	0.010572	0.147454
O6	O	-1.254625	0.510572	0.647454
O7	O	-1.736875	0.439858	0.147469
O8	O	-1.236875	0.939858	0.647469
O9	O	-1.754624	0.010560	-0.147511
O10	O	-1.254624	0.510560	0.352489
O11	O	-1.531105	0.234078	-0.147499
O12	O	-1.031105	0.734078	0.352501
O13	O	-1.960391	0.216327	-0.147507
O14	O	-1.460391	0.716327	0.352493
Cu15	Cu	-1.745748	0.225201	-0.174436
Cu16	Cu	-1.245748	0.725201	0.325564
Cu17	Cu	-1.745750	0.225216	0.174394
Cu18	Cu	-1.245750	0.725216	0.674394
O19	O	-1.736873	0.439845	-0.147496
O20	O	-1.236873	0.939845	0.352504
C21	C	-1.752920	-0.044421	-0.000027
C22	C	-1.252920	0.455579	0.499973
C23	C	-1.747822	-0.208264	-0.000021
C24	C	-1.247822	0.291736	0.499979
C25	C	-1.476120	0.232379	-0.000016
C26	C	-0.976120	0.732379	0.499984
C27	C	-1.312277	0.227281	-0.000013
C28	C	-0.812277	0.727281	0.499987
C29	C	-2.015379	0.218038	-0.000022
C30	C	-1.515379	0.718038	0.499978
C31	C	-2.179222	0.223136	-0.000013
C32	C	-1.679222	0.723136	0.499987
C33	C	-1.738579	0.494838	-0.000011
C34	C	-1.238579	0.994838	0.499989
C35	C	-1.743677	0.658681	-0.000005
C36	C	-1.243677	1.158681	0.499995
N37	N	-1.745753	0.225215	0.419743
N38	N	-1.245753	0.725215	0.919743
N39	N	-1.745757	0.225190	-0.419784
N40	N	-1.245757	0.725190	0.080216
