data_functionalizedCrystal
_audit_creation_method	'MofGen! by Chris Wilmer'
_symmetry_space_group_name_H-M	'P1'
_symmetry_Int_Tables_number	1
_symmetry_cell_setting	triclinic
loop_
_symmetry_equiv_pos_as_xyz
  x,y,z
_cell_length_a	8.597340
_cell_length_b	12.784905
_cell_length_c	7.681481
_cell_angle_alpha	84.865155
_cell_angle_beta	103.474906
_cell_angle_gamma	79.273817
loop_
_atom_site_label
_atom_site_type_symbol
_atom_site_fract_x
_atom_site_fract_y
_atom_site_fract_z
O1	O	2.079474	0.146991	0.169071
O2	O	1.613066	0.163927	0.098305
O3	O	1.880401	0.000730	0.138871
O4	O	1.812139	0.310188	0.128505
O5	O	1.913312	-0.019402	0.436723
O6	O	1.645977	0.143794	0.396157
O7	O	2.112385	0.126859	0.466922
Zn8	Zn	1.884406	0.132130	0.478830
Zn9	Zn	1.841045	0.158655	0.086398
O10	O	1.845050	0.290056	0.426356
C11	C	1.570235	0.153163	0.238236
C12	C	1.393580	0.151073	0.211433
C13	C	1.901296	-0.048936	0.288468
C14	C	1.914505	-0.166929	0.290465
C15	C	1.645382	-0.363305	0.249650
C16	C	1.657785	-0.474170	0.251525
C17	C	1.951713	-0.499527	0.296102
C18	C	1.939310	-0.388662	0.294227
C19	C	1.786139	-0.320554	0.270998
C20	C	1.773736	-0.209686	0.269110
C21	C	2.067664	-0.235046	0.313700
C22	C	2.080067	-0.345911	0.315575
C23	C	2.155216	0.137622	0.326988
C24	C	2.331869	0.139714	0.353779
C25	C	1.824155	0.339722	0.276755
C26	C	1.810945	0.457716	0.274747
N27	N	1.914011	0.114027	0.746657
N28	N	1.811454	0.176750	-0.181427
H29	H	1.649016	-0.154234	0.250191
H30	H	1.706765	0.240772	0.727490
Br31	Br	1.469065	0.126151	0.591101
H32	H	1.520663	-0.307849	0.230722
H33	H	2.204775	-0.401380	0.334495
H34	H	1.311258	0.159200	0.069043
Br35	Br	2.258702	-0.177022	0.342652
H36	H	1.543167	-0.508972	0.234151
H37	H	2.076419	-0.555000	0.315036
H38	H	2.018718	0.050009	0.837751
