data_functionalizedCrystal
_audit_creation_method	'MofGen! by Chris Wilmer'
_symmetry_space_group_name_H-M	'P1'
_symmetry_Int_Tables_number	1
_symmetry_cell_setting	triclinic
loop_
_symmetry_equiv_pos_as_xyz
  x,y,z
_cell_length_a	12.827893
_cell_length_b	12.645330
_cell_length_c	12.827885
_cell_angle_alpha	89.971022
_cell_angle_beta	89.980728
_cell_angle_gamma	90.017662
loop_
_atom_site_label
_atom_site_type_symbol
_atom_site_fract_x
_atom_site_fract_y
_atom_site_fract_z
Zn1	Zn	1.597653	-0.421989	-0.590855
Zn2	Zn	2.097653	0.078011	-0.090855
Zn3	Zn	1.597540	-0.599290	-0.416117
Zn4	Zn	2.097540	-0.099290	0.083883
Zn5	Zn	1.422894	-0.422040	-0.416128
Zn6	Zn	1.922894	0.077960	0.083872
Zn7	Zn	1.422873	-0.599211	-0.590817
Zn8	Zn	1.922873	-0.099211	-0.090817
O9	O	1.510240	-0.510632	-0.503479
O10	O	2.010240	-0.010632	-0.003479
O11	O	1.743874	-0.445520	-0.567686
O12	O	2.243874	0.054480	-0.067686
O13	O	1.574335	-0.575832	-0.269883
O14	O	2.074335	-0.075832	0.230117
O15	O	1.446133	-0.273686	-0.439326
O16	O	1.946133	0.226314	0.060674
O17	O	1.743791	-0.575782	-0.439308
O18	O	2.243791	-0.075782	0.060692
O19	O	1.574527	-0.273648	-0.567697
O20	O	2.074527	0.226352	-0.067697
O21	O	1.446023	-0.445608	-0.269891
O22	O	1.946023	0.054392	0.230109
O23	O	1.276655	-0.445531	-0.439290
O24	O	1.776655	0.054469	0.060710
O25	O	1.446096	-0.575647	-0.737058
O26	O	1.946096	-0.075647	-0.237058
O27	O	1.276639	-0.575697	-0.567633
O28	O	1.776639	-0.075697	-0.067633
O29	O	1.574506	-0.445443	-0.737086
O30	O	2.074506	0.054557	-0.237086
O31	O	1.574314	-0.747626	-0.439271
O32	O	2.074314	-0.247626	0.060729
O33	O	1.445986	-0.747568	-0.567623
O34	O	1.945986	-0.247568	-0.067623
C35	C	1.238730	-0.510612	-0.503459
C36	C	1.738730	-0.010612	-0.003459
C37	C	1.122577	-0.510629	-0.503476
C38	C	1.622577	-0.010629	-0.003476
C39	C	1.070812	-0.575140	-0.566886
C40	C	1.570812	-0.075140	-0.066886
C41	C	0.950762	-0.575159	-0.566904
C42	C	1.450762	-0.075159	-0.066904
C43	C	1.510164	-0.786062	-0.503465
C44	C	2.010164	-0.286062	-0.003465
C45	C	1.510227	-0.903892	-0.503493
C46	C	2.010227	-0.403892	-0.003493
C47	C	1.429829	-1.071464	-0.584488
C48	C	1.929829	-0.571464	-0.084488
C49	C	1.429418	-0.948904	-0.584228
C50	C	1.929418	-0.448904	-0.084228
C51	C	1.480414	-0.948494	-0.393362
C52	C	1.980414	-0.448494	0.106638
C53	C	1.479923	-1.071093	-0.393854
C54	C	1.979923	-0.571093	0.106146
C55	C	1.620929	-1.070979	-0.531736
C56	C	2.120929	-0.570979	-0.031736
C57	C	1.620251	-0.948372	-0.534144
C58	C	2.120251	-0.448372	-0.034144
C59	C	1.782810	-0.510654	-0.503500
C60	C	2.282810	-0.010654	-0.003500
C61	C	1.898963	-0.510663	-0.503509
C62	C	2.398963	-0.010663	-0.003509
C63	C	1.510311	-0.510531	-0.776050
C64	C	2.010311	-0.010531	-0.276050
C65	C	1.510341	-0.510487	-0.892203
C66	C	2.010341	-0.010487	-0.392203
C67	C	1.510345	-0.234127	-0.503517
C68	C	2.010345	0.265873	-0.003517
C69	C	1.510390	-0.116297	-0.503533
C70	C	2.010390	0.383703	-0.003533
C71	C	1.573890	-0.446045	-0.944001
C72	C	2.073890	0.053955	-0.444001
C73	C	1.573923	-0.445999	-1.064052
C74	C	2.073923	0.054001	-0.564052
C75	C	1.510229	-0.510657	-0.231969
C76	C	2.010229	-0.010657	0.268031
C77	C	1.510401	-0.510402	-0.115817
C78	C	2.010401	-0.010402	0.384183
H79	H	0.943473	-0.455433	-0.449214
H80	H	1.443473	0.044567	0.050786
H81	H	1.628332	-0.390832	-1.108597
H82	H	2.128332	0.109168	-0.608597
H83	H	0.906245	-0.630392	-0.621189
H84	H	1.406245	-0.130392	-0.121189
Br85	Br	1.460624	-1.120477	-0.721049
Br86	Br	1.960624	-0.620477	-0.221049
H87	H	1.537231	-0.919340	-0.331396
H88	H	2.037231	-0.419340	0.168604
H89	H	1.348392	-1.102366	-0.566042
H90	H	1.848392	-0.602366	-0.066042
H91	H	1.347469	-0.919671	-0.565543
H92	H	1.847469	-0.419671	-0.065543
H93	H	1.455996	-0.565580	-1.071278
H94	H	1.955996	-0.065580	-0.571278
Br95	Br	1.048320	-0.418583	-0.413018
Br96	Br	1.548320	0.081417	0.086982
Br97	Br	1.419687	-0.602382	-0.966412
Br98	Br	1.919687	-0.102382	-0.466412
H99	H	1.115371	-0.630352	-0.621164
H100	H	1.615371	-0.130352	-0.121164
H101	H	1.399118	-1.099786	-0.369962
H102	H	1.899118	-0.599786	0.130038
H103	H	1.448070	-0.918744	-0.665889
H104	H	1.948070	-0.418744	-0.165889
Br105	Br	1.573465	-1.120538	-0.289886
Br106	Br	2.073465	-0.620538	0.210114
H107	H	1.400452	-0.917885	-0.369038
H108	H	1.900452	-0.417885	0.130962
H109	H	1.648124	-1.101818	-0.610678
H110	H	2.148124	-0.601818	-0.110678
Br111	Br	1.657728	-0.899781	-0.669236
Br112	Br	2.157728	-0.399781	-0.169236
H113	H	1.680949	-1.099972	-0.472773
H114	H	2.180949	-0.599972	0.027227
Br115	Br	1.725568	-0.897284	-0.443034
Br116	Br	2.225568	-0.397284	0.056966
H117	H	1.628268	-0.390905	-0.899471
H118	H	2.128268	0.109095	-0.399471
