data_functionalizedCrystal
_audit_creation_method	'MofGen! by Chris Wilmer'
_symmetry_space_group_name_H-M	'P1'
_symmetry_Int_Tables_number	1
_symmetry_cell_setting	triclinic
loop_
_symmetry_equiv_pos_as_xyz
  x,y,z
_cell_length_a	12.594516
_cell_length_b	17.638785
_cell_length_c	17.640968
_cell_angle_alpha	114.308072
_cell_angle_beta	78.772174
_cell_angle_gamma	101.217217
loop_
_atom_site_label
_atom_site_type_symbol
_atom_site_fract_x
_atom_site_fract_y
_atom_site_fract_z
Zn1	Zn	-0.596922	-1.354134	-0.720276
Zn2	Zn	-0.263589	-1.020800	-0.386942
Zn3	Zn	0.069744	-0.687467	-0.053609
Zn4	Zn	-0.804823	-1.326190	-0.582465
Zn5	Zn	-0.471490	-0.992857	-0.249132
Zn6	Zn	-0.138156	-0.659523	0.084201
Zn7	Zn	-0.596867	-1.188460	-0.554669
Zn8	Zn	-0.263533	-0.855127	-0.221336
Zn9	Zn	0.069800	-0.521794	0.111997
Zn10	Zn	-0.744853	-1.216299	-0.692426
Zn11	Zn	-0.411520	-0.882966	-0.359093
Zn12	Zn	-0.078186	-0.549632	-0.025759
O13	O	-0.685866	-1.271271	-0.637459
O14	O	-0.352533	-0.937937	-0.304126
O15	O	-0.019199	-0.604604	0.029208
O16	O	-0.649622	-1.465751	-0.725283
O17	O	-0.316288	-1.132418	-0.391949
O18	O	0.017045	-0.799085	-0.058616
O19	O	-0.802311	-1.284575	-0.463453
O20	O	-0.468978	-0.951242	-0.130119
O21	O	-0.135645	-0.617908	0.203214
O22	O	-0.447934	-1.210481	-0.576660
O23	O	-0.114601	-0.877148	-0.243326
O24	O	0.218733	-0.543815	0.090007
O25	O	-0.802365	-1.445221	-0.624034
O26	O	-0.469032	-1.111888	-0.290701
O27	O	-0.135699	-0.778555	0.042632
O28	O	-0.447975	-1.332201	-0.698330
O29	O	-0.114642	-0.998867	-0.364997
O30	O	0.218692	-0.665534	-0.031663
O31	O	-0.649527	-1.183386	-0.443031
O32	O	-0.316194	-0.850052	-0.109697
O33	O	0.017140	-0.516719	0.223636
O34	O	-0.591376	-1.076829	-0.549655
O35	O	-0.258043	-0.743495	-0.216322
O36	O	0.075290	-0.410162	0.117012
O37	O	-0.700155	-1.257928	-0.811446
O38	O	-0.366822	-0.924595	-0.478113
O39	O	-0.033488	-0.591261	-0.144779
O40	O	-0.700101	-1.097281	-0.650864
O41	O	-0.366768	-0.763948	-0.317531
O42	O	-0.033435	-0.430615	0.015802
O43	O	-0.591471	-1.359194	-0.831907
O44	O	-0.258138	-1.025861	-0.498574
O45	O	0.075196	-0.692528	-0.165240
O46	O	-0.945808	-1.311569	-0.597030
O47	O	-0.612474	-0.978235	-0.263696
O48	O	-0.279141	-0.644902	0.069637
O49	O	-0.901748	-1.230832	-0.677817
O50	O	-0.568415	-0.897499	-0.344484
O51	O	-0.235081	-0.564166	-0.011151
C52	C	-0.639226	-1.057153	-0.594222
C53	C	-0.305893	-0.723819	-0.260889
C54	C	0.027441	-0.390486	0.072445
C55	C	-0.619294	-0.965556	-0.575744
C56	C	-0.285961	-0.632223	-0.242411
C57	C	0.047372	-0.298889	0.090922
C58	C	-0.837431	-0.717576	-0.778031
C59	C	-0.504097	-0.384242	-0.444698
C60	C	-0.170764	-0.050909	-0.111365
C61	C	-0.818697	-0.631503	-0.760648
C62	C	-0.485364	-0.298169	-0.427315
C63	C	-0.152031	0.035164	-0.093982
C64	C	-0.705235	-0.610205	-0.655422
C65	C	-0.371902	-0.276871	-0.322089
C66	C	-0.038569	0.056462	0.011244
C67	C	-0.723964	-0.696277	-0.672794
C68	C	-0.390630	-0.362944	-0.339460
C69	C	-0.057297	-0.029610	-0.006127
C70	C	-0.790061	-0.749956	-0.734100
C71	C	-0.456728	-0.416623	-0.400766
C72	C	-0.123395	-0.083290	-0.067433
C73	C	-0.676594	-0.728658	-0.628862
C74	C	-0.343261	-0.395324	-0.295529
C75	C	-0.009927	-0.061991	0.037805
C76	C	-0.695317	-0.814723	-0.646235
C77	C	-0.361983	-0.481390	-0.312902
C78	C	-0.028650	-0.148057	0.020431
C79	C	-0.761409	-0.868408	-0.707540
C80	C	-0.428075	-0.535075	-0.374207
C81	C	-0.094742	-0.201742	-0.040874
C82	C	-0.808784	-0.836022	-0.751473
C83	C	-0.475450	-0.502689	-0.418140
C84	C	-0.142117	-0.169355	-0.084806
C85	C	-0.610491	-0.674978	-0.567560
C86	C	-0.277157	-0.341644	-0.234227
C87	C	0.056176	-0.008311	0.099106
C88	C	-0.563121	-0.707359	-0.523629
C89	C	-0.229788	-0.374025	-0.190296
C90	C	0.103546	-0.040692	0.143038
C91	C	-0.581849	-0.793425	-0.540998
C92	C	-0.248516	-0.460091	-0.207664
C93	C	0.084817	-0.126758	0.125669
C94	C	-0.647941	-0.847110	-0.602303
C95	C	-0.314608	-0.513776	-0.268969
C96	C	0.018725	-0.180443	0.064364
C97	C	-0.534474	-0.825811	-0.497065
C98	C	-0.201141	-0.492478	-0.163732
C99	C	0.132192	-0.159144	0.169602
C100	C	-0.553197	-0.911877	-0.514438
C101	C	-0.219863	-0.578543	-0.181105
C102	C	0.113470	-0.245210	0.152228
C103	C	-0.666664	-0.933175	-0.619676
C104	C	-0.333331	-0.599842	-0.286343
C105	C	0.000003	-0.266509	0.046991
C106	C	-0.962397	-1.271215	-0.637440
C107	C	-0.629064	-0.937882	-0.304107
C108	C	-0.295730	-0.604548	0.029227
C109	C	-1.080709	-1.271272	-0.637475
C110	C	-0.747375	-0.937939	-0.304141
C111	C	-0.414042	-0.604606	0.029192
C112	C	-1.126044	-1.227347	-0.681375
C113	C	-0.792710	-0.894013	-0.348042
C114	C	-0.459377	-0.560680	-0.014709
C115	C	-1.208858	-1.192064	-0.602126
C116	C	-0.875525	-0.858731	-0.268793
C117	C	-0.542192	-0.525398	0.064540
C118	C	-1.208706	-1.306632	-0.716752
C119	C	-0.875373	-0.973299	-0.383418
C120	C	-0.542040	-0.639966	-0.050085
C121	C	-1.161965	-1.235942	-0.558178
C122	C	-0.828632	-0.902609	-0.224845
C123	C	-0.495299	-0.569276	0.108489
C124	C	-1.161804	-1.350555	-0.672861
C125	C	-0.828470	-1.017222	-0.339528
C126	C	-0.495137	-0.683889	-0.006194
C127	C	-1.244604	-1.315291	-0.593566
C128	C	-0.911271	-0.981958	-0.260233
C129	C	-0.577937	-0.648625	0.073101
C130	C	-0.408256	-1.271353	-0.637501
C131	C	-0.074923	-0.938019	-0.304167
C132	C	0.258410	-0.604686	0.029166
C133	C	-0.289956	-1.271388	-0.637518
C134	C	0.043378	-0.938054	-0.304185
C135	C	0.376711	-0.604721	0.029148
C136	C	-0.639130	-1.314784	-0.852415
C137	C	-0.305797	-0.981450	-0.519082
C138	C	0.027537	-0.648117	-0.185749
C139	C	-0.619214	-1.333326	-0.944017
C140	C	-0.285880	-0.999993	-0.610683
C141	C	0.047453	-0.666659	-0.277350
C142	C	-0.732681	-0.486225	-0.680864
C143	C	-0.399348	-0.152891	-0.347531
C144	C	-0.066015	0.180442	-0.014198
C145	C	-0.752610	-0.577824	-0.699358
C146	C	-0.419277	-0.244491	-0.366024
C147	C	-0.085944	0.088842	-0.032691
C148	C	-0.836657	-1.130721	-1.192024
C149	C	-0.503324	-0.797388	-0.858691
C150	C	-0.169991	-0.464055	-0.525358
C151	C	-0.817933	-1.148162	-1.278101
C152	C	-0.484600	-0.814829	-0.944768
C153	C	-0.151267	-0.481496	-0.611435
C154	C	-0.704770	-1.253602	-1.299395
C155	C	-0.371437	-0.920269	-0.966062
C156	C	-0.038104	-0.586935	-0.632729
C157	C	-0.723481	-1.236167	-1.213318
C158	C	-0.390147	-0.902834	-0.879984
C159	C	-0.056814	-0.569500	-0.546651
C160	C	-0.789426	-1.174727	-1.159639
C161	C	-0.456093	-0.841393	-0.826305
C162	C	-0.122759	-0.508060	-0.492972
C163	C	-0.676249	-1.280172	-1.180932
C164	C	-0.342916	-0.946839	-0.847599
C165	C	-0.009583	-0.613506	-0.514265
C166	C	-0.694963	-1.262742	-1.094862
C167	C	-0.361630	-0.929408	-0.761529
C168	C	-0.028296	-0.596075	-0.428196
C169	C	-0.760908	-1.201306	-1.041179
C170	C	-0.427575	-0.867972	-0.707845
C171	C	-0.094241	-0.534639	-0.374512
C172	C	-0.808140	-1.157296	-1.073569
C173	C	-0.474806	-0.823962	-0.740236
C174	C	-0.141473	-0.490629	-0.406903
C175	C	-0.610310	-1.341617	-1.234613
C176	C	-0.276977	-1.008284	-0.901280
C177	C	0.056356	-0.674950	-0.567947
C178	C	-0.563079	-1.385622	-1.202228
C179	C	-0.229746	-1.052289	-0.868894
C180	C	0.103588	-0.718955	-0.535561
C181	C	-0.581786	-1.368188	-1.116156
C182	C	-0.248453	-1.034854	-0.782822
C183	C	0.084880	-0.701521	-0.449489
C184	C	-0.647731	-1.306752	-1.062472
C185	C	-0.314398	-0.973418	-0.729139
C186	C	0.018935	-0.640085	-0.395805
C187	C	-0.534554	-1.412197	-1.083765
C188	C	-0.201221	-1.078864	-0.750432
C189	C	0.132112	-0.745531	-0.417099
C190	C	-0.553268	-1.394767	-0.997696
C191	C	-0.219935	-1.061433	-0.664362
C192	C	0.113399	-0.728100	-0.331029
C193	C	-0.666445	-1.289321	-0.976402
C194	C	-0.333112	-0.955988	-0.643069
C195	C	0.000222	-0.622654	-0.309736
C196	C	-0.732354	-1.227975	-0.423349
C197	C	-0.399021	-0.894641	-0.090015
C198	C	-0.065688	-0.561308	0.243318
C199	C	-0.752005	-1.209592	-0.331780
C200	C	-0.418672	-0.876259	0.001553
C201	C	-0.085339	-0.542925	0.334887
H202	H	-0.891260	-0.761284	-0.827949
H203	H	-0.557927	-0.427951	-0.494615
H204	H	-0.224594	-0.094618	-0.161282
H205	H	-0.856400	-1.112323	-1.304465
H206	H	-0.523067	-0.778990	-0.971132
H207	H	-0.189733	-0.445657	-0.637798
H208	H	-1.229629	-1.336492	-0.783778
H209	H	-0.896295	-1.003158	-0.450445
H210	H	-0.562962	-0.669825	-0.117112
H211	H	-0.651415	-0.566488	-0.605509
H212	H	-0.318082	-0.233155	-0.272176
H213	H	0.015251	0.100179	0.061158
H214	H	-0.651081	-1.303629	-1.343112
H215	H	-0.317748	-0.970296	-1.009779
H216	H	0.015586	-0.636963	-0.676446
H217	H	-1.229947	-1.125071	-0.572226
H218	H	-0.896614	-0.791737	-0.238893
H219	H	-0.563281	-0.458404	0.094441
H220	H	-0.720114	-1.239270	-0.932689
H221	H	-0.386781	-0.905937	-0.599356
H222	H	-0.053448	-0.572603	-0.266023
H223	H	-0.509301	-0.663642	-0.473716
H224	H	-0.175968	-0.330309	-0.140382
H225	H	0.157366	0.003025	0.192951
H226	H	-0.861809	-1.107245	-1.029856
H227	H	-0.528476	-0.773912	-0.696523
H228	H	-0.195143	-0.440578	-0.363190
H229	H	-0.595242	-0.604899	-0.553422
H230	H	-0.261909	-0.271566	-0.220088
H231	H	0.071424	0.061768	0.113245
H232	H	-0.480649	-0.782094	-0.447156
H233	H	-0.147316	-0.448761	-0.113822
H234	H	0.186017	-0.115427	0.219511
H235	H	-0.890327	-1.080670	-1.148311
H236	H	-0.556994	-0.747337	-0.814978
H237	H	-0.223660	-0.414004	-0.481645
H238	H	-0.514806	-1.430599	-0.971327
H239	H	-0.181472	-1.097266	-0.637994
H240	H	0.151861	-0.763932	-0.304661
H241	H	-0.480871	-1.462228	-1.127484
H242	H	-0.147537	-1.128895	-0.794151
H243	H	0.185796	-0.795561	-0.460818
H244	H	-0.595079	-1.355809	-1.304696
H245	H	-0.261746	-1.022475	-0.971363
H246	H	0.071588	-0.689142	-0.638030
H247	H	-0.514614	-0.938242	-0.478671
H248	H	-0.181281	-0.604909	-0.145338
H249	H	0.152052	-0.271576	0.187996
H250	H	-0.720493	-0.976884	-0.669593
H251	H	-0.387160	-0.643551	-0.336260
H252	H	-0.053827	-0.310217	-0.002927
H253	H	-0.776644	-0.938489	-0.721689
H254	H	-0.443311	-0.605156	-0.388356
H255	H	-0.109978	-0.271822	-0.055022
H256	H	-0.862613	-0.879731	-0.801390
H257	H	-0.529280	-0.546397	-0.468057
H258	H	-0.195947	-0.213064	-0.134724
H259	H	-0.857272	-0.605144	-0.796430
H260	H	-0.523938	-0.271810	-0.463097
H261	H	-0.190605	0.061523	-0.129764
H262	H	-1.074771	-1.190103	-0.718416
H263	H	-0.741438	-0.856770	-0.385083
H264	H	-0.408104	-0.523436	-0.051749
H265	H	-1.141159	-1.206006	-0.491119
H266	H	-0.807826	-0.872673	-0.157786
H267	H	-0.474492	-0.539339	0.175547
H268	H	-1.295697	-1.352476	-0.556406
H269	H	-0.962363	-1.019143	-0.223072
H270	H	-0.629030	-0.685810	0.110261
H271	H	-1.140707	-1.417542	-0.702795
H272	H	-0.807373	-1.084209	-0.369461
H273	H	-0.474040	-0.750875	-0.036128
H274	H	-0.509390	-1.435649	-1.245945
H275	H	-0.176056	-1.102316	-0.912611
H276	H	0.157277	-0.768983	-0.579278
H277	H	-0.776148	-1.187118	-0.971096
H278	H	-0.442815	-0.853785	-0.637763
H279	H	-0.109482	-0.520451	-0.304430
