data_functionalizedCrystal
_audit_creation_method	'MofGen! by Chris Wilmer'
_symmetry_space_group_name_H-M	'P1'
_symmetry_Int_Tables_number	1
_symmetry_cell_setting	triclinic
loop_
_symmetry_equiv_pos_as_xyz
  x,y,z
_cell_length_a	13.897448
_cell_length_b	13.897449
_cell_length_c	12.759393
_cell_angle_alpha	89.976287
_cell_angle_beta	90.032272
_cell_angle_gamma	89.982475
loop_
_atom_site_label
_atom_site_type_symbol
_atom_site_fract_x
_atom_site_fract_y
_atom_site_fract_z
Zn1	Zn	-0.383972	-1.474711	0.594085
Zn2	Zn	-0.133972	-1.224711	0.844085
Zn3	Zn	0.116028	-0.974711	1.094085
Zn4	Zn	0.366028	-0.724711	1.344085
Zn5	Zn	-0.545299	-1.474602	0.418400
Zn6	Zn	-0.295299	-1.224602	0.668400
Zn7	Zn	-0.045299	-0.974602	0.918400
Zn8	Zn	0.204701	-0.724602	1.168400
Zn9	Zn	-0.384019	-1.313397	0.418412
Zn10	Zn	-0.134019	-1.063397	0.668412
Zn11	Zn	0.115981	-0.813397	0.918412
Zn12	Zn	0.365981	-0.563397	1.168412
Zn13	Zn	-0.545227	-1.313382	0.594028
Zn14	Zn	-0.295227	-1.063382	0.844028
Zn15	Zn	-0.045227	-0.813382	1.094028
Zn16	Zn	0.204773	-0.563382	1.344028
O17	O	-0.464629	-1.394023	0.506231
O18	O	-0.214629	-1.144023	0.756231
O19	O	0.035371	-0.894023	1.006231
O20	O	0.285371	-0.644023	1.256231
O21	O	-0.405383	-1.609678	0.570799
O22	O	-0.155383	-1.359678	0.820799
O23	O	0.094617	-1.109678	1.070799
O24	O	0.344617	-0.859678	1.320799
O25	O	-0.523954	-1.453179	0.271380
O26	O	-0.273954	-1.203179	0.521380
O27	O	-0.023954	-0.953179	0.771380
O28	O	0.226046	-0.703179	1.021380
O29	O	-0.249031	-1.334848	0.441744
O30	O	0.000969	-1.084848	0.691744
O31	O	0.250969	-0.834848	0.941744
O32	O	0.500969	-0.584848	1.191744
O33	O	-0.523909	-1.609598	0.441723
O34	O	-0.273909	-1.359598	0.691723
O35	O	-0.023909	-1.109598	0.941723
O36	O	0.226091	-0.859598	1.191723
O37	O	-0.248997	-1.453364	0.570810
O38	O	0.001003	-1.203364	0.820810
O39	O	0.251003	-0.953364	1.070810
O40	O	0.501003	-0.703364	1.320810
O41	O	-0.405463	-1.334743	0.271389
O42	O	-0.155463	-1.084743	0.521389
O43	O	0.094537	-0.834743	0.771389
O44	O	0.344537	-0.584743	1.021389
O45	O	-0.405393	-1.178414	0.441689
O46	O	-0.155393	-0.928414	0.691689
O47	O	0.094607	-0.678414	0.941689
O48	O	0.344607	-0.428414	1.191689
O49	O	-0.523786	-1.334821	0.741057
O50	O	-0.273786	-1.084821	0.991057
O51	O	-0.023786	-0.834821	1.241057
O52	O	0.226214	-0.584821	1.491057
O53	O	-0.523831	-1.178402	0.570714
O54	O	-0.273831	-0.928402	0.820714
O55	O	-0.023831	-0.678402	1.070714
O56	O	0.226169	-0.428402	1.320714
O57	O	-0.405314	-1.453349	0.741099
O58	O	-0.155314	-1.203349	0.991099
O59	O	0.094686	-0.953349	1.241099
O60	O	0.344686	-0.703349	1.491099
O61	O	-0.680271	-1.453164	0.441668
O62	O	-0.430271	-1.203164	0.691668
O63	O	-0.180271	-0.953164	0.941668
O64	O	0.069729	-0.703164	1.191668
O65	O	-0.680218	-1.334716	0.570702
O66	O	-0.430218	-1.084716	0.820702
O67	O	-0.180218	-0.834716	1.070702
O68	O	0.069782	-0.584716	1.320702
C69	C	-0.464610	-1.143409	0.506197
C70	C	-0.214610	-0.893409	0.756197
C71	C	0.035390	-0.643409	1.006197
C72	C	0.285390	-0.393409	1.256197
C73	C	-0.464625	-1.036195	0.506207
C74	C	-0.214625	-0.786195	0.756207
C75	C	0.035375	-0.536195	1.006207
C76	C	0.285375	-0.286195	1.256207
C77	C	-0.715244	-1.393953	0.506201
C78	C	-0.465244	-1.143953	0.756201
C79	C	-0.215244	-0.893953	1.006201
C80	C	0.034756	-0.643953	1.256201
C81	C	-0.822458	-1.394011	0.506223
C82	C	-0.572458	-1.144011	0.756223
C83	C	-0.322458	-0.894011	1.006223
C84	C	-0.072458	-0.644011	1.256223
C85	C	-0.464624	-0.839900	0.506227
C86	C	-0.214624	-0.589900	0.756227
C87	C	0.035376	-0.339900	1.006227
C88	C	0.285376	-0.089900	1.256227
C89	C	-0.464621	-0.949132	0.506213
C90	C	-0.214621	-0.699132	0.756213
C91	C	0.035379	-0.449132	1.006213
C92	C	0.285379	-0.199132	1.256213
C93	C	-1.018753	-1.394112	0.506289
C94	C	-0.768753	-1.144112	0.756289
C95	C	-0.518753	-0.894112	1.006289
C96	C	-0.268753	-0.644112	1.256289
C97	C	-0.909520	-1.394053	0.506255
C98	C	-0.659520	-1.144053	0.756255
C99	C	-0.409520	-0.894053	1.006255
C100	C	-0.159520	-0.644053	1.256255
C101	C	-0.213036	-1.394120	0.506285
C102	C	0.036964	-1.144120	0.756285
C103	C	0.286964	-0.894120	1.006285
C104	C	0.536964	-0.644120	1.256285
C105	C	-0.105822	-1.394161	0.506307
C106	C	0.144178	-1.144161	0.756307
C107	C	0.394178	-0.894161	1.006307
C108	C	0.644178	-0.644161	1.256307
C109	C	-0.464537	-1.394095	0.780265
C110	C	-0.214537	-1.144095	1.030265
C111	C	0.035463	-0.894095	1.280265
C112	C	0.285463	-0.644095	1.530265
C113	C	-0.464497	-1.394126	0.897041
C114	C	-0.214497	-1.144126	1.147041
C115	C	0.035503	-0.894126	1.397041
C116	C	0.285503	-0.644126	1.647041
C117	C	-0.464643	-0.645616	0.506256
C118	C	-0.214643	-0.395616	0.756256
C119	C	0.035357	-0.145616	1.006256
C120	C	0.285357	0.104384	1.256256
C121	C	-0.464633	-0.752830	0.506240
C122	C	-0.214633	-0.502830	0.756240
C123	C	0.035367	-0.252830	1.006240
C124	C	0.285367	-0.002830	1.256240
C125	C	-0.464652	-1.394007	0.233264
C126	C	-0.214652	-1.144007	0.483264
C127	C	0.035348	-0.894007	0.733264
C128	C	0.285348	-0.644007	0.983264
C129	C	-0.464420	-1.394163	0.116488
C130	C	-0.214420	-1.144163	0.366488
C131	C	0.035580	-0.894163	0.616488
C132	C	0.285580	-0.644163	0.866488
C133	C	-0.402799	-1.455848	0.951927
C134	C	-0.152799	-1.205848	1.201927
C135	C	0.097201	-0.955848	1.451927
C136	C	0.347201	-0.705848	1.701927
C137	C	-0.402757	-1.455864	1.061651
C138	C	-0.152757	-1.205864	1.311651
C139	C	0.097243	-0.955864	1.561651
C140	C	0.347243	-0.705864	1.811651
C141	C	-0.526121	-1.332434	1.061595
C142	C	-0.276121	-1.082434	1.311595
C143	C	-0.026121	-0.832434	1.561595
C144	C	0.223879	-0.582434	1.811595
C145	C	-0.526157	-1.332413	0.951872
C146	C	-0.276157	-1.082413	1.201872
C147	C	-0.026157	-0.832413	1.451872
C148	C	0.223843	-0.582413	1.701872
H149	H	-0.352514	-1.506123	1.106334
H150	H	-0.102514	-1.256123	1.356334
H151	H	0.147486	-1.006123	1.606334
H152	H	0.397486	-0.756123	1.856334
H153	H	-0.576324	-1.282192	1.106252
H154	H	-0.326324	-1.032192	1.356252
H155	H	-0.076324	-0.782192	1.606252
H156	H	0.173676	-0.532192	1.856252
C157	C	-0.648108	-1.210414	0.962829
C158	C	-0.398108	-0.960414	1.212829
C159	C	-0.148108	-0.710414	1.462829
C160	C	0.101892	-0.460414	1.712829
C161	C	-0.593986	-1.264567	0.891534
C162	C	-0.343986	-1.014567	1.141534
C163	C	-0.093986	-0.764567	1.391534
C164	C	0.156014	-0.514567	1.641534
H165	H	-0.689983	-1.168534	0.925576
H166	H	-0.439983	-0.918534	1.175576
H167	H	-0.189983	-0.668534	1.425576
H168	H	0.060017	-0.418534	1.675576
H169	H	-0.606067	-1.173541	1.005623
H170	H	-0.356067	-0.923541	1.255623
H171	H	-0.106067	-0.673541	1.505623
H172	H	0.143933	-0.423541	1.755623
H173	H	-0.684994	-1.252443	1.005629
H174	H	-0.434994	-1.002443	1.255629
H175	H	-0.184994	-0.752443	1.505629
H176	H	0.065006	-0.502443	1.755629
H177	H	-0.557095	-1.222538	0.848739
H178	H	-0.307095	-0.972538	1.098739
H179	H	-0.057095	-0.722538	1.348739
H180	H	0.192905	-0.472538	1.598739
H181	H	-0.636033	-1.301442	0.848722
H182	H	-0.386033	-1.051442	1.098722
H183	H	-0.136033	-0.801442	1.348722
H184	H	0.113967	-0.551442	1.598722
H185	H	-0.352589	-1.506096	0.907286
H186	H	-0.102589	-1.256096	1.157286
H187	H	0.147411	-1.006096	1.407286
H188	H	0.397411	-0.756096	1.657286
