data_functionalizedCrystal
_audit_creation_method	'MofGen! by Chris Wilmer'
_symmetry_space_group_name_H-M	'P1'
_symmetry_Int_Tables_number	1
_symmetry_cell_setting	triclinic
loop_
_symmetry_equiv_pos_as_xyz
  x,y,z
_cell_length_a	18.050590
_cell_length_b	18.050589
_cell_length_c	18.101389
_cell_angle_alpha	90.014016
_cell_angle_beta	90.003324
_cell_angle_gamma	90.017386
loop_
_atom_site_label
_atom_site_type_symbol
_atom_site_fract_x
_atom_site_fract_y
_atom_site_fract_z
Zn1	Zn	1.135322	-0.295952	0.418446
Zn2	Zn	1.385322	-0.045952	0.668446
Zn3	Zn	1.635322	0.204048	0.918446
Zn4	Zn	1.885322	0.454048	1.168446
Zn5	Zn	1.135224	-0.420126	0.294614
Zn6	Zn	1.385224	-0.170126	0.544614
Zn7	Zn	1.635224	0.079874	0.794614
Zn8	Zn	1.885224	0.329874	1.044614
Zn9	Zn	1.011133	-0.295931	0.294653
Zn10	Zn	1.261133	-0.045931	0.544653
Zn11	Zn	1.511133	0.204069	0.794653
Zn12	Zn	1.761133	0.454069	1.044653
Zn13	Zn	1.011090	-0.420081	0.418448
Zn14	Zn	1.261090	-0.170081	0.668448
Zn15	Zn	1.511090	0.079919	0.918448
Zn16	Zn	1.761090	0.329919	1.168448
O17	O	1.073192	-0.358023	0.356540
O18	O	1.323192	-0.108023	0.606540
O19	O	1.573192	0.141977	0.856540
O20	O	1.823192	0.391977	1.106540
O21	O	1.239234	-0.312452	0.402003
O22	O	1.489234	-0.062452	0.652003
O23	O	1.739234	0.187548	0.902003
O24	O	1.989234	0.437548	1.152003
O25	O	1.118740	-0.403662	0.190987
O26	O	1.368740	-0.153662	0.440987
O27	O	1.618740	0.096338	0.690987
O28	O	1.868740	0.346338	0.940987
O29	O	1.027666	-0.192009	0.311090
O30	O	1.277666	0.057991	0.561090
O31	O	1.527666	0.307991	0.811090
O32	O	1.777666	0.557991	1.061090
O33	O	1.239162	-0.403682	0.311024
O34	O	1.489162	-0.153682	0.561024
O35	O	1.739162	0.096318	0.811024
O36	O	1.989162	0.346318	1.061024
O37	O	1.118907	-0.192025	0.402040
O38	O	1.368907	0.057975	0.652040
O39	O	1.618907	0.307975	0.902040
O40	O	1.868907	0.557975	1.152040
O41	O	1.027571	-0.312416	0.191015
O42	O	1.277571	-0.062416	0.441015
O43	O	1.527571	0.187584	0.691015
O44	O	1.777571	0.437584	0.941015
O45	O	0.907202	-0.312372	0.311092
O46	O	1.157202	-0.062372	0.561092
O47	O	1.407202	0.187628	0.811092
O48	O	1.657202	0.437628	1.061092
O49	O	1.027592	-0.403605	0.522081
O50	O	1.277592	-0.153605	0.772081
O51	O	1.527592	0.096395	1.022081
O52	O	1.777592	0.346395	1.272081
O53	O	0.907171	-0.403585	0.402044
O54	O	1.157171	-0.153585	0.652044
O55	O	1.407171	0.096415	0.902044
O56	O	1.657171	0.346415	1.152044
O57	O	1.118866	-0.312408	0.522080
O58	O	1.368866	-0.062408	0.772080
O59	O	1.618866	0.187592	1.022080
O60	O	1.868866	0.437592	1.272080
O61	O	1.118698	-0.524045	0.311026
O62	O	1.368698	-0.274045	0.561026
O63	O	1.618698	-0.024045	0.811026
O64	O	1.868698	0.225955	1.061026
O65	O	1.027497	-0.524012	0.402006
O66	O	1.277497	-0.274012	0.652006
O67	O	1.527497	-0.024012	0.902006
O68	O	1.777497	0.225988	1.152006
C69	C	0.880240	-0.357972	0.356572
C70	C	1.130240	-0.107972	0.606572
C71	C	1.380240	0.142028	0.856572
C72	C	1.630240	0.392028	1.106572
C73	C	0.797694	-0.357968	0.356604
C74	C	1.047694	-0.107968	0.606604
C75	C	1.297694	0.142032	0.856604
C76	C	1.547694	0.392032	1.106604
C77	C	0.598248	-0.407712	0.405946
C78	C	0.848248	-0.157712	0.655946
C79	C	1.098248	0.092288	0.905946
C80	C	1.348248	0.342288	1.155946
C81	C	0.548856	-0.339998	0.424165
C82	C	0.798856	-0.089998	0.674165
C83	C	1.048856	0.160002	0.924165
C84	C	1.298856	0.410002	1.174165
C85	C	0.646564	-0.358010	0.356567
C86	C	0.896564	-0.108010	0.606567
C87	C	1.146564	0.141990	0.856567
C88	C	1.396564	0.391990	1.106567
C89	C	0.548874	-0.425762	0.338348
C90	C	0.798874	-0.175762	0.588348
C91	C	1.048874	0.074238	0.838348
C92	C	1.298874	0.324238	1.088348
C93	C	0.500579	-0.358056	0.356534
C94	C	0.750579	-0.108056	0.606534
C95	C	1.000579	0.141944	0.856534
C96	C	1.250579	0.391944	1.106534
C97	C	0.598259	-0.290260	0.374821
C98	C	0.848259	-0.040260	0.624821
C99	C	1.098259	0.209740	0.874821
C100	C	1.348259	0.459740	1.124821
C101	C	0.598282	-0.376070	0.288973
C102	C	0.848282	-0.126070	0.538973
C103	C	1.098282	0.123930	0.788973
C104	C	1.348282	0.373930	1.038973
C105	C	0.548912	-0.308309	0.307167
C106	C	0.798912	-0.058309	0.557167
C107	C	1.048912	0.191691	0.807167
C108	C	1.298912	0.441691	1.057167
C109	C	0.730662	-0.357984	0.356589
C110	C	0.980662	-0.107984	0.606589
C111	C	1.230662	0.142016	0.856589
C112	C	1.480662	0.392016	1.106589
C113	C	0.416482	-0.358074	0.356513
C114	C	0.666482	-0.108074	0.606513
C115	C	0.916482	0.141926	0.856513
C116	C	1.166482	0.391926	1.106513
C117	C	1.073103	-0.550975	0.356528
C118	C	1.323103	-0.300975	0.606528
C119	C	1.573103	-0.050975	0.856528
C120	C	1.823103	0.199025	1.106528
C121	C	1.073132	-0.633521	0.356548
C122	C	1.323132	-0.383521	0.606548
C123	C	1.573132	-0.133521	0.856548
C124	C	1.823132	0.116479	1.106548
C125	C	1.023586	-0.832980	0.406005
C126	C	1.273586	-0.582980	0.656005
C127	C	1.523586	-0.332980	0.906005
C128	C	1.773586	-0.082980	1.156005
C129	C	1.005483	-0.882406	0.338433
C130	C	1.255483	-0.632406	0.588433
C131	C	1.505483	-0.382406	0.838433
C132	C	1.755483	-0.132406	1.088433
C133	C	1.073205	-0.784651	0.356557
C134	C	1.323205	-0.534651	0.606557
C135	C	1.573205	-0.284651	0.856557
C136	C	1.823205	-0.034651	1.106557
C137	C	1.091344	-0.882307	0.424137
C138	C	1.341344	-0.632307	0.674137
C139	C	1.591344	-0.382307	0.924137
C140	C	1.841344	-0.132307	1.174137
C141	C	1.073274	-0.930636	0.356573
C142	C	1.323274	-0.680636	0.606573
C143	C	1.573274	-0.430636	0.856573
C144	C	1.823274	-0.180636	1.106573
C145	C	1.055067	-0.832989	0.288949
C146	C	1.305067	-0.582989	0.538949
C147	C	1.555067	-0.332989	0.788949
C148	C	1.805067	-0.082989	1.038949
C149	C	1.140960	-0.832886	0.374699
C150	C	1.390960	-0.582886	0.624699
C151	C	1.640960	-0.332886	0.874699
C152	C	1.890960	-0.082886	1.124699
C153	C	1.122883	-0.882290	0.307080
C154	C	1.372883	-0.632290	0.557080
C155	C	1.622883	-0.382290	0.807080
C156	C	1.872883	-0.132290	1.057080
C157	C	1.073163	-0.700553	0.356550
C158	C	1.323163	-0.450553	0.606550
C159	C	1.573163	-0.200553	0.856550
C160	C	1.823163	0.049447	1.106550
C161	C	1.073316	-1.014733	0.356573
C162	C	1.323316	-0.764733	0.606573
C163	C	1.573316	-0.514733	0.856573
C164	C	1.823316	-0.264733	1.106573
C165	C	1.266898	-0.358074	0.356509
C166	C	1.516898	-0.108074	0.606509
C167	C	1.766898	0.141926	0.856509
C168	C	2.016898	0.391926	1.106509
C169	C	1.349444	-0.358096	0.356495
C170	C	1.599444	-0.108096	0.606495
C171	C	1.849444	0.141904	0.856495
C172	C	2.099444	0.391904	1.106495
C173	C	1.073235	-0.358004	0.549702
C174	C	1.323235	-0.108004	0.799702
C175	C	1.573235	0.141996	1.049702
C176	C	1.823235	0.391996	1.299702
C177	C	1.073253	-0.357996	0.632017
C178	C	1.323253	-0.107996	0.882017
C179	C	1.573253	0.142004	1.132017
C180	C	1.823253	0.392004	1.382017
C181	C	1.073302	-0.164317	0.356569
C182	C	1.323302	0.085683	0.606569
C183	C	1.573302	0.335683	0.856569
C184	C	1.823302	0.585683	1.106569
C185	C	1.073349	-0.081771	0.356581
C186	C	1.323349	0.168229	0.606581
C187	C	1.573349	0.418229	0.856581
C188	C	1.823349	0.668229	1.106581
C189	C	1.073192	-0.357988	0.164130
C190	C	1.323192	-0.107988	0.414130
C191	C	1.573192	0.142012	0.664130
C192	C	1.823192	0.392012	0.914130
C193	C	1.073318	-0.357787	0.081816
C194	C	1.323318	-0.107787	0.331816
C195	C	1.573318	0.142213	0.581816
C196	C	1.823318	0.392213	0.831816
C197	C	1.073297	-0.357857	0.931108
C198	C	1.323297	-0.107857	1.181108
C199	C	1.573297	0.142143	1.431108
C200	C	1.823297	0.392143	1.681108
C201	C	1.015672	-0.415053	0.899783
C202	C	1.265672	-0.165053	1.149783
C203	C	1.515672	0.084947	1.399783
C204	C	1.765672	0.334947	1.649783
C205	C	1.015828	-0.415318	0.814165
C206	C	1.265828	-0.165318	1.064165
C207	C	1.515828	0.084682	1.314165
C208	C	1.765828	0.334682	1.564165
C209	C	1.073275	-0.357926	0.782725
C210	C	1.323275	-0.107926	1.032725
C211	C	1.573275	0.142074	1.282725
C212	C	1.823275	0.392074	1.532725
C213	C	1.151521	-0.379184	0.813804
C214	C	1.401521	-0.129184	1.063804
C215	C	1.651521	0.120816	1.313804
C216	C	1.901521	0.370816	1.563804
C217	C	1.151200	-0.379560	0.899449
C218	C	1.401200	-0.129560	1.149449
C219	C	1.651200	0.120440	1.399449
C220	C	1.901200	0.370440	1.649449
C221	C	1.053355	-0.279275	0.899533
C222	C	1.303355	-0.029275	1.149533
C223	C	1.553355	0.220725	1.399533
C224	C	1.803355	0.470725	1.649533
C225	C	1.051614	-0.279729	0.813883
C226	C	1.301614	-0.029729	1.063883
C227	C	1.551614	0.220271	1.313883
C228	C	1.801614	0.470271	1.563883
C229	C	1.073267	-0.357964	0.698866
C230	C	1.323267	-0.107964	0.948866
C231	C	1.573267	0.142036	1.198866
C232	C	1.823267	0.392036	1.448866
C233	C	1.073310	-0.357821	1.014967
C234	C	1.323310	-0.107821	1.264967
C235	C	1.573310	0.142179	1.514967
C236	C	1.823310	0.392179	1.764967
H237	H	0.948218	-0.904174	0.323103
H238	H	1.198218	-0.654174	0.573103
H239	H	1.448218	-0.404174	0.823103
H240	H	1.698218	-0.154174	1.073103
H241	H	1.028707	-0.472945	0.921309
H242	H	1.278707	-0.222945	1.171309
H243	H	1.528707	0.027055	1.421309
H244	H	1.778707	0.277055	1.671309
H245	H	1.095326	-0.236661	0.919791
H246	H	1.345326	0.013339	1.169791
H247	H	1.595326	0.263339	1.419791
H248	H	1.845326	0.513339	1.669791
H249	H	1.195608	-0.338835	0.793439
H250	H	1.445608	-0.088835	1.043439
H251	H	1.695608	0.161165	1.293439
H252	H	1.945608	0.411165	1.543439
N253	N	1.034688	-0.804419	0.213233
N254	N	1.284688	-0.554419	0.463233
N255	N	1.534688	-0.304419	0.713233
N256	N	1.784688	-0.054419	0.963233
H257	H	1.025509	-0.847609	0.178947
H258	H	1.275509	-0.597609	0.428947
H259	H	1.525509	-0.347609	0.678947
H260	H	1.775509	-0.097609	0.928947
H261	H	1.076590	-0.773193	0.193286
H262	H	1.326590	-0.523193	0.443286
H263	H	1.576590	-0.273193	0.693286
H264	H	1.826590	-0.023193	0.943286
N265	N	0.520393	-0.252596	0.251840
N266	N	0.770393	-0.002596	0.501840
N267	N	1.020393	0.247404	0.751840
N268	N	1.270393	0.497404	1.001840
H269	H	0.464442	-0.253219	0.251822
H270	H	0.714442	-0.003219	0.501822
H271	H	0.964442	0.246781	0.751822
H272	H	1.214442	0.496781	1.001822
H273	H	0.539222	-0.265792	0.200973
H274	H	0.789222	-0.015792	0.450973
H275	H	1.039222	0.234208	0.700973
H276	H	1.289222	0.484208	0.950973
H277	H	0.619913	-0.449669	0.447750
H278	H	0.869913	-0.199669	0.697750
H279	H	1.119913	0.050331	0.947750
H280	H	1.369913	0.300331	1.197750
H281	H	0.620008	-0.391351	0.231841
H282	H	0.870008	-0.141351	0.481841
H283	H	1.120008	0.108649	0.731841
H284	H	1.370008	0.358649	0.981841
N285	N	0.520139	-0.501630	0.317946
N286	N	0.770139	-0.251630	0.567946
N287	N	1.020139	-0.001630	0.817946
N288	N	1.270139	0.248370	1.067946
H289	H	0.538088	-0.539113	0.355293
H290	H	0.788088	-0.289113	0.605293
H291	H	1.038088	-0.039113	0.855293
H292	H	1.288088	0.210887	1.105293
H293	H	0.538900	-0.515571	0.267252
H294	H	0.788900	-0.265571	0.517252
H295	H	1.038900	-0.015571	0.767252
H296	H	1.288900	0.234429	1.017252
N297	N	1.178509	-0.910791	0.251642
N298	N	1.428509	-0.660791	0.501642
N299	N	1.678509	-0.410791	0.751642
N300	N	1.928509	-0.160791	1.001642
H301	H	1.164739	-0.892754	0.200645
H302	H	1.414739	-0.642754	0.450645
H303	H	1.664739	-0.392754	0.700645
H304	H	1.914739	-0.142754	0.950645
H305	H	1.178517	-0.966739	0.252315
H306	H	1.428517	-0.716739	0.502315
H307	H	1.678517	-0.466739	0.752315
H308	H	1.928517	-0.216739	1.002315
N309	N	0.520091	-0.319786	0.499861
N310	N	0.770091	-0.069786	0.749861
N311	N	1.020091	0.180214	0.999861
N312	N	1.270091	0.430214	1.249861
H313	H	0.464142	-0.319482	0.499161
H314	H	0.714142	-0.069482	0.749161
H315	H	0.964142	0.180518	0.999161
H316	H	1.214142	0.430518	1.249161
H317	H	0.538879	-0.269005	0.513954
H318	H	0.788879	-0.019005	0.763954
H319	H	1.038879	0.230995	1.013954
H320	H	1.288879	0.480995	1.263954
H321	H	0.994032	-0.263697	0.793571
H322	H	1.244032	-0.013697	1.043571
H323	H	1.494032	0.236303	1.293571
H324	H	1.744032	0.486303	1.543571
N325	N	1.210007	-0.326789	0.926904
N326	N	1.460007	-0.076789	1.176904
N327	N	1.710007	0.173211	1.426904
N328	N	1.960007	0.423211	1.676904
H329	H	1.236025	-0.303388	0.883369
H330	H	1.486025	-0.053388	1.133369
H331	H	1.736025	0.196612	1.383369
H332	H	1.986025	0.446612	1.633369
H333	H	1.247156	-0.354850	0.957836
H334	H	1.497156	-0.104850	1.207836
H335	H	1.747156	0.145150	1.457836
H336	H	1.997156	0.395150	1.707836
H337	H	0.619861	-0.232965	0.390282
H338	H	0.869861	0.017035	0.640282
H339	H	1.119861	0.267035	0.890282
H340	H	1.369861	0.517035	1.140282
H341	H	0.981563	-0.811328	0.447763
H342	H	1.231563	-0.561328	0.697763
H343	H	1.481563	-0.311328	0.947763
H344	H	1.731563	-0.061328	1.197763
N345	N	1.173585	-0.455648	0.925930
N346	N	1.423585	-0.205648	1.175930
N347	N	1.673585	0.044352	1.425930
N348	N	1.923585	0.294352	1.675930
H349	H	1.224876	-0.467664	0.907132
H350	H	1.474876	-0.217664	1.157132
H351	H	1.724876	0.032336	1.407132
H352	H	1.974876	0.282336	1.657132
H353	H	1.137232	-0.493561	0.906673
H354	H	1.387232	-0.243561	1.156673
H355	H	1.637232	0.006439	1.406673
H356	H	1.887232	0.256439	1.656673
H357	H	1.168718	-0.436019	0.792360
H358	H	1.418718	-0.186019	1.042360
H359	H	1.668718	0.063981	1.292360
H360	H	1.918718	0.313981	1.542360
H361	H	1.198212	-0.811120	0.390062
H362	H	1.448212	-0.561120	0.640062
H363	H	1.698212	-0.311120	0.890062
H364	H	1.948212	-0.061120	1.140062
H365	H	1.106659	-0.903970	0.481283
H366	H	1.356659	-0.653970	0.731283
H367	H	1.606659	-0.403970	0.981283
H368	H	1.856659	-0.153970	1.231283
H369	H	0.997290	-0.259910	0.921138
H370	H	1.247290	-0.009910	1.171138
H371	H	1.497290	0.240090	1.421138
H372	H	1.747290	0.490090	1.671138
H373	H	0.957806	-0.402014	0.793153
H374	H	1.207806	-0.152014	1.043153
H375	H	1.457806	0.097986	1.293153
H376	H	1.707806	0.347986	1.543153
N377	N	0.938576	-0.397603	0.927056
N378	N	1.188576	-0.147603	1.177056
N379	N	1.438576	0.102397	1.427056
N380	N	1.688576	0.352397	1.677056
H381	H	0.940252	-0.352455	0.959985
H382	H	1.190252	-0.102455	1.209985
H383	H	1.440252	0.147545	1.459985
H384	H	1.690252	0.397545	1.709985
H385	H	0.918767	-0.441191	0.955925
H386	H	1.168767	-0.191191	1.205925
H387	H	1.418767	0.058809	1.455925
H388	H	1.668767	0.308809	1.705925
N389	N	1.033263	-0.492472	0.787024
N390	N	1.283263	-0.242472	1.037024
N391	N	1.533263	0.007528	1.287024
N392	N	1.783263	0.257528	1.537024
H393	H	1.040885	-0.526440	0.830697
H394	H	1.290885	-0.276440	1.080697
H395	H	1.540885	-0.026440	1.330697
H396	H	1.790885	0.223560	1.580697
H397	H	1.079834	-0.491208	0.756128
H398	H	1.329834	-0.241208	1.006128
H399	H	1.579834	0.008792	1.256128
H400	H	1.829834	0.258792	1.506128
N401	N	1.103149	-0.220277	0.785540
N402	N	1.353149	0.029723	1.035540
N403	N	1.603149	0.279723	1.285540
N404	N	1.853149	0.529723	1.535540
H405	H	1.141441	-0.243294	0.751952
H406	H	1.391441	0.006706	1.001952
H407	H	1.641441	0.256706	1.251952
H408	H	1.891441	0.506706	1.501952
H409	H	1.128720	-0.195564	0.828627
H410	H	1.378720	0.054436	1.078627
H411	H	1.628720	0.304436	1.328627
H412	H	1.878720	0.554436	1.578627
