data_functionalizedCrystal
_audit_creation_method	'MofGen! by Chris Wilmer'
_symmetry_space_group_name_H-M	'P1'
_symmetry_Int_Tables_number	1
_symmetry_cell_setting	triclinic
loop_
_symmetry_equiv_pos_as_xyz
  x,y,z
_cell_length_a	10.540535
_cell_length_b	10.540539
_cell_length_c	9.130313
_cell_angle_alpha	90.000859
_cell_angle_beta	90.002127
_cell_angle_gamma	84.524567
loop_
_atom_site_label
_atom_site_type_symbol
_atom_site_fract_x
_atom_site_fract_y
_atom_site_fract_z
O1	O	1.685883	0.178867	-0.121712
O2	O	1.316470	0.195729	-0.121731
O3	O	1.509604	0.002592	-0.121719
O4	O	1.492749	0.372005	-0.121724
O5	O	1.509602	0.002597	0.121880
O6	O	1.316467	0.195735	0.121867
O7	O	1.685881	0.178873	0.121887
Cu8	Cu	1.501174	0.187304	0.144120
Cu9	Cu	1.501177	0.187298	-0.143964
O10	O	1.492746	0.372010	0.121875
C11	C	1.269165	0.194469	0.000065
C12	C	1.128217	0.190689	0.000058
C13	C	1.091546	0.049675	0.000065
C14	C	0.944946	0.045698	0.000633
C15	C	0.918880	0.255062	0.138910
C16	C	1.065645	0.258063	0.139013
C17	C	1.065532	0.260109	-0.138015
C18	C	0.919185	0.253587	-0.139825
C19	C	1.508339	-0.044709	0.000077
C20	C	1.504557	-0.185657	0.000069
C21	C	1.359640	-0.369081	-0.000485
C22	C	1.363474	-0.222463	0.000063
C23	C	1.572452	-0.247312	0.139180
C24	C	1.567637	-0.393857	0.139297
C25	C	1.570509	-0.394381	-0.137720
C26	C	1.571808	-0.247399	-0.139560
C27	C	1.733185	0.180133	0.000087
C28	C	1.874134	0.183913	0.000085
C29	C	1.494011	0.419311	0.000075
C30	C	1.497793	0.560259	0.000074
N31	N	1.501181	0.187308	0.346742
N32	N	1.501179	0.187284	-0.346587
C33	C	1.586723	0.101816	0.423400
C34	C	1.586720	0.101800	0.576737
C35	C	1.415628	0.272780	0.576745
C36	C	1.415626	0.272788	0.423411
C37	C	1.685506	0.003105	0.423396
C38	C	1.685502	0.003090	0.576733
H39	H	1.133516	-0.004478	-0.099475
H40	H	1.525287	-0.204710	0.242696
N41	N	0.906080	-0.028022	-0.131146
H42	H	0.810559	-0.030757	-0.131024
H43	H	0.932638	0.015125	-0.223466
H44	H	1.345971	0.342376	0.639185
H45	H	1.135003	-0.003567	0.099474
H46	H	1.669102	-0.441827	0.145613
N47	N	1.118856	0.194424	0.277002
H48	H	1.096861	0.103267	0.279713
H49	H	1.214522	0.195821	0.278372
N50	N	1.510038	-0.436177	-0.277389
H51	H	1.434886	-0.484948	-0.252750
H52	H	1.480165	-0.358745	-0.337755
N53	N	0.907240	-0.027636	0.133231
H54	H	0.985896	-0.057495	0.191546
H55	H	0.847249	0.029390	0.196280
N56	N	1.644627	-0.119058	0.639739
H57	H	1.715592	-0.161629	0.702015
H58	H	1.566010	-0.099200	0.701946
H59	H	1.663797	-0.094475	0.381776
H60	H	1.345960	0.342392	0.360998
H61	H	1.777684	0.034055	0.375842
N62	N	1.709707	-0.217756	0.146023
H63	H	1.729241	-0.163978	0.058808
H64	H	1.724270	-0.169642	0.239243
N65	N	1.096167	0.394987	0.146849
H66	H	1.014310	0.453131	0.150229
H67	H	1.147760	0.407740	0.237979
H68	H	1.783062	0.024874	0.618354
N69	N	1.705493	-0.456931	-0.138963
H70	H	1.719530	-0.514375	-0.050752
H71	H	1.720185	-0.509017	-0.231306
H72	H	0.871523	0.356828	0.143680
H73	H	0.887977	0.206252	0.242624
N74	N	1.121767	0.201828	-0.277451
H75	H	1.188457	0.129828	-0.252524
H76	H	1.052100	0.167854	-0.337680
N77	N	1.708064	-0.215334	-0.150690
H78	H	1.709699	-0.119835	-0.156895
H79	H	1.756937	-0.248501	-0.061253
H80	H	1.309674	-0.180704	0.099944
H81	H	0.890584	0.201809	-0.242530
H82	H	1.517458	-0.422053	0.243279
H83	H	0.870137	0.354460	-0.148641
N84	N	1.094914	0.397537	-0.139810
H85	H	1.148560	0.414802	-0.051668
H86	H	1.143118	0.414622	-0.232223
N87	N	1.286104	-0.409070	0.130907
H88	H	1.280251	-0.504109	0.127484
H89	H	1.331376	-0.386573	0.223487
H90	H	1.310051	-0.179861	-0.099657
H91	H	1.303909	-0.397682	-0.100244
H92	H	1.522130	-0.206542	-0.242470
