data_functionalizedCrystal
_audit_creation_method	'MofGen! by Chris Wilmer'
_symmetry_space_group_name_H-M	'P1'
_symmetry_Int_Tables_number	1
_symmetry_cell_setting	triclinic
loop_
_symmetry_equiv_pos_as_xyz
  x,y,z
_cell_length_a	18.101398
_cell_length_b	18.101397
_cell_length_c	13.032268
_cell_angle_alpha	82.856580
_cell_angle_beta	82.827948
_cell_angle_gamma	90.016023
loop_
_atom_site_label
_atom_site_type_symbol
_atom_site_fract_x
_atom_site_fract_y
_atom_site_fract_z
Zn1	Zn	1.079005	-0.348038	0.590578
Zn2	Zn	1.579005	0.151962	1.090578
Zn3	Zn	1.094657	-0.456168	0.415823
Zn4	Zn	1.594657	0.043832	0.915823
Zn5	Zn	0.970892	-0.332340	0.415879
Zn6	Zn	1.470892	0.167660	0.915879
Zn7	Zn	0.955141	-0.471829	0.590540
Zn8	Zn	1.455141	0.028171	1.090540
O9	O	1.024924	-0.402094	0.503205
O10	O	1.524924	0.097906	1.003205
O11	O	1.184715	-0.362397	0.567389
O12	O	1.684715	0.137603	1.067389
O13	O	1.091382	-0.426618	0.269599
O14	O	1.591382	0.073382	0.769599
O15	O	0.985275	-0.230793	0.439093
O16	O	1.485275	0.269207	0.939093
O17	O	1.196214	-0.441839	0.438997
O18	O	1.696214	0.058161	0.938997
O19	O	1.064705	-0.242326	0.567443
O20	O	1.564705	0.257674	1.067443
O21	O	1.000452	-0.335642	0.269640
O22	O	1.500452	0.164358	0.769640
O23	O	0.865169	-0.350828	0.439056
O24	O	1.365169	0.149172	0.939056
O25	O	0.958429	-0.468532	0.736776
O26	O	1.458429	0.031468	1.236776
O27	O	0.853597	-0.453310	0.567378
O28	O	1.353597	0.046690	1.067378
O29	O	1.049431	-0.377583	0.736805
O30	O	1.549431	0.122417	1.236805
O31	O	1.076109	-0.561875	0.438960
O32	O	1.576109	-0.061875	0.938960
O33	O	0.973607	-0.573381	0.567324
O34	O	1.473607	-0.073381	1.067324
C35	C	0.832512	-0.402066	0.503220
C36	C	1.332512	0.097934	1.003220
C37	C	0.750195	-0.402074	0.503251
C38	C	1.250195	0.097926	1.003251
C39	C	0.451108	-0.402114	0.503207
C40	C	0.951108	0.097886	1.003207
C41	C	0.475213	-0.466833	0.583545
C42	C	0.975213	0.033167	1.083545
C43	C	0.560801	-0.466683	0.583876
C44	C	1.060801	0.033317	1.083876
C45	C	0.599489	-0.402095	0.503229
C46	C	1.099489	0.097905	1.003229
C47	C	0.565710	-0.326800	0.533328
C48	C	1.065710	0.173200	1.033328
C49	C	0.480013	-0.327196	0.533900
C50	C	0.980013	0.172804	1.033900
C51	C	0.492619	-0.411984	0.392575
C52	C	0.992619	0.088016	0.892575
C53	C	0.578217	-0.413749	0.393166
C54	C	1.078217	0.086251	0.893166
C55	C	0.683347	-0.402079	0.503239
C56	C	1.183347	0.097921	1.003239
C57	C	0.367249	-0.402124	0.503199
C58	C	0.867249	0.097876	1.003199
C59	C	1.024865	-0.594500	0.503154
C60	C	1.524865	-0.094500	1.003154
C61	C	1.024904	-0.676815	0.503168
C62	C	1.524904	-0.176815	1.003168
C63	C	1.024990	-0.975914	0.503263
C64	C	1.524990	-0.475914	1.003263
C65	C	1.089342	-0.937300	0.422284
C66	C	1.589342	-0.437300	0.922284
C67	C	1.089520	-0.851700	0.422494
C68	C	1.589520	-0.351700	0.922494
C69	C	1.024948	-0.827528	0.503215
C70	C	1.524948	-0.327528	1.003215
C71	C	1.036187	-0.868442	0.613358
C72	C	1.536187	-0.368442	1.113358
C73	C	1.036669	-0.954047	0.612917
C74	C	1.536669	-0.454047	1.112917
C75	C	0.949161	-0.941880	0.475053
C76	C	1.449161	-0.441880	0.975053
C77	C	0.949770	-0.856010	0.472594
C78	C	1.449770	-0.356010	0.972594
C79	C	1.024922	-0.743666	0.503194
C80	C	1.524922	-0.243666	1.003194
C81	C	1.025017	-1.059776	0.503291
C82	C	1.525017	-0.559776	1.003291
C83	C	1.218087	-0.402122	0.503191
C84	C	1.718087	0.097878	1.003191
C85	C	1.300401	-0.402134	0.503185
C86	C	1.800401	0.097866	1.003185
C87	C	1.000427	-0.426555	0.775767
C88	C	1.500427	0.073445	1.275767
C89	C	0.989988	-0.436979	0.891917
C90	C	1.489988	0.063021	1.391917
C91	C	1.025001	-0.208938	0.503279
C92	C	1.525001	0.291062	1.003279
C93	C	1.025034	-0.126627	0.503310
C94	C	1.525034	0.373373	1.003310
C95	C	1.049368	-0.377674	0.231704
C96	C	1.549368	0.122326	0.731704
C97	C	1.059950	-0.367042	0.115555
C98	C	1.559950	0.132958	0.615555
C99	C	1.030360	-0.396627	0.943714
C100	C	1.530360	0.103373	1.443714
C101	C	1.019572	-0.407399	1.063760
C102	C	1.519572	0.092601	1.563760
H103	H	0.452767	-0.317659	0.614776
H104	H	0.952767	0.182341	1.114776
F105	F	0.467592	-0.481835	0.356814
F106	F	0.967592	0.018165	0.856814
H107	H	0.901337	-0.967447	0.534033
H108	H	1.401337	-0.467447	1.034033
H109	H	0.991309	-0.980384	0.675331
H110	H	1.491309	-0.480384	1.175331
F111	F	1.081896	-0.954654	0.315213
F112	F	1.581896	-0.454654	0.815213
H113	H	0.990320	-0.853652	0.675315
H114	H	1.490320	-0.353652	1.175315
H115	H	1.090642	-0.849125	0.637660
H116	H	1.590642	-0.349125	1.137660
F117	F	0.934366	-0.492557	0.950113
F118	F	1.434366	0.007443	1.450113
H119	H	0.937021	-0.956442	0.396130
H120	H	1.437021	-0.456442	0.896130
H121	H	0.600575	-0.469105	0.370465
H122	H	1.100575	0.030895	0.870465
H123	H	0.583506	-0.522829	0.565010
H124	H	1.083506	-0.022829	1.065010
H125	H	0.446363	-0.461215	0.665042
H126	H	0.946363	0.038785	1.165042
F127	F	0.450472	-0.540494	0.559170
F128	F	0.950472	-0.040494	1.059170
H129	H	0.573921	-0.460941	0.665846
H130	H	1.073921	0.039059	1.165846
F131	F	0.459500	-0.262729	0.460755
F132	F	0.959500	0.237271	0.960755
F133	F	0.598988	-0.262624	0.459237
F134	F	1.098988	0.237376	0.959237
H135	H	0.579969	-0.316880	0.613326
H136	H	1.079969	0.183120	1.113326
F137	F	1.108731	-0.982900	0.644152
F138	F	1.608731	-0.482900	1.144152
F139	F	0.938453	-0.819998	0.366650
F140	F	1.438453	-0.319998	0.866650
F141	F	0.963947	-0.462980	1.121953
F142	F	1.463947	0.037020	1.621953
H143	H	0.605288	-0.369241	0.330093
H144	H	1.105288	0.130759	0.830093
H145	H	0.477742	-0.364722	0.332716
H146	H	0.977742	0.135278	0.832716
H147	H	1.145415	-0.960431	0.440733
H148	H	1.645415	-0.460431	0.940733
F149	F	1.163200	-0.827045	0.446893
F150	F	1.663200	-0.327045	0.946893
F151	F	1.081792	-0.814699	0.315758
F152	F	1.581792	-0.314699	0.815758
F153	F	0.884776	-0.834479	0.544042
F154	F	1.384776	-0.334479	1.044042
F155	F	1.085964	-0.341030	0.885517
F156	F	1.585964	0.158970	1.385517
F157	F	1.115579	-0.311464	1.057364
F158	F	1.615579	0.188536	1.557364
