data_functionalizedCrystal
_audit_creation_method	'MofGen! by Chris Wilmer'
_symmetry_space_group_name_H-M	'P1'
_symmetry_Int_Tables_number	1
_symmetry_cell_setting	triclinic
loop_
_symmetry_equiv_pos_as_xyz
  x,y,z
_cell_length_a	10.654546
_cell_length_b	9.730223
_cell_length_c	10.654550
_cell_angle_alpha	90.001631
_cell_angle_beta	84.484193
_cell_angle_gamma	90.005369
loop_
_atom_site_label
_atom_site_type_symbol
_atom_site_fract_x
_atom_site_fract_y
_atom_site_fract_z
O1	O	1.667844	0.114316	0.176374
O2	O	1.302365	0.114312	0.193185
O3	O	1.493508	0.114309	0.002040
O4	O	1.476701	0.114319	0.367519
O5	O	1.493490	-0.114271	0.002041
O6	O	1.302348	-0.114268	0.193186
O7	O	1.667827	-0.114264	0.176375
Zn8	Zn	1.485085	-0.150558	0.184781
Zn9	Zn	1.485107	0.150606	0.184780
O10	O	1.476684	-0.114261	0.367520
C11	C	1.255558	0.000022	0.191952
C12	C	1.116115	0.000020	0.188262
N13	N	1.485078	-0.356094	0.184781
C14	C	1.050629	0.124625	0.186515
C15	C	0.919609	0.124636	0.183038
C16	C	0.919571	-0.124574	0.183049
C17	C	1.050588	-0.124584	0.186535
C18	C	1.116156	0.249229	0.188242
C19	C	1.050671	0.373844	0.186493
C20	C	0.919650	0.373855	0.183016
C21	C	0.854115	0.249251	0.181287
C22	C	1.400429	-0.428054	0.269382
C23	C	1.400454	-0.571937	0.269380
C24	C	1.569781	-0.571887	0.100164
C25	C	1.569761	-0.428007	0.100174
C26	C	1.315746	-0.356141	0.353990
C27	C	1.231089	-0.428101	0.438597
C28	C	1.231114	-0.571984	0.438594
C29	C	1.315796	-0.643907	0.353985
C30	C	1.714633	0.000030	0.177608
C31	C	1.854077	0.000040	0.181298
C32	C	1.492265	0.000021	-0.044757
C33	C	1.488573	0.000026	-0.184200
N34	N	1.485123	0.356143	0.184769
C35	C	1.601115	0.000023	-0.263687
C36	C	1.597638	0.000032	-0.394708
C37	C	1.369068	0.000042	-0.366742
C38	C	1.372546	0.000042	-0.235724
C39	C	1.717142	0.000006	-0.212164
C40	C	1.829693	0.000002	-0.291652
C41	C	1.826216	0.000011	-0.422673
C42	C	1.710188	0.000025	-0.474206
C43	C	1.477927	0.000031	0.414317
C44	C	1.481619	0.000035	0.553761
H45	H	1.222840	0.249234	0.191070
H46	H	1.707367	0.000048	-0.580893
Br47	Br	1.211613	0.000061	-0.436679
H48	H	1.924158	0.000025	-0.249686
Br49	Br	1.721866	-0.000017	-0.034352
Br50	Br	1.315839	-0.839179	0.354001
Br51	Br	0.830631	-0.293669	0.180700
Br52	Br	0.676297	0.249269	0.176588
Br53	Br	1.978959	0.000025	-0.530548
Br54	Br	1.116240	-0.669645	0.553428
Br55	Br	1.139469	-0.293693	0.188914
Br56	Br	1.684698	-0.669495	-0.014657
H57	H	1.280905	0.000043	-0.171003
Br58	Br	1.139605	0.542941	0.188859
Br59	Br	0.830777	0.542971	0.180663
H60	H	1.315715	-0.238985	0.353997
Br61	Br	1.684653	-0.330343	-0.014639
Br62	Br	1.116184	-0.330498	0.553433
