data_functionalizedCrystal
_audit_creation_method	'MofGen! by Chris Wilmer'
_symmetry_space_group_name_H-M	'P1'
_symmetry_Int_Tables_number	1
_symmetry_cell_setting	triclinic
loop_
_symmetry_equiv_pos_as_xyz
  x,y,z
_cell_length_a	9.065215
_cell_length_b	17.019294
_cell_length_c	7.540329
_cell_angle_alpha	86.117441
_cell_angle_beta	89.997574
_cell_angle_gamma	84.202625
loop_
_atom_site_label
_atom_site_type_symbol
_atom_site_fract_x
_atom_site_fract_y
_atom_site_fract_z
O1	O	1.957267	0.115652	-0.165121
O2	O	1.527724	0.125141	-0.166578
O3	O	1.754478	0.005649	-0.148317
O4	O	1.730512	0.235143	-0.183382
O5	O	1.754465	0.005648	0.146648
O6	O	1.527711	0.125140	0.128387
O7	O	1.957253	0.115650	0.129844
Cu8	Cu	1.742481	0.120395	0.156048
Cu9	Cu	1.742496	0.120396	-0.192782
O10	O	1.730499	0.235142	0.111583
C11	C	1.472755	0.124229	-0.018957
C12	C	1.308986	0.121504	-0.018544
C13	C	1.753563	-0.023747	0.003653
C14	C	1.750837	-0.111337	0.017025
C15	C	1.749567	-0.152482	-0.137477
C16	C	1.746996	-0.234781	-0.124907
C17	C	1.745706	-0.275935	0.042166
C18	C	1.746972	-0.234784	0.196680
C19	C	1.749532	-0.152486	0.184109
C20	C	1.737966	-0.524423	0.088168
C21	C	1.735410	-0.606727	0.100728
C22	C	1.735432	-0.606718	-0.220861
C23	C	1.738001	-0.524419	-0.233418
C24	C	1.739259	-0.483275	-0.078904
C25	C	1.743083	-0.360058	0.055019
C26	C	1.741871	-0.399152	-0.091758
C27	C	2.012222	0.116562	-0.017780
C28	C	2.175991	0.119288	-0.018205
C29	C	1.731414	0.264538	-0.040391
C30	C	1.734140	0.352128	-0.053775
N31	N	1.742480	0.120393	0.401397
N32	N	1.742509	0.120392	-0.438130
H33	H	1.745968	-0.268278	-0.250720
O34	O	1.751060	-0.112482	-0.299725
C35	C	1.881603	-0.027525	-0.499301
C36	C	1.880137	-0.072804	-0.315515
H37	H	1.985935	0.004579	-0.512112
H38	H	1.880336	-0.071035	-0.607657
H39	H	1.779549	0.017449	-0.514148
H40	H	1.982173	-0.117779	-0.300494
H41	H	1.881328	-0.029247	-0.207250
H42	H	1.739054	-0.490917	-0.369467
H43	H	1.745912	-0.268298	0.332715
H44	H	1.742912	-0.365640	-0.227789
O45	O	1.733975	-0.646788	0.262924
C46	C	1.603342	-0.731682	0.462544
C47	C	1.604777	-0.686360	0.278805
H48	H	1.498882	-0.763674	0.475458
H49	H	1.705281	-0.776734	0.477453
H50	H	1.604762	-0.688138	0.570808
H51	H	1.603307	-0.729844	0.170432
H52	H	1.502848	-0.641297	0.264049
O53	O	1.738948	-0.484419	0.238213
C54	C	1.614149	-0.383467	0.409445
C55	C	1.612828	-0.428722	0.239452
H56	H	1.512209	-0.338415	0.410484
H57	H	1.612705	-0.426988	0.531060
H58	H	1.718590	-0.351459	0.412580
H59	H	1.508405	-0.460733	0.236144
H60	H	1.614351	-0.385164	0.117915
O61	O	1.742048	-0.399960	0.217417
C62	C	1.869067	-0.433212	0.497292
C63	C	1.870410	-0.387972	0.313451
H64	H	1.972851	-0.423550	0.574974
H65	H	1.766450	-0.410540	0.573256
H66	H	1.866945	-0.499092	0.479692
H67	H	1.872584	-0.322085	0.330889
H68	H	1.973015	-0.410708	0.237552
H69	H	1.734405	-0.640226	-0.346657
H70	H	1.750545	-0.118986	0.309921
