data_functionalizedCrystal
_audit_creation_method	'MofGen! by Chris Wilmer'
_symmetry_space_group_name_H-M	'P1'
_symmetry_Int_Tables_number	1
_symmetry_cell_setting	triclinic
loop_
_symmetry_equiv_pos_as_xyz
  x,y,z
_cell_length_a	10.723023
_cell_length_b	13.262508
_cell_length_c	9.198806
_cell_angle_alpha	105.915142
_cell_angle_beta	89.996513
_cell_angle_gamma	84.450751
loop_
_atom_site_label
_atom_site_type_symbol
_atom_site_fract_x
_atom_site_fract_y
_atom_site_fract_z
O1	O	1.656452	0.147209	-0.062667
O2	O	1.293229	0.161301	-0.057101
O3	O	1.483981	0.001531	-0.120265
O4	O	1.465700	0.306978	0.000497
O5	O	1.483966	0.001531	0.121519
O6	O	1.293214	0.161300	0.184684
O7	O	1.656437	0.147208	0.179118
Cu8	Cu	1.474824	0.154254	0.203978
Cu9	Cu	1.474842	0.154255	-0.081961
O10	O	1.465684	0.306977	0.242282
C11	C	1.246727	0.160275	0.063385
C12	C	1.108188	0.157207	0.062170
C13	C	1.046415	0.155839	0.186880
C14	C	0.903228	0.152669	0.185627
C15	C	1.482950	-0.037579	-0.014839
C16	C	1.479885	-0.154117	-0.060923
C17	C	1.471207	-0.482631	0.336378
C18	C	1.474077	-0.373137	0.379678
C19	C	1.475530	-0.318377	0.269531
C20	C	1.474112	-0.373121	0.116077
C21	C	1.471232	-0.482624	0.072773
C22	C	1.475554	-0.318370	0.005927
C23	C	1.474136	-0.373114	-0.147528
C24	C	1.471258	-0.482607	-0.190824
C25	C	1.469805	-0.537368	-0.080678
C26	C	1.478434	-0.208867	0.049231
C27	C	1.478458	-0.208860	-0.214374
C28	C	1.475589	-0.318354	-0.257674
C29	C	1.702939	0.148234	0.058628
C30	C	1.841478	0.151301	0.059834
C31	C	1.466716	0.346088	0.136852
C32	C	1.469780	0.462626	0.182927
N33	N	1.474820	0.154253	0.405091
N34	N	1.474855	0.154247	-0.283078
C35	C	1.554913	0.086875	0.450650
C36	C	1.554933	0.086871	0.618061
H37	H	0.894592	0.152484	-0.046936
H38	H	1.470015	-0.527226	0.426042
H39	H	0.850103	0.151498	0.292396
H40	H	1.467475	-0.626527	-0.115925
C41	C	1.037273	0.155856	-0.081310
C42	C	0.948985	0.244358	-0.053921
C43	C	0.883650	0.243157	-0.186068
H44	H	0.995575	0.093700	-0.111430
H45	H	1.094548	0.157183	-0.159411
H46	H	0.891718	0.243023	0.024154
H47	H	0.990650	0.306529	-0.023821
H48	H	0.940925	0.244484	-0.264169
H49	H	0.841960	0.180997	-0.216178
H50	H	0.823747	0.303209	-0.167507
H51	H	1.406259	0.211932	0.490022
H52	H	1.475244	-0.328574	0.504619
C53	C	1.469455	-0.542065	-0.357400
C54	C	1.360561	-0.593872	-0.385630
C55	C	1.358853	-0.648637	-0.539067
H56	H	1.540929	-0.592335	-0.382897
H57	H	1.470668	-0.493792	-0.416841
H58	H	1.359360	-0.642140	-0.326209
H59	H	1.289069	-0.543626	-0.360168
H60	H	1.360065	-0.600365	-0.598508
H61	H	1.430331	-0.698902	-0.564550
H62	H	1.284964	-0.683787	-0.558243
H63	H	1.479577	-0.164304	0.174175
C64	C	1.479774	-0.149287	-0.333840
C65	C	1.374183	-0.075401	-0.312265
C66	C	1.375324	-0.020497	-0.422280
H67	H	1.478424	-0.197466	-0.431483
H68	H	1.553523	-0.113965	-0.325439
H69	H	1.300453	-0.110721	-0.320680
H70	H	1.375511	-0.027201	-0.214644
H71	H	1.449073	0.014825	-0.413879
H72	H	1.373977	-0.068684	-0.519915
H73	H	1.303689	0.029647	-0.407648
H74	H	1.099535	0.157010	0.294574
H75	H	1.623508	0.029190	0.657343
H76	H	1.477864	-0.229222	0.304796
C77	C	1.646187	0.009811	0.337395
C78	C	1.625120	-0.093452	0.333420
C79	C	1.709170	-0.164462	0.229083
H80	H	1.729664	0.021500	0.366794
H81	H	1.633996	0.019990	0.239902
H82	H	1.637322	-0.103627	0.430892
H83	H	1.541660	-0.105175	0.304003
H84	H	1.696979	-0.154283	0.131590
H85	H	1.792641	-0.152764	0.258492
H86	H	1.694880	-0.234534	0.226362
H87	H	1.406285	0.211940	0.677654
H88	H	1.474433	-0.362942	-0.382619
