data_functionalizedCrystal
_audit_creation_method	'MofGen! by Chris Wilmer'
_symmetry_space_group_name_H-M	'P1'
_symmetry_Int_Tables_number	1
_symmetry_cell_setting	triclinic
loop_
_symmetry_equiv_pos_as_xyz
  x,y,z
_cell_length_a	19.288859
_cell_length_b	19.288857
_cell_length_c	18.366186
_cell_angle_alpha	89.991598
_cell_angle_beta	89.990083
_cell_angle_gamma	83.133417
loop_
_atom_site_label
_atom_site_type_symbol
_atom_site_fract_x
_atom_site_fract_y
_atom_site_fract_z
O1	O	0.921353	0.086629	-0.060567
O2	O	1.421353	0.586629	0.439433
O3	O	0.719091	0.098322	-0.060566
O4	O	1.219091	0.598322	0.439434
O5	O	0.826069	-0.008656	-0.060558
O6	O	1.326069	0.491344	0.439442
O7	O	0.814375	0.193606	-0.060575
O8	O	1.314375	0.693606	0.439425
O9	O	0.826051	-0.008661	0.060541
O10	O	1.326051	0.491339	0.560541
O11	O	0.719073	0.098317	0.060533
O12	O	1.219073	0.598317	0.560533
O13	O	0.921335	0.086623	0.060532
O14	O	1.421335	0.586623	0.560532
Zn15	Zn	0.820201	0.092469	0.079760
Zn16	Zn	1.320201	0.592469	0.579760
Zn17	Zn	0.820225	0.092476	-0.079794
Zn18	Zn	1.320225	0.592476	0.420206
O19	O	0.814357	0.193601	0.060524
O20	O	1.314357	0.693601	0.560524
C21	C	0.693206	0.097944	-0.000016
C22	C	1.193206	0.597944	0.499984
C23	C	0.616102	0.096816	-0.000015
C24	C	1.116102	0.596816	0.499985
C25	C	0.052060	0.151960	-0.000021
C26	C	0.552060	0.651960	0.499979
C27	C	0.124506	0.153025	-0.000025
C28	C	0.624506	0.653025	0.499975
C29	C	0.169215	0.090256	-0.000018
C30	C	0.669215	0.590256	0.499982
C31	C	0.141472	0.026416	-0.000026
C32	C	0.641472	0.526416	0.499974
C33	C	0.069026	0.025353	-0.000030
C34	C	0.569026	0.525353	0.499970
C35	C	0.290480	0.043441	0.042415
C36	C	0.790480	0.543441	0.542415
C37	C	0.362924	0.044507	0.042423
C38	C	0.862924	0.544507	0.542423
C39	C	0.392661	0.093533	-0.000011
C40	C	0.892661	0.593533	0.499989
C41	C	0.349943	0.141505	-0.042444
C42	C	0.849943	0.641505	0.457556
C43	C	0.277498	0.140442	-0.042447
C44	C	0.777498	0.640442	0.457553
C45	C	0.247771	0.091402	-0.000015
C46	C	0.747771	0.591402	0.499985
C47	C	0.498950	0.158524	-0.000013
C48	C	0.998950	0.658524	0.499987
C49	C	0.571399	0.159587	-0.000021
C50	C	1.071399	0.659587	0.499979
C51	C	0.588363	0.032976	-0.000015
C52	C	1.088363	0.532976	0.499985
C53	C	0.515916	0.031915	-0.000014
C54	C	1.015916	0.531915	0.499986
C55	C	0.471214	0.094691	-0.000009
C56	C	0.971214	0.594691	0.499991
C57	C	0.825685	-0.034535	-0.000008
C58	C	1.325685	0.465465	0.499992
C59	C	0.824558	-0.111639	-0.000006
C60	C	1.324558	0.388361	0.499994
C61	C	0.824042	-0.147846	-0.066017
C62	C	1.324042	0.352154	0.433983
C63	C	0.822973	-0.220292	-0.066022
C64	C	1.322973	0.279708	0.433978
C65	C	0.822435	-0.256530	-0.000013
C66	C	1.322435	0.243470	0.499987
C67	C	0.822947	-0.220313	0.066007
C68	C	1.322947	0.279687	0.566007
C69	C	0.824009	-0.147867	0.066011
C70	C	1.324009	0.352133	0.566011
C71	C	0.861429	-0.376764	0.050555
C72	C	1.361429	0.123236	0.550555
C73	C	0.860371	-0.449209	0.050548
C74	C	1.360371	0.050791	0.550548
C75	C	0.819157	-0.479975	-0.000021
C76	C	1.319157	0.020025	0.499979
C77	C	0.779009	-0.438289	-0.050596
C78	C	1.279009	0.061711	0.449404
C79	C	0.780071	-0.365844	-0.050592
C80	C	1.280071	0.134156	0.449408
C81	C	0.821283	-0.335085	-0.000009
C82	C	1.321283	0.164915	0.499991
C83	C	0.817481	-0.594737	-0.066043
C84	C	1.317481	-0.094737	0.433957
C85	C	0.816408	-0.667184	-0.066045
C86	C	1.316408	-0.167184	0.433955
C87	C	0.816389	-0.667204	0.065986
C88	C	1.316389	-0.167204	0.565986
C89	C	0.817455	-0.594758	0.065987
C90	C	1.317455	-0.094758	0.565987
C91	C	0.818004	-0.558529	-0.000029
C92	C	1.318004	-0.058529	0.499971
C93	C	0.947220	0.087001	-0.000020
C94	C	1.447220	0.587001	0.499980
C95	C	1.024324	0.088129	-0.000025
C96	C	1.524324	0.588129	0.499975
C97	C	0.814741	0.219480	-0.000028
C98	C	1.314741	0.719480	0.499972
C99	C	0.815868	0.296584	-0.000035
C100	C	1.315868	0.796584	0.499965
N101	N	0.820190	0.092464	0.188651
N102	N	1.320190	0.592464	0.688651
N103	N	0.820242	0.092476	-0.188685
N104	N	1.320242	0.592476	0.311315
C105	C	0.867575	0.045118	0.226755
C106	C	1.367575	0.545118	0.726755
C107	C	0.867580	0.045114	0.302983
C108	C	1.367580	0.545114	0.802983
C109	C	0.820205	0.092470	0.341104
C110	C	1.320205	0.592470	0.841104
C111	C	0.772811	0.139820	0.302990
C112	C	1.272811	0.639820	0.802990
C113	C	0.772804	0.139817	0.226764
C114	C	1.272804	0.639817	0.726764
C115	C	0.810905	0.155758	0.461859
C116	C	1.310905	0.655758	0.961859
C117	C	0.810918	0.155762	0.538083
C118	C	1.310918	0.655762	1.038083
C119	C	0.820225	0.092478	0.576211
C120	C	1.320225	0.592478	1.076211
C121	C	0.829535	0.029188	0.538104
C122	C	1.329535	0.529188	1.038104
C123	C	0.829527	0.029186	0.461878
C124	C	1.329527	0.529186	0.961878
C125	C	0.820208	0.092478	0.423758
C126	C	1.320208	0.592478	0.923758
C127	C	0.867618	0.045125	0.696970
C128	C	1.367618	0.545125	1.196970
C129	C	0.867617	0.045121	0.773199
C130	C	1.367617	0.545121	1.273199
C131	C	0.772852	0.139832	0.773206
C132	C	1.272852	0.639832	1.273206
C133	C	0.772849	0.139830	0.696978
C134	C	1.272849	0.639830	1.196978
C135	C	0.820236	0.092477	0.658865
C136	C	1.320236	0.592477	1.158865
H137	H	0.397698	0.005448	0.076978
H138	H	0.897698	0.505448	0.576978
H139	H	0.837113	-0.022343	0.569146
H140	H	1.337113	0.477657	1.069146
C141	C	0.822409	-0.260133	-0.138636
C142	C	1.322409	0.239867	0.361364
H143	H	0.821694	-0.308467	-0.129181
H144	H	1.321694	0.191533	0.370819
H145	H	0.863086	-0.253682	-0.165756
H146	H	1.363086	0.246318	0.334244
H147	H	0.782088	-0.242833	-0.165763
H148	H	1.282088	0.257167	0.334237
H149	H	0.374153	0.181429	-0.076995
H150	H	0.874153	0.681429	0.423005
C151	C	0.919714	-0.006950	0.184831
C152	C	1.419714	0.493050	0.684831
H153	H	0.912934	-0.000162	0.133975
H154	H	1.412934	0.499838	0.633975
H155	H	0.912346	-0.053297	0.197324
H156	H	1.412346	0.446703	0.697324
H157	H	0.966038	0.000505	0.197321
H158	H	1.466038	0.500505	0.697321
C159	C	0.800679	0.225374	0.579997
C160	C	1.300679	0.725374	1.079997
H161	H	0.802025	0.216314	0.630855
H162	H	1.302025	0.716314	1.130855
H163	H	0.756791	0.250252	0.567514
H164	H	1.256791	0.750252	1.067514
H165	H	0.836916	0.252501	0.567487
H166	H	1.336916	0.752501	1.067487
H167	H	0.906201	0.006565	0.665937
H168	H	1.406201	0.506565	1.165937
C169	C	0.818027	-0.554924	0.138599
C170	C	1.318027	-0.054924	0.638599
H171	H	0.818730	-0.506588	0.129147
H172	H	1.318730	-0.006588	0.629147
H173	H	0.858343	-0.572225	0.165726
H174	H	1.358343	-0.072225	0.665726
H175	H	0.777346	-0.561376	0.165717
H176	H	1.277346	-0.061376	0.665717
H177	H	0.906202	0.006562	0.804224
H178	H	1.406202	0.506562	1.304224
H179	H	0.462552	0.209640	-0.000010
H180	H	0.962552	0.709640	0.499990
C181	C	0.601908	0.229805	-0.000015
C182	C	1.101908	0.729805	0.499985
H183	H	0.564907	0.267036	-0.000005
H184	H	1.064907	0.767036	0.499995
H185	H	0.629823	0.232861	-0.042244
H186	H	1.129823	0.732861	0.457756
H187	H	0.629808	0.232841	0.042222
H188	H	1.129808	0.732841	0.542222
H189	H	0.624764	-0.018133	-0.000015
H190	H	1.124764	0.481867	0.499985
H191	H	0.177878	-0.024691	-0.000023
H192	H	0.677878	0.475309	0.499977
H193	H	0.147093	0.205006	-0.000015
H194	H	0.647093	0.705006	0.499985
C195	C	0.230513	0.193198	-0.089127
C196	C	0.730513	0.693198	0.410873
H197	H	0.258594	0.222548	-0.114405
H198	H	0.758594	0.722548	0.385595
H199	H	0.198485	0.220827	-0.058547
H200	H	0.698485	0.720827	0.441453
H201	H	0.205482	0.168762	-0.123243
H202	H	0.705482	0.668762	0.376757
H203	H	0.747379	-0.331906	-0.091771
H204	H	1.247379	0.168094	0.408229
C205	C	0.839756	-0.040426	0.419961
C206	C	1.339756	0.459574	0.919961
H207	H	0.845395	-0.078116	0.453579
H208	H	1.345395	0.421884	0.953579
H209	H	0.880141	-0.041894	0.390131
H210	H	1.380141	0.458106	0.890131
H211	H	0.800027	-0.044216	0.390320
H212	H	1.300027	0.455784	0.890320
C213	C	0.733665	-0.472118	-0.106223
C214	C	1.233665	0.027882	0.393777
H215	H	0.709911	-0.436917	-0.136343
H216	H	1.209911	0.063083	0.363657
H217	H	0.700532	-0.495997	-0.081180
H218	H	1.200532	0.004003	0.418820
H219	H	0.762587	-0.504307	-0.135474
H220	H	1.262587	-0.004307	0.364526
C221	C	0.815839	-0.707016	-0.138660
C222	C	1.315839	-0.207016	0.361340
H223	H	0.815119	-0.755350	-0.129209
H224	H	1.315119	-0.255350	0.370791
H225	H	0.856515	-0.700567	-0.165780
H226	H	1.356515	-0.200567	0.334220
H227	H	0.775518	-0.689710	-0.165785
H228	H	1.275518	-0.189710	0.334215
C229	C	0.822353	-0.260167	0.138618
C230	C	1.322353	0.239833	0.638618
H231	H	0.822807	-0.228223	0.177934
H232	H	1.322807	0.271777	0.677934
H233	H	0.862435	-0.293854	0.141364
H234	H	1.362435	0.206146	0.641364
H235	H	0.781437	-0.283001	0.141357
H236	H	1.281437	0.216999	0.641357
H237	H	0.734277	0.178387	0.804243
H238	H	1.234277	0.678387	1.304243
H239	H	0.046446	-0.026628	-0.000033
H240	H	0.546446	0.473372	0.499967
H241	H	0.803314	0.207294	0.430821
H242	H	1.303314	0.707294	0.930821
C243	C	0.485405	-0.038300	-0.000006
C244	C	0.985405	0.461700	0.499994
H245	H	0.522405	-0.075532	0.000004
H246	H	1.022405	0.424468	0.500004
H247	H	0.457503	-0.041346	-0.042235
H248	H	0.957503	0.458654	0.457765
H249	H	0.457490	-0.041347	0.042230
H250	H	0.957490	0.458653	0.542230
H251	H	0.734267	0.178387	0.665951
H252	H	1.234267	0.678387	1.165951
C253	C	0.919707	-0.006964	0.344909
C254	C	1.419707	0.493036	0.844909
H255	H	0.912921	-0.000182	0.395766
H256	H	1.412921	0.499818	0.895766
H257	H	0.966034	0.000464	0.332402
H258	H	1.466034	0.500464	0.832402
H259	H	0.912313	-0.053308	0.332432
H260	H	1.412313	0.446692	0.832432
H261	H	0.734237	0.178376	0.334032
H262	H	1.234237	0.678376	0.834032
C263	C	0.257777	-0.010491	0.089096
C264	C	0.757777	0.489509	0.589096
H265	H	0.293590	-0.038900	0.114375
H266	H	0.793590	0.461100	0.614375
H267	H	0.233279	-0.038950	0.058512
H268	H	0.733279	0.461050	0.558512
H269	H	0.226292	0.013112	0.123211
H270	H	0.726292	0.513112	0.623211
C271	C	0.720682	0.191905	0.184848
C272	C	1.220682	0.691905	0.684848
H273	H	0.692470	0.220111	0.218466
H274	H	1.192470	0.720111	0.718466
H275	H	0.691849	0.166994	0.155121
H276	H	1.191849	0.666994	0.655121
H277	H	0.745579	0.220757	0.155104
H278	H	1.245579	0.720757	0.655104
H279	H	0.015667	0.203077	-0.000021
H280	H	0.515667	0.703077	0.499979
C281	C	0.824634	-0.107997	-0.138632
C282	C	1.324634	0.392003	0.361368
H283	H	0.824167	-0.139940	-0.177947
H284	H	1.324167	0.360060	0.322053
H285	H	0.865542	-0.085157	-0.141379
H286	H	1.365542	0.414843	0.358621
H287	H	0.784545	-0.074313	-0.141373
H288	H	1.284545	0.425687	0.358627
C289	C	0.818077	-0.554879	-0.138654
C290	C	1.318077	-0.054879	0.361346
H291	H	0.818793	-0.506548	-0.129198
H292	H	1.318793	-0.006548	0.370802
H293	H	0.777410	-0.561318	-0.165778
H294	H	1.277410	-0.061318	0.334222
H295	H	0.858407	-0.572176	-0.165778
H296	H	1.358407	-0.072176	0.334222
H297	H	0.815945	-0.696707	0.119733
H298	H	1.315945	-0.196707	0.619733
H299	H	0.894990	-0.351721	0.091740
H300	H	1.394990	0.148279	0.591740
C301	C	0.904509	-0.495057	0.106194
C302	C	1.404509	0.004943	0.606194
H303	H	0.897975	-0.542609	0.098950
H304	H	1.397975	-0.042609	0.598950
H305	H	0.890350	-0.481264	0.154108
H306	H	1.390350	0.018736	0.654108
H307	H	0.952434	-0.489589	0.099850
H308	H	1.452434	0.010411	0.599850
C309	C	0.824583	-0.108038	0.138627
C310	C	1.324583	0.391962	0.638627
H311	H	0.824112	-0.139993	0.177941
H312	H	1.324112	0.360007	0.677941
H313	H	0.784503	-0.074348	0.141373
H314	H	1.284503	0.425652	0.641373
H315	H	0.865501	-0.085208	0.141370
H316	H	1.365501	0.414792	0.641370
