data_functionalizedCrystal
_audit_creation_method	'MofGen! by Chris Wilmer'
_symmetry_space_group_name_H-M	'P1'
_symmetry_Int_Tables_number	1
_symmetry_cell_setting	triclinic
loop_
_symmetry_equiv_pos_as_xyz
  x,y,z
_cell_length_a	13.032127
_cell_length_b	12.759401
_cell_length_c	13.032268
_cell_angle_alpha	97.163105
_cell_angle_beta	90.930983
_cell_angle_gamma	82.810523
loop_
_atom_site_label
_atom_site_type_symbol
_atom_site_fract_x
_atom_site_fract_y
_atom_site_fract_z
Zn1	Zn	-0.483345	-1.476926	0.529414
Zn2	Zn	-0.633531	-1.482415	0.335587
Zn3	Zn	-0.461548	-1.325979	0.357461
Zn4	Zn	-0.655291	-1.282069	0.507510
O5	O	-0.558428	-1.391847	0.432493
O6	O	-0.503283	-1.624672	0.503715
O7	O	-0.592488	-1.482337	0.194575
O8	O	-0.320504	-1.362082	0.398593
O9	O	-0.613624	-1.628705	0.361311
O10	O	-0.336518	-1.472982	0.524926
O11	O	-0.466133	-1.367404	0.210646
O12	O	-0.487233	-1.173137	0.377353
O13	O	-0.650710	-1.287244	0.654329
O14	O	-0.629575	-1.140876	0.487593
O15	O	-0.524383	-1.430404	0.670422
O16	O	-0.780352	-1.439760	0.340071
O17	O	-0.796339	-1.292566	0.466383
C18	C	-0.558401	-1.118886	0.432470
C19	C	-0.558416	-1.002106	0.432482
C20	C	-0.615753	-0.949373	0.358255
C21	C	-0.615770	-0.839645	0.358268
C22	C	-0.501106	-0.835394	0.506740
C23	C	-0.501096	-0.945119	0.506730
C24	C	-0.673074	-1.006360	0.284006
C25	C	-0.730413	-0.953627	0.209772
C26	C	-0.730431	-0.843899	0.209785
C27	C	-0.673108	-0.786904	0.284033
C28	C	-0.825669	-1.362019	0.398499
C29	C	-0.940001	-1.349350	0.383990
C30	C	-1.116993	-1.385421	0.425098
C31	C	-0.998826	-1.398524	0.440096
C32	C	-0.290147	-1.421818	0.466643
C33	C	-0.175821	-1.434589	0.481195
C34	C	-0.592405	-1.353314	0.700734
C35	C	-0.606884	-1.336893	0.815043
C36	C	-0.558451	-0.665875	0.432511
C37	C	-0.558444	-0.782654	0.432505
C38	C	-0.524510	-1.430300	0.165305
C39	C	-0.509741	-1.446956	0.051034
C40	C	-0.550835	-1.400405	0.873967
C41	C	-0.565798	-1.383435	0.992111
H42	H	-0.673135	-0.697555	0.284044
C43	C	-1.125689	-1.504563	0.561080
C44	C	-1.155134	-1.477488	0.676140
C45	C	-1.105005	-1.547464	0.756027
C46	C	-1.025432	-1.644515	0.720855
C47	C	-0.995983	-1.671595	0.605789
C48	C	-1.046112	-1.601619	0.525902
H49	H	-1.214042	-1.405641	0.702182
H50	H	-1.126806	-1.527417	0.841206
H51	H	-0.988324	-1.696316	0.779992
H52	H	-0.937074	-1.743442	0.579748
H53	H	-1.024311	-1.621666	0.440723
H54	H	-0.961715	-1.450318	0.499234
H55	H	-0.491768	-1.467340	0.836950
H56	H	-0.777128	-0.800965	0.149347
H57	H	-0.977114	-1.297544	0.324862
C58	C	-0.438044	-0.772704	0.588398
C59	C	-0.492960	-0.680707	0.663383
C60	C	-0.429892	-0.618019	0.745038
C61	C	-0.311908	-0.647327	0.751709
C62	C	-0.256986	-0.739329	0.676722
C63	C	-0.320054	-0.802017	0.595066
H64	H	-0.580304	-0.659007	0.658447
H65	H	-0.470550	-0.549913	0.800548
H66	H	-0.265222	-0.600922	0.812155
H67	H	-0.169642	-0.761029	0.681657
H68	H	-0.279396	-0.870123	0.539556
C69	C	-0.793468	-1.016315	0.128106
C70	C	-0.856543	-0.958305	0.046460
C71	C	-0.919600	-1.020990	-0.035209
C72	C	-0.919583	-1.141685	-0.035231
C73	C	-0.856507	-1.199701	0.046418
C74	C	-0.793449	-1.137016	0.128086
H75	H	-0.856557	-0.868953	0.046473
H76	H	-0.966293	-0.978041	-0.095651
H77	H	-0.966262	-1.188088	-0.095686
H78	H	-0.856492	-1.289053	0.046405
H79	H	-0.746756	-1.179965	0.188528
C80	C	-1.167122	-1.315450	0.345209
C81	C	-1.153583	-1.196423	0.355326
C82	C	-1.203707	-1.126451	0.275433
C83	C	-1.267370	-1.175507	0.185423
C84	C	-1.280911	-1.294540	0.175301
C85	C	-1.230788	-1.364512	0.255194
H86	H	-1.106454	-1.160103	0.421961
H87	H	-1.193682	-1.038335	0.282927
H88	H	-1.304474	-1.123710	0.126281
H89	H	-1.328041	-1.330860	0.108666
H90	H	-1.240812	-1.452629	0.247701
C91	C	-0.438024	-1.003135	0.588378
C92	C	-0.374962	-0.940458	0.670040
C93	C	-0.311893	-0.998474	0.751693
C94	C	-0.311887	-1.119166	0.751684
C95	C	-0.374951	-1.181849	0.670019
C96	C	-0.438019	-1.123834	0.588366
H97	H	-0.374965	-0.851109	0.670050
H98	H	-0.265209	-0.952071	0.812147
H99	H	-0.265199	-1.162113	0.812128
H100	H	-0.374947	-1.271199	0.670009
H101	H	-0.484703	-1.170237	0.527912
C102	C	-0.429941	-1.537396	1.001047
C103	C	-0.314856	-1.539793	1.030603
C104	C	-0.235058	-1.630231	0.980617
C105	C	-0.270344	-1.718273	0.901074
C106	C	-0.385435	-1.715879	0.871513
C107	C	-0.465233	-1.625441	0.921500
H108	H	-0.288730	-1.474616	1.089489
H109	H	-0.149860	-1.632003	1.002500
H110	H	-0.211273	-1.785221	0.864071
H111	H	-0.411561	-1.781056	0.812627
H112	H	-0.550431	-1.623669	0.899616
H113	H	-0.673064	-1.095707	0.283985
H114	H	-0.665941	-1.269949	0.852061
H115	H	-0.624859	-1.316486	1.029125
