data_functionalizedCrystal
_audit_creation_method	'MofGen! by Chris Wilmer'
_symmetry_space_group_name_H-M	'P1'
_symmetry_Int_Tables_number	1
_symmetry_cell_setting	triclinic
loop_
_symmetry_equiv_pos_as_xyz
  x,y,z
_cell_length_a	8.559649
_cell_length_b	10.654550
_cell_length_c	7.088929
_cell_angle_alpha	96.260641
_cell_angle_beta	95.344185
_cell_angle_gamma	102.868216
loop_
_atom_site_label
_atom_site_type_symbol
_atom_site_fract_x
_atom_site_fract_y
_atom_site_fract_z
O1	O	0.240465	-1.630210	0.159131
O2	O	0.261820	-1.262528	0.159100
O3	O	0.018900	-1.478762	0.159116
O4	O	0.483385	-1.413976	0.159115
O5	O	-0.013638	-1.507667	-0.158857
O6	O	0.229282	-1.291433	-0.158873
O7	O	0.207927	-1.659115	-0.158841
Cu8	Cu	0.215634	-1.477913	-0.187891
Cu9	Cu	0.254113	-1.443730	0.188149
O10	O	0.450847	-1.442880	-0.158858
C11	C	0.243983	-1.230345	0.000109
C12	C	0.239289	-1.091387	0.000098
C13	C	-0.056844	-1.498124	0.000134
C14	C	-0.234061	-1.512737	0.000146
N15	N	0.188568	-1.501965	-0.452377
C16	C	0.526592	-1.423518	0.000128
C17	C	0.703810	-1.408904	0.000129
C18	C	0.225765	-1.691297	0.000153
C19	C	0.230459	-1.830254	0.000177
C20	C	0.382321	-0.997124	0.000125
C21	C	0.377906	-0.866557	0.000158
C22	C	0.087416	-0.924529	0.000144
C23	C	0.091831	-1.055094	0.000098
C24	C	0.550034	-0.963653	0.000141
C25	C	0.545619	-0.833086	0.000174
N26	N	0.281167	-1.419689	0.452635
H27	H	-0.316459	-1.612822	0.000139
H28	H	-0.024642	-1.131844	0.000048
O29	O	-0.197813	-1.289503	0.000467
C30	C	-0.083568	-1.259755	0.165131
H31	H	-0.132149	-1.319283	0.280234
H32	H	-0.060157	-1.151865	0.220403
H33	H	0.033982	-1.284060	0.127910
H34	H	0.582256	-0.794658	-0.137104
H35	H	-0.032636	-0.894959	0.000174
O36	O	0.611778	-1.005010	-0.158814
C37	C	0.513688	-0.991887	-0.323192
H38	H	0.387224	-0.991130	-0.285688
H39	H	0.506772	-1.076938	-0.438623
H40	H	0.567750	-0.896985	-0.378187
O41	O	0.630766	-0.984626	0.163801
C42	C	0.791163	-0.910080	0.185312
H43	H	0.826001	-0.886361	0.039661
H44	H	0.875498	-0.967597	0.249380
H45	H	0.801690	-0.816004	0.284288
O46	O	0.637022	-0.760964	0.158997
C47	C	0.539385	-0.699258	0.268532
H48	H	0.428775	-0.690655	0.172601
H49	H	0.611278	-0.598183	0.334768
H50	H	0.499149	-0.759036	0.386799
O51	O	0.395733	-1.318104	-0.449773
C52	C	0.506650	-1.365453	-0.334001
H53	H	0.447101	-1.467006	-0.304175
H54	H	0.545673	-1.297956	-0.193180
H55	H	0.616863	-1.369684	-0.411027
O56	O	0.073886	-1.603649	-0.549561
C57	C	-0.079354	-1.593893	-0.500834
H58	H	-0.064879	-1.532379	-0.355467
H59	H	-0.156330	-1.695100	-0.494157
H60	H	-0.140766	-1.546313	-0.613473
