data_functionalizedCrystal
_audit_creation_method	'MofGen! by Chris Wilmer'
_symmetry_space_group_name_H-M	'P1'
_symmetry_Int_Tables_number	1
_symmetry_cell_setting	triclinic
loop_
_symmetry_equiv_pos_as_xyz
  x,y,z
_cell_length_a	14.909383
_cell_length_b	12.759401
_cell_length_c	12.759393
_cell_angle_alpha	90.019559
_cell_angle_beta	93.266689
_cell_angle_gamma	93.275868
loop_
_atom_site_label
_atom_site_type_symbol
_atom_site_fract_x
_atom_site_fract_y
_atom_site_fract_z
Zn1	Zn	-0.359114	-1.630336	-0.618162
Zn2	Zn	-0.509986	-1.640348	-0.452628
Zn3	Zn	-0.359156	-1.454641	-0.442500
Zn4	Zn	-0.509911	-1.464739	-0.628261
O5	O	-0.434542	-1.547516	-0.535388
O6	O	-0.379141	-1.778686	-0.596215
O7	O	-0.490027	-1.615677	-0.304267
O8	O	-0.232918	-1.469532	-0.457337
O9	O	-0.489986	-1.786041	-0.474598
O10	O	-0.232887	-1.598614	-0.586395
O11	O	-0.379213	-1.479239	-0.296826
O12	O	-0.379140	-1.308959	-0.467130
O13	O	-0.489859	-1.486742	-0.773939
O14	O	-0.489899	-1.316377	-0.603608
O15	O	-0.379069	-1.608406	-0.766519
O16	O	-0.636208	-1.625468	-0.484391
O17	O	-0.636153	-1.496449	-0.613428
C18	C	-0.434517	-1.274547	-0.535367
C19	C	-0.434528	-1.157771	-0.535384
C20	C	-0.492291	-1.106806	-0.606342
C21	C	-0.492299	-0.997082	-0.606352
C22	C	-0.376779	-0.989299	-0.464437
C23	C	-0.376767	-1.099020	-0.464433
C24	C	-0.558988	-1.111298	-0.688272
C25	C	-0.558997	-1.001575	-0.688282
C26	C	-0.668911	-1.563169	-0.551127
C27	C	-0.769175	-1.569962	-0.557896
C28	C	-0.957767	-1.448436	-0.436104
C29	C	-1.051974	-1.454815	-0.442460
C30	C	-1.051798	-1.589104	-0.576959
C31	C	-0.957591	-1.582725	-0.570602
C32	C	-0.910579	-1.512387	-0.500174
C33	C	-0.816370	-1.506004	-0.493823
C34	C	-0.816195	-1.640298	-0.628316
C35	C	-0.910402	-1.646677	-0.634672
C36	C	-0.199257	-1.531830	-0.519610
C37	C	-0.098993	-1.525145	-0.512886
C38	C	-0.434451	-1.547583	-0.809415
C39	C	-0.434412	-1.547612	-0.926189
C40	C	-0.434560	-0.821550	-0.535404
C41	C	-0.434548	-0.938326	-0.535398
C42	C	-0.376718	-1.610971	-0.977189
C43	C	-0.376685	-1.610994	-1.086911
C44	C	-0.492048	-1.484296	-1.094624
C45	C	-0.492076	-1.484268	-0.984904
C46	C	-0.310117	-1.684123	-0.972737
C47	C	-0.310084	-1.684146	-1.082459
C48	C	-0.434567	-1.547505	-0.262422
C49	C	-0.434352	-1.547663	-0.145631
H50	H	-0.625318	-1.149760	-0.663449
H51	H	-0.328798	-1.766771	-1.113497
H52	H	-0.540358	-1.139857	-0.768427
Br53	Br	-0.517429	-0.942110	-0.814404
H54	H	-0.948692	-1.703946	-0.692010
Br55	Br	-0.893961	-1.352971	-0.340535
H56	H	-0.539052	-1.432671	-0.943384
Br57	Br	-0.298351	-1.168184	-0.368152
H58	H	-0.538994	-1.432722	-1.142443
H59	H	-0.628842	-0.976463	-0.671047
H60	H	-1.090392	-1.402739	-0.390287
H61	H	-0.240257	-1.657670	-0.938282
H62	H	-0.778094	-1.448729	-0.436480
H63	H	-0.335163	-1.763074	-0.940387
Br64	Br	-1.115615	-1.684566	-0.672520
Br65	Br	-0.199510	-1.628036	-1.131782
Br66	Br	-0.298389	-0.909559	-0.368154
H67	H	-0.777764	-1.692368	-0.680489
