data_functionalizedCrystal
_audit_creation_method	'MofGen! by Chris Wilmer'
_symmetry_space_group_name_H-M	'P1'
_symmetry_Int_Tables_number	1
_symmetry_cell_setting	triclinic
loop_
_symmetry_equiv_pos_as_xyz
  x,y,z
_cell_length_a	11.169417
_cell_length_b	16.959454
_cell_length_c	11.169409
_cell_angle_alpha	90.032943
_cell_angle_beta	90.019824
_cell_angle_gamma	90.020954
loop_
_atom_site_label
_atom_site_type_symbol
_atom_site_fract_x
_atom_site_fract_y
_atom_site_fract_z
Zn1	Zn	1.834881	-0.314599	0.678538
Zn2	Zn	1.834736	-0.446806	0.477852
Zn3	Zn	1.634167	-0.314647	0.477872
Zn4	Zn	1.634140	-0.446741	0.678497
O5	O	1.734481	-0.380698	0.578190
O6	O	2.002812	-0.332143	0.651925
O7	O	1.808081	-0.429322	0.309905
O8	O	1.660864	-0.204030	0.504516
O9	O	2.002705	-0.429275	0.504482
O10	O	1.808328	-0.203995	0.651944
O11	O	1.660724	-0.332225	0.309920
O12	O	1.466214	-0.332163	0.504477
O13	O	1.660819	-0.429165	0.846452
O14	O	1.466194	-0.429212	0.651875
O15	O	1.808302	-0.332081	0.846482
O16	O	1.808055	-0.557408	0.504443
O17	O	1.660678	-0.557361	0.651856
C18	C	1.422657	-0.380686	0.578174
C19	C	1.289257	-0.380700	0.578196
C20	C	1.734381	-0.586065	0.578169
C21	C	1.734447	-0.673921	0.578201
C22	C	1.657853	-1.045402	0.654940
C23	C	1.811443	-1.045391	0.501562
C24	C	1.811401	-0.962846	0.501551
C25	C	1.734583	-0.921574	0.578234
C26	C	1.657807	-0.962849	0.654928
C27	C	1.888168	-0.921565	0.424850
C28	C	1.888128	-0.839014	0.424835
C29	C	1.811315	-0.797741	0.501525
C30	C	1.734536	-0.839021	0.578223
C31	C	1.657718	-0.797749	0.654906
C32	C	1.580944	-0.839027	0.731611
C33	C	1.580993	-0.921576	0.731618
C34	C	1.811266	-0.715193	0.501518
C35	C	1.657671	-0.715196	0.654895
C36	C	2.047524	-0.380711	0.578206
C37	C	2.180924	-0.380716	0.578213
C38	C	1.734573	-0.380611	0.891232
C39	C	1.734613	-0.380573	1.024633
C40	C	1.734615	-0.174530	0.578237
C41	C	1.734672	-0.086674	0.578257
C42	C	1.734459	-0.380729	0.266365
C43	C	1.734652	-0.380543	0.132966
H44	H	1.595120	-0.681597	0.717344
C45	C	1.512684	-0.712485	0.799682
C46	C	1.496508	-0.793656	0.815901
H47	H	1.460562	-0.684474	0.851723
H48	H	1.495148	-0.699012	0.719033
H49	H	1.593312	-0.698918	0.817310
H50	H	1.415882	-0.807223	0.798264
H51	H	1.514035	-0.807134	0.896568
H52	H	1.950642	-0.805410	0.362380
C53	C	1.564280	-1.014358	0.893040
C54	C	1.496602	-0.966953	0.815915
H55	H	1.512176	-1.042378	0.945071
H56	H	1.616513	-0.982112	0.938997
H57	H	1.610035	-1.050744	0.847355
H58	H	1.450854	-0.930563	0.861600
H59	H	1.444348	-0.999202	0.769954
C60	C	1.641149	-1.138168	0.816383
C61	C	1.573466	-1.090773	0.739248
H62	H	1.589049	-1.166181	0.868426
H63	H	1.693385	-1.105916	0.862327
H64	H	1.686901	-1.174559	0.770705
H65	H	1.527721	-1.054377	0.784926
H66	H	1.521209	-1.123027	0.693300
C67	C	1.879629	-1.171928	0.433404
C68	C	1.895827	-1.090755	0.417223
H69	H	1.931718	-1.199933	0.381324
H70	H	1.798998	-1.185477	0.415815
H71	H	1.897208	-1.185423	0.514047
H72	H	1.878240	-1.077258	0.336582
H73	H	1.976476	-1.077200	0.434804
H74	H	1.950700	-0.955174	0.362410
H75	H	1.873768	-0.681588	0.439060
