data_functionalizedCrystal
_audit_creation_method	'MofGen! by Chris Wilmer'
_symmetry_space_group_name_H-M	'P1'
_symmetry_Int_Tables_number	1
_symmetry_cell_setting	triclinic
loop_
_symmetry_equiv_pos_as_xyz
  x,y,z
_cell_length_a	11.295483
_cell_length_b	9.065218
_cell_length_c	9.065218
_cell_angle_alpha	85.015885
_cell_angle_beta	94.157802
_cell_angle_gamma	85.833729
loop_
_atom_site_label
_atom_site_type_symbol
_atom_site_fract_x
_atom_site_fract_y
_atom_site_fract_z
O1	O	0.099023	-1.970208	-0.206553
O2	O	0.099024	-1.540923	-0.224299
O3	O	0.099021	-1.764438	-0.000784
O4	O	0.099026	-1.746692	-0.430068
O5	O	-0.099029	-1.744806	-0.020385
O6	O	-0.099026	-1.521291	-0.243900
O7	O	-0.099028	-1.950575	-0.226154
Cu8	Cu	-0.117111	-1.734140	-0.236817
Cu9	Cu	0.117107	-1.757358	-0.213636
O10	O	-0.099025	-1.727060	-0.449669
C11	C	-0.000001	-1.476120	-0.232394
C12	C	-0.000000	-1.312277	-0.227294
N13	N	-0.281847	-1.717821	-0.253120
C14	C	-0.000002	-1.752917	0.044402
C15	C	0.000003	-1.747818	0.208246
C16	C	-0.531138	-1.891162	-0.079879
C17	C	-0.655802	-1.878840	-0.092210
C18	C	-0.655839	-1.680849	-0.290105
C19	C	-0.531176	-1.693171	-0.277774
C20	C	-0.468830	-1.798332	-0.172659
C21	C	-0.344164	-1.810660	-0.160336
C22	C	-0.344204	-1.612664	-0.358224
C23	C	-0.468867	-1.600342	-0.370555
N24	N	0.281843	-1.773688	-0.197321
C25	C	0.000000	-2.015378	-0.218059
C26	C	0.000007	-2.179222	-0.223158
C27	C	0.000001	-1.738582	-0.494855
C28	C	0.000004	-1.743682	-0.658698
H29	H	-0.293403	-1.896291	-0.074750
H30	H	-0.480375	-1.976798	0.005700
H31	H	-0.293458	-1.537080	-0.433776
C32	C	-0.724343	-1.980957	0.009845
C33	C	-0.655760	-2.096646	0.125442
C34	C	-0.724301	-2.198767	0.227503
C35	C	-0.861426	-2.185199	0.213968
C36	C	-0.930017	-2.069505	0.098366
C37	C	-0.861476	-1.967384	-0.003695
H38	H	-0.554245	-2.106694	0.135466
H39	H	-0.673524	-2.284411	0.313079
H40	H	-0.912164	-2.260795	0.289520
H41	H	-1.031532	-2.059457	0.088343
H42	H	-0.912252	-1.881740	-0.089271
H43	H	-0.706618	-1.595220	-0.375678
H44	H	-0.519644	-1.514718	-0.456134
