data_functionalizedCrystal
_audit_creation_method	'MofGen! by Chris Wilmer'
_symmetry_space_group_name_H-M	'P1'
_symmetry_Int_Tables_number	1
_symmetry_cell_setting	triclinic
loop_
_symmetry_equiv_pos_as_xyz
  x,y,z
_cell_length_a	14.971487
_cell_length_b	14.971486
_cell_length_c	13.448316
_cell_angle_alpha	89.997568
_cell_angle_beta	89.997662
_cell_angle_gamma	83.614266
loop_
_atom_site_label
_atom_site_type_symbol
_atom_site_fract_x
_atom_site_fract_y
_atom_site_fract_z
O1	O	-1.186950	-0.116562	0.082550
O2	O	-0.926550	-0.130520	0.082583
O3	O	-1.063729	0.006659	0.082559
O4	O	-1.049771	-0.253741	0.082575
O5	O	-1.063706	0.006656	-0.082825
O6	O	-0.926527	-0.130523	-0.082801
O7	O	-1.186927	-0.116565	-0.082834
Cu8	Cu	-1.056725	-0.123545	-0.097918
Cu9	Cu	-1.056752	-0.123540	0.097667
O10	O	-1.049747	-0.253744	-0.082809
C11	C	-0.893214	-0.129897	-0.000104
C12	C	-0.793917	-0.128026	-0.000092
C13	C	-0.736691	-0.208615	-0.000087
C14	C	-0.643392	-0.206852	-0.000100
C15	C	-0.607320	-0.124499	-0.000110
C16	C	-0.664552	-0.043903	-0.000118
C17	C	-0.757850	-0.045668	-0.000112
C18	C	-0.470090	-0.040232	-0.000127
C19	C	-0.376786	-0.038467	-0.000131
C20	C	-0.355632	-0.201416	-0.000115
C21	C	-0.448929	-0.203181	-0.000109
C22	C	-0.506156	-0.122585	-0.000115
C23	C	-1.063094	0.039982	-0.000133
C24	C	-1.061223	0.139279	-0.000132
N25	N	-1.056712	-0.123547	-0.235482
C26	C	-0.220263	-0.117187	-0.000138
C27	C	-0.319560	-0.119056	-0.000126
C28	C	-1.050383	-0.287067	-0.000116
C29	C	-1.052254	-0.386364	-0.000110
C30	C	-1.141812	0.196504	-0.000143
C31	C	-1.140049	0.289804	-0.000133
C32	C	-1.057696	0.325876	-0.000118
C33	C	-0.977100	0.268644	-0.000104
C34	C	-0.978864	0.175346	-0.000108
C35	C	-0.973429	0.463106	-0.000100
C36	C	-0.971665	0.556411	-0.000099
C37	C	-1.134614	0.577564	-0.000125
C38	C	-1.136378	0.484266	-0.000128
C39	C	-1.055782	0.427040	-0.000116
C40	C	-1.117524	-0.062813	-0.712712
C41	C	-1.117516	-0.062819	-0.608608
C42	C	-1.056752	-0.123539	-0.556564
C43	C	-0.995997	-0.184264	-0.608628
C44	C	-0.996010	-0.184262	-0.712729
C45	C	-0.995974	-0.184263	-0.391647
C46	C	-0.995960	-0.184265	-0.287539
C47	C	-1.117481	-0.062821	-0.287527
C48	C	-1.117493	-0.062818	-0.391628
C49	C	-1.056737	-0.123542	-0.443685
N50	N	-1.056772	-0.123531	0.235232
H51	H	-0.309033	-0.267040	-0.000114
H52	H	-0.347419	0.028592	-0.000141
H53	H	-0.516682	0.025398	-0.000134
H54	H	-0.913240	0.128754	-0.000098
C55	C	-0.624869	0.046686	-0.000131
N56	N	-0.594981	0.114921	-0.000137
H57	H	-0.904606	0.585777	-0.000104
H58	H	-0.804443	0.019956	-0.000116
C59	C	-1.184344	0.003980	-0.551351
N60	N	-1.234680	0.054297	-0.508225
C61	C	-1.232408	0.156834	-0.000158
N62	N	-1.300648	0.126958	-0.000166
C63	C	-1.184326	0.003963	-0.230263
N64	N	-1.234673	0.054262	-0.187127
H65	H	-0.946480	-0.233711	-0.245169
C66	C	-0.776361	-0.299212	-0.000077
N67	N	-0.806238	-0.367452	-0.000075
H68	H	-1.205673	0.336394	-0.000144
H69	H	-0.946540	-0.233705	-0.755112
C70	C	-1.226970	0.444589	-0.000149
N71	N	-1.295206	0.414704	-0.000161
H72	H	-0.596802	-0.272476	-0.000095
C73	C	-0.884769	0.400159	-0.000092
N74	N	-0.817991	0.352748	-0.000093
H75	H	-0.910047	0.298021	-0.000087
H76	H	-1.166967	-0.013371	-0.434003
H77	H	-1.200238	0.624162	-0.000132
C78	C	-1.184368	0.003988	-0.769951
N79	N	-1.234719	0.054303	-0.813061
H80	H	-0.946503	-0.233714	-0.434029
H81	H	-0.478296	-0.270240	-0.000091
C82	C	-0.929155	-0.251057	-0.551375
N83	N	-0.878806	-0.301364	-0.508253
