data_functionalizedCrystal
_audit_creation_method	'MofGen! by Chris Wilmer'
_symmetry_space_group_name_H-M	'P1'
_symmetry_Int_Tables_number	1
_symmetry_cell_setting	triclinic
loop_
_symmetry_equiv_pos_as_xyz
  x,y,z
_cell_length_a	8.497367
_cell_length_b	8.497374
_cell_length_c	12.645331
_cell_angle_alpha	90.003750
_cell_angle_beta	90.034495
_cell_angle_gamma	90.038609
loop_
_atom_site_label
_atom_site_type_symbol
_atom_site_fract_x
_atom_site_fract_y
_atom_site_fract_z
Zn1	Zn	0.628373	0.892558	1.620910
Zn2	Zn	0.892119	0.628977	1.621009
Zn3	Zn	0.628342	0.628776	1.443683
Zn4	Zn	0.892101	0.892699	1.443765
O5	O	0.760234	0.760752	1.532342
O6	O	0.663381	0.857618	1.769271
O7	O	0.857123	0.408188	1.597493
O8	O	0.407584	0.663623	1.467118
O9	O	0.857154	0.663966	1.769343
O10	O	0.407607	0.857423	1.597325
O11	O	0.663327	0.408040	1.467213
O12	O	0.663309	0.663760	1.295347
O13	O	0.857122	1.113443	1.467256
O14	O	0.857092	0.857664	1.295407
O15	O	0.663363	1.113339	1.597404
O16	O	1.112879	0.664104	1.597572
O17	O	1.112866	0.857859	1.467352
C18	C	0.760196	0.760707	1.256912
C19	C	0.760218	0.760725	1.139082
C20	C	1.348753	0.760606	1.532268
C21	C	1.170110	0.760895	1.532402
C22	C	0.760236	1.172232	1.532334
C23	C	0.760253	1.350877	1.532336
C24	C	0.637749	0.639412	0.971445
C25	C	0.638066	0.638878	1.094005
C26	C	0.926391	0.715445	1.094672
C27	C	0.925722	0.714617	0.972073
C28	C	0.718096	0.927786	0.971870
C29	C	0.714383	0.926855	1.094474
C30	C	0.760273	0.760799	1.808847
C31	C	0.760289	0.760819	1.926677
H32	H	0.514840	0.667244	1.124025
C33	C	0.914210	1.118518	1.019751
C34	C	0.838572	1.049910	0.932793
H35	H	0.988593	1.193896	0.995619
H36	H	0.838522	1.168900	1.063387
H37	H	0.966833	1.039286	1.059210
H38	H	0.785938	1.129141	0.893338
H39	H	0.914271	0.999528	0.889139
H40	H	0.514153	0.667472	0.941900
H41	H	0.962794	0.594698	1.125376
H42	H	0.961509	0.592560	0.943476
C43	C	0.576620	1.124051	0.873809
C44	C	0.557376	0.983419	0.930057
H45	H	0.477394	1.158375	0.847991
H46	H	0.619534	1.202094	0.919239
H47	H	0.645965	1.107047	0.816038
H48	H	0.488039	1.000426	0.987833
H49	H	0.514440	0.905359	0.884624
C50	C	0.546288	0.416373	0.872247
C51	C	0.675047	0.473381	0.929853
H52	H	0.569353	0.313885	0.846564
H53	H	0.456407	0.412017	0.916771
H54	H	0.525799	0.484547	0.814326
H55	H	0.695529	0.405212	0.987779
H56	H	0.764954	0.477727	0.885326
H57	H	0.592099	0.961001	1.123497
H58	H	0.665949	0.515146	1.123327
H59	H	1.020112	0.799196	0.942466
H60	H	1.020130	0.801102	1.123878
H61	H	0.797129	1.022140	1.125160
