data_functionalizedCrystal
_audit_creation_method	'MofGen! by Chris Wilmer'
_symmetry_space_group_name_H-M	'P1'
_symmetry_Int_Tables_number	1
_symmetry_cell_setting	triclinic
loop_
_symmetry_equiv_pos_as_xyz
  x,y,z
_cell_length_a	6.817900
_cell_length_b	19.551136
_cell_length_c	19.453030
_cell_angle_alpha	96.341003
_cell_angle_beta	101.707737
_cell_angle_gamma	101.650842
loop_
_atom_site_label
_atom_site_type_symbol
_atom_site_fract_x
_atom_site_fract_y
_atom_site_fract_z
V1	V	-3.997702	-0.097405	-0.219347
O2	O	-3.995092	0.003932	-0.214816
O3	O	-3.940451	-0.192418	-0.218189
O4	O	-3.940719	-0.096235	-0.314856
O5	O	-3.994823	-0.092916	-0.117480
V6	V	-4.483589	-0.085245	-0.207121
O7	O	-4.253775	-0.124079	-0.246165
O8	O	-4.677714	-0.058571	-0.180303
O9	O	-4.317634	0.009768	-0.208279
O10	O	-4.603597	-0.186583	-0.211653
O11	O	-4.603866	-0.089734	-0.308989
O12	O	-4.317366	-0.086415	-0.111613
C13	C	-3.783577	-0.215570	-0.214817
C14	C	-3.817997	-0.293246	-0.214507
C15	C	-3.800734	-0.319523	-0.149994
C16	C	-3.833149	-0.392506	-0.149681
C17	C	-3.882787	-0.439210	-0.213884
C18	C	-3.900061	-0.412927	-0.278407
C19	C	-3.867666	-0.339945	-0.278718
C20	C	-3.843114	-0.560376	-0.260437
C21	C	-3.875495	-0.633356	-0.260123
C22	C	-3.982714	-0.664311	-0.212927
C23	C	-4.057517	-0.622275	-0.166033
C24	C	-4.025122	-0.549294	-0.166344
C25	C	-3.917919	-0.518348	-0.213554
C26	C	-4.000600	-0.769723	-0.148070
C27	C	-4.033029	-0.842709	-0.147760
C28	C	-4.099921	-0.863128	-0.276487
C29	C	-4.067512	-0.790144	-0.276796
C30	C	-4.017842	-0.743446	-0.212585
C31	C	-3.783917	-0.092878	-0.338124
C32	C	-3.818552	-0.092550	-0.416205
C33	C	-3.868094	-0.156420	-0.463139
C34	C	-3.900660	-0.156120	-0.536506
C35	C	-3.883640	-0.091945	-0.562935
C36	C	-3.834101	-0.028067	-0.515991
C37	C	-3.801556	-0.028370	-0.442627
N38	N	-3.796651	-0.041629	-0.668249
N39	N	-3.827565	-0.041346	-0.737944
C40	C	-3.981697	-0.091029	-0.783979
N41	N	-4.103728	-0.141016	-0.757689
N42	N	-4.072803	-0.141301	-0.687988
C43	C	-3.918927	-0.091609	-0.642486
C44	C	-4.066556	-0.154577	-0.910467
C45	C	-4.099134	-0.154274	-0.983835
C46	C	-4.032553	-0.026219	-0.963318
C47	C	-3.999997	-0.026524	-0.889952
C48	C	-4.016992	-0.090705	-0.863531
C49	C	-4.137850	0.032916	-0.211649
C50	C	-4.082668	0.110592	-0.211964
C51	C	-4.137510	-0.089774	-0.088341
C52	C	-4.082115	-0.090099	-0.010259
H53	H	-3.960155	-0.731699	-0.095785
H54	H	-4.139490	-0.206287	-1.022049
N55	N	-3.949344	0.038727	-0.842016
N56	N	-3.790367	0.084335	-0.840571
H57	H	-3.754595	0.130422	-0.806717
N58	N	-3.951277	-0.221371	-0.584449
N59	N	-3.966451	-0.278668	-0.560849
H60	H	-4.002196	-0.324752	-0.594707
H61	H	-3.755804	-0.535179	-0.298873
N62	N	-4.083702	-0.220078	-0.883371
N63	N	-3.932478	-0.231702	-0.841926
H64	H	-3.944508	-0.277943	-0.822756
H65	H	-4.144806	-0.647476	-0.127597
N66	N	-4.015191	0.039329	-0.990318
N67	N	-4.044261	0.039592	-1.055823
H68	H	-4.032007	0.085886	-1.074895
H69	H	-3.881732	-0.318553	-0.331255
H70	H	-3.761214	0.023643	-0.404412
H71	H	-4.140338	-0.901154	-0.328763
N72	N	-3.750006	-0.271833	-0.084400
N73	N	-3.734605	-0.295309	-0.026802
H74	H	-3.698781	-0.261627	0.019525
N75	N	-4.085149	-0.763312	-0.342702
N76	N	-4.129481	-0.805017	-0.400023
H77	H	-4.141947	-0.786068	-0.446574
H78	H	-3.819087	-0.413904	-0.097144
N79	N	-3.799054	-0.676287	-0.308013
N80	N	-3.610385	-0.664665	-0.305478
H81	H	-3.556393	-0.694984	-0.339302
N82	N	-4.101536	-0.506366	-0.118443
N83	N	-4.197258	-0.534005	-0.076303
H84	H	-4.251232	-0.503688	-0.042472
H85	H	-3.820250	0.024185	-0.537515
N86	N	-3.950782	-0.460641	-0.343983
N87	N	-3.979701	-0.525801	-0.343697
H88	H	-4.015534	-0.559500	-0.390013
H89	H	-4.018981	-0.864100	-0.095223
N90	N	-3.885871	-0.221991	-0.436171
N91	N	-3.930386	-0.279020	-0.478097
H92	H	-3.943098	-0.325334	-0.459053
