data_functionalizedCrystal
_audit_creation_method	'MofGen! by Chris Wilmer'
_symmetry_space_group_name_H-M	'P1'
_symmetry_Int_Tables_number	1
_symmetry_cell_setting	triclinic
loop_
_symmetry_equiv_pos_as_xyz
  x,y,z
_cell_length_a	12.827893
_cell_length_b	19.121063
_cell_length_c	12.827885
_cell_angle_alpha	92.403967
_cell_angle_beta	89.980728
_cell_angle_gamma	92.468878
loop_
_atom_site_label
_atom_site_type_symbol
_atom_site_fract_x
_atom_site_fract_y
_atom_site_fract_z
Zn1	Zn	1.579835	-0.279579	-0.608539
Zn2	Zn	1.572236	-0.397046	-0.441232
Zn3	Zn	1.405075	-0.279614	-0.433815
Zn4	Zn	1.397572	-0.396994	-0.615928
O5	O	1.488680	-0.338308	-0.524878
O6	O	1.725063	-0.295169	-0.586357
O7	O	1.550022	-0.381505	-0.294014
O8	O	1.434577	-0.181325	-0.450796
O9	O	1.719480	-0.381471	-0.463437
O10	O	1.562973	-0.181300	-0.579165
O11	O	1.427209	-0.295227	-0.288565
O12	O	1.257844	-0.295177	-0.457961
O13	O	1.421790	-0.381382	-0.761182
O14	O	1.252332	-0.381415	-0.591759
O15	O	1.555698	-0.295118	-0.755753
O16	O	1.542747	-0.495323	-0.470602
O17	O	1.414422	-0.495285	-0.598951
C18	C	1.217171	-0.338295	-0.524858
C19	C	1.101017	-0.338306	-0.524875
C20	C	1.046528	-0.381046	-0.590989
C21	C	0.926477	-0.381059	-0.591008
C22	C	1.476974	-0.520788	-0.536406
C23	C	1.472062	-0.598854	-0.541373
C24	C	1.536618	-0.635526	-0.476937
C25	C	1.532005	-0.708877	-0.481615
C26	C	1.462829	-0.745554	-0.550723
C27	C	1.398270	-0.708877	-0.615166
C28	C	1.402890	-0.635528	-0.610493
C29	C	1.445540	-0.967023	-0.568177
C30	C	1.440923	-1.040378	-0.572842
C31	C	1.574660	-1.040373	-0.439292
C32	C	1.579269	-0.967021	-0.434621
C33	C	1.514714	-0.930351	-0.499067
C34	C	1.458109	-0.820531	-0.555503
C35	C	1.519440	-0.855375	-0.494292
C36	C	1.761249	-0.338322	-0.524900
C37	C	1.877402	-0.338328	-0.524909
C38	C	1.488755	-0.338241	-0.797445
C39	C	1.488787	-0.338212	-0.913596
C40	C	1.500460	-0.155116	-0.513328
C41	C	1.505479	-0.077050	-0.508407
C42	C	1.555057	-0.295518	-0.962694
C43	C	1.555091	-0.295487	-1.082742
C44	C	1.488668	-0.338325	-0.253370
C45	C	1.488851	-0.338156	-0.137206
H46	H	1.088756	-0.417626	-0.647580
N47	N	1.590083	-0.817903	-0.423697
N48	N	1.555910	-0.777028	-0.354480
H49	H	1.605798	-0.750557	-0.304617
H50	H	1.384604	-1.070239	-0.629137
N51	N	1.597942	-0.746352	-0.415810
N52	N	1.661937	-0.787225	-0.455245
H53	H	1.708508	-0.813695	-0.408772
H54	H	0.924244	-0.301737	-0.468300
N55	N	1.626267	-0.249618	-1.135697
N56	N	1.688539	-0.209501	-1.084544
H57	H	1.738809	-0.177103	-1.121944
N58	N	0.867699	-0.426968	-0.662003
N59	N	0.770260	-0.426916	-0.661913
H60	H	0.728744	-0.459342	-0.712054
N61	N	1.417653	-0.384004	-1.084241
N62	N	1.321518	-0.379340	-1.096048
H63	H	1.271232	-0.411719	-1.058635
N64	N	1.048056	-0.292399	-0.453896
N65	N	0.990011	-0.247715	-0.488019
H66	H	0.952609	-0.215290	-0.437889
N67	N	1.626200	-0.249678	-0.903957
N68	N	1.623449	-0.184859	-0.911981
H69	H	1.673696	-0.152482	-0.870501
N70	N	1.417649	-0.384048	-0.972344
N71	N	1.420394	-0.448868	-0.964327
H72	H	1.370149	-0.481241	-1.005815
N73	N	1.607264	-0.598065	-0.406326
N74	N	1.599862	-0.606315	-0.310419
H75	H	1.649759	-0.579860	-0.260547
N76	N	1.649933	-0.929569	-0.364018
N77	N	1.707568	-0.962322	-0.306489
H78	H	1.757473	-0.935872	-0.256622
N79	N	1.640588	-1.077842	-0.373472
N80	N	1.636457	-1.143332	-0.377647
H81	H	1.683023	-1.169796	-0.331161
N82	N	1.379594	-0.929582	-0.634012
N83	N	1.317834	-0.962341	-0.695707
H84	H	1.271255	-0.935896	-0.742206
H85	H	1.341950	-0.738746	-0.671440
N86	N	1.336961	-0.598065	-0.676326
N87	N	1.343335	-0.606201	-0.773278
H88	H	1.296775	-0.579744	-0.819779
N89	N	1.387443	-0.858011	-0.626074
N90	N	1.318304	-0.899002	-0.591846
H91	H	1.268397	-0.925476	-0.641687
