data_functionalizedCrystal
_audit_creation_method	'MofGen! by Chris Wilmer'
_symmetry_space_group_name_H-M	'P1'
_symmetry_Int_Tables_number	1
_symmetry_cell_setting	triclinic
loop_
_symmetry_equiv_pos_as_xyz
  x,y,z
_cell_length_a	6.817900
_cell_length_b	11.168130
_cell_length_c	16.015572
_cell_angle_alpha	76.765758
_cell_angle_beta	104.485554
_cell_angle_gamma	108.508653
loop_
_atom_site_label
_atom_site_type_symbol
_atom_site_fract_x
_atom_site_fract_y
_atom_site_fract_z
V1	V	-3.999072	-0.050929	-0.269395
O2	O	-3.960769	0.129811	-0.264260
O3	O	-3.976115	-0.223478	-0.267559
O4	O	-3.927036	0.005739	-0.386884
O5	O	-4.010188	-0.100993	-0.144109
V6	V	-4.482466	-0.035914	-0.254409
O7	O	-4.260614	-0.083867	-0.302268
O8	O	-4.671122	-0.002977	-0.221536
O9	O	-4.282216	0.136635	-0.256245
O10	O	-4.638167	-0.216654	-0.259544
O11	O	-4.588747	0.014149	-0.379695
O12	O	-4.331296	-0.092583	-0.136920
C13	C	-3.828071	-0.267288	-0.263311
C14	C	-3.890430	-0.407989	-0.262593
C15	C	-3.944115	-0.453306	-0.337468
C16	C	-4.008568	-0.598727	-0.336728
C17	C	-3.765464	0.025102	-0.415521
C18	C	-3.788018	0.070293	-0.511569
C19	C	-4.135799	-0.330821	-0.889218
C20	C	-4.156990	-0.288316	-0.979466
C21	C	-4.047576	-0.068411	-0.954750
C22	C	-4.026365	-0.110897	-0.864498
C23	C	-4.070482	-0.242104	-0.831740
C24	C	-3.961048	-0.022180	-0.807020
C25	C	-3.939850	-0.064663	-0.716776
C26	C	-3.983967	-0.195864	-0.684011
C27	C	-4.049284	-0.284587	-0.741496
C28	C	-3.916946	0.109026	-0.839781
C29	C	-3.851630	0.197744	-0.782302
C30	C	-3.830416	0.155261	-0.692057
C31	C	-3.874533	0.024060	-0.659291
C32	C	-3.765099	0.243984	-0.634571
C33	C	-3.743901	0.201500	-0.544328
C34	C	-3.853335	-0.018424	-0.569047
C35	C	-4.093605	0.180437	-0.260490
C36	C	-4.010483	0.321139	-0.261214
C37	C	-4.156212	-0.111952	-0.108278
C38	C	-4.112895	-0.157137	-0.012229
H39	H	-4.054643	-0.637765	-0.400829
O40	O	-3.892133	-0.490073	-0.185432
C41	C	-3.688179	-0.464770	-0.133320
H42	H	-3.566955	-0.414670	-0.176904
H43	H	-3.656312	-0.558655	-0.095690
H44	H	-3.676348	-0.400526	-0.085230
H45	H	-3.934179	0.143613	-0.913263
H46	H	-4.210172	-0.360571	-1.026263
H47	H	-4.171696	-0.437662	-0.862544
O48	O	-3.963186	-0.237288	-0.596359
C49	C	-3.813001	-0.307702	-0.568815
H50	H	-3.799461	-0.346065	-0.626648
H51	H	-3.864643	-0.391101	-0.515458
H52	H	-3.653458	-0.242884	-0.542066
H53	H	-4.011669	0.038418	-0.981435
O54	O	-3.955756	-0.632163	-0.184797
C55	C	-4.093404	-0.561021	-0.184608
H56	H	-4.166053	-0.526841	-0.254792
H57	H	-4.001745	-0.474779	-0.150755
H58	H	-4.223715	-0.623912	-0.148124
H59	H	-3.690715	0.273743	-0.497527
O60	O	-3.942379	-0.371296	-0.414660
C61	C	-4.146362	-0.396559	-0.466749
H62	H	-4.238924	-0.499187	-0.445214
H63	H	-4.134293	-0.383230	-0.538197
H64	H	-4.230813	-0.327690	-0.458960
H65	H	-3.889232	-0.125265	-0.542373
O66	O	-3.808770	0.325149	-0.814272
C67	C	-3.841541	0.343624	-0.906250
H68	H	-3.828205	0.256410	-0.927673
H69	H	-3.717628	0.432273	-0.930315
H70	H	-4.005285	0.357131	-0.935137
O71	O	-4.091423	-0.412026	-0.709651
C72	C	-3.956414	-0.464198	-0.735024
H73	H	-3.899017	-0.400782	-0.795746
H74	H	-4.045631	-0.564401	-0.750181
H75	H	-3.815428	-0.469598	-0.679663
H76	H	-3.729205	0.350812	-0.661258
