data_functionalizedCrystal
_audit_creation_method	'MofGen! by Chris Wilmer'
_symmetry_space_group_name_H-M	'P1'
_symmetry_Int_Tables_number	1
_symmetry_cell_setting	triclinic
loop_
_symmetry_equiv_pos_as_xyz
  x,y,z
_cell_length_a	16.120444
_cell_length_b	12.645331
_cell_length_c	16.120297
_cell_angle_alpha	87.121877
_cell_angle_beta	84.384883
_cell_angle_gamma	92.925586
loop_
_atom_site_label
_atom_site_type_symbol
_atom_site_fract_x
_atom_site_fract_y
_atom_site_fract_z
Zn1	Zn	-0.356772	1.566073	0.489466
Zn2	Zn	-0.489462	1.565936	0.356778
Zn3	Zn	-0.349706	1.398263	0.349711
Zn4	Zn	-0.496501	1.379279	0.496500
O5	O	-0.423110	1.477388	0.423113
O6	O	-0.374385	1.714400	0.471878
O7	O	-0.465020	1.551581	0.238878
O8	O	-0.233677	1.428525	0.362348
O9	O	-0.471872	1.714300	0.374393
O10	O	-0.238869	1.551815	0.465026
O11	O	-0.362342	1.428393	0.233686
O12	O	-0.369167	1.247399	0.369169
O13	O	-0.483869	1.396170	0.612528
O14	O	-0.477016	1.233452	0.477014
O15	O	-0.381210	1.533407	0.607361
O16	O	-0.607362	1.533173	0.381214
O17	O	-0.612533	1.396037	0.483867
C18	C	-0.423089	1.201961	0.423088
C19	C	-0.423101	1.084129	0.423098
C20	C	-0.354974	0.925300	0.355594
C21	C	-0.355127	1.047868	0.355320
C22	C	-0.509931	1.035259	0.403494
C23	C	-0.509554	0.912714	0.403038
C24	C	-0.405250	0.912495	0.510498
C25	C	-0.403258	1.035267	0.509906
C26	C	-0.640276	1.462558	0.434088
C27	C	-0.733182	1.456309	0.438811
C28	C	-0.942093	1.510052	0.398792
C29	C	-0.903277	1.444919	0.447443
C30	C	-0.808627	1.451258	0.442639
C31	C	-1.036751	1.503714	0.403595
C32	C	-0.205097	1.492303	0.412114
C33	C	-0.112193	1.498659	0.407427
C34	C	-0.434113	1.462686	0.641119
C35	C	-0.438801	1.456421	0.734021
C36	C	-0.423132	1.753890	0.423139
C37	C	-0.423141	1.871719	0.423150
C38	C	-0.412090	1.492097	0.205953
C39	C	-0.407166	1.498584	0.113040
C40	C	-0.447343	1.444945	0.904111
C41	C	-0.398627	1.510056	0.942955
C42	C	-0.403380	1.503671	1.037599
C43	C	-0.442592	1.451329	0.809458
H44	H	-0.449644	1.059527	0.562572
H45	H	-0.353349	1.570595	0.905131
H46	H	-0.941130	1.384394	0.492703
N47	N	-0.507314	1.364769	0.954218
H48	H	-0.566293	1.378149	0.942111
H49	H	-0.493516	1.290945	0.938396
H50	H	-0.454954	0.877057	0.560778
H51	H	-0.904244	1.570572	0.353535
H52	H	-0.290600	1.081382	0.367097
H53	H	-0.290242	0.899274	0.367199
H54	H	-0.525990	1.068942	0.340482
H55	H	-0.366593	1.080587	0.290501
N56	N	-0.369927	0.888579	0.270339
H57	H	-0.426942	0.908841	0.256349
H58	H	-0.325838	0.923188	0.227263
N59	N	-0.530346	0.878861	0.318633
H60	H	-0.539669	0.943526	0.282071
H61	H	-0.482586	0.839829	0.291682
N62	N	-0.318654	1.078015	0.529614
H63	H	-0.281005	1.017399	0.536438
H64	H	-0.293344	1.128838	0.482495
N65	N	-0.578788	0.864904	0.465683
H66	H	-0.569468	0.888545	0.523134
H67	H	-0.634173	0.889149	0.449941
N68	N	-0.578736	1.065338	0.466904
H69	H	-0.580880	1.145081	0.465662
H70	H	-0.633948	1.033002	0.453064
N71	N	-0.323156	0.875315	0.535277
H72	H	-0.325069	0.795243	0.538712
H73	H	-0.276508	0.903483	0.492210
