data_functionalizedCrystal
_audit_creation_method	'MofGen! by Chris Wilmer'
_symmetry_space_group_name_H-M	'P1'
_symmetry_Int_Tables_number	1
_symmetry_cell_setting	triclinic
loop_
_symmetry_equiv_pos_as_xyz
  x,y,z
_cell_length_a	19.805405
_cell_length_b	19.805407
_cell_length_c	19.805398
_cell_angle_alpha	90.017356
_cell_angle_beta	89.972363
_cell_angle_gamma	89.974605
loop_
_atom_site_label
_atom_site_type_symbol
_atom_site_fract_x
_atom_site_fract_y
_atom_site_fract_z
Zn1	Zn	-0.269508	-1.034711	-0.382738
Zn2	Zn	0.063825	-0.701378	-0.049405
Zn3	Zn	0.397158	-0.368044	0.283928
Zn4	Zn	-0.382693	-1.034633	-0.269547
Zn5	Zn	-0.049360	-0.701300	0.063787
Zn6	Zn	0.283973	-0.367966	0.397120
Zn7	Zn	-0.269522	-0.921533	-0.269560
Zn8	Zn	0.063812	-0.588200	0.063773
Zn9	Zn	0.397145	-0.254866	0.397107
Zn10	Zn	-0.382659	-0.921489	-0.382691
Zn11	Zn	-0.049325	-0.588156	-0.049357
Zn12	Zn	0.284008	-0.254822	0.283976
O13	O	-0.326096	-0.978091	-0.326134
O14	O	0.007238	-0.644758	0.007199
O15	O	0.340571	-0.311425	0.340533
O16	O	-0.284531	-1.129417	-0.367738
O17	O	0.048802	-0.796084	-0.034404
O18	O	0.382135	-0.462750	0.298929
O19	O	-0.367701	-1.019616	-0.174832
O20	O	-0.034368	-0.686283	0.158501
O21	O	0.298966	-0.352949	0.491835
O22	O	-0.174803	-0.936597	-0.284599
O23	O	0.158530	-0.603264	0.048734
O24	O	0.491863	-0.269930	0.382068
O25	O	-0.367688	-1.129360	-0.284576
O26	O	-0.034355	-0.796027	0.048757
O27	O	0.298979	-0.462693	0.382090
O28	O	-0.174793	-1.019748	-0.367751
O29	O	0.158540	-0.686415	-0.034417
O30	O	0.491873	-0.353082	0.298916
O31	O	-0.284554	-0.936522	-0.174842
O32	O	0.048779	-0.603188	0.158492
O33	O	0.382112	-0.269855	0.491825
O34	O	-0.284521	-0.826810	-0.284553
O35	O	0.048813	-0.493477	0.048781
O36	O	0.382146	-0.160144	0.382114
O37	O	-0.367629	-0.936522	-0.477414
O38	O	-0.034296	-0.603189	-0.144080
O39	O	0.299038	-0.269856	0.189253
O40	O	-0.367642	-0.826778	-0.367669
O41	O	-0.034309	-0.493445	-0.034336
O42	O	0.299025	-0.160112	0.298998
O43	O	-0.284498	-1.019706	-0.477449
O44	O	0.048835	-0.686373	-0.144115
O45	O	0.382169	-0.353039	0.189218
O46	O	-0.477405	-1.019573	-0.284530
O47	O	-0.144072	-0.686240	0.048803
O48	O	0.189261	-0.352907	0.382137
O49	O	-0.477380	-0.936447	-0.367656
O50	O	-0.144047	-0.603114	-0.034323
O51	O	0.189287	-0.269780	0.299010
C52	C	-0.326079	-0.802235	-0.326108
C53	C	0.007254	-0.468902	0.007226
C54	C	0.340587	-0.135569	0.340559
C55	C	-0.326089	-0.727003	-0.326112
C56	C	0.007244	-0.393670	0.007221
C57	C	0.340578	-0.060337	0.340554
C58	C	-0.369435	-0.691660	-0.369320
C59	C	-0.036101	-0.358327	-0.035987
C60	C	0.297232	-0.024994	0.297347
C61	C	-0.369435	-0.620972	-0.369328
C62	C	-0.036101	-0.287638	-0.035994
C63	C	0.297232	0.045695	0.297339
C64	C	-0.326092	-0.585628	-0.326124
C65	C	0.007242	-0.252295	0.007210
C66	C	0.340575	0.081039	0.340543
C67	C	-0.282741	-0.620976	-0.282914
C68	C	0.050592	-0.287643	0.050419
C69	C	0.383926	0.045691	0.383753
C70	C	-0.282738	-0.691663	-0.282910
C71	C	0.050595	-0.358330	0.050423
C72	C	0.383928	-0.024997	0.383756
C73	C	-0.282751	-0.335903	-0.282929
C74	C	0.050582	-0.002569	0.050404
C75	C	0.383916	0.330764	0.383738
C76	C	-0.282759	-0.265211	-0.282935
C77	C	0.050575	0.068123	0.050399
C78	C	0.383908	0.401456	0.383732
C79	C	-0.369447	-0.265211	-0.369346
C80	C	-0.036114	0.068122	-0.036013
C81	C	0.297219	0.401455	0.297320
C82	C	-0.369445	-0.335899	-0.369343
C83	C	-0.036111	-0.002565	-0.036009
C84	C	0.297222	0.330768	0.297324
C85	C	-0.326092	-0.371241	-0.326136
C86	C	0.007242	-0.037907	0.007197
C87	C	0.340575	0.295426	0.340531
C88	C	-0.326091	-0.447889	-0.326129
C89	C	0.007242	-0.114556	0.007204
C90	C	0.340575	0.218778	0.340538
C91	C	-0.326095	-0.508981	-0.326127
C92	C	0.007238	-0.175647	0.007207
C93	C	0.340572	0.157686	0.340540
C94	C	-0.501952	-0.978015	-0.326101
C95	C	-0.168618	-0.644682	0.007232
C96	C	0.164715	-0.311349	0.340565
C97	C	-0.577184	-0.978045	-0.326110
C98	C	-0.243850	-0.644711	0.007223
C99	C	0.089483	-0.311378	0.340557
C100	C	-0.612518	-1.021371	-0.282871
C101	C	-0.279185	-0.688037	0.050462
C102	C	0.054148	-0.354704	0.383795
C103	C	-0.683207	-1.021399	-0.282886
C104	C	-0.349874	-0.688066	0.050447
C105	C	-0.016540	-0.354733	0.383780
C106	C	-0.718559	-0.978098	-0.326137
C107	C	-0.385226	-0.644765	0.007196
C108	C	-0.051892	-0.311432	0.340530
C109	C	-0.683219	-0.934770	-0.369380
C110	C	-0.349886	-0.601437	-0.036047
C111	C	-0.016553	-0.268104	0.297286
C112	C	-0.612532	-0.934746	-0.369368
C113	C	-0.279199	-0.601412	-0.036035
C114	C	0.054135	-0.268079	0.297299
C115	C	-0.968292	-0.934870	-0.369430
C116	C	-0.634959	-0.601537	-0.036097
C117	C	-0.301626	-0.268204	0.297236
C118	C	-1.038985	-0.934897	-0.369438
C119	C	-0.705651	-0.601564	-0.036104
C120	C	-0.372318	-0.268230	0.297229
C121	C	-1.038967	-1.021524	-0.282949
C122	C	-0.705634	-0.688191	0.050385
C123	C	-0.372301	-0.354857	0.383718
C124	C	-0.968280	-1.021499	-0.282936
C125	C	-0.634947	-0.688166	0.050397
C126	C	-0.301613	-0.354833	0.383730
C127	C	-0.932946	-0.978174	-0.326182
C128	C	-0.599613	-0.644841	0.007151
C129	C	-0.266280	-0.311507	0.340485
C130	C	-0.856298	-0.978144	-0.326166
C131	C	-0.522965	-0.644811	0.007167
C132	C	-0.189631	-0.311478	0.340501
C133	C	-0.795206	-0.978124	-0.326150
C134	C	-0.461873	-0.644791	0.007184
C135	C	-0.128540	-0.311457	0.340517
C136	C	-0.149553	-0.978186	-0.326182
C137	C	0.183781	-0.644853	0.007152
C138	C	0.517114	-0.311520	0.340485
C139	C	-0.074321	-0.978227	-0.326202
C140	C	0.259013	-0.644893	0.007131
C141	C	0.592346	-0.311560	0.340465
C142	C	-0.326058	-0.978118	-0.502677
C143	C	0.007275	-0.644785	-0.169343
C144	C	0.340609	-0.311451	0.163990
C145	C	-0.326042	-0.978129	-0.577909
C146	C	0.007291	-0.644796	-0.244575
C147	C	0.340625	-0.311463	0.088758
C148	C	-0.326108	-0.154634	-0.326154
C149	C	0.007226	0.178699	0.007179
C150	C	0.340559	0.512033	0.340512
C151	C	-0.326102	-0.229866	-0.326146
C152	C	0.007232	0.103467	0.007187
C153	C	0.340565	0.436801	0.340520
C154	C	-0.282636	-1.021525	-1.039719
C155	C	0.050697	-0.688191	-0.706386
C156	C	0.384031	-0.354858	-0.373053
C157	C	-0.282657	-1.021514	-0.969031
C158	C	0.050677	-0.688181	-0.635698
C159	C	0.384010	-0.354847	-0.302364
C160	C	-0.325948	-0.978199	-0.933671
C161	C	0.007385	-0.644865	-0.600337
C162	C	0.340719	-0.311532	-0.267004
C163	C	-0.369226	-0.934896	-0.969003
C164	C	-0.035893	-0.601563	-0.635669
C165	C	0.297440	-0.268229	-0.302336
C166	C	-0.369208	-0.934911	-1.039690
C167	C	-0.035875	-0.601577	-0.706357
C168	C	0.297458	-0.268244	-0.373023
C169	C	-0.369300	-0.934837	-0.683929
C170	C	-0.035966	-0.601504	-0.350596
C171	C	0.297367	-0.268171	-0.017263
C172	C	-0.369313	-0.934825	-0.613237
C173	C	-0.035979	-0.601491	-0.279904
C174	C	0.297354	-0.268158	0.053430
C175	C	-0.282748	-1.021441	-0.613270
C176	C	0.050586	-0.688107	-0.279937
C177	C	0.383919	-0.354774	0.053396
C178	C	-0.282730	-1.021455	-0.683958
C179	C	0.050603	-0.688122	-0.350624
C180	C	0.383937	-0.354788	-0.017291
C181	C	-0.326010	-0.978155	-0.719283
C182	C	0.007323	-0.644822	-0.385950
C183	C	0.340656	-0.311489	-0.052617
C184	C	-0.325988	-0.978168	-0.795932
C185	C	0.007345	-0.644835	-0.462598
C186	C	0.340678	-0.311502	-0.129265
C187	C	-0.325967	-0.978182	-0.857024
C188	C	0.007366	-0.644849	-0.523690
C189	C	0.340700	-0.311515	-0.190357
C190	C	-0.326084	-0.978104	-0.150278
C191	C	0.007249	-0.644771	0.183055
C192	C	0.340583	-0.311437	0.516389
C193	C	-0.325909	-0.978224	-0.075046
C194	C	0.007424	-0.644891	0.258287
C195	C	0.340757	-0.311557	0.591620
H196	H	-0.247459	-0.236436	-0.247753
H197	H	0.085874	0.096898	0.085581
H198	H	0.419207	0.430231	0.418914
H199	H	-0.247456	-0.364670	-0.247742
H200	H	0.085878	-0.031336	0.085591
H201	H	0.419211	0.301997	0.418924
H202	H	-0.247448	-0.592193	-0.247740
H203	H	0.085886	-0.258860	0.085594
H204	H	0.419219	0.074473	0.418927
F205	F	-0.236683	-1.067524	-0.575669
F206	F	0.096650	-0.734190	-0.242335
F207	F	0.429983	-0.400857	0.090998
F208	F	-1.076608	-0.888809	-0.415474
F209	F	-0.743274	-0.555475	-0.082141
F210	F	-0.409941	-0.222142	0.251193
H211	H	-0.404732	-0.592199	-0.404511
H212	H	-0.071398	-0.258865	-0.071178
H213	H	0.261935	0.074468	0.262155
H214	H	-0.711974	-1.056679	-0.247677
H215	H	-0.378640	-0.723346	0.085657
H216	H	-0.045307	-0.390013	0.418990
F217	F	-0.236602	-0.729278	-0.236924
F218	F	0.096731	-0.395944	0.096409
F219	F	0.430064	-0.062611	0.429743
F220	F	-0.415587	-0.227592	-0.415332
F221	F	-0.082254	0.105741	-0.081999
F222	F	0.251079	0.439074	0.251334
H223	H	-0.404478	-0.899631	-0.940207
H224	H	-0.071144	-0.566298	-0.606873
H225	H	0.262189	-0.232964	-0.273540
F226	F	-0.574900	-1.067454	-0.236833
F227	F	-0.241567	-0.734121	0.096500
F228	F	0.091766	-0.400788	0.429833
F229	F	-0.930660	-1.067585	-0.236903
F230	F	-0.597326	-0.734252	0.096430
F231	F	-0.263993	-0.400919	0.429764
F232	F	-1.076578	-1.067638	-0.236925
F233	F	-0.743244	-0.734305	0.096408
F234	F	-0.409911	-0.400971	0.429741
F235	F	-0.930697	-0.888759	-0.415455
F236	F	-0.597363	-0.555426	-0.082122
F237	F	-0.264030	-0.222092	0.251211
F238	F	-0.720846	-0.888690	-0.415415
F239	F	-0.387512	-0.555356	-0.082081
F240	F	-0.054179	-0.222023	0.251252
F241	F	-0.574926	-0.888634	-0.415390
F242	F	-0.241593	-0.555301	-0.082057
F243	F	0.091740	-0.221967	0.251276
F244	F	-0.415267	-0.888825	-1.077287
F245	F	-0.081934	-0.555492	-0.743954
F246	F	0.251400	-0.222159	-0.410620
H247	H	-0.247379	-1.056793	-1.068505
H248	H	0.085955	-0.723459	-0.735171
H249	H	0.419288	-0.390126	-0.401838
F250	F	-0.236599	-1.067601	-0.931437
F251	F	0.096734	-0.734268	-0.598103
F252	F	0.430067	-0.400934	-0.264770
F253	F	-0.236658	-1.067562	-0.721587
F254	F	0.096675	-0.734228	-0.388253
F255	F	0.430009	-0.400895	-0.054920
F256	F	-0.415392	-0.888721	-0.575605
F257	F	-0.082059	-0.555387	-0.242272
F258	F	0.251275	-0.222054	0.091061
F259	F	-0.415578	-0.373510	-0.415324
F260	F	-0.082245	-0.040177	-0.081990
F261	F	0.251088	0.293156	0.251343
H262	H	-0.404540	-0.899579	-0.712683
H263	H	-0.071207	-0.566246	-0.379350
H264	H	0.262126	-0.232912	-0.046016
H265	H	-0.404732	-0.720432	-0.404500
H266	H	-0.071399	-0.387099	-0.071166
H267	H	0.261935	-0.053766	0.262167
