data_functionalizedCrystal
_audit_creation_method	'MofGen! by Chris Wilmer'
_symmetry_space_group_name_H-M	'P1'
_symmetry_Int_Tables_number	1
_symmetry_cell_setting	triclinic
loop_
_symmetry_equiv_pos_as_xyz
  x,y,z
_cell_length_a	12.811438
_cell_length_b	16.992695
_cell_length_c	15.455313
_cell_angle_alpha	87.152573
_cell_angle_beta	81.881682
_cell_angle_gamma	92.659304
loop_
_atom_site_label
_atom_site_type_symbol
_atom_site_fract_x
_atom_site_fract_y
_atom_site_fract_z
O1	O	1.412499	-0.096967	-0.183233
O2	O	1.912499	0.403033	0.316767
O3	O	1.106437	-0.109593	-0.159162
O4	O	1.606437	0.390407	0.340838
O5	O	1.258241	0.010862	-0.171094
O6	O	1.758241	0.510862	0.328906
O7	O	1.260695	-0.217422	-0.171301
O8	O	1.760695	0.282578	0.328699
O9	O	1.249557	0.004002	-0.026149
O10	O	1.749557	0.504002	0.473851
O11	O	1.097754	-0.116453	-0.014217
O12	O	1.597754	0.383547	0.485783
O13	O	1.403815	-0.103827	-0.038289
O14	O	1.903815	0.396173	0.461711
Cu15	Cu	1.249992	-0.110766	-0.013018
Cu16	Cu	1.749992	0.389234	0.486982
Cu17	Cu	1.260261	-0.102654	-0.184432
Cu18	Cu	1.760261	0.397346	0.315568
O19	O	1.252012	-0.224281	-0.026356
O20	O	1.752012	0.275719	0.473644
C21	C	1.062752	-0.112526	-0.083595
C22	C	1.562752	0.387474	0.416405
C23	C	0.945521	-0.111035	-0.074374
C24	C	1.445521	0.388965	0.425626
N25	N	1.242777	-0.116471	0.107544
N26	N	1.742777	0.383529	0.607544
C27	C	1.250742	0.036643	-0.098374
C28	C	1.750742	0.536643	0.401626
C29	C	1.241324	0.123683	-0.097633
C30	C	1.741324	0.623683	0.402367
C31	C	0.775556	-0.112672	0.017626
C32	C	1.275556	0.387328	0.517626
C33	C	0.885705	-0.114074	0.008966
C34	C	1.385705	0.385926	0.508966
C35	C	0.895180	-0.106595	-0.149061
C36	C	1.395180	0.393405	0.350939
C37	C	0.785031	-0.105194	-0.140402
C38	C	1.285031	0.394806	0.359598
C39	C	0.725223	-0.108231	-0.057055
C40	C	1.225223	0.391769	0.442945
C41	C	0.615073	-0.106824	-0.048397
C42	C	1.115073	0.393176	0.451603
C43	C	0.624549	-0.099351	-0.206423
C44	C	1.124549	0.400649	0.293577
C45	C	0.734698	-0.100753	-0.215083
C46	C	1.234698	0.399247	0.284917
C47	C	1.447500	-0.100894	-0.113857
C48	C	1.947500	0.399106	0.386143
C49	C	1.564732	-0.102385	-0.123083
C50	C	2.064732	0.397615	0.376917
C51	C	1.259511	-0.250062	-0.099079
C52	C	1.759511	0.249938	0.400921
C53	C	1.268930	-0.337102	-0.099825
C54	C	1.768930	0.162898	0.400175
C55	C	1.332201	0.173966	-0.104780
C56	C	1.832201	0.673966	0.395220
C57	C	1.323345	0.255749	-0.104091
C58	C	1.823345	0.755749	0.395909
C59	C	1.223611	0.287246	-0.096250
C60	C	1.723611	0.787246	0.403750
C61	C	1.132727	0.236956	-0.089106
C62	C	1.632727	0.736956	0.410894
C63	C	1.141584	0.155176	-0.089800
C64	C	1.641584	0.655176	0.410200
C65	C	1.186902	0.530827	-0.093375
C66	C	1.686902	1.030827	0.406625
C67	C	1.178052	0.612614	-0.092678
C68	C	1.678052	1.112614	0.407322
C69	C	1.368672	0.631402	-0.107666
C70	C	1.868672	1.131402	0.392334
C71	C	1.377520	0.549618	-0.108354
C72	C	1.877520	1.049618	0.391646
C73	C	1.286636	0.499336	-0.101214
C74	C	1.786636	0.999336	0.398786
N75	N	1.214557	0.370841	-0.095544
N76	N	1.714557	0.870841	0.404456
N77	N	1.295692	0.415743	-0.101927
N78	N	1.795692	0.915743	0.398073
N79	N	1.267484	-0.096942	-0.304995
N80	N	1.767484	0.403058	0.195005
C81	C	1.307294	-0.065317	0.147867
C82	C	1.807294	0.434683	0.647867
C83	C	1.301848	-0.069639	0.239103
C84	C	1.801848	0.430361	0.739103
C85	C	1.231890	-0.125120	0.290014
C86	C	1.731890	0.374880	0.790014
C87	C	1.167366	-0.176277	0.249686
C88	C	1.667366	0.323723	0.749686
C89	C	1.172807	-0.171950	0.158452
C90	C	1.672807	0.328050	0.658452
C91	C	1.208401	-0.143773	0.563442
C92	C	1.708401	0.356227	1.063442
C93	C	1.202967	-0.148097	0.654682
C94	C	1.702967	0.351903	1.154682
C95	C	1.337448	-0.041457	0.644093
C96	C	1.837448	0.458543	1.144093
C97	C	1.342888	-0.037139	0.552858
C98	C	1.842888	0.462861	1.052858
C99	C	1.278360	-0.088293	0.512537
C100	C	1.778360	0.411707	1.012537
N101	N	1.226324	-0.129540	0.383272
N102	N	1.726324	0.370460	0.883272
N103	N	1.283921	-0.083868	0.419281
N104	N	1.783921	0.416132	0.919281
H105	H	0.566378	-0.109302	0.019468
H106	H	1.066378	0.390698	0.519468
H107	H	1.364266	-0.020142	0.106420
H108	H	1.864266	0.479858	0.606420
H109	H	0.726859	-0.115150	0.085489
H110	H	1.226859	0.384850	0.585489
Cl111	Cl	1.079411	-0.246022	0.313687
Cl112	Cl	1.579411	0.253978	0.813687
Cl113	Cl	1.052662	0.652209	-0.082815
Cl114	Cl	1.552662	1.152209	0.417185
H115	H	1.399853	0.008038	0.511407
H116	H	1.899853	0.508038	1.011407
Cl117	Cl	0.561265	-0.093794	-0.300314
Cl118	Cl	1.061265	0.406206	0.199686
Cl119	Cl	1.418560	0.022850	0.694786
Cl120	Cl	1.918560	0.522850	1.194786
H121	H	1.413415	0.148328	-0.111159
H122	H	1.913415	0.648328	0.388841
Cl123	Cl	1.482918	0.694618	-0.116644
Cl124	Cl	1.982918	1.194618	0.383356
H125	H	0.943895	-0.104130	-0.216917
H126	H	1.443895	0.395870	0.283083
H127	H	0.783409	-0.098283	-0.282941
H128	H	1.283409	0.401717	0.217059
Cl129	Cl	1.437598	0.318960	-0.113073
Cl130	Cl	1.937598	0.818960	0.386927
H131	H	1.458734	0.523980	-0.114739
H132	H	1.958734	1.023980	0.385261
Cl133	Cl	1.115012	-0.217852	0.718679
Cl134	Cl	1.615012	0.282148	1.218679
H135	H	1.155862	-0.185426	0.530620
H136	H	1.655862	0.314574	1.030620
Cl137	Cl	0.948977	-0.119660	0.102855
Cl138	Cl	1.448977	0.380340	0.602855
H139	H	1.112898	0.489896	-0.087561
H140	H	1.612898	0.989896	0.412439
Cl141	Cl	1.007346	0.276554	-0.079259
Cl142	Cl	1.507346	0.776554	0.420741
H143	H	1.067581	0.114235	-0.083981
H144	H	1.567581	0.614235	0.416019
H145	H	1.120269	-0.213605	0.125622
H146	H	1.620269	0.286395	0.625622
H147	H	1.354382	-0.027984	0.271933
H148	H	1.854382	0.472016	0.771933
