data_functionalizedCrystal
_audit_creation_method	'MofGen! by Chris Wilmer'
_symmetry_space_group_name_H-M	'P1'
_symmetry_Int_Tables_number	1
_symmetry_cell_setting	triclinic
loop_
_symmetry_equiv_pos_as_xyz
  x,y,z
_cell_length_a	16.992694
_cell_length_b	15.995292
_cell_length_c	16.053802
_cell_angle_alpha	92.568169
_cell_angle_beta	87.249047
_cell_angle_gamma	87.068419
loop_
_atom_site_label
_atom_site_type_symbol
_atom_site_fract_x
_atom_site_fract_y
_atom_site_fract_z
O1	O	1.043660	0.174247	-0.069315
O2	O	1.543660	0.674247	0.430685
O3	O	0.815376	0.172298	-0.069340
O4	O	1.315376	0.672298	0.430660
O5	O	0.935782	0.051800	-0.069328
O6	O	1.435782	0.551800	0.430672
O7	O	0.923254	0.294744	-0.069327
O8	O	1.423254	0.794744	0.430673
O9	O	0.929154	0.058404	0.069530
O10	O	1.429154	0.558404	0.569530
O11	O	0.808749	0.178901	0.069519
O12	O	1.308749	0.678901	0.569519
O13	O	1.037032	0.180850	0.069543
O14	O	1.537032	0.680850	0.569543
Zn15	Zn	0.921838	0.180924	0.091578
Zn16	Zn	1.421838	0.680924	0.591578
Zn17	Zn	0.930570	0.172224	-0.091374
Zn18	Zn	1.430570	0.672224	0.408626
O19	O	0.916626	0.301347	0.069532
O20	O	1.416626	0.801347	0.569532
C21	C	0.782850	0.173093	0.000086
C22	C	1.282850	0.673093	0.500086
C23	C	0.695808	0.165617	0.000077
C24	C	1.195808	0.665617	0.500077
C25	C	0.645554	0.237753	0.000078
C26	C	1.145554	0.737753	0.500078
C27	C	0.563768	0.230724	0.000089
C28	C	1.063768	0.730724	0.500089
C29	C	0.532238	0.151557	0.000094
C30	C	1.032238	0.651557	0.500094
C31	C	0.582499	0.079415	0.000095
C32	C	1.082499	0.579415	0.500095
C33	C	0.664283	0.086446	0.000090
C34	C	1.164283	0.586446	0.500090
C35	C	0.288645	0.122419	0.000116
C36	C	0.788645	0.622419	0.500116
C37	C	0.206855	0.115394	0.000119
C38	C	0.706855	0.615394	0.500119
C39	C	0.188129	0.266703	0.000114
C40	C	0.688129	0.766703	0.500114
C41	C	0.269916	0.273726	0.000104
C42	C	0.769916	0.773726	0.500104
C43	C	0.320169	0.201585	0.000110
C44	C	0.820169	0.701585	0.500110
N45	N	0.448641	0.144370	0.000103
N46	N	0.948641	0.644370	0.500103
N47	N	0.403765	0.208773	0.000107
N48	N	0.903765	0.708773	0.500107
C49	C	0.931958	0.023872	0.000099
C50	C	1.431958	0.523872	0.500099
C51	C	0.930430	-0.069183	0.000093
C52	C	1.430430	0.430817	0.500093
C53	C	0.924810	-0.407298	0.000100
C54	C	1.424810	0.092702	0.500100
C55	C	1.011701	-0.378155	0.000419
C56	C	1.511701	0.121845	0.500419
C57	C	1.013368	-0.281384	0.000104
C58	C	1.513368	0.218616	0.500104
C59	C	0.927599	-0.239555	0.000097
C60	C	1.427599	0.260445	0.500097
C61	C	0.887934	-0.275335	-0.079200
C62	C	1.387934	0.224665	0.420800
C63	C	0.886891	-0.372198	-0.079264
C64	C	1.386891	0.127802	0.420736
C65	C	0.877580	-0.364665	0.078644
C66	C	1.377580	0.135335	0.578644
C67	C	0.880751	-0.267907	0.079689
C68	C	1.380751	0.232093	0.579689
C69	C	0.929170	-0.144754	0.000092
C70	C	1.429170	0.355246	0.500092
C71	C	0.923236	-0.502099	0.000099
C72	C	1.423236	-0.002099	0.500099
C73	C	1.069558	0.180054	0.000116
C74	C	1.569558	0.680054	0.500116
C75	C	1.156601	0.187531	0.000120
C76	C	1.656601	0.687531	0.500120
C77	C	0.920450	0.329275	0.000103
C78	C	1.420450	0.829275	0.500103
C79	C	0.921979	0.422331	0.000104
C80	C	1.421979	0.922331	0.500104
N81	N	0.915885	0.186861	0.216438
N82	N	1.415885	0.686861	0.716438
N83	N	0.936530	0.166280	-0.216234
N84	N	1.436530	0.666280	0.283766
C85	C	0.967136	0.135610	0.260136
C86	C	1.467136	0.635610	0.760136
C87	C	0.962979	0.139772	0.347543
C88	C	1.462979	0.639772	0.847543
C89	C	0.907573	0.195190	0.391249
C90	C	1.407573	0.695190	0.891249
C91	C	0.856316	0.246443	0.347544
C92	C	1.356316	0.746443	0.847544
C93	C	0.860470	0.242276	0.260139
C94	C	1.360470	0.742276	0.760139
C95	C	0.889427	0.213366	0.652657
C96	C	1.389427	0.713366	1.152657
C97	C	0.885278	0.217531	0.740067
C98	C	1.385278	0.717531	1.240067
C99	C	0.991941	0.110859	0.740061
C100	C	1.491941	0.610859	1.240061
C101	C	0.996093	0.106700	0.652654
C102	C	1.496093	0.606700	1.152654
C103	C	0.944833	0.157950	0.608957
C104	C	1.444833	0.657950	1.108957
N105	N	0.903324	0.199447	0.480592
N106	N	1.403324	0.699447	0.980592
N107	N	0.949079	0.153688	0.519615
N108	N	1.449079	0.653688	1.019615
H109	H	0.295581	0.338192	0.000091
H110	H	0.795581	0.838192	0.500091
C111	C	0.801050	-0.397856	-0.084142
C112	C	1.301050	0.102144	0.415858
H113	H	0.799831	-0.457173	-0.084208
H114	H	1.299831	0.042827	0.415792
H115	H	0.779926	-0.378544	-0.133964
H116	H	1.279926	0.121456	0.366036
H117	H	0.770437	-0.373686	-0.037250
H118	H	1.270437	0.126314	0.462750
H119	H	0.705200	0.027704	0.000088
H120	H	1.205200	0.527704	0.500088
C121	C	0.132849	0.346052	0.000119
C122	C	0.632849	0.846052	0.500119
H123	H	0.079625	0.330530	0.000130
H124	H	0.579625	0.830530	0.500130
H125	H	0.144707	0.375989	-0.048303
H126	H	0.644707	0.875989	0.451697
H127	H	0.140103	0.380587	0.048549
H128	H	0.640103	0.880587	0.548549
H129	H	0.847691	0.255098	0.617085
H130	H	1.347691	0.755098	1.117085
H131	H	0.522853	0.289465	0.000089
H132	H	1.022853	0.789465	0.500089
H133	H	1.044683	-0.257378	0.056946
H134	H	1.544683	0.242622	0.556946
C135	C	1.060351	-0.417958	-0.075967
C136	C	1.560351	0.082042	0.424033
H137	H	1.112769	-0.400026	-0.075293
H138	H	1.612769	0.099974	0.424707
H139	H	1.037112	-0.401135	-0.125622
H140	H	1.537112	0.098865	0.374378
H141	H	1.061195	-0.477275	-0.074102
H142	H	1.561195	0.022725	0.425898
H143	H	1.042484	-0.401206	0.057287
H144	H	1.542484	0.098794	0.557287
C145	C	0.919680	-0.236171	0.158944
C146	C	1.419680	0.263829	0.658944
H147	H	0.891069	-0.253517	0.206879
H148	H	1.391069	0.246483	0.706879
H149	H	0.919452	-0.176723	0.160388
H150	H	1.419452	0.323277	0.660388
H151	H	0.972533	-0.258698	0.158464
H152	H	1.472533	0.241302	0.658464
H153	H	1.033673	0.069132	0.775647
H154	H	1.533673	0.569132	1.275647
C155	C	1.063269	-0.257077	-0.076815
C156	C	1.563269	0.242923	0.423185
H157	H	1.082594	-0.306376	-0.107996
H158	H	1.582594	0.193624	0.392004
H159	H	1.106425	-0.226464	-0.059135
H160	H	1.606425	0.273536	0.440865
H161	H	1.031565	-0.223407	-0.110782
H162	H	1.531565	0.276593	0.389218
C163	C	0.795372	0.307403	0.395618
C164	C	1.295372	0.807403	0.895618
H165	H	0.800243	0.302551	0.453932
H166	H	1.300243	0.802551	0.953932
H167	H	0.743727	0.294095	0.381304
H168	H	1.243727	0.794095	0.881304
H169	H	0.804561	0.363180	0.381283
H170	H	1.304561	0.863180	0.881283
C171	C	0.932496	-0.249309	-0.158918
C172	C	1.432496	0.250691	0.341082
H173	H	0.908043	-0.271260	-0.206573
H174	H	1.408043	0.228740	0.293427
H175	H	0.985726	-0.270700	-0.159626
H176	H	1.485726	0.229300	0.340374
H177	H	0.931198	-0.189906	-0.159741
H178	H	1.431198	0.310094	0.340259
C179	C	1.019353	0.083396	0.395612
C180	C	1.519353	0.583396	0.895612
H181	H	1.008939	0.093805	0.453927
H182	H	1.508939	0.593805	0.953927
H183	H	1.072359	0.095341	0.381283
H184	H	1.572359	0.595341	0.881283
H185	H	1.011528	0.026254	0.381291
H186	H	1.511528	0.526254	0.881291
C187	C	0.910481	-0.396511	0.159839
C188	C	1.410481	0.103489	0.659839
H189	H	0.953335	-0.436109	0.146593
H190	H	1.453335	0.063891	0.646593
H191	H	0.870174	-0.422400	0.190798
H192	H	1.370174	0.077600	0.690798
H193	H	0.928252	-0.350668	0.192210
H194	H	1.428252	0.149332	0.692210
H195	H	0.556821	0.014957	0.000111
H196	H	1.056821	0.514957	0.500111
H197	H	0.919811	-0.399820	-0.138535
H198	H	1.419811	0.100180	0.361465
C199	C	1.057035	0.045736	0.604584
C200	C	1.557035	0.545736	1.104584
H201	H	1.086959	0.015802	0.643128
H202	H	1.586959	0.515802	1.143128
H203	H	1.091285	0.076433	0.570477
H204	H	1.591285	0.576433	1.070477
H205	H	1.030452	0.007348	0.570497
H206	H	1.530452	0.507348	1.070497
H207	H	0.840158	0.262662	0.775649
H208	H	1.340158	0.762662	1.275649
H209	H	0.818735	0.284009	0.224560
H210	H	1.318735	0.784009	0.724560
C211	C	0.795868	-0.228730	0.086157
C212	C	1.295868	0.271270	0.586157
H213	H	0.768976	-0.246929	0.134779
H214	H	1.268976	0.253071	0.634779
H215	H	0.769006	-0.245707	0.038205
H216	H	1.269006	0.254293	0.538205
H217	H	0.797254	-0.169380	0.089487
H218	H	1.297254	0.330620	0.589487
H219	H	0.181188	0.050924	0.000122
H220	H	0.681188	0.550924	0.500122
C221	C	0.680229	0.324837	0.000072
C222	C	1.180229	0.824837	0.500072
H223	H	0.638582	0.366791	0.000082
H224	H	1.138582	0.866791	0.500082
H225	H	0.714047	0.328424	-0.048352
H226	H	1.214047	0.828424	0.451648
H227	H	0.709438	0.333027	0.048500
H228	H	1.209438	0.833027	0.548500
H229	H	0.813585	-0.382911	0.079173
H230	H	1.313585	0.117089	0.579173
H231	H	0.824960	-0.247831	-0.082153
H232	H	1.324960	0.252169	0.417847
H233	H	0.329552	0.063676	0.000121
H234	H	0.829552	0.563676	0.500121
H235	H	1.012257	0.090487	0.224557
H236	H	1.512257	0.590487	0.724557
