data_functionalizedCrystal
_audit_creation_method	'MofGen! by Chris Wilmer'
_symmetry_space_group_name_H-M	'P1'
_symmetry_Int_Tables_number	1
_symmetry_cell_setting	triclinic
loop_
_symmetry_equiv_pos_as_xyz
  x,y,z
_cell_length_a	16.992694
_cell_length_b	23.532407
_cell_length_c	16.053802
_cell_angle_alpha	92.544672
_cell_angle_beta	87.249047
_cell_angle_gamma	86.758451
loop_
_atom_site_label
_atom_site_type_symbol
_atom_site_fract_x
_atom_site_fract_y
_atom_site_fract_z
O1	O	1.042772	0.118472	-0.069339
O2	O	0.814498	0.117146	-0.069363
O3	O	0.935518	0.035219	-0.069335
O4	O	0.921752	0.200399	-0.069367
O5	O	0.928857	0.039709	0.069523
O6	O	0.807837	0.121636	0.069494
O7	O	1.036111	0.122961	0.069519
Zn8	Zn	0.920917	0.123011	0.091553
Zn9	Zn	0.929693	0.117096	-0.091397
O10	O	0.915091	0.204888	0.069490
C11	C	0.781969	0.117687	0.000063
C12	C	0.694964	0.112604	0.000054
C13	C	0.644342	0.161650	0.000045
C14	C	0.562592	0.156871	0.000058
C15	C	0.531466	0.103045	0.000073
C16	C	0.582095	0.053995	0.000084
C17	C	0.663843	0.058775	0.000078
C18	C	0.288022	0.083234	0.000099
C19	C	0.206267	0.078457	0.000103
C20	C	0.186770	0.181334	0.000078
C21	C	0.268521	0.186109	0.000066
C22	C	0.319142	0.137059	0.000082
N23	N	0.447905	0.098158	0.000083
N24	N	0.402702	0.141946	0.000078
C25	C	0.931837	0.016231	0.000096
C26	C	0.930783	-0.047038	0.000102
C27	C	0.995791	-0.442917	0.000063
C28	C	0.994812	-0.502366	0.000057
O29	O	1.055075	-0.536121	0.000033
N30	N	0.922865	-0.528562	0.000050
C31	C	0.851893	-0.495307	0.000041
O32	O	0.790607	-0.523048	0.000033
C33	C	0.852873	-0.435859	0.000041
C34	C	0.924824	-0.409666	0.000057
C35	C	1.067736	-0.416723	0.000078
C36	C	1.068715	-0.357278	0.000086
C37	C	0.997748	-0.324027	0.000079
C38	C	0.925803	-0.350221	0.000065
C39	C	0.781902	-0.402605	0.000026
C40	C	0.782889	-0.343154	0.000026
C41	C	0.854840	-0.316960	0.000042
C42	C	0.855814	-0.257525	0.000066
N43	N	0.927761	-0.231328	0.000073
C44	C	0.998728	-0.264579	0.000080
C45	C	0.849841	-0.620151	0.000038
C46	C	0.848860	-0.679598	0.000044
C47	C	0.991779	-0.686653	0.000058
C48	C	0.992759	-0.627205	0.000059
C49	C	0.921788	-0.593955	0.000045
C50	C	1.000777	-0.139740	0.000097
C51	C	1.001749	-0.080289	0.000109
C52	C	0.858831	-0.073240	0.000090
C53	C	0.857858	-0.132685	0.000083
C54	C	0.928838	-0.165934	0.000084
O55	O	0.795583	-0.223734	0.000087
O56	O	1.060004	-0.236831	0.000076
C57	C	1.068641	0.122420	0.000091
C58	C	1.155645	0.127503	0.000094
C59	C	0.918773	0.223877	0.000058
C60	C	0.919827	0.287146	0.000046
N61	N	0.914933	0.127048	0.216412
N62	N	0.935683	0.113055	-0.216256
C63	C	0.966445	0.092202	0.260118
C64	C	0.962267	0.095032	0.347524
C65	C	0.906579	0.132711	0.391222
C66	C	0.855061	0.167558	0.347510
C67	C	0.859236	0.164725	0.260106
C68	C	0.888340	0.145069	0.652627
C69	C	0.884170	0.147901	0.740038
C70	C	0.991376	0.075374	0.740045
C71	C	0.995550	0.072546	0.652640
C72	C	0.944029	0.107392	0.608935
N73	N	0.902308	0.135606	0.480565
N74	N	0.948296	0.104494	0.519594
H75	H	0.521379	0.196809	0.000049
C76	C	0.781750	-0.037156	0.000248
C77	C	0.734970	-0.047169	0.071685
C78	C	0.663963	-0.013933	0.071857
H79	H	0.754461	-0.046978	-0.048126
H80	H	0.792608	0.002008	0.000295
H81	H	0.724111	-0.086324	0.071631
H82	H	0.762234	-0.037344	0.120071
H83	H	0.674820	0.025231	0.071904
H84	H	0.636681	-0.023757	0.023480
H85	H	0.632216	-0.020718	0.120330
H86	H	0.145546	0.221267	0.000067
H87	H	0.792043	-0.593082	0.000034
H88	H	0.180928	0.034624	0.000115
C89	C	0.779806	-0.161209	-0.000057
C90	C	0.778506	-0.197439	-0.071494
C91	C	0.706622	-0.223727	-0.071654
H92	H	0.737614	-0.132955	-0.000099
H93	H	0.774124	-0.182731	0.048334
H94	H	0.784179	-0.175918	-0.119873
H95	H	0.820681	-0.225704	-0.071467
H96	H	0.700940	-0.245249	-0.023263
H97	H	0.664436	-0.195468	-0.071694
H98	H	0.705733	-0.248315	-0.120119
H99	H	1.011796	0.061523	0.224545
H100	H	1.004212	0.066657	0.383109
H101	H	0.846391	0.173443	0.617050
C102	C	0.342847	0.029912	0.000070
C103	C	0.298089	-0.018248	0.000060
C104	C	0.348571	-0.067380	0.000023
H105	H	0.372843	0.031123	0.048479
H106	H	0.377450	0.028037	-0.048372
H107	H	0.263499	-0.016373	0.048498
H108	H	0.268094	-0.019477	-0.048346
H109	H	0.383174	-0.069255	-0.048419
H110	H	0.378564	-0.066164	0.048433
H111	H	0.318210	-0.100062	0.000009
C112	C	0.770725	-0.708006	-0.000136
C113	C	0.731291	-0.693724	-0.071590
C114	C	0.659314	-0.719887	-0.071795
H115	H	0.739111	-0.695274	0.048227
H116	H	0.780266	-0.748180	-0.000185
H117	H	0.721747	-0.653559	-0.071533
H118	H	0.762882	-0.706457	-0.119964
H119	H	0.668855	-0.760060	-0.071843
H120	H	0.627707	-0.707152	-0.023428
H121	H	0.632553	-0.710204	-0.120278
H122	H	0.556745	0.010169	0.000109
H123	H	0.705059	0.018836	0.000085
H124	H	1.060343	-0.058966	0.000124
C125	C	1.077775	-0.175899	0.000234
C126	C	1.077956	-0.207943	0.071659
C127	C	1.148867	-0.241264	0.071813
H128	H	1.120820	-0.151845	0.000288
H129	H	1.082700	-0.200828	-0.048166
H130	H	1.073039	-0.183017	0.120046
H131	H	1.034926	-0.232008	0.071621
H132	H	1.153792	-0.266194	0.023414
H133	H	1.191907	-0.217206	0.071865
H134	H	1.148996	-0.263014	0.120271
H135	H	1.040895	0.041865	0.617062
C136	C	1.146918	-0.328953	0.000052
C137	C	1.208850	-0.370807	0.000033
C138	C	1.280906	-0.344740	-0.000012
H139	H	1.148069	-0.304352	0.048462
H140	H	1.152640	-0.307486	-0.048389
H141	H	1.203129	-0.392265	0.048470
H142	H	1.207725	-0.395410	-0.048373
H143	H	1.286628	-0.323273	-0.048453
H144	H	1.282049	-0.320140	0.048399
H145	H	1.322936	-0.373134	-0.000032
C146	C	0.794679	0.208451	0.395102
C147	C	0.802062	0.203487	0.481002
C148	C	0.746459	0.241157	0.524867
H149	H	0.743062	0.199441	0.380890
H150	H	0.803582	0.246387	0.380808
H151	H	0.793153	0.165560	0.495290
H152	H	0.853667	0.212503	0.495239
H153	H	0.755363	0.279092	0.510574
H154	H	0.694846	0.232143	0.510649
H155	H	0.751466	0.237797	0.583155
C156	C	1.144778	-0.452851	-0.000085
C157	C	1.151845	-0.489481	-0.071532
C158	C	1.222816	-0.522761	-0.071709
H159	H	1.145128	-0.474678	0.048283
H160	H	1.187784	-0.428749	-0.000122
H161	H	1.108851	-0.513582	-0.071487
H162	H	1.151510	-0.467670	-0.119911
H163	H	1.265821	-0.498658	-0.071747
H164	H	1.223158	-0.544584	-0.023339
H165	H	1.227623	-0.547614	-0.120189
C166	C	0.302158	0.244602	0.000097
C167	C	0.240326	0.286534	0.000115
C168	C	0.271281	0.340425	0.000152
H169	H	0.335946	0.247120	-0.048315
H170	H	0.331304	0.250200	0.048537
H171	H	0.211193	0.280937	-0.048320
H172	H	0.206533	0.284034	0.048523
H173	H	0.300427	0.346023	0.048591
H174	H	0.305069	0.342937	-0.048261
H175	H	0.229333	0.368882	0.000171
C176	C	0.703704	-0.430928	-0.000038
C177	C	0.641776	-0.389074	-0.000071
C178	C	0.569724	-0.415143	-0.000143
H179	H	0.697903	-0.452409	0.048368
H180	H	0.702631	-0.455517	-0.048484
H181	H	0.642846	-0.364496	0.048370
H182	H	0.647550	-0.367590	-0.048473
H183	H	0.568652	-0.439731	-0.048589
H184	H	0.563932	-0.436623	0.048264
H185	H	0.527698	-0.386749	-0.000173
C186	C	1.070846	-0.598733	0.000239
C187	C	1.072174	-0.562517	0.071687
C188	C	1.144102	-0.536289	0.071884
H189	H	1.076601	-0.577208	-0.048128
H190	H	1.112988	-0.627038	0.000289
H191	H	1.030044	-0.534216	0.071629
H192	H	1.066433	-0.584028	0.120065
H193	H	1.186244	-0.564593	0.071934
H194	H	1.149850	-0.514767	0.023513
H195	H	1.145015	-0.511717	0.120363
H196	H	0.725094	-0.316084	0.000014
H197	H	1.049564	-0.713737	0.000061
H198	H	1.033321	0.047004	0.775638
H199	H	0.817288	0.193100	0.224521
C200	C	0.823615	0.188821	0.787333
C201	C	0.779370	0.218718	0.730352
C202	C	0.723575	0.256409	0.773890
H203	H	0.849895	0.214973	0.821421
H204	H	0.789486	0.167952	0.821422
H205	H	0.813494	0.239586	0.696277
H206	H	0.753073	0.192581	0.696261
H207	H	0.689446	0.235540	0.807979
H208	H	0.749862	0.282557	0.807977
H209	H	0.693544	0.276694	0.735235
H210	H	0.669678	0.205481	0.000032
