data_functionalizedCrystal
_audit_creation_method	'MofGen! by Chris Wilmer'
_symmetry_space_group_name_H-M	'P1'
_symmetry_Int_Tables_number	1
_symmetry_cell_setting	triclinic
loop_
_symmetry_equiv_pos_as_xyz
  x,y,z
_cell_length_a	11.792241
_cell_length_b	11.792254
_cell_length_c	13.930277
_cell_angle_alpha	89.992836
_cell_angle_beta	89.995317
_cell_angle_gamma	84.196007
loop_
_atom_site_label
_atom_site_type_symbol
_atom_site_fract_x
_atom_site_fract_y
_atom_site_fract_z
O1	O	0.155636	1.506905	-0.079830
O2	O	0.171653	1.176566	-0.079833
O3	O	-0.001526	1.349752	-0.079825
O4	O	0.328815	1.333719	-0.079838
O5	O	-0.001530	1.349727	0.079837
O6	O	0.171650	1.176541	0.079829
O7	O	0.155632	1.506881	0.079831
Zn8	Zn	0.163640	1.341707	0.105180
Zn9	Zn	0.163645	1.341739	-0.105181
O10	O	0.328811	1.333695	0.079824
C11	C	0.170642	1.134263	-0.000002
C12	C	0.167622	1.008250	-0.000003
C13	C	-0.043819	1.348732	0.000006
C14	C	-0.169832	1.345718	0.000005
C15	C	0.165168	0.905913	-0.000007
C16	C	0.162100	0.777527	-0.000007
C17	C	-0.400545	1.340175	-0.000011
C18	C	-0.272160	1.343255	-0.000002
C19	C	0.371104	1.334714	-0.000009
C20	C	0.497118	1.337728	-0.000015
C21	C	0.156643	1.549183	-0.000001
C22	C	0.159663	1.675196	-0.000007
N23	N	0.163636	1.341694	0.248746
N24	N	0.163640	1.341761	-0.248747
C25	C	0.240298	1.265049	0.701012
C26	C	0.086983	1.418460	0.700988
C27	C	0.086979	1.418447	0.600493
C28	C	0.163638	1.341734	0.550252
C29	C	0.240299	1.265036	0.600507
C30	C	0.010327	1.495152	0.550230
C31	C	0.010321	1.495142	0.449728
C32	C	0.086974	1.418423	0.399486
C33	C	0.163639	1.341721	0.449747
C34	C	0.240297	1.265008	0.399506
C35	C	0.316956	1.188299	0.449766
C36	C	0.316953	1.188317	0.550264
C37	C	0.086978	1.418406	0.298987
C38	C	0.240298	1.264995	0.299001
H39	H	0.302719	1.202522	0.258101
O40	O	0.391262	1.113767	0.599195
C41	C	0.330000	1.043374	0.657334
H42	H	0.241487	1.088037	0.672380
H43	H	0.321724	0.959434	0.618629
C44	C	0.502537	0.964681	0.734323
C45	C	0.393827	1.019541	0.752810
H46	H	0.541910	0.949975	0.793216
H47	H	0.543812	1.012103	0.695151
H48	H	0.495625	0.894738	0.702066
H49	H	0.400740	1.089489	0.785055
H50	H	0.352555	0.972130	0.791990
O51	O	0.391470	1.113940	0.400852
C52	C	0.461925	1.175150	0.342726
H53	H	0.417323	1.263687	0.327668
H54	H	0.545866	1.183369	0.381450
C55	C	0.540526	1.002572	0.265758
C56	C	0.485740	1.111310	0.247257
H57	H	0.555221	0.963191	0.206870
H58	H	0.493063	0.961332	0.304921
H59	H	0.610471	1.009435	0.298030
H60	H	0.415791	1.104445	0.214997
H61	H	0.533192	1.152548	0.208087
H62	H	0.024575	1.480923	0.741897
H63	H	-0.052081	1.557614	0.591139
H64	H	0.024568	1.480866	0.258070
H65	H	0.302711	1.202590	0.741936
H66	H	-0.052100	1.557601	0.408813
