data_functionalizedCrystal
_audit_creation_method	'MofGen! by Chris Wilmer'
_symmetry_space_group_name_H-M	'P1'
_symmetry_Int_Tables_number	1
_symmetry_cell_setting	triclinic
loop_
_symmetry_equiv_pos_as_xyz
  x,y,z
_cell_length_a	21.295420
_cell_length_b	21.295417
_cell_length_c	12.759393
_cell_angle_alpha	90.037048
_cell_angle_beta	90.022797
_cell_angle_gamma	90.025484
loop_
_atom_site_label
_atom_site_type_symbol
_atom_site_fract_x
_atom_site_fract_y
_atom_site_fract_z
Zn1	Zn	0.962348	-0.250650	0.594024
Zn2	Zn	0.962255	-0.355932	0.418324
Zn3	Zn	0.857074	-0.250673	0.418354
Zn4	Zn	0.857042	-0.355877	0.593956
O5	O	0.909680	-0.303283	0.506165
O6	O	1.050425	-0.264629	0.570734
O7	O	0.948277	-0.342001	0.271307
O8	O	0.871091	-0.162580	0.441698
O9	O	1.050357	-0.341979	0.441648
O10	O	0.948435	-0.162563	0.570762
O11	O	0.871001	-0.264668	0.271329
O12	O	0.768981	-0.264615	0.441631
O13	O	0.871036	-0.341886	0.740986
O14	O	0.768957	-0.341908	0.570645
O15	O	0.948404	-0.264576	0.741036
O16	O	0.948246	-0.444014	0.441581
O17	O	0.870946	-0.443974	0.570617
C18	C	0.746128	-0.303259	0.506135
C19	C	0.676160	-0.303263	0.506147
C20	C	0.176737	-0.263101	0.573505
C21	C	0.242479	-0.263097	0.573504
C22	C	0.275321	-0.303302	0.506189
C23	C	0.242414	-0.343526	0.438888
C24	C	0.176672	-0.343534	0.438897
N25	N	0.378512	-0.308053	0.414194
N26	N	0.440964	-0.308042	0.414188
C27	C	0.473395	-0.303281	0.506158
N28	N	0.441016	-0.298520	0.598136
N29	N	0.378559	-0.298528	0.598141
C30	C	0.346606	-0.303298	0.506172
C31	C	0.577580	-0.263057	0.573460
C32	C	0.643323	-0.263057	0.573462
C33	C	0.643256	-0.343483	0.438836
C34	C	0.577514	-0.343487	0.438843
C35	C	0.544680	-0.303271	0.506154
C36	C	0.909599	-0.466834	0.506111
C37	C	0.909623	-0.536802	0.506124
C38	C	0.949873	-0.569603	0.573376
C39	C	0.949895	-0.635346	0.573401
C40	C	0.909674	-0.668285	0.506157
C41	C	0.869416	-0.635476	0.438900
C42	C	0.869390	-0.569735	0.438884
N43	N	0.904916	-0.771553	0.414210
N44	N	0.904944	-0.834004	0.414229
C45	C	0.909747	-0.866360	0.506204
N46	N	0.914534	-0.833904	0.598162
N47	N	0.914509	-0.771447	0.598143
C48	C	0.909697	-0.739570	0.506168
C49	C	0.950023	-0.970446	0.573490
C50	C	0.950041	-1.036190	0.573518
C51	C	0.869566	-1.036319	0.439007
C52	C	0.869545	-0.970577	0.438989
C53	C	0.909777	-0.937644	0.506229
C54	C	1.073870	-0.303307	0.506195
C55	C	1.143838	-0.303318	0.506208
C56	C	0.909727	-0.303222	0.780198
C57	C	0.909747	-0.303197	0.896975
C58	C	0.909777	-0.139092	0.506241
C59	C	0.909819	-0.069124	0.506273
C60	C	0.909669	-0.303297	0.233197
C61	C	0.909771	-0.303146	0.116421
C62	C	0.950035	-0.262935	0.951865
C63	C	0.950046	-0.262908	1.061589
C64	C	0.869478	-0.343410	1.061524
C65	C	0.869465	-0.343433	0.951801
H66	H	0.550727	-0.376233	0.384039
O67	O	0.989122	-0.223816	1.115071
C68	C	0.980506	-0.232428	1.223672
H69	H	0.931916	-0.253035	1.238631
H70	H	0.984807	-0.185266	1.265390
H71	H	1.017829	-0.265947	1.254813
O72	O	0.830272	-0.537967	0.373449
C73	C	0.794761	-0.581133	0.314123
H74	H	0.820561	-0.627978	0.310537
H75	H	0.788064	-0.562184	0.231330
H76	H	0.746943	-0.588143	0.352528
H77	H	0.149887	-0.376285	0.384095
O78	O	0.989224	-0.223935	0.898556
C79	C	1.029844	-0.259789	0.835062
H80	H	1.033711	-0.309361	0.868103
H81	H	1.078300	-0.237025	0.833842
H82	H	1.010368	-0.261973	0.751899
H83	H	0.836653	-0.376219	0.907109
H84	H	0.836683	-0.376170	1.106177
H85	H	0.836813	-1.063137	0.384262
H86	H	0.150007	-0.230357	0.628319
H87	H	0.269271	-0.230345	0.628304
O88	O	0.988959	-0.667153	0.638882
C89	C	0.975152	-0.651065	0.743571
H90	H	0.950943	-0.603348	0.745705
H91	H	1.020566	-0.648767	0.790755
H92	H	0.942783	-0.688072	0.778908
H93	H	0.982781	-0.943631	0.628244
O94	O	0.988861	-0.537546	0.638751
C95	C	0.952986	-0.499531	0.706567
H96	H	0.905289	-0.489736	0.669438
H97	H	0.978606	-0.453275	0.720682
H98	H	0.946054	-0.524840	0.784417
O99	O	0.989203	-1.067957	0.638881
C100	C	1.024696	-1.024789	0.698235
H101	H	1.026867	-0.977945	0.655192
H102	H	1.074298	-1.043738	0.709511
H103	H	1.001624	-1.017777	0.777997
O104	O	0.274285	-0.382671	0.373609
C105	C	0.258197	-0.445427	0.396372
H106	H	0.240148	-0.448664	0.480298
H107	H	0.301419	-0.476514	0.387225
H108	H	0.220016	-0.461851	0.340003
O109	O	0.545707	-0.224068	0.639002
C110	C	0.561806	-0.237889	0.743669
H111	H	0.579863	-0.288179	0.748817
H112	H	0.518587	-0.232509	0.795594
H113	H	0.599984	-0.204155	0.771234
O114	O	0.675311	-0.224079	0.638952
C115	C	0.713354	-0.259957	0.706689
H116	H	0.693527	-0.309541	0.713039
H117	H	0.714129	-0.237240	0.787607
H118	H	0.763169	-0.262100	0.674197
H119	H	0.836772	-0.943868	0.384221
H120	H	0.836666	-0.662300	0.384152
O121	O	0.675248	-0.382482	0.373481
C122	C	0.740328	-0.373866	0.387925
H123	H	0.749334	-0.325308	0.422474
H124	H	0.765291	-0.378083	0.309215
H125	H	0.758985	-0.411240	0.443764
