data_functionalizedCrystal
_audit_creation_method	'MofGen! by Chris Wilmer'
_symmetry_space_group_name_H-M	'P1'
_symmetry_Int_Tables_number	1
_symmetry_cell_setting	triclinic
loop_
_symmetry_equiv_pos_as_xyz
  x,y,z
_cell_length_a	11.792241
_cell_length_b	10.654550
_cell_length_c	9.730223
_cell_angle_alpha	90.000043
_cell_angle_beta	89.995449
_cell_angle_gamma	95.660827
loop_
_atom_site_label
_atom_site_type_symbol
_atom_site_fract_x
_atom_site_fract_y
_atom_site_fract_z
O1	O	0.159420	-1.667388	-0.114188
O2	O	0.174608	-1.301867	-0.114213
O3	O	0.001864	-1.493498	-0.114190
O4	O	0.332164	-1.475757	-0.114211
O5	O	0.001859	-1.493485	0.114390
O6	O	0.174603	-1.301854	0.114367
O7	O	0.159415	-1.667376	0.114392
Zn8	Zn	0.167008	-1.484613	0.150671
Zn9	Zn	0.167015	-1.484629	-0.150493
O10	O	0.332159	-1.475745	0.114369
C11	C	-0.040432	-1.492377	0.000099
C12	C	-0.166453	-1.489042	0.000098
C13	C	0.173491	-1.255066	0.000074
C14	C	0.170154	-1.115632	0.000064
C15	C	0.160533	-1.714177	0.000102
C16	C	0.163869	-1.853611	0.000103
C17	C	-0.397180	-1.482908	0.000074
C18	C	-0.268787	-1.486316	0.000087
C19	C	0.374455	-1.476865	0.000077
C20	C	0.500477	-1.480201	0.000069
N21	N	0.167003	-1.484611	0.356208
C22	C	0.271863	-1.035859	0.000062
C23	C	0.268721	-0.904847	0.000086
C24	C	0.062152	-0.933394	0.000109
C25	C	0.065295	-1.064403	0.000095
N26	N	0.167011	-1.484641	-0.356029
C27	C	0.090545	-1.569494	0.428144
C28	C	0.090545	-1.569507	0.572027
C29	C	0.243473	-1.399749	0.572025
C30	C	0.243466	-1.399731	0.428145
H31	H	0.351543	-0.839900	0.000087
C32	C	0.387202	-1.092207	0.000043
H33	H	0.447325	-1.025928	0.000057
H34	H	0.392726	-1.142713	-0.079673
H35	H	0.392719	-1.142725	0.079759
C36	C	0.006442	-1.662855	0.349011
H37	H	0.017395	-1.650700	0.253017
H38	H	-0.069427	-1.648718	0.372602
H39	H	0.019491	-1.746754	0.372583
H40	H	0.305728	-1.330603	0.369570
H41	H	-0.017534	-1.129359	0.000101
H42	H	-0.023220	-0.891668	0.000142
H43	H	0.028285	-1.638625	0.630593
C44	C	0.327585	-1.306401	0.651160
H45	H	0.316649	-1.318576	0.747153
H46	H	0.314556	-1.222500	0.627599
H47	H	0.403454	-1.320558	0.627559
