data_functionalizedCrystal
_audit_creation_method	'MofGen! by Chris Wilmer'
_symmetry_space_group_name_H-M	'P1'
_symmetry_Int_Tables_number	1
_symmetry_cell_setting	triclinic
loop_
_symmetry_equiv_pos_as_xyz
  x,y,z
_cell_length_a	14.971486
_cell_length_b	14.971486
_cell_length_c	14.048226
_cell_angle_alpha	89.993360
_cell_angle_beta	89.998499
_cell_angle_gamma	83.614129
loop_
_atom_site_label
_atom_site_type_symbol
_atom_site_fract_x
_atom_site_fract_y
_atom_site_fract_z
O1	O	1.186947	0.116565	-0.079052
O2	O	1.520280	0.449898	0.254282
O3	O	1.853614	0.783231	0.587615
O4	O	0.926547	0.130523	-0.079078
O5	O	1.259880	0.463857	0.254256
O6	O	1.593214	0.797190	0.587589
O7	O	1.063726	-0.006656	-0.079057
O8	O	1.397060	0.326677	0.254276
O9	O	1.730393	0.660011	0.587610
O10	O	1.049768	0.253744	-0.079072
O11	O	1.383101	0.587077	0.254261
O12	O	1.716434	0.920411	0.587595
O13	O	1.063710	-0.006664	0.079264
O14	O	1.397043	0.326669	0.412598
O15	O	1.730376	0.660002	0.745931
O16	O	0.926530	0.130515	0.079244
O17	O	1.259864	0.463849	0.412577
O18	O	1.593197	0.797182	0.745910
O19	O	1.186930	0.116556	0.079270
O20	O	1.520264	0.449890	0.412603
O21	O	1.853597	0.783223	0.745936
Zn22	Zn	1.056728	0.123535	0.104394
Zn23	Zn	1.390061	0.456868	0.437727
Zn24	Zn	1.723394	0.790201	0.771060
Zn25	Zn	1.056750	0.123545	-0.104202
Zn26	Zn	1.390083	0.456879	0.229132
Zn27	Zn	1.723416	0.790212	0.562465
O28	O	1.049751	0.253736	0.079249
O29	O	1.383084	0.587069	0.412583
O30	O	1.716418	0.920403	0.745916
C31	C	0.893214	0.129895	0.000080
C32	C	1.226547	0.463228	0.333413
C33	C	1.559881	0.796562	0.666746
C34	C	0.793917	0.128024	0.000070
C35	C	1.127250	0.461358	0.333403
C36	C	1.460583	0.794691	0.666737
C37	C	1.063094	-0.039985	0.000103
C38	C	1.396427	0.293348	0.333437
C39	C	1.729761	0.626682	0.666770
C40	C	1.061223	-0.139282	0.000102
C41	C	1.394556	0.194051	0.333435
C42	C	1.727890	0.527385	0.666769
C43	C	0.736692	0.208614	0.000067
C44	C	1.070025	0.541947	0.333400
C45	C	1.403358	0.875280	0.666733
C46	C	0.643392	0.206850	0.000081
C47	C	0.976725	0.540184	0.333414
C48	C	1.310059	0.873517	0.666748
C49	C	0.607320	0.124497	0.000092
C50	C	0.940653	0.457831	0.333425
C51	C	1.273986	0.791164	0.666759
C52	C	0.664552	0.043902	0.000098
C53	C	0.997886	0.377235	0.333431
C54	C	1.331219	0.710569	0.666765
C55	C	0.757850	0.045666	0.000090
C56	C	1.091183	0.378999	0.333424
C57	C	1.424517	0.712333	0.666757
C58	C	0.470090	0.040231	0.000111
C59	C	0.803423	0.373564	0.333445
C60	C	1.136757	0.706897	0.666778
C61	C	0.376786	0.038466	0.000117
C62	C	0.710119	0.371800	0.333450
C63	C	1.043453	0.705133	0.666784
C64	C	0.355632	0.201415	0.000102
C65	C	0.688965	0.534749	0.333435
C66	C	1.022299	0.868082	0.666769
C67	C	0.448930	0.203179	0.000094
C68	C	0.782263	0.536513	0.333428
C69	C	1.115596	0.869846	0.666761
C70	C	0.506156	0.122584	0.000099
C71	C	0.839489	0.455917	0.333432
C72	C	1.172822	0.789250	0.666765
C73	C	1.141812	-0.196507	0.000111
C74	C	1.475146	0.136826	0.333444
C75	C	1.808479	0.470159	0.666778
C76	C	1.140049	-0.289807	0.000101
C77	C	1.473383	0.043527	0.333434
C78	C	1.806716	0.376860	0.666768
C79	C	1.057696	-0.325879	0.000089
C80	C	1.391029	0.007454	0.333423
C81	C	1.724363	0.340788	0.666756
C82	C	0.977101	-0.268646	0.000078
C83	C	1.310434	0.064687	0.333411
C84	C	1.643767	0.398020	0.666745
C85	C	0.978865	-0.175349	0.000081
C86	C	1.312198	0.157985	0.333414
C87	C	1.645531	0.491318	0.666747
C88	C	0.973430	-0.463109	0.000074
C89	C	1.306763	-0.129776	0.333407
C90	C	1.640096	0.203558	0.666741
C91	C	0.971665	-0.556413	0.000073
C92	C	1.304998	-0.223080	0.333406
C93	C	1.638332	0.110254	0.666740
C94	C	1.134614	-0.577567	0.000094
C95	C	1.467947	-0.244233	0.333428
C96	C	1.801281	0.089100	0.666761
C97	C	1.136378	-0.484269	0.000097
C98	C	1.469712	-0.150936	0.333431
C99	C	1.803045	0.182397	0.666764
C100	C	1.055782	-0.427043	0.000088
C101	C	1.389116	-0.093710	0.333421
C102	C	1.722449	0.239624	0.666754
C103	C	1.220263	0.117185	0.000110
C104	C	1.553597	0.450518	0.333444
C105	C	1.886930	0.783851	0.666777
C106	C	1.319561	0.119056	0.000114
C107	C	1.652894	0.452389	0.333447
C108	C	1.986227	0.785722	0.666780
C109	C	1.050384	0.287065	0.000087
C110	C	1.383717	0.620398	0.333420
C111	C	1.717050	0.953731	0.666754
C112	C	1.052254	0.386362	0.000082
C113	C	1.385588	0.719695	0.333415
C114	C	1.718921	1.053028	0.666748
N115	N	1.056719	0.123527	0.246754
N116	N	1.390053	0.456860	0.580088
N117	N	1.723386	0.790193	0.913421
N118	N	1.056765	0.123546	-0.246562
N119	N	1.390098	0.456879	0.086771
N120	N	1.723432	0.790213	0.420104
C121	C	1.117482	0.062809	0.296581
C122	C	1.450815	0.396142	0.629915
C123	C	1.784148	0.729475	0.963248
C124	C	1.117488	0.062808	0.396239
C125	C	1.450821	0.396142	0.729572
C126	C	1.784154	0.729475	1.062906
C127	C	1.056735	0.123531	0.446068
C128	C	1.390068	0.456864	0.779401
C129	C	1.723402	0.790197	1.112734
C130	C	0.995966	0.184252	0.396234
C131	C	1.329300	0.517585	0.729567
C132	C	1.662633	0.850918	1.062900
C133	C	0.995957	0.184247	0.296578
C134	C	1.329290	0.517580	0.629911
C135	C	1.662624	0.850914	0.963245
C136	C	0.995992	0.184258	0.603948
C137	C	1.329326	0.517591	0.937281
C138	C	1.662659	0.850925	1.270615
C139	C	0.996003	0.184264	0.703611
C140	C	1.329336	0.517597	1.036944
C141	C	1.662669	0.850931	1.370277
C142	C	1.117523	0.062819	0.703609
C143	C	1.450856	0.396153	1.036943
C144	C	1.784190	0.729486	1.370276
C145	C	1.117514	0.062815	0.603953
C146	C	1.450847	0.396148	0.937287
C147	C	1.784180	0.729481	1.270620
C148	C	1.056746	0.123537	0.554126
C149	C	1.390079	0.456870	0.887459
C150	C	1.723412	0.790204	1.220793
H151	H	0.766054	0.275675	0.000057
H152	H	1.099387	0.609008	0.333391
H153	H	1.432720	0.942342	0.666724
F154	F	1.225824	-0.350707	0.000112
F155	F	1.559157	-0.017373	0.333446
F156	F	1.892490	0.315960	0.666779
F157	F	0.818754	-0.040108	0.000097
F158	F	1.152087	0.293225	0.333431
F159	F	1.485420	0.626558	0.666764
F160	F	1.220391	-0.638472	0.000101
F161	F	1.553724	-0.305139	0.333434
F162	F	1.887058	0.028195	0.666767
H163	H	0.910047	-0.298024	0.000062
H164	H	1.243380	0.035310	0.333396
H165	H	1.576714	0.368643	0.666729
H166	H	0.596802	0.272474	0.000077
H167	H	0.930136	0.605808	0.333411
H168	H	1.263469	0.939141	0.666744
F169	F	0.338397	-0.049183	0.000153
F170	F	0.671730	0.284150	0.333486
F171	F	1.005064	0.617484	0.666820
H172	H	0.635175	-0.023152	0.000120
H173	H	0.968508	0.310182	0.333454
H174	H	1.301842	0.643515	0.666787
H175	H	0.478296	0.270239	0.000077
H176	H	0.811630	0.603572	0.333410
H177	H	1.144963	0.936905	0.666743
H178	H	1.166957	0.013365	0.256017
H179	H	1.500290	0.346699	0.589351
H180	H	1.833624	0.680032	0.922684
H181	H	0.516682	-0.025399	0.000116
H182	H	0.850015	0.307934	0.333450
H183	H	1.183348	0.641268	0.666783
H184	H	0.946531	0.233710	0.744176
H185	H	1.279864	0.567043	1.077510
H186	H	1.613198	0.900376	1.410843
H187	H	0.309033	0.267039	0.000103
H188	H	0.642367	0.600373	0.333436
H189	H	0.975700	0.933706	0.666769
H190	H	1.203437	-0.454903	0.000114
H191	H	1.536771	-0.121569	0.333447
H192	H	1.870104	0.211764	0.666780
H193	H	0.946477	0.233689	0.256010
H194	H	1.279810	0.567022	0.589343
H195	H	1.613144	0.900355	0.922676
H196	H	0.946496	0.233690	0.436810
H197	H	1.279829	0.567023	0.770143
H198	H	1.613163	0.900357	1.103477
H199	H	0.904606	-0.585780	0.000079
H200	H	1.237939	-0.252446	0.333412
H201	H	1.571273	0.080887	0.666745
H202	H	1.208874	-0.167145	0.000126
H203	H	1.542207	0.166188	0.333460
H204	H	1.875541	0.499522	0.666793
H205	H	0.907800	-0.416517	0.000064
H206	H	1.241133	-0.083184	0.333397
H207	H	1.574466	0.250150	0.666730
H208	H	0.946506	0.233702	0.563382
H209	H	1.279839	0.567035	0.896715
H210	H	1.613172	0.900368	1.230049
H211	H	0.913240	-0.128756	0.000074
H212	H	1.246574	0.204577	0.333407
H213	H	1.579907	0.537911	0.666740
F214	F	1.182156	-0.001815	0.449269
F215	F	1.515490	0.331518	0.782602
F216	F	1.848823	0.664851	1.115936
F217	F	1.182177	-0.001807	0.550921
F218	F	1.515511	0.331527	0.884255
F219	F	1.848844	0.664860	1.217588
F220	F	1.182197	-0.001804	0.756643
F221	F	1.515530	0.331529	1.089976
F222	F	1.848864	0.664863	1.423309
