data_functionalizedCrystal
_audit_creation_method	'MofGen! by Chris Wilmer'
_symmetry_space_group_name_H-M	'P1'
_symmetry_Int_Tables_number	1
_symmetry_cell_setting	triclinic
loop_
_symmetry_equiv_pos_as_xyz
  x,y,z
_cell_length_a	12.759401
_cell_length_b	19.805405
_cell_length_c	12.759393
_cell_angle_alpha	90.037628
_cell_angle_beta	90.018567
_cell_angle_gamma	90.025455
loop_
_atom_site_label
_atom_site_type_symbol
_atom_site_fract_x
_atom_site_fract_y
_atom_site_fract_z
Zn1	Zn	1.606170	-0.269441	0.593939
Zn2	Zn	2.106170	0.230559	1.093939
Zn3	Zn	1.606028	-0.382645	0.418241
Zn4	Zn	2.106028	0.117355	0.918241
Zn5	Zn	1.430472	-0.269474	0.418278
Zn6	Zn	1.930472	0.230526	0.918278
Zn7	Zn	1.430425	-0.382591	0.593882
Zn8	Zn	1.930425	0.117409	1.093882
O9	O	1.518274	-0.326038	0.506085
O10	O	2.018274	0.173962	1.006085
O11	O	1.753172	-0.284466	0.570640
O12	O	2.253172	0.215534	1.070640
O13	O	1.582701	-0.367670	0.271224
O14	O	2.082701	0.132330	0.771224
O15	O	1.453858	-0.174753	0.441620
O16	O	1.953858	0.325247	0.941620
O17	O	1.753068	-0.367637	0.441556
O18	O	2.253068	0.132363	0.941556
O19	O	1.582942	-0.174728	0.570677
O20	O	2.082942	0.325272	1.070677
O21	O	1.453720	-0.284523	0.271252
O22	O	1.953720	0.215477	0.771252
O23	O	1.283445	-0.284470	0.441564
O24	O	1.783445	0.215530	0.941564
O25	O	1.453777	-0.367545	0.740911
O26	O	1.953777	0.132455	1.240911
O27	O	1.283410	-0.367577	0.570579
O28	O	1.783410	0.132423	1.070579
O29	O	1.582896	-0.284414	0.740953
O30	O	2.082896	0.215586	1.240953
O31	O	1.582655	-0.477355	0.441500
O32	O	2.082655	0.022645	0.941500
O33	O	1.453640	-0.477315	0.570543
O34	O	1.953640	0.022685	1.070543
C35	C	1.245306	-0.326022	0.506070
C36	C	1.745306	0.173978	1.006070
C37	C	1.128530	-0.326031	0.506089
C38	C	1.628530	0.173969	1.006089
C39	C	1.073715	-0.282806	0.573408
C40	C	1.573715	0.217194	1.073408
C41	C	0.963991	-0.282819	0.573414
C42	C	1.463991	0.217181	1.073414
C43	C	0.963906	-0.369289	0.438781
C44	C	1.463906	0.130711	0.938781
C45	C	1.073628	-0.369272	0.438770
C46	C	1.573628	0.130728	0.938770
C47	C	1.073763	-0.232885	0.651141
C48	C	1.573763	0.267115	1.151141
C49	C	0.964039	-0.232898	0.651147
C50	C	1.464039	0.267102	1.151147
C51	C	1.518155	-0.501894	0.506034
C52	C	2.018155	-0.001894	1.006034
C53	C	1.518201	-0.577126	0.506047
C54	C	2.018201	-0.077126	1.006047
C55	C	1.585444	-0.612468	0.438925
C56	C	2.085444	-0.112468	0.938925
C57	C	1.585489	-0.683157	0.438948
C58	C	2.085489	-0.183157	0.938948
C59	C	1.518284	-0.718501	0.506089
C60	C	2.018284	-0.218501	1.006089
C61	C	1.451038	-0.683154	0.573219
C62	C	1.951038	-0.183154	1.073219
C63	C	1.450999	-0.612467	0.573200
C64	C	1.950999	-0.112467	1.073200
C65	C	1.451193	-0.968227	0.573297
C66	C	1.951193	-0.468227	1.073297
C67	C	1.451234	-1.038919	0.573308
C68	C	1.951234	-0.538919	1.073308
C69	C	1.585683	-1.038917	0.439045
C70	C	2.085683	-0.538917	0.939045
C71	C	1.585644	-0.968230	0.439026
C72	C	2.085644	-0.468230	0.939026
C73	C	1.518402	-0.932889	0.506159
C74	C	2.018402	-0.432889	1.006159
C75	C	1.518356	-0.856240	0.506135
C76	C	2.018356	-0.356240	1.006135
C77	C	1.518324	-0.795148	0.506109
C78	C	2.018324	-0.295148	1.006109
C79	C	1.792307	-0.326054	0.506100
C80	C	2.292307	0.173946	1.006100
C81	C	1.909084	-0.326061	0.506107
C82	C	2.409084	0.173939	1.006107
C83	C	1.518347	-0.325969	0.780118
C84	C	2.018347	0.174031	1.280118
C85	C	1.518379	-0.325940	0.896895
C86	C	2.018379	0.174060	1.396895
C87	C	1.518421	-0.149495	0.506159
C88	C	2.018421	0.350505	1.006159
C89	C	1.518484	-0.074263	0.506190
C90	C	2.018484	0.425737	1.006190
C91	C	1.518261	-0.326057	0.233118
C92	C	2.018261	0.173943	0.733118
C93	C	1.518433	-0.325895	0.116341
C94	C	2.018433	0.174105	0.616341
C95	C	1.585620	-0.282650	0.951781
C96	C	2.085620	0.217350	1.451781
C97	C	1.585645	-0.282625	1.061505
C98	C	2.085645	0.217375	1.561505
C99	C	1.451184	-0.369188	1.061448
C100	C	1.951184	0.130812	1.561448
C101	C	1.451154	-0.369208	0.951726
C102	C	1.951154	0.130792	1.451726
C103	C	1.663254	-0.232676	0.951814
C104	C	2.163254	0.267324	1.451814
C105	C	1.663279	-0.232651	1.061539
C106	C	2.163279	0.267349	1.561539
H107	H	0.930013	-0.183081	0.622156
H108	H	1.430013	0.316919	1.122156
H109	H	1.740520	-0.251468	0.917775
H110	H	2.240520	0.248532	1.417775
H111	H	1.118254	-0.404464	0.383942
H112	H	1.618254	0.095536	0.883942
O113	O	1.378750	-1.077048	0.645728
O114	O	1.878750	-0.577048	1.145728
H115	H	1.396728	-1.063439	0.728199
H116	H	1.896728	-0.563439	1.228199
O117	O	1.771047	-0.251256	1.100997
O118	O	2.271047	0.248744	1.600997
H119	H	1.823785	-0.260391	1.033297
H120	H	2.323785	0.239609	1.533297
O121	O	0.904684	-0.415925	0.366180
O122	O	1.404684	0.084075	0.866180
H123	H	0.925710	-0.404244	0.283756
H124	H	1.425710	0.095756	0.783756
H125	H	1.396396	-0.404457	0.907042
H126	H	1.896396	0.095543	1.407042
O127	O	0.924626	-0.251585	0.758877
O128	O	1.424626	0.248415	1.258877
H129	H	0.837635	-0.251575	0.758817
H130	H	1.337635	0.248425	1.258817
H131	H	1.634181	-0.182845	1.095595
H132	H	2.134181	0.317155	1.595595
O133	O	1.378473	-0.574342	0.645596
O134	O	1.878473	-0.074342	1.145596
H135	H	1.325037	-0.542184	0.598517
H136	H	1.825037	-0.042184	1.098517
H137	H	1.396450	-0.404414	1.106105
H138	H	1.896450	0.095586	1.606105
H139	H	1.103546	-0.180442	0.629495
H140	H	1.603546	0.319558	1.129495
H141	H	1.640166	-0.583695	0.384247
H142	H	2.140166	-0.083695	0.884247
H143	H	1.107822	-0.251718	0.728375
H144	H	1.607822	0.248282	1.228375
H145	H	1.641502	-0.180257	0.922067
H146	H	2.141502	0.319743	1.422067
H147	H	1.640245	-0.711929	0.384290
H148	H	2.140245	-0.211929	0.884290
O149	O	1.658139	-0.930107	0.366620
O150	O	2.158139	-0.430107	0.866620
H151	H	1.640187	-0.943727	0.284148
H152	H	2.140187	-0.443727	0.784148
O153	O	1.658242	-1.077033	0.366662
O154	O	2.158242	-0.577033	0.866662
H155	H	1.647000	-1.132125	0.377966
H156	H	2.147000	-0.632125	0.877966
H157	H	1.396440	-0.939458	0.627957
H158	H	1.896440	-0.439458	1.127957
H159	H	1.396323	-0.711937	0.627891
H160	H	1.896323	-0.211937	1.127891
