data_functionalizedCrystal
_audit_creation_method	'MofGen! by Chris Wilmer'
_symmetry_space_group_name_H-M	'P1'
_symmetry_Int_Tables_number	1
_symmetry_cell_setting	triclinic
loop_
_symmetry_equiv_pos_as_xyz
  x,y,z
_cell_length_a	19.288859
_cell_length_b	12.811415
_cell_length_c	11.295471
_cell_angle_alpha	91.301480
_cell_angle_beta	94.095500
_cell_angle_gamma	83.590528
loop_
_atom_site_label
_atom_site_type_symbol
_atom_site_fract_x
_atom_site_fract_y
_atom_site_fract_z
O1	O	0.927288	0.122864	0.112314
O2	O	0.725203	0.140398	0.114205
O3	O	0.830560	-0.020014	0.096879
O4	O	0.821931	0.283275	0.129641
O5	O	0.821300	-0.005954	-0.099654
O6	O	0.715942	0.154457	-0.082328
O7	O	0.918027	0.136923	-0.084218
Cu8	Cu	0.816139	0.146974	-0.101218
Cu9	Cu	0.827091	0.130347	0.131205
O10	O	0.812670	0.297335	-0.066892
C11	C	0.694691	0.146865	0.015877
C12	C	0.617570	0.145174	0.015694
C13	C	0.054363	0.227861	0.024628
C14	C	0.126826	0.229458	0.024806
C15	C	0.170583	0.135336	0.014637
C16	C	0.141874	0.039608	0.004318
C17	C	0.069413	0.038013	0.004151
C18	C	0.287901	0.070066	-0.061804
C19	C	0.360360	0.071666	-0.061645
C20	C	0.394078	0.140252	0.015156
C21	C	0.355326	0.207257	0.091783
C22	C	0.282865	0.205662	0.091616
C23	C	0.249156	0.137055	0.014817
C24	C	0.501352	0.237705	0.025676
C25	C	0.573817	0.239298	0.025861
C26	C	0.588863	0.049445	0.005361
C27	C	0.516400	0.047855	0.005187
C28	C	0.472648	0.141988	0.015340
C29	C	0.825163	-0.051786	-0.005577
C30	C	0.822868	-0.167403	-0.018058
C31	C	0.828640	-0.399977	0.172771
C32	C	0.826484	-0.508610	0.161049
C33	C	0.816395	-0.493302	-0.053223
C34	C	0.818551	-0.384669	-0.041501
C35	C	0.824675	-0.338011	0.071500
C36	C	0.826836	-0.229377	0.083221
C37	C	0.816741	-0.214071	-0.131051
C38	C	0.814585	-0.322704	-0.142773
C39	C	0.948540	0.130456	0.014112
C40	C	1.025661	0.132146	0.014303
C41	C	0.818068	0.329107	0.035566
C42	C	0.820363	0.444723	0.048056
N43	N	0.808441	0.158668	-0.264691
C44	C	0.753070	0.242954	-0.442610
C45	C	0.758874	0.234101	-0.318902
C46	C	0.852205	0.092081	-0.334198
C47	C	0.846400	0.100935	-0.457906
C48	C	0.796832	0.176374	-0.512107
C49	C	0.791031	0.185231	-0.635816
C50	C	0.884357	0.043208	-0.651110
C51	C	0.890162	0.034355	-0.527403
N52	N	0.834794	0.118645	0.294677
H53	H	0.150199	0.307404	0.033203
O54	O	0.245332	0.270769	0.166171
C55	C	0.290620	0.331668	0.233978
H56	H	0.346037	0.289712	0.237817
H57	H	0.289885	0.411551	0.191165
C58	C	0.198162	0.398490	0.355983
C59	C	0.266225	0.346954	0.360705
H60	H	0.183113	0.407924	0.434152
H61	H	0.167649	0.357464	0.310297
H62	H	0.197558	0.465054	0.320300
H63	H	0.266827	0.280387	0.396374
H64	H	0.296738	0.387969	0.406400
O65	O	0.704864	0.316257	-0.495081
C66	C	0.667496	0.373147	-0.407209
H67	H	0.670509	0.324140	-0.323640
H68	H	0.691282	0.449491	-0.385690
C69	C	0.586775	0.458551	-0.555825
C70	C	0.590470	0.398357	-0.453186
H71	H	0.539263	0.474107	-0.584185
H72	H	0.611951	0.420227	-0.615026
H73	H	0.606601	0.522164	-0.537877
H74	H	0.570653	0.334740	-0.471138
H75	H	0.565289	0.436671	-0.393988
O76	O	0.938411	-0.038867	-0.474894
C77	C	1.005872	-0.019992	-0.503282
H78	H	1.001870	0.026601	-0.588752
H79	H	1.031034	0.026783	-0.428050
C80	C	1.055895	-0.182726	-0.415486
C81	C	1.050980	-0.125507	-0.520468
H82	H	1.083722	-0.247812	-0.426082
H83	H	1.010446	-0.195441	-0.396356
H84	H	1.076861	-0.143735	-0.352803
H85	H	1.030006	-0.164493	-0.583145
H86	H	1.096427	-0.112801	-0.539609
H87	H	0.811404	-0.531310	-0.145223
H88	H	0.831824	-0.191391	0.175232
H89	H	0.177506	-0.037027	-0.003959
O90	O	0.488492	-0.045113	-0.004642
C91	C	0.451813	-0.058983	0.096421
H92	H	0.472734	-0.009721	0.173430
H93	H	0.393790	-0.033046	0.076036
C94	C	0.436171	-0.236216	0.035745
C95	C	0.461871	-0.175719	0.130332
H96	H	0.442372	-0.308225	0.056660
H97	H	0.460881	-0.226872	-0.032346
H98	H	0.387820	-0.214590	0.018766
H99	H	0.510223	-0.197337	0.147299
H100	H	0.437170	-0.185070	0.198426
O101	O	0.601818	0.332184	0.035957
C102	C	0.675156	0.313412	0.033916
H103	H	0.693269	0.229387	0.062327
H104	H	0.690928	0.325117	-0.059828
C105	C	0.687249	0.493798	0.085048
C106	C	0.709496	0.390599	0.119953
H107	H	0.708432	0.541413	0.138114
H108	H	0.637839	0.506447	0.086418
H109	H	0.700393	0.503538	0.006926
H110	H	0.696344	0.380857	0.198066
H111	H	0.758904	0.377950	0.118597
O112	O	0.631458	-0.041887	-0.004555
C113	C	0.701572	-0.019960	-0.002157
H114	H	0.703250	0.064495	-0.030537
H115	H	0.726933	-0.030744	0.091695
C116	C	0.739573	-0.199253	-0.053120
C117	C	0.741634	-0.095527	-0.087988
H118	H	0.764287	-0.245869	-0.106060
H119	H	0.692336	-0.214028	-0.054731
H120	H	0.760706	-0.208225	0.025090
H121	H	0.720493	-0.086553	-0.166190
H122	H	0.788868	-0.080753	-0.086391
H123	H	0.391906	0.017112	-0.124045
H124	H	0.833633	-0.361989	0.264781
O125	O	0.458886	0.329151	0.035765
C126	C	0.476823	0.380017	0.143819
H127	H	0.504498	0.319826	0.209008
H128	H	0.513106	0.441779	0.127301
C129	C	0.376025	0.507388	0.116037
C130	C	0.410012	0.433458	0.196107
H131	H	0.334814	0.540357	0.148289
H132	H	0.363942	0.473121	0.043237
H133	H	0.406269	0.558846	0.102279
H134	H	0.379772	0.381995	0.209852
H135	H	0.422089	0.467718	0.268911
H136	H	0.723238	0.288315	-0.262320
O137	O	0.900505	0.018866	-0.281804
C138	C	0.967915	0.037864	-0.310339
H139	H	0.963809	0.084536	-0.395763
H140	H	0.993113	0.084609	-0.235118
C141	C	1.018104	-0.124901	-0.222811
C142	C	1.013061	-0.067585	-0.327736
H143	H	1.045954	-0.189946	-0.233536
H144	H	0.972689	-0.137700	-0.203581
H145	H	1.039099	-0.085935	-0.160136
H146	H	0.992058	-0.106545	-0.390404
H147	H	1.058474	-0.054796	-0.346976
O148	O	0.808731	-0.367929	-0.252602
C149	C	0.866223	-0.348830	-0.316192
H150	H	0.889233	-0.276161	-0.277645
H151	H	0.907737	-0.419492	-0.308844
C152	C	0.813600	-0.419933	-0.494995
C153	C	0.841858	-0.330674	-0.447657
H154	H	0.798573	-0.408738	-0.576090
H155	H	0.774868	-0.432805	-0.452153
H156	H	0.848200	-0.478809	-0.488861
H157	H	0.807256	-0.271804	-0.453779
H158	H	0.880585	-0.317793	-0.490504
O159	O	0.255257	0.003404	-0.136525
C160	C	0.304997	-0.055403	-0.204105
H161	H	0.352888	-0.011163	-0.207714
H162	H	0.321140	-0.134940	-0.161244
C163	C	0.214010	-0.126296	-0.326519
C164	C	0.272828	-0.071956	-0.330959
H165	H	0.194167	-0.136511	-0.404767
H166	H	0.180499	-0.086680	-0.280986
H167	H	0.227470	-0.192571	-0.290796
H168	H	0.259366	-0.005678	-0.366668
H169	H	0.306337	-0.111561	-0.376501
H170	H	0.919993	-0.011003	-0.707709
H171	H	0.382777	0.263108	0.154318
H172	H	0.046045	-0.039932	-0.004256
O173	O	0.830424	-0.568927	0.259339
C174	C	0.889510	-0.644287	0.257699
H175	H	0.904820	-0.657953	0.162495
H176	H	0.934859	-0.614652	0.314177
C177	C	0.853306	-0.731393	0.425153
C178	C	0.872107	-0.748184	0.308220
H179	H	0.842574	-0.795480	0.456321
H180	H	0.813500	-0.680619	0.426261
H181	H	0.891101	-0.706694	0.472203
H182	H	0.834311	-0.772869	0.261170
H183	H	0.911907	-0.798964	0.307105
H184	H	0.750671	0.246660	-0.679945
O185	O	0.011967	0.319391	0.034562
C186	C	0.052844	0.404217	0.043683
H187	H	0.108457	0.374865	0.078003
H188	H	0.053790	0.440312	-0.047437
C189	C	-0.047213	0.523820	0.088219
C190	C	0.021091	0.487770	0.130382
H191	H	-0.066800	0.575363	0.141695
H192	H	-0.074753	0.466672	0.082070
H193	H	-0.046414	0.553892	0.012286
H194	H	0.020291	0.457688	0.206306
H195	H	0.048630	0.544915	0.136546
H196	H	0.813515	-0.163606	-0.213514
