data_functionalizedCrystal
_audit_creation_method	'MofGen! by Chris Wilmer'
_symmetry_space_group_name_H-M	'P1'
_symmetry_Int_Tables_number	1
_symmetry_cell_setting	triclinic
loop_
_symmetry_equiv_pos_as_xyz
  x,y,z
_cell_length_a	12.645331
_cell_length_b	12.645330
_cell_length_c	12.645324
_cell_angle_alpha	89.966098
_cell_angle_beta	89.977038
_cell_angle_gamma	90.011625
loop_
_atom_site_label
_atom_site_type_symbol
_atom_site_fract_x
_atom_site_fract_y
_atom_site_fract_z
Zn1	Zn	1.620771	-0.421988	-0.599431
Zn2	Zn	1.620668	-0.599297	-0.422164
Zn3	Zn	1.443485	-0.422045	-0.422175
Zn4	Zn	1.443483	-0.599206	-0.599379
O5	O	1.532102	-0.510634	-0.510787
O6	O	1.769105	-0.445522	-0.575933
O7	O	1.597122	-0.575846	-0.273818
O8	O	1.467047	-0.273690	-0.445714
O9	O	1.769029	-0.575790	-0.445696
O10	O	1.597298	-0.273648	-0.575943
O11	O	1.466946	-0.445620	-0.273826
O12	O	1.295138	-0.445532	-0.445665
O13	O	1.467044	-0.575636	-0.747734
O14	O	1.295136	-0.575692	-0.575856
O15	O	1.597296	-0.445434	-0.747771
O16	O	1.597120	-0.747632	-0.445646
O17	O	1.466943	-0.747566	-0.575845
C18	C	1.256672	-0.510609	-0.510757
C19	C	1.138842	-0.510624	-0.510769
C20	C	0.971244	-0.428363	-0.429317
C21	C	1.093803	-0.428576	-0.428958
C22	C	1.094332	-0.622301	-0.480250
C23	C	0.971733	-0.621852	-0.479694
C24	C	0.971691	-0.482269	-0.623054
C25	C	1.094296	-0.479774	-0.622430
C26	C	1.532049	-0.786064	-0.510762
C27	C	1.532123	-0.903894	-0.510787
C28	C	1.613886	-1.071455	-0.428712
C29	C	1.614152	-0.948895	-0.428913
C30	C	1.562424	-0.948263	-0.622532
C31	C	1.563073	-1.070861	-0.622096
C32	C	1.420028	-1.071223	-0.482218
C33	C	1.420565	-0.948618	-0.479712
C34	C	1.808607	-0.510660	-0.510819
C35	C	1.926437	-0.510671	-0.510832
C36	C	1.532181	-0.510519	-0.787293
C37	C	1.532215	-0.510470	-0.905123
C38	C	1.532184	-0.234129	-0.510836
C39	C	1.532219	-0.116299	-0.510856
C40	C	1.614476	-0.428797	-1.072711
C41	C	1.614213	-0.428502	-0.950151
C42	C	1.420530	-0.480110	-0.949602
C43	C	1.421030	-0.479490	-1.072201
C44	C	1.560733	-0.622621	-1.072317
C45	C	1.563176	-0.622058	-0.949711
C46	C	1.532084	-0.510672	-0.235358
C47	C	1.532255	-0.510423	-0.117528
H48	H	1.123082	-0.447349	-0.345797
C49	C	1.488147	-0.708642	-0.908309
N50	N	1.431624	-0.773854	-0.877127
C51	C	1.671965	-0.906679	-0.655847
N52	N	1.754475	-0.875360	-0.680934
H53	H	1.356434	-0.917996	-0.535155
H54	H	0.940787	-0.402255	-0.650808
H55	H	1.506196	-1.100520	-0.685409
H56	H	1.645079	-1.099372	-0.646354
H57	H	1.697567	-0.447571	-1.102203
C58	C	1.135711	-0.554861	-0.708870
N59	N	1.166901	-0.611426	-0.773974
H60	H	1.645366	-0.644951	-0.920639
H61	H	1.696536	-1.102185	-0.447442
C62	C	1.726414	-0.909161	-0.454496
N63	N	1.810975	-0.879234	-0.473765
H64	H	1.124989	-0.646799	-0.399090
C65	C	0.932544	-0.563253	-0.705107
N66	N	0.903051	-0.624252	-0.766901
H67	H	1.396892	-0.397473	-1.100813
H68	H	0.940397	-0.446928	-0.346645
H69	H	1.504753	-0.919109	-0.685375
H70	H	1.392474	-1.102241	-0.402153
C71	C	1.479834	-0.704786	-1.111476
N72	N	1.418899	-0.766665	-1.140978
C73	C	1.389689	-0.909445	-0.368623
N74	N	1.366434	-0.879929	-0.284952
H75	H	1.123507	-0.685266	-0.537758
H76	H	1.359179	-1.100222	-0.542047
C77	C	1.133591	-0.368742	-0.653515
N78	N	1.163191	-0.285111	-0.676924
H79	H	1.395950	-0.399009	-0.918910
H80	H	1.357683	-0.536356	-1.101846
C81	C	1.335511	-0.557950	-0.910187
N82	N	1.271475	-0.616579	-0.880495
C83	C	1.726105	-0.454142	-0.909523
N84	N	1.810390	-0.473438	-0.878928
H85	H	1.595863	-0.346142	-1.103537
C86	C	1.588730	-0.316219	-0.910549
N87	N	1.569530	-0.231643	-0.880723
H88	H	0.942094	-0.685254	-0.536477
C89	C	0.931425	-0.316147	-0.454877
N90	N	0.901425	-0.231624	-0.474130
C91	C	1.134461	-0.316695	-0.454786
N92	N	1.165079	-0.232420	-0.474234
C93	C	0.933034	-0.654376	-0.368858
N94	N	0.903891	-0.678869	-0.285372
C95	C	1.588501	-0.908373	-0.316985
N96	N	1.569171	-0.877856	-0.232679
H97	H	1.595164	-1.101018	-0.345613
H98	H	1.640750	-0.650261	-1.103301
