data_functionalizedCrystal
_audit_creation_method	'MofGen! by Chris Wilmer'
_symmetry_space_group_name_H-M	'P1'
_symmetry_Int_Tables_number	1
_symmetry_cell_setting	triclinic
loop_
_symmetry_equiv_pos_as_xyz
  x,y,z
_cell_length_a	12.784905
_cell_length_b	12.837932
_cell_length_c	7.540329
_cell_angle_alpha	89.999620
_cell_angle_beta	89.996504
_cell_angle_gamma	83.968511
loop_
_atom_site_label
_atom_site_type_symbol
_atom_site_fract_x
_atom_site_fract_y
_atom_site_fract_z
O1	O	1.410964	0.006435	-0.147492
O2	O	1.105966	0.050427	-0.147490
O3	O	1.251701	-0.121862	-0.147492
O4	O	1.265229	0.178724	-0.147490
O5	O	1.251691	-0.121863	0.147473
O6	O	1.105956	0.050426	0.147475
O7	O	1.410955	0.006434	0.147473
Cu8	Cu	1.258454	0.028430	0.174407
Cu9	Cu	1.258466	0.028431	-0.174424
O10	O	1.265219	0.178723	0.147475
C11	C	1.066651	0.053288	-0.000007
C12	C	0.949520	0.061801	-0.000006
C13	C	0.735567	-0.111642	-0.000040
C14	C	0.625512	-0.103648	-0.000039
C15	C	0.619352	0.085781	-0.000018
C16	C	0.729407	0.077787	-0.000018
C17	C	0.787511	-0.020928	-0.000027
C18	C	0.897568	-0.028921	-0.000014
C19	C	0.891406	0.160508	-0.000006
C20	C	0.781351	0.168502	-0.000005
C21	C	1.247126	-0.160072	-0.000014
C22	C	1.233498	-0.273920	-0.000026
C23	C	1.119588	-0.413496	-0.000023
C24	C	1.132387	-0.306523	-0.000026
C25	C	1.321817	-0.348299	-0.000028
C26	C	1.309018	-0.455272	-0.000025
C27	C	1.207901	-0.487865	-0.000020
C28	C	1.195103	-0.594840	-0.000004
C29	C	1.384532	-0.636614	-0.000019
C30	C	1.397331	-0.529642	-0.000022
C31	C	1.450269	0.003573	-0.000014
C32	C	1.567401	-0.004940	-0.000026
C33	C	1.269794	0.216932	-0.000007
C34	C	1.283422	0.330781	-0.000006
N35	N	1.258454	0.028427	0.419755
N36	N	1.258474	0.028424	-0.419772
H37	H	0.583224	-0.177517	-0.000053
Br38	Br	0.814428	-0.245607	-0.000018
Br39	Br	1.057875	-0.639075	0.000017
H40	H	1.479658	-0.503089	-0.000020
H41	H	0.572025	0.166150	-0.000035
H42	H	0.734027	0.248872	-0.000006
Br43	Br	0.961906	0.283628	0.000051
Br44	Br	0.982363	-0.457736	0.000023
Br45	Br	1.012529	-0.205593	-0.000042
Br46	Br	1.459037	-0.304045	-0.000076
H47	H	1.456443	-0.697179	-0.000014
H48	H	0.944875	-0.109300	-0.000018
