data_functionalizedCrystal
_audit_creation_method	'MofGen! by Chris Wilmer'
_symmetry_space_group_name_H-M	'P1'
_symmetry_Int_Tables_number	1
_symmetry_cell_setting	triclinic
loop_
_symmetry_equiv_pos_as_xyz
  x,y,z
_cell_length_a	11.792241
_cell_length_b	10.540510
_cell_length_c	9.016244
_cell_angle_alpha	90.000273
_cell_angle_beta	89.996851
_cell_angle_gamma	84.353363
loop_
_atom_site_label
_atom_site_type_symbol
_atom_site_fract_x
_atom_site_fract_y
_atom_site_fract_z
O1	O	1.507350	0.173988	-0.123188
O2	O	1.177054	0.191920	-0.123221
O3	O	1.349755	-0.001779	-0.123203
O4	O	1.334649	0.367688	-0.123206
O5	O	1.349730	-0.001775	0.123478
O6	O	1.177029	0.191924	0.123460
O7	O	1.507325	0.173993	0.123493
Cu8	Cu	1.342175	0.182959	0.146000
Cu9	Cu	1.342205	0.182954	-0.145728
O10	O	1.334624	0.367692	0.123475
C11	C	1.134748	0.190796	0.000115
C12	C	1.008726	0.187424	0.000102
C13	C	1.348617	-0.049077	0.000134
C14	C	1.345249	-0.190016	0.000125
C15	C	0.777998	0.181225	0.000144
C16	C	0.906392	0.184670	0.000121
C17	C	1.465224	-0.407862	0.000702
C18	C	1.468816	-0.261278	0.000139
C19	C	1.282009	-0.234571	-0.140745
C20	C	1.279292	-0.381323	-0.140856
C21	C	1.276689	-0.381118	0.139666
C22	C	1.282550	-0.234796	0.141521
C23	C	1.549631	0.175117	0.000154
C24	C	1.675654	0.178488	0.000157
C25	C	1.335762	0.414990	0.000135
C26	C	1.339130	0.555929	0.000134
N27	N	1.342162	0.182962	0.351186
N28	N	1.342226	0.182941	-0.350914
C29	C	1.249494	0.286233	0.586209
C30	C	1.249699	0.286618	0.414318
C31	C	1.460827	0.212709	0.413537
C32	C	1.460321	0.213440	0.585482
C33	C	1.317342	0.049602	0.585728
C34	C	1.314619	0.050476	0.413773
H35	H	1.513354	-0.449972	0.101728
H36	H	1.513097	-0.451526	-0.099742
H37	H	1.483079	0.308876	0.370461
C38	C	1.556330	0.113843	0.358284
H39	H	1.524606	0.053405	0.296545
H40	H	1.592899	0.071358	0.440824
H41	H	1.610397	0.155778	0.303363
C42	C	1.151360	-0.410630	0.140942
H43	H	1.137110	-0.461067	0.056905
H44	H	1.102955	-0.333116	0.137840
H45	H	1.136706	-0.455941	0.228856
C46	C	1.536065	-0.223115	-0.136507
H47	H	1.561283	-0.297240	-0.191898
H48	H	1.600087	-0.182002	-0.105098
H49	H	1.488297	-0.166571	-0.196851
H50	H	1.322531	-0.421681	-0.246149
C51	C	1.341265	-0.192932	-0.282360
H52	H	1.404547	-0.148428	-0.255938
H53	H	1.288899	-0.138618	-0.339219
H54	H	1.366902	-0.266027	-0.339277
C55	C	1.329433	-0.438615	0.283910
H56	H	1.390037	-0.501557	0.260380
H57	H	1.272911	-0.476543	0.338907
H58	H	1.357922	-0.373214	0.341415
C59	C	1.154448	-0.411990	-0.149548
H60	H	1.105615	-0.334787	-0.153007
H61	H	1.136801	-0.459626	-0.064616
H62	H	1.143907	-0.460458	-0.236424
C63	C	1.556406	0.115732	0.641675
H64	H	1.595583	0.075777	0.559414
H65	H	1.524704	0.053134	0.700231
H66	H	1.608224	0.158021	0.700027
C67	C	1.160682	-0.168110	0.153016
H68	H	1.146376	-0.111843	0.071360
H69	H	1.152907	-0.121073	0.242923
H70	H	1.107570	-0.230276	0.151823
H71	H	1.227322	0.027920	0.373023
H72	H	1.265281	0.384606	0.629404
C73	C	1.344699	-0.196334	0.282310
H74	H	1.408588	-0.153159	0.255050
H75	H	1.369737	-0.270544	0.337630
H76	H	1.294114	-0.141540	0.341096
C77	C	1.130584	0.262536	0.357365
H78	H	1.081632	0.252435	0.439315
H79	H	1.136207	0.187363	0.298627
H80	H	1.100415	0.332981	0.299038
C81	C	1.130007	0.262524	0.642130
H82	H	1.135600	0.189425	0.704332
H83	H	1.082332	0.248930	0.559885
H84	H	1.098381	0.334591	0.696709
C85	C	1.271312	0.420262	0.358723
H86	H	1.280012	0.474527	0.441225
H87	H	1.208551	0.454318	0.300244
H88	H	1.338731	0.414394	0.300419
C89	C	1.489716	0.344837	0.639657
H90	H	1.489672	0.346440	0.745010
H91	H	1.434613	0.409128	0.603284
H92	H	1.563015	0.359997	0.604112
H93	H	1.191041	-0.186886	-0.145993
H94	H	1.232639	0.021199	0.629167
H95	H	1.518299	-0.232094	0.101118
H96	H	1.377685	-0.030051	0.370804
H97	H	1.384954	-0.027273	0.626387
