data_functionalizedCrystal
_audit_creation_method	'MofGen! by Chris Wilmer'
_symmetry_space_group_name_H-M	'P1'
_symmetry_Int_Tables_number	1
_symmetry_cell_setting	triclinic
loop_
_symmetry_equiv_pos_as_xyz
  x,y,z
_cell_length_a	17.077404
_cell_length_b	15.297327
_cell_length_c	15.296720
_cell_angle_alpha	107.319222
_cell_angle_beta	99.661334
_cell_angle_gamma	99.707136
loop_
_atom_site_label
_atom_site_type_symbol
_atom_site_fract_x
_atom_site_fract_y
_atom_site_fract_z
Zn1	Zn	1.041702	-0.461219	-0.589831
Zn2	Zn	1.041613	-0.589841	-0.461226
Zn3	Zn	0.937910	-0.434348	-0.434349
Zn4	Zn	0.882939	-0.616684	-0.616670
O5	O	0.976041	-0.525523	-0.525519
O6	O	1.151533	-0.478293	-0.572787
O7	O	1.050825	-0.546735	-0.327536
O8	O	0.974721	-0.307776	-0.432494
O9	O	1.151468	-0.572791	-0.478301
O10	O	1.050977	-0.327518	-0.546726
O11	O	0.974635	-0.432495	-0.307790
O12	O	0.820775	-0.458523	-0.458519
O13	O	0.881032	-0.618541	-0.743234
O14	O	0.780389	-0.592485	-0.592469
O15	O	0.997674	-0.504322	-0.723516
O16	O	0.997522	-0.723539	-0.504326
O17	O	0.880945	-0.743260	-0.618530
C18	C	0.772101	-0.525502	-0.525491
C19	C	0.684846	-0.525519	-0.525504
C20	C	0.622848	-0.595346	-0.595172
C21	C	0.540865	-0.595351	-0.595188
C22	C	0.520881	-0.525531	-0.525530
C23	C	0.582887	-0.455697	-0.455858
C24	C	0.664868	-0.455690	-0.455848
C25	C	0.412009	-0.455719	-0.455884
C26	C	0.330022	-0.455728	-0.455893
C27	C	0.288006	-0.595380	-0.595224
C28	C	0.369988	-0.595373	-0.595213
C29	C	0.431988	-0.525539	-0.525540
C30	C	0.933276	-0.767146	-0.567277
C31	C	0.915048	-0.870519	-0.585172
C32	C	1.106591	-1.120740	-0.397936
C33	C	1.123718	-1.023615	-0.381118
C34	C	1.071553	-0.985336	-0.432130
C35	C	1.002256	-1.044192	-0.499963
C36	C	0.985124	-1.141325	-0.516778
C37	C	0.950085	-1.005921	-0.550972
C38	C	0.880789	-1.064777	-0.618805
C39	C	0.863660	-1.161900	-0.635617
C40	C	0.915826	-1.200179	-0.584605
C41	C	0.967217	-0.908788	-0.534157
C42	C	0.845750	-0.929373	-0.652999
C43	C	0.828623	-1.026498	-0.669818
C44	C	1.180778	-0.525545	-0.525548
C45	C	1.268024	-0.525555	-0.525561
C46	C	0.933231	-0.567423	-0.768058
C47	C	0.914988	-0.585279	-0.871413
C48	C	1.018991	-0.282960	-0.483619
C49	C	1.037293	-0.179594	-0.465763
C50	C	1.106486	-0.397745	-1.121692
C51	C	1.123631	-0.380971	-1.024585
C52	C	1.071472	-0.432046	-0.986287
C53	C	1.002164	-0.499899	-1.045106
C54	C	0.985021	-0.516680	-1.142224
C55	C	0.950007	-0.550981	-1.006819
C56	C	0.880699	-0.618834	-1.065639
C57	C	0.863559	-0.635612	-1.162747
C58	C	0.915718	-0.584537	-1.201044
C59	C	0.967150	-0.534200	-0.909701
C60	C	0.845685	-0.653135	-0.930234
C61	C	0.828540	-0.669909	-1.027341
C62	C	1.018742	-0.483719	-0.283912
C63	C	1.037183	-0.465602	-0.180512
H64	H	0.639111	-0.652204	-0.651893
Br65	Br	1.094985	-0.853571	-0.409586
Br66	Br	0.734582	-1.106383	-0.761876
Br67	Br	0.892306	-1.331923	-0.607010
H68	H	0.237521	-0.652239	-0.651956
H69	H	0.386255	-0.652230	-0.651930
Br70	Br	0.302901	-0.360978	-0.361351
Br71	Br	0.774943	-0.877431	-0.722226
H72	H	0.462489	-0.398847	-0.399155
H73	H	0.772109	-0.725156	-1.075245
Br74	Br	0.892455	-0.607304	-1.332839
Br75	Br	0.555767	-0.360933	-0.361329
H76	H	1.023580	-0.478953	-0.861819
Br77	Br	0.769610	-1.241773	-0.727670
Br78	Br	1.094740	-0.409279	-0.854496
H79	H	0.715348	-0.398825	-0.399121
H80	H	1.149053	-1.151916	-0.356404
H81	H	1.023639	-0.860876	-0.478927
H82	H	0.803213	-0.694726	-0.899053
Br83	Br	1.217688	-0.288891	-0.944765
H84	H	0.490388	-0.652212	-0.651918
Br85	Br	1.217764	-0.943749	-0.289071
H86	H	0.807129	-0.690870	-1.210637
H87	H	1.148950	-0.356173	-1.152885
