data_functionalizedCrystal
_audit_creation_method	'MofGen! by Chris Wilmer'
_symmetry_space_group_name_H-M	'P1'
_symmetry_Int_Tables_number	1
_symmetry_cell_setting	triclinic
loop_
_symmetry_equiv_pos_as_xyz
  x,y,z
_cell_length_a	10.686220
_cell_length_b	12.645330
_cell_length_c	10.686551
_cell_angle_alpha	94.406611
_cell_angle_beta	89.691918
_cell_angle_gamma	94.394340
loop_
_atom_site_label
_atom_site_type_symbol
_atom_site_fract_x
_atom_site_fract_y
_atom_site_fract_z
Zn1	Zn	1.972300	-0.258448	0.562381
Zn2	Zn	1.956079	-0.450323	0.352619
Zn3	Zn	1.746419	-0.285567	0.368698
Zn4	Zn	1.762509	-0.448175	0.578396
O5	O	1.859327	-0.360628	0.465524
O6	O	2.145689	-0.273451	0.521124
O7	O	1.914746	-0.440716	0.179206
O8	O	1.776437	-0.133617	0.394417
O9	O	2.133772	-0.414421	0.367012
O10	O	1.942391	-0.113693	0.536715
O11	O	1.760709	-0.319670	0.191019
O12	O	1.573012	-0.317587	0.409947
O13	O	1.803860	-0.410759	0.751818
O14	O	1.584834	-0.437055	0.564011
O15	O	1.957992	-0.271368	0.740051
O16	O	1.930347	-0.598391	0.382542
O17	O	1.788132	-0.596812	0.548420
C18	C	1.533407	-0.380031	0.490462
C19	C	1.393979	-0.388355	0.501161
C20	C	1.859262	-0.636064	0.465499
C21	C	1.859352	-0.753887	0.465521
C22	C	1.948649	-0.922422	0.360983
C23	C	1.948982	-0.799827	0.361196
C24	C	1.905354	-0.786941	0.595009
C25	C	1.906083	-0.909530	0.594435
C26	C	1.724115	-0.931468	0.441878
C27	C	1.724523	-0.809031	0.438864
C28	C	2.186519	-0.341150	0.440488
C29	C	2.325949	-0.332850	0.429820
C30	C	1.884531	-0.337799	0.792724
C31	C	1.895271	-0.328070	0.932158
C32	C	1.859429	-0.084113	0.465573
C33	C	1.859472	0.033721	0.465595
C34	C	1.834293	-0.383288	0.139590
C35	C	1.823796	-0.392704	0.000139
H36	H	1.919024	-0.777975	0.264865
H37	H	1.844530	-0.938000	0.674514
C38	C	1.670245	-0.984868	0.317252
C39	C	1.548037	-1.057817	0.316914
C40	C	1.494184	-1.111218	0.192281
C41	C	1.562541	-1.091671	0.067986
C42	C	1.684756	-1.018718	0.068319
C43	C	1.738609	-0.965317	0.192952
H44	H	1.497429	-1.072290	0.408929
H45	H	1.403712	-1.165223	0.192036
H46	H	1.522676	-1.131201	-0.024275
H47	H	1.735364	-1.004245	-0.023696
H48	H	1.829081	-0.911312	0.193197
C49	C	1.989049	-0.243254	0.997631
C50	C	2.000030	-0.233310	1.141746
C51	C	2.093806	-0.148495	1.207220
C52	C	2.176602	-0.073624	1.128578
C53	C	2.165625	-0.083565	0.984455
C54	C	2.071848	-0.168380	0.918981
H55	H	1.938737	-0.288736	1.199969
H56	H	2.101933	-0.141136	1.313910
H57	H	2.246021	-0.010839	1.177045
H58	H	2.226918	-0.028139	0.926232
H59	H	2.063722	-0.175739	0.812291
C60	C	1.820885	-0.746078	0.702548
C61	C	1.848415	-0.769224	0.838666
C62	C	1.763943	-0.728359	0.946203
C63	C	1.651941	-0.664348	0.917622
C64	C	1.624406	-0.641198	0.781498
C65	C	1.708878	-0.682063	0.673961
H66	H	1.931330	-0.816612	0.859829
H67	H	1.784327	-0.745497	1.046971
H68	H	1.589410	-0.634097	0.997228
H69	H	1.541491	-0.593809	0.760336
H70	H	1.688493	-0.664925	0.573193
H71	H	2.005324	-0.930265	0.615705
C72	C	1.634173	-0.969809	0.544963
C73	C	1.612305	-1.089429	0.563216
C74	C	1.522375	-1.127776	0.666303
C75	C	1.454312	-1.046504	0.751137
C76	C	1.476178	-0.926877	0.732887
C77	C	1.566108	-0.888529	0.629800
H78	H	1.662691	-1.149599	0.500415
H79	H	1.506189	-1.216333	0.679813
H80	H	1.387741	-1.074891	0.827448
H81	H	1.425793	-0.866707	0.795689
H82	H	1.582295	-0.799973	0.616291
H83	H	1.754390	-0.455484	0.951670
H84	H	1.345550	-0.442254	0.570422
H85	H	1.374372	-0.278963	0.360555
H86	H	1.918949	-0.960130	0.264343
H87	H	2.049030	-0.763002	0.376077
C88	C	2.037998	-0.734899	0.624508
C89	C	2.147562	-0.758465	0.535041
C90	C	2.280207	-0.706425	0.564531
C91	C	2.303289	-0.630820	0.683487
C92	C	2.193722	-0.607250	0.772962
C93	C	2.061076	-0.659290	0.743472
H94	H	2.130478	-0.814435	0.446975
H95	H	2.361316	-0.723873	0.498295
H96	H	2.401481	-0.592297	0.705317
H97	H	2.210805	-0.551280	0.861028
H98	H	1.979967	-0.641842	0.809708
C99	C	1.677904	-0.781182	0.310196
C100	C	1.761826	-0.708713	0.229676
C101	C	1.715214	-0.680861	0.101004
C102	C	1.584680	-0.725478	0.052852
C103	C	1.500751	-0.797951	0.133373
C104	C	1.547362	-0.825803	0.262045
H105	H	1.858462	-0.675681	0.265320
H106	H	1.777345	-0.627212	0.041398
H107	H	1.550175	-0.704861	-0.042398
H108	H	1.404115	-0.830983	0.097729
H109	H	1.485231	-0.879453	0.321651
H110	H	2.048150	-0.945784	0.375653
H111	H	1.653672	-0.778379	0.510288
