data_functionalizedCrystal
_audit_creation_method	'MofGen! by Chris Wilmer'
_symmetry_space_group_name_H-M	'P1'
_symmetry_Int_Tables_number	1
_symmetry_cell_setting	triclinic
loop_
_symmetry_equiv_pos_as_xyz
  x,y,z
_cell_length_a	16.959455
_cell_length_b	18.050590
_cell_length_c	16.959447
_cell_angle_alpha	89.968143
_cell_angle_beta	89.983056
_cell_angle_gamma	90.015500
loop_
_atom_site_label
_atom_site_type_symbol
_atom_site_fract_x
_atom_site_fract_y
_atom_site_fract_z
Zn1	Zn	1.208413	-0.295705	-0.446901
Zn2	Zn	1.208333	-0.419906	-0.314719
Zn3	Zn	1.076235	-0.295728	-0.314738
Zn4	Zn	1.076209	-0.419851	-0.446857
O5	O	1.142297	-0.357797	-0.380804
O6	O	1.319013	-0.312194	-0.429376
O7	O	1.190787	-0.403467	-0.204110
O8	O	1.093813	-0.191800	-0.332296
O9	O	1.318954	-0.403444	-0.332263
O10	O	1.190923	-0.191783	-0.429395
O11	O	1.093735	-0.312234	-0.204125
O12	O	0.965621	-0.312180	-0.332254
O13	O	1.093769	-0.403349	-0.557474
O14	O	0.965602	-0.403372	-0.429321
O15	O	1.190898	-0.312140	-0.557506
O16	O	1.190762	-0.523824	-0.332221
O17	O	1.093691	-0.523783	-0.429303
C18	C	0.936931	-0.357773	-0.380786
C19	C	0.849074	-0.357780	-0.380797
C20	C	0.477584	-0.310275	-0.330366
C21	C	0.477613	-0.405381	-0.431286
C22	C	0.560159	-0.405371	-0.431282
C23	C	0.601422	-0.357812	-0.380818
C24	C	0.560138	-0.310264	-0.330358
C25	C	0.601449	-0.452923	-0.481734
C26	C	0.684000	-0.452915	-0.481731
C27	C	0.725264	-0.405352	-0.431270
C28	C	0.683975	-0.357802	-0.380809
C29	C	0.725237	-0.310243	-0.330345
C30	C	0.683950	-0.262688	-0.279888
C31	C	0.601402	-0.262701	-0.279898
C32	C	0.807812	-0.405339	-0.431261
C33	C	0.807791	-0.310232	-0.330337
C34	C	1.142237	-0.550750	-0.380772
C35	C	1.142283	-0.633295	-0.380785
C36	C	1.195180	-0.832741	-0.328066
C37	C	1.214486	-0.882071	-0.400207
C38	C	1.142328	-0.784426	-0.380817
C39	C	1.123102	-0.882178	-0.308709
C40	C	1.142373	-0.930411	-0.380841
C41	C	1.161671	-0.832668	-0.452995
C42	C	1.070254	-0.832771	-0.361449
C43	C	1.089532	-0.882078	-0.433639
C44	C	1.142304	-0.700327	-0.380802
C45	C	1.142396	-1.014507	-0.380864
C46	C	1.348465	-0.357823	-0.380822
C47	C	1.436322	-0.357833	-0.380830
C48	C	1.142340	-0.357736	-0.586972
C49	C	1.142358	-0.357709	-0.674829
C50	C	1.142380	-0.164092	-0.380853
C51	C	1.142415	-0.081546	-0.380874
C52	C	1.091897	-0.310130	-1.046318
C53	C	1.192957	-0.405132	-1.046291
C54	C	1.192944	-0.405150	-0.963745
C55	C	1.142405	-0.357657	-0.922482
C56	C	1.091880	-0.310148	-0.963765
C57	C	1.243462	-0.452664	-0.922456
C58	C	1.243450	-0.452683	-0.839905
C59	C	1.192915	-0.405187	-0.798640
C60	C	1.142388	-0.357675	-0.839928
C61	C	1.091850	-0.310182	-0.798665
C62	C	1.041327	-0.262666	-0.839952
C63	C	1.041345	-0.262651	-0.922500
C64	C	1.192896	-0.405202	-0.716092
C65	C	1.091833	-0.310200	-0.716112
C66	C	1.142301	-0.357805	-0.175438
C67	C	1.142436	-0.357623	-0.087581
H68	H	0.717609	-0.491636	-0.522817
C69	C	0.351036	-0.268052	-0.285565
C70	C	0.432206	-0.258005	-0.274904
H71	H	0.323023	-0.235785	-0.251321
H72	H	0.337536	-0.257244	-0.338689
H73	H	0.337500	-0.317939	-0.273901
H74	H	0.445743	-0.208118	-0.286574
H75	H	0.445712	-0.268807	-0.221768
H76	H	1.284588	-0.491375	-0.806297
C77	C	0.932469	-0.829503	-0.393769
C78	C	0.987969	-0.803508	-0.339286
H79	H	0.881670	-0.811440	-0.380075
H80	H	0.946075	-0.812576	-0.445037
H81	H	0.932016	-0.882125	-0.393133
H82	H	0.988427	-0.750886	-0.339926
H83	H	0.974359	-0.820431	-0.288004
C84	C	0.900582	-0.299780	-0.224023
C85	C	0.853147	-0.257955	-0.274865
H86	H	0.928586	-0.267505	-0.189781
H87	H	0.868359	-0.332096	-0.193731
H88	H	0.936982	-0.328095	-0.254078
H89	H	0.816743	-0.229644	-0.244810
H90	H	0.885373	-0.225626	-0.305160
H91	H	0.717556	-0.223969	-0.238797
H92	H	1.177890	-0.811013	-0.514039
C93	C	1.295753	-0.988871	-0.422849
C94	C	1.296788	-0.911305	-0.422365
H95	H	1.346563	-1.006913	-0.436536
H96	H	1.281739	-1.006554	-0.371981
H97	H	1.258263	-1.005750	-0.460372
H98	H	1.334275	-0.894427	-0.384838
H99	H	1.310812	-0.893616	-0.473241
C100	C	1.156524	-0.886622	-0.171227
C101	C	1.101117	-0.911532	-0.226375
H102	H	1.142952	-0.904740	-0.120397
H103	H	1.207370	-0.904231	-0.185356
H104	H	1.156816	-0.834001	-0.170520
H105	H	1.100829	-0.964154	-0.227086
H106	H	1.050257	-0.893927	-0.212242
C107	C	1.330994	-0.828374	-0.288399
C108	C	1.255532	-0.803487	-0.267908
H109	H	1.368252	-0.810308	-0.251264
H110	H	1.331754	-0.880989	-0.288324
H111	H	1.344156	-0.810691	-0.339502
H112	H	1.242366	-0.821175	-0.216806
H113	H	1.254769	-0.750861	-0.267974
H114	H	0.567778	-0.223986	-0.238817
H115	H	1.050765	-0.271441	-1.079937
H116	H	0.444013	-0.444106	-0.472367
C117	C	1.237738	-0.447414	-0.589539
C118	C	1.248423	-0.457428	-0.670709
H119	H	1.272017	-0.479662	-0.561524
H120	H	1.249332	-0.397527	-0.576036
H121	H	1.184619	-0.458276	-0.576009
H122	H	1.301541	-0.446561	-0.684240
H123	H	1.236835	-0.507326	-0.684218
H124	H	1.050681	-0.271522	-0.682521
H125	H	0.567847	-0.491648	-0.522814
H126	H	1.234098	-0.443804	-1.079892
C127	C	0.941446	-0.168743	-0.914235
C128	C	0.985808	-0.210429	-0.967882
H129	H	0.907163	-0.136503	-0.942256
H130	H	0.911194	-0.201102	-0.882023
H131	H	0.975898	-0.140344	-0.882053
H132	H	0.951357	-0.238832	-1.000061
H133	H	1.016063	-0.178067	-1.000108
H134	H	1.044857	-0.903604	-0.478311
H135	H	1.000175	-0.224001	-0.806344
C136	C	1.288346	-0.494823	-1.048986
C137	C	1.299001	-0.504874	-0.967812
H138	H	1.322636	-0.527057	-1.076988
H139	H	1.235238	-0.505672	-1.062497
H140	H	1.299950	-0.444923	-1.062525
H141	H	1.287391	-0.554773	-0.954272
H142	H	1.352121	-0.494030	-0.954296
C143	C	0.799545	-0.499351	-0.531013
C144	C	0.853195	-0.457603	-0.486720
H145	H	0.827564	-0.531613	-0.565257
H146	H	0.767336	-0.527721	-0.496521
H147	H	0.767360	-0.467027	-0.561310
H148	H	0.885377	-0.489927	-0.456418
H149	H	0.885418	-0.429230	-0.521216
