data_functionalizedCrystal
_audit_creation_method	'MofGen! by Chris Wilmer'
_symmetry_space_group_name_H-M	'P1'
_symmetry_Int_Tables_number	1
_symmetry_cell_setting	triclinic
loop_
_symmetry_equiv_pos_as_xyz
  x,y,z
_cell_length_a	10.686551
_cell_length_b	17.077404
_cell_length_c	17.077402
_cell_angle_alpha	90.023108
_cell_angle_beta	94.409396
_cell_angle_gamma	94.396964
loop_
_atom_site_label
_atom_site_type_symbol
_atom_site_fract_x
_atom_site_fract_y
_atom_site_fract_z
Zn1	Zn	-0.713481	-1.234147	0.278394
Zn2	Zn	-0.213481	-0.734147	0.778394
Zn3	Zn	-0.502461	-1.223971	0.419757
Zn4	Zn	-0.002461	-0.723971	0.919757
Zn5	Zn	-0.502489	-1.092797	0.288509
Zn6	Zn	-0.002489	-0.592797	0.788509
Zn7	Zn	-0.713408	-1.102843	0.409626
Zn8	Zn	-0.213408	-0.602843	0.909626
O9	O	-0.607960	-1.163439	0.349071
O10	O	-0.107960	-0.663439	0.849071
O11	O	-0.685508	-1.342645	0.297153
O12	O	-0.185508	-0.842645	0.797153
O13	O	-0.325882	-1.198107	0.410820
O14	O	0.174118	-0.698107	0.910820
O15	O	-0.530519	-1.111602	0.177318
O16	O	-0.030519	-0.611602	0.677318
O17	O	-0.530473	-1.335169	0.401012
O18	O	-0.030473	-0.835169	0.901012
O19	O	-0.685534	-1.215451	0.169887
O20	O	-0.185534	-0.715451	0.669887
O21	O	-0.325902	-1.101734	0.314392
O22	O	0.174098	-0.601734	0.814392
O23	O	-0.530448	-0.984282	0.304568
O24	O	-0.030448	-0.484282	0.804568
O25	O	-0.890000	-1.128724	0.383745
O26	O	-0.390000	-0.628724	0.883745
O27	O	-0.685410	-0.991663	0.393552
O28	O	-0.185410	-0.491663	0.893552
O29	O	-0.890054	-1.225192	0.287329
O30	O	-0.390054	-0.725192	0.787329
O31	O	-0.530402	-1.207849	0.528262
O32	O	-0.030402	-0.707849	1.028262
O33	O	-0.685383	-1.118857	0.520819
O34	O	-0.185383	-0.618857	1.020819
C35	C	-0.607925	-0.959490	0.349059
C36	C	-0.107925	-0.459490	0.849059
C37	C	-0.607940	-0.872241	0.349071
C38	C	-0.107940	-0.372241	0.849071
C39	C	-0.607909	-1.163361	0.553022
C40	C	-0.107909	-0.663361	1.053022
C41	C	-0.607930	-1.163402	0.640271
C42	C	-0.107930	-0.663402	1.140271
C43	C	-0.937093	-1.179214	0.333279
C44	C	-0.437093	-0.679214	0.833279
C45	C	-1.077350	-1.185936	0.326549
C46	C	-0.577350	-0.685936	0.826549
C47	C	-0.280107	-1.147772	0.364746
C48	C	0.219893	-0.647772	0.864746
C49	C	-0.139850	-1.141202	0.371255
C50	C	0.360150	-0.641202	0.871255
C51	C	-0.607995	-1.368185	0.349085
C52	C	-0.107995	-0.868185	0.849085
C53	C	-0.608011	-1.455436	0.349090
C54	C	-0.108011	-0.955436	0.849090
C55	C	-0.688499	-0.835108	0.395487
C56	C	-0.188499	-0.335108	0.895487
C57	C	-0.688519	-0.753129	0.395488
C58	C	-0.188519	-0.253129	0.895488
C59	C	-0.607973	-0.708283	0.349076
C60	C	-0.107973	-0.208283	0.849076
C61	C	-0.527410	-0.745421	0.302655
C62	C	-0.027410	-0.245421	0.802655
C63	C	-0.527398	-0.827399	0.302650
C64	C	-0.027398	-0.327399	0.802650
C65	C	-0.527441	-0.574553	0.302669
C66	C	-0.027441	-0.074553	0.802669
C67	C	-0.527452	-0.492568	0.302674
C68	C	-0.027452	0.007432	0.802674
C69	C	-0.688562	-0.500282	0.395506
C70	C	-0.188562	-0.000282	0.895506
C71	C	-0.688549	-0.582260	0.395502
C72	C	-0.188549	-0.082260	0.895502
C73	C	-0.607985	-0.619393	0.349081
C74	C	-0.107985	-0.119393	0.849081
C75	C	-0.608038	-1.163541	0.144323
C76	C	-0.108038	-0.663541	0.644323
C77	C	-0.608071	-1.163584	0.057072
C78	C	-0.108071	-0.663584	0.557072
C79	C	-0.527318	-1.209795	0.685106
C80	C	-0.027318	-0.709795	1.185106
C81	C	-0.527350	-1.209835	0.767085
C82	C	-0.027350	-0.709835	1.267085
C83	C	-0.607989	-1.163477	0.804227
C84	C	-0.107989	-0.663477	1.304227
C85	C	-0.688610	-1.117081	0.759385
C86	C	-0.188610	-0.617081	1.259385
C87	C	-0.688583	-1.117046	0.677408
C88	C	-0.188583	-0.617046	1.177408
C89	C	-0.688658	-1.117156	0.930253
C90	C	-0.188658	-0.617156	1.430253
C91	C	-0.688683	-1.117190	1.012236
C92	C	-0.188683	-0.617190	1.512236
C93	C	-0.527425	-1.209945	1.019931
C94	C	-0.027425	-0.709945	1.519931
C95	C	-0.527398	-1.209910	0.937953
C96	C	-0.027398	-0.709910	1.437953
C97	C	-0.608018	-1.163514	0.893117
C98	C	-0.108018	-0.663514	1.393117
H99	H	-1.086058	-1.097762	0.414680
H100	H	-0.586058	-0.597762	0.914680
H101	H	-0.461848	-0.604783	0.264861
H102	H	0.038152	-0.104783	0.764861
C103	C	-0.438852	-0.443240	0.251616
C104	C	0.061148	0.056760	0.751616
N105	N	-0.372117	-0.406085	0.213157
N106	N	0.127883	0.093915	0.713157
H107	H	-0.461706	-1.247613	0.803587
H108	H	0.038294	-0.747613	1.303587
C109	C	-1.150024	-1.244628	0.267880
C110	C	-0.650024	-0.744628	0.767880
N111	N	-1.204764	-1.288832	0.223690
N112	N	-0.704764	-0.788832	0.723690
H113	H	-0.461730	-1.247654	0.907713
H114	H	0.038270	-0.747654	1.407713
C115	C	-0.777107	-0.884432	0.446545
C116	C	-0.277107	-0.384432	0.946545
N117	N	-0.843853	-0.921580	0.485001
N118	N	-0.343853	-0.421580	0.985001
H119	H	-0.754117	-0.722900	0.433285
H120	H	-0.254117	-0.222900	0.933285
C121	C	-0.438812	-0.696088	0.251599
C122	C	0.061188	-0.196088	0.751599
N123	N	-0.372074	-0.658931	0.213145
N124	N	0.127926	-0.158931	0.713145
H125	H	-0.754273	-1.079339	0.789632
H126	H	-0.254273	-0.579339	1.289632
H127	H	-0.754130	-0.618772	0.433299
H128	H	-0.254130	-0.118772	0.933299
H129	H	-0.754164	-0.470045	0.433301
H130	H	-0.254164	0.029955	0.933301
C131	C	-0.438774	-0.868244	0.251591
C132	C	0.061226	-0.368244	0.751591
N133	N	-0.372021	-0.899008	0.213130
N134	N	0.127979	-0.399008	0.713130
C135	C	-0.438604	-1.260792	0.644258
C136	C	0.061396	-0.760792	1.144258
N137	N	-0.371785	-1.299207	0.613494
N138	N	0.128215	-0.799207	1.113494
C139	C	-0.438753	-1.260989	1.069251
C140	C	0.061247	-0.760989	1.569251
N141	N	-0.371967	-1.299434	1.106403
N142	N	0.128033	-0.799434	1.606403
C143	C	-0.777403	-1.066203	1.053090
C144	C	-0.277403	-0.566203	1.553090
N145	N	-0.844233	-1.027801	1.083861
N146	N	-0.344233	-0.527801	1.583861
H147	H	-0.754312	-1.079378	0.893749
H148	H	-0.254312	-0.579378	1.393749
C149	C	-0.777264	-1.066010	0.628088
C150	C	-0.277264	-0.566010	1.128088
N151	N	-0.844064	-1.027570	0.590942
N152	N	-0.344064	-0.527570	1.090942
