data_functionalizedCrystal
_audit_creation_method	'MofGen! by Chris Wilmer'
_symmetry_space_group_name_H-M	'P1'
_symmetry_Int_Tables_number	1
_symmetry_cell_setting	triclinic
loop_
_symmetry_equiv_pos_as_xyz
  x,y,z
_cell_length_a	19.288864
_cell_length_b	15.944551
_cell_length_c	17.766277
_cell_angle_alpha	89.992686
_cell_angle_beta	89.976791
_cell_angle_gamma	83.317492
loop_
_atom_site_label
_atom_site_type_symbol
_atom_site_fract_x
_atom_site_fract_y
_atom_site_fract_z
O1	O	0.921629	0.104784	-0.062837
O2	O	0.719406	0.118919	-0.062786
O3	O	0.826040	-0.010445	-0.062806
O4	O	0.814995	0.234147	-0.062817
O5	O	0.826021	-0.010451	0.062382
O6	O	0.719387	0.118912	0.062403
O7	O	0.921610	0.104777	0.062351
Cu8	Cu	0.820497	0.111844	0.073808
Cu9	Cu	0.820519	0.111852	-0.074242
O10	O	0.814976	0.234141	0.062372
C11	C	0.693519	0.118461	-0.000185
C12	C	0.616411	0.117095	-0.000165
C13	C	0.825572	-0.041740	-0.000212
C14	C	0.824197	-0.134981	-0.000211
C15	C	0.571915	0.193000	-0.000181
C16	C	0.499465	0.191717	-0.000189
C17	C	0.471514	0.114526	-0.000197
C18	C	0.516020	0.038611	-0.000178
C19	C	0.588469	0.039896	-0.000162
C20	C	0.363099	0.053847	-0.044079
C21	C	0.290651	0.052565	-0.044099
C22	C	0.248058	0.110560	-0.000242
C23	C	0.277920	0.169850	0.043625
C24	C	0.350369	0.171135	0.043641
C25	C	0.392956	0.113124	-0.000214
C26	C	0.125002	0.185079	-0.000265
C27	C	0.052550	0.183793	-0.000269
C28	C	0.069107	0.030684	-0.000265
C29	C	0.141557	0.031972	-0.000254
C30	C	0.169500	0.109172	-0.000258
C31	C	0.754815	-0.349571	-0.000204
C32	C	0.787024	-0.410715	0.061514
C33	C	0.821710	-0.305697	-0.000216
C34	C	0.787059	-0.410692	-0.061912
C35	C	0.819303	-0.470601	-0.000224
C36	C	0.853938	-0.365614	0.061552
C37	C	0.853963	-0.365585	-0.061929
C38	C	0.886222	-0.426712	-0.000197
C39	C	0.823095	-0.210700	-0.000211
C40	C	0.817924	-0.565597	-0.000224
C41	C	0.947497	0.105235	-0.000251
C42	C	1.024605	0.106600	-0.000276
C43	C	0.815444	0.265436	-0.000225
C44	C	0.816819	0.358677	-0.000230
N45	N	0.820486	0.111838	0.177938
N46	N	0.820535	0.111851	-0.178373
C47	C	0.867719	0.054584	0.217316
C48	C	0.867723	0.054580	0.296118
C49	C	0.820501	0.111845	0.335539
C50	C	0.773259	0.169103	0.296151
C51	C	0.773252	0.169100	0.217351
C52	C	0.811404	0.188378	0.460375
C53	C	0.811416	0.188382	0.539173
C54	C	0.820520	0.111855	0.578585
C55	C	0.829626	0.035319	0.539188
C56	C	0.829618	0.035316	0.460387
C57	C	0.820503	0.111854	0.420984
C58	C	0.867759	0.054592	0.703409
C59	C	0.867759	0.054587	0.782212
C60	C	0.773298	0.169117	0.782244
C61	C	0.773295	0.169115	0.703442
C62	C	0.820530	0.111853	0.664029
H63	H	0.594661	0.255862	-0.000185
H64	H	0.734809	0.215728	0.328251
N65	N	0.725062	0.227625	0.822490
N66	N	0.682896	0.278749	0.787316
H67	H	0.648827	0.320072	0.815742
N68	N	0.955937	-0.468584	-0.000158
N69	N	0.976118	-0.517594	0.052371
H70	H	1.025354	-0.547167	0.052403
H71	H	0.906219	0.007963	0.671318
N72	N	0.380886	0.231686	0.088443
N73	N	0.415805	0.283534	0.057813
H74	H	0.437360	0.326297	0.089456
H75	H	0.699288	-0.316049	-0.000128
N76	N	0.633915	-0.037651	-0.000143
N77	N	0.608955	-0.106569	-0.000142
H78	H	0.641052	-0.161338	-0.000129
H79	H	0.803978	0.250700	0.428292
H80	H	0.046351	-0.032167	-0.000319
N81	N	0.889446	-0.340448	-0.127395
N82	N	0.943233	-0.304306	-0.120578
H83	H	0.968290	-0.286551	-0.166818
N84	N	0.915966	-0.003911	0.336357
N85	N	0.915022	-0.081551	0.327580
H86	H	0.949093	-0.122859	0.355999
H87	H	0.758764	-0.430657	-0.114093
H88	H	0.463229	0.253530	-0.000199
H89	H	0.758722	-0.430717	0.113705
N90	N	0.916008	-0.003913	0.822427
N91	N	0.958173	-0.055033	0.787223
H92	H	0.992250	-0.096351	0.815625
H93	H	0.906179	0.007956	0.185228
H94	H	0.734837	0.215740	0.671378
N95	N	0.724996	0.227590	0.177135
N96	N	0.682831	0.278712	0.212336
H97	H	0.648749	0.320023	0.183933
N98	N	0.838925	-0.042855	0.420144
N99	N	0.893450	-0.092459	0.428916
H100	H	0.900021	-0.147670	0.400493
H101	H	0.243242	0.217075	0.079338
N102	N	0.889387	-0.340697	0.127091
N103	N	0.913611	-0.395033	0.173765
H104	H	0.938644	-0.377435	0.220053
H105	H	0.837039	-0.026997	0.571275
N106	N	0.802124	0.266565	0.579401
N107	N	0.793989	0.334887	0.544206
H108	H	0.787427	0.390107	0.572615
N109	N	0.153540	0.263938	-0.000250
N110	N	0.139878	0.315043	0.052522
H111	H	0.160031	0.370739	0.052535
N112	N	0.007105	0.261340	-0.000275
N113	N	0.032067	0.330257	-0.000276
H114	H	-0.000028	0.385027	-0.000280
N115	N	0.187013	-0.045564	-0.000233
N116	N	0.184435	-0.096966	0.052539
H117	H	0.216539	-0.151730	0.052557
N118	N	0.260165	-0.008007	-0.088907
N119	N	0.276613	-0.085177	-0.077839
H120	H	0.255087	-0.127960	-0.109486
N121	N	0.406606	-0.005408	-0.088868
N122	N	0.406872	-0.082867	-0.077811
H123	H	0.437600	-0.124716	-0.109440
N124	N	0.487461	-0.040231	-0.000178
N125	N	0.422774	-0.041369	-0.000193
H126	H	0.402604	-0.097054	-0.000189
