data_functionalizedCrystal
_audit_creation_method	'MofGen! by Chris Wilmer'
_symmetry_space_group_name_H-M	'P1'
_symmetry_Int_Tables_number	1
_symmetry_cell_setting	triclinic
loop_
_symmetry_equiv_pos_as_xyz
  x,y,z
_cell_length_a	17.640112
_cell_length_b	18.050589
_cell_length_c	17.639514
_cell_angle_alpha	78.794201
_cell_angle_beta	92.187121
_cell_angle_gamma	101.252307
loop_
_atom_site_label
_atom_site_type_symbol
_atom_site_fract_x
_atom_site_fract_y
_atom_site_fract_z
Zn1	Zn	1.247691	-0.095522	0.195084
Zn2	Zn	1.221963	-0.200459	0.068113
Zn3	Zn	1.095063	-0.105291	0.093733
Zn4	Zn	1.120638	-0.248705	0.220695
O5	O	1.171339	-0.162494	0.144406
O6	O	1.350558	-0.085163	0.156800
O7	O	1.183660	-0.171732	-0.034761
O8	O	1.115373	-0.000059	0.107181
O9	O	1.331656	-0.162259	0.063515
O10	O	1.227508	0.007118	0.181643
O11	O	1.090427	-0.101812	-0.015938
O12	O	0.992176	-0.148594	0.132015
O13	O	1.158962	-0.244488	0.323570
O14	O	1.010966	-0.253960	0.225294
O15	O	1.252307	-0.131945	0.304753
O16	O	1.208459	-0.310795	0.088350
O17	O	1.134016	-0.346241	0.200451
C18	C	0.974013	-0.207573	0.184214
C19	C	0.889600	-0.226879	0.201263
C20	C	0.563032	-0.015819	0.014899
C21	C	0.483715	-0.033976	0.030929
C22	C	0.503301	-0.143799	0.127892
C23	C	0.582622	-0.125649	0.111874
C24	C	0.612480	-0.061659	0.055375
C25	C	0.632071	-0.171489	0.152350
C26	C	0.711384	-0.153342	0.136329
C27	C	0.741248	-0.089356	0.079832
C28	C	0.691793	-0.043512	0.039355
C29	C	0.602210	-0.235482	0.208844
C30	C	0.651659	-0.281322	0.249320
C31	C	0.730974	-0.263172	0.233304
C32	C	0.760838	-0.199186	0.176807
C33	C	0.780429	-0.309016	0.273781
C34	C	0.859742	-0.290870	0.257761
C35	C	0.840152	-0.181039	0.160786
C36	C	1.171245	-0.355465	0.144412
C37	C	1.171279	-0.438007	0.144426
C38	C	1.130843	-0.656746	0.205359
C39	C	1.098345	-0.699896	0.139795
C40	C	1.171356	-0.589122	0.144421
C41	C	1.203892	-0.693047	0.209985
C42	C	1.171429	-0.735093	0.144422
C43	C	1.138814	-0.631187	0.078827
C44	C	1.244402	-0.624333	0.149058
C45	C	1.211922	-0.667447	0.083441
C46	C	1.171311	-0.505032	0.144421
C47	C	1.171472	-0.819180	0.144414
C48	C	1.369435	-0.117240	0.104443
C49	C	1.453852	-0.097955	0.087413
C50	C	1.211357	-0.192509	0.342487
C51	C	1.228411	-0.205299	0.426897
C52	C	1.171458	0.031233	0.144413
C53	C	1.171508	0.113788	0.144415
C54	C	1.041814	-0.065375	0.753532
C55	C	1.057856	-0.077405	0.832844
C56	C	1.154929	-0.150205	0.813226
C57	C	1.138898	-0.138178	0.733910
C58	C	1.082340	-0.095763	0.704069
C59	C	1.179424	-0.168566	0.684447
C60	C	1.163391	-0.156543	0.605138
C61	C	1.106833	-0.114132	0.575291
C62	C	1.066307	-0.083740	0.624760
C63	C	1.235979	-0.210985	0.714290
C64	C	1.276504	-0.241373	0.664827
C65	C	1.260476	-0.229345	0.585516
C66	C	1.203918	-0.186934	0.555669
C67	C	1.301002	-0.259737	0.536047
C68	C	1.284970	-0.247714	0.456738
C69	C	1.187885	-0.174911	0.476360
C70	C	1.131466	-0.132612	0.947097
C71	C	1.114400	-0.119814	0.862690
H72	H	0.756104	-0.361121	0.319776
H73	H	0.900005	-0.328196	0.290721
H74	H	1.322552	-0.275910	0.689135
H75	H	1.306134	-0.591567	0.153010
N76	N	0.822261	-0.070810	0.063449
N77	N	0.845665	-0.069165	-0.002966
H78	H	0.902881	-0.056065	-0.014539
H79	H	1.111255	-0.604320	0.023378
N80	N	1.254924	-0.673947	0.018728
N81	N	1.234168	-0.649176	-0.048435
H82	H	1.264535	-0.653768	-0.094141
H83	H	1.231381	-0.720016	0.265432
N84	N	0.722291	0.021869	-0.018344
N85	N	0.678136	0.062802	-0.054472
H86	H	0.699675	0.108978	-0.095218
H87	H	0.587346	0.036298	-0.031096
N88	N	0.870671	-0.115680	0.103073
N89	N	0.941487	-0.099491	0.088777
H90	H	0.963043	-0.053334	0.048018
N91	N	1.087766	-0.650066	0.269946
N92	N	1.017774	-0.680586	0.276745
H93	H	0.987348	-0.675868	0.322356
N94	N	0.433213	0.012859	-0.010429
N95	N	0.459886	0.069988	-0.060870
H96	H	0.424221	0.103065	-0.090080
H97	H	1.020259	-0.049192	0.600461
H98	H	1.141837	-0.140363	0.452061
N99	N	0.472785	-0.209162	0.185595
N100	N	0.401968	-0.225359	0.199891
H101	H	0.380416	-0.271522	0.240646
N102	N	0.621153	-0.346691	0.307020
N103	N	0.571465	-0.400047	0.289163
H104	H	0.549922	-0.446216	0.329915
H105	H	1.093776	-0.104350	0.510713
N106	N	0.984061	-0.022025	0.723034
N107	N	0.990946	0.046321	0.730875
H108	H	0.950164	0.076939	0.709332
H109	H	1.024853	-0.052653	0.873115
H110	H	1.200977	-0.184742	0.837534
N111	N	1.252364	-0.223290	0.795301
N112	N	1.275448	-0.167124	0.827541
H113	H	1.287024	-0.175827	0.884755
H114	H	1.317980	-0.272447	0.416462
N115	N	0.521195	-0.254003	0.225219
N116	N	0.489052	-0.206609	0.248349
H117	H	0.431836	-0.219688	0.259917
N118	N	1.020886	-0.740985	0.134871
N119	N	0.973028	-0.744105	0.186408
H120	H	0.918321	-0.773122	0.182936
N121	N	1.358761	-0.303070	0.566548
N122	N	1.373061	-0.313808	0.637362
H123	H	1.413854	-0.344414	0.658905
