data_functionalizedCrystal
_audit_creation_method	'MofGen! by Chris Wilmer'
_symmetry_space_group_name_H-M	'P1'
_symmetry_Int_Tables_number	1
_symmetry_cell_setting	triclinic
loop_
_symmetry_equiv_pos_as_xyz
  x,y,z
_cell_length_a	17.077404
_cell_length_b	14.908506
_cell_length_c	17.077396
_cell_angle_alpha	93.269594
_cell_angle_beta	89.980223
_cell_angle_gamma	93.315312
loop_
_atom_site_label
_atom_site_type_symbol
_atom_site_fract_x
_atom_site_fract_y
_atom_site_fract_z
Zn1	Zn	1.182022	-0.359269	-0.461886
Zn2	Zn	1.682022	0.140731	0.038114
Zn3	Zn	1.174357	-0.510140	-0.338194
Zn4	Zn	1.674357	-0.010140	0.161806
Zn5	Zn	1.050753	-0.359288	-0.330634
Zn6	Zn	1.550753	0.140712	0.169366
Zn7	Zn	1.043153	-0.510074	-0.469414
Zn8	Zn	1.543153	-0.010074	0.030586
O9	O	1.112571	-0.434693	-0.400032
O10	O	1.612571	0.065307	0.099968
O11	O	1.290852	-0.379302	-0.445491
O12	O	1.790852	0.120698	0.054509
O13	O	1.157934	-0.490165	-0.227346
O14	O	1.657934	0.009835	0.272654
O15	O	1.074555	-0.233041	-0.341730
O16	O	1.574555	0.266959	0.158270
O17	O	1.285220	-0.490147	-0.354616
O18	O	1.785220	0.009853	0.145384
O19	O	1.170998	-0.233027	-0.438160
O20	O	1.670998	0.266973	0.061840
O21	O	1.067122	-0.379335	-0.221792
O22	O	1.567122	0.120665	0.278208
O23	O	0.939899	-0.379270	-0.349030
O24	O	1.439899	0.120730	0.150970
O25	O	1.061602	-0.490034	-0.578261
O26	O	1.561602	0.009966	-0.078261
O27	O	0.934315	-0.490052	-0.450991
O28	O	1.434315	0.009948	0.049009
O29	O	1.163628	-0.379238	-0.572730
O30	O	1.663628	0.120762	-0.072730
O31	O	1.150564	-0.636376	-0.361916
O32	O	1.650564	-0.136376	0.138084
O33	O	1.054169	-0.636327	-0.458322
O34	O	1.554169	-0.136327	0.041678
C35	C	0.908625	-0.434657	-0.400008
C36	C	1.408625	0.065343	0.099992
C37	C	0.821375	-0.434663	-0.400017
C38	C	1.321375	0.065337	0.099983
C39	C	0.442666	-0.492506	-0.453073
C40	C	0.942666	0.007494	0.046927
C41	C	0.524647	-0.492494	-0.453061
C42	C	1.024647	0.007506	0.046939
C43	C	0.568524	-0.434717	-0.400046
C44	C	1.068524	0.065283	0.099954
C45	C	0.530415	-0.376954	-0.347035
C46	C	1.030415	0.123046	0.152965
C47	C	0.448435	-0.376971	-0.347044
C48	C	0.948435	0.123029	0.152956
C49	C	0.701287	-0.376921	-0.347020
C50	C	1.201287	0.123079	0.152980
C51	C	0.783272	-0.376903	-0.347011
C52	C	1.283272	0.123097	0.152989
C53	C	0.777499	-0.492444	-0.453037
C54	C	1.277499	0.007556	0.046963
C55	C	0.695519	-0.492461	-0.453046
C56	C	1.195519	0.007539	0.046954
C57	C	0.657416	-0.434697	-0.400036
C58	C	1.157416	0.065303	0.099964
C59	C	1.100731	-0.669085	-0.411773
C60	C	1.600731	-0.169085	0.088227
C61	C	1.095738	-0.769360	-0.416823
C62	C	1.595738	-0.269360	0.083177
C63	C	1.038473	-0.910699	-0.474085
C64	C	1.538473	-0.410699	0.025915
C65	C	1.043163	-0.816482	-0.469347
C66	C	1.543163	-0.316482	0.030653
C67	C	1.143627	-0.816460	-0.369035
C68	C	1.643627	-0.316460	0.130965
C69	C	1.138937	-0.910676	-0.373774
C70	C	1.638937	-0.410676	0.126226
C71	C	1.086358	-0.957792	-0.426300
C72	C	1.586358	-0.457792	0.073700
C73	C	1.081664	-1.052011	-0.431034
C74	C	1.581664	-0.552011	0.068966
C75	C	1.182132	-1.051987	-0.330727
C76	C	1.682132	-0.551987	0.169273
C77	C	1.186822	-0.957770	-0.325988
C78	C	1.686822	-0.457770	0.174012
C79	C	1.317314	-0.434730	-0.400057
C80	C	1.817314	0.065270	0.099943
C81	C	1.404563	-0.434746	-0.400068
C82	C	1.904563	0.065254	0.099932
C83	C	1.112622	-0.434626	-0.604773
C84	C	1.612622	0.065374	-0.104773
C85	C	1.112644	-0.434598	-0.692022
C86	C	1.612644	0.065402	-0.192022
C87	C	1.124479	-0.199385	-0.388262
C88	C	1.624479	0.300615	0.111738
C89	C	1.129554	-0.099111	-0.383247
C90	C	1.629554	0.400889	0.116753
C91	C	1.165771	-0.376902	-0.730133
C92	C	1.665771	0.123098	-0.230133
C93	C	1.165782	-0.376872	-0.812112
C94	C	1.665782	0.123128	-0.312112
C95	C	1.112669	-0.434543	-0.855978
C96	C	1.612669	0.065457	-0.355978
C97	C	1.059536	-0.492242	-0.817862
C98	C	1.559536	0.007758	-0.317862
C99	C	1.059522	-0.492267	-0.735884
C100	C	1.559522	0.007733	-0.235884
C101	C	1.059570	-0.492188	-0.988729
C102	C	1.559570	0.007812	-0.488729
C103	C	1.059585	-0.492164	-1.070712
C104	C	1.559585	0.007836	-0.570712
C105	C	1.165831	-0.376793	-1.064957
C106	C	1.665831	0.123207	-0.564957
C107	C	1.165817	-0.376818	-0.982979
C108	C	1.665817	0.123182	-0.482979
C109	C	1.112684	-0.434518	-0.944868
C110	C	1.612684	0.065482	-0.444868
C111	C	1.112569	-0.434694	-0.196084
C112	C	1.612569	0.065306	0.303916
C113	C	1.112712	-0.434468	-0.108824
C114	C	1.612712	0.065532	0.391176
H115	H	0.808526	-0.539476	-0.496202
H116	H	1.308526	-0.039476	0.003798
H117	H	1.004172	-0.778141	-0.508259
H118	H	1.504172	-0.278141	-0.008259
Br119	Br	0.576355	-0.570891	-0.524996
Br120	Br	1.076355	-0.070891	-0.024996
H121	H	1.186442	-0.778086	-0.326275
H122	H	1.686442	-0.278086	0.173725
Br123	Br	0.987448	-0.570506	-0.877394
Br124	Br	1.487448	-0.070506	-0.377394
H125	H	0.670266	-0.329881	-0.303855
H126	H	1.170266	0.170119	0.196145
H127	H	1.209092	-0.329810	-1.095991
H128	H	1.709092	0.170190	-0.595991
Br129	Br	1.010302	-1.115954	-0.502313
Br130	Br	1.510302	-0.615954	-0.002313
Br131	Br	1.237921	-0.298609	-0.863833
Br132	Br	1.737921	0.201391	-0.363833
Br133	Br	0.987413	-0.570566	-0.684160
Br134	Br	1.487413	-0.070566	-0.184160
Br135	Br	1.247109	-1.115905	-0.265857
Br136	Br	1.747109	-0.615905	0.234143
Br137	Br	1.258181	-0.893819	-0.254711
Br138	Br	1.758181	-0.393819	0.245289
Br139	Br	0.635972	-0.570867	-0.525002
Br140	Br	1.135972	-0.070867	-0.025002
H141	H	1.209025	-0.329942	-0.694422
H142	H	1.709025	0.170058	-0.194422
Br143	Br	0.967103	-0.974646	-0.545353
Br144	Br	1.467103	-0.474646	-0.045353
H145	H	0.406947	-0.539550	-0.496248
H146	H	0.906947	-0.039550	0.003752
H147	H	0.566146	-0.329915	-0.303866
H148	H	1.066146	0.170085	0.196134
H149	H	1.016293	-0.539159	-0.957701
H150	H	1.516293	-0.039159	-0.457701
H151	H	1.209070	-0.329862	-0.947265
H152	H	1.709070	0.170138	-0.447265
H153	H	1.016334	-0.539123	-1.106427
H154	H	1.516334	-0.039123	-0.606427
H155	H	0.818995	-0.329846	-0.303849
H156	H	1.318995	0.170154	0.196151
Br157	Br	0.396722	-0.298586	-0.275099
Br158	Br	0.896722	0.201414	0.224901
