data_functionalizedCrystal
_audit_creation_method	'MofGen! by Chris Wilmer'
_symmetry_space_group_name_H-M	'P1'
_symmetry_Int_Tables_number	1
_symmetry_cell_setting	triclinic
loop_
_symmetry_equiv_pos_as_xyz
  x,y,z
_cell_length_a	23.532407
_cell_length_b	23.532407
_cell_length_c	9.730223
_cell_angle_alpha	89.990960
_cell_angle_beta	90.002051
_cell_angle_gamma	82.848678
loop_
_atom_site_label
_atom_site_type_symbol
_atom_site_fract_x
_atom_site_fract_y
_atom_site_fract_z
O1	O	0.755259	0.069135	-0.114132
O2	O	1.255259	0.569135	0.385868
O3	O	0.589395	0.079138	-0.114175
O4	O	1.089395	0.579138	0.385825
O5	O	0.677328	-0.008795	-0.114127
O6	O	1.177328	0.491205	0.385873
O7	O	0.667325	0.157068	-0.114180
O8	O	1.167325	0.657068	0.385820
O9	O	0.677323	-0.008798	0.114453
O10	O	1.177323	0.491202	0.614453
O11	O	0.589390	0.079136	0.114405
O12	O	1.089390	0.579136	0.614405
O13	O	0.755253	0.069132	0.114448
O14	O	1.255253	0.569132	0.614448
Zn15	Zn	0.672320	0.074134	0.150719
Zn16	Zn	1.172320	0.574134	0.650719
Zn17	Zn	0.672328	0.074137	-0.150445
Zn18	Zn	1.172328	0.574137	0.349555
O19	O	0.667320	0.157066	0.114400
O20	O	1.167320	0.657066	0.614400
C21	C	0.568176	0.078882	0.000110
C22	C	1.068176	0.578882	0.500110
C23	C	0.504959	0.078116	0.000095
C24	C	1.004959	0.578116	0.500095
C25	C	0.105856	0.125350	0.000143
C26	C	0.605856	0.625350	0.500143
C27	C	0.046456	0.124638	0.000151
C28	C	0.546456	0.624638	0.500151
O29	O	0.009711	0.168424	0.000187
O30	O	0.509711	0.668424	0.500187
N31	N	0.023830	0.072362	0.000166
N32	N	0.523830	0.572362	0.500166
C33	C	0.060607	0.020794	0.000185
C34	C	0.560607	0.520794	0.500185
O35	O	0.035908	-0.023737	0.000200
O36	O	0.535908	0.476263	0.500200
C37	C	0.120006	0.021506	0.000187
C38	C	0.620006	0.521506	0.500187
C39	C	0.142629	0.073785	0.000158
C40	C	0.642629	0.573785	0.500158
C41	C	0.128479	0.177625	0.000116
C42	C	0.628479	0.677625	0.500116
C43	C	0.187876	0.178336	0.000105
C44	C	0.687876	0.678336	0.500105
C45	C	0.224649	0.126772	0.000120
C46	C	0.724649	0.626772	0.500120
C47	C	0.202025	0.074496	0.000147
C48	C	0.702025	0.574496	0.500147
C49	C	0.156783	-0.030062	0.000216
C50	C	0.656783	0.469938	0.500216
C51	C	0.216185	-0.029345	0.000218
C52	C	0.716185	0.470655	0.500218
C53	C	0.238808	0.022934	0.000190
C54	C	0.738808	0.522934	0.500190
C55	C	0.298194	0.023643	0.000151
C56	C	0.798194	0.523643	0.500151
N57	N	0.320820	0.075920	0.000137
N58	N	0.820820	0.575920	0.500137
C59	C	0.284048	0.127484	0.000121
C60	C	0.784048	0.627484	0.500121
C61	C	-0.064135	0.019302	0.000185
C62	C	0.435865	0.519302	0.500185
C63	C	-0.123533	0.018589	0.000174
C64	C	0.376467	0.518589	0.500174
C65	C	-0.137680	0.122434	0.000143
C66	C	0.362320	0.622434	0.500143
C67	C	-0.078281	0.123146	0.000144
C68	C	0.421719	0.623146	0.500144
C69	C	-0.041509	0.071578	0.000171
C70	C	0.458491	0.571578	0.500171
C71	C	0.408784	0.128974	0.000097
C72	C	0.908784	0.628974	0.500097
C73	C	0.468186	0.129680	0.000080
C74	C	0.968186	0.629680	0.500080
C75	C	0.482329	0.025836	0.000119
C76	C	0.982329	0.525836	0.500119
C77	C	0.422932	0.025129	0.000128
C78	C	0.922932	0.525129	0.500128
C79	C	0.386160	0.076702	0.000122
C80	C	0.886160	0.576702	0.500122
O81	O	0.334974	-0.020119	0.000121
O82	O	0.834974	0.479881	0.500121
O83	O	0.308755	0.172007	0.000125
O84	O	0.808755	0.672007	0.500125
C85	C	0.677071	-0.030013	0.000167
C86	C	1.177071	0.469987	0.500167
C87	C	0.676305	-0.093230	0.000177
C88	C	1.176305	0.406770	0.500177
C89	C	0.723539	-0.492333	0.000114
C90	C	1.223539	0.007667	0.500114
C91	C	0.722827	-0.551733	0.000103
C92	C	1.222827	-0.051733	0.500103
O93	O	0.766613	-0.588478	0.000063
O94	O	1.266613	-0.088478	0.500063
N95	N	0.670551	-0.574359	0.000091
N96	N	1.170551	-0.074359	0.500091
C97	C	0.618983	-0.537582	0.000075
C98	C	1.118983	-0.037582	0.500075
O99	O	0.574452	-0.562281	0.000062
O100	O	1.074452	-0.062281	0.500062
C101	C	0.619695	-0.478182	0.000076
C102	C	1.119695	0.021818	0.500076
C103	C	0.671974	-0.455560	0.000102
C104	C	1.171974	0.044440	0.500102
C105	C	0.775814	-0.469710	0.000138
C106	C	1.275814	0.030290	0.500138
C107	C	0.776525	-0.410313	0.000152
C108	C	1.276525	0.089687	0.500152
C109	C	0.724961	-0.373540	0.000140
C110	C	1.224961	0.126460	0.500140
C111	C	0.672685	-0.396164	0.000115
C112	C	1.172685	0.103836	0.500115
C113	C	0.568127	-0.441406	0.000050
C114	C	1.068127	0.058594	0.500050
C115	C	0.568844	-0.382004	0.000050
C116	C	1.068844	0.117996	0.500050
C117	C	0.621123	-0.359381	0.000076
C118	C	1.121123	0.140619	0.500076
C119	C	0.621832	-0.299995	0.000117
C120	C	1.121832	0.200005	0.500117
N121	N	0.674109	-0.277368	0.000129
N122	N	1.174109	0.222632	0.500129
C123	C	0.725673	-0.314141	0.000141
C124	C	1.225673	0.185859	0.500141
C125	C	0.617491	-0.662324	0.000071
C126	C	1.117491	-0.162324	0.500071
C127	C	0.616778	-0.721722	0.000080
C128	C	1.116778	-0.221722	0.500080
C129	C	0.720623	-0.735869	0.000105
C130	C	1.220623	-0.235869	0.500105
C131	C	0.721335	-0.676470	0.000106
C132	C	1.221335	-0.176470	0.500106
C133	C	0.669767	-0.639698	0.000083
C134	C	1.169767	-0.139698	0.500083
C135	C	0.727163	-0.189405	0.000170
C136	C	1.227163	0.310595	0.500170
C137	C	0.727869	-0.130003	0.000188
C138	C	1.227869	0.369997	0.500188
C139	C	0.624025	-0.115860	0.000156
C140	C	1.124025	0.384140	0.500156
C141	C	0.623318	-0.175257	0.000144
C142	C	1.123318	0.324743	0.500144
C143	C	0.674891	-0.212029	0.000146
C144	C	1.174891	0.287971	0.500146
O145	O	0.578070	-0.263215	0.000151
O146	O	1.078070	0.236785	0.500151
O147	O	0.770196	-0.289433	0.000135
O148	O	1.270196	0.210567	0.500135
C149	C	0.776472	0.069388	0.000160
C150	C	1.276472	0.569388	0.500160
C151	C	0.839689	0.070154	0.000166
C152	C	1.339689	0.570154	0.500166
C153	C	0.667577	0.178283	0.000104
C154	C	1.167577	0.678283	0.500104
C155	C	0.668343	0.241500	0.000084
C156	C	1.168343	0.741500	0.500084
N157	N	0.672320	0.074131	0.356255
N158	N	1.172320	0.574131	0.856255
N159	N	0.672333	0.074135	-0.355982
N160	N	1.172333	0.574135	0.144018
C161	C	0.711269	0.035210	0.428202
C162	C	1.211269	0.535210	0.928202
C163	C	0.711275	0.035210	0.572085
C164	C	1.211275	0.535210	1.072085
C165	C	0.633379	0.113057	0.572061
C166	C	1.133379	0.613057	1.072061
C167	C	0.633371	0.113054	0.428181
C168	C	1.133371	0.613054	0.928181
H169	H	0.486602	0.172255	0.000056
H170	H	0.986602	0.672255	0.500056
H171	H	0.601651	0.144748	0.369598
H172	H	1.101651	0.644748	0.869598
O173	O	0.749089	-0.002674	0.641822
O174	O	1.249089	0.497326	1.141822
C175	C	0.783011	-0.101872	0.685944
C176	C	1.283011	0.398128	1.185944
C177	C	0.740163	-0.059028	0.606859
C178	C	1.240163	0.440972	1.106859
H179	H	0.775801	-0.147444	0.657728
H180	H	1.275801	0.352556	1.157728
H181	H	0.828592	-0.094726	0.657615
H182	H	1.328592	0.405274	1.157615
H183	H	0.776335	-0.095158	0.801128
H184	H	1.276335	0.404842	1.301128
H185	H	0.746787	-0.065716	0.491657
H186	H	1.246787	0.434284	0.991657
H187	H	0.694598	-0.066185	0.635302
H188	H	1.194598	0.433815	1.135302
H189	H	0.762610	-0.765821	0.000110
H190	H	1.262610	-0.265821	0.500110
O191	O	-0.173351	0.172562	0.000321
O192	O	0.326649	0.672562	0.500321
C193	C	-0.203653	0.261077	0.118769
C194	C	0.296347	0.761077	0.618769
C195	C	-0.163214	0.204340	0.118723
C196	C	0.336786	0.704340	0.618723
H197	H	-0.195480	0.286780	0.214501
H198	H	0.304520	0.786780	0.714501
H199	H	-0.195466	0.286866	0.023167
H200	H	0.304534	0.786866	0.523167
H201	H	-0.249987	0.251568	0.118712
H202	H	0.250013	0.751568	0.618712
H203	H	-0.116866	0.213797	0.118829
H204	H	0.383134	0.713797	0.618829
H205	H	-0.171450	0.178568	0.214317
H206	H	0.328550	0.678568	0.714317
O207	O	0.777223	-0.225176	0.000361
O208	O	1.277223	0.274824	0.500361
C209	C	0.836709	-0.300428	0.118842
C210	C	1.336709	0.199572	0.618842
C211	C	0.779990	-0.259959	0.118768
C212	C	1.279990	0.240041	0.618768
H213	H	0.838969	-0.328552	0.214577
H214	H	1.338969	0.171448	0.714577
H215	H	0.838990	-0.328623	0.023244
H216	H	1.338990	0.171377	0.523244
H217	H	0.874179	-0.274034	0.118797
H218	H	1.374179	0.225966	0.618797
H219	H	0.742487	-0.286308	0.118861
H220	H	1.242487	0.213692	0.618861
H221	H	0.777758	-0.231763	0.214358
H222	H	1.277758	0.268237	0.714358
H223	H	-0.141947	-0.023982	0.000176
H224	H	0.358053	0.476018	0.500176
H225	H	0.601669	0.144748	0.630638
H226	H	1.101669	0.644748	1.130638
H227	H	0.574207	-0.740136	0.000082
H228	H	1.074207	-0.240136	0.500082
H229	H	0.378851	0.170970	0.000096
H230	H	0.878851	0.670970	0.500096
O231	O	0.827295	-0.388313	0.000401
O232	O	1.327295	0.111687	0.500401
C233	C	0.888363	-0.329451	0.118775
C234	C	1.388363	0.170549	0.618775
C235	C	0.830849	-0.354334	0.118689
C236	C	1.330849	0.145666	0.618689
H237	H	0.891250	-0.301964	0.214386
H238	H	1.391250	0.198036	0.714386
H239	H	0.925114	-0.365921	0.118863
H240	H	1.425114	0.134079	0.618863
H241	H	0.891285	-0.302015	0.023069
H242	H	1.391285	0.197985	0.523069
H243	H	0.827871	-0.381763	0.214378
H244	H	1.327871	0.118237	0.714378
H245	H	0.794126	-0.317837	0.118529
H246	H	1.294126	0.182163	0.618529
O247	O	0.209752	0.229171	0.000155
O248	O	0.709752	0.729171	0.500155
C249	C	0.189428	0.332094	0.000061
C250	C	0.689428	0.832094	0.500061
C251	C	0.164583	0.274561	0.000028
C252	C	0.664583	0.774561	0.500028
H253	H	0.152922	0.368807	-0.000070
H254	H	0.652922	0.868807	0.499930
H255	H	0.216863	0.335063	0.095745
H256	H	0.716863	0.835063	0.595745
H257	H	0.216902	0.335002	-0.095576
H258	H	0.716902	0.835002	0.404424
H259	H	0.137085	0.271615	0.095600
H260	H	0.637085	0.771615	0.595600
H261	H	0.137182	0.271617	-0.095719
H262	H	0.637182	0.771617	0.404281
O263	O	0.825856	-0.505507	0.000090
O264	O	1.325856	-0.005507	0.500090
C265	C	0.870803	-0.603278	0.000198
C266	C	1.370803	-0.103278	0.500198
C267	C	0.814085	-0.562809	0.000209
C268	C	1.314085	-0.062809	0.500209
H269	H	0.861306	-0.649615	0.000323
H270	H	1.361306	-0.149615	0.500323
H271	H	0.896557	-0.595121	-0.095474
H272	H	1.396557	-0.095121	0.404526
H273	H	0.896540	-0.595053	0.095847
H274	H	1.396540	-0.095053	0.595847
H275	H	0.788302	-0.571010	-0.095375
H276	H	1.288302	-0.071010	0.404625
H277	H	0.788374	-0.570974	0.095944
H278	H	1.288374	-0.070974	0.595944
H279	H	0.575496	-0.632386	0.000064
H280	H	1.075496	-0.132386	0.500064
O281	O	-0.028440	-0.030810	-0.000055
O282	O	0.471560	0.469190	0.499945
C283	C	0.001788	-0.119361	-0.118422
C284	C	0.501788	0.380639	0.381578
C285	C	-0.038655	-0.062626	-0.118339
C286	C	0.461345	0.437374	0.381661
H287	H	-0.006465	-0.145105	-0.214030
H288	H	0.493535	0.354895	0.285970
H289	H	0.048142	-0.109914	-0.118515
H290	H	0.548142	0.390086	0.381485
H291	H	-0.006399	-0.145083	-0.022714
H292	H	0.493601	0.354917	0.477286
H293	H	-0.030519	-0.036875	-0.214031
H294	H	0.469481	0.463125	0.285969
H295	H	-0.084996	-0.072112	-0.118174
H296	H	0.415004	0.427888	0.381826
O297	O	0.092706	0.227682	-0.000091
O298	O	0.592706	0.727682	0.499909
C299	C	0.017470	0.287173	-0.118607
C300	C	0.517470	0.787173	0.381393
C301	C	0.057935	0.230452	-0.118510
C302	C	0.557935	0.730452	0.381490
H303	H	-0.010644	0.289436	-0.214352
H304	H	0.489356	0.789436	0.285648
H305	H	-0.010735	0.289455	-0.023019
H306	H	0.489265	0.789455	0.476981
H307	H	0.043866	0.324641	-0.118560
H308	H	0.543866	0.824641	0.381440
H309	H	0.031585	0.192951	-0.118606
H310	H	0.531585	0.692951	0.381394
H311	H	0.086142	0.228219	-0.214090
H312	H	0.586142	0.728219	0.285910
H313	H	-0.059867	0.165717	0.000129
H314	H	0.440133	0.665717	0.500129
H315	H	0.525555	-0.459814	0.000020
H316	H	1.025555	0.040186	0.500020
O317	O	0.134912	-0.080897	0.000317
O318	O	0.634912	0.419103	0.500317
C319	C	0.155239	-0.183820	0.000313
C320	C	0.655239	0.316180	0.500313
C321	C	0.180082	-0.126286	0.000224
C322	C	0.680082	0.373714	0.500224
H323	H	0.191747	-0.220532	0.000208
H324	H	0.691747	0.279468	0.500208
H325	H	0.127810	-0.186788	0.096005
H326	H	0.627810	0.313212	0.596005
H327	H	0.127760	-0.186731	-0.095316
H328	H	0.627760	0.313269	0.404684
H329	H	0.207586	-0.123337	0.095788
H330	H	0.707586	0.376663	0.595788
H331	H	0.207478	-0.123342	-0.095531
H332	H	0.707478	0.376658	0.404469
O333	O	0.251986	-0.079388	0.000299
O334	O	0.751986	0.420612	0.500299
C335	C	0.349763	-0.124322	0.000219
C336	C	0.849763	0.375678	0.500219
C337	C	0.309286	-0.067609	0.000164
C338	C	0.809286	0.432391	0.500164
H339	H	0.396097	-0.114819	0.000080
H340	H	0.896097	0.385181	0.500080
H341	H	0.341618	-0.150072	0.095914
H342	H	0.841618	0.349928	0.595914
H343	H	0.341532	-0.150066	-0.095407
H344	H	0.841532	0.349934	0.404593
H345	H	0.317492	-0.041819	0.095725
H346	H	0.817492	0.458181	0.595725
H347	H	0.317438	-0.041902	-0.095594
H348	H	0.817438	0.458098	0.404406
O349	O	0.518033	-0.024266	-0.000110
O350	O	1.018033	0.475734	0.499890
C351	C	0.548291	-0.112818	-0.118442
C352	C	1.048291	0.387182	0.381558
C353	C	0.507830	-0.056094	-0.118382
C354	C	1.007830	0.443906	0.381618
H355	H	0.540047	-0.138573	-0.214040
H356	H	1.040047	0.361427	0.285960
H357	H	0.594640	-0.103356	-0.118537
H358	H	1.094640	0.396644	0.381463
H359	H	0.540111	-0.138538	-0.022724
H360	H	1.040111	0.361462	0.477276
H361	H	0.515958	-0.030347	-0.214084
H362	H	1.015958	0.469653	0.285916
H363	H	0.461494	-0.065597	-0.118215
H364	H	0.961494	0.434403	0.381785
O365	O	0.518696	-0.346365	0.000089
O366	O	1.018696	0.153635	0.500089
C367	C	0.415622	-0.338607	-0.000044
C368	C	0.915622	0.161393	0.499956
C369	C	0.472370	-0.379031	-0.000058
C370	C	0.972370	0.120969	0.499942
H371	H	0.378152	-0.365001	-0.000192
H372	H	0.878152	0.134999	0.499808
H373	H	0.413312	-0.310462	0.095642
H374	H	0.913312	0.189538	0.595642
H375	H	0.413394	-0.310425	-0.095679
H376	H	0.913394	0.189575	0.404321
H377	H	0.474636	-0.407249	0.095512
H378	H	0.974636	0.092751	0.595512
H379	H	0.474657	-0.407136	-0.095807
H380	H	0.974657	0.092864	0.404193
O381	O	0.778707	-0.108123	0.000147
O382	O	1.278707	0.391877	0.500147
C383	C	0.881630	-0.128435	0.000251
C384	C	1.381630	0.371565	0.500251
C385	C	0.824101	-0.153287	0.000269
C386	C	1.324101	0.346713	0.500269
H387	H	0.918347	-0.164938	0.000379
H388	H	1.418347	0.335062	0.500379
H389	H	0.884602	-0.100992	-0.095426
H390	H	1.384602	0.399008	0.404574
H391	H	0.884529	-0.100969	0.095895
H392	H	1.384529	0.399031	0.595895
H393	H	0.821164	-0.180778	-0.095310
H394	H	1.321164	0.319222	0.404690
H395	H	0.821154	-0.180698	0.096009
H396	H	1.321154	0.319302	0.596009
O397	O	0.572571	-0.197306	-0.000052
O398	O	1.072571	0.302694	0.499948
C399	C	0.511491	-0.256114	-0.118562
C400	C	1.011491	0.243886	0.381438
C401	C	0.568987	-0.231197	-0.118478
C402	C	1.068987	0.268803	0.381522
H403	H	0.508569	-0.283510	-0.214314
H404	H	1.008569	0.216490	0.285686
H405	H	0.508550	-0.283619	-0.022980
H406	H	1.008550	0.216381	0.477020
H407	H	0.474767	-0.219617	-0.118495
H408	H	0.974767	0.280383	0.381505
H409	H	0.605743	-0.267657	-0.118594
H410	H	1.105743	0.232343	0.381406
H411	H	0.571877	-0.203677	-0.214052
H412	H	1.071877	0.296323	0.285948
O413	O	0.573922	-0.080158	0.000380
O414	O	1.073922	0.419842	0.500380
C415	C	0.485360	-0.049910	0.118697
C416	C	0.985360	0.450090	0.618697
C417	C	0.542086	-0.090367	0.118648
C418	C	1.042086	0.409633	0.618648
H419	H	0.459599	-0.058158	0.214293
H420	H	0.959599	0.441842	0.714293
H421	H	0.494819	-0.003560	0.118790
H422	H	0.994819	0.496440	0.618790
H423	H	0.459648	-0.058089	0.022976
H424	H	0.959648	0.441911	0.522976
H425	H	0.567826	-0.082239	0.214353
H426	H	1.067826	0.417761	0.714353
H427	H	0.532587	-0.136704	0.118484
H428	H	1.032587	0.363296	0.618484
H429	H	0.742983	0.003516	0.369643
H430	H	1.242983	0.503516	0.869643
H431	H	0.404512	-0.017441	0.000131
H432	H	0.904512	0.482559	0.500131
H433	H	0.763906	-0.658056	0.000126
H434	H	1.263906	-0.158056	0.500126
