data_functionalizedCrystal
_audit_creation_method	'MofGen! by Chris Wilmer'
_symmetry_space_group_name_H-M	'P1'
_symmetry_Int_Tables_number	1
_symmetry_cell_setting	triclinic
loop_
_symmetry_equiv_pos_as_xyz
  x,y,z
_cell_length_a	17.640280
_cell_length_b	19.805407
_cell_length_c	19.805399
_cell_angle_alpha	90.016886
_cell_angle_beta	78.776044
_cell_angle_gamma	101.199888
loop_
_atom_site_label
_atom_site_type_symbol
_atom_site_fract_x
_atom_site_fract_y
_atom_site_fract_z
Zn1	Zn	-0.314670	-1.089264	-0.328319
Zn2	Zn	0.018663	-0.755930	0.005014
Zn3	Zn	0.351997	-0.422597	0.338348
Zn4	Zn	-0.446848	-1.112096	-0.192280
Zn5	Zn	-0.113515	-0.778762	0.141054
Zn6	Zn	0.219819	-0.445429	0.474387
Zn7	Zn	-0.314695	-0.976088	-0.215139
Zn8	Zn	0.018638	-0.642754	0.118194
Zn9	Zn	0.351972	-0.309421	0.451527
Zn10	Zn	-0.446803	-0.998946	-0.305434
Zn11	Zn	-0.113469	-0.665613	0.027899
Zn12	Zn	0.219864	-0.332279	0.361233
O13	O	-0.380754	-1.044098	-0.260293
O14	O	-0.047421	-0.710765	0.073040
O15	O	0.285913	-0.377432	0.406374
O16	O	-0.332212	-1.187010	-0.310284
O17	O	0.001121	-0.853677	0.023050
O18	O	0.334454	-0.520344	0.356383
O19	O	-0.429347	-1.094043	-0.100590
O20	O	-0.096014	-0.760710	0.232743
O21	O	0.237320	-0.427376	0.566076
O22	O	-0.204088	-0.971979	-0.249297
O23	O	0.129246	-0.638646	0.084036
O24	O	0.462579	-0.305313	0.417370
O25	O	-0.429323	-1.203785	-0.210336
O26	O	-0.095989	-0.870452	0.122997
O27	O	0.237344	-0.537118	0.456331
O28	O	-0.204069	-1.055129	-0.332450
O29	O	0.129264	-0.721796	0.000884
O30	O	0.462598	-0.388462	0.334217
O31	O	-0.332255	-0.994119	-0.117385
O32	O	0.001078	-0.660785	0.215948
O33	O	0.334412	-0.327452	0.549282
O34	O	-0.332211	-0.884402	-0.227106
O35	O	0.001122	-0.551069	0.106227
O36	O	0.334456	-0.217735	0.439560
O37	O	-0.429246	-1.010938	-0.403192
O38	O	-0.095912	-0.677604	-0.069858
O39	O	0.237421	-0.344271	0.263475
O40	O	-0.429270	-0.901196	-0.293446
O41	O	-0.095937	-0.567862	0.039888
O42	O	0.237397	-0.234529	0.373221
O43	O	-0.332168	-1.077294	-0.420005
O44	O	0.001165	-0.743960	-0.086672
O45	O	0.334498	-0.410627	0.246662
O46	O	-0.557446	-1.116208	-0.188146
O47	O	-0.224113	-0.782874	0.145188
O48	O	0.109220	-0.449541	0.478521
O49	O	-0.557413	-1.033077	-0.271280
O50	O	-0.224080	-0.699744	0.062054
O51	O	0.109254	-0.366410	0.395387
C52	C	-0.380739	-0.868240	-0.260274
C53	C	-0.047405	-0.534906	0.073060
C54	C	0.285928	-0.201573	0.406393
C55	C	-0.380751	-0.793010	-0.260278
C56	C	-0.047418	-0.459676	0.073055
C57	C	0.285915	-0.126343	0.406388
C58	C	-0.586108	-1.079619	-0.224764
C59	C	-0.252775	-0.746285	0.108570
C60	C	0.080559	-0.412952	0.441903
C61	C	-0.673959	-1.094876	-0.209587
C62	C	-0.340626	-0.761543	0.123747
C63	C	-0.007293	-0.428210	0.457080
C64	C	-0.380699	-1.044118	-0.436845
C65	C	-0.047366	-0.710785	-0.103512
C66	C	0.285968	-0.377452	0.229821
C67	C	-0.380676	-1.044127	-0.512081
C68	C	-0.047342	-0.710794	-0.178748
C69	C	0.285991	-0.377460	0.154585
C70	C	-0.962942	-0.928465	-0.375837
C71	C	-0.629609	-0.595131	-0.042504
C72	C	-0.296276	-0.261798	0.290830
C73	C	-1.045492	-0.942803	-0.361554
C74	C	-0.712159	-0.609470	-0.028221
C75	C	-0.378825	-0.276136	0.305112
C76	C	-1.045461	-1.029421	-0.275074
C77	C	-0.712128	-0.696087	0.058259
C78	C	-0.378794	-0.362754	0.391592
C79	C	-0.962910	-1.015092	-0.289352
C80	C	-0.629576	-0.681759	0.043981
C81	C	-0.296243	-0.348425	0.377315
C82	C	-0.921657	-0.964613	-0.339734
C83	C	-0.588323	-0.631279	-0.006400
C84	C	-0.254990	-0.297946	0.326933
C85	C	-0.921624	-1.051240	-0.253249
C86	C	-0.588291	-0.717907	0.080085
C87	C	-0.254958	-0.384573	0.413418
C88	C	-0.839080	-1.036910	-0.267523
C89	C	-0.505747	-0.703576	0.065810
C90	C	-0.172413	-0.370243	0.399144
C91	C	-0.797821	-0.986431	-0.317901
C92	C	-0.464488	-0.653098	0.015433
C93	C	-0.131155	-0.319765	0.348766
C94	C	-0.839113	-0.950282	-0.354008
C95	C	-0.505779	-0.616949	-0.020675
C96	C	-0.172446	-0.283616	0.312659
C97	C	-0.962879	-1.101716	-0.202864
C98	C	-0.629545	-0.768382	0.130469
C99	C	-0.296212	-0.435049	0.463803
C100	C	-0.921593	-1.137864	-0.166761
C101	C	-0.588260	-0.804530	0.166573
C102	C	-0.254927	-0.471197	0.499906
C103	C	-0.839048	-1.123537	-0.181038
C104	C	-0.505714	-0.790204	0.152295
C105	C	-0.172381	-0.456870	0.485629
C106	C	-0.797789	-1.073059	-0.231416
C107	C	-0.464456	-0.739725	0.101918
C108	C	-0.131122	-0.406392	0.435251
C109	C	-0.797756	-1.159686	-0.144931
C110	C	-0.464423	-0.826353	0.188403
C111	C	-0.131090	-0.493019	0.521736
C112	C	-0.715212	-1.145356	-0.159205
C113	C	-0.381879	-0.812022	0.174128
C114	C	-0.048546	-0.478689	0.507462
C115	C	-0.715245	-1.058728	-0.245690
C116	C	-0.381911	-0.725395	0.087643
C117	C	-0.048578	-0.392062	0.420977
C118	C	-0.174598	-1.008457	-0.295976
C119	C	0.158735	-0.675124	0.037357
C120	C	0.492069	-0.341791	0.370691
C121	C	-0.086747	-0.993270	-0.311182
C122	C	0.246587	-0.659936	0.022151
C123	C	0.579920	-0.326603	0.355485
C124	C	-0.380770	-1.220644	-0.260313
C125	C	-0.047436	-0.887310	0.073021
C126	C	0.285897	-0.553977	0.406354
C127	C	-0.380776	-1.295877	-0.260321
C128	C	-0.047443	-0.962543	0.073012
C129	C	0.285890	-0.629210	0.406346
C130	C	-0.431366	-0.766441	-0.294738
C131	C	-0.098033	-0.433108	0.038595
C132	C	0.235301	-0.099774	0.371929
C133	C	-0.431367	-0.695753	-0.294747
C134	C	-0.098034	-0.362419	0.038586
C135	C	0.235299	-0.029086	0.371919
C136	C	-0.380758	-0.651635	-0.260292
C137	C	-0.047424	-0.318302	0.073041
C138	C	0.285909	0.015031	0.406374
C139	C	-0.330137	-0.678208	-0.225832
C140	C	0.003196	-0.344875	0.107502
C141	C	0.336529	-0.011541	0.440835
C142	C	-0.330133	-0.748894	-0.225827
C143	C	0.003201	-0.415561	0.107506
C144	C	0.336534	-0.082228	0.440840
C145	C	-0.330155	-0.393138	-0.225851
C146	C	0.003178	-0.059804	0.107482
C147	C	0.336512	0.273529	0.440816
C148	C	-0.330165	-0.322447	-0.225857
C149	C	0.003168	0.010886	0.107477
C150	C	0.336501	0.344219	0.440810
C151	C	-0.431390	-0.339996	-0.294771
C152	C	-0.098056	-0.006663	0.038562
C153	C	0.235277	0.326670	0.371895
C154	C	-0.431385	-0.410683	-0.294767
C155	C	-0.098052	-0.077349	0.038567
C156	C	0.235282	0.255984	0.371900
C157	C	-0.380762	-0.437249	-0.260309
C158	C	-0.047429	-0.103915	0.073024
C159	C	0.285905	0.229418	0.406357
C160	C	-0.380760	-0.513897	-0.260301
C161	C	-0.047427	-0.180563	0.073033
C162	C	0.285907	0.152770	0.406366
C163	C	-0.380763	-0.574989	-0.260296
C164	C	-0.047430	-0.241656	0.073037
C165	C	0.285904	0.091678	0.406370
C166	C	-0.330115	-0.992108	-0.556171
C167	C	0.003218	-0.658775	-0.222838
C168	C	0.336552	-0.325441	0.110496
C169	C	-0.330100	-0.992115	-0.626862
C170	C	0.003234	-0.658781	-0.293529
C171	C	0.336567	-0.325448	0.039805
C172	C	-0.380642	-1.044144	-0.653463
C173	C	-0.047308	-0.710810	-0.320130
C174	C	0.286025	-0.377477	0.013204
C175	C	-0.431208	-1.096166	-0.609367
C176	C	-0.097874	-0.762832	-0.276034
C177	C	0.235459	-0.429499	0.057299
C178	C	-0.431227	-1.096156	-0.538677
C179	C	-0.097893	-0.762822	-0.205344
C180	C	0.235440	-0.429489	0.127990
C181	C	-0.431134	-1.096207	-0.894454
C182	C	-0.097800	-0.762873	-0.561120
C183	C	0.235533	-0.429540	-0.227787
C184	C	-0.431109	-1.096214	-0.965150
C185	C	-0.097776	-0.762880	-0.631817
C186	C	0.235557	-0.429547	-0.298483
C187	C	-0.330007	-0.992165	-0.982639
C188	C	0.003326	-0.658832	-0.649305
C189	C	0.336660	-0.325499	-0.315972
C190	C	-0.330026	-0.992155	-0.911948
C191	C	0.003307	-0.658822	-0.578615
C192	C	0.336641	-0.325489	-0.245282
C193	C	-0.380595	-1.044175	-0.867859
C194	C	-0.047261	-0.710842	-0.534525
C195	C	0.286072	-0.377508	-0.201192
C196	C	-0.380612	-1.044166	-0.791207
C197	C	-0.047278	-0.710833	-0.457874
C198	C	0.286055	-0.377500	-0.124540
C199	C	-0.380621	-1.044156	-0.730114
C200	C	-0.047288	-0.710822	-0.396780
C201	C	0.286046	-0.377489	-0.063447
C202	C	-0.380752	-1.044107	-0.084437
C203	C	-0.047418	-0.710774	0.248896
C204	C	0.285915	-0.377441	0.582229
C205	C	-0.380552	-1.044191	-0.009240
C206	C	-0.047219	-0.710858	0.324093
C207	C	0.286114	-0.377524	0.657426
H208	H	-0.681655	-1.017628	-0.286721
H209	H	-0.348322	-0.684295	0.046612
H210	H	-0.014988	-0.350961	0.379946
H211	H	-0.288931	-0.949753	-0.662757
H212	H	0.044402	-0.616420	-0.329424
H213	H	0.377735	-0.283087	0.003910
H214	H	-0.472364	-1.138526	-0.631031
H215	H	-0.139030	-0.805193	-0.297697
H216	H	0.194303	-0.471859	0.035636
H217	H	-0.472581	-0.802358	-0.322792
H218	H	-0.139248	-0.469025	0.010541
H219	H	0.194086	-0.135691	0.343874
H220	H	-0.472606	-0.318358	-0.322831
H221	H	-0.139273	0.014976	0.010502
H222	H	0.194060	0.348309	0.343835
H223	H	-0.681597	-1.174791	-0.129805
H224	H	-0.348264	-0.841457	0.203528
H225	H	-0.014931	-0.508124	0.536862
H226	H	-0.472584	-0.674125	-0.322807
H227	H	-0.139250	-0.340791	0.010526
H228	H	0.194083	-0.007458	0.343860
H229	H	-0.288913	-0.770524	-0.197771
H230	H	0.044421	-0.437191	0.135563
H231	H	0.377754	-0.103857	0.468896
H232	H	-0.472599	-0.446601	-0.322820
H233	H	-0.139266	-0.113268	0.010513
H234	H	0.194067	0.220066	0.343846
H235	H	-0.929352	-0.887364	-0.416868
H236	H	-0.596019	-0.554031	-0.083535
H237	H	-0.262686	-0.220697	0.249799
H238	H	-0.288941	-0.414760	-0.197788
H239	H	0.044393	-0.081427	0.135546
H240	H	0.377726	0.251907	0.468879
H241	H	-0.955193	-1.178962	-0.125738
H242	H	-0.621859	-0.845628	0.207595
H243	H	-0.288526	-0.512295	0.540929
H244	H	-0.288948	-0.286527	-0.197800
H245	H	0.044386	0.046806	0.135533
H246	H	0.377719	0.380140	0.468866
H247	H	-0.288954	-0.949743	-0.534519
H248	H	0.044380	-0.616409	-0.201186
H249	H	0.377713	-0.283076	0.132147
H250	H	-0.288927	-0.642281	-0.197781
H251	H	0.044407	-0.308948	0.135552
H252	H	0.377740	0.024386	0.468885
H253	H	-0.288867	-0.949790	-0.890295
H254	H	0.044467	-0.616456	-0.556961
H255	H	0.377800	-0.283123	-0.223628
H256	H	-0.288834	-0.949807	-1.018545
H257	H	0.044500	-0.616473	-0.685212
H258	H	0.377833	-0.283140	-0.351878
H259	H	-0.472270	-1.138584	-0.986805
H260	H	-0.138936	-0.805251	-0.653472
H261	H	0.194397	-0.471917	-0.320138
H262	H	-0.831357	-1.200781	-0.103906
H263	H	-0.498024	-0.867448	0.229428
H264	H	-0.164690	-0.534115	0.562761
H265	H	-0.472392	-1.138519	-0.502780
H266	H	-0.139059	-0.805186	-0.169447
H267	H	0.194274	-0.471852	0.163886
H268	H	-0.730609	-0.974760	-0.329517
H269	H	-0.397275	-0.641427	0.003816
H270	H	-0.063942	-0.308093	0.337150
H271	H	-0.805523	-0.909182	-0.395039
H272	H	-0.472190	-0.575849	-0.061705
H273	H	-0.138856	-0.242515	0.271628
H274	H	-1.079104	-0.913371	-0.390966
H275	H	-0.745770	-0.580038	-0.057633
H276	H	-0.412437	-0.246704	0.275700
H277	H	-1.030092	-1.113383	-0.191245
H278	H	-0.696758	-0.780050	0.142088
H279	H	-0.363425	-0.446717	0.475421
H280	H	-1.079061	-1.070519	-0.234052
H281	H	-0.745727	-0.737185	0.099282
H282	H	-0.412394	-0.403852	0.432615
H283	H	-0.472319	-1.138558	-0.858562
H284	H	-0.138985	-0.805225	-0.525229
H285	H	0.194348	-0.471892	-0.191896
