data_functionalizedCrystal
_audit_creation_method	'MofGen! by Chris Wilmer'
_symmetry_space_group_name_H-M	'P1'
_symmetry_Int_Tables_number	1
_symmetry_cell_setting	triclinic
loop_
_symmetry_equiv_pos_as_xyz
  x,y,z
_cell_length_a	16.625546
_cell_length_b	13.897449
_cell_length_c	13.897441
_cell_angle_alpha	89.979267
_cell_angle_beta	90.033447
_cell_angle_gamma	89.976252
loop_
_atom_site_label
_atom_site_type_symbol
_atom_site_fract_x
_atom_site_fract_y
_atom_site_fract_z
Zn1	Zn	-0.320948	-1.474671	0.545362
Zn2	Zn	0.179052	-0.974671	1.045362
Zn3	Zn	-0.455799	-1.474551	0.384055
Zn4	Zn	0.044201	-0.974551	0.884055
Zn5	Zn	-0.320987	-1.313360	0.384080
Zn6	Zn	0.179013	-0.813360	0.884080
Zn7	Zn	-0.455746	-1.313328	0.545308
Zn8	Zn	0.044254	-0.813328	1.045308
O9	O	-0.388370	-1.393977	0.464702
O10	O	0.111630	-0.893977	0.964702
O11	O	-0.338843	-1.609636	0.523977
O12	O	0.161157	-1.109636	1.023977
O13	O	-0.437954	-1.453132	0.249077
O14	O	0.062046	-0.953132	0.749077
O15	O	-0.208149	-1.334821	0.405508
O16	O	0.291851	-0.834821	0.905508
O17	O	-0.437917	-1.609549	0.405465
O18	O	0.062083	-1.109549	0.905465
O19	O	-0.208121	-1.453336	0.524001
O20	O	0.291879	-0.953336	1.024001
O21	O	-0.338908	-1.334705	0.249095
O22	O	0.161092	-0.834705	0.749095
O23	O	-0.338857	-1.178374	0.405455
O24	O	0.161143	-0.678374	0.905455
O25	O	-0.437826	-1.334767	0.680297
O26	O	0.062174	-0.834767	1.180297
O27	O	-0.437864	-1.178351	0.523909
O28	O	0.062136	-0.678351	1.023909
O29	O	-0.338791	-1.453305	0.680337
O30	O	0.161209	-0.953305	1.180337
O31	O	-0.568624	-1.453101	0.405413
O32	O	-0.068624	-0.953101	0.905413
O33	O	-0.568585	-1.334651	0.523884
O34	O	-0.068585	-0.834651	1.023884
C35	C	-0.388359	-1.143363	0.464680
C36	C	0.111641	-0.643363	0.964680
C37	C	-0.388374	-1.036149	0.464693
C38	C	0.111626	-0.536149	0.964693
C39	C	-0.597861	-1.393886	0.464661
C40	C	-0.097861	-0.893886	0.964661
C41	C	-0.687482	-1.393935	0.464676
C42	C	-0.187482	-0.893935	0.964676
C43	C	-0.388299	-1.394046	0.716295
C44	C	0.111701	-0.894046	1.216295
C45	C	-0.388268	-1.394075	0.823509
C46	C	0.111732	-0.894075	1.323509
C47	C	-1.015657	-1.394104	0.464777
C48	C	-0.515657	-0.894104	0.964777
C49	C	-0.924349	-1.394054	0.464751
C50	C	-0.424349	-0.894054	0.964751
C51	C	-0.851573	-1.394019	0.464726
C52	C	-0.351573	-0.894019	0.964726
C53	C	-0.760258	-1.393970	0.464702
C54	C	-0.260258	-0.893970	0.964702
C55	C	-0.178061	-1.394095	0.464763
C56	C	0.321939	-0.894095	0.964763
C57	C	-0.088440	-1.394146	0.464789
C58	C	0.411560	-0.894146	0.964789
C59	C	-0.388381	-1.645570	0.464724
C60	C	0.111619	-1.145570	0.964724
C61	C	-0.388386	-1.752784	0.464734
C62	C	0.111614	-1.252784	0.964734
C63	C	-0.388377	-0.839854	0.464718
C64	C	0.111623	-0.339854	0.964718
C65	C	-0.388373	-0.949086	0.464702
C66	C	0.111627	-0.449086	0.964702
C67	C	-0.388383	-1.393965	0.214087
C68	C	0.111617	-0.893965	0.714087
C69	C	-0.388186	-1.394122	0.106874
C70	C	0.111814	-0.894122	0.606874
C71	C	-0.388214	-1.394101	1.019804
C72	C	0.111786	-0.894101	1.519804
C73	C	-0.388246	-1.394084	0.910571
C74	C	0.111754	-0.894084	1.410571
