data_functionalizedCrystal
_audit_creation_method	'MofGen! by Chris Wilmer'
_symmetry_space_group_name_H-M	'P1'
_symmetry_Int_Tables_number	1
_symmetry_cell_setting	triclinic
loop_
_symmetry_equiv_pos_as_xyz
  x,y,z
_cell_length_a	19.288864
_cell_length_b	15.072220
_cell_length_c	19.288859
_cell_angle_alpha	89.998528
_cell_angle_beta	83.134987
_cell_angle_gamma	90.026328
loop_
_atom_site_label
_atom_site_type_symbol
_atom_site_fract_x
_atom_site_fract_y
_atom_site_fract_z
O1	O	0.921355	0.074062	0.086643
O2	O	1.421355	0.574062	0.586643
O3	O	0.719094	0.074001	0.098332
O4	O	1.219094	0.574001	0.598332
O5	O	0.826071	0.074033	-0.008643
O6	O	1.326071	0.574033	0.491357
O7	O	0.814378	0.074029	0.193618
O8	O	1.314378	0.574029	0.693618
O9	O	0.826045	-0.073532	-0.008637
O10	O	1.326045	0.426468	0.491363
O11	O	0.719068	-0.073565	0.098338
O12	O	1.219068	0.426435	0.598338
O13	O	0.921329	-0.073503	0.086649
O14	O	1.421329	0.426497	0.586649
Zn15	Zn	0.820194	-0.096963	0.092495
Zn16	Zn	1.320194	0.403037	0.592495
Zn17	Zn	0.820229	0.097460	0.092487
Zn18	Zn	1.320229	0.597460	0.592487
O19	O	0.814352	-0.073536	0.193624
O20	O	1.314352	0.426464	0.693624
C21	C	0.693204	0.000210	0.097959
C22	C	1.193204	0.500210	0.597959
C23	C	0.616101	0.000187	0.096830
C24	C	1.116101	0.500187	0.596830
N25	N	0.820175	-0.229652	0.092500
N26	N	1.320175	0.270348	0.592500
C27	C	0.571403	0.000200	0.159598
C28	C	1.071403	0.500200	0.659598
C29	C	0.498956	0.000210	0.158537
C30	C	0.998956	0.500210	0.658537
C31	C	0.471210	0.000224	0.094705
C32	C	0.971210	0.500224	0.594705
C33	C	0.515918	0.000207	0.031929
C34	C	1.015918	0.500207	0.531929
C35	C	0.588363	0.000188	0.032991
C36	C	1.088363	0.500188	0.532991
C37	C	0.362958	0.051954	0.044524
C38	C	0.862958	0.551954	0.544524
C39	C	0.290514	0.051978	0.043464
C40	C	0.790514	0.551978	0.543464
C41	C	0.247765	0.000278	0.091425
C42	C	0.747765	0.500278	0.591425
C43	C	0.277467	-0.051434	0.140459
C44	C	0.777467	0.448566	0.640459
C45	C	0.349912	-0.051453	0.141521
C46	C	0.849912	0.448547	0.641521
C47	C	0.392656	0.000244	0.093546
C48	C	0.892656	0.500244	0.593546
C49	C	0.124511	0.000300	0.153048
C50	C	0.624511	0.500300	0.653048
C51	C	0.052063	0.000305	0.151984
C52	C	0.552063	0.500305	0.651984
C53	C	0.069026	0.000311	0.025374
C54	C	0.569026	0.500311	0.525374
C55	C	0.141472	0.000297	0.026439
C56	C	0.641472	0.500297	0.526439
C57	C	0.169210	0.000297	0.090278
C58	C	0.669210	0.500297	0.590278
C59	C	0.820227	-0.588853	0.092484
C60	C	1.320227	-0.088853	0.592484
C61	C	0.762795	-0.551264	0.149533
C62	C	1.262795	-0.051264	0.649533
C63	C	0.762926	-0.448438	0.149741
C64	C	1.262926	0.051562	0.649741
C65	C	0.820201	-0.410649	0.092492
C66	C	1.320201	0.089351	0.592492
C67	C	0.892625	-0.447919	0.108094
C68	C	1.392625	0.052081	0.608094
C69	C	0.892303	-0.550777	0.108500
C70	C	1.392303	-0.050777	0.608500
C71	C	0.805882	-0.550958	0.019661
C72	C	1.305882	-0.050958	0.519661
C73	C	0.804218	-0.448095	0.020153
C74	C	1.304218	0.051905	0.520153
C75	C	0.820191	-0.309936	0.092495
C76	C	1.320191	0.190064	0.592495
C77	C	0.820242	-0.689567	0.092482
C78	C	1.320242	-0.189567	0.592482
C79	C	0.947218	0.000289	0.087022
C80	C	1.447218	0.500289	0.587022
C81	C	1.024322	0.000318	0.088151
C82	C	1.524322	0.500318	0.588151
C83	C	0.825682	0.000252	-0.034516
C84	C	1.325682	0.500252	0.465484
C85	C	0.824555	0.000258	-0.111620
C86	C	1.324555	0.500258	0.388380
N87	N	0.820253	0.230149	0.092476
N88	N	1.320253	0.730149	0.592476
C89	C	0.814740	0.000247	0.219498
C90	C	1.314740	0.500247	0.719498
C91	C	0.815868	0.000247	0.296602
C92	C	1.315868	0.500247	0.796602
C93	C	0.760724	0.000249	0.860642
C94	C	1.260724	0.500249	1.360642
C95	C	0.759659	0.000241	0.788196
C96	C	1.259659	0.500241	1.288196
C97	C	0.822428	0.000261	0.743489
C98	C	1.322428	0.500261	1.243489
C99	C	0.886268	0.000265	0.771234
C100	C	1.386268	0.500265	1.271234
C101	C	0.887331	0.000263	0.843679
C102	C	1.387331	0.500263	1.343679
C103	C	0.869250	0.051973	0.622215
C104	C	1.369250	0.551973	1.122215
C105	C	0.868184	0.051980	0.549771
C106	C	1.368184	0.551980	1.049771
C107	C	0.819151	0.000261	0.520043
C108	C	1.319151	0.500261	1.020043
C109	C	0.771171	-0.051453	0.562769
C110	C	1.271171	0.448547	1.062769
C111	C	0.772235	-0.051455	0.635214
C112	C	1.272235	0.448545	1.135214
C113	C	0.821282	0.000262	0.664933
C114	C	1.321282	0.500262	1.164933
C115	C	0.754160	0.000242	0.413752
C116	C	1.254160	0.500242	0.913752
C117	C	0.753098	0.000229	0.341303
C118	C	1.253098	0.500229	0.841303
C119	C	0.879708	0.000262	0.324343
C120	C	1.379708	0.500262	0.824343
C121	C	0.880769	0.000266	0.396790
C122	C	1.380769	0.500266	0.896790
C123	C	0.817993	0.000260	0.441490
C124	C	1.317993	0.500260	0.941490
H125	H	0.593982	0.000201	0.211581
H126	H	1.093982	0.500201	0.711581
Br127	Br	0.973966	0.000279	0.881326
Br128	Br	1.473966	0.500279	1.381326
Br129	Br	0.715421	-0.407504	0.000405
Br130	Br	1.215421	0.092496	0.500405
Br131	Br	0.777817	-0.594304	0.239110
Br132	Br	1.277817	-0.094304	0.739110
H133	H	0.754230	-0.576964	0.004602
H134	H	1.254230	-0.076964	0.504602
H135	H	0.708779	-0.576042	0.140426
H136	H	1.208779	-0.076042	0.640426
H137	H	0.936374	-0.423436	0.067638
H138	H	1.436374	0.076564	0.567638
Br139	Br	-0.008601	0.000314	0.237177
Br140	Br	0.491399	0.500314	0.737177
H141	H	0.772062	-0.423821	0.203786
H142	H	1.272062	0.076179	0.703786
Br143	Br	0.971455	0.000280	0.710563
Br144	Br	1.471455	0.500280	1.210563
H145	H	0.707679	0.000225	0.765608
H146	H	1.207679	0.500225	1.265608
Br147	Br	0.869445	-0.405240	-0.053895
Br148	Br	1.369445	0.094760	0.446105
Br149	Br	0.219459	-0.121601	0.205557
Br150	Br	0.719459	0.378399	0.705557
Br151	Br	0.666462	0.000207	0.303659
Br152	Br	1.166462	0.500207	0.803659
Br153	Br	0.914272	-0.404964	0.195589
Br154	Br	1.414272	0.095036	0.695589
Br155	Br	0.162160	0.000293	0.239683
Br156	Br	0.662160	0.500293	0.739683
H157	H	0.847767	-0.575263	-0.022790
H158	H	1.347767	-0.075263	0.477210
Br159	Br	0.935809	0.122158	0.662551
Br160	Br	1.435809	0.622158	1.162551
H161	H	0.462556	0.000218	0.209652
H162	H	0.962556	0.500218	0.709652
Br163	Br	0.031379	0.000316	-0.061258
Br164	Br	0.531379	0.500316	0.438742
Br165	Br	0.913431	-0.590746	0.197006
Br166	Br	1.413431	-0.090746	0.697006
Br167	Br	0.675529	0.000242	0.921304
Br168	Br	1.175529	0.500242	1.421304
H169	H	0.266336	0.094089	0.003541
H170	H	0.766336	0.594089	0.503541
Br171	Br	0.202138	0.000282	-0.058751
Br172	Br	0.702138	0.500282	0.441249
Br173	Br	0.707125	-0.121635	0.693197
Br174	Br	1.207125	0.378365	1.193197
H175	H	0.907250	0.094090	0.514990
H176	H	1.407250	0.594090	1.014990
Br177	Br	0.390222	-0.121633	0.208061
Br178	Br	0.890222	0.378367	0.708061
Br179	Br	0.673172	-0.406440	0.134351
Br180	Br	1.173172	0.093560	0.634351
Br181	Br	0.704622	-0.121650	0.522434
Br182	Br	1.204622	0.378350	1.022434
H183	H	0.397760	0.094059	0.005466
H184	H	0.897760	0.594059	0.505466
H185	H	0.493322	0.000231	-0.020044
H186	H	0.993322	0.500231	0.479956
Br187	Br	0.965583	-0.592220	0.041782
Br188	Br	1.465583	-0.092220	0.541782
H189	H	0.703044	0.000231	0.450149
H190	H	1.203044	0.500231	0.950149
Br191	Br	0.967402	0.000294	0.434437
Br192	Br	1.467402	0.500294	0.934437
H193	H	0.930816	0.000275	0.287943
H194	H	1.430816	0.500275	0.787943
H195	H	0.624757	0.000178	-0.018124
H196	H	1.124757	0.500178	0.481876
