data_functionalizedCrystal
_audit_creation_method	'MofGen! by Chris Wilmer'
_symmetry_space_group_name_H-M	'P1'
_symmetry_Int_Tables_number	1
_symmetry_cell_setting	triclinic
loop_
_symmetry_equiv_pos_as_xyz
  x,y,z
_cell_length_a	19.805407
_cell_length_b	12.645330
_cell_length_c	19.805407
_cell_angle_alpha	90.007456
_cell_angle_beta	90.009221
_cell_angle_gamma	90.017692
loop_
_atom_site_label
_atom_site_type_symbol
_atom_site_fract_x
_atom_site_fract_y
_atom_site_fract_z
Zn1	Zn	1.034707	-0.422213	0.382747
Zn2	Zn	1.034660	-0.599447	0.269570
Zn3	Zn	0.921543	-0.422198	0.269572
Zn4	Zn	0.921503	-0.599435	0.382717
O5	O	0.978103	-0.510823	0.326152
O6	O	1.129418	-0.445735	0.367746
O7	O	1.019652	-0.575934	0.174854
O8	O	0.936591	-0.273853	0.284598
O9	O	1.129383	-0.575948	0.284596
O10	O	1.019732	-0.273864	0.367747
O11	O	0.936545	-0.445710	0.174855
O12	O	0.826821	-0.445698	0.284569
O13	O	0.936523	-0.575927	0.477438
O14	O	0.826792	-0.575913	0.367696
O15	O	1.019694	-0.445723	0.477460
O16	O	1.019613	-0.747793	0.284567
O17	O	0.936477	-0.747784	0.367695
C18	C	0.802247	-0.510803	0.326130
C19	C	0.727015	-0.510820	0.326136
C20	C	0.691674	-0.578725	0.369351
C21	C	0.620985	-0.578727	0.369360
C22	C	0.585640	-0.510828	0.326152
C23	C	0.620986	-0.442916	0.282935
C24	C	0.691673	-0.442909	0.282930
C25	C	0.335913	-0.442939	0.282958
C26	C	0.265221	-0.442953	0.282965
C27	C	0.265225	-0.578757	0.369388
C28	C	0.335912	-0.578750	0.369383
C29	C	0.371252	-0.510834	0.326169
C30	C	0.447901	-0.510832	0.326160
C31	C	0.508993	-0.510835	0.326157
C32	C	0.978054	-0.786253	0.326142
C33	C	0.978095	-0.904083	0.326161
C34	C	0.926009	-1.071686	0.378618
C35	C	0.925743	-0.949126	0.378449
C36	C	0.958801	-0.948643	0.254828
C37	C	0.958483	-1.071242	0.255147
C38	C	1.049792	-1.071181	0.344457
C39	C	1.049352	-0.948575	0.346017
C40	C	1.154646	-0.510845	0.326174
C41	C	1.229878	-0.510854	0.326183
C42	C	0.978109	-0.510826	0.502694
C43	C	0.978112	-0.510826	0.577926
C44	C	0.978171	-0.234318	0.326176
C45	C	0.978200	-0.116488	0.326186
C46	C	1.021414	-0.443040	0.613283
C47	C	1.021408	-0.443036	0.683971
C48	C	0.978103	-0.510826	0.719302
C49	C	0.934797	-0.578616	0.683940
C50	C	0.934800	-0.578613	0.613253
C51	C	0.934783	-0.578628	0.969013
C52	C	0.934785	-0.578628	1.039706
C53	C	1.021391	-0.443052	1.039732
C54	C	1.021394	-0.443049	0.969045
C55	C	0.978086	-0.510834	0.933689
C56	C	0.978092	-0.510835	0.857041
C57	C	0.978100	-0.510831	0.795949
C58	C	0.978091	-0.510843	1.150296
C59	C	0.978084	-0.510835	1.075064
H60	H	0.720448	-0.387609	0.247744
H61	H	0.906150	-1.099926	0.239669
H62	H	0.994848	-1.100880	0.214749
F63	F	0.373525	-0.651021	0.415369
F64	F	0.888706	-0.650759	0.721543
H65	H	0.899532	-0.633801	0.584467
H66	H	0.995610	-0.919466	0.214695
F67	F	0.583367	-0.370646	0.236953
F68	F	1.067509	-0.370892	0.575688
F69	F	0.941516	-0.909742	0.447584
H70	H	0.592213	-0.634023	0.404549
H71	H	0.236442	-0.634053	0.404577
F72	F	1.068372	-0.910507	0.414634
H73	H	0.899529	-0.633839	0.940236
F74	F	0.227605	-0.370681	0.236975
F75	F	0.941636	-1.110164	0.447981
F76	F	0.729285	-0.650999	0.415337
H77	H	1.067395	-1.102049	0.395589
H78	H	0.873266	-1.102581	0.366668
F79	F	0.856369	-0.910902	0.362631
F80	F	1.102855	-0.908484	0.299741
F81	F	0.373516	-0.370654	0.236968
H82	H	0.907013	-0.918025	0.239071
H83	H	1.088675	-1.100151	0.306269
H84	H	1.056670	-0.387840	0.712756
H85	H	1.056660	-0.387851	0.940282
F86	F	1.067483	-0.370904	1.077365
H87	H	0.899518	-0.633833	1.068470
