data_functionalizedCrystal
_audit_creation_method	'MofGen! by Chris Wilmer'
_symmetry_space_group_name_H-M	'P1'
_symmetry_Int_Tables_number	1
_symmetry_cell_setting	triclinic
loop_
_symmetry_equiv_pos_as_xyz
  x,y,z
_cell_length_a	13.897449
_cell_length_b	12.645330
_cell_length_c	13.897441
_cell_angle_alpha	90.029436
_cell_angle_beta	90.020733
_cell_angle_gamma	90.013926
loop_
_atom_site_label
_atom_site_type_symbol
_atom_site_fract_x
_atom_site_fract_y
_atom_site_fract_z
Zn1	Zn	1.474736	-0.421969	0.545389
Zn2	Zn	1.474645	-0.599265	0.384094
Zn3	Zn	1.313426	-0.422020	0.384107
Zn4	Zn	1.313421	-0.599195	0.545346
O5	O	1.394057	-0.510612	0.464734
O6	O	1.609706	-0.445496	0.524005
O7	O	1.453222	-0.575803	0.249114
O8	O	1.334864	-0.273666	0.405525
O9	O	1.609638	-0.575754	0.405502
O10	O	1.453378	-0.273629	0.524018
O11	O	1.334775	-0.445582	0.249124
O12	O	1.178443	-0.445514	0.405484
O13	O	1.334857	-0.575635	0.680334
O14	O	1.178440	-0.575684	0.523945
O15	O	1.453374	-0.445428	0.680365
O16	O	1.453218	-0.747603	0.405461
O17	O	1.334768	-0.747552	0.523932
C18	C	1.143443	-0.510598	0.464712
C19	C	1.036229	-0.510618	0.464726
C20	C	1.394009	-0.786042	0.464711
C21	C	1.394076	-0.903872	0.464734
C22	C	0.839934	-0.510621	0.464751
C23	C	0.949166	-0.510616	0.464734
C24	C	1.468474	-1.071424	0.390052
C25	C	1.468716	-0.948864	0.390235
C26	C	1.421645	-0.948249	0.566410
C27	C	1.422236	-1.070847	0.566014
C28	C	1.292081	-1.071203	0.438741
C29	C	1.292570	-0.948599	0.436461
C30	C	1.645650	-0.510627	0.464757
C31	C	1.752864	-0.510634	0.464766
C32	C	1.394125	-0.510519	0.716327
C33	C	1.394155	-0.510479	0.823541
C34	C	1.394132	-0.234107	0.464778
C35	C	1.394164	-0.116277	0.464797
C36	C	1.394044	-0.510629	0.214120
C37	C	1.394202	-0.510370	0.106906
C38	C	1.394181	-0.510407	1.019836
C39	C	1.394163	-0.510450	0.910604
H40	H	1.451467	-0.918865	0.314843
C41	C	1.521344	-0.906736	0.596695
H42	H	1.537397	-0.934050	0.658313
H43	H	1.568107	-0.928882	0.551107
H44	H	1.520038	-0.831679	0.599353
C45	C	1.213735	-0.907244	0.504609
H46	H	1.241822	-0.861964	0.551410
H47	H	1.167189	-0.869027	0.468616
H48	H	1.183571	-0.965236	0.535866
H49	H	1.271782	-0.919606	0.361636
H50	H	1.451440	-1.100981	0.314440
C51	C	1.217314	-1.110235	0.512377
H52	H	1.248103	-1.153807	0.558765
H53	H	1.188861	-1.051188	0.543624
H54	H	1.168871	-1.149767	0.480199
H55	H	1.496853	-1.099357	0.588085
C56	C	1.570069	-1.112930	0.413060
H57	H	1.614520	-1.085460	0.367558
H58	H	1.588142	-1.090970	0.475898
H59	H	1.570224	-1.187978	0.409901
C60	C	1.570853	-0.909125	0.413522
H61	H	1.612357	-0.967909	0.422917
H62	H	1.593979	-0.867439	0.361597
H63	H	1.569238	-0.867522	0.470438
C64	C	1.352309	-1.110929	0.643820
H65	H	1.323673	-1.052283	0.675536
H66	H	1.303564	-1.152743	0.614638
H67	H	1.386567	-1.152475	0.689306
H68	H	1.369169	-0.919102	0.623593
C69	C	1.258215	-1.113086	0.340323
H70	H	1.306024	-1.158457	0.314200
H71	H	1.199894	-1.151314	0.348149
H72	H	1.247859	-1.055318	0.297891
