data_functionalizedCrystal
_audit_creation_method	'MofGen! by Chris Wilmer'
_symmetry_space_group_name_H-M	'P1'
_symmetry_Int_Tables_number	1
_symmetry_cell_setting	triclinic
loop_
_symmetry_equiv_pos_as_xyz
  x,y,z
_cell_length_a	12.759401
_cell_length_b	10.686285
_cell_length_c	12.759393
_cell_angle_alpha	85.602987
_cell_angle_beta	89.979062
_cell_angle_gamma	85.633237
loop_
_atom_site_label
_atom_site_type_symbol
_atom_site_fract_x
_atom_site_fract_y
_atom_site_fract_z
Zn1	Zn	1.638400	-0.502237	-0.562006
Zn2	Zn	1.651794	-0.713276	-0.372873
Zn3	Zn	1.462703	-0.502304	-0.386337
Zn4	Zn	1.476188	-0.713187	-0.548516
O5	O	1.557272	-0.607751	-0.467433
O6	O	1.787199	-0.530240	-0.536928
O7	O	1.626673	-0.685355	-0.227634
O8	O	1.474761	-0.325719	-0.420919
O9	O	1.797039	-0.685290	-0.397973
O10	O	1.603845	-0.325669	-0.549983
O11	O	1.487749	-0.530355	-0.237525
O12	O	1.317471	-0.530269	-0.407839
O13	O	1.497744	-0.685139	-0.697331
O14	O	1.327378	-0.685204	-0.526992
O15	O	1.616921	-0.530155	-0.707241
O16	O	1.639748	-0.889840	-0.384893
O17	O	1.510731	-0.889775	-0.513937
C18	C	1.284303	-0.607735	-0.467413
C19	C	1.167528	-0.607759	-0.467427
C20	C	1.117860	-0.688557	-0.529357
C21	C	1.008136	-0.688562	-0.529377
C22	C	0.997758	-0.526968	-0.405531
C23	C	1.107479	-0.526957	-0.405516
C24	C	0.861137	-0.733838	-0.650352
C25	C	0.811467	-0.814656	-0.712270
C26	C	0.854944	-0.937798	-0.720369
C27	C	0.948090	-0.980148	-0.666531
C28	C	0.997756	-0.899338	-0.604604
C29	C	0.954279	-0.776178	-0.596527
C30	C	1.254481	-0.481694	-0.284540
C31	C	1.304149	-0.400888	-0.222606
C32	C	1.260674	-0.277744	-0.214498
C33	C	1.167524	-0.235398	-0.268316
C34	C	1.117857	-0.316204	-0.330250
C35	C	1.161339	-0.439347	-0.338360
C36	C	1.578185	-0.935592	-0.446513
C37	C	1.587228	-1.075844	-0.437599
C38	C	1.831306	-0.607767	-0.467453
C39	C	1.948083	-0.607774	-0.467462
C40	C	1.557342	-0.607630	-0.741474
C41	C	1.557373	-0.607578	-0.858254
C42	C	1.536305	-0.278630	-0.488457
C43	C	1.527370	-0.138378	-0.497417
C44	C	1.619432	-0.526865	-0.918279
C45	C	1.619446	-0.526810	-1.028007
C46	C	1.495340	-0.688194	-1.017674
C47	C	1.495320	-0.688241	-0.907949
C48	C	1.647533	-0.377935	-1.187475
C49	C	1.709610	-0.297233	-1.247503
C50	C	1.810885	-0.277884	-1.213145
C51	C	1.850105	-0.339255	-1.118759
C52	C	1.788034	-0.419967	-1.058736
C53	C	1.686743	-0.439292	-1.093094
C54	C	1.467244	-0.837117	-0.748479
C55	C	1.405179	-0.917836	-0.688453
C56	C	1.303903	-0.937199	-0.722808
C57	C	1.264688	-0.875849	-0.817196
C58	C	1.326754	-0.795130	-0.877221
C59	C	1.428028	-0.775766	-0.842859
C60	C	1.557256	-0.607780	-0.194464
C61	C	1.557406	-0.607477	-0.077707
H62	H	1.073593	-0.933818	-0.560770
N63	N	1.830322	-0.486163	-0.956944
H64	H	1.903903	-0.461666	-0.944285
H65	H	1.783509	-0.460892	-0.897072
N66	N	0.711006	-0.768975	-0.770333
H67	H	0.724235	-0.694418	-0.820830
H68	H	0.686184	-0.838934	-0.810721
H69	H	0.825736	-0.633562	-0.643776
H70	H	0.948853	-0.461184	-0.355123
N71	N	1.667302	-0.231022	-1.349288
H72	H	1.721995	-0.176963	-1.382101
H73	H	1.649883	-0.295608	-1.399077
H74	H	1.549709	-0.821350	-0.720493
H75	H	0.814494	-1.003600	-0.770786
N76	N	1.686355	-0.439867	-0.864677
H77	H	1.725670	-0.388727	-0.919357
H78	H	1.639863	-0.381489	-0.822874
N79	N	1.959345	-0.318396	-1.081706
H80	H	1.992714	-0.257951	-1.134050
H81	H	1.955048	-0.282014	-1.010939
N82	N	1.877843	-0.190847	-1.277887
H83	H	1.837633	-0.154910	-1.342891
H84	H	1.896245	-0.120060	-1.234832
H85	H	1.565064	-0.393672	-1.215454
H86	H	1.182223	-0.891619	-0.845171
H87	H	1.301119	-0.211957	-0.164056
H88	H	1.645389	-1.129609	-0.379554
H89	H	1.444821	-0.753869	-1.058149
H90	H	1.294816	-0.745177	-0.954077
N91	N	1.236963	-1.024274	-0.658076
H92	H	1.277172	-1.060213	-0.593072
H93	H	1.170319	-0.975739	-0.636801
N94	N	1.182630	-0.775691	-0.596138
H95	H	1.231857	-0.834103	-0.549627
H96	H	1.134442	-0.826790	-0.635365
H97	H	1.437122	-0.967802	-0.611604
H98	H	1.469206	-1.084620	-0.555451
H99	H	0.983476	-1.080428	-0.673120
H100	H	1.132114	-0.135132	-0.261697
N101	N	1.017385	-0.270538	-0.388298
H102	H	0.997376	-0.180264	-0.373765
H103	H	1.028246	-0.276125	-0.466259
H104	H	1.289894	-0.581965	-0.291146
N105	N	1.404617	-0.446557	-0.164552
H106	H	1.424630	-0.536828	-0.179092
H107	H	1.462637	-0.392292	-0.189133
