data_functionalizedCrystal
_audit_creation_method	'MofGen! by Chris Wilmer'
_symmetry_space_group_name_H-M	'P1'
_symmetry_Int_Tables_number	1
_symmetry_cell_setting	triclinic
loop_
_symmetry_equiv_pos_as_xyz
  x,y,z
_cell_length_a	16.974800
_cell_length_b	16.992695
_cell_length_c	15.500215
_cell_angle_alpha	87.000809
_cell_angle_beta	89.533919
_cell_angle_gamma	92.978326
loop_
_atom_site_label
_atom_site_type_symbol
_atom_site_fract_x
_atom_site_fract_y
_atom_site_fract_z
O1	O	1.055364	-0.099784	-0.001974
O2	O	0.826738	-0.113247	0.014041
O3	O	0.940134	0.007623	0.006091
O4	O	0.941968	-0.220655	0.005976
O5	O	0.933178	0.014099	-0.137312
O6	O	0.819782	-0.106772	-0.129361
O7	O	1.048408	-0.093308	-0.145377
Cu8	Cu	0.933460	-0.099449	-0.150463
Cu9	Cu	0.941686	-0.107107	0.019127
O10	O	0.935012	-0.214179	-0.137426
C11	C	0.793871	-0.109620	-0.055601
C12	C	0.706299	-0.108449	-0.049467
C13	C	0.661371	-0.104367	-0.124756
C14	C	0.579090	-0.103255	-0.118995
C15	C	0.541737	-0.106230	-0.037944
C16	C	0.586671	-0.110310	0.037351
C17	C	0.668952	-0.111417	0.031588
C18	C	0.296062	-0.103293	-0.012329
C19	C	0.213775	-0.102189	-0.006572
C20	C	0.206199	-0.095132	-0.162918
C21	C	0.288481	-0.096244	-0.168673
C22	C	0.333408	-0.100320	-0.093379
N23	N	0.457632	-0.105096	-0.032053
N24	N	0.417512	-0.101448	-0.099270
C25	C	1.081275	-0.096936	-0.075732
C26	C	1.168847	-0.098107	-0.081861
C27	C	0.934298	0.040064	-0.065445
C28	C	0.927262	0.127077	-0.064952
C29	C	0.940848	-0.246619	-0.065889
C30	C	0.947884	-0.333634	-0.066376
N31	N	0.927680	-0.094061	-0.269744
C32	C	0.995147	0.177610	-0.069708
C33	C	0.988532	0.259368	-0.069237
C34	C	0.914031	0.290592	-0.064015
C35	C	0.846141	0.240053	-0.059256
C36	C	0.852757	0.158296	-0.059721
C37	C	0.886610	0.534071	-0.062082
C38	C	0.879999	0.615834	-0.061620
C39	C	1.022391	0.635143	-0.071599
C40	C	1.029000	0.553384	-0.072069
C41	C	0.961110	0.502853	-0.067306
N42	N	0.907268	0.374161	-0.063536
N43	N	0.967875	0.419284	-0.067779
C44	C	0.976279	-0.139392	-0.318418
C45	C	0.971918	-0.135313	-0.408686
C46	C	0.918954	-0.085907	-0.450278
C47	C	0.870354	-0.040571	-0.401597
C48	C	0.874719	-0.044647	-0.311331
C49	C	0.903236	-0.071228	-0.722646
C50	C	0.898873	-0.067158	-0.812918
C51	C	1.000439	-0.161898	-0.820001
C52	C	1.004796	-0.165973	-0.729733
C53	C	0.956199	-0.120634	-0.681060
C54	C	0.914493	-0.081738	-0.542546
C55	C	0.960664	-0.124800	-0.588794
N56	N	0.947471	-0.112488	0.138408
H57	H	0.705531	-0.114742	0.092897
H58	H	0.785481	0.265482	-0.054999
O59	O	1.075503	0.143932	-0.075332
H60	H	1.121596	0.192809	-0.078549
O61	O	1.052864	-0.210780	-0.872504
H62	H	1.015758	-0.251191	-0.911182
H63	H	1.043812	0.300508	-0.073112
H64	H	1.089667	0.527968	-0.076322
H65	H	1.077663	0.676294	-0.075476
O66	O	0.157718	-0.091134	-0.244123
H67	H	0.094218	-0.091006	-0.226503
H68	H	0.819327	0.641254	-0.057381
O69	O	0.779539	0.103788	-0.054601
H70	H	0.726621	0.139234	-0.050902
H71	H	0.318888	-0.093817	-0.234673
H72	H	1.047927	-0.206202	-0.695876
O73	O	0.822336	0.004285	-0.258834
H74	H	0.834288	-0.006828	-0.189081
H75	H	0.542514	-0.099918	-0.180303
H76	H	0.831329	0.492937	-0.058203
H77	H	1.019403	-0.179628	-0.284561
O78	O	1.024331	-0.184207	-0.461188
H79	H	1.061886	-0.219254	-0.417102
O80	O	0.841748	-0.013865	-0.857783
H81	H	0.808693	0.016983	-0.808774
H82	H	0.863665	-0.034310	-0.683027
H83	H	1.003789	-0.165023	-0.554927
H84	H	0.827233	-0.000340	-0.435468
O85	O	0.857364	-0.028453	-0.587402
H86	H	0.815391	-0.064338	-0.625726
H87	H	0.183365	-0.104614	0.059433
O88	O	0.701654	-0.101170	-0.212178
H89	H	0.687715	-0.045840	-0.248819
O90	O	0.344514	-0.107697	0.068877
H91	H	0.304714	-0.109590	0.126202
O92	O	0.546390	-0.113522	0.124773
H93	H	0.481626	-0.112076	0.116133
