data_functionalizedCrystal
_audit_creation_method	'MofGen! by Chris Wilmer'
_symmetry_space_group_name_H-M	'P1'
_symmetry_Int_Tables_number	1
_symmetry_cell_setting	triclinic
loop_
_symmetry_equiv_pos_as_xyz
  x,y,z
_cell_length_a	25.639242
_cell_length_b	29.839131
_cell_length_c	25.639234
_cell_angle_alpha	89.974256
_cell_angle_beta	89.970648
_cell_angle_gamma	90.036947
loop_
_atom_site_label
_atom_site_type_symbol
_atom_site_fract_x
_atom_site_fract_y
_atom_site_fract_z
Zn1	Zn	0.799252	-0.178934	-0.295739
Zn2	Zn	1.299252	0.321066	0.204261
Zn3	Zn	0.799161	-0.254057	-0.208302
Zn4	Zn	1.299161	0.245943	0.291698
Zn5	Zn	0.711818	-0.178936	-0.208303
Zn6	Zn	1.211818	0.321064	0.291697
Zn7	Zn	0.711769	-0.254032	-0.295692
Zn8	Zn	1.211769	0.245968	0.204308
O9	O	0.755500	-0.216490	-0.252009
O10	O	1.255500	0.283510	0.247991
O11	O	0.872405	-0.188909	-0.284160
O12	O	1.372405	0.311091	0.215840
O13	O	0.787556	-0.244103	-0.135137
O14	O	1.287556	0.255897	0.364863
O15	O	0.723474	-0.116068	-0.219922
O16	O	1.223474	0.383932	0.280078
O17	O	0.872338	-0.244101	-0.219920
O18	O	1.372338	0.255899	0.280080
O19	O	0.787712	-0.116067	-0.284161
O20	O	1.287712	0.383933	0.215839
O21	O	0.723386	-0.188912	-0.135138
O22	O	1.223386	0.311088	0.364862
O23	O	0.638646	-0.188888	-0.219876
O24	O	1.138646	0.311112	0.280124
O25	O	0.723392	-0.244059	-0.368864
O26	O	1.223392	0.255941	0.131136
O27	O	0.638611	-0.244061	-0.284081
O28	O	1.138611	0.255939	0.215919
O29	O	0.787666	-0.188885	-0.368898
O30	O	1.287666	0.311115	0.131102
O31	O	0.787509	-0.316921	-0.219875
O32	O	1.287509	0.183079	0.280125
O33	O	0.723304	-0.316903	-0.284080
O34	O	1.223304	0.183097	0.215920
C35	C	0.619657	-0.216472	-0.251974
C36	C	1.119657	0.283528	0.248026
C37	C	0.561543	-0.216475	-0.251971
C38	C	1.061543	0.283525	0.248029
C39	C	0.201171	-0.245266	-0.285409
C40	C	0.701171	0.254734	0.214591
C41	C	0.146566	-0.245269	-0.285417
C42	C	0.646566	0.254731	0.214583
O43	O	0.118322	-0.269726	-0.313817
O44	O	0.618322	0.230274	0.186183
N45	N	0.119261	-0.216502	-0.252043
N46	N	0.619261	0.283498	0.247957
C47	C	0.146562	-0.187727	-0.218663
C48	C	0.646562	0.312273	0.281337
O49	O	0.118323	-0.163259	-0.190277
O50	O	0.618323	0.336741	0.309723
C51	C	0.201166	-0.187723	-0.218658
C52	C	0.701166	0.312277	0.281342
C53	C	0.228469	-0.216495	-0.252030
C54	C	0.728469	0.283505	0.247970
C55	C	0.228474	-0.274036	-0.318778
C56	C	0.728474	0.225964	0.181222
C57	C	0.283074	-0.274033	-0.318769
C58	C	0.783074	0.225967	0.181231
C59	C	0.310372	-0.245262	-0.285391
C60	C	0.810372	0.254738	0.214609
C61	C	0.283069	-0.216492	-0.252021
C62	C	0.783069	0.283508	0.247979
C63	C	0.228466	-0.158946	-0.185281
C64	C	0.728466	0.341054	0.314719
C65	C	0.283073	-0.158943	-0.185279
C66	C	0.783073	0.341057	0.314721
C67	C	0.310376	-0.187716	-0.218651
C68	C	0.810376	0.312284	0.281349
C69	C	0.364967	-0.187719	-0.218633
C70	C	0.864967	0.312281	0.281367
N71	N	0.392273	-0.216485	-0.252007
N72	N	0.892273	0.283515	0.247993
C73	C	0.364975	-0.245257	-0.285385
C74	C	0.864975	0.254743	0.214615
C75	C	0.031892	-0.187739	-0.218677
C76	C	0.531892	0.312261	0.281323
C77	C	-0.022711	-0.187745	-0.218679
C78	C	0.477289	0.312255	0.281321
C79	C	-0.022703	-0.245287	-0.285434
C80	C	0.477297	0.254713	0.214566
C81	C	0.031901	-0.245282	-0.285429
C82	C	0.531901	0.254718	0.214571
C83	C	0.059197	-0.216506	-0.252051
C84	C	0.559197	0.283494	0.247949
C85	C	0.479640	-0.245250	-0.285363
C86	C	0.979640	0.254750	0.214637
C87	C	0.534246	-0.245247	-0.285350
C88	C	1.034246	0.254753	0.214650
C89	C	0.534233	-0.187704	-0.218597
C90	C	1.034233	0.312296	0.281403
C91	C	0.479632	-0.187709	-0.218609
C92	C	0.979632	0.312291	0.281391
C93	C	0.452337	-0.216484	-0.251996
C94	C	0.952337	0.283516	0.248004
O95	O	0.393247	-0.163273	-0.190249
O96	O	0.893247	0.336727	0.309751
O97	O	0.393221	-0.269717	-0.313771
O98	O	0.893221	0.230283	0.186229
C99	C	0.755406	-0.333212	-0.251983
C100	C	1.255406	0.166788	0.248017
C101	C	0.755413	-0.383147	-0.251990
C102	C	1.255413	0.116853	0.248010
C103	C	0.788993	-0.692787	-0.218627
C104	C	1.288993	-0.192787	0.281373
C105	C	0.789057	-0.880460	-0.218647
C106	C	1.289057	-0.380460	0.281353
O107	O	0.817533	-0.904722	-0.190260
O108	O	1.317533	-0.404722	0.309740
N109	N	0.755608	-0.903932	-0.252049
N110	N	1.255608	-0.403932	0.247951
C111	C	0.722143	-0.880482	-0.285450
C112	C	1.222143	-0.380482	0.214550
O113	O	0.693698	-0.904753	-0.313865
O114	O	1.193698	-0.404753	0.186135
C115	C	0.722082	-0.692810	-0.285432
C116	C	1.222082	-0.192810	0.214568
C117	C	0.755529	-0.669341	-0.252024
C118	C	1.255529	-0.169341	0.247976
C119	C	0.822438	-0.669318	-0.185222
C120	C	1.322438	-0.169318	0.314778
C121	C	0.822419	-0.622402	-0.185215
C122	C	1.322419	-0.122402	0.314785
C123	C	0.788956	-0.598956	-0.218613
C124	C	1.288956	-0.098956	0.281387
C125	C	0.755511	-0.622425	-0.252018
C126	C	1.255511	-0.122425	0.247982
C127	C	0.688620	-0.669362	-0.318836
C128	C	1.188620	-0.169362	0.181164
C129	C	0.688608	-0.622441	-0.318829
C130	C	1.188608	-0.122441	0.181171
C131	C	0.722056	-0.598971	-0.285422
C132	C	1.222056	-0.098971	0.214578
C133	C	0.722029	-0.552064	-0.285409
C134	C	1.222029	-0.052064	0.214591
N135	N	0.755478	-0.528592	-0.252007
N136	N	1.255478	-0.028592	0.247993
C137	C	0.788941	-0.552038	-0.218609
C138	C	1.288941	-0.052038	0.281391
C139	C	0.722177	-0.979013	-0.285457
C140	C	1.222177	-0.479013	0.214543
C141	C	0.722192	-1.025931	-0.285461
C142	C	1.222192	-0.525931	0.214539
C143	C	0.789107	-1.025905	-0.218658
C144	C	1.289107	-0.525905	0.281342
C145	C	0.789089	-0.978986	-0.218652
C146	C	1.289089	-0.478986	0.281348
C147	C	0.755626	-0.955541	-0.252055
C148	C	1.255626	-0.455541	0.247945
C149	C	0.788899	-0.453512	-0.218597
C150	C	1.288899	0.046488	0.281403
C151	C	0.788877	-0.406593	-0.218592
C152	C	1.288877	0.093407	0.281408
C153	C	0.721964	-0.406623	-0.285396
C154	C	1.221964	0.093377	0.214604
C155	C	0.721985	-0.453538	-0.285400
C156	C	1.221985	0.046462	0.214600
C157	C	0.755457	-0.476982	-0.251999
C158	C	1.255457	0.023018	0.248001
O159	O	0.693572	-0.527773	-0.313785
O160	O	1.193572	-0.027773	0.186215
O161	O	0.817390	-0.527760	-0.190207
O162	O	1.317390	-0.027760	0.309793
C163	C	0.789011	-0.739702	-0.218633
C164	C	1.289011	-0.239702	0.281367
C165	C	0.755566	-0.763172	-0.252038
C166	C	1.255566	-0.263172	0.247962
C167	C	0.722103	-0.739726	-0.285436
C168	C	1.222103	-0.239726	0.214564
C169	C	0.755581	-0.810090	-0.252042
C170	C	1.255581	-0.310090	0.247958
C171	C	0.789044	-0.833536	-0.218644
C172	C	1.289044	-0.333536	0.281356
C173	C	0.822493	-0.810064	-0.185242
C174	C	1.322493	-0.310064	0.314758
C175	C	0.822475	-0.763148	-0.185235
C176	C	1.322475	-0.263148	0.314765
C177	C	0.688654	-0.763198	-0.318838
C178	C	1.188654	-0.263198	0.181162
C179	C	0.688675	-0.810113	-0.318841
C180	C	1.188675	-0.310113	0.181159
C181	C	0.722138	-0.833559	-0.285443
C182	C	1.222138	-0.333559	0.214557
C183	C	0.891873	-0.216508	-0.252045
C184	C	1.391873	0.283492	0.247955
C185	C	0.949987	-0.216516	-0.252060
C186	C	1.449987	0.283484	0.247940
C187	C	0.755534	-0.216469	-0.388382
C188	C	1.255534	0.283531	0.111618
C189	C	0.755548	-0.216461	-0.446496
C190	C	1.255548	0.283539	0.053504
C191	C	0.755609	-0.099311	-0.252047
C192	C	1.255609	0.400689	0.247953
C193	C	0.755655	-0.049377	-0.252063
C194	C	1.255655	0.450623	0.247937
C195	C	0.722150	-0.187669	-0.806865
C196	C	1.222150	0.312331	-0.306865
C197	C	0.722152	-0.187661	-0.861470
C198	C	1.222152	0.312339	-0.361470
O199	O	0.693729	-0.163231	-0.889712
O200	O	1.193729	0.336769	-0.389712
N201	N	0.755566	-0.216390	-0.888779
N202	N	1.255566	0.283610	-0.388779
C203	C	0.788975	-0.245132	-0.861481
C204	C	1.288975	0.254868	-0.361481
O205	O	0.817396	-0.269568	-0.889724
O206	O	1.317396	0.230432	-0.389724
C207	C	0.788969	-0.245143	-0.806878
C208	C	1.288969	0.254857	-0.306878
C209	C	0.755557	-0.216408	-0.779571
C210	C	1.255557	0.283592	-0.279571
C211	C	0.688740	-0.158937	-0.779559
C212	C	1.188740	0.341063	-0.279559
C213	C	0.688738	-0.158945	-0.724958
C214	C	1.188738	0.341055	-0.224958
C215	C	0.722146	-0.187684	-0.697664
C216	C	1.222146	0.312316	-0.197664
C217	C	0.755555	-0.216416	-0.724971
C218	C	1.255555	0.283584	-0.224971
C219	C	0.822375	-0.273887	-0.779581
C220	C	1.322375	0.226113	-0.279581
C221	C	0.822366	-0.273895	-0.724974
C222	C	1.322366	0.226105	-0.224974
C223	C	0.788954	-0.245160	-0.697667
C224	C	1.288954	0.254840	-0.197667
C225	C	0.788961	-0.245163	-0.643076
C226	C	1.288961	0.254837	-0.143076
N227	N	0.755547	-0.216434	-0.615767
N228	N	1.255547	0.283566	-0.115767
C229	C	0.722140	-0.187694	-0.643061
C230	C	1.222140	0.312306	-0.143061
C231	C	0.788984	-0.245110	-0.976152
C232	C	1.288984	0.254890	-0.476152
C233	C	0.788993	-0.245098	-1.030754
C234	C	1.288993	0.254902	-0.530754
C235	C	0.722169	-0.187627	-1.030739
C236	C	1.222169	0.312373	-0.530739
C237	C	0.722164	-0.187637	-0.976136
C238	C	1.222164	0.312363	-0.476136
C239	C	0.755571	-0.216381	-0.948843
C240	C	1.255571	0.283619	-0.448843
C241	C	0.722138	-0.187712	-0.528396
C242	C	1.222138	0.312288	-0.028396
C243	C	0.722141	-0.187721	-0.473790
C244	C	1.222141	0.312279	0.026210
C245	C	0.788962	-0.245194	-0.473810
C246	C	1.288962	0.254806	0.026190
C247	C	0.788962	-0.245184	-0.528411
C248	C	1.288962	0.254816	-0.028411
C249	C	0.755546	-0.216441	-0.555702
C250	C	1.255546	0.283559	-0.055702
O251	O	0.817368	-0.269582	-0.614800
O252	O	1.317368	0.230418	-0.114800
O253	O	0.693719	-0.163267	-0.614812
O254	O	1.193719	0.336733	-0.114812
C255	C	0.755496	-0.216478	-0.116167
C256	C	1.255496	0.283522	0.383833
C257	C	0.755583	-0.216360	-0.058053
C258	C	1.255583	0.283640	0.441947
H259	H	0.305299	-0.297462	-0.345945
H260	H	0.805299	0.202538	0.154055
H261	H	0.054114	-0.164306	-0.191493
H262	H	0.554114	0.335694	0.308507
Cl263	Cl	0.680133	-0.151575	-0.562697
Cl264	Cl	1.180133	0.348425	-0.062697
H265	H	0.661528	-0.135548	-0.702730
H266	H	1.161528	0.364452	-0.202730
Cl267	Cl	0.646575	-0.698855	-0.360843
Cl268	Cl	1.146575	-0.198855	0.139157
H269	H	0.849691	-0.688402	-0.158025
H270	H	1.349691	-0.188402	0.341975
H271	H	0.457401	-0.164282	-0.191433
H272	H	0.957401	0.335718	0.308567
Cl273	Cl	0.646730	-0.122808	-0.813862
Cl274	Cl	1.146730	0.377192	-0.313862
Cl275	Cl	0.680157	-0.151513	-0.941813
Cl276	Cl	1.180157	0.348487	-0.441813
H277	H	0.694967	-0.164226	-1.052972
H278	H	1.194967	0.335774	-0.552972
H279	H	0.206246	-0.135518	-0.158104
H280	H	0.706246	0.364482	0.341896
H281	H	0.816325	-0.959880	-0.191448
H282	H	1.316325	-0.459880	0.308552
Cl283	Cl	0.568560	-0.151536	-0.176638
Cl284	Cl	1.068560	0.348464	0.323362
H285	H	0.816206	-0.268491	-1.052982
H286	H	1.316206	0.231509	-0.552982
H287	H	0.816194	-0.268514	-0.953933
H288	H	1.316194	0.231486	-0.453933
H289	H	0.849582	-0.297286	-0.801804
H290	H	1.349582	0.202714	-0.301804
Cl291	Cl	-0.057027	-0.151579	-0.176717
Cl292	Cl	0.442973	0.348421	0.323283
Cl293	Cl	0.830928	-0.377091	-0.176590
Cl294	Cl	1.330928	0.122909	0.323410
H295	H	0.849574	-0.297299	-0.702754
H296	H	1.349574	0.202701	-0.202754
Cl297	Cl	0.830978	-0.482977	-0.176605
Cl298	Cl	1.330978	0.017023	0.323395
H299	H	-0.044938	-0.268713	-0.312615
H300	H	0.455062	0.231287	0.187385
H301	H	0.694927	-0.959927	-0.312658
H302	H	1.194927	-0.459927	0.187342
Cl303	Cl	0.317386	-0.122765	-0.143315
Cl304	Cl	0.817386	0.377235	0.356685
Cl305	Cl	0.864478	-0.592905	-0.143222
Cl306	Cl	1.364478	-0.092905	0.356778
Cl307	Cl	0.646621	-0.839612	-0.360844
Cl308	Cl	1.146621	-0.339612	0.139156
H309	H	0.816354	-1.045003	-0.191464
H310	H	1.316354	-0.545003	0.308536
Cl311	Cl	0.646539	-0.592970	-0.360826
Cl312	Cl	1.146539	-0.092970	0.139174
H313	H	0.694933	-0.164320	-0.451560
H314	H	1.194933	0.335680	0.048440
Cl315	Cl	0.830975	-0.281299	-0.562740
Cl316	Cl	1.330975	0.218701	-0.062740
Cl317	Cl	0.680136	-1.055429	-0.327454
Cl318	Cl	1.180136	-0.555429	0.172546
H319	H	0.816163	-0.268591	-0.451578
H320	H	1.316163	0.231409	0.048422
Cl321	Cl	0.679926	-0.483043	-0.327388
Cl322	Cl	1.179926	0.016957	0.172612
H323	H	0.849711	-0.744043	-0.158032
H324	H	1.349711	-0.244043	0.341968
Cl325	Cl	0.568566	-0.281421	-0.327305
Cl326	Cl	1.068566	0.218579	0.172695
Cl327	Cl	0.194166	-0.310211	-0.360746
Cl328	Cl	0.694166	0.189789	0.139254
Cl329	Cl	0.066218	-0.281453	-0.327385
Cl330	Cl	0.566218	0.218547	0.172615
Cl331	Cl	0.679901	-0.377139	-0.327383
Cl332	Cl	1.179901	0.122861	0.172617
H333	H	0.457423	-0.268680	-0.312552
H334	H	0.957423	0.231320	0.187448
H335	H	0.849739	-0.829162	-0.158047
H336	H	1.349739	-0.329162	0.341953
Cl337	Cl	0.646581	-0.733730	-0.360828
Cl338	Cl	1.146581	-0.233730	0.139172
