data_functionalizedCrystal
_audit_creation_method	'MofGen! by Chris Wilmer'
_symmetry_space_group_name_H-M	'P1'
_symmetry_Int_Tables_number	1
_symmetry_cell_setting	triclinic
loop_
_symmetry_equiv_pos_as_xyz
  x,y,z
_cell_length_a	33.510554
_cell_length_b	33.509711
_cell_length_c	33.506470
_cell_angle_alpha	60.004186
_cell_angle_beta	60.008358
_cell_angle_gamma	59.994760
loop_
_atom_site_label
_atom_site_type_symbol
_atom_site_fract_x
_atom_site_fract_y
_atom_site_fract_z
O1	O	0.055430	-0.583081	0.487524
O2	O	0.555430	-0.083081	0.987524
O3	O	0.020931	-0.453975	0.392819
O4	O	0.520931	0.046025	0.892819
O5	O	0.102693	-0.535652	0.392731
O6	O	0.602693	-0.035652	0.892731
O7	O	-0.026332	-0.501404	0.487613
O8	O	0.473668	-0.001404	0.987613
O9	O	0.129823	-0.508526	0.419767
O10	O	0.629823	-0.008526	0.919767
O11	O	0.048062	-0.426850	0.419856
O12	O	0.548062	0.073150	0.919856
O13	O	0.082561	-0.555956	0.514561
O14	O	0.582561	-0.055956	1.014561
Cu15	Cu	0.067789	-0.488926	0.469677
Cu16	Cu	0.567789	0.011074	0.969677
Cu17	Cu	0.035703	-0.521005	0.437703
Cu18	Cu	0.535703	-0.021005	0.937703
O19	O	0.000799	-0.474279	0.514649
O20	O	0.500799	0.025721	1.014649
N21	N	0.090357	-0.466366	0.492168
N22	N	0.590357	0.033634	0.992168
N23	N	0.013139	-0.543569	0.415212
N24	N	0.513139	-0.043569	0.915212
C25	C	0.143028	-0.279707	0.544737
C26	C	0.643028	0.220293	1.044737
C27	C	0.143165	-0.413746	0.678712
C28	C	0.643165	0.086254	1.178712
C29	C	0.143043	-0.413725	0.544739
C30	C	0.643043	0.086275	1.044739
C31	C	0.277090	-0.413694	0.544637
C32	C	0.777090	0.086306	1.044637
C33	C	0.157791	-0.323929	0.559462
C34	C	0.657791	0.176071	1.059462
C35	C	0.157869	-0.398994	0.634489
C36	C	0.657869	0.101006	1.134489
C37	C	0.232865	-0.398963	0.559407
C38	C	0.732865	0.101037	1.059407
C39	C	0.157801	-0.398982	0.559463
C40	C	0.657801	0.101018	1.059463
C41	C	0.124237	-0.223419	0.525994
C42	C	0.624237	0.276581	1.025994
C43	C	0.124262	-0.432490	0.525997
C44	C	0.624262	0.067510	1.025997
C45	C	0.176583	-0.380217	0.578205
C46	C	0.676583	0.119783	1.078205
C47	C	0.358938	-0.399566	0.501510
C48	C	0.858938	0.100434	1.001510
C49	C	0.410104	-0.416609	0.484423
C50	C	0.910104	0.083391	0.984423
C51	C	0.410135	-0.499402	0.515995
C52	C	0.910135	0.000598	1.015995
C53	C	0.358969	-0.482358	0.533084
C54	C	0.858969	0.017642	1.033084
C55	C	0.136554	-0.197822	0.475693
C56	C	0.636554	0.302178	0.975693
C57	C	0.119469	-0.146653	0.458657
C58	C	0.619469	0.353347	0.958657
C59	C	0.077755	-0.146680	0.542223
C60	C	0.577755	0.353320	1.042223
C61	C	0.094840	-0.197850	0.559260
C62	C	0.594840	0.302150	1.059260
C63	C	0.073954	-0.420144	0.538396
C64	C	0.573954	0.079856	1.038396
C65	C	0.056884	-0.437203	0.521352
C66	C	0.556884	0.062797	1.021352
C67	C	0.140427	-0.478952	0.479524
C68	C	0.640427	0.021048	0.979524
C69	C	0.157498	-0.461894	0.496561
C70	C	0.657498	0.038106	0.996561
C71	C	0.074158	-0.420182	0.760618
C72	C	0.574158	0.079818	1.260618
C73	C	0.057149	-0.437256	0.811786
C74	C	0.557149	0.062744	1.311786
C75	C	0.140732	-0.479014	0.811717
C76	C	0.640732	0.020986	1.311717
C77	C	0.157740	-0.461942	0.760547
C78	C	0.657740	0.038058	1.260547
C79	C	0.124452	-0.432525	0.734999
C80	C	0.624452	0.067475	1.234999
C81	C	0.333372	-0.432439	0.525839
C82	C	0.833372	0.067561	1.025839
C83	C	-0.020612	-0.577650	0.170305
C84	C	0.479388	-0.077650	0.670305
C85	C	-0.020943	-0.788098	0.380897
C86	C	0.479057	-0.288098	0.880897
C87	C	-0.020912	-0.577638	0.380991
C88	C	0.479088	-0.077638	0.880991
C89	C	-0.231336	-0.577418	0.380585
C90	C	0.268664	-0.077418	0.880585
C91	C	-0.129735	-0.611383	0.346870
C92	C	0.370265	-0.111383	0.846870
C93	C	-0.054722	-0.611464	0.347017
C94	C	0.445278	-0.111464	0.847017
C95	C	-0.073450	-0.630202	0.328195
C96	C	0.426550	-0.130202	0.828195
C97	C	-0.087616	-0.712029	0.371239
C98	C	0.412384	-0.212029	0.871239
C99	C	-0.070599	-0.763199	0.388315
C100	C	0.429401	-0.263199	0.888315
C101	C	0.012191	-0.763282	0.356872
C102	C	0.512191	-0.263282	0.856872
C103	C	-0.004828	-0.712113	0.339795
C104	C	0.495172	-0.212113	0.839795
C105	C	-0.155381	-0.623711	0.397158
C106	C	0.344619	-0.123711	0.897158
C107	C	-0.206547	-0.606601	0.414133
C108	C	0.293453	-0.106601	0.914133
C109	C	-0.206417	-0.564839	0.330529
C110	C	0.293583	-0.064839	0.830529
C111	C	-0.155251	-0.581949	0.313554
C112	C	0.344749	-0.081949	0.813554
C113	C	-0.067051	-0.561160	0.334643
C114	C	0.432949	-0.061160	0.834643
C115	C	-0.050026	-0.544131	0.351759
C116	C	0.449974	-0.044131	0.851759
C117	C	-0.008343	-0.627704	0.393612
C118	C	0.491657	-0.127704	0.893612
C119	C	-0.025368	-0.644736	0.376502
C120	C	0.474632	-0.144736	0.876502
C121	C	-0.066922	-0.561168	0.246303
C122	C	0.433078	-0.061168	0.746303
C123	C	-0.049794	-0.544141	0.195134
C124	C	0.450206	-0.044141	0.695134
C125	C	-0.008048	-0.627719	0.195183
C126	C	0.491952	-0.127719	0.695183
C127	C	-0.025175	-0.644745	0.246352
C128	C	0.474825	-0.144745	0.746352
C129	C	-0.054614	-0.611468	0.271911
C130	C	0.445386	-0.111468	0.771911
C131	C	-0.054732	-0.686488	0.346980
C132	C	0.445268	-0.186488	0.846980
C133	C	-0.002117	-0.558258	0.114025
C134	C	0.497883	-0.058258	0.614025
C135	C	-0.002879	-0.844379	0.399940
C136	C	0.497121	-0.344379	0.899940
C137	C	-0.002504	-0.558243	0.399473
C138	C	0.497496	-0.058243	0.899473
C139	C	-0.287615	-0.558285	0.398601
C140	C	0.212385	-0.058285	0.898601
N141	N	0.434975	-0.466279	0.491900
N142	N	0.934975	0.033721	0.991900
O143	O	0.591199	-0.470749	0.375150
O144	O	1.091199	0.029251	0.875150
O145	O	0.591395	-0.565767	0.504116
O146	O	1.091395	-0.065767	1.004116
O147	O	0.591311	-0.565550	0.422329
O148	O	1.091311	-0.065550	0.922329
O149	O	0.591283	-0.470966	0.456937
O150	O	1.091283	0.029034	0.956937
O151	O	0.510024	-0.538522	0.449509
O152	O	1.010024	-0.038522	0.949509
O153	O	0.510108	-0.538739	0.531297
O154	O	1.010108	-0.038739	1.031297
O155	O	0.509913	-0.443721	0.402330
O156	O	1.009913	0.056279	0.902330
Cu157	Cu	0.502588	-0.488762	0.469295
Cu158	Cu	1.002588	0.011238	0.969295
Cu159	Cu	0.598719	-0.520726	0.437151
Cu160	Cu	1.098719	-0.020726	0.937151
O161	O	0.509997	-0.443938	0.484117
O162	O	1.009997	0.056062	0.984117
N163	N	0.666332	-0.543209	0.414541
N164	N	1.166332	-0.043209	0.914541
N165	N	0.090323	-0.121809	0.492157
N166	N	0.590323	0.378191	0.992157
O167	O	-0.026342	0.034503	0.487582
O168	O	0.473658	0.534503	0.987582
O169	O	0.102626	0.034543	0.392540
O170	O	0.602626	0.534543	0.892540
O171	O	0.020797	0.034507	0.392812
O172	O	0.520797	0.534507	0.892812
O173	O	0.055487	0.034539	0.487310
O174	O	0.555487	0.534539	0.987310
O175	O	0.047933	-0.046785	0.419900
O176	O	0.547933	0.453215	0.919900
O177	O	0.129763	-0.046749	0.419628
O178	O	0.629763	0.453251	0.919628
O179	O	0.000794	-0.046789	0.514670
O180	O	0.500794	0.453211	1.014670
Cu181	Cu	0.067756	-0.054192	0.469623
Cu182	Cu	0.567756	0.445808	0.969623
Cu183	Cu	0.035664	0.041946	0.437588
Cu184	Cu	0.535664	0.541946	0.937588
O185	O	0.082623	-0.046753	0.514399
O186	O	0.582623	0.453247	1.014399
N187	N	0.013091	0.109564	0.415054
N188	N	0.513091	0.609564	0.915054
N189	N	0.090671	-0.466416	0.836606
N190	N	0.590671	0.033584	1.336606
O191	O	0.086120	-0.583065	0.992910
O192	O	0.586120	-0.083065	1.492910
O193	O	-0.008880	-0.454051	0.992954
O194	O	0.491120	0.045949	1.492954
O195	O	-0.008658	-0.535864	0.992931
O196	O	0.491342	-0.035864	1.492931
O197	O	0.085897	-0.501252	0.992933
O198	O	0.585897	-0.001252	1.492933
O199	O	0.018407	-0.508749	0.911642
O200	O	0.518407	-0.008749	1.411642
O201	O	0.018185	-0.426936	0.911665
O202	O	0.518185	0.073064	1.411665
O203	O	0.113185	-0.555949	0.911621
O204	O	0.613185	-0.055949	1.411621
Cu205	Cu	0.068156	-0.488967	0.904221
Cu206	Cu	0.568156	0.011033	1.404221
Cu207	Cu	0.036148	-0.521034	1.000355
Cu208	Cu	0.536148	-0.021034	1.500355
O209	O	0.112963	-0.474136	0.911644
O210	O	0.612963	0.025864	1.411644
N211	N	0.013633	-0.543590	1.067970
N212	N	0.513633	-0.043590	1.567970
C213	C	0.031262	-0.424144	0.393290
C214	C	0.531262	0.075856	0.893290
C215	C	0.132513	-0.525291	0.393180
C216	C	0.632513	-0.025291	0.893180
C217	C	0.072229	-0.585787	0.514090
C218	C	0.572229	-0.085787	1.014090
C219	C	-0.029022	-0.484640	0.514200
C220	C	0.470978	0.015360	1.014200
C221	C	0.550775	-0.565338	0.533954
C222	C	1.050775	-0.065338	1.033954
C223	C	0.550672	-0.565070	0.432670
C224	C	1.050672	-0.065070	0.932670
C225	C	0.550530	-0.444149	0.372492
C226	C	1.050530	0.055851	0.872492
C227	C	0.550635	-0.444418	0.473776
C228	C	1.050635	0.055582	0.973776
C229	C	0.132408	-0.005998	0.392963
C230	C	0.632408	0.494002	0.892963
C231	C	0.031106	-0.006142	0.393333
C232	C	0.531106	0.493858	0.893333
C233	C	-0.029021	-0.006147	0.514213
C234	C	0.470979	0.493853	1.014213
C235	C	0.072314	-0.006104	0.513878
C236	C	0.572314	0.493896	1.013878
C237	C	-0.008430	-0.424240	0.952316
C238	C	0.491570	0.075760	1.452316
C239	C	-0.008150	-0.525550	0.952271
C240	C	0.491850	-0.025550	1.452271
C241	C	0.112735	-0.585760	0.952260
C242	C	0.612735	-0.085760	1.452260
C243	C	0.112461	-0.484444	0.952286
C244	C	0.612461	0.015556	1.452286
H245	H	0.016194	-0.427197	0.832639
H246	H	0.516194	0.072803	1.332639
O247	O	0.081025	-0.629995	0.549621
O248	O	0.581025	-0.129995	1.049621
C249	C	0.085525	-0.673756	0.631047
C250	C	0.585525	-0.173756	1.131047
C251	C	0.075563	-0.623661	0.590846
C252	C	0.575563	-0.123661	1.090846
H253	H	0.081102	-0.668651	0.664391
H254	H	0.581102	-0.168651	1.164391
H255	H	0.124359	-0.698328	0.616799
H256	H	0.624359	-0.198328	1.116799
H257	H	0.058451	-0.691374	0.641724
H258	H	0.558451	-0.191374	1.141724
H259	H	0.102605	-0.606001	0.580152
H260	H	0.602605	-0.106001	1.080152
H261	H	0.036715	-0.599123	0.605117
H262	H	0.536715	-0.099123	1.105117
O263	O	0.550907	-0.600987	0.578100
O264	O	1.050907	-0.100987	1.078100
C265	C	0.593137	-0.682479	0.621692
C266	C	1.093137	-0.182479	1.121692
C267	C	0.593041	-0.642154	0.571666
C268	C	1.093041	-0.142154	1.071666
H269	H	0.627204	-0.715769	0.616508
H270	H	1.127204	-0.215769	1.116508
H271	H	0.559163	-0.693213	0.639279
H272	H	1.059163	-0.193213	1.139279
H273	H	0.593128	-0.668292	0.646331
H274	H	1.093128	-0.168292	1.146331
H275	H	0.593067	-0.656307	0.546989
H276	H	1.093067	-0.156307	1.046989
H277	H	0.627012	-0.631426	0.554118
H278	H	1.127012	-0.131426	1.054118
O279	O	0.022333	-0.006221	0.357892
O280	O	0.522333	0.493779	0.857892
C281	C	0.045807	-0.048366	0.304610
C282	C	0.545807	0.451634	0.804610
C283	C	0.055797	-0.048330	0.344738
C284	C	0.555797	0.451670	0.844738
H285	H	0.072850	-0.082414	0.293970
H286	H	0.572850	0.417586	0.793970
H287	H	0.050182	-0.014368	0.271222
H288	H	0.550182	0.485632	0.771222
H289	H	0.006963	-0.048358	0.318957
H290	H	0.506963	0.451642	0.818957
H291	H	0.094639	-0.048356	0.330437
H292	H	0.594639	0.451644	0.830437
H293	H	0.051390	-0.082326	0.378118
H294	H	0.551390	0.417674	0.878118
H295	H	0.550467	-0.414317	0.335455
H296	H	1.050467	0.085683	0.835455
O297	O	0.081086	-0.006075	0.549346
O298	O	0.581086	0.493925	1.049346
C299	C	0.049176	-0.006110	0.631705
C300	C	0.549176	0.493890	1.131705
C301	C	0.039173	-0.006131	0.591577
C302	C	0.539173	0.493869	1.091577
H303	H	0.015299	-0.006165	0.665862
H304	H	0.515299	0.493835	1.165862
H305	H	0.058448	0.027927	0.618181
H306	H	0.558448	0.527927	1.118181
H307	H	0.081204	-0.040115	0.640789
H308	H	0.581204	0.459885	1.140789
H309	H	0.007138	0.027850	0.582476
H310	H	0.507138	0.527850	1.082476
H311	H	0.029929	-0.040190	0.605122
H312	H	0.529929	0.459810	1.105122
O313	O	0.148335	-0.629964	0.952309
O314	O	0.648335	-0.129964	1.452309
C315	C	0.201780	-0.701716	0.994414
C316	C	0.701780	-0.201716	1.494414
C317	C	0.161474	-0.651661	0.994414
C318	C	0.661474	-0.151661	1.494414
H319	H	0.212408	-0.719277	1.028457
H320	H	0.712408	-0.219277	1.528457
H321	H	0.235130	-0.696599	0.960414
H322	H	0.735130	-0.196599	1.460414
H323	H	0.187615	-0.726346	0.994383
H324	H	0.687615	-0.226346	1.494383
H325	H	0.175593	-0.627005	0.994462
H326	H	0.675593	-0.127005	1.494462
H327	H	0.128131	-0.656815	1.028411
H328	H	0.628131	-0.156815	1.528411
O329	O	0.022523	-0.379880	0.357814
O330	O	0.522523	0.120120	0.857814
C331	C	0.046123	-0.308029	0.304391
C332	C	0.546123	0.191971	0.804391
C333	C	0.056065	-0.358142	0.344573
C334	C	0.556065	0.141858	0.844573
H335	H	0.073242	-0.290443	0.293666
H336	H	0.573242	0.209557	0.793666
H337	H	0.007309	-0.283435	0.318660
H338	H	0.507309	0.216565	0.818660
H339	H	0.050476	-0.313125	0.271072
H340	H	0.550476	0.186875	0.771072
H341	H	0.051739	-0.353092	0.377905
H342	H	0.551739	0.146908	0.877905
H343	H	0.094875	-0.382718	0.330265
H344	H	0.594875	0.117282	0.830265
H345	H	0.550629	-0.414708	0.481180
H346	H	1.050629	0.085292	0.981180
H347	H	0.169570	-0.532590	0.363385
H348	H	0.669570	-0.032590	0.863385
H349	H	-0.066081	-0.477343	0.543993
H350	H	0.433919	0.022657	1.043993
H351	H	0.142166	-0.477036	0.952281
H352	H	0.642166	0.022964	1.452281
O353	O	0.176520	-0.005692	0.357323
O354	O	0.676520	0.494308	0.857323
C355	C	0.256914	-0.005289	0.334432
C356	C	0.756914	0.494711	0.834432
C357	C	0.206976	-0.005625	0.374834
C358	C	0.706976	0.494375	0.874834
H359	H	0.281555	-0.005246	0.348578
H360	H	0.781555	0.494754	0.848578
H361	H	0.251589	0.028814	0.301208
H362	H	0.751589	0.528814	0.801208
H363	H	0.274581	-0.039226	0.323608
H364	H	0.774581	0.460774	0.823608
H365	H	0.189282	0.028289	0.385699
H366	H	0.689282	0.528289	0.885699
H367	H	0.212333	-0.039751	0.408031
H368	H	0.712333	0.460249	0.908031
O369	O	-0.073243	-0.006129	0.549746
O370	O	0.426757	0.493871	1.049746
C371	C	-0.153758	-0.006171	0.572517
C372	C	0.346242	0.493829	1.072517
C373	C	-0.103702	-0.006185	0.532232
C374	C	0.396298	0.493815	1.032232
H375	H	-0.178395	-0.006226	0.558375
H376	H	0.321605	0.493774	1.058375
H377	H	-0.171336	0.027863	0.583163
H378	H	0.328664	0.527863	1.083163
H379	H	-0.148587	-0.040178	0.605855
H380	H	0.351413	0.459822	1.105855
H381	H	-0.108830	0.027799	0.498868
H382	H	0.391170	0.527799	0.998868
H383	H	-0.086142	-0.040241	0.521627
H384	H	0.413858	0.459759	1.021627
H385	H	0.550685	-0.594783	0.425263
H386	H	1.050685	-0.094783	0.925263
O387	O	-0.043967	-0.380018	0.952353
O388	O	0.456033	0.119982	1.452353
C389	C	-0.066684	-0.299489	0.952346
C390	C	0.433316	0.200511	1.452346
C391	C	-0.026400	-0.349551	0.952316
C392	C	0.473600	0.150449	1.452316
H393	H	-0.052493	-0.274838	0.952306
H394	H	0.447507	0.225162	1.452306
H395	H	-0.100012	-0.304599	0.986377
H396	H	0.399988	0.195401	1.486377
H397	H	-0.077364	-0.281956	0.918339
H398	H	0.422636	0.218044	1.418339
H399	H	-0.015679	-0.367111	0.986300
H400	H	0.484321	0.132889	1.486300
H401	H	0.006901	-0.344409	0.918262
H402	H	0.506901	0.155591	1.418262
O403	O	-0.043514	-0.534441	0.952208
O404	O	0.456486	-0.034441	1.452208
C405	C	-0.065855	-0.592500	0.952162
C406	C	0.434145	-0.092500	1.452162
C407	C	-0.025758	-0.582493	0.952222
C408	C	0.474242	-0.082493	1.452222
H409	H	-0.051518	-0.631352	0.952184
H410	H	0.448482	-0.131352	1.452184
H411	H	-0.076524	-0.565458	0.918128
H412	H	0.423476	-0.065458	1.418128
H413	H	-0.099225	-0.588106	0.986167
H414	H	0.400775	-0.088106	1.486167
H415	H	0.007638	-0.586894	0.918240
H416	H	0.507638	-0.086894	1.418240
H417	H	-0.015131	-0.609533	0.986278
H418	H	0.484869	-0.109533	1.486278
H419	H	0.167840	-0.502959	0.832516
H420	H	0.667840	-0.002959	1.332516
O421	O	0.041754	-0.391626	0.735878
O422	O	0.541754	0.108374	1.235878
C423	C	-0.042946	-0.351983	0.741351
C424	C	0.457054	0.148017	1.241351
C425	C	-0.006303	-0.384332	0.769430
C426	C	0.493697	0.115668	1.269430
H427	H	-0.081807	-0.346066	0.768465
H428	H	0.418193	0.153934	1.268465
H429	H	-0.037109	-0.370718	0.717411
H430	H	0.462891	0.129282	1.217411
H431	H	-0.037044	-0.315183	0.717384
H432	H	0.462956	0.184817	1.217384
H433	H	-0.012182	-0.421137	0.793423
H434	H	0.487818	0.078863	1.293423
H435	H	-0.012149	-0.365558	0.793339
H436	H	0.487851	0.134442	1.293339
H437	H	0.338156	-0.509129	0.552896
H438	H	0.838156	-0.009129	1.052896
O439	O	0.206610	-0.474018	0.735717
O440	O	0.706610	0.025982	1.235717
C441	C	0.283253	-0.538870	0.719984
C442	C	0.783253	-0.038870	1.219984
C443	C	0.227918	-0.525264	0.748141
C444	C	0.727918	-0.025264	1.248141
H445	H	0.300496	-0.580301	0.730010
H446	H	0.800496	-0.080301	1.230010
H447	H	0.300540	-0.524780	0.730038
H448	H	0.800540	-0.024780	1.230038
H449	H	0.289683	-0.521593	0.679026
H450	H	0.789683	-0.021593	1.179026
H451	H	0.221444	-0.542536	0.789104
H452	H	0.721444	-0.042536	1.289104
H453	H	0.210659	-0.539344	0.738046
H454	H	0.710659	-0.039344	1.238046
O455	O	0.041647	-0.391509	0.566912
O456	O	0.541647	0.108491	1.066912
C457	C	-0.024588	-0.316221	0.573503
C458	C	0.475412	0.183779	1.073503
C459	C	0.011981	-0.348599	0.541152
C460	C	0.511981	0.151401	1.041152
H461	H	-0.048589	-0.281526	0.552692
H462	H	0.451411	0.218474	1.052692
H463	H	-0.003773	-0.306108	0.583545
H464	H	0.496227	0.193892	1.083545
H465	H	-0.048497	-0.337083	0.608239
H466	H	0.451503	0.162917	1.108239
H467	H	0.035900	-0.327767	0.506395
H468	H	0.535900	0.172233	1.006395
H469	H	-0.008863	-0.358715	0.531149
H470	H	0.491137	0.141285	1.031149
O471	O	0.008011	-0.425275	0.533479
O472	O	0.508011	0.074725	1.033479
C473	C	-0.068582	-0.429198	0.598397
C474	C	0.431418	0.070802	1.098397
C475	C	-0.013240	-0.442745	0.584731
C476	C	0.486760	0.057255	1.084731
H477	H	-0.085782	-0.443307	0.639835
H478	H	0.414218	0.056693	1.139835
H479	H	-0.075098	-0.446455	0.581194
H480	H	0.424902	0.053545	1.081194
H481	H	-0.085843	-0.387765	0.584273
H482	H	0.414157	0.112235	1.084273
H483	H	0.004058	-0.484170	0.598852
H484	H	0.504058	0.015830	1.098852
H485	H	-0.006759	-0.425453	0.601926
H486	H	0.493241	0.074547	1.101926
H487	H	0.198463	-0.471942	0.486461
H488	H	0.698463	0.028058	0.986461
O489	O	0.172783	-0.507496	0.450919
O490	O	0.672783	-0.007496	0.950919
C491	C	0.257450	-0.547134	0.411255
C492	C	0.757450	-0.047134	0.911255
C493	C	0.220864	-0.514797	0.443644
C494	C	0.720864	-0.014797	0.943644
H495	H	0.296331	-0.553055	0.405371
H496	H	0.796331	-0.053055	0.905371
H497	H	0.251556	-0.528386	0.374444
H498	H	0.751556	-0.028386	0.874444
H499	H	0.251543	-0.583932	0.430003
H500	H	0.751543	-0.083932	0.930003
H501	H	0.226749	-0.477993	0.424939
H502	H	0.726749	0.022007	0.924939
H503	H	0.226767	-0.533583	0.480454
H504	H	0.726767	-0.033583	0.980454
H505	H	0.430973	-0.540048	0.521891
H506	H	0.930973	-0.040048	1.021891
H507	H	0.430920	-0.389838	0.464614
H508	H	0.930920	0.110162	0.964614
O509	O	0.027173	-0.687355	0.316181
O510	O	0.527173	-0.187355	0.816181
C511	C	0.098145	-0.671755	0.247287
C512	C	0.598145	-0.171755	0.747287
C513	C	0.061946	-0.699832	0.273988
C514	C	0.561946	-0.199832	0.773988
H515	H	0.126262	-0.681824	0.213163
H516	H	0.626262	-0.181824	0.713163
H517	H	0.117550	-0.681839	0.272574
H518	H	0.617550	-0.181839	0.772574
H519	H	0.077397	-0.630783	0.236339
H520	H	0.577397	-0.130783	0.736339
H521	H	0.082658	-0.740810	0.284938
H522	H	0.582658	-0.240810	0.784938
H523	H	0.042541	-0.689707	0.248685
H524	H	0.542541	-0.189707	0.748685
O525	O	0.334125	-0.351054	0.494389
O526	O	0.834125	0.148946	0.994389
C527	C	0.318392	-0.269688	0.435878
C528	C	0.818392	0.230312	0.935878
C529	C	0.346529	-0.324610	0.443876
C530	C	0.846529	0.175390	0.943876
H531	H	0.328402	-0.248293	0.395040
H532	H	0.828402	0.251707	0.895040
H533	H	0.328480	-0.256949	0.454387
H534	H	0.828480	0.243051	0.954387
H535	H	0.277433	-0.263165	0.452292
H536	H	0.777433	0.236835	0.952292
H537	H	0.387494	-0.331174	0.427461
H538	H	0.887494	0.168826	0.927461
H539	H	0.336400	-0.337322	0.425378
H540	H	0.836400	0.162678	0.925378
O541	O	0.165035	-0.222637	0.443359
O542	O	0.665035	0.277363	0.943359
C543	C	0.171525	-0.238258	0.377157
C544	C	0.671525	0.261742	0.877157
C545	C	0.139214	-0.210132	0.413755
C546	C	0.639214	0.289868	0.913755
H547	H	0.150665	-0.228151	0.353206
H548	H	0.650665	0.271849	0.853206
H549	H	0.181612	-0.279234	0.397949
H550	H	0.681612	0.220766	0.897949
H551	H	0.206238	-0.228187	0.353199
H552	H	0.706238	0.271813	0.853199
H553	H	0.104481	-0.220163	0.437723
H554	H	0.604481	0.279837	0.937723
H555	H	0.129167	-0.169164	0.392934
H556	H	0.629167	0.330836	0.892934
O557	O	0.049191	-0.121915	0.574603
O558	O	0.549191	0.378085	1.074603
C559	C	0.009655	-0.127343	0.659289
C560	C	0.509655	0.372657	1.159289
C561	C	0.042000	-0.155448	0.622672
C562	C	0.542000	0.344552	1.122672
H563	H	0.003840	-0.154442	0.698161
H564	H	0.503840	0.345558	1.198161
H565	H	-0.027188	-0.103411	0.653465
H566	H	0.472812	0.396589	1.153465
H567	H	0.028400	-0.103364	0.653345
H568	H	0.528400	0.396636	1.153345
H569	H	0.023298	-0.179453	0.628594
H570	H	0.523298	0.320547	1.128594
H571	H	0.078842	-0.179349	0.628506
H572	H	0.578842	0.320651	1.128506
H573	H	0.084809	-0.218687	0.600218
H574	H	0.584809	0.281313	1.100218
O575	O	-0.061823	-0.495259	0.170339
O576	O	0.438177	0.004741	0.670339
C577	C	-0.105024	-0.414160	0.175696
C578	C	0.394976	0.085840	0.675696
C579	C	-0.091448	-0.469503	0.203839
C580	C	0.408552	0.030497	0.703839
H581	H	-0.128968	-0.393320	0.202769
H582	H	0.371032	0.106680	0.702769
H583	H	-0.125840	-0.404046	0.151701
H584	H	0.374160	0.095954	0.651701
H585	H	-0.070278	-0.404143	0.151779
H586	H	0.429722	0.095857	0.651779
H587	H	-0.126168	-0.479560	0.227783
H588	H	0.373832	0.020440	0.727783
H589	H	-0.070613	-0.479587	0.227804
H590	H	0.429387	0.020413	0.727804
H591	H	0.129496	-0.125810	0.417697
H592	H	0.629496	0.374190	0.917697
H593	H	-0.090896	-0.534066	0.267110
H594	H	0.409104	-0.034066	0.767110
H595	H	-0.015148	-0.685706	0.267200
H596	H	0.484852	-0.185706	0.767200
O597	O	0.020553	-0.660111	0.170434
O598	O	0.520553	-0.160111	0.670434
C599	C	0.060116	-0.744808	0.175890
C600	C	0.560116	-0.244808	0.675890
C601	C	0.027730	-0.708176	0.203978
C602	C	0.527730	-0.208176	0.703978
H603	H	0.065921	-0.783677	0.202998
H604	H	0.565921	-0.283677	0.702998
H605	H	0.096962	-0.738997	0.152003
H606	H	0.596962	-0.238997	0.652003
H607	H	0.041411	-0.738865	0.151868
H608	H	0.541411	-0.238865	0.651868
H609	H	0.046392	-0.714097	0.228026
H610	H	0.546392	-0.214097	0.728026
H611	H	-0.009114	-0.713997	0.227834
H612	H	0.490886	-0.213997	0.727834
H613	H	-0.060067	-0.503170	0.341685
H614	H	0.439933	-0.003170	0.841685
O615	O	-0.095638	-0.528818	0.306079
O616	O	0.404362	-0.028818	0.806079
C617	C	-0.170882	-0.462539	0.299413
C618	C	0.329118	0.037461	0.799413
C619	C	-0.138561	-0.499149	0.331818
C620	C	0.361439	0.000851	0.831818
H621	H	-0.205588	-0.438535	0.320207
H622	H	0.294412	0.061465	0.820207
H623	H	-0.180976	-0.483322	0.289313
H624	H	0.319024	0.016678	0.789313
H625	H	-0.149989	-0.438633	0.264711
H626	H	0.350011	0.061367	0.764711
H627	H	-0.159424	-0.523064	0.366541
H628	H	0.340576	-0.023064	0.866541
H629	H	-0.128465	-0.478335	0.341879
H630	H	0.371535	0.021665	0.841879
O631	O	0.020223	-0.660073	0.422192
O632	O	0.520223	-0.160073	0.922192
C633	C	0.095493	-0.726313	0.428842
C634	C	0.595493	-0.226313	0.928842
C635	C	0.063185	-0.689688	0.396425
C636	C	0.563185	-0.189688	0.896425
H637	H	0.130240	-0.750260	0.408018
H638	H	0.630240	-0.250260	0.908018
H639	H	0.074650	-0.750274	0.463534
H640	H	0.574650	-0.250274	0.963534
H641	H	0.105519	-0.705493	0.438963
H642	H	0.605519	-0.205493	0.938963
H643	H	0.053150	-0.710469	0.386266
H644	H	0.553150	-0.210469	0.886266
H645	H	0.084046	-0.665728	0.361756
H646	H	0.584046	-0.165728	0.861756
O647	O	-0.013414	-0.693609	0.388587
O648	O	0.486586	-0.193609	0.888587
C649	C	-0.017437	-0.770229	0.453432
C650	C	0.482563	-0.270229	0.953432
C651	C	-0.030998	-0.714891	0.439826
C652	C	0.469002	-0.214891	0.939826
H653	H	-0.031657	-0.787450	0.494858
H654	H	0.468343	-0.287450	0.994858
H655	H	0.023993	-0.787544	0.439403
H656	H	0.523993	-0.287544	0.939403
H657	H	-0.034638	-0.776652	0.436099
H658	H	0.465362	-0.276652	0.936099
H659	H	-0.013830	-0.708424	0.457155
H660	H	0.486170	-0.208424	0.957155
H661	H	-0.072432	-0.697603	0.453846
H662	H	0.427568	-0.197603	0.953846
H663	H	-0.097376	-0.783993	0.408060
H664	H	0.402624	-0.283993	0.908060
O665	O	0.060666	-0.788232	0.349869
O666	O	0.560666	-0.288232	0.849869
C667	C	0.133369	-0.846040	0.314099
C668	C	0.633369	-0.346040	0.814099
C669	C	0.078472	-0.817824	0.322004
C670	C	0.578472	-0.317824	0.822004
H671	H	0.147784	-0.869964	0.291561
H672	H	0.647784	-0.369964	0.791561
H673	H	0.139034	-0.870026	0.351007
H674	H	0.639034	-0.370026	0.851007
H675	H	0.153938	-0.818987	0.293847
H676	H	0.653938	-0.318987	0.793847
H677	H	0.057868	-0.844841	0.342238
H678	H	0.557868	-0.344841	0.842238
H679	H	0.072844	-0.793830	0.285080
H680	H	0.572844	-0.293830	0.785080
H681	H	-0.134607	-0.647683	0.424287
H682	H	0.365393	-0.147683	0.924287
O683	O	-0.136083	-0.687155	0.378139
O684	O	0.363917	-0.187155	0.878139
C685	C	-0.206603	-0.671450	0.362999
C686	C	0.293397	-0.171450	0.862999
C687	C	-0.151712	-0.699647	0.355148
C688	C	0.348288	-0.199647	0.855148
H689	H	-0.219258	-0.681548	0.344425
H690	H	0.280742	-0.181548	0.844425
H691	H	-0.213135	-0.630486	0.346601
H692	H	0.286865	-0.130486	0.846601
H693	H	-0.228062	-0.681468	0.403821
H694	H	0.271938	-0.181468	0.903821
H695	H	-0.130218	-0.689671	0.314337
H696	H	0.369782	-0.189671	0.814337
H697	H	-0.145218	-0.740605	0.371579
H698	H	0.354782	-0.240605	0.871579
O699	O	-0.231388	-0.618642	0.463002
O700	O	0.268612	-0.118642	0.963002
C701	C	-0.226120	-0.661855	0.544137
C702	C	0.273880	-0.161855	1.044137
C703	C	-0.197929	-0.648261	0.488808
C704	C	0.302071	-0.148261	0.988808
H705	H	-0.199080	-0.685795	0.565017
H706	H	0.300920	-0.185795	1.065017
H707	H	-0.250066	-0.682685	0.554182
H708	H	0.249934	-0.182685	1.054182
H709	H	-0.250090	-0.627114	0.554172
H710	H	0.249910	-0.127114	1.054172
H711	H	-0.173932	-0.682976	0.478733
H712	H	0.326068	-0.182976	0.978733
H713	H	-0.174014	-0.627412	0.478792
H714	H	0.325986	-0.127412	0.978792
H715	H	-0.134369	-0.571905	0.272603
H716	H	0.365631	-0.071905	0.772603
O717	O	-0.231131	-0.536240	0.298102
O718	O	0.268869	-0.036240	0.798102
C719	C	-0.225605	-0.496663	0.213385
C720	C	0.274395	0.003337	0.713385
C721	C	-0.197557	-0.529046	0.250055
C722	C	0.302443	-0.029046	0.750055
H723	H	-0.198472	-0.490844	0.174532
H724	H	0.301528	0.009156	0.674532
H725	H	-0.249535	-0.459820	0.219213
H726	H	0.250465	0.040180	0.719213
H727	H	-0.249578	-0.515381	0.219269
H728	H	0.250422	-0.015381	0.719269
H729	H	-0.173558	-0.510371	0.244194
H730	H	0.326442	-0.010371	0.744194
H731	H	-0.173658	-0.565887	0.244219
H732	H	0.326342	-0.065887	0.744219
