data_functionalizedCrystal
_audit_creation_method	'MofGen! by Chris Wilmer'
_symmetry_space_group_name_H-M	'P1'
_symmetry_Int_Tables_number	1
_symmetry_cell_setting	triclinic
loop_
_symmetry_equiv_pos_as_xyz
  x,y,z
_cell_length_a	17.019282
_cell_length_b	17.019234
_cell_length_c	11.892095
_cell_angle_alpha	90.014016
_cell_angle_beta	89.975980
_cell_angle_gamma	83.651806
loop_
_atom_site_label
_atom_site_type_symbol
_atom_site_fract_x
_atom_site_fract_y
_atom_site_fract_z
O1	O	1.046660	0.100345	-0.001852
O2	O	0.818235	0.111918	-0.025225
O3	O	0.938235	-0.008083	-0.001845
O4	O	0.926660	0.220345	-0.025231
O5	O	0.928229	0.001907	0.184215
O6	O	0.808230	0.121908	0.160835
O7	O	1.036655	0.110335	0.184208
Zn8	Zn	0.920854	0.117708	0.202062
Zn9	Zn	0.934036	0.104545	-0.043079
O10	O	0.916655	0.230335	0.160828
C11	C	0.783993	0.116279	0.065019
C12	C	0.696871	0.114380	0.056720
C13	C	0.932599	-0.032327	0.093970
C14	C	0.930701	-0.119451	0.102268
C15	C	0.919629	-0.611930	0.154233
C16	C	0.921419	-0.530068	0.146442
C17	C	0.927774	-0.494575	0.041123
C18	C	0.932332	-0.540947	-0.056411
C19	C	0.930536	-0.622807	-0.048620
C20	C	0.933463	-0.247683	0.012525
C21	C	0.935261	-0.165818	0.004741
C22	C	0.924347	-0.154944	0.207595
C23	C	0.922556	-0.236806	0.215377
C24	C	0.927110	-0.283171	0.117842
C25	C	0.929606	-0.410899	0.033158
C26	C	0.925272	-0.366844	0.125808
C27	C	0.650491	0.118932	0.154244
C28	C	0.568631	0.117135	0.146450
C29	C	0.533152	0.110793	0.041130
C30	C	0.579538	0.106239	-0.056402
C31	C	0.661397	0.108029	-0.048606
C32	C	0.286265	0.105109	0.012518
C33	C	0.204399	0.103321	0.004729
C34	C	0.193498	0.114216	0.207583
C35	C	0.275358	0.116011	0.215368
C36	C	0.321738	0.111452	0.117837
C37	C	0.449478	0.108959	0.033160
C38	C	0.405411	0.113281	0.125809
C39	C	1.070896	0.105974	0.093962
C40	C	1.158020	0.107872	0.102254
C41	C	0.922291	0.254580	0.065011
C42	C	0.924189	0.341704	0.056705
N43	N	0.911863	0.126690	0.369366
N44	N	0.943033	0.095557	-0.210381
C45	C	1.005597	0.033009	0.624271
C46	C	0.999318	0.039293	0.741389
C47	C	0.893022	0.145539	0.720722
C48	C	0.899301	0.139254	0.603604
C49	C	0.955591	0.082988	0.555383
C50	C	0.961873	0.076708	0.438263
C51	C	0.855575	0.182950	0.417598
C52	C	0.849296	0.189234	0.534716
H53	H	0.917718	-0.492321	0.225860
H54	H	0.920639	-0.117185	0.287002
C55	C	0.800565	0.237931	0.341816
C56	C	0.807473	0.231022	0.212990
C57	C	0.752469	0.286005	0.137207
C58	C	0.690556	0.347896	0.190249
C59	C	0.683644	0.354807	0.319081
C60	C	0.738649	0.299825	0.394864
H61	H	0.853307	0.185205	0.173719
H62	H	0.757585	0.280888	0.041836
H63	H	0.649838	0.388597	0.134149
H64	H	0.637810	0.400624	0.358352
H65	H	0.733533	0.304941	0.490235
H66	H	0.434302	0.118441	0.211560
H67	H	0.920093	-0.395746	0.211557
H68	H	0.934245	-0.660557	-0.128038
C69	C	0.912634	-0.650970	0.270084
C70	C	0.840308	-0.626580	0.345201
C71	C	0.833308	-0.665618	0.461054
C72	C	0.898633	-0.729046	0.501791
C73	C	0.970964	-0.753439	0.426673
C74	C	0.977965	-0.714401	0.310820
H75	H	0.791945	-0.579624	0.315046
H76	H	0.779763	-0.647560	0.516661
H77	H	0.893451	-0.757944	0.587553
H78	H	1.019327	-0.800396	0.456828
H79	H	1.031509	-0.732459	0.255213
H80	H	0.917385	-0.265699	0.301139
C81	C	0.942253	-0.126770	-0.111114
C82	C	1.014572	-0.151158	-0.186244
C83	C	1.021568	-0.112108	-0.302090
C84	C	0.956245	-0.048670	-0.342805
C85	C	0.883921	-0.024278	-0.267674
C86	C	0.876925	-0.063328	-0.151828
H87	H	1.062932	-0.198122	-0.156106
H88	H	1.075107	-0.130165	-0.357708
H89	H	0.961424	-0.019763	-0.428561
H90	H	0.835561	0.022686	-0.297812
H91	H	0.823386	-0.045271	-0.096210
H92	H	0.420582	0.103795	-0.052592
C93	C	0.337281	0.100094	-0.094758
C94	C	0.386424	0.167884	-0.124774
C95	C	0.437447	0.162866	-0.232053
C96	C	0.439328	0.090058	-0.309317
C97	C	0.390183	0.022263	-0.279304
C98	C	0.339160	0.027280	-0.172024
H99	H	0.385033	0.221786	-0.067577
H100	H	0.473827	0.213053	-0.254270
H101	H	0.477098	0.086344	-0.388731
H102	H	0.391574	-0.031639	-0.336501
H103	H	0.302780	-0.022907	-0.149807
H104	H	0.679370	0.124103	0.240007
C105	C	0.938484	-0.298673	-0.094766
C106	C	1.011303	-0.300543	-0.172024
C107	C	1.016326	-0.351535	-0.279323
C108	C	0.948531	-0.400657	-0.309363
C109	C	0.875706	-0.398788	-0.232102
C110	C	0.870683	-0.347796	-0.124804
H111	H	1.061494	-0.264179	-0.149788
H112	H	1.070236	-0.352918	-0.336515
H113	H	0.952249	-0.438404	-0.388791
H114	H	0.825515	-0.435153	-0.254338
H115	H	0.816773	-0.346413	-0.067611
H116	H	0.937502	-0.512042	-0.142164
H117	H	0.155727	0.117926	0.286987
H118	H	1.051435	-0.012800	0.585009
C119	C	0.517618	0.122140	0.253734
C120	C	0.515730	0.194946	0.331004
C121	C	0.464719	0.199947	0.438295
C122	C	0.415597	0.132143	0.468316
C123	C	0.417483	0.059332	0.391045
C124	C	0.468493	0.054330	0.283753
H125	H	0.552095	0.245144	0.308782
H126	H	0.463324	0.253847	0.495496
H127	H	0.377835	0.135845	0.547740
H128	H	0.381117	0.009134	0.413267
H129	H	0.469889	0.000431	0.226552
H130	H	1.040036	-0.001406	0.797475
C131	C	0.165368	0.096335	-0.111127
C132	C	0.189753	0.024013	-0.186242
C133	C	0.150719	0.017027	-0.302090
C134	C	0.087300	0.082363	-0.342822
C135	C	0.062911	0.154690	-0.267705
C136	C	0.101945	0.161675	-0.151857
H137	H	0.236703	-0.024357	-0.156091
H138	H	0.168774	-0.036514	-0.357696
H139	H	0.058405	0.077192	-0.428579
H140	H	0.015961	0.203060	-0.297856
H141	H	0.083891	0.215217	-0.096251
H142	H	0.550646	0.101069	-0.142156
H143	H	0.934785	-0.381992	-0.052592
C144	C	1.023788	0.014816	0.385216
C145	C	1.021244	-0.073691	0.409862
C146	C	1.083159	-0.135587	0.356820
C147	C	1.147617	-0.108976	0.279132
C148	C	1.150164	-0.020466	0.254482
C149	C	1.088250	0.041430	0.307524
H150	H	0.973525	-0.093393	0.467375
H151	H	1.081273	-0.201109	0.375068
H152	H	1.193450	-0.154796	0.239867
H153	H	1.197883	-0.000763	0.196969
H154	H	1.090135	0.106952	0.289276
H155	H	0.699159	0.104324	-0.128022
H156	H	0.304240	0.121172	0.301132
H157	H	0.847187	0.191344	0.759999
H158	H	0.803463	0.235043	0.573991
