data_functionalizedCrystal
_audit_creation_method	'MofGen! by Chris Wilmer'
_symmetry_space_group_name_H-M	'P1'
_symmetry_Int_Tables_number	1
_symmetry_cell_setting	triclinic
loop_
_symmetry_equiv_pos_as_xyz
  x,y,z
_cell_length_a	6.817900
_cell_length_b	11.168129
_cell_length_c	16.255661
_cell_angle_alpha	93.883722
_cell_angle_beta	103.488922
_cell_angle_gamma	108.508637
loop_
_atom_site_label
_atom_site_type_symbol
_atom_site_fract_x
_atom_site_fract_y
_atom_site_fract_z
V1	V	-4.052429	-0.175725	-0.263878
O2	O	-4.013108	0.007395	-0.258848
O3	O	-4.029109	-0.347423	-0.262081
O4	O	-4.003663	-0.173482	-0.378962
O5	O	-4.038731	-0.167750	-0.141158
V6	V	-4.532855	-0.153767	-0.249199
O7	O	-4.320482	-0.223891	-0.296079
O8	O	-4.714999	-0.105601	-0.216999
O9	O	-4.332968	0.017931	-0.250997
O10	O	-4.689573	-0.336887	-0.254230
O11	O	-4.663951	-0.161742	-0.371920
O12	O	-4.358415	-0.156010	-0.134116
C13	C	-3.880223	-0.389265	-0.257920
C14	C	-3.942441	-0.529634	-0.257218
C15	C	-3.929402	-0.574794	-0.183250
C16	C	-3.993706	-0.719872	-0.182522
C17	C	-3.847763	-0.167385	-0.407012
C18	C	-3.889341	-0.166687	-0.501093
C19	C	-3.798678	-0.158357	-0.723911
C20	C	-3.970828	-0.265869	-0.793392
C21	C	-3.965534	-0.165380	-0.673342
C22	C	-3.867494	-0.056637	-0.771498
C23	C	-4.039116	-0.164111	-0.839725
C24	C	-4.137180	-0.272988	-0.741592
C25	C	-4.033769	-0.063661	-0.719683
C26	C	-4.206061	-0.171203	-0.789144
C27	C	-3.923140	-0.166112	-0.577492
C28	C	-4.081528	-0.163389	-0.935574
C29	C	-4.145198	0.059767	-0.255155
C30	C	-4.062218	0.200134	-0.255863
C31	C	-4.177658	-0.162111	-0.106061
C32	C	-4.115317	-0.162802	-0.011979
H33	H	-3.870645	-0.506052	-0.120463
O34	O	-3.592986	-0.152214	-0.689842
C35	C	-3.593673	-0.260897	-0.650386
H36	H	-3.751827	-0.302251	-0.632998
H37	H	-3.575137	-0.335687	-0.696404
C38	C	-3.211577	-0.171933	-0.589968
C39	C	-3.405817	-0.222719	-0.568605
H40	H	-3.095694	-0.148387	-0.539524
H41	H	-3.211110	-0.098713	-0.616553
H42	H	-3.196160	-0.234267	-0.628318
H43	H	-3.421243	-0.160380	-0.530265
H44	H	-3.406281	-0.295928	-0.542012
H45	H	-3.944667	-0.351359	-0.825481
H46	H	-4.001216	-0.598376	-0.320005
O47	O	-4.064534	0.038376	-0.681253
C48	C	-3.872633	0.114335	-0.620396
H49	H	-3.768833	0.053596	-0.599592
H50	H	-3.781649	0.196661	-0.650039
C51	C	-4.053621	0.242749	-0.567532
C52	C	-3.926140	0.168145	-0.541975
H53	H	-4.086624	0.275947	-0.519160
H54	H	-4.182908	0.191577	-0.608535
H55	H	-3.977783	0.311344	-0.592235
H56	H	-4.001990	0.099543	-0.517283
H57	H	-3.796867	0.219306	-0.500967
O58	O	-4.272497	-0.382148	-0.725390
C59	C	-4.231312	-0.381522	-0.636211
H60	H	-4.060415	-0.315195	-0.603370
H61	H	-4.349681	-0.346398	-0.611375
C62	C	-4.467177	-0.599343	-0.657042
C63	C	-4.257272	-0.517888	-0.616707
H64	H	-4.483199	-0.683460	-0.645010
H65	H	-4.494932	-0.599764	-0.717124
H66	H	-4.565794	-0.570057	-0.636341
H67	H	-4.158661	-0.547165	-0.637416
H68	H	-4.229501	-0.517475	-0.556628
H69	H	-4.073270	-0.760971	-0.319194
O70	O	-3.731662	0.052421	-0.787589
C71	C	-3.517663	0.058743	-0.754259
H72	H	-3.509607	-0.002544	-0.701117
H73	H	-3.458460	0.021813	-0.807411
C74	C	-3.384655	0.273595	-0.783106
C75	C	-3.374757	0.198331	-0.717831
H76	H	-3.296500	0.359700	-0.760639
H77	H	-3.528830	0.269336	-0.805564
H78	H	-3.335323	0.242806	-0.827394
H79	H	-3.424114	0.229111	-0.673550
H80	H	-3.230587	0.202599	-0.695365
O81	O	-4.412176	-0.177938	-0.822954
C82	C	-4.554034	-0.292060	-0.808001
H83	H	-4.469000	-0.364933	-0.797592
H84	H	-4.607195	-0.271683	-0.748652
C85	C	-4.856485	-0.256302	-0.898685
C86	C	-4.752050	-0.345810	-0.885908
H87	H	-4.978636	-0.289457	-0.946739
H88	H	-4.760915	-0.179414	-0.908757
H89	H	-4.900767	-0.239329	-0.849221
H90	H	-4.707747	-0.362770	-0.935366
H91	H	-4.847617	-0.422704	-0.875846
H92	H	-3.982637	-0.758775	-0.119195
