data_functionalizedCrystal
_audit_creation_method	'MofGen! by Chris Wilmer'
_symmetry_space_group_name_H-M	'P1'
_symmetry_Int_Tables_number	1
_symmetry_cell_setting	triclinic
loop_
_symmetry_equiv_pos_as_xyz
  x,y,z
_cell_length_a	11.169416
_cell_length_b	25.639242
_cell_length_c	11.169409
_cell_angle_alpha	90.024124
_cell_angle_beta	90.030874
_cell_angle_gamma	90.002644
loop_
_atom_site_label
_atom_site_type_symbol
_atom_site_fract_x
_atom_site_fract_y
_atom_site_fract_z
Zn1	Zn	-0.477956	0.799379	0.678692
Zn2	Zn	-0.678697	0.799330	0.478015
Zn3	Zn	-0.477999	0.711940	0.478012
Zn4	Zn	-0.678569	0.711943	0.678644
O5	O	-0.578305	0.755648	0.578341
O6	O	-0.504620	0.872537	0.652093
O7	O	-0.652145	0.787716	0.310064
O8	O	-0.310044	0.723558	0.504652
O9	O	-0.652104	0.872502	0.504656
O10	O	-0.310012	0.787798	0.652091
O11	O	-0.504694	0.723511	0.310062
O12	O	-0.504570	0.638775	0.504605
O13	O	-0.651886	0.723563	0.846601
O14	O	-0.651928	0.638778	0.652009
O15	O	-0.504497	0.787802	0.846636
O16	O	-0.846630	0.787719	0.504609
O17	O	-0.846536	0.723516	0.652011
C18	C	-0.890130	0.755627	0.578332
C19	C	-1.023530	0.755666	0.578368
C20	C	-0.578241	0.619805	0.578302
C21	C	-0.578242	0.561691	0.578314
C22	C	-0.501647	0.310524	0.655251
C23	C	-0.501636	0.365129	0.655245
O24	O	-0.436460	0.393388	0.720651
N25	N	-0.578292	0.392417	0.578355
C26	C	-0.654973	0.365099	0.501475
O27	O	-0.720175	0.393324	0.436074
C28	C	-0.654990	0.310496	0.501489
C29	C	-0.578320	0.283210	0.578375
C30	C	-0.424985	0.283238	0.732133
C31	C	-0.424995	0.228638	0.732138
C32	C	-0.501668	0.201323	0.655261
C33	C	-0.578331	0.228609	0.578380
C34	C	-0.731677	0.283178	0.424616
C35	C	-0.731688	0.228571	0.424637
C36	C	-0.655018	0.201285	0.501524
C37	C	-0.655015	0.146694	0.501509
N38	N	-0.578358	0.119405	0.578399
C39	C	-0.501685	0.146720	0.655275
C40	C	-0.654933	0.479770	0.501453
C41	C	-0.654911	0.534372	0.501433
C42	C	-0.501575	0.534398	0.655204
C43	C	-0.501592	0.479795	0.655218
C44	C	-0.578277	0.452481	0.578343
C45	C	-0.501713	0.032055	0.655279
C46	C	-0.501726	-0.022550	0.655274
C47	C	-0.655067	-0.022572	0.501507
C48	C	-0.655049	0.032029	0.501507
C49	C	-0.578368	0.059341	0.578403
O50	O	-0.720161	0.118400	0.436139
O51	O	-0.436506	0.118488	0.720676
C52	C	-0.265263	0.755683	0.578376
C53	C	-0.131863	0.755698	0.578391
C54	C	-0.578172	0.755688	0.891383
C55	C	-0.578115	0.755705	1.024783
C56	C	-0.578371	0.892021	0.578380
C57	C	-0.578400	0.950135	0.578397
C58	C	-0.578352	0.755638	0.266516
C59	C	-0.578070	0.755722	0.133117
H60	H	-0.439271	0.054286	0.717894
H61	H	-0.362568	0.206427	0.794752
C62	C	-0.485115	0.418429	0.816708
C63	C	-0.417325	0.449803	0.739740
H64	H	-0.433089	0.399913	0.868886
H65	H	-0.537441	0.439744	0.862515
H66	H	-0.530774	0.394345	0.770917
H67	H	-0.371672	0.473890	0.785530
H68	H	-0.364978	0.428485	0.693929
H69	H	-0.717377	0.457534	0.438842
H70	H	-0.439143	0.556647	0.717802
C71	C	-0.713320	-0.039438	0.298187
C72	C	-0.739348	-0.052603	0.417011
H73	H	-0.765353	-0.057981	0.246029
H74	H	-0.724294	-0.003018	0.287178
H75	H	-0.632661	-0.048394	0.280765
H76	H	-0.820004	-0.043642	0.434435
H77	H	-0.728384	-0.089030	0.428025
H78	H	-0.717469	0.054246	0.438889
H79	H	-0.439287	-0.044764	0.717884
C80	C	-0.883263	0.277645	0.272651
C81	C	-0.815963	0.313161	0.340105
H82	H	-0.935307	0.296155	0.220482
H83	H	-0.830923	0.256339	0.226835
H84	H	-0.929217	0.256358	0.324895
H85	H	-0.770002	0.334446	0.287862
H86	H	-0.868310	0.334476	0.385925
H87	H	-0.362548	0.305472	0.794741
C88	C	-0.806478	0.528848	0.349442
C89	C	-0.739182	0.564361	0.416910
H90	H	-0.858513	0.547362	0.297270
H91	H	-0.754136	0.507543	0.303628
H92	H	-0.852441	0.507561	0.401677
H93	H	-0.693212	0.585646	0.364675
H94	H	-0.791531	0.585675	0.462727
C95	C	-0.893140	0.167171	0.407701
C96	C	-0.815985	0.198549	0.340130
H97	H	-0.945183	0.148641	0.355527
H98	H	-0.847486	0.143105	0.453473
H99	H	-0.939093	0.188490	0.459913
H100	H	-0.770026	0.177230	0.287923
H101	H	-0.861644	0.222618	0.294337
