data_functionalizedCrystal
_audit_creation_method	'MofGen! by Chris Wilmer'
_symmetry_space_group_name_H-M	'P1'
_symmetry_Int_Tables_number	1
_symmetry_cell_setting	triclinic
loop_
_symmetry_equiv_pos_as_xyz
  x,y,z
_cell_length_a	12.759395
_cell_length_b	18.101395
_cell_length_c	12.759387
_cell_angle_alpha	90.032811
_cell_angle_beta	90.020509
_cell_angle_gamma	90.032641
loop_
_atom_site_label
_atom_site_type_symbol
_atom_site_fract_x
_atom_site_fract_y
_atom_site_fract_z
Zn1	Zn	1.606149	-0.294760	0.593990
Zn2	Zn	1.605989	-0.418620	0.418305
Zn3	Zn	1.430447	-0.294801	0.418327
Zn4	Zn	1.430389	-0.418568	0.593944
O5	O	1.518244	-0.356687	0.506141
O6	O	1.753149	-0.311196	0.570695
O7	O	1.582661	-0.402234	0.271286
O8	O	1.453845	-0.191162	0.441658
O9	O	1.753032	-0.402195	0.441620
O10	O	1.582933	-0.191133	0.570717
O11	O	1.453691	-0.311264	0.271303
O12	O	1.283418	-0.311213	0.441613
O13	O	1.453747	-0.402105	0.740971
O14	O	1.283376	-0.402145	0.570638
O15	O	1.582877	-0.311145	0.741005
O16	O	1.582604	-0.522246	0.441575
O17	O	1.453592	-0.522208	0.570616
C18	C	1.245276	-0.356678	0.506123
C19	C	1.128499	-0.356692	0.506141
C20	C	1.128494	-0.451532	0.640277
C21	C	1.073630	-0.498958	0.707348
C22	C	0.963908	-0.498967	0.707361
C23	C	0.909048	-0.451543	0.640297
C24	C	0.963912	-0.404118	0.573226
C25	C	1.073636	-0.404115	0.573219
C26	C	0.963917	-0.309275	0.439097
C27	C	1.073639	-0.309269	0.439077
C28	C	0.909057	-0.261852	0.372034
C29	C	0.963921	-0.214429	0.304956
C30	C	1.073649	-0.214422	0.304945
C31	C	1.128503	-0.261843	0.372006
C32	C	1.518103	-0.549098	0.506111
C33	C	1.518139	-0.631412	0.506133
C34	C	1.518370	-0.930503	0.506189
C35	C	1.437387	-0.899184	0.587580
C36	C	1.437002	-0.813566	0.587325
C37	C	1.518255	-0.782120	0.506162
C38	C	1.488272	-0.813280	0.395437
C39	C	1.487750	-0.898925	0.395924
C40	C	1.629513	-0.898842	0.534549
C41	C	1.628859	-0.813191	0.536977
C42	C	1.518192	-0.698261	0.506140
C43	C	1.518430	-1.014362	0.506204
C44	C	1.792277	-0.356697	0.506160
C45	C	1.909054	-0.356701	0.506168
C46	C	1.518323	-0.356615	0.780175
C47	C	1.518357	-0.356584	0.896952
C48	C	1.518413	-0.163525	0.506196
C49	C	1.518486	-0.081211	0.506219
C50	C	1.518225	-0.356706	0.233174
C51	C	1.518395	-0.356528	0.116398
C52	C	1.652829	-0.261872	0.897007
C53	C	1.720080	-0.214506	0.951896
C54	C	1.720105	-0.214479	1.061618
C55	C	1.652871	-0.261822	1.116453
C56	C	1.585620	-0.309189	1.061565
C57	C	1.585604	-0.309212	0.951840
C58	C	1.451144	-0.403895	1.061509
C59	C	1.451122	-0.403927	0.951788
C60	C	1.383910	-0.451238	1.116345
C61	C	1.316662	-0.498610	1.061456
C62	C	1.316641	-0.498636	0.951728
C63	C	1.383872	-0.451294	0.896899
H64	H	1.217835	-0.451535	0.640265
H65	H	1.261920	-0.537149	1.106112
C66	C	0.903575	-0.162270	0.231198
H67	H	0.830372	-0.169068	0.240812
H68	H	0.921601	-0.112524	0.246696
H69	H	0.921509	-0.173051	0.160572
C70	C	1.377997	-0.926013	0.363480
H71	H	1.376712	-0.978490	0.363488
H72	H	1.327475	-0.907897	0.411728
H73	H	1.362102	-0.908371	0.295196
C74	C	1.565437	-0.785764	0.311274
H75	H	1.616744	-0.754951	0.342992
H76	H	1.598837	-0.826876	0.279266
H77	H	1.528330	-0.758472	0.259650
C78	C	0.788357	-0.451551	0.640317
H79	H	0.763540	-0.486588	0.689864
H80	H	0.763578	-0.403778	0.658609
H81	H	0.763496	-0.464304	0.572485
H82	H	0.819716	-0.261859	0.372054
C83	C	1.794029	-0.162427	0.891581
H84	H	1.834075	-0.134209	0.939986
H85	H	1.839770	-0.190766	0.848771
H86	H	1.753852	-0.130163	0.848788
C87	C	1.794081	-0.162379	1.121997
H88	H	1.834124	-0.134190	1.073630
H89	H	1.753934	-0.130100	1.164809
H90	H	1.839839	-0.190711	1.164793
H91	H	1.383865	-0.451313	0.807558
H92	H	1.118309	-0.537568	0.761951
C93	C	1.242682	-0.550753	0.891359
H94	H	1.202658	-0.578949	0.939734
H95	H	1.196921	-0.522444	0.848545
H96	H	1.282853	-0.583037	0.848566
H97	H	1.383931	-0.451210	1.205686
C98	C	0.903556	-0.551101	0.781182
H99	H	0.951938	-0.579336	0.821131
H100	H	0.860815	-0.522784	0.827017
H101	H	0.860692	-0.583348	0.740946
C102	C	1.133991	-0.162251	0.231169
H103	H	1.085600	-0.134014	0.191231
H104	H	1.176836	-0.130019	0.271438
H105	H	1.176750	-0.190538	0.185303
C106	C	1.462464	-0.926932	0.698856
H107	H	1.412699	-0.907406	0.746796
H108	H	1.459399	-0.979359	0.700099
H109	H	1.530768	-0.911139	0.718331
C110	C	1.379674	-0.784409	0.362402
H111	H	1.352461	-0.753375	0.415931
H112	H	1.385954	-0.757080	0.299178
H113	H	1.333597	-0.824968	0.351741
C114	C	1.652890	-0.261790	1.237144
H115	H	1.603216	-0.296766	1.261940
H116	H	1.720679	-0.274594	1.261977
H117	H	1.634764	-0.213989	1.261973
H118	H	1.217844	-0.261844	0.372001
H119	H	1.455761	-0.792496	0.669427
H120	H	1.355506	-0.920773	0.569031
H121	H	1.354620	-0.793146	0.568540
H122	H	1.544176	-0.919645	0.333213
H123	H	1.656847	-0.920385	0.613914
H124	H	1.651469	-0.792822	0.618465
H125	H	1.692388	-0.791781	0.482017
H126	H	1.689848	-0.919095	0.475269
C127	C	1.652808	-0.261903	0.776317
H128	H	1.702476	-0.226922	0.751520
H129	H	1.670918	-0.309701	0.751482
H130	H	1.585015	-0.249088	0.751489
