data_functionalizedCrystal
_audit_creation_method	'MofGen! by Chris Wilmer'
_symmetry_space_group_name_H-M	'P1'
_symmetry_Int_Tables_number	1
_symmetry_cell_setting	triclinic
loop_
_symmetry_equiv_pos_as_xyz
  x,y,z
_cell_length_a	19.288864
_cell_length_b	19.288855
_cell_length_c	17.766277
_cell_angle_alpha	90.008954
_cell_angle_beta	89.976791
_cell_angle_gamma	96.865756
loop_
_atom_site_label
_atom_site_type_symbol
_atom_site_fract_x
_atom_site_fract_y
_atom_site_fract_z
O1	O	0.921350	-0.086649	-0.062840
O2	O	1.171350	0.163351	0.187160
O3	O	1.421350	0.413351	0.437160
O4	O	1.671350	0.663351	0.687160
O5	O	0.719089	-0.098338	-0.062789
O6	O	0.969089	0.151662	0.187211
O7	O	1.219089	0.401662	0.437211
O8	O	1.469089	0.651662	0.687211
O9	O	0.826067	0.008637	-0.062806
O10	O	1.076067	0.258637	0.187194
O11	O	1.326067	0.508637	0.437194
O12	O	1.576067	0.758637	0.687194
O13	O	0.814372	-0.193624	-0.062823
O14	O	1.064372	0.056376	0.187177
O15	O	1.314372	0.306376	0.437177
O16	O	1.564372	0.556376	0.687177
O17	O	0.826049	0.008643	0.062383
O18	O	1.076049	0.258643	0.312383
O19	O	1.326049	0.508643	0.562383
O20	O	1.576049	0.758643	0.812383
O21	O	0.719070	-0.098333	0.062400
O22	O	0.969070	0.151667	0.312400
O23	O	1.219070	0.401667	0.562400
O24	O	1.469070	0.651667	0.812400
O25	O	0.921331	-0.086644	0.062349
O26	O	1.171331	0.163356	0.312349
O27	O	1.421331	0.413356	0.562349
O28	O	1.671331	0.663356	0.812349
Cu29	Cu	0.820199	-0.092488	0.073805
Cu30	Cu	1.070199	0.157512	0.323805
Cu31	Cu	1.320199	0.407512	0.573805
Cu32	Cu	1.570199	0.657512	0.823805
Cu33	Cu	0.820221	-0.092494	-0.074245
Cu34	Cu	1.070221	0.157506	0.175755
Cu35	Cu	1.320221	0.407506	0.425755
Cu36	Cu	1.570221	0.657506	0.675755
O37	O	0.814353	-0.193619	0.062366
O38	O	1.064353	0.056381	0.312366
O39	O	1.314353	0.306381	0.562366
O40	O	1.564353	0.556381	0.812366
C41	C	0.693203	-0.097959	-0.000188
C42	C	0.943203	0.152041	0.249812
C43	C	1.193203	0.402041	0.499812
C44	C	1.443203	0.652041	0.749812
C45	C	0.616100	-0.096830	-0.000168
C46	C	0.866100	0.153170	0.249832
C47	C	1.116100	0.403170	0.499832
C48	C	1.366100	0.653170	0.749832
C49	C	0.825683	0.034517	-0.000211
C50	C	1.075683	0.284517	0.249789
C51	C	1.325683	0.534517	0.499789
C52	C	1.575683	0.784517	0.749789
C53	C	0.824557	0.111620	-0.000208
C54	C	1.074557	0.361620	0.249792
C55	C	1.324557	0.611620	0.499792
C56	C	1.574557	0.861620	0.749792
C57	C	0.571401	-0.159598	-0.000185
C58	C	0.821401	0.090402	0.249815
C59	C	1.071401	0.340402	0.499815
C60	C	1.321401	0.590402	0.749815
C61	C	0.498954	-0.158538	-0.000193
C62	C	0.748954	0.091462	0.249807
C63	C	0.998954	0.341462	0.499807
C64	C	1.248954	0.591462	0.749807
C65	C	0.471209	-0.094705	-0.000200
C66	C	0.721209	0.155295	0.249800
C67	C	0.971209	0.405295	0.499800
C68	C	1.221209	0.655295	0.749800
C69	C	0.515917	-0.031929	-0.000178
C70	C	0.765917	0.218071	0.249822
C71	C	1.015917	0.468071	0.499822
C72	C	1.265917	0.718071	0.749822
C73	C	0.588363	-0.032991	-0.000163
C74	C	0.838363	0.217009	0.249837
C75	C	1.088363	0.467009	0.499837
C76	C	1.338363	0.717009	0.749837
C77	C	0.362955	-0.044528	-0.044080
C78	C	0.612955	0.205472	0.205920
C79	C	0.862955	0.455472	0.455920
C80	C	1.112955	0.705472	0.705920
C81	C	0.290511	-0.043468	-0.044100
C82	C	0.540511	0.206532	0.205900
C83	C	0.790511	0.456532	0.455900
C84	C	1.040511	0.706532	0.705900
C85	C	0.247763	-0.091426	-0.000245
C86	C	0.497763	0.158574	0.249755
C87	C	0.747763	0.408574	0.499755
C88	C	0.997763	0.658574	0.749755
C89	C	0.277468	-0.140455	0.043621
C90	C	0.527468	0.109545	0.293621
C91	C	0.777468	0.359545	0.543621
C92	C	1.027468	0.609545	0.793621
C93	C	0.349913	-0.141517	0.043637
C94	C	0.599913	0.108483	0.293637
C95	C	0.849913	0.358483	0.543637
C96	C	1.099913	0.608483	0.793637
C97	C	0.392655	-0.093546	-0.000216
C98	C	0.642655	0.156454	0.249784
C99	C	0.892655	0.406454	0.499784
C100	C	1.142655	0.656454	0.749784
C101	C	0.124509	-0.153048	-0.000270
C102	C	0.374509	0.096952	0.249730
C103	C	0.624509	0.346952	0.499730
C104	C	0.874509	0.596952	0.749730
C105	C	0.052061	-0.151985	-0.000274
C106	C	0.302061	0.098015	0.249726
C107	C	0.552061	0.348015	0.499726
C108	C	0.802061	0.598015	0.749726
C109	C	0.069026	-0.025374	-0.000266
C110	C	0.319026	0.224626	0.249734
C111	C	0.569026	0.474626	0.499734
C112	C	0.819026	0.724626	0.749734
C113	C	0.141472	-0.026439	-0.000255
C114	C	0.391472	0.223561	0.249745
C115	C	0.641472	0.473561	0.499745
C116	C	0.891472	0.723561	0.749745
C117	C	0.169209	-0.090278	-0.000260
C118	C	0.419209	0.159722	0.249740
C119	C	0.669209	0.409722	0.499740
C120	C	0.919209	0.659722	0.749740
C121	C	0.947217	-0.087023	-0.000254
C122	C	1.197217	0.162977	0.249746
C123	C	1.447217	0.412977	0.499746
C124	C	1.697217	0.662977	0.749746
C125	C	1.024321	-0.088152	-0.000279
C126	C	1.274321	0.161848	0.249721
C127	C	1.524321	0.411848	0.499721
C128	C	1.774321	0.661848	0.749721
C129	C	0.824041	0.147828	-0.068448
C130	C	1.074041	0.397828	0.181552
C131	C	1.324041	0.647828	0.431552
C132	C	1.574041	0.897828	0.681552
C133	C	0.822973	0.220274	-0.068452
C134	C	1.072973	0.470274	0.181548
C135	C	1.322973	0.720274	0.431548
C136	C	1.572973	0.970274	0.681548
C137	C	0.822434	0.256512	-0.000213
C138	C	1.072434	0.506512	0.249787
C139	C	1.322434	0.756512	0.499787
C140	C	1.572434	1.006512	0.749787
C141	C	0.822946	0.220295	0.068036
C142	C	1.072946	0.470295	0.318036
C143	C	1.322946	0.720295	0.568036
C144	C	1.572946	0.970295	0.818036
C145	C	0.824007	0.147849	0.068039
C146	C	1.074007	0.397849	0.318039
C147	C	1.324007	0.647849	0.568039
C148	C	1.574007	0.897849	0.818039
C149	C	0.861429	0.376746	0.052053
C150	C	1.111429	0.626746	0.302053
C151	C	1.361429	0.876746	0.552053
C152	C	1.611429	1.126746	0.802053
C153	C	0.860372	0.449190	0.052047
C154	C	1.110372	0.699190	0.302047
C155	C	1.360372	0.949190	0.552047
C156	C	1.610372	1.199190	0.802047
C157	C	0.819158	0.479958	-0.000219
C158	C	1.069158	0.729958	0.249781
C159	C	1.319158	0.979958	0.499781
C160	C	1.569158	1.229958	0.749781
C161	C	0.779010	0.438273	-0.052492
C162	C	1.029010	0.688273	0.197508
C163	C	1.279010	0.938273	0.447508
C164	C	1.529010	1.188273	0.697508
C165	C	0.780071	0.365827	-0.052490
C166	C	1.030071	0.615827	0.197510
C167	C	1.280071	0.865827	0.447510
C168	C	1.530071	1.115827	0.697510
C169	C	0.821283	0.335067	-0.000209
C170	C	1.071283	0.585067	0.249791
C171	C	1.321283	0.835067	0.499791
C172	C	1.571283	1.085067	0.749791
C173	C	0.817484	0.594720	-0.068469
C174	C	1.067484	0.844720	0.181531
C175	C	1.317484	1.094720	0.431531
C176	C	1.567484	1.344720	0.681531
C177	C	0.816411	0.667167	-0.068471
C178	C	1.066411	0.917167	0.181529
C179	C	1.316411	1.167167	0.431529
C180	C	1.566411	1.417167	0.681529
C181	C	0.816391	0.667187	0.068019
C182	C	1.066391	0.917187	0.318019
C183	C	1.316391	1.167187	0.568019
C184	C	1.566391	1.417187	0.818019
C185	C	0.817456	0.594740	0.068019
C186	C	1.067456	0.844740	0.318019
C187	C	1.317456	1.094740	0.568019
C188	C	1.567456	1.344740	0.818019
C189	C	0.818006	0.558512	-0.000227
C190	C	1.068006	0.808512	0.249773
C191	C	1.318006	1.058512	0.499773
C192	C	1.568006	1.308512	0.749773
C193	C	0.814739	0.780502	-0.000229
C194	C	1.064739	1.030502	0.249771
C195	C	1.314739	1.280502	0.499771
C196	C	1.564739	1.530502	0.749771
C197	C	0.815871	0.703399	-0.000231
C198	C	1.065871	0.953399	0.249769
C199	C	1.315871	1.203399	0.499769
C200	C	1.565871	1.453399	0.749769
N201	N	0.820189	-0.092483	0.177935
N202	N	1.070189	0.157517	0.427935
N203	N	1.320189	0.407517	0.677935
N204	N	1.570189	0.657517	0.927935
N205	N	0.820237	-0.092493	-0.178375
N206	N	1.070237	0.157507	0.071625
N207	N	1.320237	0.407507	0.321625
N208	N	1.570237	0.657507	0.571625
C209	C	0.867574	-0.045137	0.217315
C210	C	1.117574	0.204863	0.467315
C211	C	1.367574	0.454863	0.717315
C212	C	1.617574	0.704863	0.967315
C213	C	0.867578	-0.045134	0.296116
C214	C	1.117578	0.204866	0.546116
C215	C	1.367578	0.454866	0.796116
C216	C	1.617578	0.704866	1.046116
C217	C	0.820203	-0.092488	0.335536
C218	C	1.070203	0.157512	0.585536
C219	C	1.320203	0.407512	0.835536
C220	C	1.570203	0.657512	1.085536
C221	C	0.772809	-0.139837	0.296147
C222	C	1.022809	0.110163	0.546147
C223	C	1.272809	0.360163	0.796147
C224	C	1.522809	0.610163	1.046147
C225	C	0.772802	-0.139835	0.217347
C226	C	1.022802	0.110165	0.467347
C227	C	1.272802	0.360165	0.717347
C228	C	1.522802	0.610165	0.967347
C229	C	0.810902	-0.155776	0.460370
C230	C	1.060902	0.094224	0.710370
C231	C	1.310902	0.344224	0.960370
C232	C	1.560902	0.594224	1.210370
C233	C	0.810914	-0.155780	0.539169
C234	C	1.060914	0.094220	0.789169
C235	C	1.310914	0.344220	1.039169
C236	C	1.560914	0.594220	1.289169
C237	C	0.820222	-0.092497	0.578582
C238	C	1.070222	0.157503	0.828582
C239	C	1.320222	0.407503	1.078582
C240	C	1.570222	0.657503	1.328582
C241	C	0.829532	-0.029207	0.539187
C242	C	1.079532	0.220793	0.789187
C243	C	1.329532	0.470793	1.039187
C244	C	1.579532	0.720793	1.289187
C245	C	0.829524	-0.029204	0.460387
C246	C	1.079524	0.220796	0.710387
C247	C	1.329524	0.470796	0.960387
C248	C	1.579524	0.720796	1.210387
C249	C	0.820206	-0.092496	0.420981
C250	C	1.070206	0.157504	0.670981
C251	C	1.320206	0.407504	0.920981
C252	C	1.570206	0.657504	1.170981
C253	C	0.867614	-0.045144	0.703407
C254	C	1.117614	0.204856	0.953407
C255	C	1.367614	0.454856	1.203407
C256	C	1.617614	0.704856	1.453407
C257	C	0.867613	-0.045140	0.782211
C258	C	1.117613	0.204860	1.032211
C259	C	1.367613	0.454860	1.282211
C260	C	1.617613	0.704860	1.532211
C261	C	0.772848	-0.139849	0.782240
C262	C	1.022848	0.110151	1.032240
C263	C	1.272848	0.360151	1.282240
C264	C	1.522848	0.610151	1.532240
C265	C	0.772845	-0.139847	0.703438
C266	C	1.022845	0.110153	0.953438
C267	C	1.272845	0.360153	1.203438
C268	C	1.522845	0.610153	1.453438
C269	C	0.820232	-0.092495	0.664027
C270	C	1.070232	0.157505	0.914027
C271	C	1.320232	0.407505	1.164027
C272	C	1.570232	0.657505	1.414027
H273	H	0.593980	-0.211581	-0.000191
H274	H	0.843980	0.038419	0.249809
H275	H	1.093980	0.288419	0.499809
H276	H	1.343980	0.538419	0.749809
H277	H	0.374096	-0.181437	0.079356
H278	H	0.624096	0.068563	0.329356
H279	H	0.874096	0.318563	0.579356
H280	H	1.124096	0.568563	0.829356
Cl281	Cl	0.159382	-0.233301	-0.000269
Cl282	Cl	0.409382	0.016699	0.249731
Cl283	Cl	0.659382	0.266699	0.499731
Cl284	Cl	0.909382	0.516699	0.749731
Cl285	Cl	0.824727	0.102287	-0.154243
Cl286	Cl	1.074727	0.352287	0.095757
Cl287	Cl	1.324727	0.602287	0.345757
Cl288	Cl	1.574727	0.852287	0.595757
Cl289	Cl	0.913264	0.338077	0.117749
Cl290	Cl	1.163264	0.588077	0.367749
Cl291	Cl	1.413264	0.838077	0.617749
Cl292	Cl	1.663264	1.088077	0.867749
H293	H	0.734235	-0.178393	0.328246
H294	H	0.984235	0.071607	0.578246
H295	H	1.234235	0.321607	0.828246
H296	H	1.484235	0.571607	1.078246
H297	H	0.906197	-0.006585	0.671317
H298	H	1.156197	0.243415	0.921317
H299	H	1.406197	0.493415	1.171317
H300	H	1.656197	0.743415	1.421317
Cl301	Cl	0.822263	0.265849	0.153822
Cl302	Cl	1.072263	0.515849	0.403822
Cl303	Cl	1.322263	0.765849	0.653822
Cl304	Cl	1.572263	1.015849	0.903822
H305	H	0.734272	-0.178403	0.814334
H306	H	0.984272	0.071597	1.064334
H307	H	1.234272	0.321597	1.314334
H308	H	1.484272	0.571597	1.564334
H309	H	0.824424	0.118369	0.123609
H310	H	1.074424	0.368369	0.373609
H311	H	1.324424	0.618369	0.623609
H312	H	1.574424	0.868369	0.873609
H313	H	0.734214	-0.178390	0.185283
H314	H	0.984214	0.071610	0.435283
H315	H	1.234214	0.321610	0.685283
H316	H	1.484214	0.571610	0.935283
Cl317	Cl	0.442751	-0.237452	-0.000213
Cl318	Cl	0.692751	0.012548	0.249787
Cl319	Cl	0.942751	0.262548	0.499787
Cl320	Cl	1.192751	0.512548	0.749787
Cl321	Cl	0.927141	0.014393	0.167769
Cl322	Cl	1.177141	0.264393	0.417769
Cl323	Cl	1.427141	0.514393	0.667769
Cl324	Cl	1.677141	0.764393	0.917769
H325	H	0.177867	0.024674	-0.000245
H326	H	0.427867	0.274674	0.249755
H327	H	0.677867	0.524674	0.499755
H328	H	0.927867	0.774674	0.749755
H329	H	0.046436	0.026600	-0.000318
H330	H	0.296436	0.276600	0.249682
H331	H	0.546436	0.526600	0.499682
H332	H	0.796436	0.776600	0.749682
Cl333	Cl	0.223736	-0.200749	0.098757
Cl334	Cl	0.473736	0.049251	0.348757
Cl335	Cl	0.723736	0.299251	0.598757
Cl336	Cl	0.973736	0.549251	0.848757
H337	H	0.906198	-0.006581	0.814274
H338	H	1.156198	0.243419	1.064274
H339	H	1.406198	0.493419	1.314274
H340	H	1.656198	0.743419	1.564274
Cl341	Cl	0.818104	0.549219	0.153812
Cl342	Cl	1.068104	0.799219	0.403812
Cl343	Cl	1.318104	1.049219	0.653812
Cl344	Cl	1.568104	1.299219	0.903812
H345	H	0.906166	-0.006578	0.328185
H346	H	1.156166	0.243422	0.578185
H347	H	1.406166	0.493422	0.828185
H348	H	1.656166	0.743422	1.078185
Cl349	Cl	0.818169	0.549171	-0.154262
Cl350	Cl	1.068169	0.799171	0.095738
Cl351	Cl	1.318169	1.049171	0.345738
Cl352	Cl	1.568169	1.299171	0.595738
H353	H	0.837110	0.022325	0.571275
H354	H	1.087110	0.272325	0.821275
H355	H	1.337110	0.522325	1.071275
H356	H	1.587110	0.772325	1.321275
H357	H	0.015667	-0.203100	-0.000283
H358	H	0.265667	0.046900	0.249717
H359	H	0.515667	0.296900	0.499717
H360	H	0.765667	0.546900	0.749717
H361	H	0.734262	-0.178403	0.671373
H362	H	0.984262	0.071597	0.921373
H363	H	1.234262	0.321597	1.171373
H364	H	1.484262	0.571597	1.421373
Cl365	Cl	0.841220	0.050356	0.410864
Cl366	Cl	1.091220	0.300356	0.660864
Cl367	Cl	1.341220	0.550356	0.910864
Cl368	Cl	1.591220	0.800356	1.160864
H369	H	0.266331	-0.003548	-0.079822
H370	H	0.516331	0.246452	0.170178
H371	H	0.766331	0.496452	0.420178
H372	H	1.016331	0.746452	0.670178
H373	H	0.397755	-0.005473	-0.079797
H374	H	0.647755	0.244527	0.170203
H375	H	0.897755	0.494527	0.420203
H376	H	1.147755	0.744527	0.670203
H377	H	0.803338	-0.207314	0.571238
H378	H	1.053338	0.042686	0.821238
H379	H	1.303338	0.292686	1.071238
H380	H	1.553338	0.542686	1.321238
Cl381	Cl	0.799265	-0.235342	0.410830
Cl382	Cl	1.049265	0.014658	0.660830
Cl383	Cl	1.299265	0.264658	0.910830
Cl384	Cl	1.549265	0.514658	1.160830
H385	H	0.624757	0.018124	-0.000149
H386	H	0.874757	0.268124	0.249851
H387	H	1.124757	0.518124	0.499851
H388	H	1.374757	0.768124	0.749851
Cl389	Cl	0.481038	0.048318	-0.000182
Cl390	Cl	0.731038	0.298318	0.249818
Cl391	Cl	0.981038	0.548318	0.499818
Cl392	Cl	1.231038	0.798318	0.749818
Cl393	Cl	0.729599	0.313425	-0.118198
Cl394	Cl	0.979599	0.563425	0.131802
Cl395	Cl	1.229599	0.813425	0.381802
Cl396	Cl	1.479599	1.063425	0.631802
H397	H	0.822549	0.249760	-0.124023
H398	H	1.072549	0.499760	0.125977
H399	H	1.322549	0.749760	0.375977
H400	H	1.572549	0.999760	0.625977
Cl401	Cl	0.727191	0.476942	-0.118200
Cl402	Cl	0.977191	0.726942	0.131800
Cl403	Cl	1.227191	0.976942	0.381800
Cl404	Cl	1.477191	1.226942	0.631800
Cl405	Cl	0.815758	0.712685	-0.154267
Cl406	Cl	1.065758	0.962685	0.095733
Cl407	Cl	1.315758	1.212685	0.345733
Cl408	Cl	1.565758	1.462685	0.595733
H409	H	0.815947	0.696690	0.123581
H410	H	1.065947	0.946690	0.373581
H411	H	1.315947	1.196690	0.623581
H412	H	1.565947	1.446690	0.873581
H413	H	0.893066	0.483126	0.094609
H414	H	1.143066	0.733126	0.344609
H415	H	1.393066	0.983126	0.594609
H416	H	1.643066	1.233126	0.844609
