data_functionalizedCrystal
_audit_creation_method	'MofGen! by Chris Wilmer'
_symmetry_space_group_name_H-M	'P1'
_symmetry_Int_Tables_number	1
_symmetry_cell_setting	triclinic
loop_
_symmetry_equiv_pos_as_xyz
  x,y,z
_cell_length_a	16.992694
_cell_length_b	19.188930
_cell_length_c	16.053802
_cell_angle_alpha	92.551696
_cell_angle_beta	87.249047
_cell_angle_gamma	86.906503
loop_
_atom_site_label
_atom_site_type_symbol
_atom_site_fract_x
_atom_site_fract_y
_atom_site_fract_z
O1	O	1.043197	0.145267	-0.069340
O2	O	1.543197	0.645267	0.430660
O3	O	0.814918	0.143642	-0.069364
O4	O	1.314918	0.643642	0.430636
O5	O	0.935644	0.043185	-0.069335
O6	O	1.435644	0.543185	0.430665
O7	O	0.922471	0.245724	-0.069369
O8	O	1.422471	0.745724	0.430631
O9	O	0.928999	0.048690	0.069522
O10	O	1.428999	0.548690	0.569522
O11	O	0.808273	0.149147	0.069493
O12	O	1.308273	0.649147	0.569493
O13	O	1.036552	0.150772	0.069517
O14	O	1.536552	0.650772	0.569517
Zn15	Zn	0.921357	0.150834	0.091552
Zn16	Zn	1.421357	0.650834	0.591552
Zn17	Zn	0.930113	0.143581	-0.091399
Zn18	Zn	1.430113	0.643581	0.408601
O19	O	0.915826	0.251229	0.069488
O20	O	1.415826	0.751229	0.569488
C21	C	0.782390	0.144306	0.000061
C22	C	1.282390	0.644306	0.500061
C23	C	0.695368	0.138072	0.000053
C24	C	1.195368	0.638072	0.500053
C25	C	0.644922	0.198212	0.000043
C26	C	1.144922	0.698212	0.500043
C27	C	0.563155	0.192351	0.000056
C28	C	1.063155	0.692351	0.500056
C29	C	0.531836	0.126351	0.000072
C30	C	1.031836	0.626351	0.500072
C31	C	0.582288	0.066208	0.000084
C32	C	1.082288	0.566208	0.500084
C33	C	0.664054	0.072069	0.000077
C34	C	1.164054	0.572069	0.500077
C35	C	0.288320	0.102059	0.000098
C36	C	0.788320	0.602059	0.500098
C37	C	0.206548	0.096203	0.000102
C38	C	0.706548	0.596203	0.500102
C39	C	0.187420	0.222347	0.000076
C40	C	0.687420	0.722347	0.500076
C41	C	0.269188	0.228202	0.000064
C42	C	0.769188	0.728202	0.500064
C43	C	0.319633	0.168059	0.000081
C44	C	0.819633	0.668059	0.500081
N45	N	0.448257	0.120359	0.000082
N46	N	0.948257	0.620359	0.500082
N47	N	0.403210	0.174051	0.000076
N48	N	0.903210	0.674051	0.500076
C49	C	0.931895	0.019902	0.000096
C50	C	1.431895	0.519902	0.500096
C51	C	0.930614	-0.057677	0.000103
C52	C	1.430614	0.442323	0.500103
C53	C	1.001452	-0.098456	0.000114
C54	C	1.501452	0.401544	0.500114
C55	C	1.000250	-0.171350	0.000101
C56	C	1.500250	0.328650	0.500101
C57	C	0.928204	-0.203463	0.000093
C58	C	1.428204	0.296537	0.500093
C59	C	0.857356	-0.162676	0.000076
C60	C	1.357356	0.337324	0.500076
C61	C	0.858561	-0.089783	0.000081
C62	C	1.358561	0.410217	0.500081
N63	N	0.870872	-0.312817	0.047342
N64	N	1.370872	0.187183	0.547342
N65	N	0.869732	-0.382063	0.047339
N66	N	1.369732	0.117937	0.547339
C67	C	0.924569	-0.423085	0.000075
C68	C	1.424569	0.076915	0.500075
N69	N	0.980600	-0.392247	-0.047175
N70	N	1.480600	0.107753	0.452825
N71	N	0.981742	-0.322995	-0.047168
N72	N	1.481742	0.177005	0.452832
C73	C	0.926889	-0.282503	0.000086
C74	C	1.426889	0.217497	0.500086
C75	C	0.994108	-0.542905	0.000071
C76	C	1.494108	-0.042905	0.500071
C77	C	0.992903	-0.615801	0.000052
C78	C	1.492903	-0.115801	0.500052
C79	C	0.850007	-0.607124	0.000036
C80	C	1.350007	-0.107124	0.500036
C81	C	0.851215	-0.534230	0.000046
C82	C	1.351215	-0.034230	0.500046
C83	C	0.923267	-0.502125	0.000068
C84	C	1.423267	-0.002125	0.500068
C85	C	1.069080	0.150109	0.000090
C86	C	1.569080	0.650109	0.500090
C87	C	1.156102	0.156342	0.000093
C88	C	1.656102	0.656342	0.500093
C89	C	0.919575	0.274513	0.000055
C90	C	1.419575	0.774513	0.500055
C91	C	0.920856	0.352091	0.000043
C92	C	1.420856	0.852091	0.500043
N93	N	0.915388	0.155784	0.216410
N94	N	1.415388	0.655784	0.716410
N95	N	0.936088	0.138625	-0.216258
N96	N	1.436088	0.638625	0.283742
C97	C	0.966776	0.113057	0.260117
C98	C	1.466776	0.613057	0.760117
C99	C	0.962607	0.116526	0.347523
C100	C	1.462607	0.616526	0.847523
C101	C	0.907054	0.162727	0.391220
C102	C	1.407054	0.662727	0.891220
C103	C	0.855661	0.205456	0.347508
C104	C	1.355661	0.705456	0.847508
C105	C	0.859826	0.201983	0.260104
C106	C	1.359826	0.701983	0.760104
C107	C	0.888860	0.177881	0.652626
C108	C	1.388860	0.677881	1.152626
C109	C	0.884700	0.181353	0.740036
C110	C	1.384700	0.681353	1.240036
C111	C	0.991646	0.092421	0.740045
C112	C	1.491646	0.592421	1.240045
C113	C	0.995810	0.088955	0.652639
C114	C	1.495810	0.588955	1.152639
C115	C	0.944414	0.131681	0.608934
C116	C	1.444414	0.631681	1.108934
N117	N	0.902794	0.166276	0.480563
N118	N	1.402794	0.666276	0.980563
N119	N	0.948671	0.128128	0.519593
N120	N	1.448671	0.628128	1.019593
H121	H	0.705127	0.023097	0.000084
H122	H	1.205127	0.523097	0.500084
C123	C	1.080713	-0.063144	0.000131
C124	C	1.580713	0.436856	0.500131
N125	N	1.140413	-0.036547	0.000141
N126	N	1.640413	0.463453	0.500141
C127	C	0.803302	0.248992	0.212027
C128	C	1.303302	0.748992	0.712027
N129	N	0.760726	0.284402	0.175817
N130	N	1.260726	0.784402	0.675817
H131	H	1.050591	-0.649002	0.000057
H132	H	1.550591	-0.149002	0.500057
H133	H	0.800874	-0.056581	0.000072
H134	H	1.300874	0.443419	0.500072
C135	C	0.343800	0.035899	0.000111
C136	C	0.843800	0.535899	0.500111
N137	N	0.385590	-0.013937	0.000119
N138	N	0.885590	0.486063	0.500119
H139	H	1.052778	-0.516763	0.000085
H140	H	1.552778	-0.016763	0.500085
H141	H	1.057937	-0.204558	0.000107
H142	H	1.557937	0.295442	0.500107
C143	C	1.056918	0.038126	0.604578
C144	C	1.556918	0.538126	1.104578
N145	N	1.102947	-0.000158	0.568378
N146	N	1.602947	0.499842	1.068378
C147	C	1.027889	0.062231	0.212057
C148	C	1.527889	0.562231	0.712057
N149	N	1.073918	0.023945	0.175861
N150	N	1.573918	0.523945	0.675861
H151	H	0.793530	-0.501027	0.000042
H152	H	1.293530	-0.001027	0.500042
H153	H	1.004451	0.081734	0.383108
H154	H	1.504451	0.581734	0.883108
H155	H	0.791346	-0.633270	0.000025
H156	H	1.291346	-0.133270	0.500025
C157	C	0.547835	-0.006394	0.000103
C158	C	1.047835	0.493606	0.500103
N159	N	0.521885	-0.061078	0.000114
N160	N	1.021885	0.438922	0.500114
C161	C	1.048171	0.045420	0.788127
C162	C	1.548171	0.545420	1.288127
N163	N	1.090746	0.010013	0.824343
N164	N	1.590746	0.510013	1.324343
H165	H	0.839460	0.218978	0.775611
H166	H	1.339460	0.718978	1.275611
C167	C	0.778105	-0.198001	0.000073
C168	C	1.278105	0.301999	0.500073
N169	N	0.718411	-0.224608	0.000071
N170	N	1.218411	0.275392	0.500071
C171	C	0.507666	0.258510	0.000060
C172	C	1.007666	0.758510	0.500060
N173	N	0.465872	0.308345	0.000070
N174	N	0.965872	0.808345	0.500070
C175	C	0.794545	0.256271	0.395579
C176	C	1.294545	0.756271	0.895579
N177	N	0.748510	0.294546	0.431785
N178	N	1.248510	0.794546	0.931785
C179	C	0.679364	0.270817	0.000027
C180	C	1.179364	0.770817	0.500027
N181	N	0.705303	0.325507	0.000019
N182	N	1.205303	0.825507	0.500019
C183	C	0.303632	0.300808	0.000060
C184	C	0.803632	0.800808	0.500060
N185	N	0.329574	0.355496	0.000058
N186	N	0.829574	0.855496	0.500058
H187	H	0.146339	0.271312	0.000064
H188	H	0.646339	0.771312	0.500064
H189	H	0.847013	0.212672	0.617048
H190	H	1.347013	0.712672	1.117048
H191	H	0.181053	0.042455	0.000114
H192	H	0.681053	0.542455	0.500114
