data_functionalizedCrystal
_audit_creation_method	'MofGen! by Chris Wilmer'
_symmetry_space_group_name_H-M	'P1'
_symmetry_Int_Tables_number	1
_symmetry_cell_setting	triclinic
loop_
_symmetry_equiv_pos_as_xyz
  x,y,z
_cell_length_a	14.044191
_cell_length_b	14.044190
_cell_length_c	15.455313
_cell_angle_alpha	92.904485
_cell_angle_beta	87.077556
_cell_angle_gamma	93.191777
loop_
_atom_site_label
_atom_site_type_symbol
_atom_site_fract_x
_atom_site_fract_y
_atom_site_fract_z
O1	O	1.281008	0.226380	-0.072106
O2	O	1.781008	0.726380	0.427894
O3	O	1.004336	0.218067	-0.072117
O4	O	1.504336	0.718067	0.427883
O5	O	1.138515	0.083888	-0.072095
O6	O	1.638515	0.583888	0.427905
O7	O	1.146830	0.360559	-0.072129
O8	O	1.646830	0.860559	0.427871
O9	O	1.130839	0.091526	0.072166
O10	O	1.630839	0.591526	0.572166
O11	O	0.996660	0.225705	0.072144
O12	O	1.496660	0.725705	0.572144
O13	O	1.273333	0.234018	0.072154
O14	O	1.773333	0.734018	0.572154
Cu15	Cu	1.134296	0.230559	0.085321
Cu16	Cu	1.634296	0.730559	0.585321
Cu17	Cu	1.143373	0.221526	-0.085284
Cu18	Cu	1.643373	0.721526	0.414716
O19	O	1.139154	0.368197	0.072132
O20	O	1.639154	0.868197	0.572132
C21	C	0.964876	0.218249	0.000013
C22	C	1.464876	0.718249	0.500013
C23	C	0.858733	0.207402	0.000009
C24	C	1.358733	0.707402	0.500009
C25	C	1.131041	0.052085	0.000038
C26	C	1.631041	0.552085	0.500038
C27	C	1.120193	-0.054058	0.000045
C28	C	1.620193	0.445942	0.500045
C29	C	1.177295	-0.299517	0.000013
C30	C	1.677295	0.200483	0.500013
C31	C	1.100378	-0.248393	0.000017
C32	C	1.600378	0.251607	0.500017
C33	C	1.111406	-0.140255	0.000033
C34	C	1.611406	0.359745	0.500033
C35	C	1.166269	-0.407664	-0.000003
C36	C	1.666269	0.092336	0.499997
C37	C	0.613276	0.264503	0.000011
C38	C	1.113276	0.764503	0.500011
C39	C	0.664399	0.187586	0.000019
C40	C	1.164399	0.687586	0.500019
C41	C	0.772537	0.198614	0.000014
C42	C	1.272537	0.698614	0.500014
C43	C	0.505129	0.253476	0.000016
C44	C	1.005129	0.753476	0.500016
C45	C	1.312793	0.233836	0.000023
C46	C	1.812793	0.733836	0.500023
C47	C	1.418936	0.244683	0.000021
C48	C	1.918936	0.744683	0.500021
C49	C	1.146629	0.400000	-0.000002
C50	C	1.646629	0.900000	0.499998
C51	C	1.157477	0.506143	-0.000015
C52	C	1.657477	1.006143	0.499985
N53	N	1.127918	0.236913	0.205316
N54	N	1.627918	0.736913	0.705316
N55	N	1.149758	0.215165	-0.205278
N56	N	1.649758	0.715165	0.294722
C57	C	1.184945	0.179934	0.250719
C58	C	1.684945	0.679934	0.750719
C59	C	1.180132	0.184748	0.341526
C60	C	1.680132	0.684748	0.841526
C61	C	1.118295	0.246547	0.386928
C62	C	1.618295	0.746547	0.886928
C63	C	1.061261	0.303529	0.341519
C64	C	1.561261	0.803529	0.841519
C65	C	1.066070	0.298709	0.250713
C66	C	1.566070	0.798709	0.750713
C67	C	1.097534	0.267327	0.658506
C68	C	1.597534	0.767327	1.158506
C69	C	1.092731	0.272145	0.749318
C70	C	1.592731	0.772145	1.249318
C71	C	1.211600	0.153362	0.749320
C72	C	1.711600	0.653362	1.249320
C73	C	1.216409	0.148552	0.658513
C74	C	1.716409	0.648552	1.158513
C75	C	1.159371	0.205529	0.613111
C76	C	1.659371	0.705529	1.113111
N77	N	1.113375	0.251472	0.479748
N78	N	1.613375	0.751472	0.979748
N79	N	1.164286	0.200599	0.520293
N80	N	1.664286	0.700599	1.020293
H81	H	1.251421	-0.262073	0.000025
H82	H	1.751421	0.237927	0.500025
H83	H	1.019631	0.345106	0.213746
H84	H	1.519631	0.845106	0.713746
H85	H	0.626957	0.113451	-0.000033
H86	H	1.126957	0.613451	0.499967
H87	H	0.650720	0.338629	-0.000001
H88	H	1.150720	0.838629	0.499999
O89	O	0.994574	0.370194	0.390485
O90	O	1.494574	0.870194	0.890485
H91	H	0.920039	0.350768	0.373083
H92	H	1.420039	0.850768	0.873083
H93	H	1.026246	-0.285839	0.000009
H94	H	1.526246	0.214161	0.500009
H95	H	1.266761	0.098230	0.621548
H96	H	1.766761	0.598230	1.121548
O97	O	1.251637	0.113274	0.201751
O98	O	1.751637	0.613274	0.701751
H99	H	1.290474	0.074455	0.248582
H100	H	1.790474	0.574455	0.748582
O101	O	1.241658	0.123311	0.390501
O102	O	1.741658	0.623311	0.890501
H103	H	1.285479	0.079545	0.343675
H104	H	1.785479	0.579545	0.843675
H105	H	1.258037	0.106972	0.786294
H106	H	1.758037	0.606972	1.286294
H107	H	1.042373	0.322473	0.786280
H108	H	1.542373	0.822473	1.286280
H109	H	1.051093	0.313722	0.621547
H110	H	1.551093	0.813722	1.121547
