data_functionalizedCrystal
_audit_creation_method	'MofGen! by Chris Wilmer'
_symmetry_space_group_name_H-M	'P1'
_symmetry_Int_Tables_number	1
_symmetry_cell_setting	triclinic
loop_
_symmetry_equiv_pos_as_xyz
  x,y,z
_cell_length_a	17.699077
_cell_length_b	15.944493
_cell_length_c	16.176319
_cell_angle_alpha	89.999072
_cell_angle_beta	89.993140
_cell_angle_gamma	83.377810
loop_
_atom_site_label
_atom_site_type_symbol
_atom_site_fract_x
_atom_site_fract_y
_atom_site_fract_z
O1	O	1.004243	0.106201	-0.068725
O2	O	0.783885	0.120026	-0.068728
O3	O	0.900104	-0.009177	-0.068733
O4	O	0.888024	0.235405	-0.068719
O5	O	0.900088	-0.009186	0.068760
O6	O	0.783869	0.120018	0.068766
O7	O	1.004227	0.106193	0.068768
Cu8	Cu	0.894047	0.113105	0.081321
Cu9	Cu	0.894066	0.113114	-0.081280
O10	O	0.888008	0.235396	0.068774
C11	C	0.755679	0.119528	0.000019
C12	C	0.671659	0.118044	0.000017
C13	C	0.632181	0.117341	0.074965
C14	C	0.553237	0.115933	0.074966
C15	C	0.513770	0.115235	0.000018
C16	C	0.553253	0.115936	-0.074936
C17	C	0.632197	0.117338	-0.074936
C18	C	0.234881	0.110284	-0.074938
C19	C	0.155931	0.108885	-0.074933
C20	C	0.155921	0.108879	0.074964
C21	C	0.234865	0.110280	0.074964
C22	C	0.274342	0.110977	0.000011
C23	C	0.359943	0.112501	0.000011
C24	C	0.428170	0.113717	0.000017
C25	C	0.899603	-0.040475	0.000010
C26	C	0.898122	-0.133721	-0.000000
C27	C	0.966532	-0.369626	0.000016
C28	C	0.929649	-0.420112	-0.067775
C29	C	0.895379	-0.304436	0.000010
C30	C	0.929617	-0.420096	0.067782
C31	C	0.892735	-0.469340	0.000023
C32	C	0.858516	-0.353693	-0.067838
C33	C	0.858494	-0.353674	0.067781
C34	C	0.821559	-0.404126	-0.000027
C35	C	0.896905	-0.209439	0.000001
C36	C	0.891204	-0.564334	0.000025
C37	C	1.032433	0.106691	0.000020
C38	C	1.116453	0.108175	0.000017
C39	C	0.888509	0.266694	0.000029
C40	C	0.889990	0.359940	0.000034
N41	N	0.894039	0.113097	0.195686
N42	N	0.894079	0.113115	-0.195646
C43	C	0.945516	0.055909	0.238948
C44	C	0.945520	0.055908	0.325495
C45	C	0.894050	0.113100	0.368779
C46	C	0.842567	0.170291	0.325511
C47	C	0.842560	0.170287	0.238966
C48	C	0.842593	0.170307	0.674539
C49	C	0.842605	0.170308	0.761091
C50	C	0.945553	0.055928	0.761069
C51	C	0.945546	0.055924	0.674524
C52	C	0.894061	0.113112	0.631263
C53	C	0.894056	0.113111	0.537419
C54	C	0.894057	0.113106	0.462622
H55	H	0.521114	0.115362	-0.135961
O56	O	0.792494	0.225779	0.803102
C57	C	0.717578	0.212232	0.781962
H58	H	0.717225	0.144979	0.758173
H59	H	0.679602	0.221941	0.838890
H60	H	0.695326	0.258821	0.731733
H61	H	0.267014	0.110848	-0.135970
O62	O	1.039677	-0.351234	0.000031
C63	C	1.077441	-0.386489	0.070832
H64	H	1.047310	-0.441323	0.094233
H65	H	1.138805	-0.410353	0.054403
H66	H	1.076746	-0.336302	0.121108
O67	O	0.822559	-0.318990	0.136068
C68	C	0.760215	-0.261152	0.111767
H69	H	0.741505	-0.277505	0.046875
H70	H	0.711104	-0.264678	0.156762
H71	H	0.777623	-0.194505	0.112015
O72	O	0.965575	-0.454744	0.136070
C73	C	1.027081	-0.513714	0.111736
H74	H	1.045619	-0.498244	0.046532
H75	H	1.076611	-0.510636	0.156256
H76	H	1.008752	-0.579945	0.112743
H77	H	0.987433	0.009341	0.203712
O78	O	0.273315	0.110994	0.147695
C79	C	0.351461	0.112358	0.131623
H80	H	0.359110	0.139141	0.067213
H81	H	0.376649	0.153647	0.179494
H82	H	0.381815	0.045391	0.135166
H83	H	0.959704	-0.449118	-0.125088
O84	O	0.822765	-0.319108	-0.136269
C85	C	0.824631	-0.230947	-0.135459
H86	H	0.873946	-0.215069	-0.095275
H87	H	0.832583	-0.207705	-0.201187
H88	H	0.768875	-0.198777	-0.109261
H89	H	0.760223	-0.419462	-0.000065
H90	H	0.664338	0.117912	-0.135967
H91	H	0.987436	0.009341	0.360719
O92	O	0.792536	0.225731	0.367648
C93	C	0.745848	0.180812	0.417709
H94	H	0.776006	0.115039	0.430670
H95	H	0.733876	0.215892	0.478570
H96	H	0.689911	0.175182	0.384372
H97	H	0.987461	0.009356	0.639285
H98	H	0.123770	0.108308	0.135995
H99	H	0.123800	0.108316	-0.135968
H100	H	0.987473	0.009360	0.796301
O101	O	0.792661	0.225980	0.632565
C102	C	0.804944	0.309113	0.653728
H103	H	0.865543	0.309432	0.677497
H104	H	0.796221	0.351287	0.596818
H105	H	0.763002	0.333842	0.703981
O106	O	0.792528	0.225923	0.197067
C107	C	0.747088	0.276391	0.253826
H108	H	0.778122	0.277300	0.315511
H109	H	0.735525	0.343488	0.228817
H110	H	0.690873	0.249194	0.263046
H111	H	0.664309	0.117916	0.135997
H112	H	0.521100	0.115346	0.135997
