data_functionalizedCrystal
_audit_creation_method	'MofGen! by Chris Wilmer'
_symmetry_space_group_name_H-M	'P1'
_symmetry_Int_Tables_number	1
_symmetry_cell_setting	triclinic
loop_
_symmetry_equiv_pos_as_xyz
  x,y,z
_cell_length_a	6.817900
_cell_length_b	11.102288
_cell_length_c	10.943624
_cell_angle_alpha	91.861856
_cell_angle_beta	108.838799
_cell_angle_gamma	108.605689
loop_
_atom_site_label
_atom_site_type_symbol
_atom_site_fract_x
_atom_site_fract_y
_atom_site_fract_z
V1	V	-4.114282	-0.175806	-0.402551
O2	O	-4.073263	0.008482	-0.394888
O3	O	-4.091041	-0.348626	-0.399798
O4	O	-4.092264	-0.173087	-0.578118
O5	O	-4.072031	-0.168273	-0.215334
V6	V	-4.591232	-0.153765	-0.380159
O7	O	-4.389960	-0.224155	-0.451671
O8	O	-4.765752	-0.105415	-0.331038
O9	O	-4.391267	0.019056	-0.382912
O10	O	-4.749649	-0.338053	-0.387822
O11	O	-4.750880	-0.161298	-0.567376
O12	O	-4.390044	-0.156484	-0.204592
C13	C	-3.941308	-0.390757	-0.393448
C14	C	-4.003768	-0.532040	-0.392367
C15	C	-4.217163	-0.604887	-0.398301
C16	C	-4.275844	-0.737639	-0.397296
C17	C	-3.907710	-0.724682	-0.384417
C18	C	-3.849037	-0.591934	-0.385432
C19	C	-3.942867	-0.166837	-0.620910
C20	C	-4.006314	-0.165757	-0.764437
C21	C	-3.851194	-0.158485	-0.841584
C22	C	-4.039808	-0.266416	-0.947575
C23	C	-3.930779	-0.055914	-0.914188
C24	C	-4.194138	-0.273789	-0.868550
C25	C	-4.085029	-0.063191	-0.835140
C26	C	-4.273779	-0.171153	-0.941100
C27	C	-4.204342	0.061180	-0.389258
C28	C	-4.121122	0.202461	-0.390347
C29	C	-4.202783	-0.162738	-0.161793
C30	C	-4.118573	-0.163811	-0.018265
H31	H	-3.675261	-0.532620	-0.380605
O32	O	-4.367266	-0.546610	-0.404816
C33	C	-4.456660	-0.386962	-0.301106
C34	C	-4.286494	-0.452871	-0.293544
H35	H	-4.391399	-0.311142	-0.211168
H36	H	-4.619276	-0.461768	-0.305096
H37	H	-4.485226	-0.339123	-0.392717
H38	H	-4.257739	-0.500708	-0.201942
H39	H	-4.123979	-0.378011	-0.289626
O40	O	-4.017997	-0.369050	-1.005860
C41	C	-4.130083	-0.599830	-1.047600
C42	C	-4.154973	-0.483720	-0.981509
H43	H	-4.240843	-0.692570	-1.027959
H44	H	-3.950574	-0.594426	-1.006480
H45	H	-4.180519	-0.598446	-1.157382
H46	H	-4.104654	-0.485031	-0.871723
H47	H	-4.334495	-0.489168	-1.022732
O48	O	-3.637454	-0.152214	-0.789513
C49	C	-3.337235	-0.145244	-0.594836
C50	C	-3.579286	-0.152310	-0.653632
H51	H	-3.290145	-0.145347	-0.484973
H52	H	-3.224587	-0.053252	-0.614494
H53	H	-3.317827	-0.232005	-0.641544
H54	H	-3.598907	-0.065615	-0.606961
H55	H	-3.691816	-0.244357	-0.633989
H56	H	-3.820065	0.036144	-0.934950
O57	O	-4.326569	-0.383682	-0.844112
C58	C	-4.698373	-0.515224	-0.868409
C59	C	-4.548663	-0.390713	-0.896150
H60	H	-4.877971	-0.520962	-0.910492
H61	H	-4.648698	-0.515216	-0.758443
H62	H	-4.679279	-0.601725	-0.915836
H63	H	-4.567681	-0.304145	-0.848805
H64	H	-4.598377	-0.390833	-1.006131
H65	H	-4.449608	-0.796947	-0.402130
O66	O	-3.757370	-0.782890	-0.377439
C67	C	-3.552110	-0.908071	-0.256478
C68	C	-3.722362	-0.842186	-0.264211
H69	H	-3.523788	-0.956052	-0.164956
H70	H	-3.389410	-0.833242	-0.252327
H71	H	-3.617219	-0.983775	-0.346496
H72	H	-3.657459	-0.766489	-0.174216
H73	H	-3.885032	-0.917091	-0.268427
H74	H	-4.453057	-0.176535	-0.984345
O75	O	-4.106608	0.039448	-0.776720
C76	C	-3.991476	0.270274	-0.733032
C77	C	-3.966817	0.154137	-0.799234
H78	H	-3.878510	0.363028	-0.751234
H79	H	-3.943951	0.267982	-0.623466
H80	H	-4.170372	0.265778	-0.775465
H81	H	-3.787960	0.158557	-0.756907
H82	H	-4.014481	0.156470	-0.908797
