data_functionalizedCrystal
_audit_creation_method	'MofGen! by Chris Wilmer'
_symmetry_space_group_name_H-M	'P1'
_symmetry_Int_Tables_number	1
_symmetry_cell_setting	triclinic
loop_
_symmetry_equiv_pos_as_xyz
  x,y,z
_cell_length_a	27.732048
_cell_length_b	27.732048
_cell_length_c	26.210047
_cell_angle_alpha	90.018945
_cell_angle_beta	89.988763
_cell_angle_gamma	97.357345
loop_
_atom_site_label
_atom_site_type_symbol
_atom_site_fract_x
_atom_site_fract_y
_atom_site_fract_z
O1	O	0.057516	-0.640941	-0.042369
O2	O	0.557516	-0.140941	0.457631
O3	O	0.066262	-0.500148	-0.042385
O4	O	0.566262	-0.000148	0.457615
O5	O	-0.008508	-0.574917	-0.042367
O6	O	0.491492	-0.074917	0.457633
O7	O	0.132286	-0.566172	-0.042387
O8	O	0.632286	-0.066172	0.457613
O9	O	-0.008509	-0.574883	0.042491
O10	O	0.491491	-0.074883	0.542491
O11	O	0.066261	-0.500113	0.042473
O12	O	0.566261	-0.000113	0.542473
O13	O	0.057515	-0.640907	0.042489
O14	O	0.557515	-0.140907	0.542489
Cu15	Cu	0.061888	-0.570507	0.050229
Cu16	Cu	0.561888	-0.070507	0.550229
Cu17	Cu	0.061889	-0.570548	-0.050125
Cu18	Cu	0.561889	-0.070548	0.449875
O19	O	0.132285	-0.566137	0.042471
O20	O	0.632285	-0.066137	0.542471
C21	C	0.066078	-0.482124	0.000042
C22	C	0.566078	0.017876	0.500042
C23	C	0.065525	-0.428469	0.000036
C24	C	0.565525	0.071531	0.500036
C25	C	-0.026515	-0.574716	0.000064
C26	C	0.473485	-0.074716	0.500064
C27	C	-0.080170	-0.574164	0.000068
C28	C	0.419830	-0.074164	0.500068
N29	N	0.061887	-0.570482	0.120813
N30	N	0.561887	-0.070482	0.620813
C31	C	-0.418985	-0.614867	0.000046
C32	C	0.081015	-0.114867	0.500046
C33	C	-0.620645	-0.612816	0.000039
C34	C	-0.120645	-0.112816	0.500039
O35	O	-0.651900	-0.650037	0.000021
O36	O	-0.151900	-0.150037	0.500021
N37	N	-0.639768	-0.568481	0.000034
N38	N	-0.139768	-0.068481	0.500034
C39	C	-0.608474	-0.524656	0.000028
C40	C	-0.108474	-0.024656	0.500028
O41	O	-0.629367	-0.486899	0.000019
O42	O	-0.129367	0.013101	0.500019
C43	C	-0.406815	-0.526707	0.000032
C44	C	0.093185	-0.026707	0.500032
C45	C	-0.387694	-0.571045	0.000042
C46	C	0.112306	-0.071045	0.500042
C47	C	-0.399864	-0.659202	0.000056
C48	C	0.100136	-0.159202	0.500056
C49	C	-0.349452	-0.659714	0.000060
C50	C	0.150548	-0.159714	0.500060
C51	C	-0.318161	-0.615892	0.000056
C52	C	0.181839	-0.115892	0.500056
C53	C	-0.337282	-0.571557	0.000046
C54	C	0.162718	-0.071557	0.500046
C55	C	-0.375521	-0.482882	0.000022
C56	C	0.124479	0.017118	0.500022
C57	C	-0.325104	-0.483399	0.000022
C58	C	0.174896	0.016601	0.500022
C59	C	-0.305983	-0.527737	0.000032
C60	C	0.194017	-0.027737	0.500032
C61	C	-0.255580	-0.528247	0.000046
C62	C	0.244420	-0.028247	0.500046
N63	N	-0.236456	-0.572583	0.000051
N64	N	0.263544	-0.072583	0.500051
C65	C	-0.267747	-0.616405	0.000056
C66	C	0.232253	-0.116405	0.500056
C67	C	-0.714348	-0.523582	0.000027
C68	C	-0.214348	-0.023582	0.500027
C69	C	-0.764762	-0.523069	0.000027
C70	C	-0.264762	-0.023069	0.500027
C71	C	-0.776930	-0.611230	0.000037
C72	C	-0.276930	-0.111230	0.500037
C73	C	-0.726514	-0.611742	0.000041
C74	C	-0.226514	-0.111742	0.500041
C75	C	-0.695224	-0.567917	0.000032
C76	C	-0.195224	-0.067917	0.500032
C77	C	-0.161878	-0.617477	0.000066
C78	C	0.338122	-0.117477	0.500066
C79	C	-0.111461	-0.617986	0.000073
C80	C	0.388539	-0.117986	0.500073
C81	C	-0.099298	-0.529825	0.000060
C82	C	0.400702	-0.029825	0.500060
C83	C	-0.149710	-0.529316	0.000056
C84	C	0.350290	-0.029316	0.500056
C85	C	-0.180999	-0.573146	0.000057
C86	C	0.319001	-0.073146	0.500057
O87	O	-0.224296	-0.491047	0.000059
O88	O	0.275704	0.008953	0.500059
O89	O	-0.246844	-0.654156	0.000054
O90	O	0.253156	-0.154156	0.500054
C91	C	-0.469397	-0.614355	0.000042
C92	C	0.030603	-0.114355	0.500042
C93	C	-0.488518	-0.570021	0.000033
C94	C	0.011482	-0.070021	0.500033
C95	C	-0.457228	-0.526198	0.000028
C96	C	0.042772	-0.026198	0.500028
C97	C	-0.538933	-0.569508	0.000033
C98	C	-0.038933	-0.069508	0.500033
C99	C	-0.570223	-0.613330	0.000037
C100	C	-0.070223	-0.113330	0.500037
C101	C	-0.551100	-0.657665	0.000042
C102	C	-0.051100	-0.157665	0.500042
C103	C	-0.500688	-0.658177	0.000046
C104	C	-0.000688	-0.158177	0.500046
C105	C	-0.476351	-0.481863	0.000023
C106	C	0.023649	0.018137	0.500023
C107	C	-0.526764	-0.481355	0.000019
C108	C	-0.026764	0.018645	0.500019
C109	C	-0.558054	-0.525177	0.000024
C110	C	-0.058054	-0.025177	0.500024
C111	C	0.150292	-0.566338	0.000040
C112	C	0.650292	-0.066338	0.500040
C113	C	0.203947	-0.566891	0.000032
C114	C	0.703947	-0.066891	0.500032
C115	C	0.057699	-0.658931	0.000061
C116	C	0.557699	-0.158931	0.500061
C117	C	0.058252	-0.712586	0.000064
C118	C	0.558252	-0.212586	0.500064
C119	C	0.106229	-0.089654	0.000053
C120	C	0.606229	0.410346	0.500053
C121	C	0.104178	0.112006	0.000057
C122	C	0.604178	0.612006	0.500057
O123	O	0.141398	0.143262	0.000074
O124	O	0.641398	0.643262	0.500074
N125	N	0.059843	0.131130	0.000063
N126	N	0.559843	0.631130	0.500063
C127	C	0.016017	0.099835	0.000071
C128	C	0.516017	0.599835	0.500071
O129	O	-0.021740	0.120728	0.000081
O130	O	0.478260	0.620728	0.500081
C131	C	0.018068	-0.101824	0.000069
C132	C	0.518068	0.398176	0.500069
C133	C	0.062407	-0.120944	0.000059
C134	C	0.562407	0.379056	0.500059
C135	C	0.150563	-0.108775	0.000043
C136	C	0.650563	0.391225	0.500043
C137	C	0.151075	-0.159187	0.000039
C138	C	0.651075	0.340813	0.500039
C139	C	0.107253	-0.190477	0.000045
C140	C	0.607253	0.309523	0.500045
C141	C	0.062919	-0.171356	0.000055
C142	C	0.562919	0.328644	0.500055
C143	C	-0.025757	-0.133117	0.000081
C144	C	0.474243	0.366883	0.500081
C145	C	-0.025240	-0.183534	0.000082
C146	C	0.474760	0.316466	0.500082
C147	C	0.019098	-0.202655	0.000071
C148	C	0.519098	0.297345	0.500071
C149	C	0.019609	-0.253059	0.000057
C150	C	0.519609	0.246941	0.500057
N151	N	0.063944	-0.272183	0.000051
N152	N	0.563944	0.227817	0.500051
C153	C	0.107766	-0.240892	0.000045
C154	C	0.607766	0.259108	0.500045
C155	C	0.014943	0.205709	0.000070
C156	C	0.514943	0.705709	0.500070
C157	C	0.014430	0.256124	0.000070
C158	C	0.514430	0.756124	0.500070
C159	C	0.102591	0.268291	0.000057
C160	C	0.602591	0.768291	0.500057
C161	C	0.103104	0.217876	0.000054
C162	C	0.603104	0.717876	0.500054
C163	C	0.059278	0.186585	0.000065
C164	C	0.559278	0.686585	0.500065
C165	C	0.108839	-0.346761	0.000036
C166	C	0.608839	0.153239	0.500036
C167	C	0.109347	-0.397178	0.000030
C168	C	0.609347	0.102822	0.500030
C169	C	0.021186	-0.409341	0.000045
C170	C	0.521186	0.090659	0.500045
C171	C	0.020678	-0.358929	0.000049
C172	C	0.520678	0.141071	0.500049
C173	C	0.064508	-0.327639	0.000046
C174	C	0.564508	0.172361	0.500046
O175	O	-0.017592	-0.284343	0.000046
O176	O	0.482408	0.215657	0.500046
O177	O	0.145518	-0.261794	0.000047
O178	O	0.645518	0.238206	0.500047
C179	C	0.105716	-0.039242	0.000057
C180	C	0.605716	0.460758	0.500057
C181	C	0.061382	-0.020120	0.000067
C182	C	0.561382	0.479880	0.500067
C183	C	0.017560	-0.051411	0.000073
C184	C	0.517560	0.448589	0.500073
C185	C	0.060869	0.030294	0.000066
C186	C	0.560869	0.530294	0.500066
C187	C	0.104691	0.061585	0.000060
C188	C	0.604691	0.561585	0.500060
C189	C	0.149026	0.042461	0.000054
C190	C	0.649026	0.542461	0.500054
C191	C	0.149539	-0.007951	0.000050
C192	C	0.649539	0.492049	0.500050
C193	C	-0.026775	-0.032287	0.000078
C194	C	0.473225	0.467713	0.500078
C195	C	-0.027284	0.018125	0.000082
C196	C	0.472716	0.518125	0.500082
C197	C	0.016538	0.049416	0.000076
C198	C	0.516538	0.549416	0.500076
N199	N	0.061886	-0.570577	-0.120709
N200	N	0.561886	-0.070577	0.379291
C201	C	0.094981	-0.537408	0.526773
C202	C	0.594981	-0.037408	1.026773
C203	C	0.094982	-0.537385	0.313114
C204	C	0.594982	-0.037385	0.813114
O205	O	0.123115	-0.509207	0.285489
O206	O	0.623115	-0.009207	0.785489
N207	N	0.061885	-0.570497	0.286397
N208	N	0.561885	-0.070497	0.786397
C209	C	0.028785	-0.603615	0.313098
C210	C	0.528785	-0.103615	0.813098
O211	O	0.000631	-0.631775	0.285471
O212	O	0.500631	-0.131775	0.785471
C213	C	0.028783	-0.603636	0.526756
C214	C	0.528783	-0.103636	1.026756
C215	C	0.061884	-0.570525	0.553470
C216	C	0.561884	-0.070525	1.053470
C217	C	0.128080	-0.504299	0.553487
C218	C	0.628080	-0.004299	1.053487
C219	C	0.128081	-0.504307	0.606898
C220	C	0.628081	-0.004307	1.106898
C221	C	0.094984	-0.537424	0.633596
C222	C	0.594984	-0.037424	1.133596
C223	C	0.061886	-0.570533	0.606881
C224	C	0.561886	-0.070533	1.106881
C225	C	-0.004320	-0.636752	0.553456
C226	C	0.495680	-0.136752	1.053456
C227	C	-0.004319	-0.636753	0.606873
C228	C	0.495681	-0.136753	1.106873
C229	C	0.028783	-0.603642	0.633588
C230	C	0.528783	-0.103642	1.133588
C231	C	0.028790	-0.603657	0.686990
C232	C	0.528790	-0.103657	1.186990
N233	N	0.061886	-0.570545	0.713707
N234	N	0.561886	-0.070545	1.213707
C235	C	0.094983	-0.537428	0.687010
C236	C	0.594983	-0.037428	1.187010
C237	C	0.028789	-0.603603	0.200925
C238	C	0.528789	-0.103603	0.700925
C239	C	0.028790	-0.603598	0.147511
C240	C	0.528790	-0.103598	0.647511
C241	C	0.094986	-0.537367	0.147530
C242	C	0.594986	-0.037367	0.647530
C243	C	0.094987	-0.537374	0.200945
C244	C	0.594987	-0.037374	0.700945
C245	C	0.061885	-0.570491	0.227642
C246	C	0.561885	-0.070491	0.727642
C247	C	0.094984	-0.537448	0.799178
C248	C	0.594984	-0.037448	1.299178
C249	C	0.094983	-0.537460	0.852594
C250	C	0.594983	-0.037460	1.352594
C251	C	0.028786	-0.603689	0.852569
C252	C	0.528786	-0.103689	1.352569
C253	C	0.028787	-0.603679	0.799158
C254	C	0.528787	-0.103679	1.299158
C255	C	0.061888	-0.570554	0.772463
C256	C	0.561888	-0.070554	1.272463
O257	O	0.000667	-0.631817	0.714649
O258	O	0.500667	-0.131817	1.214649
O259	O	0.123125	-0.509265	0.714646
O260	O	0.623125	-0.009265	1.214646
C261	C	0.094980	-0.537400	0.473361
C262	C	0.594980	-0.037400	0.973361
C263	C	0.061881	-0.570509	0.446647
C264	C	0.561881	-0.070509	0.946647
C265	C	0.028784	-0.603626	0.473344
C266	C	0.528784	-0.103626	0.973344
C267	C	0.061883	-0.570504	0.393233
C268	C	0.561883	-0.070504	0.893233
C269	C	0.094980	-0.537388	0.366536
C270	C	0.594980	-0.037388	0.866536
C271	C	0.128076	-0.504276	0.393253
C272	C	0.628076	-0.004276	0.893253
C273	C	0.128077	-0.504283	0.446664
C274	C	0.628077	-0.004283	0.946664
C275	C	-0.004312	-0.636738	0.446627
C276	C	0.495688	-0.136738	0.946627
C277	C	-0.004310	-0.636728	0.393216
C278	C	0.495690	-0.136728	0.893216
C279	C	0.028787	-0.603611	0.366519
C280	C	0.528787	-0.103611	0.866519
H281	H	-0.095896	-0.654093	0.000082
H282	H	0.404104	-0.154093	0.500082
Cl283	Cl	-0.285770	-0.428300	0.000010
Cl284	Cl	0.214230	0.071700	0.500010
H285	H	0.121937	-0.510474	0.777449
H286	H	0.621937	-0.010474	1.277449
H287	H	-0.063392	0.033688	0.000086
H288	H	0.436608	0.533688	0.500086
Cl289	Cl	-0.059952	-0.474737	0.000053
Cl290	Cl	0.440048	0.025263	0.500053
H291	H	0.139207	0.202311	0.000049
H292	H	0.639207	0.702311	0.500049
H293	H	0.001838	-0.630646	0.777407
H294	H	0.501838	-0.130646	1.277407
H295	H	0.121940	-0.510497	0.874343
H296	H	0.621940	-0.010497	1.374343
Cl297	Cl	-0.173748	-0.473577	0.000053
Cl298	Cl	0.326252	0.026423	0.500053
Cl299	Cl	-0.012819	-0.645232	0.113933
Cl300	Cl	0.487181	-0.145232	0.613933
H301	H	0.001839	-0.630654	0.874315
H302	H	0.501839	-0.130654	1.374315
Cl303	Cl	-0.590446	-0.712755	0.000050
Cl304	Cl	-0.090446	-0.212755	0.500050
Cl305	Cl	0.157681	0.307637	0.000052
Cl306	Cl	0.657681	0.807637	0.500052
Cl307	Cl	-0.201205	-0.672579	0.000068
Cl308	Cl	0.298795	-0.172579	0.500068
H309	H	-0.031276	-0.663720	0.628607
H310	H	0.468724	-0.163720	1.128607
Cl311	Cl	-0.012828	-0.645240	0.234480
Cl312	Cl	0.487172	-0.145240	0.734480
H313	H	-0.485125	-0.694282	0.000054
H314	H	0.014875	-0.194282	0.500054
Cl315	Cl	0.205662	-0.069446	0.000033
Cl316	Cl	0.705662	0.430554	0.500033
H317	H	-0.542327	-0.445246	0.000016
H318	H	-0.042327	0.054754	0.500016
H319	H	-0.425336	-0.694889	0.000058
H320	H	0.074664	-0.194889	0.500058
H321	H	0.121941	-0.510412	0.222693
H322	H	0.621941	-0.010412	0.722693
Cl323	Cl	-0.702482	-0.667483	0.000053
Cl324	Cl	-0.202482	-0.167483	0.500053
Cl325	Cl	0.169685	-0.462645	0.359680
Cl326	Cl	0.669685	0.037355	0.859680
H327	H	-0.062462	-0.057760	0.000085
H328	H	0.437538	0.442240	0.500085
Cl329	Cl	-0.325422	-0.715456	0.000058
Cl330	Cl	0.174578	-0.215456	0.500058
H331	H	0.155032	-0.477321	0.468411
H332	H	0.655032	0.022679	0.968411
H333	H	-0.450879	-0.446177	0.000018
H334	H	0.049121	0.053823	0.500018
Cl335	Cl	-0.045923	-0.678375	0.480183
Cl336	Cl	0.454077	-0.178375	0.980183
Cl337	Cl	0.165091	-0.421212	0.000015
Cl338	Cl	0.665091	0.078788	0.500015
H339	H	0.184708	0.067947	0.000047
H340	H	0.684708	0.567947	0.500047
Cl341	Cl	0.163940	-0.307434	0.000032
Cl342	Cl	0.663940	0.192566	0.500032
Cl343	Cl	0.169693	-0.462677	0.640476
Cl344	Cl	0.669693	0.037323	1.140476
Cl345	Cl	-0.045937	-0.678378	0.519883
Cl346	Cl	0.454063	-0.178378	1.019883
H347	H	-0.031265	-0.663695	0.371469
H348	H	0.468735	-0.163695	0.871469
Cl349	Cl	-0.035062	-0.334890	0.000065
Cl350	Cl	0.464938	0.165110	0.500065
H351	H	-0.061861	-0.117558	0.000090
H352	H	0.438139	0.382442	0.500090
H353	H	-0.060929	-0.209009	0.000091
H354	H	0.439071	0.290991	0.500091
H355	H	0.155032	-0.477329	0.531755
H356	H	0.655032	0.022671	1.031755
H357	H	-0.021674	0.271687	0.000070
H358	H	0.478326	0.771687	0.500070
Cl359	Cl	0.205281	-0.031981	0.000038
Cl360	Cl	0.705281	0.468019	0.500038
Cl361	Cl	0.136593	-0.495734	0.113958
Cl362	Cl	0.636593	0.004266	0.613958
Cl363	Cl	0.206818	-0.183216	0.000029
Cl364	Cl	0.706818	0.316784	0.500029
H365	H	-0.802415	-0.646911	0.000041
H366	H	-0.302415	-0.146911	0.500041
H367	H	-0.780325	-0.486964	0.000028
H368	H	-0.280325	0.013036	0.500028
Cl369	Cl	-0.675018	-0.468481	0.000017
Cl370	Cl	-0.175018	0.031519	0.500017
Cl371	Cl	-0.040158	0.166379	0.000082
Cl372	Cl	0.459842	0.666379	0.500082
H373	H	-0.014492	-0.434827	0.000048
H374	H	0.485508	0.065173	0.500048
Cl375	Cl	-0.399546	-0.427139	0.000007
Cl376	Cl	0.100454	0.072861	0.500007
