data_functionalizedCrystal
_audit_creation_method	'MofGen! by Chris Wilmer'
_symmetry_space_group_name_H-M	'P1'
_symmetry_Int_Tables_number	1
_symmetry_cell_setting	triclinic
loop_
_symmetry_equiv_pos_as_xyz
  x,y,z
_cell_length_a	16.992694
_cell_length_b	16.992695
_cell_length_c	15.455313
_cell_angle_alpha	92.847427
_cell_angle_beta	87.142206
_cell_angle_gamma	90.668223
loop_
_atom_site_label
_atom_site_type_symbol
_atom_site_fract_x
_atom_site_fract_y
_atom_site_fract_z
O1	O	1.054080	0.163694	-0.072023
O2	O	0.825681	0.161862	-0.072048
O3	O	0.938965	0.048579	-0.072029
O4	O	0.940797	0.276978	-0.072042
O5	O	0.932485	0.055028	0.072232
O6	O	0.819202	0.168312	0.072213
O7	O	1.047601	0.170144	0.072238
Cu8	Cu	0.932809	0.169817	0.085398
Cu9	Cu	0.940473	0.162189	-0.085207
O10	O	0.934317	0.283428	0.072219
C11	C	0.793081	0.162731	0.000079
C12	C	0.705597	0.155702	0.000070
C13	C	0.933369	0.022443	0.000102
C14	C	0.926341	-0.065041	0.000101
C15	C	0.659607	0.223520	0.000066
C16	C	0.577405	0.216911	0.000079
C17	C	0.541197	0.142484	0.000088
C18	C	0.587193	0.074661	0.000094
C19	C	0.669393	0.081271	0.000088
C20	C	0.295881	0.115091	0.000113
C21	C	0.213676	0.108486	0.000116
C22	C	0.203893	0.250737	0.000103
C23	C	0.286095	0.257340	0.000091
C24	C	0.332084	0.189517	0.000102
N25	N	0.457174	0.135727	0.000098
N26	N	0.416105	0.196275	0.000098
C27	C	0.994158	-0.111032	0.000109
C28	C	0.987550	-0.193233	0.000100
C29	C	0.913123	-0.229442	0.000089
C30	C	0.845300	-0.183445	0.000078
C31	C	0.851910	-0.101246	0.000081
C32	C	0.885729	-0.474757	0.000074
C33	C	0.879124	-0.556962	0.000074
C34	C	1.021375	-0.566744	0.000094
C35	C	1.027977	-0.484543	0.000102
C36	C	0.960155	-0.438554	0.000087
N37	N	0.906366	-0.313464	0.000082
N38	N	0.966913	-0.354533	0.000087
C39	C	1.080201	0.169275	0.000109
C40	C	1.167685	0.176304	0.000113
C41	C	0.939913	0.309563	0.000087
C42	C	0.946942	0.397047	0.000082
N43	N	0.927425	0.175181	0.205392
N44	N	0.945863	0.156819	-0.205202
C45	C	0.975571	0.127074	0.250795
C46	C	0.971507	0.131139	0.341602
C47	C	0.919301	0.183315	0.387005
C48	C	0.871149	0.231424	0.341596
C49	C	0.875210	0.227355	0.250791
C50	C	0.901772	0.200858	0.658584
C51	C	0.897717	0.204926	0.749395
C52	C	0.998074	0.104639	0.749395
C53	C	1.002133	0.100578	0.658588
C54	C	0.953979	0.148684	0.613187
N55	N	0.915147	0.187473	0.479825
N56	N	0.958129	0.144522	0.520369
H57	H	0.689081	0.284126	0.000058
H58	H	1.054764	-0.081557	0.000124
Br59	Br	1.063421	0.039355	0.811013
Br60	Br	1.113414	-0.629162	0.000116
Br61	Br	0.164535	0.007472	0.000148
Br62	Br	1.072988	0.029771	0.596968
H63	H	1.018087	0.084591	0.213834
H64	H	0.315570	0.317946	0.000074
Br65	Br	0.759868	-0.038829	0.000062
H66	H	0.539963	0.272136	0.000075
H67	H	0.828638	0.273904	0.378569
H68	H	0.818513	-0.586440	0.000079
H69	H	1.010711	0.091966	0.378568
Br70	Br	0.793683	-0.412354	0.000047
Br71	Br	0.809861	0.292640	0.189173
Br72	Br	0.358285	0.023045	0.000129
Br73	Br	0.826862	0.275746	0.811009
H74	H	1.042774	-0.230675	0.000109
Br75	Br	0.744291	-0.232586	0.000048
Br76	Br	1.128991	-0.435409	0.000090
Br77	Br	0.538054	-0.026348	0.000116
H78	H	0.166440	0.305954	0.000096
Br79	Br	0.836424	0.266144	0.596973
H80	H	0.706838	0.026046	0.000090
