data_functionalizedCrystal
_audit_creation_method	'MofGen! by Chris Wilmer'
_symmetry_space_group_name_H-M	'P1'
_symmetry_Int_Tables_number	1
_symmetry_cell_setting	triclinic
loop_
_symmetry_equiv_pos_as_xyz
  x,y,z
_cell_length_a	15.298094
_cell_length_b	15.297327
_cell_length_c	15.296720
_cell_angle_alpha	72.680778
_cell_angle_beta	110.768998
_cell_angle_gamma	91.587238
loop_
_atom_site_label
_atom_site_type_symbol
_atom_site_fract_x
_atom_site_fract_y
_atom_site_fract_z
Zn1	Zn	1.197079	0.637840	-0.413063
Zn2	Zn	1.697079	1.137840	0.086937
Zn3	Zn	1.196977	0.766447	-0.284472
Zn4	Zn	1.696977	1.266447	0.215528
Zn5	Zn	1.077806	0.593371	-0.275193
Zn6	Zn	1.577806	1.093371	0.224807
Zn7	Zn	1.014636	0.766387	-0.466842
Zn8	Zn	1.514636	1.266387	0.033158
O9	O	1.121624	0.691011	-0.359893
O10	O	1.621624	1.191011	0.140107
O11	O	1.323292	0.673536	-0.377381
O12	O	1.823292	1.173536	0.122619
O13	O	1.207562	0.724902	-0.149220
O14	O	1.707562	1.224902	0.350780
O15	O	1.120107	0.473040	-0.267092
O16	O	1.620107	0.973040	0.232908
O17	O	1.323217	0.768023	-0.282906
O18	O	1.823217	1.268023	0.217094
O19	O	1.207737	0.505711	-0.368384
O20	O	1.707737	1.005711	0.131616
O21	O	1.120008	0.597744	-0.142403
O22	O	1.620008	1.097744	0.357597
O23	O	0.943200	0.597686	-0.319240
O24	O	1.443200	1.097686	0.180760
O25	O	1.012443	0.767920	-0.593730
O26	O	1.512443	1.267920	-0.093730
O27	O	0.896789	0.724800	-0.460043
O28	O	1.396789	1.224800	0.039957
O29	O	1.146484	0.673478	-0.554218
O30	O	1.646484	1.173478	-0.054218
O31	O	1.146309	0.892669	-0.335054
O32	O	1.646309	1.392669	0.164946
O33	O	1.012344	0.892625	-0.469041
O34	O	1.512344	1.392625	0.030959
C35	C	0.887265	0.656412	-0.394471
C36	C	1.387265	1.156412	0.105529
C37	C	0.786996	0.641635	-0.409291
C38	C	1.286996	1.141635	0.090709
C39	C	1.072481	0.925383	-0.408907
C40	C	1.572481	1.425383	0.091093
C41	C	1.051533	1.025666	-0.429896
C42	C	1.551533	1.525666	0.070104
C43	C	1.072429	0.725653	-0.609696
C44	C	1.572429	1.225653	-0.109696
C45	C	1.051464	0.740415	-0.716147
C46	C	1.551464	1.240415	-0.216147
C47	C	1.356899	0.725747	-0.325180
C48	C	1.856899	1.225747	0.174820
C49	C	1.457158	0.740549	-0.310387
C50	C	1.957158	1.240549	0.189613
C51	C	1.504218	0.796700	-0.254250
C52	C	2.004218	1.296700	0.245750
C53	C	1.598419	0.810603	-0.240344
C54	C	2.098419	1.310603	0.259656
C55	C	1.645568	0.768363	-0.282580
C56	C	2.145568	1.268363	0.217420
C57	C	1.598506	0.712216	-0.338724
C58	C	2.098506	1.212216	0.161276
C59	C	1.504298	0.698305	-0.352625
C60	C	2.004298	1.198305	0.147375
C61	C	1.645648	0.669968	-0.380955
C62	C	2.145648	1.169968	0.119045
C63	C	1.598586	0.613821	-0.437099
C64	C	2.098586	1.113821	0.062901
C65	C	1.504387	0.599913	-0.450998
C66	C	2.004387	1.099913	0.049002
C67	C	1.457238	0.642154	-0.408762
C68	C	1.957238	1.142154	0.091238
C69	C	1.739856	0.683879	-0.367054
C70	C	2.239856	1.183879	0.132946
C71	C	1.739936	0.585484	-0.465428
C72	C	2.239936	1.085484	0.034572
C73	C	1.645735	0.571580	-0.479334
C74	C	2.145735	1.071580	0.020666
C75	C	1.170980	0.455730	-0.310704
C76	C	1.670980	0.955730	0.189296
C77	C	1.192012	0.355468	-0.289743
C78	C	1.692012	0.855468	0.210257
C79	C	1.271647	1.308363	-0.210156
C80	C	1.771647	1.808363	0.289844
C81	C	1.291328	1.214142	-0.190432
C82	C	1.791328	1.714142	0.309568
C83	C	1.231382	1.167019	-0.250296
C84	C	1.731382	1.667019	0.249704
C85	C	1.151749	1.214125	-0.329888
C86	C	1.651749	1.714125	0.170112
C87	C	1.132062	1.308353	-0.349610
C88	C	1.632062	1.808353	0.150390
C89	C	1.091797	1.167009	-0.389750
C90	C	1.591797	1.667009	0.110250
C91	C	1.012164	1.214115	-0.469342
C92	C	1.512164	1.714115	0.030658
C93	C	0.992480	1.308334	-0.489061
C94	C	1.492480	1.808334	0.010939
C95	C	1.052427	1.355458	-0.429197
C96	C	1.552427	1.855458	0.070803
C97	C	1.111484	1.072780	-0.370028
C98	C	1.611484	1.572780	0.129972
C99	C	0.971899	1.072770	-0.509482
C100	C	1.471899	1.572770	-0.009482
C101	C	0.952217	1.166991	-0.529207
C102	C	1.452217	1.666991	-0.029207
C103	C	1.271526	0.585350	-0.933930
C104	C	1.771526	1.085350	-0.433930
C105	C	1.291228	0.571483	-0.833913
C106	C	1.791228	1.071483	-0.333913
C107	C	1.231289	0.613714	-0.804467
C108	C	1.731289	1.113714	-0.304467
C109	C	1.151644	0.669816	-0.875047
C110	C	1.651644	1.169816	-0.375047
C111	C	1.131944	0.683691	-0.975074
C112	C	1.631944	1.183691	-0.475074
C113	C	1.091707	0.712055	-0.845611
C114	C	1.591707	1.212055	-0.345611
C115	C	1.012062	0.768157	-0.916191
C116	C	1.512062	1.268157	-0.416191
C117	C	0.992365	0.782029	-1.016208
C118	C	1.492365	1.282029	-0.516208
C119	C	1.052304	0.739797	-1.045654
C120	C	1.552304	1.239797	-0.545654
C121	C	1.111407	0.698181	-0.745584
C122	C	1.611407	1.198181	-0.245584
C123	C	0.971825	0.796521	-0.786728
C124	C	1.471825	1.296521	-0.286728
C125	C	0.952122	0.810389	-0.886744
C126	C	1.452122	1.310389	-0.386744
C127	C	1.170694	0.656447	-0.111040
C128	C	1.670694	1.156447	0.388960
C129	C	1.191886	0.641456	-0.004510
C130	C	1.691886	1.141456	0.495490
H131	H	1.778165	0.729594	-0.321341
H132	H	2.278165	1.229594	0.178659
H133	H	1.466075	0.554187	-0.496706
H134	H	1.966075	1.054187	0.003294
Cl135	Cl	1.256322	1.048641	-0.225724
Cl136	Cl	1.756322	1.548641	0.274276
H137	H	0.887380	1.205358	-0.594011
H138	H	1.387380	1.705358	-0.094011
H139	H	1.778325	0.551085	-0.499817
H140	H	2.278325	1.051085	0.000183
Cl141	Cl	1.444945	0.849785	-0.201151
Cl142	Cl	1.944945	1.349785	0.298849
H143	H	1.320442	1.346738	-0.161418
H144	H	1.820442	1.846738	0.338582
Cl145	Cl	1.256057	0.596277	-0.678729
Cl146	Cl	1.756057	1.096277	-0.178729
Cl147	Cl	1.338804	0.624692	-0.426258
Cl148	Cl	1.838804	1.124692	0.073742
H149	H	1.176254	0.652501	-0.688126
H150	H	1.676254	1.152501	-0.188126
H151	H	1.607404	0.525864	-0.525047
H152	H	2.107404	1.025864	-0.025047
Cl153	Cl	1.391440	1.154933	-0.090386
Cl154	Cl	1.891440	1.654933	0.409614
Cl155	Cl	1.211590	1.013573	-0.269973
Cl156	Cl	1.711590	1.513573	0.230027
Cl157	Cl	1.391348	0.500958	-0.745192
Cl158	Cl	1.891348	1.000958	-0.245192
Cl159	Cl	1.027399	1.473803	-0.453655
Cl160	Cl	1.527399	1.973803	0.046345
H161	H	0.927630	1.346682	-0.553861
H162	H	1.427630	1.846682	-0.053861
H163	H	1.320324	0.550978	-0.957917
H164	H	1.820324	1.050978	-0.457917
Cl165	Cl	0.896528	1.013534	-0.584740
Cl166	Cl	1.396528	1.513534	-0.084740
H167	H	1.722271	0.779687	-0.271254
H168	H	2.222271	1.279687	0.228746
Cl169	Cl	0.852002	0.880916	-0.975484
Cl170	Cl	1.352002	1.380916	-0.475484
Cl171	Cl	1.027543	0.757234	-1.171394
Cl172	Cl	1.527543	1.257234	-0.671394
Cl173	Cl	0.892251	0.852574	-1.104936
Cl174	Cl	1.392251	1.352574	-0.604936
H175	H	0.923018	0.830911	-0.762754
H176	H	1.423018	1.330911	-0.262754
H177	H	1.636731	0.856317	-0.194630
H178	H	2.136731	1.356317	0.305370
