data_functionalizedCrystal
_audit_creation_method	'MofGen! by Chris Wilmer'
_symmetry_space_group_name_H-M	'P1'
_symmetry_Int_Tables_number	1
_symmetry_cell_setting	triclinic
loop_
_symmetry_equiv_pos_as_xyz
  x,y,z
_cell_length_a	18.101398
_cell_length_b	18.101395
_cell_length_c	18.101389
_cell_angle_alpha	89.983159
_cell_angle_beta	90.009745
_cell_angle_gamma	89.973339
loop_
_atom_site_label
_atom_site_type_symbol
_atom_site_fract_x
_atom_site_fract_y
_atom_site_fract_z
Zn1	Zn	1.132121	0.294995	0.418559
Zn2	Zn	1.132017	0.418821	0.294721
Zn3	Zn	1.008280	0.294988	0.294751
Zn4	Zn	1.008231	0.418790	0.418541
O5	O	1.070162	0.356898	0.356643
O6	O	1.235740	0.311437	0.402126
O7	O	1.115580	0.402404	0.191092
O8	O	1.024772	0.191356	0.311195
O9	O	1.235663	0.402411	0.311143
O10	O	1.115757	0.191361	0.402156
O11	O	1.024671	0.311425	0.191114
O12	O	0.904640	0.311395	0.311178
O13	O	1.024688	0.402358	0.522176
O14	O	0.904604	0.402351	0.402125
O15	O	1.115710	0.311407	0.522189
O16	O	1.115532	0.522450	0.311125
O17	O	1.024587	0.522427	0.402095
C18	C	0.877751	0.356869	0.356653
C19	C	0.795437	0.356875	0.356675
C20	C	0.496346	0.356918	0.356644
C21	C	0.527674	0.414422	0.413583
C22	C	0.613292	0.414242	0.413817
C23	C	0.644729	0.356897	0.356660
C24	C	0.613675	0.278899	0.377985
C25	C	0.528029	0.279244	0.378390
C26	C	0.527894	0.376725	0.278242
C27	C	0.613544	0.378437	0.278661
C28	C	0.728588	0.356881	0.356667
C29	C	0.412487	0.356930	0.356639
C30	C	1.070063	0.549309	0.356621
C31	C	1.070088	0.631623	0.356637
C32	C	1.070205	0.356880	0.549805
C33	C	1.070223	0.356872	0.632119
C34	C	1.263324	0.356928	0.356633
C35	C	1.345638	0.356941	0.356629
C36	C	1.070282	0.163736	0.356681
C37	C	1.070333	0.081422	0.356697
C38	C	1.070251	0.930714	0.356676
C39	C	1.013163	0.899405	0.414054
C40	C	1.012892	0.813787	0.413875
C41	C	1.070170	0.782331	0.356657
C42	C	1.049041	0.813467	0.278611
C43	C	1.048673	0.899112	0.278955
C44	C	1.148592	0.899067	0.376658
C45	C	1.148132	0.813417	0.378369
C46	C	1.070126	0.698472	0.356642
C47	C	1.070293	1.014573	0.356687
C48	C	1.070162	0.356864	0.164232
C49	C	1.070287	0.356663	0.081919
C50	C	1.070266	0.356733	0.931210
C51	C	1.012801	0.413775	0.899877
C52	C	1.012956	0.414040	0.814258
C53	C	1.070244	0.356802	0.782827
C54	C	1.148270	0.377992	0.813914
C55	C	1.147949	0.378366	0.899559
C56	C	1.050385	0.278374	0.899637
C57	C	1.048649	0.278826	0.813987
C58	C	1.070236	0.356839	0.698968
C59	C	1.070279	0.356697	1.015070
H60	H	0.634944	0.339594	0.233959
H61	H	0.634039	0.234893	0.337807
N62	N	1.030487	0.926641	0.490962
H63	H	1.081672	0.909883	0.505580
H64	H	1.028152	0.982380	0.491860
H65	H	0.954823	0.793357	0.400641
N66	N	1.100043	0.219536	0.785655
H67	H	1.097450	0.217722	0.729948
H68	H	1.152272	0.231096	0.801501
N69	N	0.936709	0.927984	0.396751
H70	H	0.938893	0.961123	0.351906
H71	H	0.902711	0.884973	0.386470
H72	H	1.026082	0.472122	0.793774
N73	N	0.499255	0.450766	0.252557
H74	H	0.465536	0.472221	0.291489
H75	H	0.542201	0.485329	0.244025
N76	N	1.204932	0.925882	0.321303
H77	H	1.206814	0.981639	0.322169
H78	H	1.255121	0.905324	0.334449
N79	N	0.641110	0.490856	0.396112
H80	H	0.597736	0.525049	0.388086
H81	H	0.672028	0.509636	0.438584
H82	H	1.025796	0.471503	0.921400
H83	H	1.088449	0.919824	0.234746
H84	H	0.507058	0.472452	0.400367
N85	N	0.972820	0.925659	0.256530
H86	H	0.939936	0.881726	0.246517
H87	H	0.950936	0.956292	0.297704
H88	H	0.506163	0.401485	0.471339
N89	N	1.102381	0.786483	0.220433
H90	H	1.140847	0.753737	0.244166
H91	H	1.074548	0.757490	0.181746
H92	H	1.164804	0.435648	0.919540
H93	H	0.633794	0.401138	0.471908
N94	N	0.972595	0.257648	0.787069
H95	H	0.938833	0.249942	0.830813
H96	H	0.952273	0.298408	0.754815
N97	N	0.936315	0.396484	0.786412
H98	H	0.936269	0.396628	0.730616
H99	H	0.920937	0.346150	0.804927
H100	H	1.192236	0.337751	0.793556
N101	N	0.501580	0.256918	0.454286
H102	H	0.545556	0.246954	0.487168
H103	H	0.470921	0.298102	0.476135
N104	N	0.500573	0.220569	0.325858
H105	H	0.544107	0.194592	0.302543
H106	H	0.469656	0.183555	0.353900
N107	N	1.170982	0.453064	0.785518
H108	H	1.221257	0.466207	0.805829
H109	H	1.173116	0.451981	0.729775
N110	N	0.640495	0.454432	0.257316
H111	H	0.672764	0.474832	0.298000
H112	H	0.669989	0.451056	0.210080
H113	H	1.192217	0.338623	0.920287
N114	N	1.207461	0.785066	0.327046
H115	H	1.245443	0.756575	0.356385
H116	H	1.184485	0.751549	0.288830
H117	H	0.994478	0.259069	0.921237
H118	H	1.092240	0.235875	0.919901
H119	H	0.635139	0.261794	0.434677
N120	N	0.501063	0.321248	0.222041
H121	H	0.468631	0.283464	0.247201
H122	H	0.471775	0.347561	0.182486
N123	N	1.030396	0.785893	0.490530
H124	H	1.038359	0.829233	0.524741
H125	H	0.987862	0.755010	0.509210
N126	N	0.973988	0.785132	0.255787
H127	H	0.935774	0.801554	0.292976
H128	H	0.960948	0.805479	0.205487
H129	H	0.954768	0.400650	0.920477
H130	H	1.164065	0.793065	0.435807
N131	N	1.174116	0.927623	0.450755
H132	H	1.135149	0.961368	0.472123
H133	H	1.182549	0.884642	0.485337
