data_functionalizedCrystal
_audit_creation_method	'MofGen! by Chris Wilmer'
_symmetry_space_group_name_H-M	'P1'
_symmetry_Int_Tables_number	1
_symmetry_cell_setting	triclinic
loop_
_symmetry_equiv_pos_as_xyz
  x,y,z
_cell_length_a	19.188925
_cell_length_b	19.188930
_cell_length_c	13.596369
_cell_angle_alpha	89.988893
_cell_angle_beta	89.993722
_cell_angle_gamma	83.143665
loop_
_atom_site_label
_atom_site_type_symbol
_atom_site_fract_x
_atom_site_fract_y
_atom_site_fract_z
O1	O	0.926148	0.087151	-0.081824
O2	O	1.259481	0.420484	0.251510
O3	O	1.592815	0.753817	0.584843
O4	O	0.722836	0.098889	-0.081822
O5	O	1.056169	0.432222	0.251511
O6	O	1.389503	0.765556	0.584844
O7	O	0.830359	-0.008636	-0.081804
O8	O	1.163692	0.324697	0.251530
O9	O	1.497026	0.658031	0.584863
O10	O	0.818625	0.194675	-0.081842
O11	O	1.151958	0.528009	0.251491
O12	O	1.485292	0.861342	0.584825
O13	O	0.830348	-0.008642	0.081779
O14	O	1.163682	0.324692	0.415112
O15	O	1.497015	0.658025	0.748446
O16	O	0.722825	0.098883	0.081761
O17	O	1.056159	0.432217	0.415094
O18	O	1.389492	0.765550	0.748427
O19	O	0.926137	0.087145	0.081759
O20	O	1.259471	0.420478	0.415093
O21	O	1.592804	0.753812	0.748426
Zn22	Zn	0.824480	0.093013	0.107732
Zn23	Zn	1.157813	0.426347	0.441066
Zn24	Zn	1.491146	0.759680	0.774399
Zn25	Zn	0.824494	0.093021	-0.107795
Zn26	Zn	1.157827	0.426354	0.225538
Zn27	Zn	1.491160	0.759687	0.558871
O28	O	0.818614	0.194670	0.081741
O29	O	1.151948	0.528003	0.415074
O30	O	1.485281	0.861337	0.748407
C31	C	0.829974	-0.034650	-0.000009
C32	C	1.163307	0.298683	0.333324
C33	C	1.496640	0.632017	0.666657
C34	C	0.828833	-0.112154	-0.000001
C35	C	1.162166	0.221179	0.333332
C36	C	1.495500	0.554512	0.666666
C37	C	0.696820	0.098507	-0.000030
C38	C	1.030153	0.431840	0.333303
C39	C	1.363486	0.765173	0.666636
C40	C	0.619315	0.097367	-0.000029
C41	C	0.952648	0.430701	0.333304
C42	C	1.285982	0.764034	0.666637
C43	C	0.891924	-0.157079	0.000003
C44	C	1.225257	0.176254	0.333337
C45	C	1.558591	0.509587	0.666670
C46	C	0.890852	-0.229903	-0.000012
C47	C	1.224186	0.103430	0.333321
C48	C	1.557519	0.436763	0.666654
C49	C	0.826686	-0.257799	-0.000013
C50	C	1.160020	0.075535	0.333321
C51	C	1.493353	0.408868	0.666654
C52	C	0.763587	-0.212864	-0.000023
C53	C	1.096920	0.120470	0.333311
C54	C	1.430254	0.453803	0.666644
C55	C	0.764660	-0.140041	-0.000017
C56	C	1.097994	0.193292	0.333317
C57	C	1.431327	0.526625	0.666650
N58	N	0.777635	-0.365805	0.055658
N59	N	1.110968	-0.032471	0.388991
N60	N	1.444302	0.300862	0.722325
N61	N	0.776620	-0.434983	0.055654
N62	N	1.109953	-0.101650	0.388988
N63	N	1.443286	0.231684	0.722321
C64	C	0.823448	-0.477207	-0.000033
C65	C	1.156781	-0.143874	0.333301
C66	C	1.490115	0.189459	0.666634
N67	N	0.871341	-0.447641	-0.055704
N68	N	1.204674	-0.114307	0.277630
N69	N	1.538008	0.219026	0.610963
N70	N	0.872358	-0.378456	-0.055696
N71	N	1.205692	-0.045123	0.277637
N72	N	1.539025	0.288211	0.610971
C73	C	0.825515	-0.336761	-0.000020
C74	C	1.158848	-0.003428	0.333314
C75	C	1.492182	0.329906	0.666647
C76	C	0.885381	-0.601097	-0.000047
C77	C	1.218715	-0.267763	0.333287
C78	C	1.552048	0.065570	0.666620
C79	C	0.884307	-0.673922	-0.000069
C80	C	1.217640	-0.340588	0.333265
C81	C	1.550974	-0.007255	0.666598
C82	C	0.757040	-0.656880	-0.000069
C83	C	1.090373	-0.323547	0.333264
C84	C	1.423706	0.009786	0.666598
C85	C	0.758116	-0.584057	-0.000057
C86	C	1.091449	-0.250724	0.333276
C87	C	1.424782	0.082610	0.666610
C88	C	0.822289	-0.556170	-0.000041
C89	C	1.155622	-0.222837	0.333292
C90	C	1.488955	0.110497	0.666625
C91	C	0.057545	0.152831	-0.000042
C92	C	0.390878	0.486165	0.333291
C93	C	0.724211	0.819498	0.666625
C94	C	0.130368	0.153908	-0.000047
C95	C	0.463701	0.487241	0.333286
C96	C	0.797035	0.820575	0.666619
C97	C	0.175302	0.090816	-0.000034
C98	C	0.508636	0.424149	0.333300
C99	C	0.841969	0.757482	0.666633
C100	C	0.147408	0.026642	-0.000040
C101	C	0.480742	0.359976	0.333293
C102	C	0.814075	0.693309	0.666627
C103	C	0.074586	0.025568	-0.000044
C104	C	0.407920	0.358901	0.333289
C105	C	0.741253	0.692234	0.666622
N106	N	0.295976	0.045138	0.055660
N107	N	0.629309	0.378471	0.388993
N108	N	0.962643	0.711804	0.722326
N109	N	0.365153	0.046163	0.055666
N110	N	0.698487	0.379496	0.388999
N111	N	1.031820	0.712830	0.722333
C112	C	0.394712	0.094050	-0.000023
C113	C	0.728045	0.427383	0.333311
C114	C	1.061378	0.760716	0.666644
N115	N	0.352478	0.140883	-0.055706
N116	N	0.685811	0.474217	0.277628
N117	N	1.019145	0.807550	0.610961
N118	N	0.283294	0.139860	-0.055707
N119	N	0.616627	0.473194	0.277626
N120	N	0.949961	0.806527	0.610959
C121	C	0.254267	0.091974	-0.000030
C122	C	0.587600	0.425307	0.333304
C123	C	0.920933	0.758641	0.666637
C124	C	0.501561	0.159386	-0.000030
C125	C	0.834894	0.492720	0.333304
C126	C	1.168227	0.826053	0.666637
C127	C	0.574385	0.160460	-0.000041
C128	C	0.907719	0.493794	0.333292
C129	C	1.241052	0.827127	0.666625
C130	C	0.591425	0.033193	-0.000024
C131	C	0.924758	0.366526	0.333310
C132	C	1.258091	0.699859	0.666643
C133	C	0.518601	0.032121	-0.000022
C134	C	0.851934	0.365454	0.333311
C135	C	1.185268	0.698787	0.666645
C136	C	0.473673	0.095220	-0.000020
C137	C	0.807006	0.428553	0.333313
C138	C	1.140340	0.761886	0.666646
C139	C	0.952154	0.087527	-0.000035
C140	C	1.285487	0.420861	0.333299
C141	C	1.618820	0.754194	0.666632
C142	C	1.029658	0.088666	-0.000042
C143	C	1.362992	0.422000	0.333291
C144	C	1.696325	0.755333	0.666624
C145	C	0.819000	0.220684	-0.000056
C146	C	1.152333	0.554017	0.333278
C147	C	1.485666	0.887350	0.666611
C148	C	0.820140	0.298188	-0.000071
C149	C	1.153474	0.631522	0.333263
C150	C	1.486807	0.964855	0.666596
N151	N	0.824475	0.093008	0.254824
N152	N	1.157809	0.426341	0.588157
N153	N	1.491142	0.759674	0.921491
N154	N	0.824504	0.093021	-0.254887
N155	N	1.157837	0.426354	0.078446
N156	N	1.491170	0.759687	0.411780
C157	C	0.824493	0.093021	0.656115
C158	C	1.157826	0.426355	0.989448
C159	C	1.491159	0.759688	1.322782
C160	C	0.824486	0.093020	0.544464
C161	C	1.157819	0.426353	0.877797
C162	C	1.491152	0.759687	1.211130
C163	C	0.824484	0.093015	0.455473
C164	C	1.157818	0.426348	0.788806
C165	C	1.491151	0.759682	1.122140
C166	C	0.824477	0.093013	0.343815
C167	C	1.157810	0.426346	0.677148
C168	C	1.491143	0.759679	1.010481
H169	H	0.944179	-0.134379	0.000013
H170	H	1.277512	0.198954	0.333346
H171	H	1.610845	0.532288	0.666679
H172	H	0.628010	-0.018178	-0.000020
H173	H	0.961343	0.315155	0.333313
H174	H	1.294676	0.648489	0.666646
C175	C	0.693004	-0.243550	-0.000016
C176	C	1.026337	0.089783	0.333317
C177	C	1.359670	0.423117	0.666651
N178	N	0.639838	-0.266662	-0.000011
N179	N	0.973172	0.066671	0.333322
N180	N	1.306505	0.400004	0.666655
C181	C	0.688710	-0.534637	-0.000056
C182	C	1.022043	-0.201304	0.333277
C183	C	1.355376	0.132030	0.666610
N184	N	0.636430	-0.497414	-0.000060
N185	N	0.969763	-0.164080	0.333274
N186	N	1.303096	0.169253	0.666607
H187	H	0.935686	-0.710500	-0.000071
H188	H	1.269019	-0.377166	0.333263
H189	H	1.602352	-0.043833	0.666596
C190	C	0.452137	0.228795	-0.000046
C191	C	0.785471	0.562129	0.333287
C192	C	1.118804	0.895462	0.666621
N193	N	0.414914	0.281075	-0.000063
N194	N	0.748247	0.614409	0.333271
N195	N	1.081580	0.947742	0.666604
C196	C	0.043911	-0.045022	-0.000033
C197	C	0.377244	0.288311	0.333301
C198	C	0.710578	0.621645	0.666634
N199	N	0.020806	-0.098191	-0.000018
N200	N	0.354139	0.235142	0.333315
N201	N	0.687472	0.568476	0.666648
H202	H	0.153078	0.206160	-0.000038
H203	H	0.486411	0.539494	0.333296
H204	H	0.819744	0.872827	0.666629
C205	C	0.960260	-0.279330	-0.000001
C206	C	1.293593	0.054003	0.333332
C207	C	1.626927	0.387337	0.666665
N208	N	1.012538	-0.316556	0.000010
N209	N	1.345872	0.016777	0.333343
N210	N	1.679205	0.350110	0.666676
H211	H	0.713282	-0.103462	-0.000020
H212	H	1.046616	0.229871	0.333313
H213	H	1.379949	0.563204	0.666647
H214	H	0.937635	-0.578390	-0.000038
H215	H	1.270968	-0.245057	0.333295
H216	H	1.604301	0.088277	0.666628
H217	H	0.597088	0.212713	-0.000049
H218	H	0.930421	0.546046	0.333284
H219	H	1.263755	0.879380	0.666618
C220	C	0.196838	-0.042759	-0.000019
C221	C	0.530171	0.290574	0.333314
C222	C	0.863504	0.623907	0.666648
N223	N	0.234068	-0.095035	-0.000004
N224	N	0.567401	0.238299	0.333329
N225	N	0.900735	0.571632	0.666663
H226	H	0.495896	-0.020129	-0.000017
H227	H	0.829230	0.313204	0.333317
H228	H	1.162563	0.646537	0.666650
H229	H	0.704794	-0.679592	-0.000074
H230	H	1.038128	-0.346258	0.333259
H231	H	1.371461	-0.012925	0.666593
H232	H	0.020968	0.204211	-0.000045
H233	H	0.354302	0.537545	0.333288
H234	H	0.687635	0.870878	0.666621
