data_functionalizedCrystal
_audit_creation_method	'MofGen! by Chris Wilmer'
_symmetry_space_group_name_H-M	'P1'
_symmetry_Int_Tables_number	1
_symmetry_cell_setting	triclinic
loop_
_symmetry_equiv_pos_as_xyz
  x,y,z
_cell_length_a	29.839131
_cell_length_b	13.897449
_cell_length_c	13.897441
_cell_angle_alpha	90.026069
_cell_angle_beta	89.957203
_cell_angle_gamma	89.964845
loop_
_atom_site_label
_atom_site_type_symbol
_atom_site_fract_x
_atom_site_fract_y
_atom_site_fract_z
Zn1	Zn	-0.178840	-1.474585	-0.545437
Zn2	Zn	-0.253975	-1.474430	-0.384104
Zn3	Zn	-0.178859	-1.313274	-0.384140
Zn4	Zn	-0.253943	-1.313207	-0.545341
O5	O	-0.216404	-1.393874	-0.464755
O6	O	-0.188812	-1.609546	-0.524060
O7	O	-0.244032	-1.453015	-0.249127
O8	O	-0.115990	-1.334766	-0.405592
O9	O	-0.244013	-1.609432	-0.405530
O10	O	-0.115975	-1.453280	-0.524095
O11	O	-0.188845	-1.334615	-0.249153
O12	O	-0.188815	-1.178284	-0.405499
O13	O	-0.243960	-1.334651	-0.680336
O14	O	-0.243979	-1.178234	-0.523933
O15	O	-0.188781	-1.453215	-0.680406
O16	O	-0.316838	-1.452950	-0.405437
O17	O	-0.316815	-1.334500	-0.523898
C18	C	-0.216396	-1.143260	-0.464710
C19	C	-0.216403	-1.036046	-0.464714
C20	C	-0.216404	-0.948976	-0.464726
C21	C	-0.216406	-0.839743	-0.464750
C22	C	-0.333127	-1.393727	-0.464674
C23	C	-0.383061	-1.393752	-0.464672
C24	C	-0.692662	-1.455571	-0.526548
C25	C	-0.880335	-1.455676	-0.526606
O26	O	-0.904564	-1.508092	-0.579156
N27	N	-0.903846	-1.394038	-0.464862
C28	C	-0.880436	-1.332365	-0.403104
O29	O	-0.904740	-1.279933	-0.350596
C30	C	-0.692764	-1.332256	-0.403052
C31	C	-0.669256	-1.393905	-0.464793
C32	C	-0.669154	-1.517214	-0.588285
C33	C	-0.622238	-1.517191	-0.588266
C34	C	-0.598831	-1.455525	-0.526511
C35	C	-0.622340	-1.393882	-0.464774
C36	C	-0.669355	-1.270579	-0.341299
C37	C	-0.622434	-1.270555	-0.341293
C38	C	-0.598925	-1.332204	-0.403034
C39	C	-0.552018	-1.332193	-0.403000
N40	N	-0.528507	-1.393830	-0.464744
C41	C	-0.551914	-1.455497	-0.526499
C42	C	-0.978967	-1.332428	-0.403135
C43	C	-1.025885	-1.332456	-0.403146
C44	C	-1.025781	-1.455766	-0.526650
C45	C	-0.978862	-1.455742	-0.526633
C46	C	-0.955456	-1.394066	-0.464879
C47	C	-0.453388	-1.455444	-0.526454
C48	C	-0.406468	-1.455418	-0.526427
C49	C	-0.406576	-1.332105	-0.402928
C50	C	-0.453492	-1.332134	-0.402951
C51	C	-0.476896	-1.393807	-0.464722
O52	O	-0.527760	-1.279796	-0.350485
O53	O	-0.527602	-1.507905	-0.579015
C54	C	-0.739578	-1.455594	-0.526567
C55	C	-0.763086	-1.393951	-0.464830
C56	C	-0.739680	-1.332285	-0.403075
C57	C	-0.810004	-1.393979	-0.464842
C58	C	-0.833411	-1.455645	-0.526598
C59	C	-0.809900	-1.517283	-0.588342
C60	C	-0.762985	-1.517260	-0.588323
C61	C	-0.763191	-1.270647	-0.341331
C62	C	-0.810106	-1.270676	-0.341354
C63	C	-0.833513	-1.332342	-0.403110
C64	C	-0.099226	-1.394048	-0.464858
C65	C	-0.049292	-1.394122	-0.464902
C66	C	-0.216365	-1.393942	-0.716349
C67	C	-0.216348	-1.393972	-0.823563
C68	C	-0.216412	-0.645467	-0.464790
C69	C	-0.216410	-0.752681	-0.464774
C70	C	-0.216317	-1.393998	-1.019858
C71	C	-0.216336	-1.393980	-0.910625
C72	C	-0.216412	-1.393861	-0.214141
C73	C	-0.216302	-1.394019	-0.106928
H74	H	-0.387329	-1.505623	-0.576704
O75	O	-0.599768	-1.210609	-0.281213
C76	C	-0.604827	-1.088250	-0.158774
C77	C	-0.630551	-1.156103	-0.226747
H78	H	-0.629704	-1.044150	-0.114735
H79	H	-0.582877	-1.132495	-0.108302
H80	H	-0.582851	-1.037821	-0.203021
H81	H	-0.652551	-1.206546	-0.182578
H82	H	-0.652473	-1.111798	-0.277222
O83	O	-0.476071	-1.515301	-0.586591
C84	C	-0.490350	-1.562002	-0.750728
C85	C	-0.464625	-1.494169	-0.682736
H86	H	-0.481112	-1.544928	-0.828476
H87	H	-0.481091	-1.639801	-0.733942
H88	H	-0.527920	-1.551453	-0.740095
H89	H	-0.427049	-1.504633	-0.693332
H90	H	-0.473920	-1.416396	-0.699539
H91	H	-0.472634	-1.281942	-0.352668
O92	O	-0.740507	-1.210611	-0.281381
C93	C	-0.726226	-1.046552	-0.234403
C94	C	-0.751948	-1.114432	-0.302353
H95	H	-0.735460	-0.968776	-0.251348
H96	H	-0.735492	-1.063468	-0.156634
H97	H	-0.688656	-1.057163	-0.244966
H98	H	-0.789525	-1.103859	-0.291876
H99	H	-0.742645	-1.097499	-0.380097
H100	H	-0.387511	-1.281900	-0.352644
O101	O	-0.691837	-1.577077	-0.648411
C102	C	-0.706114	-1.623805	-0.812541
C103	C	-0.680394	-1.555952	-0.744559
H104	H	-0.696879	-1.606736	-0.890292
H105	H	-0.696848	-1.701597	-0.795746
H106	H	-0.743685	-1.613269	-0.801906
H107	H	-0.642817	-1.566402	-0.755156
H108	H	-0.689697	-1.478185	-0.761371
O109	O	-0.599384	-1.577170	-0.648112
C110	C	-0.546338	-1.707330	-0.661235
C111	C	-0.572196	-1.639481	-0.593342
H112	H	-0.524343	-1.757712	-0.616982
H113	H	-0.571112	-1.751472	-0.705358
H114	H	-0.524391	-1.662982	-0.711641
H115	H	-0.594144	-1.683755	-0.542878
H116	H	-0.547398	-1.595336	-0.549287
O117	O	-0.956047	-1.515516	-0.586752
C118	C	-0.941636	-1.562275	-0.750875
C119	C	-0.967490	-1.494506	-0.682895
H120	H	-0.950885	-1.545326	-0.828621
H121	H	-0.904075	-1.551662	-0.740353
H122	H	-0.950830	-1.640062	-0.733967
H123	H	-0.958334	-1.416693	-0.699761
H124	H	-1.005044	-1.505202	-0.693431
H125	H	-0.743847	-1.567460	-0.638598
O126	O	-0.956284	-1.272383	-0.343182
C127	C	-0.942008	-1.108320	-0.296208
C128	C	-0.967729	-1.176207	-0.364155
H129	H	-0.951245	-1.030547	-0.313154
H130	H	-0.951271	-1.125238	-0.218438
H131	H	-0.904437	-1.118925	-0.306776
H132	H	-1.005305	-1.165640	-0.353673
H133	H	-0.958428	-1.159272	-0.441900
H134	H	-1.044846	-1.505978	-0.576933
O135	O	-0.692206	-1.210820	-0.281234
C136	C	-0.745257	-1.197883	-0.151050
C137	C	-0.719398	-1.265679	-0.218995
H138	H	-0.767254	-1.242208	-0.100726
H139	H	-0.720483	-1.153816	-0.106851
H140	H	-0.767200	-1.147419	-0.195327
H141	H	-0.697454	-1.316201	-0.174792
H142	H	-0.744195	-1.309678	-0.263197
H143	H	-1.045021	-1.282266	-0.352860
H144	H	-0.829243	-1.220475	-0.291068
H145	H	-0.828966	-1.567497	-0.638622
