data_functionalizedCrystal
_audit_creation_method	'MofGen! by Chris Wilmer'
_symmetry_space_group_name_H-M	'P1'
_symmetry_Int_Tables_number	1
_symmetry_cell_setting	triclinic
loop_
_symmetry_equiv_pos_as_xyz
  x,y,z
_cell_length_a	16.120484
_cell_length_b	13.897449
_cell_length_c	13.897441
_cell_angle_alpha	89.973931
_cell_angle_beta	87.134365
_cell_angle_gamma	87.074300
loop_
_atom_site_label
_atom_site_type_symbol
_atom_site_fract_x
_atom_site_fract_y
_atom_site_fract_z
Zn1	Zn	-0.331881	-1.455180	0.564961
Zn2	Zn	0.168119	-0.955180	1.064961
Zn3	Zn	-0.471313	-1.446873	0.411830
Zn4	Zn	0.028687	-0.946873	0.911830
Zn5	Zn	-0.331918	-1.293867	0.403666
Zn6	Zn	0.168082	-0.793867	0.903666
Zn7	Zn	-0.471255	-1.285653	0.573065
Zn8	Zn	0.028745	-0.785653	1.073065
O9	O	-0.401592	-1.370393	0.488381
O10	O	0.098408	-0.870393	0.988381
O11	O	-0.350386	-1.589059	0.544673
O12	O	0.149614	-1.089059	1.044673
O13	O	-0.452861	-1.426537	0.275768
O14	O	0.047139	-0.926537	0.775768
O15	O	-0.215248	-1.322181	0.418254
O16	O	0.284752	-0.822181	0.918254
O17	O	-0.452826	-1.582956	0.432169
O18	O	0.047174	-1.082956	0.932169
O19	O	-0.215221	-1.440697	0.536757
O20	O	0.284779	-0.940697	1.036757
O21	O	-0.350448	-1.314125	0.269770
O22	O	0.149552	-0.814125	0.769770
O23	O	-0.350392	-1.157797	0.426112
O24	O	0.149608	-0.657797	0.926112
O25	O	-0.452727	-1.308180	0.706969
O26	O	0.047273	-0.808180	1.206969
O27	O	-0.452762	-1.151762	0.550568
O28	O	0.047238	-0.651762	1.050568
O29	O	-0.350330	-1.432731	0.701015
O30	O	0.149670	-0.932731	1.201015
O31	O	-0.587971	-1.418572	0.440027
O32	O	-0.087971	-0.918572	0.940027
O33	O	-0.587928	-1.300124	0.558485
O34	O	-0.087928	-0.800124	1.058485
C35	C	-0.401575	-1.119780	0.488334
C36	C	0.098425	-0.619780	0.988334
C37	C	-0.401589	-1.012565	0.488339
C38	C	0.098411	-0.512565	0.988339
C39	C	-0.401590	-0.925495	0.488351
C40	C	0.098410	-0.425495	0.988351
C41	C	-0.401595	-0.816263	0.488375
C42	C	0.098405	-0.316263	0.988375
C43	C	-0.618199	-1.357581	0.501042
C44	C	-0.118199	-0.857581	1.001042
C45	C	-0.710865	-1.352189	0.506491
C46	C	-0.210865	-0.852189	1.006491
C47	C	-0.880526	-1.342349	0.516459
C48	C	-0.380526	-0.842349	1.016459
C49	C	-0.921817	-1.398611	0.460318
C50	C	-0.421817	-0.898611	0.960318
C51	C	-1.016222	-1.393136	0.465864
C52	C	-0.516222	-0.893136	0.965864
C53	C	-0.786112	-1.347822	0.510914
C54	C	-0.286112	-0.847822	1.010914
C55	C	-0.184138	-1.383282	0.475691
C56	C	0.315862	-0.883282	0.975691
C57	C	-0.091473	-1.388774	0.470283
C58	C	0.408527	-0.888774	0.970283
C59	C	-0.401518	-1.370466	0.739969
C60	C	0.098482	-0.870466	1.239969
C61	C	-0.401487	-1.370497	0.847181
C62	C	0.098513	-0.870497	1.347181
C63	C	-0.401605	-0.621985	0.488416
C64	C	0.098395	-0.121985	0.988416
C65	C	-0.401602	-0.729200	0.488400
C66	C	0.098398	-0.229200	0.988400
C67	C	-0.401605	-1.370380	0.237767
C68	C	0.098395	-0.870380	0.737767
C69	C	-0.401401	-1.370550	0.130542
C70	C	0.098599	-0.870550	0.630542
C71	C	-0.401430	-1.370527	1.043473
C72	C	0.098570	-0.870527	1.543473
C73	C	-0.401464	-1.370507	0.934243
C74	C	0.098536	-0.870507	1.434243
H75	H	-0.886266	-1.450890	0.408089
H76	H	-0.386266	-0.950890	0.908089
C77	C	-0.928551	-1.271716	0.587004
C78	C	-0.428551	-0.771716	1.087004
N79	N	-0.964733	-1.218511	0.640132
N80	N	-0.464733	-0.718511	1.140132
