data_functionalizedCrystal
_audit_creation_method	'MofGen! by Chris Wilmer'
_symmetry_space_group_name_H-M	'P1'
_symmetry_Int_Tables_number	1
_symmetry_cell_setting	triclinic
loop_
_symmetry_equiv_pos_as_xyz
  x,y,z
_cell_length_a	18.101398
_cell_length_b	18.101389
_cell_length_c	18.215405
_cell_angle_alpha	90.020965
_cell_angle_beta	89.976963
_cell_angle_gamma	89.985654
loop_
_atom_site_label
_atom_site_type_symbol
_atom_site_fract_x
_atom_site_fract_y
_atom_site_fract_z
Zn1	Zn	1.132153	-0.418628	0.293098
Zn2	Zn	1.382153	-0.168628	0.543098
Zn3	Zn	1.632153	0.081372	0.793098
Zn4	Zn	1.882153	0.331372	1.043098
Zn5	Zn	1.132062	-0.294781	0.416148
Zn6	Zn	1.382062	-0.044781	0.666148
Zn7	Zn	1.632062	0.205219	0.916148
Zn8	Zn	1.882062	0.455219	1.166148
Zn9	Zn	1.008312	-0.294811	0.293096
Zn10	Zn	1.258312	-0.044811	0.543096
Zn11	Zn	1.508312	0.205189	0.793096
Zn12	Zn	1.758312	0.455189	1.043096
Zn13	Zn	1.008276	-0.418592	0.416123
Zn14	Zn	1.258276	-0.168592	0.666123
Zn15	Zn	1.508276	0.081408	0.916123
Zn16	Zn	1.758276	0.331408	1.166123
O17	O	1.070201	-0.356703	0.354616
O18	O	1.320201	-0.106703	0.604616
O19	O	1.570201	0.143297	0.854616
O20	O	1.820201	0.393297	1.104616
O21	O	1.235774	-0.402203	0.309432
O22	O	1.485774	-0.152203	0.559432
O23	O	1.735774	0.097797	0.809432
O24	O	1.985774	0.347797	1.059432
O25	O	1.115624	-0.191152	0.399835
O26	O	1.365624	0.058848	0.649835
O27	O	1.615624	0.308848	0.899835
O28	O	1.865624	0.558848	1.149835
O29	O	1.024793	-0.311264	0.190112
O30	O	1.274793	-0.061264	0.440112
O31	O	1.524793	0.188736	0.690112
O32	O	1.774793	0.438736	0.940112
O33	O	1.235707	-0.311213	0.399837
O34	O	1.485707	-0.061213	0.649837
O35	O	1.735707	0.188787	0.899837
O36	O	1.985707	0.438787	1.149837
O37	O	1.115778	-0.402232	0.190113
O38	O	1.365778	-0.152232	0.440113
O39	O	1.615778	0.097768	0.690113
O40	O	1.865778	0.347768	0.940113
O41	O	1.024705	-0.191174	0.309429
O42	O	1.274705	0.058826	0.559429
O43	O	1.524705	0.308826	0.809429
O44	O	1.774705	0.558826	1.059429
O45	O	0.904674	-0.311228	0.309405
O46	O	1.154674	-0.061228	0.559405
O47	O	1.404674	0.188772	0.809405
O48	O	1.654674	0.438772	1.059405
O49	O	1.024732	-0.522229	0.399794
O50	O	1.274732	-0.272229	0.649794
O51	O	1.524732	-0.022229	0.899794
O52	O	1.774732	0.227771	1.149794
O53	O	0.904648	-0.402169	0.399792
O54	O	1.154648	-0.152169	0.649792
O55	O	1.404648	0.097831	0.899792
O56	O	1.654648	0.347831	1.149792
O57	O	1.115743	-0.522256	0.309407
O58	O	1.365743	-0.272256	0.559407
O59	O	1.615743	-0.022256	0.809407
O60	O	1.865743	0.227744	1.059407
O61	O	1.115589	-0.311177	0.519129
O62	O	1.365589	-0.061177	0.769129
O63	O	1.615589	0.188823	1.019129
O64	O	1.865589	0.438823	1.269129
O65	O	1.024644	-0.402140	0.519111
O66	O	1.274644	-0.152140	0.769111
O67	O	1.524644	0.097860	1.019111
O68	O	1.774644	0.347860	1.269111
C69	C	0.877790	-0.356698	0.354596
C70	C	1.127790	-0.106698	0.604596
C71	C	1.377790	0.143302	0.854596
C72	C	1.627790	0.393302	1.104596
C73	C	0.795476	-0.356713	0.354605
C74	C	1.045476	-0.106713	0.604605
C75	C	1.295476	0.143287	0.854605
C76	C	1.545476	0.393287	1.104605
C77	C	0.644768	-0.356712	0.354619
C78	C	0.894768	-0.106712	0.604619
C79	C	1.144768	0.143288	0.854619
C80	C	1.394768	0.393288	1.104619
C81	C	0.613422	-0.413841	0.411576
C82	C	0.863422	-0.163841	0.661576
C83	C	1.113422	0.086159	0.911576
C84	C	1.363422	0.336159	1.161576
C85	C	0.527804	-0.413672	0.411806
C86	C	0.777804	-0.163672	0.661806
C87	C	1.027804	0.086328	0.911806
C88	C	1.277804	0.336328	1.161806
C89	C	0.496385	-0.356712	0.354632
C90	C	0.746385	-0.106712	0.604632
C91	C	0.996385	0.143288	0.854632
C92	C	1.246385	0.393288	1.104632
C93	C	0.527440	-0.278569	0.375315
C94	C	0.777440	-0.028569	0.625315
C95	C	1.027440	0.221431	0.875315
C96	C	1.277440	0.471431	1.125315
C97	C	0.613085	-0.278900	0.375721
C98	C	0.863085	-0.028900	0.625721
C99	C	1.113085	0.221100	0.875721
C100	C	1.363085	0.471100	1.125721
C101	C	0.613238	-0.377044	0.276838
C102	C	0.863238	-0.127044	0.526838
C103	C	1.113238	0.122956	0.776838
C104	C	1.363238	0.372956	1.026838
C105	C	0.527588	-0.378765	0.277265
C106	C	0.777588	-0.128765	0.527265
C107	C	1.027588	0.121235	0.777265
C108	C	1.277588	0.371235	1.027265
C109	C	0.412526	-0.356708	0.354639
C110	C	0.662526	-0.106708	0.604639
C111	C	0.912526	0.143292	0.854639
C112	C	1.162526	0.393292	1.104639
C113	C	0.728627	-0.356712	0.354614
C114	C	0.978627	-0.106712	0.604614
C115	C	1.228627	0.143288	0.854614
C116	C	1.478627	0.393288	1.104614
C117	C	1.070244	-0.549865	0.354598
C118	C	1.320244	-0.299865	0.604598
C119	C	1.570244	-0.049865	0.854598
C120	C	1.820244	0.200135	1.104598
C121	C	1.070262	-0.632179	0.354590
C122	C	1.320262	-0.382179	0.604590
C123	C	1.570262	-0.132179	0.854590
C124	C	1.820262	0.117821	1.104590
C125	C	1.070305	-0.931270	0.354452
C126	C	1.320305	-0.681270	0.604452
C127	C	1.570305	-0.431270	0.854452
C128	C	1.820305	-0.181270	1.104452
C129	C	1.012846	-0.899928	0.411140
C130	C	1.262846	-0.649928	0.661140
C131	C	1.512846	-0.399928	0.911140
C132	C	1.762846	-0.149928	1.161140
C133	C	1.013001	-0.814310	0.411403
C134	C	1.263001	-0.564310	0.661403
C135	C	1.513001	-0.314310	0.911403
C136	C	1.763001	-0.064310	1.161403
C137	C	1.070283	-0.782888	0.354520
C138	C	1.320283	-0.532888	0.604520
C139	C	1.570283	-0.282888	0.854520
C140	C	1.820283	-0.032888	1.104520
C141	C	1.148311	-0.813979	0.375574
C142	C	1.398311	-0.563979	0.625574
C143	C	1.648311	-0.313979	0.875574
C144	C	1.898311	-0.063979	1.125574
C145	C	1.147990	-0.899624	0.375947
C146	C	1.397990	-0.649624	0.625947
C147	C	1.647990	-0.399624	0.875947
C148	C	1.897990	-0.149624	1.125947
C149	C	1.050415	-0.899702	0.276584
C150	C	1.300415	-0.649702	0.526584
C151	C	1.550415	-0.399702	0.776584
C152	C	1.800415	-0.149702	1.026584
C153	C	1.048679	-0.814051	0.277034
C154	C	1.298679	-0.564051	0.527034
C155	C	1.548679	-0.314051	0.777034
C156	C	1.798679	-0.064051	1.027034
C157	C	1.070275	-0.699028	0.354558
C158	C	1.320275	-0.449028	0.604558
C159	C	1.570275	-0.199028	0.854558
C160	C	1.820275	0.050972	1.104558
C161	C	1.070318	-1.015130	0.354416
C162	C	1.320318	-0.765130	0.604416
C163	C	1.570318	-0.515130	0.854416
C164	C	1.820318	-0.265130	1.104416
C165	C	1.263363	-0.356709	0.354637
C166	C	1.513363	-0.106709	0.604637
C167	C	1.763363	0.143291	0.854637
C168	C	2.013363	0.393291	1.104637
C169	C	1.345677	-0.356711	0.354646
C170	C	1.595677	-0.106711	0.604646
C171	C	1.845677	0.143289	0.854646
C172	C	2.095677	0.393289	1.104646
C173	C	1.070123	-0.356668	0.545823
C174	C	1.320123	-0.106668	0.795823
C175	C	1.570123	0.143332	1.045823
C176	C	1.820123	0.393332	1.295823
C177	C	1.070157	-0.356677	0.627622
C178	C	1.320157	-0.106677	0.877622
C179	C	1.570157	0.143323	1.127622
C180	C	1.820157	0.393323	1.377622
C181	C	1.070201	-0.164293	0.354582
C182	C	1.320201	0.085707	0.604582
C183	C	1.570201	0.335707	0.854582
C184	C	1.820201	0.585707	1.104582
C185	C	1.070326	-0.081979	0.354382
C186	C	1.320326	0.168021	0.604382
C187	C	1.570326	0.418021	0.854382
C188	C	1.820326	0.668021	1.104382
C189	C	1.070299	-0.356755	0.162663
C190	C	1.320299	-0.106755	0.412663
C191	C	1.570299	0.143245	0.662663
C192	C	1.820299	0.393245	0.912663
C193	C	1.070342	-0.356777	0.080865
C194	C	1.320342	-0.106777	0.330865
C195	C	1.570342	0.143223	0.580865
C196	C	1.820342	0.393223	0.830865
C197	C	1.117623	-0.309400	0.815801
C198	C	1.367623	-0.059400	1.065801
C199	C	1.617623	0.190600	1.315801
C200	C	1.867623	0.440600	1.565801
C201	C	1.117656	-0.309418	0.892659
C202	C	1.367656	-0.059418	1.142659
C203	C	1.617656	0.190582	1.392659
C204	C	1.867656	0.440582	1.642659
C205	C	1.022873	-0.404060	0.892680
C206	C	1.272873	-0.154060	1.142680
C207	C	1.522873	0.095940	1.392680
C208	C	1.772873	0.345940	1.642680
C209	C	1.022844	-0.404045	0.815823
C210	C	1.272844	-0.154045	1.065823
C211	C	1.522844	0.095955	1.315823
C212	C	1.772844	0.345955	1.565823
C213	C	1.070218	-0.356711	0.777385
C214	C	1.320218	-0.106711	1.027385
C215	C	1.570218	0.143289	1.277385
C216	C	1.820218	0.393289	1.527385
C217	C	1.070280	-0.356743	0.931101
C218	C	1.320280	-0.106743	1.181101
C219	C	1.570280	0.143257	1.431101
C220	C	1.820280	0.393257	1.681101
C221	C	1.070316	-0.356763	1.014435
C222	C	1.320316	-0.106763	1.264435
C223	C	1.570316	0.143237	1.514435
C224	C	1.820316	0.393237	1.764435
C225	C	1.070184	-0.356692	0.694046
C226	C	1.320184	-0.106692	0.944046
C227	C	1.570184	0.143308	1.194046
C228	C	1.820184	0.393308	1.444046
H229	H	0.634916	-0.400515	0.468885
H230	H	0.884916	-0.150515	0.718885
H231	H	1.134916	0.099485	0.968885
H232	H	1.384916	0.349485	1.218885
O233	O	0.640095	-0.321944	0.220624
O234	O	0.890095	-0.071944	0.470624
O235	O	1.140095	0.178056	0.720624
O236	O	1.390095	0.428056	0.970624
H237	H	0.675726	-0.280277	0.247903
H238	H	0.925726	-0.030277	0.497903
H239	H	1.175726	0.219723	0.747903
H240	H	1.425726	0.469723	0.997903
H241	H	0.507288	-0.400183	0.469446
H242	H	0.757288	-0.150183	0.719446
H243	H	1.007288	0.099817	0.969446
H244	H	1.257288	0.349817	1.219446
O245	O	1.100083	-0.785740	0.218119
O246	O	1.350083	-0.535740	0.468119
O247	O	1.600083	-0.285740	0.718119
O248	O	1.850083	-0.035740	0.968119
H249	H	1.083286	-0.808787	0.164176
H250	H	1.333286	-0.558787	0.414176
H251	H	1.583286	-0.308787	0.664176
H252	H	1.833286	-0.058787	0.914176
O253	O	0.500493	-0.220631	0.322051
O254	O	0.750493	0.029369	0.572051
O255	O	1.000493	0.279369	0.822051
O256	O	1.250493	0.529369	1.072051
H257	H	0.464590	-0.246979	0.280174
H258	H	0.714590	0.003021	0.530174
H259	H	0.964590	0.253021	0.780174
H260	H	1.214590	0.503021	1.030174
H261	H	0.984302	-0.442596	0.923985
H262	H	1.234302	-0.192596	1.173985
H263	H	1.484302	0.057404	1.423985
H264	H	1.734302	0.307404	1.673985
O265	O	1.168784	-0.258393	0.934101
O266	O	1.418784	-0.008393	1.184101
O267	O	1.668784	0.241607	1.434101
O268	O	1.918784	0.491607	1.684101
H269	H	1.156110	-0.200254	0.919402
H270	H	1.406110	0.049746	1.169402
H271	H	1.656110	0.299746	1.419402
H272	H	1.906110	0.549746	1.669402
H273	H	1.192254	-0.920358	0.336450
H274	H	1.442254	-0.670358	0.586450
H275	H	1.692254	-0.420358	0.836450
H276	H	1.942254	-0.170358	1.086450
H277	H	0.633820	-0.234874	0.336008
H278	H	0.883820	0.015126	0.586008
H279	H	1.133820	0.265126	0.836008
H280	H	1.383820	0.515126	1.086008
H281	H	1.026133	-0.793823	0.469121
H282	H	1.276133	-0.543823	0.719121
H283	H	1.526133	-0.293823	0.969121
H284	H	1.776133	-0.043823	1.219121
H285	H	1.164851	-0.919602	0.432869
H286	H	1.414851	-0.669602	0.682869
H287	H	1.664851	-0.419602	0.932869
H288	H	1.914851	-0.169602	1.182869
H289	H	1.156199	-0.270859	0.784507
H290	H	1.406199	-0.020859	1.034507
H291	H	1.656199	0.229141	1.284507
H292	H	1.906199	0.479141	1.534507
H293	H	0.984241	-0.442575	0.784543
H294	H	1.234241	-0.192575	1.034543
H295	H	1.484241	0.057425	1.284543
H296	H	1.734241	0.307425	1.534543
H297	H	0.506808	-0.471604	0.398906
H298	H	0.756808	-0.221604	0.648906
H299	H	1.006808	0.028396	0.898906
H300	H	1.256808	0.278396	1.148906
O301	O	0.500705	-0.454941	0.256593
O302	O	0.750705	-0.204941	0.506593
O303	O	1.000705	0.045059	0.756593
O304	O	1.250705	0.295059	1.006593
H305	H	0.523000	-0.470120	0.201853
H306	H	0.773000	-0.220120	0.451853
H307	H	1.023000	0.029880	0.701853
H308	H	1.273000	0.279880	0.951853
H309	H	0.634041	-0.471953	0.398825
H310	H	0.884041	-0.221953	0.648825
H311	H	1.134041	0.028047	0.898825
H312	H	1.384041	0.278047	1.148825
O313	O	0.498999	-0.255410	0.449791
O314	O	0.748999	-0.005410	0.699791
O315	O	0.998999	0.244590	0.949791
O316	O	1.248999	0.494590	1.199791
H317	H	0.462755	-0.299424	0.472194
H318	H	0.712755	-0.049424	0.722194
H319	H	0.962755	0.200576	0.972194
H320	H	1.212755	0.450576	1.222194
H321	H	0.634862	-0.433065	0.257939
H322	H	0.884862	-0.183065	0.507939
H323	H	1.134862	0.066935	0.757939
H324	H	1.384862	0.316935	1.007939
O325	O	0.639519	-0.256145	0.451019
O326	O	0.889519	-0.006145	0.701019
O327	O	1.139519	0.243855	0.951019
O328	O	1.389519	0.493855	1.201019
H329	H	0.591131	-0.245013	0.486801
H330	H	0.841131	0.004987	0.736801
H331	H	1.091131	0.254987	0.986801
H332	H	1.341131	0.504987	1.236801
H333	H	1.192272	-0.793627	0.335583
H334	H	1.442272	-0.543627	0.585583
H335	H	1.692272	-0.293627	0.835583
H336	H	1.942272	-0.043627	1.085583
O337	O	0.499276	-0.327699	0.218088
O338	O	0.749276	-0.077699	0.468088
O339	O	0.999276	0.172301	0.718088
O340	O	1.249276	0.422301	0.968088
H341	H	0.438058	-0.330598	0.216163
H342	H	0.688058	-0.080598	0.466163
H343	H	0.938058	0.169402	0.716163
H344	H	1.188058	0.419402	0.966163
O345	O	0.936366	-0.786454	0.393928
O346	O	1.186366	-0.536454	0.643928
O347	O	1.436366	-0.286454	0.893928
O348	O	1.686366	-0.036454	1.143928
H349	H	0.898859	-0.834156	0.385218
H350	H	1.148859	-0.584156	0.635218
H351	H	1.398859	-0.334156	0.885218
H352	H	1.648859	-0.084156	1.135218
H353	H	0.954811	-0.920525	0.398099
H354	H	1.204811	-0.670525	0.648099
H355	H	1.454811	-0.420525	0.898099
H356	H	1.704811	-0.170525	1.148099
O357	O	1.030034	-0.928462	0.487124
O358	O	1.280034	-0.678462	0.737124
O359	O	1.530034	-0.428462	0.987124
O360	O	1.780034	-0.178462	1.237124
H361	H	1.079329	-0.964863	0.484692
H362	H	1.329329	-0.714863	0.734692
H363	H	1.579329	-0.464863	0.984692
H364	H	1.829329	-0.214863	1.234692
O365	O	1.171041	-0.785572	0.450171
O366	O	1.421041	-0.535572	0.700171
O367	O	1.671041	-0.285572	0.950171
O368	O	1.921041	-0.035572	1.200171
H369	H	1.179786	-0.832943	0.487855
H370	H	1.429786	-0.582943	0.737855
H371	H	1.679786	-0.332943	0.987855
H372	H	1.929786	-0.082943	1.237855
O373	O	0.976349	-0.928294	0.251183
O374	O	1.226349	-0.678294	0.501183
O375	O	1.476349	-0.428294	0.751183
O376	O	1.726349	-0.178294	1.001183
H377	H	0.978132	-0.989502	0.247976
H378	H	1.228132	-0.739502	0.497976
H379	H	1.478132	-0.489502	0.747976
H380	H	1.728132	-0.239502	0.997976
O381	O	0.972625	-0.787124	0.255986
O382	O	1.222625	-0.537124	0.505986
O383	O	1.472625	-0.287124	0.755986
O384	O	1.722625	-0.037124	1.005986
H385	H	0.950299	-0.751691	0.300520
H386	H	1.200299	-0.501691	0.550520
H387	H	1.450299	-0.251691	0.800520
H388	H	1.700299	-0.001691	1.050520
O389	O	1.105843	-0.926552	0.220632
O390	O	1.355843	-0.676552	0.470632
O391	O	1.605843	-0.426552	0.720632
O392	O	1.855843	-0.176552	0.970632
H393	H	1.147358	-0.962208	0.248101
H394	H	1.397358	-0.712208	0.498101
H395	H	1.647358	-0.462208	0.748101
H396	H	1.897358	-0.212208	0.998101
