data_functionalizedCrystal
_audit_creation_method	'MofGen! by Chris Wilmer'
_symmetry_space_group_name_H-M	'P1'
_symmetry_Int_Tables_number	1
_symmetry_cell_setting	triclinic
loop_
_symmetry_equiv_pos_as_xyz
  x,y,z
_cell_length_a	31.640172
_cell_length_b	31.640171
_cell_length_c	31.640172
_cell_angle_alpha	59.987848
_cell_angle_beta	89.999175
_cell_angle_gamma	59.987882
loop_
_atom_site_label
_atom_site_type_symbol
_atom_site_fract_x
_atom_site_fract_y
_atom_site_fract_z
Zr1	Zr	0.407051	0.462744	-0.055695
O2	O	0.339537	0.550948	-0.123215
O3	O	0.427764	0.374538	-0.034968
O4	O	0.427739	0.462733	-0.123177
O5	O	0.339563	0.462762	0.034543
O6	O	0.497295	0.462726	-0.123180
O7	O	0.339562	0.462753	-0.035006
O8	O	0.497340	0.304961	0.034611
O9	O	0.339518	0.620527	-0.123248
O10	O	0.488487	0.410813	-0.026165
O11	O	0.436579	0.410825	0.025741
O12	O	0.436549	0.514663	-0.078115
O13	O	0.384641	0.514675	-0.026209
Zr14	Zr	0.517986	0.462746	0.055222
Zr15	Zr	0.517985	0.462732	-0.055699
Zr16	Zr	0.407052	0.462758	0.055226
Zr17	Zr	0.407021	0.573713	-0.055747
Zr18	Zr	0.518017	0.351776	0.055274
O19	O	0.497273	0.550952	0.034495
O20	O	0.497271	0.550932	-0.123221
O21	O	0.339539	0.550968	0.034501
O22	O	0.585500	0.374542	0.122742
O23	O	0.585498	0.374522	-0.034974
O24	O	0.427766	0.374558	0.122748
O25	O	0.585474	0.462728	-0.035016
O26	O	0.497298	0.462757	0.122704
O27	O	0.427742	0.462764	0.122707
O28	O	0.585475	0.462737	0.034533
O29	O	0.427696	0.620517	-0.123251
O30	O	0.497341	0.304972	0.122778
O31	O	0.585519	0.304963	0.122775
O32	O	0.585518	0.304952	0.034607
O33	O	0.339519	0.620538	-0.035080
O34	O	0.427697	0.620529	-0.035084
O35	O	0.488488	0.410826	0.077642
O36	O	0.540397	0.410814	0.025736
O37	O	0.488459	0.514665	-0.026214
O38	O	0.436550	0.514676	0.025692
C39	C	0.462556	0.323939	-0.000171
C40	C	0.462569	0.276829	-0.000149
C41	C	0.435423	-0.059387	0.026862
C42	C	0.435451	0.117566	0.026908
O43	O	0.412428	0.140433	0.049972
N44	N	0.462550	0.139689	-0.000181
C45	C	0.489647	0.117567	-0.027280
O46	O	0.512702	0.140440	-0.050316
C47	C	0.489622	-0.059389	-0.027323
C48	C	0.462517	-0.081504	-0.000236
C49	C	0.408320	-0.081504	0.053947
C50	C	0.408311	-0.125737	0.053933
C51	C	0.435405	-0.147854	0.026834
C52	C	0.462508	-0.125738	-0.000250
C53	C	0.516722	-0.081512	-0.054419
C54	C	0.516715	-0.125755	-0.054426
C55	C	0.489609	-0.147871	-0.027340
C56	C	0.489593	-0.192088	-0.027363
N57	N	0.462493	-0.214211	-0.000274
C58	C	0.435400	-0.192094	0.026824
C59	C	0.489657	0.210473	-0.027257
C60	C	0.489663	0.254712	-0.027247
C61	C	0.435467	0.254707	0.026942
C62	C	0.435459	0.210470	0.026929
C63	C	0.462558	0.188350	-0.000168
C64	C	0.435382	-0.284987	0.026793
C65	C	0.435374	-0.329222	0.026774
C66	C	0.489572	-0.329216	-0.027412
C67	C	0.489578	-0.284982	-0.027396
C68	C	0.462483	-0.262870	-0.000290
O69	O	0.512608	-0.214987	-0.050411
O70	O	0.412358	-0.214983	0.049866
C71	C	0.435432	-0.015154	0.026876
C72	C	0.462535	0.006963	-0.000208
C73	C	0.489628	-0.015155	-0.027307
C74	C	0.462540	0.051202	-0.000199
C75	C	0.435446	0.073319	0.026900
C76	C	0.408347	0.051197	0.053989
C77	C	0.408338	0.006963	0.053975
C78	C	0.516728	0.006968	-0.054396
C79	C	0.516734	0.051202	-0.054380
C80	C	0.489640	0.073319	-0.027282
C81	C	0.323757	0.462759	-0.000231
C82	C	0.276662	0.462764	-0.000229
C83	C	-0.015344	0.462729	-0.038550
C84	C	-0.192330	0.462722	-0.038554
O85	O	-0.215203	0.462691	-0.071127
N86	N	-0.214460	0.462728	-0.000240
C87	C	-0.192339	0.462732	0.038080
O88	O	-0.215220	0.462731	0.070672
C89	C	-0.015351	0.462735	0.038086
C90	C	0.006774	0.462735	-0.000234
C91	C	0.006782	0.462729	-0.076866
C92	C	0.051024	0.462734	-0.076867
C93	C	0.073141	0.462740	-0.038551
C94	C	0.051016	0.462740	-0.000234
C95	C	0.006771	0.462735	0.076407
C96	C	0.051022	0.462734	0.076406
C97	C	0.073147	0.462734	0.038086
C98	C	0.117375	0.462751	0.038081
N99	N	0.139506	0.462745	-0.000233
C100	C	0.117388	0.462739	-0.038549
C101	C	-0.285261	0.462731	0.038074
C102	C	-0.329508	0.462732	0.038072
C103	C	-0.329496	0.462720	-0.038562
C104	C	-0.285250	0.462724	-0.038561
C105	C	-0.263131	0.462725	-0.000240
C106	C	0.210300	0.462751	-0.038547
C107	C	0.254545	0.462758	-0.038545
C108	C	0.254530	0.462766	0.038090
C109	C	0.210288	0.462762	0.038087
C110	C	0.188175	0.462752	-0.000234
O111	O	0.140279	0.462775	0.070640
O112	O	0.140284	0.462727	-0.071129
C113	C	-0.059586	0.462724	-0.038550
C114	C	-0.081711	0.462725	-0.000234
C115	C	-0.059594	0.462731	0.038082
C116	C	-0.125958	0.462725	-0.000235
C117	C	-0.148076	0.462719	-0.038551
C118	C	-0.125945	0.462713	-0.076866
C119	C	-0.081703	0.462718	-0.076866
C120	C	-0.081724	0.462737	0.076397
C121	C	-0.125967	0.462732	0.076393
C122	C	-0.148084	0.462726	0.038077
C123	C	0.601280	0.462731	-0.000242
C124	C	0.648375	0.462726	-0.000244
C125	C	0.462517	0.462727	-0.138982
C126	C	0.462516	0.462721	-0.186071
C127	C	0.462481	0.601551	-0.000302
C128	C	0.462468	0.648661	-0.000324
C129	C	0.435412	0.516959	-0.505224
C130	C	0.435413	0.516970	-0.682219
O131	O	0.412374	0.563072	-0.728168
N132	N	0.462523	0.462761	-0.677232
C133	C	0.489638	0.408547	-0.627991
O134	O	0.512701	0.362439	-0.627811
C135	C	0.489640	0.408537	-0.450997
C136	C	0.462524	0.462749	-0.455988
C137	C	0.408299	0.571167	-0.510213
C138	C	0.408297	0.571163	-0.465966
C139	C	0.435408	0.516953	-0.416731
C140	C	0.462521	0.462745	-0.411742
C141	C	0.516757	0.354323	-0.401757
C142	C	0.516756	0.354325	-0.357508
C143	C	0.489640	0.408537	-0.362500
C144	C	0.489630	0.408532	-0.318260
N145	N	0.462520	0.462740	-0.323247
C146	C	0.435409	0.516951	-0.372483
C147	C	0.489634	0.408555	-0.720918
C148	C	0.489632	0.408558	-0.765166
C149	C	0.435408	0.516981	-0.819391
C150	C	0.435407	0.516978	-0.775142
C151	C	0.462524	0.462764	-0.725905
C152	C	0.435406	0.516940	-0.279560
C153	C	0.435405	0.516932	-0.235307
C154	C	0.489631	0.408509	-0.181086
C155	C	0.489630	0.408517	-0.225335
C156	C	0.462517	0.462737	-0.274573
O157	O	0.512661	0.362453	-0.272296
O158	O	0.412359	0.563051	-0.372652
C159	C	0.435414	0.516962	-0.549470
C160	C	0.462528	0.462755	-0.544481
C161	C	0.489639	0.408544	-0.495246
C162	C	0.462527	0.462757	-0.588730
C163	C	0.435415	0.516968	-0.637965
C164	C	0.408305	0.571176	-0.642952
C165	C	0.408303	0.571173	-0.598706
C166	C	0.516749	0.354336	-0.490259
C167	C	0.516749	0.354344	-0.534507
C168	C	0.489637	0.408554	-0.583743
C169	C	0.462521	0.462762	0.138509
C170	C	0.462521	0.462768	0.185598
C171	C	0.601318	0.323924	-0.000177
C172	C	0.648425	0.276810	-0.000156
C173	C	0.462558	0.323956	0.138575
C174	C	0.462572	0.276853	0.185686
C175	C	0.601320	0.323942	0.138569
C176	C	0.648428	0.276834	0.185678
C177	C	0.323717	0.601548	-0.139042
C178	C	0.276609	0.648656	-0.186151
C179	C	0.323719	0.601565	-0.000296
C180	C	0.276612	0.648680	-0.000317
C181	C	0.462479	0.601533	-0.139048
C182	C	0.462465	0.648637	-0.186159
C183	C	0.643451	0.254684	-0.027243
C184	C	0.687709	0.210421	-0.027235
C185	C	0.736941	0.188282	-0.000136
C186	C	0.741914	0.210413	0.026952
C187	C	0.697657	0.254678	0.026940
C188	C	0.489674	0.254733	0.234906
C189	C	0.489685	0.210480	0.279177
C190	C	0.462596	0.188345	0.274225
C191	C	0.435490	0.210469	0.225000
C192	C	0.435476	0.254724	0.180731
C193	C	0.697651	0.254705	0.180708
C194	C	0.741918	0.210447	0.224968
C195	C	0.736961	0.188317	0.274198
C196	C	0.687733	0.210450	0.279168
C197	C	0.643467	0.254709	0.234908
C198	C	0.227387	0.670790	-0.181181
C199	C	0.183120	0.715061	-0.225441
C200	C	0.188076	0.737194	-0.274671
C201	C	0.237304	0.715058	-0.279641
C202	C	0.281570	0.670791	-0.235381
C203	C	0.281586	0.670810	0.026766
C204	C	0.237328	0.715085	0.026745
C205	C	0.188096	0.737226	-0.000356
C206	C	0.183123	0.715093	-0.027441
C207	C	0.227381	0.670822	-0.027423
C208	C	0.489560	0.670758	-0.181191
C209	C	0.489557	0.715011	-0.225453
C210	C	0.462457	0.737145	-0.274682
C211	C	0.435362	0.715020	-0.279649
C212	C	0.435368	0.670765	-0.235388
H213	H	0.386241	-0.143742	0.075991
H214	H	0.511628	0.652743	-0.141110
H215	H	0.413297	0.733048	-0.319737
H216	H	0.413321	0.561080	-0.239377
Br217	Br	0.180297	0.462737	-0.090554
Br218	Br	0.398728	0.180422	0.218289
H219	H	0.413326	0.561122	-0.779211
H220	H	0.152063	0.773274	-0.000366
H221	H	0.413331	0.561121	-0.859487
Br222	Br	0.808733	0.180359	0.063729
H223	H	0.511760	0.192472	0.319254
Br224	Br	0.526446	0.284761	0.241640
H225	H	0.143033	0.733127	-0.049506
H226	H	0.538792	-0.011037	-0.076462
H227	H	0.772974	0.152238	-0.000130
H228	H	0.386257	-0.063502	0.076016
Br229	Br	0.797042	0.128250	0.334260
H230	H	0.603368	0.272709	-0.049317
H231	H	0.462611	0.152310	0.310276
H232	H	0.511725	0.192466	-0.049324
Br233	Br	0.398692	0.284736	0.113933
Br234	Br	0.681015	0.180409	0.345985
Br235	Br	0.680947	0.180395	-0.063998
Br236	Br	0.462454	0.797207	-0.334746
Br237	Br	0.704417	0.284697	0.063708
Br238	Br	0.371574	0.081225	0.090762
Br239	Br	0.398609	-0.254984	0.063580
H240	H	0.321669	0.652787	0.048838
Br241	Br	0.704392	0.284733	0.113900
H242	H	0.781997	0.192431	0.220912
Br243	Br	0.576667	0.284734	0.241664
H244	H	0.223341	0.652772	-0.141099
H245	H	0.143041	0.733077	-0.221384
H246	H	0.152028	0.773239	-0.310706
Br247	Br	0.244022	0.745101	-0.346458
H248	H	0.223323	0.652805	-0.049475
H249	H	0.413302	0.652758	-0.239440
Br250	Br	0.348371	0.640754	-0.242137
H251	H	0.241388	0.733098	0.048803
H252	H	0.511621	0.733021	-0.221399
H253	H	0.413300	-0.347226	0.048831
Br254	Br	0.398696	0.284733	0.063717
Br255	Br	0.398672	0.180460	0.063690
H256	H	0.511728	0.272722	-0.049310
H257	H	0.538794	-0.063512	-0.076474
H258	H	0.538784	-0.143764	-0.076491
H259	H	0.413328	0.561091	-0.319647
Br260	Br	0.553559	0.280745	-0.394970
H261	H	0.511630	-0.347229	-0.049477
Br262	Br	0.526358	-0.254960	-0.064163
Br263	Br	-0.023246	0.462734	0.128415
H264	H	0.386266	-0.011040	0.076031
Br265	Br	0.553519	0.081215	-0.091148
H266	H	0.538828	0.310194	-0.530435
H267	H	0.069037	0.462731	-0.108069
Br268	Br	0.284568	0.462762	-0.090555
H269	H	-0.011221	0.462722	-0.108068
H270	H	-0.267255	0.462732	0.069280
Br271	Br	-0.255228	0.462724	-0.090569
Br272	Br	0.371483	0.644741	-0.472749
Br273	Br	-0.359521	0.462713	-0.090561
H274	H	-0.063692	0.462718	-0.108069
Br275	Br	0.081039	0.462731	0.128418
Br276	Br	-0.359537	0.462746	0.090072
H277	H	0.192269	0.462770	0.069286
Br278	Br	0.526424	0.334982	-0.758385
H279	H	0.272544	0.462773	0.069285
H280	H	-0.143980	0.462737	0.107597
Br281	Br	0.371500	0.644748	-0.577029
Br282	Br	-0.155972	0.462710	-0.128868
H283	H	0.511717	0.364405	-0.680829
Br284	Br	0.553566	0.280744	-0.290688
Br285	Br	0.526424	0.334943	-0.218562
Br286	Br	0.526421	0.334941	-0.114260
H287	H	0.386222	0.615318	-0.602776
Br288	Br	0.371508	0.644747	-0.709780
H289	H	-0.063719	0.462740	0.107599
H290	H	0.538828	0.310190	-0.450172
