data_functionalizedCrystal
_audit_creation_method	'MofGen! by Chris Wilmer'
_symmetry_space_group_name_H-M	'P1'
_symmetry_Int_Tables_number	1
_symmetry_cell_setting	triclinic
loop_
_symmetry_equiv_pos_as_xyz
  x,y,z
_cell_length_a	12.759401
_cell_length_b	10.686285
_cell_length_c	12.759393
_cell_angle_alpha	85.601669
_cell_angle_beta	89.981665
_cell_angle_gamma	85.631983
loop_
_atom_site_label
_atom_site_type_symbol
_atom_site_fract_x
_atom_site_fract_y
_atom_site_fract_z
Zn1	Zn	1.638390	-0.502267	-0.561964
Zn2	Zn	1.651789	-0.713312	-0.372831
Zn3	Zn	1.462697	-0.502334	-0.386299
Zn4	Zn	1.476178	-0.713213	-0.548479
O5	O	1.557264	-0.607781	-0.467393
O6	O	1.787190	-0.530275	-0.536882
O7	O	1.626671	-0.685394	-0.227592
O8	O	1.474754	-0.325748	-0.420882
O9	O	1.797033	-0.685329	-0.397927
O10	O	1.603835	-0.325699	-0.549942
O11	O	1.487746	-0.530390	-0.237487
O12	O	1.317464	-0.530295	-0.407806
O13	O	1.497731	-0.685162	-0.697293
O14	O	1.327368	-0.685227	-0.526958
O15	O	1.616907	-0.530180	-0.707201
O16	O	1.639742	-0.889876	-0.384851
O17	O	1.510722	-0.889803	-0.513899
C18	C	1.284295	-0.607758	-0.467381
C19	C	1.167519	-0.607779	-0.467398
C20	C	1.117850	-0.688581	-0.529321
C21	C	1.008127	-0.688597	-0.529332
C22	C	0.997752	-0.527005	-0.405487
C23	C	1.107473	-0.526983	-0.405483
C24	C	1.123840	-0.781879	-0.600819
C25	C	1.014117	-0.781895	-0.600830
C26	C	1.578178	-0.935624	-0.446473
C27	C	1.587221	-1.075876	-0.437558
C28	C	1.831298	-0.607806	-0.467407
C29	C	1.948076	-0.607816	-0.467412
C30	C	1.557328	-0.607652	-0.741435
C31	C	1.557356	-0.607597	-0.858215
C32	C	1.536297	-0.278659	-0.488418
C33	C	1.527362	-0.138407	-0.497378
C34	C	1.485062	-0.526840	-1.027965
C35	C	1.485039	-0.526875	-0.918239
C36	C	1.629708	-0.688280	-0.907924
C37	C	1.629736	-0.688237	-1.017649
C38	C	1.401536	-0.433657	-1.033919
C39	C	1.401512	-0.433693	-0.924192
C40	C	1.557254	-0.607819	-0.194424
C41	C	1.557407	-0.607519	-0.077667
H42	H	0.977887	-0.747012	-0.680405
H43	H	0.948848	-0.461223	-0.355078
C44	C	1.293841	-0.469065	-0.881683
H45	H	1.293826	-0.469075	-0.807225
H46	H	1.280860	-0.550487	-0.901281
H47	H	1.240411	-0.409435	-0.910308
H48	H	1.417102	-0.335917	-1.069945
H49	H	1.688654	-0.753923	-1.058112
H50	H	1.645383	-1.129645	-0.379512
C51	C	0.982296	-0.913870	-0.562780
H52	H	0.907839	-0.913878	-0.562799
H53	H	1.008465	-0.935597	-0.493560
H54	H	1.010942	-0.973553	-0.608526
C55	C	1.162105	-0.438098	-0.337370
H56	H	1.110627	-0.389995	-0.300490
H57	H	1.201416	-0.383171	-0.381138
H58	H	1.207967	-0.486301	-0.288441
H59	H	1.688596	-0.753997	-0.859045
C60	C	1.300145	-0.480910	-1.076877
H61	H	1.254972	-0.501976	-1.020079
H62	H	1.317249	-0.553264	-1.114158
H63	H	1.265652	-0.416625	-1.122886
H64	H	1.151980	-0.755817	-0.683887
H65	H	1.469196	-1.084646	-0.555414
H66	H	1.424733	-0.340870	-0.896099
C67	C	1.177818	-0.907217	-0.553278
H68	H	1.125930	-0.963051	-0.532115
H69	H	1.218738	-0.892130	-0.494004
H70	H	1.222077	-0.943809	-0.604399
