data_functionalizedCrystal
_audit_creation_method	'MofGen! by Chris Wilmer'
_symmetry_space_group_name_H-M	'P1'
_symmetry_Int_Tables_number	1
_symmetry_cell_setting	triclinic
loop_
_symmetry_equiv_pos_as_xyz
  x,y,z
_cell_length_a	12.996460
_cell_length_b	17.699083
_cell_length_c	17.699083
_cell_angle_alpha	96.716985
_cell_angle_beta	89.998816
_cell_angle_gamma	90.000172
loop_
_atom_site_label
_atom_site_type_symbol
_atom_site_fract_x
_atom_site_fract_y
_atom_site_fract_z
O1	O	-0.085425	-1.004078	0.095706
O2	O	0.247909	-0.670745	0.429039
O3	O	0.581242	-0.337412	0.762373
O4	O	-0.085459	-0.783700	0.108158
O5	O	0.247875	-0.450367	0.441492
O6	O	0.581208	-0.117033	0.774825
O7	O	-0.085432	-0.900115	-0.008257
O8	O	0.247902	-0.566782	0.325076
O9	O	0.581235	-0.233449	0.658410
O10	O	-0.085452	-0.887663	0.212121
O11	O	0.247882	-0.554330	0.545455
O12	O	0.581215	-0.220996	0.878788
O13	O	0.085702	-0.900100	-0.008250
O14	O	0.419036	-0.566767	0.325083
O15	O	0.752369	-0.233434	0.658417
O16	O	0.085675	-0.783685	0.108165
O17	O	0.419009	-0.450352	0.441499
O18	O	0.752342	-0.117018	0.774832
O19	O	0.085709	-1.004063	0.095713
O20	O	0.419043	-0.670730	0.429046
O21	O	0.752376	-0.337397	0.762379
Cu22	Cu	0.101318	-0.893873	0.101940
Cu23	Cu	0.434651	-0.560539	0.435273
Cu24	Cu	0.767985	-0.227206	0.768606
Cu25	Cu	-0.101067	-0.893890	0.101932
Cu26	Cu	0.232266	-0.560557	0.435265
Cu27	Cu	0.565599	-0.227224	0.768598
O28	O	0.085682	-0.887648	0.212128
O29	O	0.419015	-0.554315	0.545462
O30	O	0.752349	-0.220981	0.878795
C31	C	0.000104	-0.755495	0.107716
C32	C	0.333437	-0.422162	0.441049
C33	C	0.666771	-0.088829	0.774382
C34	C	0.000091	-0.671477	0.106377
C35	C	0.333425	-0.338144	0.439710
C36	C	0.666758	-0.004811	0.773044
N37	N	0.243665	-0.893866	0.101945
N38	N	0.576998	-0.560532	0.435278
N39	N	0.910332	-0.227199	0.768611
N40	N	-0.243415	-0.893903	0.101920
N41	N	0.089919	-0.560570	0.435254
N42	N	0.423252	-0.227237	0.768587
C43	C	0.336771	-0.893869	0.101947
C44	C	0.670104	-0.560536	0.435280
C45	C	1.003438	-0.227203	0.768613
C46	C	0.453576	-0.893876	0.101942
C47	C	0.786910	-0.560543	0.435275
C48	C	1.120243	-0.227210	0.768608
C49	C	0.546675	-0.893886	0.101933
C50	C	0.880008	-0.560552	0.435267
C51	C	1.213341	-0.227219	0.768600
C52	C	0.663487	-0.893894	0.101929
C53	C	0.996820	-0.560561	0.435262
C54	C	1.330154	-0.227227	0.768596
C55	C	0.000135	-0.899662	-0.036451
C56	C	0.333469	-0.566328	0.296883
C57	C	0.666802	-0.232995	0.630216
C58	C	0.000136	-0.898323	-0.120469
C59	C	0.333469	-0.564990	0.212865
C60	C	0.666802	-0.231656	0.546198
C61	C	0.000144	-1.032268	0.096156
C62	C	0.333478	-0.698934	0.429489
C63	C	0.666811	-0.365601	0.762822
C64	C	0.000150	-1.116286	0.097494
C65	C	0.333484	-0.782953	0.430828
C66	C	0.666817	-0.449619	0.764161
C67	C	0.000085	-0.622856	0.174710
C68	C	0.333419	-0.289523	0.508044
C69	C	0.666752	0.043810	0.841377
C70	C	0.000099	-0.543913	0.173448
C71	C	0.333432	-0.210580	0.506782
C72	C	0.666766	0.122754	0.840115
C73	C	0.000111	-0.513592	0.103852
C74	C	0.333444	-0.180259	0.437185
C75	C	0.666778	0.153074	0.770518
C76	C	0.000120	-0.562219	0.035513
C77	C	0.333453	-0.228886	0.368846
C78	C	0.666787	0.104447	0.702180
C79	C	0.000114	-0.641161	0.036776
C80	C	0.333447	-0.307828	0.370110
C81	C	0.666780	0.025505	0.703443
C82	C	0.000146	-0.243856	0.030418
C83	C	0.333479	0.089477	0.363751
C84	C	0.666812	0.422810	0.697085
C85	C	0.000149	-0.164908	0.029160
C86	C	0.333482	0.168425	0.362493
C87	C	0.666815	0.501758	0.695827
C88	C	0.000131	-0.146608	0.167090
C89	C	0.333464	0.186725	0.500423
C90	C	0.666798	0.520058	0.833757
C91	C	0.000125	-0.225550	0.168353
C92	C	0.333458	0.107783	0.501686
C93	C	0.666791	0.441117	0.835020
C94	C	0.000139	-0.274170	0.100015
C95	C	0.333473	0.059163	0.433348
C96	C	0.666806	0.392496	0.766681
C97	C	0.000127	-0.359769	0.101384
C98	C	0.333460	-0.026436	0.434718
C99	C	0.666793	0.306897	0.768051
C100	C	0.000116	-0.427995	0.102481
C101	C	0.333449	-0.094661	0.435815
C102	C	0.666783	0.238672	0.769148
C103	C	0.000148	-0.966656	-0.169090
C104	C	0.333481	-0.633323	0.164244
C105	C	0.666814	-0.299990	0.497577
C106	C	0.000138	-0.965394	-0.248033
C107	C	0.333472	-0.632061	0.085300
C108	C	0.666805	-0.298727	0.418634
C109	C	0.000124	-0.895798	-0.278354
C110	C	0.333458	-0.562464	0.054980
C111	C	0.666791	-0.229131	0.388313
C112	C	0.000109	-0.827459	-0.229727
C113	C	0.333443	-0.494126	0.103607
C114	C	0.666776	-0.160792	0.436940
C115	C	0.000111	-0.828722	-0.150785
C116	C	0.333445	-0.495389	0.182549
C117	C	0.666778	-0.162055	0.515882
C118	C	0.000100	-0.822364	-0.548090
C119	C	0.333433	-0.489030	-0.214756
C120	C	0.666767	-0.155697	0.118577
C121	C	0.000101	-0.821106	-0.627038
C122	C	0.333435	-0.487773	-0.293704
C123	C	0.666768	-0.154439	0.039629
C124	C	0.000127	-0.959036	-0.645338
C125	C	0.333461	-0.625703	-0.312004
C126	C	0.666794	-0.292369	0.021329
C127	C	0.000129	-0.960299	-0.566396
C128	C	0.333462	-0.626966	-0.233063
C129	C	0.666796	-0.293632	0.100271
C130	C	0.000109	-0.891961	-0.517776
C131	C	0.333442	-0.558627	-0.184442
C132	C	0.666775	-0.225294	0.148891
C133	C	0.000117	-0.893330	-0.432177
C134	C	0.333450	-0.559997	-0.098843
C135	C	0.666783	-0.226664	0.234490
C136	C	0.000124	-0.894427	-0.363951
C137	C	0.333457	-0.561094	-0.030618
C138	C	0.666790	-0.227761	0.302715
C139	C	0.000113	-0.888102	0.240322
C140	C	0.333446	-0.554768	0.573655
C141	C	0.666780	-0.221435	0.906989
C142	C	0.000106	-0.889440	0.324340
C143	C	0.333439	-0.556107	0.657673
C144	C	0.666773	-0.222773	0.991007
H145	H	0.000075	-0.647537	0.231384
H146	H	0.333408	-0.314204	0.564717
H147	H	0.666742	0.019130	0.898051
H148	H	0.000144	-0.537526	-0.021154
H149	H	0.333478	-0.204193	0.312180
H150	H	0.666811	0.129141	0.645513
H151	H	0.000158	-0.283434	-0.025228
H152	H	0.333492	0.049899	0.308106
H153	H	0.666825	0.383233	0.641439
H154	H	0.000101	-0.773078	-0.111198
H155	H	0.333435	-0.439745	0.222136
H156	H	0.666768	-0.106411	0.555469
H157	H	0.000118	-0.680748	-0.018868
H158	H	0.333451	-0.347415	0.314465
H159	H	0.666785	-0.014082	0.647799
H160	H	0.000093	-0.504328	0.229092
H161	H	0.333426	-0.170995	0.562426
H162	H	0.666760	0.162338	0.895759
H163	H	0.000092	-0.764429	-0.651721
H164	H	0.333425	-0.431096	-0.318388
H165	H	0.666759	-0.097762	0.014946
H166	H	0.000150	-1.021038	-0.287618
H167	H	0.333484	-0.687705	0.045716
H168	H	0.666817	-0.354372	0.379049
H169	H	0.000110	-0.250232	0.225025
H170	H	0.333444	0.083101	0.558359
H171	H	0.666777	0.416434	0.891692
H172	H	0.000146	-1.016971	-0.541714
H173	H	0.333479	-0.683638	-0.208380
H174	H	0.666812	-0.350305	0.124953
H175	H	0.000139	-1.014680	-0.684934
H176	H	0.333472	-0.681347	-0.351601
H177	H	0.666805	-0.348013	-0.018268
H178	H	0.000084	-0.766718	-0.508512
H179	H	0.333417	-0.433385	-0.175179
H180	H	0.666750	-0.100052	0.158155
H181	H	0.000165	-1.023330	-0.144409
H182	H	0.333499	-0.689997	0.188924
H183	H	0.666832	-0.356663	0.522258
H184	H	0.000125	-0.107012	0.222734
H185	H	0.333458	0.226322	0.556067
H186	H	0.666791	0.559655	0.889401
H187	H	0.000091	-0.770792	-0.254420
H188	H	0.333425	-0.437459	0.078913
H189	H	0.666758	-0.104126	0.412247
H190	H	0.000160	-0.140225	-0.027517
H191	H	0.333493	0.193108	0.305816
H192	H	0.666827	0.526442	0.639150
