data_functionalizedCrystal
_audit_creation_method	'MofGen! by Chris Wilmer'
_symmetry_space_group_name_H-M	'P1'
_symmetry_Int_Tables_number	1
_symmetry_cell_setting	triclinic
loop_
_symmetry_equiv_pos_as_xyz
  x,y,z
_cell_length_a	19.288859
_cell_length_b	14.519709
_cell_length_c	18.366186
_cell_angle_alpha	90.002495
_cell_angle_beta	90.007237
_cell_angle_gamma	83.406935
loop_
_atom_site_label
_atom_site_type_symbol
_atom_site_fract_x
_atom_site_fract_y
_atom_site_fract_z
O1	O	0.921767	0.115012	0.060566
O2	O	0.719562	0.130537	0.060564
O3	O	0.826026	-0.011498	0.060558
O4	O	0.815303	0.257047	0.060571
O5	O	0.826012	-0.011493	-0.060541
O6	O	0.719548	0.130542	-0.060535
O7	O	0.921753	0.115017	-0.060534
Zn8	Zn	0.820649	0.122780	-0.079762
Zn9	Zn	0.820667	0.122774	0.079792
O10	O	0.815290	0.257052	-0.060528
C11	C	0.693677	0.130041	0.000014
C12	C	0.616567	0.128544	0.000013
C13	C	0.052790	0.201759	0.000018
C14	C	0.125242	0.203173	0.000022
C15	C	0.169649	0.119834	0.000016
C16	C	0.141599	0.035073	0.000026
C17	C	0.069148	0.033661	0.000029
C18	C	0.290690	0.057681	-0.042416
C19	C	0.363139	0.059096	-0.042424
C20	C	0.393110	0.124185	0.000009
C21	C	0.350622	0.187874	0.042441
C22	C	0.278172	0.186462	0.042444
C23	C	0.248210	0.121355	0.000013
C24	C	0.499712	0.210474	0.000009
C25	C	0.572165	0.211885	0.000018
C26	C	0.588521	0.043782	0.000014
C27	C	0.516069	0.042374	0.000013
C28	C	0.471669	0.125722	0.000007
C29	C	0.825519	-0.045852	0.000008
C30	C	0.824022	-0.148224	0.000008
C31	C	0.818509	-0.523085	0.000027
C32	C	0.820040	-0.418786	0.000021
C33	C	0.821265	-0.335658	0.000017
C34	C	0.822796	-0.231353	0.000013
C35	C	0.947639	0.115513	0.000018
C36	C	1.024748	0.117010	0.000023
C37	C	0.815796	0.291406	0.000023
C38	C	0.817294	0.393778	0.000029
N39	N	0.820641	0.122784	-0.188653
C40	C	0.862873	0.178544	-0.773199
C41	C	0.862866	0.178553	-0.696971
C42	C	0.820673	0.122764	-0.658864
C43	C	0.778471	0.066979	-0.696991
C44	C	0.778474	0.066978	-0.773217
C45	C	0.818647	0.039616	-0.538102
C46	C	0.818649	0.039615	-0.461877
C47	C	0.820659	0.122766	-0.423757
C48	C	0.822683	0.205920	-0.461871
C49	C	0.822686	0.205920	-0.538097
C50	C	0.820665	0.122758	-0.576210
C51	C	0.862847	0.178562	-0.302984
C52	C	0.862835	0.178573	-0.226755
C53	C	0.778444	0.066990	-0.226776
C54	C	0.778453	0.066988	-0.303004
C55	C	0.820658	0.122772	-0.341103
N56	N	0.820679	0.122763	0.188683
H57	H	0.493237	-0.026639	0.000013
H58	H	0.624677	-0.024075	0.000015
Br59	Br	0.721206	-0.008730	-0.824952
H60	H	0.397727	0.007242	-0.076978
H61	H	0.148078	0.272189	0.000011
H62	H	0.744116	0.021556	-0.665959
Br63	Br	0.391285	0.276228	0.100021
H64	H	0.046318	-0.035354	0.000034
Br65	Br	0.250029	-0.030715	-0.099959
Br66	Br	0.815918	-0.073242	-0.589829
H67	H	0.463559	0.278341	0.000006
H68	H	0.744086	0.021571	-0.195750
Br69	Br	-0.007464	0.314874	0.000018
H70	H	0.177759	-0.032783	0.000023
Br71	Br	0.920146	0.254257	-0.824903
H72	H	0.243581	0.238318	0.076994
Br73	Br	0.610224	0.326913	0.000021
Br74	Br	0.920143	0.254247	-0.645229
H75	H	0.824331	0.273627	-0.569126
Br76	Br	0.825418	0.318776	-0.410146
H77	H	0.744097	0.021560	-0.334039
Br78	Br	0.815899	-0.073234	-0.410159
H79	H	0.897210	0.223989	-0.334006
Br80	Br	0.920084	0.254309	-0.175022
