data_functionalizedCrystal
_audit_creation_method	'MofGen! by Chris Wilmer'
_symmetry_space_group_name_H-M	'P1'
_symmetry_Int_Tables_number	1
_symmetry_cell_setting	triclinic
loop_
_symmetry_equiv_pos_as_xyz
  x,y,z
_cell_length_a	11.792241
_cell_length_b	19.188930
_cell_length_c	10.868271
_cell_angle_alpha	89.989749
_cell_angle_beta	89.999893
_cell_angle_gamma	83.669099
loop_
_atom_site_label
_atom_site_type_symbol
_atom_site_fract_x
_atom_site_fract_y
_atom_site_fract_z
O1	O	1.505476	0.095695	-0.102218
O2	O	2.005476	0.595695	0.397782
O3	O	1.174987	0.105557	-0.102248
O4	O	1.674987	0.605557	0.397752
O5	O	1.349769	-0.000975	-0.102208
O6	O	1.849769	0.499025	0.397792
O7	O	1.330695	0.202228	-0.102258
O8	O	1.830695	0.702228	0.397742
O9	O	1.349755	-0.000980	0.102437
O10	O	1.849755	0.499020	0.602437
O11	O	1.174973	0.105553	0.102396
O12	O	1.674973	0.605553	0.602396
O13	O	1.505462	0.095691	0.102427
O14	O	2.005462	0.595691	0.602427
Zn15	Zn	1.340215	0.100621	0.134903
Zn16	Zn	1.840215	0.600621	0.634903
Zn17	Zn	1.340234	0.100627	-0.134725
Zn18	Zn	1.840234	0.600627	0.365275
O19	O	1.330680	0.202224	0.102387
O20	O	1.830680	0.702224	0.602387
C21	C	1.132699	0.104936	0.000071
C22	C	1.632699	0.604936	0.500071
C23	C	1.006713	0.103082	0.000060
C24	C	1.506713	0.603082	0.500060
C25	C	0.776051	0.099672	0.000096
C26	C	1.276051	0.599672	0.500096
C27	C	0.904408	0.101566	0.000076
C28	C	1.404408	0.601566	0.500076
C29	C	1.349144	-0.026992	0.000118
C30	C	1.849144	0.473008	0.500118
C31	C	1.347290	-0.104507	0.000128
C32	C	1.847290	0.395493	0.500128
C33	C	1.449846	-0.148850	0.000143
C34	C	1.949846	0.351150	0.500143
C35	C	1.448104	-0.221684	0.000123
C36	C	1.948104	0.278316	0.500123
C37	C	1.343800	-0.250171	0.000113
C38	C	1.843800	0.249829	0.500113
C39	C	1.241230	-0.205818	0.000091
C40	C	1.741230	0.294182	0.500091
C41	C	1.242975	-0.132986	0.000098
C42	C	1.742975	0.367014	0.500098
N43	N	1.264067	-0.358629	0.069750
N44	N	1.764067	0.141371	0.569750
N45	N	1.262417	-0.427817	0.069746
N46	N	1.762417	0.072183	0.569746
C47	C	1.338536	-0.469609	0.000088
C48	C	1.838536	0.030391	0.500088
N49	N	1.416386	-0.439602	-0.069550
N50	N	1.916386	0.060398	0.430450
N51	N	1.418040	-0.370408	-0.069540
N52	N	1.918040	0.129592	0.430460
C53	C	1.341896	-0.329144	0.000104
C54	C	1.841896	0.170856	0.500104
C55	C	1.439211	-0.592928	0.000080
C56	C	1.939211	-0.092928	0.500080
C57	C	1.437464	-0.665762	0.000052
C58	C	1.937464	-0.165762	0.500052
C59	C	1.230588	-0.649895	0.000032
C60	C	1.730588	-0.149895	0.500032
C61	C	1.232337	-0.577062	0.000047
C62	C	1.732337	-0.077062	0.500047
C63	C	1.336652	-0.548583	0.000077
C64	C	1.836652	-0.048583	0.500077
C65	C	1.547751	0.096313	0.000105
C66	C	2.047751	0.596313	0.500105
C67	C	1.673737	0.098167	0.000108
C68	C	2.173737	0.598167	0.500108
C69	C	1.331305	0.228240	0.000058
C70	C	1.831305	0.728240	0.500058
C71	C	1.333159	0.305755	0.000040
C72	C	1.833159	0.805755	0.500040
N73	N	1.340211	0.100617	0.318917
N74	N	1.840211	0.600617	0.818917
N75	N	1.340248	0.100626	-0.318739
N76	N	1.840248	0.600626	0.181261
C77	C	1.340228	0.100625	0.569923
C78	C	1.840228	0.600625	1.069923
C79	C	1.340215	0.100623	0.430246
C80	C	1.840215	0.600623	0.930246
H81	H	1.534787	-0.125667	0.000163
H82	H	2.034787	0.374333	0.500163
O83	O	1.540563	-0.565289	-0.000130
O84	O	2.040563	-0.065289	0.499870
C85	C	1.603073	-0.587908	-0.106104
C86	C	2.103073	-0.087908	0.393896
H87	H	1.542073	-0.603279	-0.180186
H88	H	2.042073	-0.103279	0.319814
H89	H	1.666559	-0.635132	-0.082148
H90	H	2.166559	-0.135132	0.417852
C91	C	1.742919	-0.509181	-0.063164
C92	C	2.242919	-0.009181	0.436836
C93	C	1.667997	-0.528055	-0.154157
C94	C	2.167997	-0.028055	0.345843
H95	H	1.782972	-0.472263	-0.092804
H96	H	2.282972	0.027737	0.407196
H97	H	1.700808	-0.493944	0.008235
H98	H	2.200808	0.006056	0.508235
H99	H	1.795813	-0.548539	-0.043209
H100	H	2.295813	-0.048539	0.456791
H101	H	1.615096	-0.488699	-0.174099
H102	H	2.115096	0.011301	0.325901
H103	H	1.710101	-0.543284	-0.225562
H104	H	2.210101	-0.043284	0.274438
H105	H	1.531620	-0.257795	0.000131
H106	H	2.031620	0.242205	0.500131
H107	H	1.148825	-0.540957	0.000042
H108	H	1.648825	-0.040957	0.500042
O109	O	1.129196	-0.677478	0.000184
O110	O	1.629196	-0.177478	0.500184
C111	C	1.066699	-0.654886	0.106181
C112	C	1.566699	-0.154886	0.606181
H113	H	1.097372	-0.604265	0.141530
H114	H	1.597372	-0.104265	0.641530
H115	H	1.080049	-0.696987	0.180392
H116	H	1.580049	-0.196987	0.680392
C117	C	0.901288	-0.703887	0.030555
C118	C	1.401288	-0.203887	0.530555
C119	C	0.938955	-0.641711	0.073964
C120	C	1.438955	-0.141711	0.573964
H121	H	0.822489	-0.695764	0.010685
H122	H	1.322489	-0.195764	0.510685
H123	H	0.943394	-0.719111	-0.040856
H124	H	1.443394	-0.219111	0.459144
H125	H	0.912424	-0.738966	0.092404
H126	H	1.412424	-0.238966	0.592404
H127	H	0.927832	-0.606637	0.012110
H128	H	1.427832	-0.106637	0.512110
H129	H	0.896844	-0.626482	0.145365
H130	H	1.396844	-0.126482	0.645365
H131	H	1.520981	-0.701866	0.000058
H132	H	2.020981	-0.201866	0.500058
O133	O	1.139881	-0.233455	-0.000136
O134	O	1.639881	0.266545	0.499864
C135	C	1.077382	-0.210807	-0.106116
C136	C	1.577382	0.289193	0.393884
H137	H	1.138389	-0.195418	-0.180185
H138	H	1.638389	0.304582	0.319815
H139	H	1.013896	-0.163588	-0.082161
H140	H	1.513896	0.336412	0.417839
C141	C	0.937527	-0.289541	-0.063213
C142	C	1.437527	0.210459	0.436787
C143	C	1.012459	-0.270646	-0.154191
C144	C	1.512459	0.229354	0.345809
H145	H	0.897475	-0.326451	-0.092866
H146	H	1.397475	0.173549	0.407134
H147	H	0.979631	-0.304798	0.008190
H148	H	1.479631	0.195202	0.508190
H149	H	0.884633	-0.250187	-0.043259
H150	H	1.384633	0.249813	0.456741
H151	H	1.065359	-0.309997	-0.174132
H152	H	1.565359	0.190003	0.325868
H153	H	0.970362	-0.255397	-0.225599
H154	H	1.470362	0.244603	0.274401
O155	O	1.143377	-0.089879	-0.000128
O156	O	1.643377	0.410121	0.499872
C157	C	1.138221	-0.047246	-0.106092
C158	C	1.638221	0.452754	0.393908
H159	H	1.196397	-0.073685	-0.180168
H160	H	1.696397	0.426315	0.319832
H161	H	1.167332	0.005816	-0.082114
H162	H	1.667332	0.505816	0.417886
C163	C	0.943224	-0.004169	-0.063183
C164	C	1.443224	0.495831	0.436817
C165	C	1.014670	-0.036644	-0.154169
C166	C	1.514670	0.463356	0.345831
H167	H	0.867012	0.002374	-0.092838
H168	H	1.367012	0.502374	0.407162
H169	H	0.946698	-0.032889	0.008209
H170	H	1.446698	0.467111	0.508209
H171	H	0.967497	0.040047	-0.043211
H172	H	1.467497	0.540047	0.456789
H173	H	0.990405	-0.080862	-0.174129
H174	H	1.490405	0.419138	0.325871
H175	H	1.011188	-0.007931	-0.225566
H176	H	1.511188	0.492069	0.274434
