data_functionalizedCrystal
_audit_creation_method	'MofGen! by Chris Wilmer'
_symmetry_space_group_name_H-M	'P1'
_symmetry_Int_Tables_number	1
_symmetry_cell_setting	triclinic
loop_
_symmetry_equiv_pos_as_xyz
  x,y,z
_cell_length_a	16.959455
_cell_length_b	25.639240
_cell_length_c	16.959447
_cell_angle_alpha	90.040258
_cell_angle_beta	90.014322
_cell_angle_gamma	90.029705
loop_
_atom_site_label
_atom_site_type_symbol
_atom_site_fract_x
_atom_site_fract_y
_atom_site_fract_z
Zn1	Zn	1.208314	-0.208183	0.446854
Zn2	Zn	1.208207	-0.295624	0.314653
Zn3	Zn	1.076143	-0.208199	0.314692
Zn4	Zn	1.076078	-0.295585	0.446791
O5	O	1.142185	-0.251898	0.380747
O6	O	1.318911	-0.219792	0.429327
O7	O	1.190671	-0.284050	0.204047
O8	O	1.093747	-0.135032	0.332266
O9	O	1.318832	-0.284034	0.332199
O10	O	1.190853	-0.135020	0.429365
O11	O	1.093644	-0.219820	0.204075
O12	O	0.965523	-0.219782	0.332205
O13	O	1.093637	-0.283967	0.557410
O14	O	0.965476	-0.283983	0.429258
O15	O	1.190790	-0.219754	0.557457
O16	O	1.190608	-0.368784	0.332138
O17	O	1.093533	-0.368755	0.429220
C18	C	0.936819	-0.251880	0.380729
C19	C	0.848963	-0.251886	0.380740
C20	C	0.477487	-0.218441	0.330317
C21	C	0.477487	-0.285398	0.431222
C22	C	0.560033	-0.285390	0.431218
C23	C	0.601310	-0.251908	0.380761
C24	C	0.560041	-0.218433	0.330309
C25	C	0.601308	-0.318868	0.481663
C26	C	0.683859	-0.318863	0.481659
C27	C	0.725137	-0.285377	0.431206
C28	C	0.683863	-0.251901	0.380753
C29	C	0.725140	-0.218418	0.330297
C30	C	0.683868	-0.184939	0.279847
C31	C	0.601319	-0.184948	0.279856
C32	C	0.807686	-0.285368	0.431197
C33	C	0.807694	-0.218411	0.330288
C34	C	1.142074	-0.387740	0.380685
C35	C	1.142098	-0.445854	0.380685
C36	C	1.192774	-0.806173	0.431398
C37	C	1.192797	-0.860777	0.431414
O38	O	1.235750	-0.888976	0.474468
N39	N	1.142295	-0.888137	0.380824
C40	C	1.091761	-0.860889	0.330220
O41	O	1.048807	-0.889175	0.287190
C42	C	1.091734	-0.806286	0.330208
C43	C	1.142245	-0.778929	0.380796
C44	C	1.243280	-0.778816	0.481983
C45	C	1.243257	-0.724215	0.481965
C46	C	1.192729	-0.696972	0.431364
C47	C	1.142223	-0.724329	0.380779
C48	C	1.041197	-0.779040	0.279609
C49	C	1.041174	-0.724433	0.279602
C50	C	1.091685	-0.697076	0.330190
C51	C	1.091672	-0.642485	0.330160
N52	N	1.142173	-0.615125	0.380750
C53	C	1.192702	-0.642368	0.431352
C54	C	1.091820	-0.975560	0.330249
C55	C	1.091850	-1.030162	0.330255
C56	C	1.192885	-1.030046	0.431451
C57	C	1.192858	-0.975443	0.431440
C58	C	1.142322	-0.948200	0.380839
C59	C	1.192651	-0.527703	0.431311
C60	C	1.192627	-0.473098	0.431287
C61	C	1.091589	-0.473219	0.330095
C62	C	1.091616	-0.527819	0.330116
C63	C	1.142150	-0.555060	0.380730
O64	O	1.048738	-0.614251	0.287130
O65	O	1.235641	-0.614076	0.474381
C66	C	1.348354	-0.251915	0.380766
C67	C	1.436210	-0.251923	0.380774
C68	C	1.142218	-0.251854	0.586916
C69	C	1.142232	-0.251836	0.674772
C70	C	1.142319	-0.115525	0.380827
C71	C	1.142376	-0.057411	0.380861
C72	C	1.142198	-0.251903	0.175381
C73	C	1.142337	-0.251774	0.087525
C74	C	1.091744	-0.285214	1.046227
C75	C	1.192910	-0.218348	1.046270
C76	C	1.192889	-0.218359	0.963724
C77	C	1.142295	-0.251799	0.922425
C78	C	1.091723	-0.285227	0.963673
C79	C	1.243467	-0.184935	0.922470
C80	C	1.243448	-0.184945	0.839919
C81	C	1.192850	-0.218382	0.798619
C82	C	1.142274	-0.251812	0.839872
C83	C	1.091681	-0.285251	0.798573
C84	C	1.041101	-0.318679	0.839825
C85	C	1.041124	-0.318665	0.922373
C86	C	1.192826	-0.218396	0.716071
C87	C	1.091660	-0.285265	0.716020
H88	H	0.841286	-0.312628	0.472270
H89	H	0.999947	-0.345881	0.955967
C90	C	0.986049	-0.354961	0.795088
C91	C	0.907855	-0.343580	0.815178
C92	C	0.857126	-0.376999	0.773990
H93	H	0.993178	-0.350218	0.740005
H94	H	0.997544	-0.390096	0.808616
H95	H	0.896364	-0.308454	0.801645
H96	H	0.900702	-0.348326	0.870254
H97	H	0.868621	-0.412134	0.787518
H98	H	0.864261	-0.372254	0.718909
H99	H	0.804066	-0.369286	0.787621
H100	H	1.050560	-0.312428	1.079817
C101	C	1.247655	-1.059726	0.486368
C102	C	1.236845	-1.113399	0.475562
C103	C	1.287274	-1.140757	0.526142
H104	H	1.300802	-1.050822	0.474902
H105	H	1.236037	-1.050784	0.539481
H106	H	1.248468	-1.122337	0.422461
H107	H	1.183708	-1.122318	0.487034
H108	H	1.275656	-1.131816	0.579255
H109	H	1.340417	-1.131849	0.514671
H110	H	1.279940	-1.177177	0.518822
C111	C	1.247756	-0.182066	1.091248
C112	C	1.236940	-0.189203	1.172369
C113	C	1.287445	-0.155783	1.213830
H114	H	1.300885	-0.189692	1.077806
H115	H	1.236212	-0.146925	1.077794
H116	H	1.248489	-0.224336	1.185817
H117	H	1.183821	-0.181574	1.185834
H118	H	1.275901	-0.120642	1.200377
H119	H	1.340571	-0.163411	1.200382
H120	H	1.280108	-0.160617	1.268875
H121	H	1.284633	-0.157726	0.806339
C122	C	0.432826	-0.182036	0.275514
C123	C	0.486646	-0.152706	0.231340
C124	C	0.445533	-0.119160	0.180854
H125	H	0.400594	-0.201951	0.240949
H126	H	0.400667	-0.159253	0.305803
H127	H	0.518791	-0.175486	0.201053
H128	H	0.518879	-0.132780	0.265884
H129	H	0.413374	-0.096377	0.211143
H130	H	0.413303	-0.139079	0.146294
H131	H	0.482043	-0.099252	0.150881
C132	C	0.432532	-0.321692	0.485970
C133	C	0.351406	-0.314526	0.475190
C134	C	0.309966	-0.347948	0.525621
H135	H	0.445942	-0.356833	0.474351
H136	H	0.446035	-0.314076	0.539118
H137	H	0.337909	-0.322146	0.422055
H138	H	0.337972	-0.279393	0.486815
H139	H	0.323469	-0.340332	0.578768
H140	H	0.323383	-0.383086	0.513997
H141	H	0.254918	-0.343087	0.518319
C142	C	0.556586	-0.355180	0.536576
C143	C	0.576718	-0.343860	0.614810
C144	C	0.535537	-0.377300	0.665423
H145	H	0.501502	-0.350414	0.529462
H146	H	0.570093	-0.390311	0.524961
H147	H	0.563207	-0.308737	0.626421
H148	H	0.631795	-0.348629	0.621949
H149	H	0.549044	-0.412432	0.653808
H150	H	0.480455	-0.372532	0.658302
H151	H	0.549196	-0.369628	0.718510
C152	C	1.036631	-0.443604	0.275294
C153	C	0.985923	-0.412270	0.320011
C154	C	0.935274	-0.384984	0.269562
H155	H	1.066787	-0.422263	0.240861
H156	H	1.006502	-0.467697	0.245179
H157	H	1.016049	-0.388180	0.350113
H158	H	0.955750	-0.433598	0.354442
H159	H	0.905144	-0.409077	0.239447
H160	H	0.965436	-0.363646	0.235132
H161	H	0.900858	-0.363724	0.299896
H162	H	1.284662	-0.157713	0.956101
C163	C	1.298194	-0.808455	0.536797
C164	C	1.348892	-0.839807	0.492096
C165	C	1.399491	-0.867119	0.542563
H166	H	1.328339	-0.784395	0.566935
H167	H	1.267976	-0.829785	0.571209
H168	H	1.379107	-0.818479	0.457698
H169	H	1.318768	-0.863877	0.461959
H170	H	1.369273	-0.888449	0.576974
H171	H	1.429631	-0.843055	0.572698
H172	H	1.433891	-0.888398	0.512241
H173	H	0.841296	-0.191142	0.289205
H174	H	0.717486	-0.157680	0.238762
H175	H	1.050728	-1.052432	0.289053
C176	C	1.247766	-0.182052	0.671427
C177	C	1.292068	-0.152758	0.725262
C178	C	1.342681	-0.119264	0.684166
H179	H	1.282245	-0.202003	0.639205
H180	H	1.217562	-0.159243	0.639259
H181	H	1.322269	-0.175563	0.757416
H182	H	1.257610	-0.132796	0.757486
H183	H	1.312477	-0.096455	0.651999
H184	H	1.377154	-0.139219	0.651945
H185	H	1.372740	-0.099381	0.720687
C186	C	1.298059	-0.694423	0.536814
C187	C	1.287246	-0.640771	0.525971
C188	C	1.337723	-0.613315	0.576483
H189	H	1.286503	-0.703290	0.589943
H190	H	1.351197	-0.703321	0.525293
H191	H	1.234120	-0.631877	0.537498
H192	H	1.298808	-0.631889	0.472853
H193	H	1.390861	-0.622213	0.564961
H194	H	1.326162	-0.622186	0.629609
H195	H	1.330398	-0.576909	0.569128
C196	C	0.728764	-0.355121	0.536485
C197	C	0.776198	-0.325551	0.587218
C198	C	0.817584	-0.358932	0.637730
H199	H	0.692447	-0.375074	0.566611
H200	H	0.760993	-0.377867	0.506207
H201	H	0.743972	-0.302814	0.617494
H202	H	0.812530	-0.305599	0.557114
H203	H	0.849813	-0.381678	0.607452
H204	H	0.781261	-0.378883	0.667850
H205	H	0.849779	-0.338874	0.672153
H206	H	1.233761	-0.450825	0.472482
H207	H	0.567708	-0.157691	0.238782
H208	H	1.233795	-0.549876	0.472532
C209	C	1.247721	-0.945838	0.486458
C210	C	1.291961	-0.981390	0.530785
C211	C	1.342500	-0.954140	0.581488
H212	H	1.282243	-0.924530	0.456343
H213	H	1.217468	-0.924548	0.520912
H214	H	1.322212	-1.002671	0.496336
H215	H	1.257459	-1.002699	0.560916
H216	H	1.312247	-0.932851	0.615941
H217	H	1.377017	-0.932834	0.551366
H218	H	1.372518	-0.978259	0.611575
C219	C	1.036858	-0.945957	0.275429
C220	C	0.986131	-0.914622	0.320123
C221	C	0.935483	-0.887353	0.269653
H222	H	1.067014	-0.924617	0.240993
H223	H	1.006743	-0.970059	0.245317
H224	H	1.016243	-0.890523	0.350222
H225	H	0.955958	-0.935949	0.354557
H226	H	0.905367	-0.911455	0.239541
H227	H	0.965645	-0.866016	0.235220
H228	H	0.901053	-0.866093	0.299971
C229	C	0.986264	-0.808638	0.224657
C230	C	0.941996	-0.773082	0.180366
C231	C	0.891372	-0.800327	0.129742
H232	H	1.016433	-0.829946	0.190171
H233	H	0.951770	-0.829927	0.254852
H234	H	0.976486	-0.751802	0.150173
H235	H	0.911811	-0.751773	0.214830
H236	H	0.856877	-0.821616	0.159937
H237	H	0.921547	-0.821634	0.095261
H238	H	0.861325	-0.776206	0.099689
H239	H	1.000019	-0.702255	0.238397
H240	H	1.050493	-0.550095	0.288916
C241	C	1.036830	-0.321661	0.671223
C242	C	1.054012	-0.373390	0.691257
C243	C	1.003530	-0.406933	0.649997
H244	H	0.983702	-0.314074	0.684717
H245	H	1.044072	-0.316919	0.616145
H246	H	1.046764	-0.378130	0.746323
H247	H	1.107131	-0.380994	0.677761
H248	H	1.010771	-0.402191	0.594918
H249	H	0.950404	-0.399341	0.663494
H250	H	1.015185	-0.442035	0.663578
