data_functionalizedCrystal
_audit_creation_method	'MofGen! by Chris Wilmer'
_symmetry_space_group_name_H-M	'P1'
_symmetry_Int_Tables_number	1
_symmetry_cell_setting	triclinic
loop_
_symmetry_equiv_pos_as_xyz
  x,y,z
_cell_length_a	21.395364
_cell_length_b	21.395362
_cell_length_c	21.395355
_cell_angle_alpha	89.980094
_cell_angle_beta	90.025600
_cell_angle_gamma	89.975000
loop_
_atom_site_label
_atom_site_type_symbol
_atom_site_fract_x
_atom_site_fract_y
_atom_site_fract_z
Zn1	Zn	-0.957873	-0.249553	-0.354273
Zn2	Zn	-0.707873	0.000447	-0.104273
Zn3	Zn	-0.457873	0.250447	0.145727
Zn4	Zn	-0.207873	0.500447	0.395727
Zn5	Zn	-0.957781	-0.354313	-0.249493
Zn6	Zn	-0.707781	-0.104313	0.000507
Zn7	Zn	-0.457781	0.145687	0.250507
Zn8	Zn	-0.207781	0.395687	0.500507
Zn9	Zn	-0.853088	-0.249548	-0.249508
Zn10	Zn	-0.603088	0.000452	0.000492
Zn11	Zn	-0.353088	0.250452	0.250492
Zn12	Zn	-0.103088	0.500452	0.500492
Zn13	Zn	-0.853063	-0.354292	-0.354231
Zn14	Zn	-0.603063	-0.104292	-0.104231
Zn15	Zn	-0.353063	0.145708	0.145769
Zn16	Zn	-0.103063	0.395708	0.395769
O17	O	-0.905451	-0.301926	-0.301876
O18	O	-0.655451	-0.051926	-0.051876
O19	O	-0.405451	0.198074	0.198124
O20	O	-0.155451	0.448074	0.448124
O21	O	-1.045539	-0.263460	-0.340385
O22	O	-0.795539	-0.013460	-0.090385
O23	O	-0.545539	0.236540	0.159615
O24	O	-0.295539	0.486540	0.409615
O25	O	-0.943866	-0.340422	-0.161817
O26	O	-0.693866	-0.090422	0.088183
O27	O	-0.443866	0.159578	0.338183
O28	O	-0.193866	0.409578	0.588183
O29	O	-0.867037	-0.161871	-0.263429
O30	O	-0.617037	0.088129	-0.013429
O31	O	-0.367037	0.338129	0.236571
O32	O	-0.117037	0.588129	0.486571
O33	O	-1.045471	-0.340427	-0.263403
O34	O	-0.795471	-0.090427	-0.013403
O35	O	-0.545471	0.159573	0.236597
O36	O	-0.295471	0.409573	0.486597
O37	O	-0.944022	-0.161874	-0.340399
O38	O	-0.694022	0.088126	-0.090399
O39	O	-0.444022	0.338126	0.159601
O40	O	-0.194022	0.588126	0.409601
O41	O	-0.866948	-0.263452	-0.161828
O42	O	-0.616948	-0.013452	0.088172
O43	O	-0.366948	0.236548	0.338172
O44	O	-0.116948	0.486548	0.588172
O45	O	-0.765407	-0.263432	-0.263388
O46	O	-0.515407	-0.013432	-0.013388
O47	O	-0.265407	0.236568	0.236612
O48	O	-0.015407	0.486568	0.486612
O49	O	-0.866994	-0.340391	-0.441915
O50	O	-0.616994	-0.090391	-0.191915
O51	O	-0.366994	0.159609	0.058085
O52	O	-0.116994	0.409609	0.308085
O53	O	-0.765388	-0.340387	-0.340328
O54	O	-0.515388	-0.090387	-0.090328
O55	O	-0.265388	0.159613	0.159672
O56	O	-0.015388	0.409613	0.409672
O57	O	-0.943998	-0.263440	-0.441945
O58	O	-0.693998	-0.013440	-0.191945
O59	O	-0.443998	0.236560	0.058055
O60	O	-0.193998	0.486560	0.308055
O61	O	-0.943841	-0.441988	-0.263363
O62	O	-0.693841	-0.191988	-0.013363
O63	O	-0.443841	0.058012	0.236637
O64	O	-0.193841	0.308012	0.486637
O65	O	-0.866905	-0.441973	-0.340314
O66	O	-0.616905	-0.191973	-0.090314
O67	O	-0.366905	0.058027	0.159686
O68	O	-0.116905	0.308027	0.409686
C69	C	-0.742664	-0.301907	-0.301856
C70	C	-0.492664	-0.051907	-0.051856
C71	C	-0.242664	0.198093	0.198144
C72	C	0.007336	0.448093	0.448144
C73	C	-0.673022	-0.301914	-0.301862
C74	C	-0.423022	-0.051914	-0.051862
C75	C	-0.173022	0.198086	0.198138
C76	C	0.076978	0.448086	0.448138
C77	C	-0.171233	-0.342059	-0.341889
C78	C	0.078767	-0.092059	-0.091889
C79	C	0.328767	0.157941	0.158111
C80	C	0.578767	0.407941	0.408111
C81	C	-0.236669	-0.342061	-0.341883
C82	C	0.013331	-0.092061	-0.091883
C83	C	0.263331	0.157939	0.158117
C84	C	0.513331	0.407939	0.408117
C85	C	-0.269384	-0.301931	-0.301886
C86	C	-0.019384	-0.051931	-0.051886
C87	C	0.230616	0.198069	0.198114
C88	C	0.480616	0.448069	0.448114
C89	C	-0.236659	-0.261809	-0.261881
C90	C	0.013341	-0.011809	-0.011881
C91	C	0.263341	0.238191	0.238119
C92	C	0.513341	0.488191	0.488119
C93	C	-0.171225	-0.261813	-0.261883
C94	C	0.078775	-0.011813	-0.011883
C95	C	0.328775	0.238187	0.238117
C96	C	0.578775	0.488187	0.488117
C97	C	-0.373070	-0.245467	-0.297038
C98	C	-0.123070	0.004533	-0.047038
C99	C	0.126930	0.254533	0.202962
C100	C	0.376930	0.504533	0.452962
C101	C	-0.438503	-0.245462	-0.297040
C102	C	-0.188503	0.004538	-0.047040
C103	C	0.061497	0.254538	0.202960
C104	C	0.311497	0.504538	0.452960
C105	C	-0.471205	-0.301917	-0.301876
C106	C	-0.221205	-0.051917	-0.051876
C107	C	0.028795	0.198083	0.198124
C108	C	0.278795	0.448083	0.448124
C109	C	-0.438466	-0.358380	-0.306722
C110	C	-0.188466	-0.108380	-0.056722
C111	C	0.061534	0.141620	0.193278
C112	C	0.311534	0.391620	0.443278
C113	C	-0.373032	-0.358385	-0.306724
C114	C	-0.123032	-0.108385	-0.056724
C115	C	0.126968	0.141615	0.193276
C116	C	0.376968	0.391615	0.443276
C117	C	-0.340337	-0.301922	-0.301879
C118	C	-0.090337	-0.051922	-0.051879
C119	C	0.159663	0.198078	0.198121
C120	C	0.409663	0.448078	0.448121
C121	C	-0.574875	-0.342041	-0.341870
C122	C	-0.324875	-0.092041	-0.091870
C123	C	-0.074875	0.157959	0.158130
C124	C	0.175125	0.407959	0.408130
C125	C	-0.640311	-0.342044	-0.341860
C126	C	-0.390311	-0.092044	-0.091860
C127	C	-0.140311	0.157956	0.158140
C128	C	0.109689	0.407956	0.408140
C129	C	-0.640301	-0.261786	-0.261860
C130	C	-0.390301	-0.011786	-0.011860
C131	C	-0.140301	0.238214	0.238140
C132	C	0.109699	0.488214	0.488140
C133	C	-0.574865	-0.261790	-0.261867
C134	C	-0.324865	-0.011790	-0.011867
C135	C	-0.074865	0.238210	0.238133
C136	C	0.175135	0.488210	0.488133
C137	C	-0.542156	-0.301916	-0.301875
C138	C	-0.292156	-0.051916	-0.051875
C139	C	-0.042156	0.198084	0.198125
C140	C	0.207844	0.448084	0.448125
C141	C	-0.905378	-0.464714	-0.301846
C142	C	-0.655378	-0.214714	-0.051846
C143	C	-0.405378	0.035286	0.198154
C144	C	-0.155378	0.285286	0.448154
C145	C	-0.905404	-0.534355	-0.301854
C146	C	-0.655404	-0.284355	-0.051854
C147	C	-0.405404	-0.034355	0.198146
C148	C	-0.155404	0.215645	0.448146
C149	C	-0.068875	-0.301942	-0.301893
C150	C	0.181125	-0.051942	-0.051893
C151	C	0.431125	0.198058	0.198107
C152	C	0.681125	0.448058	0.448107
C153	C	-0.138516	-0.301940	-0.301891
C154	C	0.111484	-0.051940	-0.051891
C155	C	0.361484	0.198060	0.198109
C156	C	0.611484	0.448060	0.448109
C157	C	-0.945663	-1.036139	-0.261910
C158	C	-0.695663	-0.786139	-0.011910
C159	C	-0.445663	-0.536139	0.238090
C160	C	-0.195663	-0.286139	0.488090
C161	C	-0.945639	-0.970703	-0.261895
C162	C	-0.695639	-0.720703	-0.011895
C163	C	-0.445639	-0.470703	0.238105
C164	C	-0.195639	-0.220703	0.488105
C165	C	-0.905540	-0.937994	-0.301921
C166	C	-0.655540	-0.687994	-0.051921
C167	C	-0.405540	-0.437994	0.198079
C168	C	-0.155540	-0.187994	0.448079
C169	C	-0.865451	-0.970725	-0.341953
C170	C	-0.615451	-0.720725	-0.091953
C171	C	-0.365451	-0.470725	0.158047
C172	C	-0.115451	-0.220725	0.408047
C173	C	-0.865471	-1.036159	-0.341962
C174	C	-0.615471	-0.786159	-0.091962
C175	C	-0.365471	-0.536159	0.158038
C176	C	-0.115471	-0.286159	0.408038
C177	C	-0.900532	-0.834303	-0.358351
C178	C	-0.650532	-0.584303	-0.108351
C179	C	-0.400532	-0.334303	0.141649
C180	C	-0.150532	-0.084303	0.391649
C181	C	-0.900516	-0.768870	-0.358343
C182	C	-0.650516	-0.518870	-0.108343
C183	C	-0.400516	-0.268870	0.141657
C184	C	-0.150516	-0.018870	0.391657
C185	C	-0.905474	-0.736173	-0.301893
C186	C	-0.655474	-0.486173	-0.051893
C187	C	-0.405474	-0.236173	0.198107
C188	C	-0.155474	0.013827	0.448107
C189	C	-0.910460	-0.768917	-0.245448
C190	C	-0.660460	-0.518917	0.004552
C191	C	-0.410460	-0.268917	0.254552
C192	C	-0.160460	-0.018917	0.504552
C193	C	-0.910480	-0.834351	-0.245457
C194	C	-0.660480	-0.584351	0.004543
C195	C	-0.410480	-0.334351	0.254543
C196	C	-0.160480	-0.084351	0.504543
C197	C	-0.905513	-0.867041	-0.301915
C198	C	-0.655513	-0.617041	-0.051915
C199	C	-0.405513	-0.367041	0.198085
C200	C	-0.155513	-0.117041	0.448085
C201	C	-0.945532	-0.632497	-0.261844
C202	C	-0.695532	-0.382497	-0.011844
C203	C	-0.445532	-0.132497	0.238156
C204	C	-0.195532	0.117503	0.488156
C205	C	-0.945504	-0.567060	-0.261828
C206	C	-0.695504	-0.317060	-0.011828
C207	C	-0.445504	-0.067060	0.238172
C208	C	-0.195504	0.182940	0.488172
C209	C	-0.865318	-0.567083	-0.341892
C210	C	-0.615318	-0.317083	-0.091892
C211	C	-0.365318	-0.067083	0.158108
C212	C	-0.115318	0.182917	0.408108
C213	C	-0.865343	-0.632519	-0.341902
C214	C	-0.615343	-0.382519	-0.091902
C215	C	-0.365343	-0.132519	0.158098
C216	C	-0.115343	0.117481	0.408098
C217	C	-0.905453	-0.665222	-0.301879
C218	C	-0.655453	-0.415222	-0.051879
C219	C	-0.405453	-0.165222	0.198121
C220	C	-0.155453	0.084778	0.448121
C221	C	-0.905503	-0.301914	-0.465299
C222	C	-0.655503	-0.051914	-0.215299
C223	C	-0.405503	0.198086	0.034701
C224	C	-0.155503	0.448086	0.284701
C225	C	-0.905526	-0.301908	-0.534941
C226	C	-0.655526	-0.051908	-0.284941
C227	C	-0.405526	0.198092	-0.034941
C228	C	-0.155526	0.448092	0.215059
C229	C	-0.905542	-0.138503	-0.301920
C230	C	-0.655542	0.111497	-0.051920
C231	C	-0.405542	0.361497	0.198080
C232	C	-0.155542	0.611497	0.448080
C233	C	-0.905581	-0.068862	-0.301939
C234	C	-0.655581	0.181138	-0.051939
C235	C	-0.405581	0.431138	0.198061
C236	C	-0.155581	0.681138	0.448061
C237	C	-0.945619	-0.261838	-0.567671
C238	C	-0.695619	-0.011838	-0.317671
C239	C	-0.445619	0.238162	-0.067671
C240	C	-0.195619	0.488162	0.182329
C241	C	-0.945619	-0.261811	-0.633106
C242	C	-0.695619	-0.011811	-0.383106
C243	C	-0.445619	0.238189	-0.133106
C244	C	-0.195619	0.488189	0.116894
C245	C	-0.905530	-0.301866	-0.665809
C246	C	-0.655530	-0.051866	-0.415809
C247	C	-0.405530	0.198134	-0.165809
C248	C	-0.155530	0.448134	0.084191
C249	C	-0.865429	-0.341939	-0.633071
C250	C	-0.615429	-0.091939	-0.383071
C251	C	-0.365429	0.158061	-0.133071
C252	C	-0.115429	0.408061	0.116929
C253	C	-0.865426	-0.341960	-0.567637
C254	C	-0.615426	-0.091960	-0.317637
C255	C	-0.365426	0.158040	-0.067637
C256	C	-0.115426	0.408040	0.182363
C257	C	-0.900558	-0.358281	-0.769473
C258	C	-0.650558	-0.108281	-0.519473
C259	C	-0.400558	0.141719	-0.269473
C260	C	-0.150558	0.391719	-0.019473
C261	C	-0.900564	-0.358261	-0.834906
C262	C	-0.650564	-0.108261	-0.584906
C263	C	-0.400564	0.141739	-0.334906
C264	C	-0.150564	0.391739	-0.084906
C265	C	-0.905534	-0.301799	-0.867630
C266	C	-0.655534	-0.051799	-0.617630
C267	C	-0.405534	0.198201	-0.367630
C268	C	-0.155534	0.448201	-0.117630
C269	C	-0.910510	-0.245357	-0.834913
C270	C	-0.660510	0.004643	-0.584913
C271	C	-0.410510	0.254643	-0.334913
C272	C	-0.160510	0.504643	-0.084913
C273	C	-0.910508	-0.245378	-0.769479
C274	C	-0.660508	0.004622	-0.519479
C275	C	-0.410508	0.254622	-0.269479
C276	C	-0.160508	0.504622	-0.019479
C277	C	-0.905528	-0.301847	-0.736762
C278	C	-0.655528	-0.051847	-0.486762
C279	C	-0.405528	0.198153	-0.236762
C280	C	-0.155528	0.448153	0.013238
C281	C	-0.945629	-0.261697	-0.971313
C282	C	-0.695629	-0.011697	-0.721313
C283	C	-0.445629	0.238303	-0.471313
C284	C	-0.195629	0.488303	-0.221313
C285	C	-0.945624	-0.261669	-1.036749
C286	C	-0.695624	-0.011669	-0.786749
C287	C	-0.445624	0.238331	-0.536749
C288	C	-0.195624	0.488331	-0.286749
C289	C	-0.865438	-0.341802	-1.036713
C290	C	-0.615438	-0.091802	-0.786713
C291	C	-0.365438	0.158198	-0.536713
C292	C	-0.115438	0.408198	-0.286713
C293	C	-0.865439	-0.341824	-0.971278
C294	C	-0.615439	-0.091824	-0.721278
C295	C	-0.365439	0.158176	-0.471278
C296	C	-0.115439	0.408176	-0.221278
C297	C	-0.905539	-0.301772	-0.938581
C298	C	-0.655539	-0.051772	-0.688581
C299	C	-0.405539	0.198228	-0.438581
C300	C	-0.155539	0.448228	-0.188581
C301	C	-0.905436	-0.301894	-0.139089
C302	C	-0.655436	-0.051894	0.110911
C303	C	-0.405436	0.198106	0.360911
C304	C	-0.155436	0.448106	0.610911
C305	C	-0.905535	-0.301723	-0.069448
C306	C	-0.655535	-0.051723	0.180552
C307	C	-0.405535	0.198277	0.430552
C308	C	-0.155535	0.448277	0.680552
H309	H	-0.465091	-0.404352	-0.310664
H310	H	-0.215091	-0.154352	-0.060664
H311	H	0.034909	0.095648	0.189336
H312	H	0.284909	0.345648	0.439336
F313	F	-0.895274	-0.418331	-0.869720
F314	F	-0.645274	-0.168331	-0.619720
F315	F	-0.395274	0.081669	-0.369720
F316	F	-0.145274	0.331669	-0.119720
H317	H	-0.978267	-0.229178	-0.659760
H318	H	-0.728267	0.020822	-0.409760
H319	H	-0.478267	0.270822	-0.159760
H320	H	-0.228267	0.520822	0.090240
F321	F	-0.988216	-0.667304	-0.219245
F322	F	-0.738216	-0.417304	0.030755
F323	F	-0.488216	-0.167304	0.280755
F324	F	-0.238216	0.082696	0.530755
H325	H	-0.914498	-0.742296	-0.199481
H326	H	-0.664498	-0.492296	0.050519
H327	H	-0.414498	-0.242296	0.300519
H328	H	-0.164498	0.007704	0.550519
H329	H	-0.832706	-0.659162	-0.374500
H330	H	-0.582706	-0.409162	-0.124500
H331	H	-0.332706	-0.159162	0.125500
H332	H	-0.082706	0.090838	0.375500
F333	F	-0.915801	-0.185310	-0.734661
F334	F	-0.665801	0.064690	-0.484661
F335	F	-0.415801	0.314690	-0.234661
F336	F	-0.165801	0.564690	0.015339
F337	F	-0.988350	-1.070940	-0.219311
F338	F	-0.738350	-0.820940	0.030689
F339	F	-0.488350	-0.570940	0.280689
F340	F	-0.238350	-0.320940	0.530689
F341	F	-0.822810	-1.070987	-0.384570
F342	F	-0.572810	-0.820987	-0.134570
F343	F	-0.322810	-0.570987	0.115430
F344	F	-0.072810	-0.320987	0.365430
F345	F	-0.822635	-0.532276	-0.384485
F346	F	-0.572635	-0.282276	-0.134485
F347	F	-0.322635	-0.032276	0.115515
F348	F	-0.072635	0.217724	0.365515
F349	F	-0.822751	-0.384610	-0.532802
F350	F	-0.572751	-0.134610	-0.282802
F351	F	-0.322751	0.115390	-0.032802
F352	F	-0.072751	0.365390	0.217198
H353	H	-0.548226	-0.229118	-0.229298
H354	H	-0.298226	0.020882	0.020702
H355	H	-0.048226	0.270882	0.270702
H356	H	0.201774	0.520882	0.520702
H357	H	-0.978271	-0.229224	-0.541054
H358	H	-0.728271	0.020776	-0.291054
H359	H	-0.478271	0.270776	-0.041054
H360	H	-0.228271	0.520776	0.208946
F361	F	-0.136426	-0.384769	-0.384466
F362	F	0.113574	-0.134769	-0.134466
F363	F	0.363574	0.115231	0.115534
F364	F	0.613574	0.365231	0.365534
H365	H	-0.978141	-0.540417	-0.229228
H366	H	-0.728141	-0.290417	0.020772
H367	H	-0.478141	-0.040417	0.270772
H368	H	-0.228141	0.209583	0.520772
H369	H	-0.914558	-0.199381	-0.861555
H370	H	-0.664558	0.050619	-0.611555
H371	H	-0.414558	0.300619	-0.361555
H372	H	-0.164558	0.550619	-0.111555
H373	H	-0.832800	-0.944090	-0.374542
H374	H	-0.582800	-0.694090	-0.124542
H375	H	-0.332800	-0.444090	0.125458
H376	H	-0.082800	-0.194090	0.375458
F377	F	-0.895214	-0.734027	-0.418416
F378	F	-0.645214	-0.484027	-0.168416
F379	F	-0.395214	-0.234027	0.081584
F380	F	-0.145214	0.015973	0.331584
H381	H	-0.896609	-0.860919	-0.404333
H382	H	-0.646609	-0.610919	-0.154333
H383	H	-0.396609	-0.360919	0.095667
H384	H	-0.146609	-0.110919	0.345667
H385	H	-0.832791	-0.374409	-1.063339
H386	H	-0.582791	-0.124409	-0.813339
H387	H	-0.332791	0.125591	-0.563339
H388	H	-0.082791	0.375591	-0.313339
H389	H	-0.978277	-0.229081	-0.944690
H390	H	-0.728277	0.020919	-0.694690
H391	H	-0.478277	0.270919	-0.444690
H392	H	-0.228277	0.520919	-0.194690
H393	H	-0.263312	-0.374731	-0.374456
H394	H	-0.013312	-0.124731	-0.124456
H395	H	0.236688	0.125269	0.125544
H396	H	0.486688	0.375269	0.375544
F397	F	-0.988307	-0.219025	-1.071583
F398	F	-0.738307	0.030975	-0.821583
F399	F	-0.488307	0.280975	-0.571583
F400	F	-0.238307	0.530975	-0.321583
H401	H	-0.832794	-0.374458	-0.944628
H402	H	-0.582794	-0.124458	-0.694628
H403	H	-0.332794	0.125542	-0.444628
H404	H	-0.082794	0.375542	-0.194628
F405	F	-0.895282	-0.418380	-0.734652
F406	F	-0.645282	-0.168380	-0.484652
F407	F	-0.395282	0.081620	-0.234652
F408	F	-0.145282	0.331620	0.015348
F409	F	-0.473340	-0.185369	-0.291890
F410	F	-0.223340	0.064631	-0.041890
F411	F	0.026660	0.314631	0.208110
F412	F	0.276660	0.564631	0.458110
H413	H	-0.346379	-0.404359	-0.310669
H414	H	-0.096379	-0.154359	-0.060669
H415	H	0.153621	0.095641	0.189331
H416	H	0.403621	0.345641	0.439331
F417	F	-0.540061	-0.384750	-0.384447
F418	F	-0.290061	-0.134750	-0.134447
F419	F	-0.040061	0.115250	0.115553
F420	F	0.209939	0.365250	0.365553
H421	H	-0.666949	-0.374718	-0.374429
H422	H	-0.416949	-0.124718	-0.124429
H423	H	-0.166949	0.125282	0.125571
H424	H	0.083051	0.375282	0.375571
F425	F	-0.675114	-0.219082	-0.219287
F426	F	-0.425114	0.030918	0.030713
F427	F	-0.175114	0.280918	0.280713
F428	F	0.074886	0.530918	0.530713
H429	H	-0.346449	-0.199492	-0.293090
H430	H	-0.096449	0.050508	-0.043090
H431	H	0.153551	0.300508	0.206910
H432	H	0.403551	0.550508	0.456910
F433	F	-0.271478	-0.219102	-0.219311
F434	F	-0.021478	0.030898	0.030689
F435	F	0.228522	0.280898	0.280689
F436	F	0.478522	0.530898	0.530689
F437	F	-0.136404	-0.219110	-0.219310
F438	F	0.113596	0.030890	0.030690
F439	F	0.363596	0.280890	0.280690
F440	F	0.613596	0.530890	0.530690
H441	H	-0.978279	-0.944055	-0.229297
H442	H	-0.728279	-0.694055	0.020703
H443	H	-0.478279	-0.444055	0.270703
H444	H	-0.228279	-0.194055	0.520703
H445	H	-0.832787	-0.374549	-0.659702
H446	H	-0.582787	-0.124549	-0.409702
H447	H	-0.332787	0.125451	-0.159702
H448	H	-0.082787	0.375451	0.090298
H449	H	-0.914539	-0.861009	-0.199498
H450	H	-0.664539	-0.611009	0.050502
H451	H	-0.414539	-0.361009	0.300502
H452	H	-0.164539	-0.111009	0.550502
