data_functionalizedCrystal
_audit_creation_method	'MofGen! by Chris Wilmer'
_symmetry_space_group_name_H-M	'P1'
_symmetry_Int_Tables_number	1
_symmetry_cell_setting	triclinic
loop_
_symmetry_equiv_pos_as_xyz
  x,y,z
_cell_length_a	19.121063
_cell_length_b	11.169417
_cell_length_c	11.169409
_cell_angle_alpha	90.019513
_cell_angle_beta	87.599247
_cell_angle_gamma	92.470085
loop_
_atom_site_label
_atom_site_type_symbol
_atom_site_fract_x
_atom_site_fract_y
_atom_site_fract_z
Zn1	Zn	-0.279532	1.814442	0.698841
Zn2	Zn	-0.397005	1.805708	0.506692
Zn3	Zn	-0.279576	1.613725	0.498179
Zn4	Zn	-0.396949	1.605116	0.707334
O5	O	-0.338266	1.709748	0.602761
O6	O	-0.295121	1.981233	0.673360
O7	O	-0.381470	1.780188	0.337616
O8	O	-0.181286	1.647608	0.517680
O9	O	-0.381428	1.974816	0.532189
O10	O	-0.181254	1.795075	0.665105
O11	O	-0.295195	1.639139	0.331362
O12	O	-0.295140	1.444633	0.525916
O13	O	-0.381332	1.632936	0.874154
O14	O	-0.381374	1.438309	0.679581
O15	O	-0.295066	1.786727	0.867914
O16	O	-0.495282	1.771841	0.540424
O17	O	-0.495241	1.624467	0.687835
C18	C	-0.338256	1.397924	0.602747
C19	C	-0.338269	1.264523	0.602770
C20	C	-0.520745	1.696304	0.616001
C21	C	-0.598811	1.690663	0.621706
C22	C	-0.635484	1.764802	0.547700
C23	C	-0.708835	1.759504	0.553072
C24	C	-0.745511	1.680059	0.632444
C25	C	-0.708832	1.605917	0.706458
C26	C	-0.635483	1.611222	0.701091
C27	C	-0.966979	1.660204	0.652490
C28	C	-1.040334	1.654902	0.657849
C29	C	-1.040332	1.808491	0.504464
C30	C	-0.966981	1.813784	0.499099
C31	C	-0.930309	1.739647	0.573117
C32	C	-0.820488	1.674639	0.637934
C33	C	-0.855334	1.745074	0.567632
C34	C	-0.155073	1.723276	0.589496
C35	C	-0.077008	1.729041	0.583843
C36	C	-0.338188	1.709846	0.915798
C37	C	-0.338154	1.709887	1.049196
C38	C	-0.338276	2.022789	0.602777
C39	C	-0.338280	2.156189	0.602783
C40	C	-0.338293	1.709723	0.290939
C41	C	-0.338128	1.709928	0.157527
H42	H	-0.605628	1.829489	0.483062
C43	C	-0.926649	1.578635	0.733885
H44	H	-0.958999	1.530550	0.781909
H45	H	-0.897983	1.626576	0.784129
H46	H	-0.898088	1.528430	0.685823
C47	C	-0.749174	1.518527	0.793762
H48	H	-0.798111	1.525975	0.786351
H49	H	-0.737106	1.536919	0.873535
H50	H	-0.737199	1.438760	0.775241
H51	H	-1.070194	1.590223	0.722504
C52	C	-1.080673	1.890043	0.423061
H53	H	-1.129610	1.875516	0.437628
H54	H	-1.068701	1.873391	0.341531
H55	H	-1.068602	1.971550	0.439824
C56	C	-0.749173	1.841051	0.471660
H57	H	-0.716825	1.889113	0.423609
H58	H	-0.777738	1.891260	0.519699
H59	H	-0.777835	1.793083	0.421424
C60	C	-0.595142	1.529672	0.782499
H61	H	-0.627489	1.481591	0.830533
H62	H	-0.566481	1.577634	0.832732
H63	H	-0.566576	1.479462	0.734452
H64	H	-0.937121	1.878474	0.434468
H65	H	-0.825470	1.809762	0.503012
H66	H	-0.850357	1.609952	0.702557
