data_functionalizedCrystal
_audit_creation_method	'MofGen! by Chris Wilmer'
_symmetry_space_group_name_H-M	'P1'
_symmetry_Int_Tables_number	1
_symmetry_cell_setting	triclinic
loop_
_symmetry_equiv_pos_as_xyz
  x,y,z
_cell_length_a	10.654549
_cell_length_b	10.654550
_cell_length_c	9.730223
_cell_angle_alpha	89.997176
_cell_angle_beta	90.002515
_cell_angle_gamma	95.515146
loop_
_atom_site_label
_atom_site_type_symbol
_atom_site_fract_x
_atom_site_fract_y
_atom_site_fract_z
O1	O	1.667840	-0.176394	0.114259
O2	O	1.302361	-0.193200	0.114269
O3	O	1.493504	-0.002058	0.114255
O4	O	1.476698	-0.367536	0.114273
O5	O	1.493490	-0.002058	-0.114325
O6	O	1.302348	-0.193200	-0.114311
O7	O	1.667826	-0.176394	-0.114321
Zn8	Zn	1.485085	-0.184797	-0.150608
Zn9	Zn	1.485103	-0.184797	0.150556
O10	O	1.476684	-0.367536	-0.114307
C11	C	1.255557	-0.191966	-0.000020
C12	C	1.116113	-0.188275	-0.000017
C13	C	1.492263	0.044740	-0.000034
C14	C	1.488571	0.184183	-0.000032
C15	C	1.714631	-0.177628	-0.000029
C16	C	1.854074	-0.181319	-0.000023
C17	C	1.477925	-0.414334	-0.000015
C18	C	1.481617	-0.553777	-0.000008
C19	C	2.064589	-0.072256	-0.000025
C20	C	1.933568	-0.068778	-0.000023
C21	C	1.905607	-0.297347	-0.000011
C22	C	2.036625	-0.300824	-0.000003
N23	N	1.485082	-0.184796	-0.356144
C24	C	1.601113	0.263669	-0.000034
C25	C	1.597636	0.394690	-0.000017
C26	C	1.369067	0.366727	-0.000002
C27	C	1.372544	0.235708	-0.000009
C28	C	1.561913	-0.261678	-0.428063
C29	C	1.561934	-0.261671	-0.571946
C30	C	1.408281	-0.107897	-0.571978
C31	C	1.408268	-0.107898	-0.428098
N32	N	1.485116	-0.184788	0.356092
H33	H	1.891625	0.025696	-0.000027
H34	H	1.274601	0.408694	0.000015
N35	N	1.644833	-0.344580	-0.649492
H36	H	1.620858	-0.435733	-0.624458
H37	H	1.633179	-0.332811	-0.751538
H38	H	1.280894	0.170987	-0.000003
H39	H	1.840872	-0.388980	-0.000002
H40	H	2.078575	-0.395306	0.000007
H41	H	1.695589	0.221722	-0.000050
H42	H	1.345701	-0.045285	-0.369540
N43	N	2.150325	0.049130	-0.000040
H44	H	2.097798	0.123154	-0.000043
H45	H	2.205296	0.052667	0.084699
N46	N	1.719019	0.480423	-0.000019
H47	H	1.793044	0.427896	-0.000036
H48	H	1.722544	0.535401	-0.084752
N49	N	1.644763	-0.344609	-0.350453
H50	H	1.693440	-0.393309	-0.417852
H51	H	1.705676	-0.290419	-0.290749
H52	H	1.345741	-0.045291	-0.630581
