data_functionalizedCrystal
_audit_creation_method	'MofGen! by Chris Wilmer'
_symmetry_space_group_name_H-M	'P1'
_symmetry_Int_Tables_number	1
_symmetry_cell_setting	triclinic
loop_
_symmetry_equiv_pos_as_xyz
  x,y,z
_cell_length_a	6.817900
_cell_length_b	19.551823
_cell_length_c	16.305550
_cell_angle_alpha	95.888693
_cell_angle_beta	103.455250
_cell_angle_gamma	101.663376
loop_
_atom_site_label
_atom_site_type_symbol
_atom_site_fract_x
_atom_site_fract_y
_atom_site_fract_z
V1	V	-4.017281	-0.097265	-0.263428
O2	O	-4.014216	0.004067	-0.258008
O3	O	-3.959975	-0.192277	-0.262017
O4	O	-3.968800	-0.096036	-0.378140
O5	O	-4.005329	-0.092841	-0.141081
V6	V	-4.502073	-0.085113	-0.248747
O7	O	-4.275755	-0.123922	-0.295633
O8	O	-4.693797	-0.058457	-0.216543
O9	O	-4.336173	0.009899	-0.250158
O10	O	-4.622535	-0.186446	-0.254168
O11	O	-4.631422	-0.089538	-0.371095
O12	O	-4.327347	-0.086343	-0.134035
C13	C	-3.802811	-0.215431	-0.257962
C14	C	-3.837243	-0.293106	-0.257573
C15	C	-4.035182	-0.333161	-0.261608
C16	C	-4.067539	-0.406146	-0.261251
C17	C	-3.901937	-0.439072	-0.256841
C18	C	-3.703973	-0.399008	-0.252810
C19	C	-3.671626	-0.326026	-0.253175
C20	C	-3.788746	-0.545440	-0.203346
C21	C	-3.821097	-0.618420	-0.202975
C22	C	-4.001700	-0.664175	-0.255717
C23	C	-4.149976	-0.636939	-0.308819
C24	C	-4.117629	-0.563956	-0.309185
C25	C	-3.936992	-0.518209	-0.256445
C26	C	-4.234737	-0.783369	-0.259367
C27	C	-4.267089	-0.856357	-0.259015
C28	C	-3.903513	-0.849216	-0.250564
C29	C	-3.871171	-0.776231	-0.250925
C30	C	-4.036788	-0.743312	-0.255322
C31	C	-3.814068	-0.092664	-0.406088
C32	C	-3.855655	-0.092287	-0.499868
C33	C	-4.006876	-0.090827	-0.840607
C34	C	-3.771228	-0.086491	-0.799661
C35	C	-3.727972	-0.087172	-0.702169
C36	C	-3.931852	-0.091551	-0.671563
C37	C	-4.092525	-0.160559	-0.722471
C38	C	-4.134424	-0.160169	-0.820019
C39	C	-4.067542	-0.026706	-0.794503
C40	C	-4.019662	-0.026160	-0.696658
C41	C	-3.889464	-0.091963	-0.576026
C42	C	-4.049273	-0.090420	-0.936145
C43	C	-4.156678	0.033048	-0.254211
C44	C	-4.101484	0.110723	-0.254606
C45	C	-4.145421	-0.089717	-0.106083
C46	C	-4.083073	-0.090090	-0.012302
H47	H	-4.428281	-0.888969	-0.262307
F48	F	-4.360903	-0.168066	-0.856638
H49	H	-3.669684	-0.036640	-0.811821
H50	H	-4.296858	-0.674203	-0.351882
F51	F	-3.663304	-0.647399	-0.146449
H52	H	-3.569142	-0.425821	-0.249221
F53	F	-4.278223	-0.448784	-0.265548
F54	F	-3.867591	0.040558	-0.651457
F55	F	-3.706736	-0.146706	-0.841091
F56	F	-4.014227	-0.224025	-0.700755
H57	H	-3.641663	-0.508191	-0.160400
F58	F	-4.275423	-0.534973	-0.365702
H59	H	-3.980959	0.025581	-0.807657
F60	F	-3.635547	-0.148085	-0.681118
H61	H	-3.768679	-0.876024	-0.246979
H62	H	-3.510438	-0.293413	-0.249890
H63	H	-4.093806	-0.208710	-0.850598
F64	F	-3.660492	-0.733599	-0.246623
F65	F	-4.211444	-0.298129	-0.266278
H66	H	-3.606047	-0.037556	-0.666943
H67	H	-4.245155	-0.166259	-0.703581
H68	H	-4.369592	-0.756565	-0.262946
H69	H	-4.167029	-0.025301	-0.675306
F70	F	-4.292130	-0.030052	-0.829568
