data_functionalizedCrystal
_audit_creation_method	'MofGen! by Chris Wilmer'
_symmetry_space_group_name_H-M	'P1'
_symmetry_Int_Tables_number	1
_symmetry_cell_setting	triclinic
loop_
_symmetry_equiv_pos_as_xyz
  x,y,z
_cell_length_a	10.489741
_cell_length_b	19.188930
_cell_length_c	9.565339
_cell_angle_alpha	89.995116
_cell_angle_beta	89.999100
_cell_angle_gamma	83.841978
loop_
_atom_site_label
_atom_site_type_symbol
_atom_site_fract_x
_atom_site_fract_y
_atom_site_fract_z
O1	O	1.691850	0.098497	-0.116191
O2	O	1.320448	0.107743	-0.116215
O3	O	1.516867	0.001537	-0.116175
O4	O	1.495431	0.204704	-0.116231
O5	O	1.516852	0.001543	0.116345
O6	O	1.320432	0.107750	0.116305
O7	O	1.691835	0.098504	0.116329
Zn8	Zn	1.506131	0.103128	0.153235
Zn9	Zn	1.506152	0.103119	-0.153121
O10	O	1.495416	0.204711	0.116289
C11	C	1.272924	0.107048	0.000043
C12	C	1.131341	0.104959	0.000035
C13	C	1.064712	0.037383	0.000067
C14	C	0.971879	0.069302	-0.114584
C15	C	0.971898	0.069325	0.114663
C16	C	1.040373	0.136906	-0.114710
C17	C	1.040401	0.136919	0.114640
C18	C	0.947595	0.168887	-0.000039
C19	C	1.516165	-0.024476	0.000089
C20	C	1.514081	-0.101994	0.000101
C21	C	1.629334	-0.146146	0.000115
C22	C	1.627376	-0.218983	0.000092
C23	C	1.510159	-0.247665	0.000084
C24	C	1.394892	-0.203503	0.000062
C25	C	1.396853	-0.130668	0.000071
N26	N	1.420556	-0.356268	0.079209
N27	N	1.418701	-0.425459	0.079204
C28	C	1.504244	-0.467113	0.000055
N29	N	1.591732	-0.436964	-0.079071
N30	N	1.593590	-0.367767	-0.079059
C31	C	1.508020	-0.326642	0.000074
C32	C	1.617382	-0.590244	0.000043
C33	C	1.615419	-0.663081	0.000012
C34	C	1.382932	-0.647600	-0.000004
C35	C	1.384898	-0.574764	0.000013
C36	C	1.502126	-0.546090	0.000043
C37	C	1.739359	0.099199	0.000068
C38	C	1.880941	0.101288	0.000067
C39	C	1.496118	0.230723	0.000022
C40	C	1.498202	0.308242	0.000001
N41	N	1.506127	0.103134	0.362314
N42	N	1.506166	0.103108	-0.362200
C43	C	1.415262	0.152234	0.453499
C44	C	1.530443	0.166361	0.546681
C45	C	1.390995	0.089012	0.546688
C46	C	1.621366	0.117292	0.453444
C47	C	1.481842	0.039916	0.453443
C48	C	1.597107	0.054016	0.546583
H49	H	1.070569	0.165474	-0.211748
O50	O	0.880486	0.242551	-0.000113
H51	H	0.907907	0.270424	-0.095373
O52	O	1.272541	-0.083040	0.000080
H53	H	1.190700	-0.115217	0.000080
H54	H	1.551011	0.219812	0.587634
O55	O	0.931640	0.031422	-0.242950
H56	H	0.960423	0.058976	-0.338028
O57	O	1.080705	0.174764	0.243011
H58	H	1.053615	0.146608	0.338053
H59	H	1.293614	0.077080	0.587649
O60	O	0.931708	0.031448	0.243071
H61	H	0.979097	-0.023123	0.242833
O62	O	1.755766	-0.115217	0.000108
H63	H	1.835581	-0.158160	0.000094
O64	O	1.699020	-0.000997	0.600408
H65	H	1.750106	-0.027969	0.510695
H66	H	1.721231	-0.254938	0.000098
O67	O	1.750389	0.133188	0.399439
H68	H	1.749342	0.133102	0.283407
H69	H	1.299453	-0.226861	0.000052
O70	O	1.256505	-0.678529	-0.000012
H71	H	1.176689	-0.635587	-0.000022
O72	O	1.132130	-0.036212	-0.000061
H73	H	1.192344	-0.044309	0.095180
H74	H	1.712836	-0.566896	0.000061
O75	O	1.260589	-0.527136	0.000012
H76	H	1.255926	-0.493586	0.094783
O77	O	1.313569	0.207280	0.399338
H78	H	1.334062	0.259698	0.436681
H79	H	1.709275	-0.699030	0.000015
O80	O	1.454560	-0.030863	0.399132
H81	H	1.358872	-0.042455	0.436407
