data_functionalizedCrystal
_audit_creation_method	'MofGen! by Chris Wilmer'
_symmetry_space_group_name_H-M	'P1'
_symmetry_Int_Tables_number	1
_symmetry_cell_setting	triclinic
loop_
_symmetry_equiv_pos_as_xyz
  x,y,z
_cell_length_a	29.839134
_cell_length_b	29.839131
_cell_length_c	18.215398
_cell_angle_alpha	89.971652
_cell_angle_beta	89.968619
_cell_angle_gamma	90.034165
loop_
_atom_site_label
_atom_site_type_symbol
_atom_site_fract_x
_atom_site_fract_y
_atom_site_fract_z
Zn1	Zn	0.686751	-0.178956	-0.416335
Zn2	Zn	0.686674	-0.254082	-0.293262
Zn3	Zn	0.611624	-0.178957	-0.293257
Zn4	Zn	0.611582	-0.254050	-0.416262
O5	O	0.649158	-0.216511	-0.354779
O6	O	0.749608	-0.188934	-0.400042
O7	O	0.676704	-0.244130	-0.190277
O8	O	0.621640	-0.116090	-0.309611
O9	O	0.749551	-0.244129	-0.309621
O10	O	0.676836	-0.116089	-0.400037
O11	O	0.621566	-0.188937	-0.190273
O12	O	0.548752	-0.188906	-0.309540
O13	O	0.621567	-0.244075	-0.519256
O14	O	0.548720	-0.244076	-0.399912
O15	O	0.676794	-0.188904	-0.519309
O16	O	0.676662	-0.316945	-0.309550
O17	O	0.621492	-0.316922	-0.399917
C18	C	0.532435	-0.216488	-0.354718
C19	C	0.482501	-0.216489	-0.354709
C20	C	0.125918	-0.187742	-0.307819
C21	C	0.313591	-0.187729	-0.307774
O22	O	0.337858	-0.163249	-0.267837
N23	N	0.337056	-0.216496	-0.354746
C24	C	0.313599	-0.245266	-0.401737
O25	O	0.337864	-0.269731	-0.441694
C26	C	0.125927	-0.245277	-0.401785
C27	C	0.102465	-0.216511	-0.354804
C28	C	0.102455	-0.158978	-0.260842
C29	C	0.055539	-0.158983	-0.260851
C30	C	0.032087	-0.187752	-0.307836
C31	C	0.055549	-0.216516	-0.354813
C32	C	0.102472	-0.274044	-0.448778
C33	C	0.055551	-0.274043	-0.448787
C34	C	0.032088	-0.245278	-0.401806
C35	C	-0.014819	-0.245290	-0.401807
N36	N	-0.038284	-0.216523	-0.354834
C37	C	-0.014831	-0.187754	-0.307849
C38	C	0.412130	-0.245260	-0.401707
C39	C	0.459048	-0.245258	-0.401694
C40	C	0.459036	-0.187720	-0.307732
C41	C	0.412117	-0.187724	-0.307742
C42	C	0.388665	-0.216493	-0.354735
C43	C	-0.113357	-0.187767	-0.307871
C44	C	-0.160277	-0.187776	-0.307881
C45	C	-0.160260	-0.245313	-0.401846
C46	C	-0.113345	-0.245305	-0.401833
C47	C	-0.089894	-0.216529	-0.354842
O48	O	-0.039116	-0.269754	-0.441728
O49	O	-0.039104	-0.163286	-0.267909
C50	C	0.172833	-0.187737	-0.307810
C51	C	0.196296	-0.216500	-0.354786
C52	C	0.172843	-0.245269	-0.401771
C53	C	0.243213	-0.216498	-0.354773
C54	C	0.266666	-0.187729	-0.307788
C55	C	0.243201	-0.158962	-0.260816
C56	C	0.196286	-0.158968	-0.260825
C57	C	0.196308	-0.274036	-0.448744
C58	C	0.243223	-0.274029	-0.448731
C59	C	0.266676	-0.245260	-0.401745
C60	C	0.649077	-0.333234	-0.354742
C61	C	0.649083	-0.383168	-0.354751
C62	C	0.677937	-0.692811	-0.307793
C63	C	0.677992	-0.880484	-0.307822
O64	O	0.702461	-0.904749	-0.267869
N65	N	0.649251	-0.903953	-0.354834
C66	C	0.620495	-0.880501	-0.401846
O67	O	0.596054	-0.904770	-0.441839
C68	C	0.620443	-0.692829	-0.401821
C69	C	0.649183	-0.669363	-0.354800
C70	C	0.706675	-0.669345	-0.260777
C71	C	0.706659	-0.622429	-0.260768
C72	C	0.677905	-0.598980	-0.307774
C73	C	0.649167	-0.622447	-0.354791
C74	C	0.591690	-0.669378	-0.448836
C75	C	0.591680	-0.622457	-0.448827
C76	C	0.620420	-0.598990	-0.401806
C77	C	0.620397	-0.552083	-0.401788
N78	N	0.649139	-0.528614	-0.354776
C79	C	0.677893	-0.552063	-0.307769
C80	C	0.620525	-0.979032	-0.401855
C81	C	0.620537	-1.025950	-0.401861
C82	C	0.678035	-1.025930	-0.307837
C83	C	0.678020	-0.979011	-0.307829
C84	C	0.649266	-0.955563	-0.354843
C85	C	0.677857	-0.453537	-0.307752
C86	C	0.677837	-0.406617	-0.307745
C87	C	0.620341	-0.406642	-0.401770
C88	C	0.620359	-0.453557	-0.401775
C89	C	0.649121	-0.477004	-0.354764
O90	O	0.595945	-0.527790	-0.441726
O91	O	0.702338	-0.527786	-0.267794
C92	C	0.677953	-0.739727	-0.307803
C93	C	0.649215	-0.763193	-0.354819
C94	C	0.620460	-0.739745	-0.401826
C95	C	0.649227	-0.810111	-0.354825
C96	C	0.677981	-0.833560	-0.307818
C97	C	0.706723	-0.810091	-0.260806
C98	C	0.706707	-0.763175	-0.260796
C99	C	0.591719	-0.763214	-0.448838
C100	C	0.591737	-0.810129	-0.448843
C101	C	0.620491	-0.833578	-0.401837
C102	C	0.766336	-0.216535	-0.354840
C103	C	0.816270	-0.216545	-0.354867
C104	C	0.649184	-0.216486	-0.546732
C105	C	0.649196	-0.216475	-0.628531
C106	C	0.649251	-0.099333	-0.354832
C107	C	0.649291	-0.049399	-0.354854
C108	C	0.677927	-0.245159	-0.893595
C109	C	0.677920	-0.245174	-0.816736
C110	C	0.620499	-0.187704	-0.816715
C111	C	0.620503	-0.187691	-0.893573
C112	C	0.649220	-0.216418	-0.932010
C113	C	0.649208	-0.216446	-0.778294
C114	C	0.649201	-0.216463	-0.694961
C115	C	0.649227	-0.216402	-1.015350
C116	C	0.649157	-0.216505	-0.163573
C117	C	0.649233	-0.216389	-0.081774
H118	H	0.036459	-0.297469	-0.487058
H119	H	0.568284	-0.688477	-0.487122
F120	F	0.030575	-0.128363	-0.210853
H121	H	0.597119	-0.164315	-0.785410
F122	F	-0.185245	-0.157159	-0.257875
H123	H	0.568329	-0.829232	-0.487132
F124	F	0.737298	-0.738206	-0.210752
F125	F	0.561076	-0.597505	-0.498869
H126	H	0.568304	-0.744126	-0.487118
H127	H	0.597125	-0.164286	-0.924851
H128	H	-0.094269	-0.164333	-0.269610
H129	H	0.701309	-0.268550	-0.924889
F130	F	-0.185229	-0.275934	-0.451840
H131	H	0.596958	-0.472665	-0.440066
F132	F	0.127433	-0.304661	-0.498783
H133	H	0.701296	-0.268578	-0.785462
H134	H	0.121545	-0.135548	-0.222581
F135	F	0.589742	-0.381677	-0.451798
H136	H	0.597109	-0.959944	-0.440141
F137	F	0.387151	-0.157108	-0.257740
F138	F	0.737324	-0.835055	-0.210776
H139	H	0.478147	-0.268687	-0.439943
F140	F	0.484004	-0.157102	-0.257726
F141	F	0.171354	-0.304658	-0.498754
H142	H	0.393040	-0.268688	-0.439976
H143	H	-0.094241	-0.268732	-0.440082
H144	H	0.177187	-0.135543	-0.222569
H145	H	0.262322	-0.297458	-0.486987
F146	F	0.268170	-0.128346	-0.210808
F147	F	0.708427	-0.381645	-0.257696
H148	H	0.730063	-0.603325	-0.222482
F149	F	0.708468	-0.478484	-0.257717
F150	F	0.737283	-0.694293	-0.210743
H151	H	0.701423	-0.959907	-0.269541
H152	H	0.701448	-1.045029	-0.269563
H153	H	0.597130	-1.045052	-0.440143
