data_functionalizedCrystal
_audit_creation_method	'MofGen! by Chris Wilmer'
_symmetry_space_group_name_H-M	'P1'
_symmetry_Int_Tables_number	1
_symmetry_cell_setting	triclinic
loop_
_symmetry_equiv_pos_as_xyz
  x,y,z
_cell_length_a	20.919331
_cell_length_b	17.917603
_cell_length_c	20.919292
_cell_angle_alpha	124.653050
_cell_angle_beta	90.002125
_cell_angle_gamma	64.987548
loop_
_atom_site_label
_atom_site_type_symbol
_atom_site_fract_x
_atom_site_fract_y
_atom_site_fract_z
Zr1	Zr	0.653119	0.818624	0.079988
O2	O	0.563231	0.974649	0.193258
O3	O	0.676232	0.662598	0.041285
O4	O	0.689982	0.818622	0.180182
O5	O	0.543688	0.818627	-0.050676
O6	O	0.795020	0.818621	0.174394
O7	O	0.549481	0.818625	0.054361
O8	O	0.770424	0.539523	-0.074066
O9	O	0.568285	1.097726	0.197784
O10	O	0.769846	0.726774	0.025268
O11	O	0.687135	0.726776	-0.048801
O12	O	0.703324	0.910474	0.114731
O13	O	0.620612	0.910476	0.040663
Zr14	Zr	0.811405	0.818627	-0.096765
Zr15	Zr	0.820643	0.818623	0.070757
Zr16	Zr	0.643881	0.818627	-0.087534
Zr17	Zr	0.661180	1.014917	0.087208
Zr18	Zr	0.803344	0.622334	-0.103985
O19	O	0.788292	0.974653	-0.058063
O20	O	0.801427	0.974648	0.180132
O21	O	0.550095	0.974654	-0.044937
O22	O	0.901294	0.662602	-0.210035
O23	O	0.914429	0.662597	0.028160
O24	O	0.663097	0.662603	-0.196910
O25	O	0.920836	0.818624	0.033899
O26	O	0.774542	0.818629	-0.196959
O27	O	0.669504	0.818629	-0.191171
O28	O	0.915044	0.818626	-0.071138
O29	O	0.701443	1.097725	0.190447
O30	O	0.763081	0.539526	-0.207224
O31	O	0.896240	0.539525	-0.214561
O32	O	0.903583	0.539523	-0.081404
O33	O	0.560942	1.097728	0.064627
O34	O	0.694100	1.097728	0.057289
O35	O	0.761201	0.726777	-0.131509
O36	O	0.843912	0.726775	-0.057440
O37	O	0.777389	0.910475	0.032024
O38	O	0.694678	0.910477	-0.042045
C39	C	0.722180	0.573093	-0.017419
C40	C	0.718758	0.489761	-0.020484
C41	C	0.712506	0.337192	-0.026081
C42	C	0.752016	0.300054	0.009302
C43	C	0.748538	0.215159	0.006188
C44	C	0.715983	0.422095	-0.022967
C45	C	0.522716	0.818626	0.003158
C46	C	0.451598	0.818626	0.007077
C47	C	0.414994	0.818625	-0.048947
C48	C	0.348169	0.818630	-0.045257
C49	C	0.317953	0.818630	0.014455
C50	C	0.354561	0.818635	0.070485
C51	C	0.421381	0.818637	0.066797
C52	C	0.116355	0.818631	0.028488
C53	C	0.049531	0.818626	0.032170
C54	C	0.043143	0.818623	-0.083571
C55	C	0.109967	0.818619	-0.087257
C56	C	0.146567	0.818629	-0.031224
C57	C	0.249648	0.818633	0.018228
C58	C	0.214868	0.818635	-0.034993
C59	C	0.941808	0.818625	-0.019935
C60	C	1.012926	0.818624	-0.023854
C61	C	0.743818	0.818621	0.201156
C62	C	0.747739	0.818620	0.272274
C63	C	0.742345	1.064158	0.000642
C64	C	0.745766	1.147489	0.003707
C65	C	0.772817	0.818627	0.674348
C66	C	0.769129	0.818631	0.607527
C67	C	0.709420	0.818626	0.577301
C68	C	0.653392	0.818627	0.613906
C69	C	0.657077	0.818630	0.680729
C70	C	0.695396	0.818623	0.375701
C71	C	0.691716	0.818617	0.308871
C72	C	0.807453	0.818624	0.302498
C73	C	0.811136	0.818621	0.369320
C74	C	0.755105	0.818627	0.405921
C75	C	0.705651	0.818627	0.508998
C76	C	0.758872	0.818633	0.474227
C77	C	0.720709	0.818628	0.782066
C78	C	0.716793	0.818624	0.710946
C79	C	0.931726	0.573092	-0.028966
C80	C	0.999422	0.489760	-0.035949
C81	C	0.710624	0.573097	-0.226964
C82	C	0.703281	0.489767	-0.301146
C83	C	0.920170	0.573096	-0.238510
C84	C	0.983945	0.489766	-0.316611
C85	C	0.544354	1.064154	0.221733
C86	C	0.480579	1.147485	0.299834
C87	C	0.532798	1.064159	0.012188
C88	C	0.465102	1.147490	0.019172
C89	C	0.753900	1.064154	0.210187
C90	C	0.761244	1.147484	0.284369
C91	C	0.992552	0.450626	0.003951
C92	C	1.056154	0.372338	-0.002595
C93	C	1.126626	0.333180	-0.049045
C94	C	1.133495	0.372322	-0.088946
C95	C	1.069894	0.450614	-0.082395
C96	C	0.738493	0.450635	-0.379163
C97	C	0.731590	0.372349	-0.448871
C98	C	0.689478	0.333190	-0.440561
C99	C	0.654262	0.372330	-0.362536
C100	C	0.661161	0.450620	-0.292830
C101	C	1.057075	0.450632	-0.314626
C102	C	1.117005	0.372346	-0.388004
C103	C	1.103803	0.333189	-0.463367
C104	C	1.030665	0.372330	-0.465350
C105	C	0.970737	0.450621	-0.391973
C106	C	0.407449	1.186628	0.297849
C107	C	0.347520	1.264939	0.371228
C108	C	0.360723	1.304100	0.446591
C109	C	0.433861	1.264954	0.448574
C110	C	0.493788	1.186649	0.375196
C111	C	0.471973	1.186633	-0.020720
C112	C	0.408373	1.264943	-0.014156
C113	C	0.337901	1.304103	0.032297
C114	C	0.331031	1.264958	0.072195
C115	C	0.394632	1.186655	0.065634
C116	C	0.803361	1.186617	0.276033
C117	C	0.810275	1.264904	0.345728
C118	C	0.775068	1.304062	0.423758
C119	C	0.732949	1.264920	0.432092
C120	C	0.726040	1.186629	0.362398
H121	H	0.676070	0.305231	-0.058708
Cl122	Cl	1.179150	0.234763	-0.555607
H123	H	0.329952	0.818641	0.119108
H124	H	0.013336	0.818617	-0.129189
Cl125	Cl	1.047501	0.323143	0.047568
Cl126	Cl	1.206576	0.234752	-0.057274
H127	H	0.772784	0.482509	-0.385944
Cl128	Cl	0.011550	0.818623	0.107243
Cl129	Cl	0.255584	1.314131	0.368716
Cl130	Cl	0.808275	0.349400	0.059682
Cl131	Cl	0.886199	0.818626	0.407317
Cl132	Cl	0.147954	0.818617	-0.162324
Cl133	Cl	1.073693	0.499849	-0.219894
Cl134	Cl	0.452975	0.818617	-0.124022
Cl135	Cl	0.680814	0.234765	-0.528202
H136	H	1.176553	0.340484	-0.386375
H137	H	0.760272	0.340490	-0.512395
Cl138	Cl	0.302150	0.818630	-0.115687
H139	H	0.286119	1.367863	0.037632
H140	H	0.611456	0.818629	0.710527
H141	H	0.451183	0.818640	0.112419
H142	H	0.273645	1.296854	0.110016
H143	H	1.019926	0.340437	-0.526720
H144	H	0.691740	1.154776	0.369197
Cl145	Cl	0.601326	0.323088	-0.352104
H146	H	0.911192	0.482473	-0.393601
H147	H	0.389027	1.154787	0.098118
H148	H	0.146151	0.818637	0.074111
Cl149	Cl	0.585722	1.137443	0.377706
H150	H	0.239470	0.818640	-0.083608
Cl151	Cl	0.211660	0.818629	0.093291
Cl152	Cl	0.616892	0.499799	-0.194755
Cl153	Cl	0.390832	1.137413	0.203117
Cl154	Cl	0.847886	0.818626	0.712335
H155	H	0.814748	0.818634	0.577730
H156	H	0.311919	1.367860	0.506334
Cl157	Cl	0.877886	0.818622	0.256486
H158	H	0.643091	0.818612	0.284265
H159	H	0.649774	0.818626	0.405495
Cl160	Cl	0.450446	1.314192	0.543323
H161	H	0.604772	0.818629	0.589295
H162	H	0.529349	1.154754	-0.058552
Cl163	Cl	0.417025	1.314133	-0.064322
H164	H	0.807485	0.818643	0.498841
H165	H	0.657036	0.818620	0.484382
H166	H	0.832032	1.154748	0.212503
Cl167	Cl	0.903966	0.499841	0.062355
H168	H	0.844571	1.296765	0.338926
Cl169	Cl	1.078543	0.499795	-0.132569
Cl170	Cl	1.222094	0.323079	-0.147342
Cl171	Cl	0.783759	1.402490	0.511367
H172	H	0.704286	1.296814	0.495634
