data_functionalizedCrystal
_audit_creation_method	'MofGen! by Chris Wilmer'
_symmetry_space_group_name_H-M	'P1'
_symmetry_Int_Tables_number	1
_symmetry_cell_setting	triclinic
loop_
_symmetry_equiv_pos_as_xyz
  x,y,z
_cell_length_a	23.096457
_cell_length_b	19.902436
_cell_length_c	19.902436
_cell_angle_alpha	90.004631
_cell_angle_beta	59.997401
_cell_angle_gamma	59.999713
loop_
_atom_site_label
_atom_site_type_symbol
_atom_site_fract_x
_atom_site_fract_y
_atom_site_fract_z
Zr1	Zr	0.633672	-0.088097	0.647329
O2	O	0.754480	-0.195392	0.540028
O3	O	0.512880	-0.055209	0.680220
O4	O	0.633680	-0.195386	0.680207
O5	O	0.633669	0.055364	0.540053
O6	O	0.633669	-0.195377	0.790786
O7	O	0.633680	-0.055214	0.540040
O8	O	0.417579	0.055374	0.790809
O9	O	0.849758	-0.195387	0.540030
O10	O	0.562550	-0.041171	0.776774
O11	O	0.562550	0.041346	0.694260
O12	O	0.704776	-0.123695	0.694245
O13	O	0.704776	-0.041178	0.611731
Zr14	Zr	0.633637	0.088278	0.823710
Zr15	Zr	0.633654	-0.088082	0.823689
Zr16	Zr	0.633654	0.088264	0.647350
Zr17	Zr	0.785630	-0.088089	0.647333
Zr18	Zr	0.481679	0.088271	0.823705
O19	O	0.754429	0.055391	0.790819
O20	O	0.754455	-0.195371	0.790789
O21	O	0.754455	0.055370	0.540057
O22	O	0.512829	0.195573	0.931011
O23	O	0.512854	-0.055189	0.930982
O24	O	0.512854	0.195553	0.680249
O25	O	0.633640	-0.055183	0.930985
O26	O	0.633629	0.195568	0.790832
O27	O	0.633640	0.195559	0.680253
O28	O	0.633629	0.055396	0.930998
O29	O	0.849744	-0.195376	0.680213
O30	O	0.417565	0.195557	0.790825
O31	O	0.417551	0.195569	0.931008
O32	O	0.417565	0.055385	0.930992
O33	O	0.849744	-0.055204	0.540047
O34	O	0.849729	-0.055193	0.680230
O35	O	0.562533	0.123876	0.776794
O36	O	0.562533	0.041359	0.859308
O37	O	0.704759	-0.041164	0.776778
O38	O	0.704759	0.041353	0.694264
C39	C	0.443579	0.000081	0.735514
C40	C	0.379069	0.000078	0.735512
C41	C	0.633677	0.000073	0.514919
C42	C	0.633684	0.000067	0.440050
C43	C	0.633632	0.220691	0.735545
C44	C	0.633624	0.295560	0.735554
C45	C	0.348768	-0.042998	0.778578
C46	C	0.288146	-0.042991	0.778586
C47	C	0.257838	0.000081	0.735512
C48	C	0.288143	0.043166	0.692444
C49	C	0.348759	0.043165	0.692444
N50	N	0.195451	-0.005898	0.665408
N51	N	0.137870	-0.005901	0.665410
C52	C	0.075206	0.000088	0.735511
N53	N	0.072307	0.006066	0.805609
N54	N	0.129895	0.006065	0.805606
C55	C	0.192111	0.000087	0.735508
C56	C	-0.020829	-0.042983	0.778590
C57	C	-0.081456	-0.042970	0.778600
C58	C	-0.081451	0.043182	0.692450
C59	C	-0.020831	0.043175	0.692448
C60	C	0.009479	0.000088	0.735516
C61	C	0.823730	0.000100	0.735525
C62	C	0.888240	0.000103	0.735527
C63	C	0.633677	-0.220509	0.735493
C64	C	0.633684	-0.295379	0.735485
C65	C	0.633665	0.567562	0.735508
C66	C	0.543946	0.591129	0.787321
C67	C	0.543889	0.513291	0.787613
C68	C	0.633644	0.432619	0.735531
C69	C	0.678194	0.435041	0.773492
C70	C	0.677620	0.513269	0.773871
C71	C	0.679476	0.512260	0.645712
C72	C	0.677790	0.435339	0.645854
C73	C	0.633637	0.356352	0.735543
C74	C	0.633674	0.643828	0.735499
C75	C	0.633644	0.000099	0.168048
C76	C	0.723363	-0.051709	0.144477
C77	C	0.723420	-0.051997	0.222315
C78	C	0.633665	0.000083	0.302991
C79	C	0.589115	-0.037882	0.300574
C80	C	0.589688	-0.038265	0.222346
C81	C	0.587833	0.089895	0.223349
C82	C	0.589519	0.089757	0.300270
C83	C	0.633672	0.000075	0.379258
C84	C	0.633635	0.000104	0.091783
C85	C	0.633632	0.000109	0.956119
C86	C	0.633624	0.000115	1.030989
C87	C	0.443557	0.000099	0.956114
C88	C	0.379039	0.000102	1.030982
C89	C	0.443557	0.220681	0.735540
C90	C	0.379039	0.295548	0.735547
C91	C	0.443534	0.220699	0.956140
C92	C	0.379009	0.295572	1.031016
C93	C	0.823775	-0.220518	0.514899
C94	C	0.888300	-0.295390	0.440023
C95	C	0.823752	0.000082	0.514925
C96	C	0.888270	0.000079	0.440057
C97	C	0.823752	-0.220500	0.735499
C98	C	0.888270	-0.295366	0.735492
C99	C	0.348750	-0.042984	1.023059
C100	C	0.288137	-0.042997	1.093398
C101	C	0.257811	0.000080	1.171660
C102	C	0.288106	0.043168	1.179581
C103	C	0.348722	0.043176	1.109242
C104	C	0.348732	0.373793	0.778631
C105	C	0.288120	0.444145	0.778635
C106	C	0.257811	0.436250	0.735558
C107	C	0.288124	0.357996	0.692468
C108	C	0.348739	0.287646	0.692460
C109	C	0.348707	0.287660	1.109258
C110	C	0.288088	0.358004	1.179619
C111	C	0.257767	0.436259	1.171737
C112	C	0.288074	0.444170	1.093487
C113	C	0.348697	0.373826	1.023127
C114	C	0.918609	-0.287478	0.361781
C115	C	0.979247	-0.357822	0.291420
C116	C	1.009572	-0.436077	0.299302
C117	C	0.979260	-0.443988	0.377552
C118	C	0.918627	-0.373645	0.447911
C119	C	0.918566	0.043158	0.447980
C120	C	0.979195	0.043152	0.377641
C121	C	1.009523	0.000072	0.299379
C122	C	0.979225	-0.043012	0.291458
C123	C	0.918601	-0.043010	0.361797
C124	C	0.918559	-0.287444	0.778578
C125	C	0.979172	-0.357783	0.778587
C126	C	1.009499	-0.436042	0.735506
C127	C	0.979203	-0.443962	0.692419
C128	C	0.918587	-0.373625	0.692415
H129	H	0.373443	-0.078079	0.813648
O130	O	0.769725	-0.018276	0.220768
H131	H	0.728374	0.037232	0.275848
O132	O	0.381361	0.382364	0.938738
H133	H	0.350078	0.448599	0.945086
O134	O	1.074909	0.000080	0.223520
H135	H	1.090917	-0.037116	0.167764
O136	O	1.011844	-0.349226	0.825057
H137	H	1.000195	-0.379191	0.872681
H138	H	1.058857	-0.493309	0.735516
O139	O	1.011964	-0.528394	0.386049
H140	H	1.059209	-0.575971	0.323975
H141	H	1.003928	-0.078086	0.227728
O142	O	0.770008	-0.018153	0.092601
H143	H	0.833071	-0.055699	0.076782
O144	O	0.255418	0.528542	0.825127
H145	H	0.286667	0.522206	0.855093
O146	O	0.885917	-0.203082	0.353260
H147	H	0.819050	-0.168975	0.383235
O148	O	0.770023	-0.139735	0.219957
H149	H	0.740050	-0.168698	0.218467
H150	H	0.893950	-0.380097	0.511617
H151	H	0.263437	0.351579	0.657395
H152	H	0.208404	0.493530	1.229035
H153	H	0.893936	-0.078088	0.355334
H154	H	0.645305	0.435712	0.617496
O155	O	0.255460	-0.089462	0.825028
H156	H	0.286725	-0.119427	0.854970
O157	O	0.885847	-0.203040	0.825057
H158	H	0.917092	-0.209362	0.855025
O159	O	0.255364	0.528576	1.084991
H160	H	0.227749	0.535728	1.050835
O161	O	1.011856	0.089633	0.386199
H162	H	1.000229	0.137236	0.356207
H163	H	0.508709	0.515078	0.853853
H164	H	0.893877	0.078244	0.511698
H165	H	1.003917	-0.351365	0.227712
H166	H	1.003905	-0.507691	0.657344
H167	H	0.893932	-0.380087	0.657326
H168	H	0.508902	0.631044	0.853163
O169	O	1.074978	-0.511946	0.223411
H170	H	1.090953	-0.493289	0.167683
O171	O	0.381414	0.203260	1.117769
H172	H	0.350160	0.209590	1.184002
H173	H	0.263463	0.078236	0.657374
H174	H	0.373430	0.078243	0.657373
H175	H	0.758409	-0.117549	0.104559
H176	H	0.263417	0.351548	1.243327
H177	H	0.621356	-0.104342	0.185796
O178	O	0.192418	0.512130	0.735584
H179	H	0.176431	0.567863	0.772794
H180	H	0.743446	0.493922	0.738568
O181	O	0.497543	0.514745	0.753987
H182	H	0.444847	0.514449	0.801517
O183	O	0.381416	0.203255	0.645991
H184	H	0.428662	0.155655	0.653212
O185	O	0.011867	-0.089444	0.825043
H186	H	-0.039019	-0.064540	0.891255
O187	O	-0.114139	-0.089437	0.825047
H188	H	-0.082869	-0.119404	0.854984
O189	O	0.637201	0.432997	0.860189
H190	H	0.669251	0.434734	0.886371
H191	H	-0.106127	0.078252	0.657379
H192	H	0.003843	0.078249	0.657376
H193	H	0.616538	0.121608	0.187041
H194	H	0.508734	0.630292	0.761990
H195	H	0.645952	0.549820	0.839949
O196	O	0.765596	0.359765	0.725950
H197	H	0.778240	0.319733	0.674636
O198	O	0.641447	0.560335	0.603703
H199	H	0.589464	0.624189	0.646364
H200	H	0.743273	0.377880	0.604002
H201	H	0.745570	0.492335	0.606927
H202	H	0.523863	-0.002970	0.241696
H203	H	0.523121	-0.001962	0.357390
O204	O	0.381456	-0.089461	0.938655
H205	H	0.428694	-0.082221	0.891066
H206	H	0.622002	0.118118	0.299897
O207	O	0.630110	-0.124581	0.302607
H208	H	0.682205	-0.140788	0.305336
H209	H	0.524037	0.131607	0.357732
H210	H	0.521741	0.128679	0.243269
H211	H	0.208453	0.000067	1.228927
O212	O	0.255461	-0.089464	1.084846
H213	H	0.286725	-0.119401	1.018607
H214	H	0.373376	0.078267	1.115705
O215	O	0.255393	0.089633	1.263992
H216	H	0.188522	0.137240	1.298095
O217	O	0.381420	0.382319	0.825092
H218	H	0.350161	0.448553	0.855040
