data_functionalizedCrystal
_audit_creation_method	'MofGen! by Chris Wilmer'
_symmetry_space_group_name_H-M	'P1'
_symmetry_Int_Tables_number	1
_symmetry_cell_setting	triclinic
loop_
_symmetry_equiv_pos_as_xyz
  x,y,z
_cell_length_a	19.805407
_cell_length_b	18.101395
_cell_length_c	19.805407
_cell_angle_alpha	90.010856
_cell_angle_beta	90.009221
_cell_angle_gamma	90.031104
loop_
_atom_site_label
_atom_site_type_symbol
_atom_site_fract_x
_atom_site_fract_y
_atom_site_fract_z
Zn1	Zn	1.034644	-0.294951	0.382731
Zn2	Zn	1.534644	0.205049	0.882731
Zn3	Zn	1.034570	-0.418764	0.269548
Zn4	Zn	1.534570	0.081236	0.769548
Zn5	Zn	0.921480	-0.294941	0.269556
Zn6	Zn	1.421480	0.205059	0.769556
Zn7	Zn	0.921413	-0.418755	0.382694
Zn8	Zn	1.421413	0.081245	0.882694
O9	O	0.978027	-0.356853	0.326132
O10	O	1.478027	0.143147	0.826132
O11	O	1.129351	-0.311383	0.367729
O12	O	1.629351	0.188617	0.867729
O13	O	1.019565	-0.402338	0.174832
O14	O	1.519565	0.097662	0.674832
O15	O	0.936550	-0.191309	0.284587
O16	O	1.436550	0.308691	0.784587
O17	O	1.129297	-0.402348	0.284574
O18	O	1.629297	0.097652	0.784574
O19	O	1.019691	-0.191317	0.367737
O20	O	1.519691	0.308683	0.867737
O21	O	0.936478	-0.311365	0.174838
O22	O	1.436478	0.188635	0.674838
O23	O	0.826754	-0.311357	0.284552
O24	O	1.326754	0.188643	0.784552
O25	O	0.936437	-0.402333	0.477416
O26	O	1.436437	0.097667	0.977416
O27	O	0.826706	-0.402323	0.367674
O28	O	1.326706	0.097677	0.867674
O29	O	1.019627	-0.311375	0.477443
O30	O	1.519627	0.188625	0.977443
O31	O	1.019501	-0.522396	0.284538
O32	O	1.519501	-0.022396	0.784538
O33	O	0.936365	-0.522389	0.367667
O34	O	1.436365	-0.022389	0.867667
C35	C	0.802171	-0.356839	0.326110
C36	C	1.302171	0.143161	0.826110
C37	C	0.726939	-0.356850	0.326117
C38	C	1.226939	0.143150	0.826117
C39	C	0.691587	-0.404288	0.369329
C40	C	1.191587	0.095712	0.869329
C41	C	0.620899	-0.404289	0.369338
C42	C	1.120899	0.095711	0.869338
C43	C	0.585563	-0.356856	0.326132
C44	C	1.085563	0.143144	0.826132
C45	C	0.620920	-0.309414	0.282918
C46	C	1.120920	0.190586	0.782918
C47	C	0.691607	-0.309409	0.282913
C48	C	1.191607	0.190591	0.782913
C49	C	0.335847	-0.309430	0.282941
C50	C	0.835847	0.190570	0.782941
C51	C	0.265155	-0.309440	0.282948
C52	C	0.765155	0.190560	0.782948
C53	C	0.265138	-0.404310	0.369366
C54	C	0.765138	0.095690	0.869366
C55	C	0.335825	-0.404305	0.369361
C56	C	0.835825	0.095695	0.869361
C57	C	0.371176	-0.356860	0.326150
C58	C	0.871176	0.143140	0.826150
C59	C	0.447824	-0.356858	0.326141
C60	C	0.947824	0.143142	0.826141
C61	C	0.508916	-0.356861	0.326137
C62	C	1.008916	0.143139	0.826137
C63	C	0.977936	-0.549263	0.326112
C64	C	1.477936	-0.049263	0.826112
C65	C	0.977960	-0.631577	0.326126
C66	C	1.477960	-0.131577	0.826126
C67	C	0.978108	-0.930668	0.326163
C68	C	1.478108	-0.430668	0.826163
C69	C	0.925922	-0.899370	0.378595
C70	C	1.425922	-0.399370	0.878595
C71	C	0.925674	-0.813752	0.378431
C72	C	1.425674	-0.313752	0.878431
C73	C	0.978034	-0.782286	0.326145
C74	C	1.478034	-0.282286	0.826145
C75	C	0.958736	-0.813415	0.254811
C76	C	1.458736	-0.313415	0.754811
C77	C	0.958400	-0.899060	0.255125
C78	C	1.458400	-0.399060	0.755125
C79	C	1.049706	-0.899018	0.344438
C80	C	1.549706	-0.399018	0.844438
C81	C	1.049285	-0.813367	0.346002
C82	C	1.549285	-0.313367	0.846002
C83	C	0.977994	-0.698426	0.326131
C84	C	1.477994	-0.198426	0.826131
C85	C	0.978147	-1.014528	0.326172
C86	C	1.478147	-0.514528	0.826172
C87	C	1.154570	-0.356867	0.326155
C88	C	1.654570	0.143133	0.826155
C89	C	1.229802	-0.356874	0.326164
C90	C	1.729802	0.143126	0.826164
C91	C	0.978033	-0.356854	0.502675
C92	C	1.478033	0.143146	1.002675
C93	C	0.978036	-0.356855	0.577907
C94	C	1.478036	0.143145	1.077907
C95	C	0.978136	-0.163691	0.326167
C96	C	1.478136	0.336309	0.826167
C97	C	0.978183	-0.081377	0.326182
C98	C	1.478183	0.418623	0.826182
C99	C	1.021347	-0.309500	0.613266
C100	C	1.521347	0.190500	1.113266
C101	C	1.021342	-0.309498	0.683955
C102	C	1.521342	0.190502	1.183955
C103	C	0.978027	-0.356855	0.719282
C104	C	1.478027	0.143145	1.219282
C105	C	0.934710	-0.404211	0.683918
C106	C	1.434710	0.095789	1.183918
C107	C	0.934713	-0.404209	0.613231
C108	C	1.434713	0.095791	1.113231
C109	C	0.934697	-0.404220	0.968992
C110	C	1.434697	0.095780	1.468992
C111	C	0.934699	-0.404220	1.039684
C112	C	1.434699	0.095780	1.539684
C113	C	1.021325	-0.309508	1.039715
C114	C	1.521325	0.190492	1.539715
C115	C	1.021328	-0.309506	0.969028
C116	C	1.521328	0.190494	1.469028
C117	C	0.978009	-0.356860	0.933670
C118	C	1.478009	0.143140	1.433670
C119	C	0.978015	-0.356861	0.857021
C120	C	1.478015	0.143139	1.357021
C121	C	0.978024	-0.356858	0.795930
C122	C	1.478024	0.143142	1.295930
C123	C	0.978014	-0.356866	1.150276
C124	C	1.478014	0.143134	1.650276
C125	C	0.978008	-0.356861	1.075044
C126	C	1.478008	0.143139	1.575044
H127	H	0.364592	-0.442932	0.404541
H128	H	0.864592	0.057068	0.904541
H129	H	0.872604	-0.793325	0.366326
H130	H	1.372604	-0.293325	0.866326
H131	H	0.906954	-0.792025	0.239053
H132	H	1.406954	-0.292025	0.739053
N133	N	0.582807	-0.258267	0.236307
N134	N	1.082807	0.241733	0.736307
H135	H	0.553491	-0.223998	0.263861
H136	H	1.053491	0.276002	0.763861
H137	H	0.553506	-0.288382	0.204910
H138	H	1.053506	0.211618	0.704910
H139	H	0.592118	-0.442918	0.404525
H140	H	1.092118	0.057082	0.904525
N141	N	0.227005	-0.455477	0.415977
N142	N	0.727005	0.044523	0.915977
H143	H	0.239326	-0.444061	0.464356
H144	H	0.739326	0.055939	0.964356
H145	H	0.239295	-0.508350	0.405317
H146	H	0.739295	-0.008350	0.905317
N147	N	1.073031	-0.927580	0.412161
N148	N	1.573031	-0.427580	0.912161
H149	H	1.039909	-0.912018	0.448224
H150	H	1.539909	-0.412018	0.948224
H151	H	1.119068	-0.906573	0.422818
H152	H	1.619068	-0.406573	0.922818
N153	N	1.068569	-0.786419	0.415540
N154	N	1.568569	-0.286419	0.915540
H155	H	1.031313	-0.754209	0.434108
H156	H	1.531313	-0.254209	0.934108
H157	H	1.111742	-0.756872	0.412634
H158	H	1.611742	-0.256872	0.912634
N159	N	1.068065	-0.258430	0.722090
N160	N	1.568065	0.241570	1.222090
H161	H	1.061490	-0.265613	0.772231
H162	H	1.561490	0.234387	1.272231
H163	H	1.057567	-0.205537	0.709742
H164	H	1.557567	0.294463	1.209742
N165	N	1.068050	-0.258431	0.930928
N166	N	1.568050	0.241569	1.430928
H167	H	1.057567	-0.205517	0.943236
H168	H	1.557567	0.294483	1.443236
H169	H	1.061460	-0.265679	0.880795
H170	H	1.561460	0.234321	1.380795
N171	N	1.006539	-0.926491	0.201594
N172	N	1.506539	-0.426491	0.701594
H173	H	1.006691	-0.982286	0.201375
H174	H	1.506691	-0.482286	0.701375
H175	H	1.053515	-0.907735	0.211641
H176	H	1.553515	-0.407735	0.711641
H177	H	0.899437	-0.442763	0.584442
H178	H	1.399437	0.057237	1.084442
H179	H	0.899440	-0.442768	0.712688
H180	H	1.399440	0.057232	1.212688
H181	H	1.090221	-0.791944	0.310597
H182	H	1.590221	-0.291944	0.810597
N183	N	0.373979	-0.258271	0.236335
N184	N	0.873979	0.241729	0.736335
H185	H	0.403327	-0.223997	0.263897
H186	H	0.903327	0.276003	0.763897
H187	H	0.340831	-0.228272	0.208969
H188	H	0.840831	0.271728	0.708969
N189	N	1.068048	-0.258430	1.077851
N190	N	1.568048	0.241570	1.577851
H191	H	1.061474	-0.265612	1.127992
H192	H	1.561474	0.234388	1.627992
H193	H	1.057547	-0.205538	1.065501
H194	H	1.557547	0.294462	1.565501
N195	N	1.068074	-0.258427	0.575169
N196	N	1.568074	0.241573	1.075169
H197	H	1.099425	-0.288530	0.545847
H198	H	1.599425	0.211470	1.045847
H199	H	1.095464	-0.228442	0.608344
H200	H	1.595464	0.271558	1.108344
N201	N	0.887979	-0.455300	1.077790
N202	N	1.387979	0.044700	1.577790
H203	H	0.860535	-0.485297	1.044665
H204	H	1.360535	0.014703	1.544665
H205	H	0.856677	-0.425149	1.107120
H206	H	1.356677	0.074851	1.607120
H207	H	0.720352	-0.442915	0.404510
H208	H	1.220352	0.057085	0.904510
N209	N	1.101211	-0.925819	0.293856
N210	N	1.601211	-0.425819	0.793856
H211	H	1.078315	-0.958304	0.259268
H212	H	1.578315	-0.458304	0.759268
H213	H	1.137313	-0.955045	0.317991
H214	H	1.637313	-0.455045	0.817991
H215	H	0.899434	-0.442789	0.940212
H216	H	1.399434	0.057211	1.440212
H217	H	0.720390	-0.270777	0.247729
H218	H	1.220390	0.229223	0.747729
N219	N	0.227040	-0.258278	0.236345
N220	N	0.727040	0.241722	0.736345
H221	H	0.260160	-0.228220	0.208971
H222	H	0.760160	0.271780	0.708971
H223	H	0.197731	-0.224061	0.263957
H224	H	0.697731	0.275939	0.763957
H225	H	0.937875	-0.919934	0.431660
H226	H	1.437875	-0.419934	0.931660
N227	N	0.941660	-0.785864	0.448493
N228	N	1.441660	-0.285864	0.948493
H229	H	0.948931	-0.829207	0.479763
H230	H	1.448931	-0.329207	0.979763
H231	H	0.902782	-0.754986	0.465559
H232	H	1.402782	-0.254986	0.965559
N233	N	0.856048	-0.927949	0.362768
N234	N	1.356048	-0.427949	0.862768
H235	H	0.855948	-0.983685	0.365132
H236	H	1.355948	-0.483685	0.865132
H237	H	0.842587	-0.911678	0.315887
H238	H	1.342587	-0.411678	0.815887
N239	N	0.889072	-0.925603	0.234624
N240	N	1.389072	-0.425603	0.734624
H241	H	0.869007	-0.956227	0.272234
H242	H	1.369007	-0.456227	0.772234
H243	H	0.892793	-0.956661	0.192421
H244	H	1.392793	-0.456661	0.692421
N245	N	1.007497	-0.786421	0.201647
N246	N	1.507497	-0.286421	0.701647
H247	H	1.042649	-0.753674	0.223344
H248	H	1.542649	-0.253674	0.723344
H249	H	0.982066	-0.757425	0.166284
H250	H	1.482066	-0.257425	0.666284
