data_functionalizedCrystal
_audit_creation_method	'MofGen! by Chris Wilmer'
_symmetry_space_group_name_H-M	'P1'
_symmetry_Int_Tables_number	1
_symmetry_cell_setting	triclinic
loop_
_symmetry_equiv_pos_as_xyz
  x,y,z
_cell_length_a	18.101398
_cell_length_b	21.295417
_cell_length_c	18.101390
_cell_angle_alpha	89.962939
_cell_angle_beta	89.975319
_cell_angle_gamma	90.025773
loop_
_atom_site_label
_atom_site_type_symbol
_atom_site_fract_x
_atom_site_fract_y
_atom_site_fract_z
Zn1	Zn	1.132127	-0.250665	-0.418817
Zn2	Zn	1.132023	-0.355945	-0.294967
Zn3	Zn	1.008285	-0.250685	-0.294979
Zn4	Zn	1.008238	-0.355891	-0.418755
O5	O	1.070168	-0.303296	-0.356880
O6	O	1.235746	-0.264644	-0.402409
O7	O	1.115585	-0.342013	-0.191335
O8	O	1.024776	-0.162593	-0.311437
O9	O	1.235670	-0.341993	-0.311417
O10	O	1.115762	-0.162578	-0.402421
O11	O	1.024675	-0.264679	-0.191344
O12	O	0.904646	-0.264627	-0.311377
O13	O	1.024695	-0.341902	-0.522397
O14	O	0.904611	-0.341921	-0.402315
O15	O	1.115716	-0.264592	-0.522442
O16	O	1.115540	-0.444027	-0.311357
O17	O	1.024595	-0.443988	-0.402304
C18	C	0.877758	-0.303271	-0.356841
C19	C	0.795443	-0.303275	-0.356842
C20	C	0.496352	-0.303314	-0.356904
C21	C	0.527675	-0.254439	-0.299967
C22	C	0.613293	-0.254571	-0.299724
C23	C	0.644735	-0.303294	-0.356873
C24	C	0.613618	-0.369607	-0.335543
C25	C	0.527972	-0.369335	-0.335147
C26	C	0.527967	-0.286453	-0.435305
C27	C	0.613618	-0.284977	-0.434877
C28	C	0.728594	-0.303287	-0.356857
C29	C	0.412493	-0.303326	-0.356919
C30	C	1.070071	-0.466848	-0.356839
C31	C	1.070097	-0.536816	-0.356846
C32	C	1.117494	-0.569682	-0.309538
C33	C	1.117529	-0.635425	-0.309555
C34	C	1.070153	-0.668299	-0.356871
C35	C	1.022753	-0.635424	-0.404188
C36	C	1.022725	-0.569683	-0.404175
N37	N	1.005369	-0.771559	-0.362504
N38	N	1.005398	-0.834011	-0.362512
C39	C	1.070236	-0.866373	-0.356914
N40	N	1.135046	-0.833925	-0.351293
N41	N	1.135017	-0.771468	-0.351282
C42	C	1.070179	-0.739584	-0.356891
C43	C	1.117675	-0.970525	-0.309622
C44	C	1.117711	-1.036269	-0.309644
C45	C	1.022929	-1.036267	-0.404273
C46	C	1.022899	-0.970525	-0.404255
C47	C	1.070271	-0.937658	-0.356925
C48	C	1.263330	-0.303322	-0.356919
C49	C	1.345644	-0.303334	-0.356936
C50	C	1.070212	-0.303239	-0.550042
C51	C	1.070231	-0.303214	-0.632356
C52	C	1.070286	-0.139106	-0.356937
C53	C	1.070336	-0.069138	-0.356961
C54	C	1.070271	-0.303175	-0.931447
C55	C	1.127727	-0.254705	-0.900150
C56	C	1.127548	-0.254525	-0.814532
C57	C	1.070252	-0.303195	-0.783064
C58	C	0.992235	-0.285166	-0.814132
C59	C	0.992579	-0.284803	-0.899778
C60	C	1.090144	-0.369798	-0.899855
C61	C	1.091857	-0.369458	-0.814205
C62	C	1.070236	-0.303207	-0.699205
C63	C	1.070281	-0.303162	-1.015306
C64	C	1.070167	-0.303308	-0.164469
C65	C	1.070292	-0.303155	-0.082155
H66	H	0.633983	-0.406998	-0.375715
H67	H	0.633746	-0.265717	-0.241630
N68	N	1.034718	-0.417638	-0.926666
H69	H	1.047764	-0.460347	-0.906195
H70	H	0.983691	-0.405357	-0.909338
H71	H	0.984181	-0.662194	-0.442715
N72	N	0.970264	-0.220293	-0.926263
H73	H	1.011448	-0.201646	-0.956901
H74	H	0.924082	-0.223701	-0.957296
H75	H	0.507960	-0.383634	-0.277832
N76	N	1.110527	-0.189689	-0.928671
H77	H	1.113113	-0.189564	-0.984409
H78	H	1.059256	-0.177140	-0.912359
H79	H	0.984301	-0.943763	-0.442774
N80	N	0.641978	-0.388881	-0.260444
H81	H	0.674975	-0.354759	-0.240131
H82	H	0.598861	-0.395645	-0.225910
N83	N	0.501114	-0.333600	-0.491495
H84	H	0.471832	-0.311273	-0.531063
H85	H	0.544908	-0.355379	-0.514684
H86	H	0.506395	-0.238940	-0.454697
N87	N	1.110111	-0.189152	-0.787412
H88	H	1.109922	-0.188763	-0.731617
H89	H	1.148801	-0.158925	-0.806232
H90	H	0.984358	-1.063032	-0.442802
N91	N	1.204149	-0.269580	-0.786702
H92	H	1.238339	-0.276381	-0.830070
H93	H	1.222977	-0.233512	-0.755774
N94	N	0.933921	-0.329513	-0.927186
H95	H	0.896837	-0.305747	-0.958097
H96	H	0.957709	-0.363367	-0.958156
N97	N	0.971599	-0.534227	-0.455196
H98	H	0.983074	-0.545620	-0.508124
H99	H	0.918718	-0.545727	-0.443580
H100	H	0.633962	-0.236178	-0.450961
N101	N	0.641962	-0.328693	-0.494088
H102	H	0.697670	-0.326491	-0.495922
H103	H	0.626094	-0.373082	-0.482434
H104	H	1.156069	-0.542924	-0.271002
N105	N	1.168652	-0.670884	-0.258530
H106	H	1.198658	-0.640087	-0.228546
H107	H	1.138533	-0.698204	-0.224237
N108	N	1.168767	-0.935070	-0.258579
H109	H	1.198803	-0.965869	-0.228615
H110	H	1.203008	-0.907745	-0.288752
N111	N	1.167904	-0.387472	-0.787305
H112	H	1.181493	-0.430131	-0.807511
H113	H	1.205020	-0.355325	-0.804848
H114	H	1.156312	-1.063027	-0.271122
N115	N	0.500508	-0.419204	-0.387674
H116	H	0.519193	-0.409962	-0.439130
H117	H	0.519228	-0.461628	-0.371197
N118	N	1.204612	-0.269471	-0.927440
H119	H	1.202948	-0.307721	-0.960359
H120	H	1.224370	-0.232505	-0.956326
N121	N	0.933983	-0.330484	-0.787133
H122	H	0.957663	-0.363215	-0.754424
H123	H	0.895335	-0.306818	-0.758097
N124	N	0.969507	-0.221372	-0.785747
H125	H	1.009628	-0.204059	-0.752771
H126	H	0.961540	-0.192016	-0.828853
H127	H	0.506125	-0.265460	-0.242211
N128	N	1.164206	-0.391525	-0.928479
H129	H	1.185627	-0.358396	-0.962220
H130	H	1.198777	-0.398741	-0.885528
N131	N	1.040459	-0.419871	-0.785832
H132	H	1.002267	-0.400383	-0.752241
H133	H	1.014969	-0.440801	-0.828905
H134	H	0.507104	-0.205116	-0.313191
N135	N	0.641171	-0.189436	-0.317428
H136	H	0.597824	-0.160380	-0.325461
H137	H	0.672068	-0.173478	-0.274952
