data_functionalizedCrystal
_audit_creation_method	'MofGen! by Chris Wilmer'
_symmetry_space_group_name_H-M	'P1'
_symmetry_Int_Tables_number	1
_symmetry_cell_setting	triclinic
loop_
_symmetry_equiv_pos_as_xyz
  x,y,z
_cell_length_a	10.967926
_cell_length_b	10.908878
_cell_length_c	14.048226
_cell_angle_alpha	89.993525
_cell_angle_beta	102.122801
_cell_angle_gamma	72.684821
loop_
_atom_site_label
_atom_site_type_symbol
_atom_site_fract_x
_atom_site_fract_y
_atom_site_fract_z
O1	O	1.618347	0.179755	0.186325
O2	O	1.251490	0.196969	0.126141
O3	O	1.483550	0.001858	0.164215
O4	O	1.386287	0.374866	0.148251
O5	O	1.483529	0.001846	0.322533
O6	O	1.251469	0.196957	0.284459
O7	O	1.618327	0.179743	0.344642
Zn8	Zn	1.434894	0.188348	0.339687
Zn9	Zn	1.434922	0.188364	0.131097
O10	O	1.386266	0.374854	0.306569
C11	C	1.205251	0.195711	0.197717
C12	C	1.067509	0.191967	0.175120
C13	C	1.006088	0.190291	0.247059
C14	C	0.863725	0.186421	0.223706
C15	C	1.492629	-0.045910	0.244864
C16	C	1.519699	-0.188225	0.249301
C17	C	1.420927	-0.238102	0.233096
C18	C	1.448903	-0.385191	0.237682
C19	C	1.664565	0.181001	0.273065
C20	C	1.802307	0.184745	0.295656
C21	C	1.377187	0.422622	0.225918
C22	C	1.350117	0.564937	0.221475
N23	N	1.434885	0.188337	0.482046
N24	N	1.434943	0.188365	-0.011261
C25	C	1.537661	0.101978	0.548726
C26	C	1.537669	0.101977	0.648386
C27	C	1.434906	0.188343	0.681363
C28	C	1.332121	0.274706	0.614675
C29	C	1.332108	0.274699	0.515017
C30	C	1.332155	0.274715	0.822395
C31	C	1.332167	0.274724	0.922059
C32	C	1.537715	0.101993	0.955763
C33	C	1.537703	0.101987	0.856105
C34	C	1.434919	0.188352	0.789424
H35	H	1.058902	0.191714	0.325938
H36	H	1.248443	0.345022	0.641530
C37	C	1.143462	-0.369302	0.106188
C38	C	1.207986	-0.345730	0.198160
H39	H	1.055716	-0.314157	0.091799
H40	H	1.187260	-0.353300	0.058174
H41	H	1.143634	-0.456433	0.106223
H42	H	1.207822	-0.258601	0.198122
H43	H	1.164176	-0.361722	0.246185
C44	C	0.876463	0.186779	0.055160
C45	C	0.792450	0.184490	0.117213
H46	H	0.832460	0.185580	-0.010581
H47	H	0.901946	0.262763	0.062880
H48	H	0.951950	0.113530	0.071091
H49	H	0.716967	0.257744	0.101287
H50	H	0.766948	0.108498	0.109489
H51	H	1.621356	0.031656	0.702677
H52	H	1.554183	-0.451380	0.254956
H53	H	1.248417	0.345020	0.460725
H54	H	1.624972	-0.254417	0.266574
H55	H	1.621346	0.031655	0.521885
C56	C	1.156873	0.300943	0.681601
C57	C	1.219171	0.369650	0.749098
H58	H	1.087121	0.359555	0.636356
H59	H	1.218067	0.249518	0.647702
H60	H	1.123160	0.247173	0.714971
H61	H	1.252893	0.423413	0.715728
H62	H	1.157966	0.421098	0.783000
C63	C	1.000816	0.190134	0.404675
C64	C	0.873581	0.186674	0.402149
H65	H	1.044812	0.191332	0.470418
H66	H	1.046959	0.116100	0.376770
H67	H	0.996962	0.265333	0.368560
H68	H	0.877435	0.111470	0.438258
H69	H	0.827427	0.260716	0.430066
H70	H	1.315655	-0.171909	0.215832
H71	H	1.621385	0.031668	0.829257
C72	C	1.600986	-0.072221	1.078208
C73	C	1.650699	0.007049	1.029050
H74	H	1.670741	-0.130835	1.123450
H75	H	1.539800	-0.020792	1.112112
H76	H	1.558720	-0.118813	1.032399
H77	H	1.692957	0.053648	1.074859
H78	H	1.711907	-0.044387	0.995145
H79	H	1.014699	0.190532	0.096242
C80	C	1.128957	0.445419	0.878735
C81	C	1.219191	0.369633	0.958308
H82	H	1.059203	0.504001	0.901114
H83	H	1.171196	0.492035	0.846788
H84	H	1.095260	0.391614	0.834344
H85	H	1.252895	0.423437	1.002696
H86	H	1.176946	0.323013	0.990271
