data_functionalizedCrystal
_audit_creation_method	'MofGen! by Chris Wilmer'
_symmetry_space_group_name_H-M	'P1'
_symmetry_Int_Tables_number	1
_symmetry_cell_setting	triclinic
loop_
_symmetry_equiv_pos_as_xyz
  x,y,z
_cell_length_a	16.120484
_cell_length_b	14.908610
_cell_length_c	14.908308
_cell_angle_alpha	89.826017
_cell_angle_beta	95.986071
_cell_angle_gamma	90.215361
loop_
_atom_site_label
_atom_site_type_symbol
_atom_site_fract_x
_atom_site_fract_y
_atom_site_fract_z
Zn1	Zn	-0.434983	-1.320094	-0.609992
Zn2	Zn	-0.566804	-1.321037	-0.466415
Zn3	Zn	-0.418969	-1.179337	-0.450162
Zn4	Zn	-0.565807	-1.162123	-0.608012
O5	O	-0.496641	-1.245648	-0.533645
O6	O	-0.459588	-1.445633	-0.598576
O7	O	-0.540909	-1.309839	-0.338111
O8	O	-0.304473	-1.204819	-0.465391
O9	O	-0.556437	-1.446326	-0.493091
O10	O	-0.316238	-1.308232	-0.582817
O11	O	-0.432295	-1.205733	-0.326170
O12	O	-0.431328	-1.051640	-0.463471
O13	O	-0.554737	-1.175479	-0.734422
O14	O	-0.539209	-1.038993	-0.579442
O15	O	-0.458621	-1.291540	-0.735877
O16	O	-0.683292	-1.293147	-0.491171
O17	O	-0.682559	-1.176393	-0.595201
C18	C	-0.483423	-1.012798	-0.519479
C19	C	-0.477790	-0.913181	-0.513441
C20	C	-0.713166	-1.233028	-0.544756
C21	C	-0.805803	-1.227709	-0.549544
C22	C	-0.413608	-0.779334	-0.444641
C23	C	-0.418897	-0.872933	-0.450311
C24	C	-0.531396	-0.859824	-0.570908
C25	C	-0.526107	-0.766225	-0.565238
C26	C	-0.467212	-0.725983	-0.502102
C27	C	-0.461928	-0.632382	-0.496429
C28	C	-0.574423	-0.619275	-0.617030
C29	C	-0.579711	-0.712874	-0.622699
C30	C	-0.975413	-1.218002	-0.558305
C31	C	-1.017037	-1.273453	-0.509009
C32	C	-1.111414	-1.268052	-0.513884
C33	C	-0.881028	-1.223402	-0.553432
C34	C	-0.279272	-1.258340	-0.522512
C35	C	-0.186642	-1.263749	-0.517768
C36	C	-0.508354	-1.231484	-0.768773
C37	C	-0.513346	-1.225448	-0.868970
C38	C	-0.509903	-0.479408	-0.547859
C39	C	-0.515535	-0.579024	-0.553896
C40	C	-0.422621	-1.334959	-1.058767
C41	C	-0.427308	-1.329291	-1.152912
C42	C	-0.527403	-1.208440	-1.151405
C43	C	-0.522716	-1.214108	-1.057260
C44	C	-0.470324	-1.277371	-1.010945
C45	C	-0.465641	-1.283043	-0.916799
C46	C	-0.565731	-1.162188	-0.915294
C47	C	-0.570419	-1.156520	-1.009438
C48	C	-0.484915	-1.259812	-0.299432
C49	C	-0.479699	-1.266035	-0.199234
H50	H	-0.413973	-0.599619	-0.445021
H51	H	-1.010654	-1.166477	-0.604166
H52	H	-0.422982	-1.334555	-0.879091
O53	O	-0.970363	-1.341712	-0.448253
H54	H	-0.926201	-1.306620	-0.397909
O55	O	-0.366119	-1.403190	-1.008803
H56	H	-0.333733	-1.442282	-1.057874
H57	H	-0.388461	-1.376183	-1.191845
H58	H	-0.365655	-0.746569	-0.393232
O59	O	-0.583894	-1.140197	-1.201363
H60	H	-0.579134	-1.145931	-1.274861
O61	O	-0.361095	-0.930480	-0.388324
H62	H	-0.319263	-0.886769	-0.343464
H63	H	-0.579341	-0.892605	-0.622314
O64	O	-0.643228	-0.756286	-0.690793
H65	H	-0.679611	-0.703459	-0.729800
H66	H	-0.613073	-1.105012	-1.047161
H67	H	-0.618071	-0.575826	-0.663819
H68	H	-0.604577	-1.115297	-0.876347
