data_functionalizedCrystal
_audit_creation_method	'MofGen! by Chris Wilmer'
_symmetry_space_group_name_H-M	'P1'
_symmetry_Int_Tables_number	1
_symmetry_cell_setting	triclinic
loop_
_symmetry_equiv_pos_as_xyz
  x,y,z
_cell_length_a	15.944551
_cell_length_b	16.109301
_cell_length_c	14.586319
_cell_angle_alpha	90.005214
_cell_angle_beta	89.992301
_cell_angle_gamma	96.519891
loop_
_atom_site_label
_atom_site_type_symbol
_atom_site_fract_x
_atom_site_fract_y
_atom_site_fract_z
O1	O	1.114488	-0.107227	-0.076332
O2	O	0.869934	-0.120447	-0.076315
O3	O	0.998929	0.007192	-0.076315
O4	O	0.985492	-0.234866	-0.076333
O5	O	0.998920	0.007194	0.076166
O6	O	0.869925	-0.120445	0.076166
O7	O	1.114479	-0.107225	0.076148
Cu8	Cu	0.992201	-0.113835	0.090080
Cu9	Cu	0.992211	-0.113837	-0.090246
O10	O	0.985484	-0.234864	0.076148
C11	C	0.998380	0.038168	-0.000074
C12	C	0.996748	0.130464	-0.000072
C13	C	0.838635	-0.119897	-0.000072
C14	C	0.745390	-0.118252	-0.000065
C15	C	1.145777	-0.107775	-0.000096
C16	C	1.239022	-0.109420	-0.000109
C17	C	1.453852	-0.192470	-0.000094
C18	C	1.514889	-0.153905	-0.075272
C19	C	1.409747	-0.112397	-0.000096
C20	C	1.514858	-0.153884	0.075062
C21	C	1.574659	-0.115278	-0.000079
C22	C	1.469556	-0.073811	-0.075336
C23	C	1.469519	-0.073801	0.075066
C24	C	1.530539	-0.035178	-0.000130
C25	C	1.314746	-0.110739	-0.000106
C26	C	1.669660	-0.116929	-0.000076
C27	C	0.986032	-0.265840	-0.000095
C28	C	0.987664	-0.358136	-0.000102
N29	N	0.992200	-0.113833	0.216912
C30	C	1.069497	0.352712	-0.000092
C31	C	1.067958	0.439433	-0.000100
C32	C	0.914909	0.419608	-0.000085
C33	C	0.916450	0.332889	-0.000084
C34	C	0.993746	0.299444	-0.000083
C35	C	0.990666	0.472884	-0.000091
C36	C	0.988996	0.566910	-0.000099
C37	C	0.995417	0.205411	-0.000077
N38	N	0.992219	-0.113833	-0.217078
C39	C	1.049337	-0.057333	0.451918
C40	C	1.049340	-0.057331	0.547899
C41	C	0.935075	-0.170335	0.547909
C42	C	0.935070	-0.170332	0.451929
C43	C	0.992205	-0.113833	0.403936
C44	C	0.992214	-0.113833	0.595897
C45	C	0.992216	-0.113831	0.699964
C46	C	0.992202	-0.113833	0.299863
H47	H	1.420524	-0.258934	-0.000174
H48	H	1.095860	-0.011327	0.412845
H49	H	1.095861	-0.011324	0.586964
C50	C	0.872211	-0.232463	0.600699
H51	H	0.838172	-0.266099	0.558374
H52	H	0.902392	-0.267102	0.638144
H53	H	0.837266	-0.202505	0.638138
C54	C	0.872229	-0.232489	0.399141
H55	H	0.880405	-0.224389	0.335106
H56	H	0.881337	-0.287982	0.414861
H57	H	0.816171	-0.223425	0.414881
C58	C	1.542054	-0.199655	-0.161135
H59	H	1.515535	-0.255531	-0.161049
H60	H	1.525786	-0.171750	-0.214522
H61	H	1.601603	-0.199926	-0.160791
H62	H	1.563714	0.031346	-0.000163
C63	C	1.442585	-0.028099	-0.161295
H64	H	1.490985	-0.010041	-0.197147
H65	H	1.404540	-0.065003	-0.196443
H66	H	1.415602	0.018959	-0.143324
C67	C	1.442316	-0.028089	0.160931
H68	H	1.415800	0.019236	0.142878
H69	H	1.403813	-0.064853	0.195707
H70	H	1.490559	-0.010439	0.197181
C71	C	1.541974	-0.199646	0.160923
H72	H	1.579657	-0.162598	0.196333
H73	H	1.493582	-0.218199	0.196555
H74	H	1.569427	-0.246372	0.142842
C75	C	1.154519	0.315924	-0.000101
H76	H	1.199412	0.360073	-0.000116
H77	H	1.158304	0.282512	0.053071
H78	H	1.158300	0.282504	-0.053282
C79	C	1.151284	0.498025	-0.000104
H80	H	1.197536	0.465683	-0.000096
H81	H	1.153870	0.532262	-0.053278
H82	H	1.153859	0.532270	0.053076
H83	H	0.851977	0.446851	-0.000084
H84	H	0.854760	0.289515	-0.000080
