data_functionalizedCrystal
_audit_creation_method	'MofGen! by Chris Wilmer'
_symmetry_space_group_name_H-M	'P1'
_symmetry_Int_Tables_number	1
_symmetry_cell_setting	triclinic
loop_
_symmetry_equiv_pos_as_xyz
  x,y,z
_cell_length_a	12.759401
_cell_length_b	13.031981
_cell_length_c	13.034296
_cell_angle_alpha	103.356786
_cell_angle_beta	97.201562
_cell_angle_gamma	97.193318
loop_
_atom_site_label
_atom_site_type_symbol
_atom_site_fract_x
_atom_site_fract_y
_atom_site_fract_z
Zn1	Zn	1.631871	-0.346552	0.546805
Zn2	Zn	1.580627	-0.546802	0.346600
Zn3	Zn	1.430596	-0.369173	0.369198
Zn4	Zn	1.430598	-0.524167	0.524182
O5	O	1.518423	-0.446674	0.446696
O6	O	1.772095	-0.373122	0.520258
O7	O	1.539278	-0.542179	0.200949
O8	O	1.478740	-0.217502	0.411683
O9	O	1.734446	-0.520244	0.373168
O10	O	1.626616	-0.200883	0.542171
O11	O	1.429051	-0.411676	0.217552
O12	O	1.283575	-0.389728	0.389746
O13	O	1.478744	-0.481666	0.675831
O14	O	1.283576	-0.503601	0.503612
O15	O	1.626618	-0.351174	0.692452
O16	O	1.539280	-0.692470	0.351231
O17	O	1.429055	-0.675840	0.481700
C18	C	1.245454	-0.446663	0.446677
C19	C	1.128677	-0.446681	0.446690
C20	C	1.478639	-0.722700	0.411581
C21	C	1.461721	-0.840781	0.396595
C22	C	1.073813	-0.506092	0.505860
C23	C	0.964092	-0.506093	0.505881
C24	C	0.964107	-0.387272	0.387553
C25	C	1.073828	-0.387265	0.387539
C26	C	1.527312	-0.885111	0.454539
C27	C	1.509827	-1.007153	0.439051
C28	C	1.792457	-0.446685	0.446716
C29	C	1.909234	-0.446689	0.446725
C30	C	1.558398	-0.411372	0.723762
C31	C	1.575432	-0.396328	0.841831
C32	C	1.558394	-0.169566	0.481971
C33	C	1.575427	-0.051479	0.497003
C34	C	1.478675	-0.481762	0.170718
C35	C	1.461887	-0.496506	0.052687
C36	C	1.509862	-0.454186	0.886246
C37	C	1.527467	-0.438639	1.008276
H38	H	1.118469	-0.554470	0.554028
F39	F	1.419451	-0.533980	0.817868
H40	H	0.919427	-0.554470	0.554065
F41	F	0.905722	-0.324042	0.324601
H42	H	1.596645	-0.377595	1.060590
H43	H	1.118500	-0.338879	0.339356
F44	F	1.617623	-0.816625	0.534380
F45	F	1.371475	-0.576310	0.984315
F46	F	1.665850	-0.316542	0.910208
H47	H	1.440719	-1.059549	0.377977
F48	F	1.665752	-0.983000	0.576841
H49	H	1.392618	-0.893180	0.335525
