data_functionalizedCrystal
_audit_creation_method	'MofGen! by Chris Wilmer'
_symmetry_space_group_name_H-M	'P1'
_symmetry_Int_Tables_number	1
_symmetry_cell_setting	triclinic
loop_
_symmetry_equiv_pos_as_xyz
  x,y,z
_cell_length_a	14.908558
_cell_length_b	14.908579
_cell_length_c	17.077396
_cell_angle_alpha	86.730024
_cell_angle_beta	86.690453
_cell_angle_gamma	89.793522
loop_
_atom_site_label
_atom_site_type_symbol
_atom_site_fract_x
_atom_site_fract_y
_atom_site_fract_z
Zn1	Zn	1.353928	0.437421	-0.533660
Zn2	Zn	1.687262	0.770755	-0.200326
Zn3	Zn	2.020595	1.104088	0.133007
Zn4	Zn	1.345148	0.587787	-0.409506
Zn5	Zn	1.678481	0.921121	-0.076173
Zn6	Zn	2.011814	1.254454	0.257161
Zn7	Zn	1.203570	0.428763	-0.394438
Zn8	Zn	1.536904	0.762096	-0.061105
Zn9	Zn	1.870237	1.095429	0.272229
Zn10	Zn	1.194853	0.579043	-0.532759
Zn11	Zn	1.528186	0.912376	-0.199426
Zn12	Zn	1.861519	1.245709	0.133908
O13	O	1.274375	0.508254	-0.467591
O14	O	1.607708	0.841587	-0.134257
O15	O	1.941041	1.174920	0.199076
O16	O	1.478588	0.464651	-0.523873
O17	O	1.811921	0.797985	-0.190540
O18	O	2.145254	1.131318	0.142793
O19	O	1.326341	0.566728	-0.297661
O20	O	1.659674	0.900062	0.035673
O21	O	1.993007	1.233395	0.369006
O22	O	1.230838	0.304090	-0.406977
O23	O	1.564172	0.637423	-0.073644
O24	O	1.897505	0.970756	0.259690
O25	O	1.472137	0.575125	-0.432658
O26	O	1.805470	0.908458	-0.099325
O27	O	2.138803	1.241791	0.234008
O28	O	1.341306	0.310451	-0.509263
O29	O	1.674639	0.643785	-0.175929
O30	O	2.007973	0.977118	0.157404
O31	O	1.222324	0.449894	-0.286590
O32	O	1.555658	0.783227	0.046743
O33	O	1.888991	1.116560	0.380076
O34	O	1.076589	0.441414	-0.406104
O35	O	1.409923	0.774747	-0.072770
O36	O	1.743256	1.108081	0.260563
O37	O	1.215981	0.560220	-0.642725
O38	O	1.549314	0.893554	-0.309392
O39	O	1.882647	1.226887	0.023942
O40	O	1.070185	0.551824	-0.507728
O41	O	1.403518	0.885158	-0.174394
O42	O	1.736851	1.218491	0.158939
O43	O	1.332853	0.456172	-0.643387
O44	O	1.666186	0.789505	-0.310053
O45	O	1.999520	1.122838	0.023280
O46	O	1.317888	0.712449	-0.431785
O47	O	1.651221	1.045782	-0.098452
O48	O	1.984554	1.379116	0.234882
O49	O	1.207467	0.706024	-0.522338
O50	O	1.540800	1.039357	-0.189005
O51	O	1.874133	1.372691	0.144328
C52	C	1.040762	0.494731	-0.455183
C53	C	1.374096	0.828065	-0.121850
C54	C	1.707429	1.161398	0.211483
C55	C	0.940820	0.488968	-0.449895
C56	C	1.274154	0.822301	-0.116562
C57	C	1.607487	1.155635	0.216772
C58	C	1.260803	0.741862	-0.478617
C59	C	1.594136	1.075195	-0.145284
C60	C	1.927469	1.408529	0.188049
C61	C	1.255079	0.841805	-0.483365
C62	C	1.588412	1.175139	-0.150032
C63	C	1.921746	1.508472	0.183302
C64	C	0.803270	0.423276	-0.389610
C65	C	1.136604	0.756610	-0.056277
C66	C	1.469937	1.089943	0.277057
C67	C	0.897175	0.428687	-0.394575
C68	C	1.230508	0.762020	-0.061242
C69	C	1.563841	1.095354	0.272091
C70	C	0.890555	0.543841	-0.500255
C71	C	1.223888	0.877174	-0.166921
C72	C	1.557222	1.210508	0.166412
C73	C	0.796651	0.538430	-0.495289
C74	C	1.129984	0.871764	-0.161956
C75	C	1.463317	1.205097	0.171377
C76	C	0.753012	0.478147	-0.439964
C77	C	1.086345	0.811480	-0.106631
C78	C	1.419678	1.144814	0.226702
C79	C	0.659105	0.472742	-0.434996
C80	C	0.992439	0.806075	-0.101662
C81	C	1.325772	1.139408	0.231671
C82	C	0.652488	0.587890	-0.540678
C83	C	0.985821	0.921224	-0.207345
C84	C	1.319154	1.254557	0.125989
C85	C	0.746392	0.593301	-0.545644
C86	C	1.079725	0.926634	-0.212310
C87	C	1.413059	1.259968	0.121023
C88	C	1.359423	1.036246	-0.398081
C89	C	1.692756	1.369579	-0.064748
C90	C	2.026090	1.702912	0.268586
C91	C	1.354048	1.130152	-0.402539
C92	C	1.687381	1.463485	-0.069206
C93	C	2.020715	1.796818	0.264127
C94	C	1.238959	1.123525	-0.496745
C95	C	1.572292	1.456859	-0.163411
C96	C	1.905626	1.790192	0.169922
C97	C	1.244334	1.029619	-0.492286
C98	C	1.577667	1.362953	-0.158953
C99	C	1.911001	1.696286	0.174380
C100	C	1.304567	0.985983	-0.442952
C101	C	1.637900	1.319316	-0.109618
C102	C	1.971234	1.652650	0.223715
C103	C	1.309937	0.892075	-0.438489
C104	C	1.643270	1.225408	-0.105156
C105	C	1.976604	1.558742	0.228177
C106	C	1.194853	0.885451	-0.532698
C107	C	1.528187	1.218784	-0.199365
C108	C	1.861520	1.552117	0.133968
C109	C	1.189478	0.979357	-0.537157
C110	C	1.522811	1.312690	-0.203824
C111	C	1.856145	1.646023	0.129510
C112	C	1.508899	0.521829	-0.480047
C113	C	1.842233	0.855163	-0.146714
C114	C	2.175566	1.188496	0.186620
C115	C	1.608840	0.527614	-0.485355
C116	C	1.942173	0.860948	-0.152022
C117	C	2.275506	1.194281	0.181311
C118	C	1.274424	0.508186	-0.672334
C119	C	1.607757	0.841520	-0.339001
C120	C	1.941091	1.174853	-0.005668
C121	C	1.274445	0.508158	-0.759584
C122	C	1.607778	0.841491	-0.426250
C123	C	1.941112	1.174825	-0.092917
C124	C	1.288018	1.273734	-0.456549
C125	C	1.621351	1.607067	-0.123216
C126	C	1.954685	1.940401	0.210117
C127	C	1.293817	1.173795	-0.451869
C128	C	1.627150	1.507128	-0.118536
C129	C	1.960484	1.840461	0.214798
C130	C	1.220301	0.447316	-0.794809
C131	C	1.553635	0.780649	-0.461476
C132	C	1.886968	1.113983	-0.128143
C133	C	1.220317	0.447297	-0.876790
C134	C	1.553651	0.780630	-0.543456
C135	C	1.886984	1.113963	-0.210123
C136	C	1.274482	0.508115	-0.923543
C137	C	1.607815	0.841449	-0.590210
C138	C	1.941149	1.174782	-0.256876
C139	C	1.328628	0.568963	-0.888312
C140	C	1.661961	0.902297	-0.554978
C141	C	1.995294	1.235630	-0.221645
C142	C	1.328606	0.568987	-0.806333
C143	C	1.661940	0.902320	-0.472999
C144	C	1.995273	1.235653	-0.139666
C145	C	1.328670	0.568910	-1.059181
C146	C	1.662003	0.902243	-0.725848
C147	C	1.995336	1.235576	-0.392515
C148	C	1.328692	0.568886	-1.141166
C149	C	1.662026	0.902219	-0.807833
C150	C	1.995359	1.235552	-0.474499
C151	C	1.220381	0.447219	-1.129638
C152	C	1.553714	0.780553	-0.796305
C153	C	1.887047	1.113886	-0.462972
C154	C	1.220359	0.447243	-1.047659
C155	C	1.553693	0.780576	-0.714326
C156	C	1.887026	1.113909	-0.380993
C157	C	1.274506	0.508090	-1.012434
C158	C	1.607840	0.841423	-0.679101
C159	C	1.941173	1.174757	-0.345767
C160	C	1.274381	0.508258	-0.263643
C161	C	1.607715	0.841592	0.069690
C162	C	1.941048	1.174925	0.403023
C163	C	1.274549	0.508044	-0.176392
C164	C	1.607882	0.841377	0.156942
C165	C	1.941216	1.174710	0.490275
H166	H	0.623576	0.423655	-0.389948
H167	H	0.956909	0.756988	-0.056614
H168	H	1.290243	1.090322	0.276719
H169	H	1.358979	0.856547	-0.398317
H170	H	1.692313	1.189880	-0.064983
H171	H	2.025646	1.523214	0.268350
H172	H	1.140441	1.014898	-0.577326
H173	H	1.473774	1.348232	-0.243992
H174	H	1.807107	1.681565	0.089341
H175	H	0.926103	0.592916	-0.545301
H176	H	1.259436	0.926249	-0.211968
H177	H	1.592769	1.259583	0.121366
H178	H	0.767739	0.374193	-0.344561
H179	H	1.101072	0.707526	-0.011227
H180	H	1.434405	1.040860	0.322106
Br181	Br	1.428503	1.198364	-0.341645
Br182	Br	1.761836	1.531697	-0.008312
Br183	Br	2.095169	1.865031	0.325022
H184	H	0.781936	0.642380	-0.590689
H185	H	1.115269	0.975713	-0.257356
H186	H	1.448603	1.309046	0.075977
H187	H	1.150183	0.844516	-0.569233
H188	H	1.483516	1.177849	-0.235899
H189	H	1.816850	1.511182	0.097434
H190	H	0.611557	0.632571	-0.581680
H191	H	0.944890	0.965904	-0.248347
H192	H	1.278223	1.299237	0.084987
H193	H	1.189926	1.159071	-0.536916
H194	H	1.523260	1.492404	-0.203583
H195	H	1.856593	1.825738	0.129751
H196	H	1.176200	0.397786	-0.756748
H197	H	1.509533	0.731119	-0.423415
H198	H	1.842866	1.064452	-0.090082
H199	H	1.176225	0.397756	-0.905466
H200	H	1.509558	0.731090	-0.572133
H201	H	1.842891	1.064423	-0.238800
Br202	Br	1.441148	0.977019	-0.331114
Br203	Br	1.774481	1.310352	0.002220
Br204	Br	2.107814	1.643686	0.335553
Br205	Br	1.146858	0.364694	-0.984209
Br206	Br	1.480192	0.698028	-0.650875
Br207	Br	1.813525	1.031361	-0.317542
H208	H	1.176293	0.397674	-1.158323
H209	H	1.509627	0.731008	-0.824989
H210	H	1.842960	1.064341	-0.491656
H211	H	1.372725	0.618487	-0.926385
H212	H	1.706058	0.951821	-0.593051
H213	H	2.039391	1.285154	-0.259718
Br214	Br	1.402082	0.651567	-0.758525
Br215	Br	1.735416	0.984901	-0.425192
Br216	Br	2.068749	1.318234	-0.091859
Br217	Br	1.402211	0.651418	-1.204617
Br218	Br	1.735545	0.984751	-0.871283
Br219	Br	2.068878	1.318085	-0.537950
H220	H	0.938092	0.384002	-0.353574
H221	H	1.271426	0.717336	-0.020241
H222	H	1.604759	1.050669	0.313093
Br223	Br	1.402150	0.651494	-1.011376
Br224	Br	1.735483	0.984828	-0.678042
Br225	Br	2.068816	1.318161	-0.344709
