data_functionalizedCrystal
_audit_creation_method	'MofGen! by Chris Wilmer'
_symmetry_space_group_name_H-M	'P1'
_symmetry_Int_Tables_number	1
_symmetry_cell_setting	triclinic
loop_
_symmetry_equiv_pos_as_xyz
  x,y,z
_cell_length_a	16.956985
_cell_length_b	16.053789
_cell_length_c	16.992695
_cell_angle_alpha	87.278479
_cell_angle_beta	83.360706
_cell_angle_gamma	86.948975
loop_
_atom_site_label
_atom_site_type_symbol
_atom_site_fract_x
_atom_site_fract_y
_atom_site_fract_z
O1	O	-1.063276	0.069459	-0.035095
O2	O	-0.832865	0.069455	-0.062511
O3	O	-0.947147	0.069450	0.065280
O4	O	-0.948995	0.069463	-0.162886
O5	O	-0.940789	-0.069410	0.070768
O6	O	-0.826507	-0.069405	-0.057023
O7	O	-1.056918	-0.069401	-0.029607
Zn8	Zn	-0.940703	-0.091450	-0.042444
Zn9	Zn	-0.949080	0.091504	-0.049675
O10	O	-0.942637	-0.069396	-0.157398
C11	C	-0.800068	0.000024	-0.061171
C12	C	-0.711813	0.000022	-0.065345
N13	N	-0.934992	-0.216311	-0.037508
C14	C	-0.675281	0.000016	0.004441
C15	C	-0.592356	0.000020	0.000514
C16	C	-0.545964	0.000025	-0.073199
C17	C	-0.582502	0.000034	-0.142990
C18	C	-0.665425	0.000035	-0.139063
C19	C	-0.297431	0.000026	-0.092638
C20	C	-0.214501	0.000022	-0.096560
C21	C	-0.224362	0.000010	0.046944
C22	C	-0.307287	0.000006	0.050865
C23	C	-0.343817	0.000020	-0.018926
N24	N	-0.461202	0.000027	-0.077214
N25	N	-0.428578	0.000024	-0.014910
C26	C	-0.089716	0.000026	-0.030948
C27	C	-0.177970	0.000015	-0.026775
C28	C	-0.984175	-0.259998	-0.080049
C29	C	-0.980190	-0.347405	-0.076591
C30	C	-0.927018	-0.391124	-0.030595
C31	C	-0.877833	-0.347431	0.011952
C32	C	-0.881822	-0.260026	0.008497
C33	C	-0.909602	-0.652536	-0.015512
C34	C	-0.905615	-0.739948	-0.012062
C35	C	-1.007973	-0.739916	-0.100604
C36	C	-1.011955	-0.652509	-0.104059
C37	C	-0.962773	-0.608823	-0.061509
N38	N	-0.922941	-0.480469	-0.027060
N39	N	-0.966854	-0.519481	-0.065039
C40	C	-0.941591	0.000020	0.097082
C41	C	-0.934501	0.000020	0.183667
N42	N	-0.954798	0.216365	-0.054604
C43	C	-0.948192	0.000035	-0.189201
C44	C	-0.955283	0.000041	-0.275786
C45	C	-1.002916	0.000021	0.238342
C46	C	-0.996249	0.000029	0.319696
C47	C	-0.921166	0.000030	0.346374
C48	C	-0.852746	0.000032	0.291692
C49	C	-0.859414	0.000030	0.210339
C50	C	-0.893531	0.000041	0.588180
C51	C	-0.886868	0.000040	0.669539
C52	C	-1.030372	0.000038	0.697538
C53	C	-1.037033	0.000032	0.616183
C54	C	-0.968613	0.000038	0.561508
N55	N	-0.914350	0.000035	0.429531
N56	N	-0.975430	0.000039	0.478352
H57	H	-0.713048	0.000009	0.064466
H58	H	-1.027468	-0.224408	-0.117509
Br59	Br	-1.046941	-0.406692	-0.134328
H60	H	-1.064056	0.000015	0.216629
H61	H	-0.327163	0.000042	-0.149467
Br62	Br	-1.084082	-0.593181	-0.166526
Br63	Br	-0.715005	0.000052	-0.233776
H64	H	-0.803703	0.000030	0.165822
H65	H	-0.562617	0.000016	0.057341
H66	H	-0.345054	-0.000001	0.110890
Br67	Br	-1.074716	-0.799207	-0.158347
Br68	Br	-1.089102	0.000029	0.393896
Br69	Br	-0.800675	0.000055	0.513988
H70	H	-1.086075	0.000035	0.742063
Br71	Br	-0.151540	0.000016	-0.196605
H72	H	-0.825723	0.000028	0.691256
Br73	Br	-0.174781	-0.000006	0.141655
H74	H	-0.544723	0.000043	-0.203009
Br75	Br	-0.833447	-0.799281	0.050364
Br76	Br	-0.750847	0.000048	0.327895
Br77	Br	-0.815082	-0.200735	0.066247
H78	H	-0.869555	-0.616978	0.019136
Br79	Br	-0.805673	-0.406763	0.074380
H80	H	-1.098173	0.000030	0.594469
