data_functionalizedCrystal
_audit_creation_method	'MofGen! by Chris Wilmer'
_symmetry_space_group_name_H-M	'P1'
_symmetry_Int_Tables_number	1
_symmetry_cell_setting	triclinic
loop_
_symmetry_equiv_pos_as_xyz
  x,y,z
_cell_length_a	27.731994
_cell_length_b	14.044220
_cell_length_c	13.101039
_cell_angle_alpha	93.667477
_cell_angle_beta	86.677219
_cell_angle_gamma	87.904706
loop_
_atom_site_label
_atom_site_type_symbol
_atom_site_fract_x
_atom_site_fract_y
_atom_site_fract_z
O1	O	0.648650	0.107208	-0.085070
O2	O	1.148650	0.607208	0.414930
O3	O	0.508661	0.124398	-0.085104
O4	O	1.008661	0.624398	0.414896
O5	O	0.576554	-0.022150	-0.085077
O6	O	1.076554	0.477850	0.414923
O7	O	0.580757	0.253755	-0.085096
O8	O	1.080757	0.753755	0.414904
O9	O	0.571684	-0.011618	0.085351
O10	O	1.071684	0.488382	0.585351
O11	O	0.503790	0.134929	0.085324
O12	O	1.003790	0.634929	0.585324
O13	O	0.643780	0.117740	0.085358
O14	O	1.143780	0.617740	0.585358
Zn15	Zn	0.573012	0.128007	0.112400
Zn16	Zn	1.073012	0.628007	0.612400
Zn17	Zn	0.579429	0.114131	-0.112146
Zn18	Zn	1.079429	0.614131	0.387854
O19	O	0.575887	0.264287	0.085331
O20	O	1.075887	0.764287	0.585331
C21	C	0.572279	-0.052170	0.000137
C22	C	1.072279	0.447830	0.500137
C23	C	0.566792	-0.157314	0.000137
C24	C	1.066792	0.342686	0.500137
C25	C	0.488202	0.129310	0.000106
C26	C	0.988202	0.629310	0.500106
C27	C	0.434496	0.128247	0.000093
C28	C	0.934496	0.628247	0.500093
C29	C	0.556761	-0.349825	0.000119
C30	C	1.056761	0.150175	0.500119
C31	C	0.595678	-0.408043	0.000126
C32	C	1.095678	0.091957	0.500126
C33	C	0.590096	-0.515163	0.000116
C34	C	1.090096	-0.015163	0.500116
C35	C	0.562342	-0.242695	0.000129
C36	C	1.062342	0.257305	0.500129
C37	C	0.098807	0.127297	0.093033
C38	C	0.598807	0.627297	0.593033
C39	C	-0.103041	0.123257	0.093045
C40	C	0.396959	0.623257	0.593045
O41	O	-0.131398	0.127577	0.172053
O42	O	0.368602	0.627577	0.672053
N43	N	-0.125624	0.117015	0.000145
N44	N	0.374376	0.617015	0.500145
C45	C	-0.097742	0.111775	-0.092765
C46	C	0.402258	0.611775	0.407235
O47	O	-0.121582	0.106363	-0.171782
O48	O	0.378418	0.606363	0.328218
C49	C	0.104105	0.115808	-0.092776
C50	C	0.604105	0.615808	0.407224
C51	C	0.126685	0.122060	0.000131
C52	C	0.626685	0.622060	0.500131
C53	C	0.121388	0.133548	0.185932
C54	C	0.621388	0.633548	0.685932
C55	C	0.171847	0.134563	0.185928
C56	C	0.671847	0.634563	0.685928
C57	C	0.199725	0.129326	0.093025
C58	C	0.699725	0.629326	0.593025
C59	C	0.177144	0.123075	0.000127
C60	C	0.677144	0.623075	0.500127
C61	C	0.131986	0.110562	-0.185684
C62	C	0.631986	0.610562	0.314316
C63	C	0.182451	0.111568	-0.185679
C64	C	0.682451	0.611568	0.314321
C65	C	0.205031	0.117821	-0.092773
C66	C	0.705031	0.617821	0.407227
C67	C	0.255481	0.118854	-0.092780
C68	C	0.755481	0.618854	0.407220
N69	N	0.278065	0.125097	0.000120
N70	N	0.778065	0.625097	0.500120
C71	C	0.250187	0.130333	0.093023
C72	C	0.750187	0.630333	0.593023
C73	C	-0.203715	0.109660	-0.092753
C74	C	0.296285	0.609660	0.407247
C75	C	-0.254177	0.108654	-0.092750
C76	C	0.245823	0.608654	0.407250
C77	C	-0.259472	0.120134	0.093060
C78	C	0.240528	0.620134	0.593060
C79	C	-0.209009	0.121148	0.093057
C80	C	0.290991	0.621148	0.593057
C81	C	-0.181132	0.115903	0.000148
C82	C	0.318868	0.615903	0.500148
C83	C	0.356154	0.132465	0.093008
C84	C	0.856154	0.632465	0.593008
C85	C	0.406618	0.133483	0.092995
C86	C	0.906618	0.633483	0.592995
C87	C	0.411908	0.121998	-0.092814
C88	C	0.911908	0.621998	0.407186
C89	C	0.361449	0.120984	-0.092803
C90	C	0.861449	0.620984	0.407197
C91	C	0.333573	0.126215	0.000117
C92	C	0.833573	0.626215	0.500117
O93	O	0.283869	0.114527	-0.171746
O94	O	0.783869	0.614527	0.328254
O95	O	0.274036	0.135723	0.172028
O96	O	0.774036	0.635723	0.672028
C97	C	0.048348	0.126282	0.093037
C98	C	0.548348	0.626282	0.593037
C99	C	0.025768	0.120031	0.000138
C100	C	0.525768	0.620031	0.500138
C101	C	0.053646	0.114794	-0.092764
C102	C	0.553646	0.614794	0.407236
C103	C	-0.024694	0.119024	0.000141
C104	C	0.475306	0.619024	0.500141
C105	C	-0.052572	0.124260	0.093043
C106	C	0.447428	0.624260	0.593043
C107	C	-0.029989	0.130503	0.185944
C108	C	0.470011	0.630503	0.685944
C109	C	0.020470	0.131518	0.185940
C110	C	0.520470	0.631518	0.685940
C111	C	0.031062	0.108552	-0.185664
C112	C	0.531062	0.608552	0.314336
C113	C	-0.019397	0.107538	-0.185653
C114	C	0.480603	0.607538	0.314347
C115	C	-0.047275	0.112775	-0.092750
C116	C	0.452725	0.612775	0.407250
C117	C	0.664239	0.112827	0.000146
C118	C	1.164239	0.612827	0.500146
C119	C	0.717945	0.113890	0.000152
C120	C	1.217945	0.613890	0.500152
C121	C	0.580161	0.294308	0.000115
C122	C	1.080161	0.794308	0.500115
C123	C	0.585649	0.399451	0.000109
C124	C	1.085649	0.899451	0.500109
N125	N	0.568636	0.137476	0.265647
N126	N	1.068636	0.637476	0.765647
N127	N	0.583808	0.104654	-0.265393
N128	N	1.083808	0.604654	0.234607
C129	C	0.562682	0.150369	0.474687
C130	C	1.062682	0.650369	0.974687
C131	C	0.589760	0.091765	0.525574
C132	C	1.089760	0.591765	1.025574
C133	C	0.586448	0.098938	0.641891
C134	C	1.086448	0.598938	1.141891
C135	C	0.565994	0.143196	0.358360
C136	C	1.065994	0.643196	0.858360
H137	H	0.633190	-0.377439	0.000066
H138	H	1.133190	0.122561	0.500066
H139	H	0.615431	0.036205	0.481781
H140	H	1.115431	0.536205	0.981781
Cl141	Cl	-0.168676	0.103070	-0.209565
Cl142	Cl	0.331324	0.603070	0.290435
Cl143	Cl	0.523054	0.236148	0.542293
Cl144	Cl	1.023054	0.736148	1.042293
H145	H	0.519254	-0.380432	0.000108
H146	H	1.019254	0.119568	0.500108
H147	H	0.425000	0.138578	0.168654
H148	H	0.925000	0.638578	0.668654
H149	H	0.333463	0.136733	0.168671
H150	H	0.833463	0.636733	0.668671
H151	H	0.113610	0.105469	-0.261339
H152	H	0.613610	0.605469	0.238661
Cl153	Cl	-0.294528	0.126714	0.209851
Cl154	Cl	0.205472	0.626714	0.709851
H155	H	0.190227	0.139648	0.261582
H156	H	0.690227	0.639648	0.761582
H157	H	0.038850	0.136609	0.261594
H158	H	0.538850	0.636609	0.761594
Cl159	Cl	0.086350	0.140137	0.302740
Cl160	Cl	0.586350	0.640137	0.802740
H161	H	-0.272558	0.103578	-0.168404
H162	H	0.227442	0.603578	0.331596
Cl163	Cl	-0.180628	0.129005	0.209857
Cl164	Cl	0.319372	0.629005	0.709857
Cl165	Cl	0.217494	0.104972	-0.302487
Cl166	Cl	0.717494	0.604972	0.197513
Cl167	Cl	0.333061	0.113139	-0.209600
Cl168	Cl	0.833061	0.613139	0.290400
H169	H	0.434616	0.117738	-0.168453
H170	H	0.934616	0.617738	0.331547
H171	H	-0.052696	0.134771	0.261588
H172	H	0.447304	0.634771	0.761588
H173	H	-0.037777	0.102454	-0.261314
H174	H	0.462223	0.602454	0.238686
H175	H	0.053756	0.104285	-0.261319
H176	H	0.553756	0.604285	0.238681
