data_functionalizedCrystal
_audit_creation_method	'MofGen! by Chris Wilmer'
_symmetry_space_group_name_H-M	'P1'
_symmetry_Int_Tables_number	1
_symmetry_cell_setting	triclinic
loop_
_symmetry_equiv_pos_as_xyz
  x,y,z
_cell_length_a	13.032831
_cell_length_b	16.120484
_cell_length_c	13.034356
_cell_angle_alpha	86.035874
_cell_angle_beta	74.815040
_cell_angle_gamma	86.078521
loop_
_atom_site_label
_atom_site_type_symbol
_atom_site_fract_x
_atom_site_fract_y
_atom_site_fract_z
Zn1	Zn	1.676550	-0.417867	-0.829972
Zn2	Zn	2.009884	-0.084534	-0.496639
Zn3	Zn	2.343217	0.248800	-0.163305
Zn4	Zn	1.645187	-0.571245	-0.660979
Zn5	Zn	1.978521	-0.237911	-0.327646
Zn6	Zn	2.311854	0.095422	0.005688
Zn7	Zn	1.476355	-0.417874	-0.629855
Zn8	Zn	1.809688	-0.084541	-0.296522
Zn9	Zn	2.143021	0.248793	0.036812
Zn10	Zn	1.491979	-0.540104	-0.814278
Zn11	Zn	1.825313	-0.206770	-0.480945
Zn12	Zn	2.158646	0.126563	-0.147612
O13	O	1.572518	-0.486772	-0.733771
O14	O	1.905851	-0.153439	-0.400438
O15	O	2.239185	0.179894	-0.067104
O16	O	1.820291	-0.451243	-0.827148
O17	O	2.153624	-0.117909	-0.493815
O18	O	2.486957	0.215424	-0.160481
O19	O	1.603127	-0.563935	-0.508944
O20	O	1.936460	-0.230602	-0.175611
O21	O	2.269794	0.102731	0.157722
O22	O	1.509498	-0.302530	-0.649943
O23	O	1.842831	0.030803	-0.316610
O24	O	2.176164	0.364136	0.016723
O25	O	1.797249	-0.563929	-0.702990
O26	O	2.130582	-0.230595	-0.369656
O27	O	2.463915	0.102738	-0.036323
O28	O	1.656581	-0.302525	-0.796969
O29	O	1.989914	0.030808	-0.463635
O30	O	2.323247	0.364141	-0.130302
O31	O	1.479086	-0.451255	-0.486078
O32	O	1.812420	-0.117921	-0.152744
O33	O	2.145753	0.215412	0.180589
O34	O	1.330527	-0.421058	-0.634726
O35	O	1.663860	-0.087725	-0.301393
O36	O	1.997193	0.245608	0.031941
O37	O	1.536127	-0.510853	-0.964266
O38	O	1.869461	-0.177520	-0.630933
O39	O	2.202794	0.155814	-0.297599
O40	O	1.342006	-0.510860	-0.770221
O41	O	1.675339	-0.177527	-0.436888
O42	O	2.008672	0.155807	-0.103554
O43	O	1.671731	-0.421046	-0.975796
O44	O	2.005064	-0.087713	-0.642463
O45	O	2.338398	0.245620	-0.309130
O46	O	1.618277	-0.682456	-0.687772
O47	O	1.951611	-0.349123	-0.354439
O48	O	2.284944	-0.015790	-0.021105
O49	O	1.505716	-0.659577	-0.800400
O50	O	1.839049	-0.326244	-0.467067
O51	O	2.172383	0.007089	-0.133734
C52	C	1.297917	-0.462581	-0.697394
C53	C	1.631251	-0.129248	-0.364060
C54	C	1.964584	0.204085	-0.030727
C55	C	1.180444	-0.452250	-0.681857
C56	C	1.513777	-0.118916	-0.348524
C57	C	1.847111	0.214417	-0.015191
C58	C	1.133761	-0.492165	-0.741880
C59	C	1.467094	-0.158831	-0.408546
C60	C	1.800427	0.174502	-0.075213
C61	C	1.012346	-0.481487	-0.725824
C62	C	1.345680	-0.148154	-0.392490
C63	C	1.679013	0.185179	-0.059157
C64	C	1.560321	-0.700924	-0.745787
C65	C	1.893654	-0.367591	-0.412454
C66	C	2.226987	-0.034258	-0.079121
C67	C	1.555204	-0.792545	-0.750976
C68	C	1.888537	-0.459212	-0.417643
C69	C	2.221871	-0.125878	-0.084310
C70	C	1.545871	-0.960297	-0.760472
C71	C	1.879205	-0.626963	-0.427139
C72	C	2.212538	-0.293630	-0.093805
C73	C	1.599356	-1.012423	-0.707113
C74	C	1.932690	-0.679089	-0.373779
C75	C	2.266023	-0.345756	-0.040446
C76	C	1.594163	-1.105765	-0.712396
C77	C	1.927497	-0.772432	-0.379063
C78	C	2.260830	-0.439099	-0.045729
C79	C	1.551063	-0.866945	-0.755190
C80	C	1.884396	-0.533612	-0.421856
C81	C	2.217730	-0.200278	-0.088523
C82	C	1.848191	-0.511059	-0.770291
C83	C	2.181524	-0.177725	-0.436958
C84	C	2.514858	0.155608	-0.103625
C85	C	1.965666	-0.521408	-0.785854
C86	C	2.299000	-0.188074	-0.452521
C87	C	2.632333	0.145259	-0.119187
C88	C	1.609171	-0.462475	-1.009454
C89	C	1.942504	-0.129142	-0.676121
C90	C	2.275837	0.204192	-0.342787
C91	C	1.624790	-0.452121	-1.126933
C92	C	1.958123	-0.118788	-0.793600
C93	C	2.291456	0.214546	-0.460267
C94	C	1.584795	-0.271785	-0.721735
C95	C	1.918128	0.061549	-0.388401
C96	C	2.251461	0.394882	-0.055068
C97	C	1.590026	-0.180170	-0.716606
C98	C	1.923360	0.153164	-0.383272
C99	C	2.256693	0.486497	-0.049939
C100	C	1.580799	-0.481243	-1.295026
C101	C	1.914132	-0.147910	-0.961693
C102	C	2.247466	0.185424	-0.628359
C103	C	1.564653	-0.491944	-1.173605
C104	C	1.897986	-0.158611	-0.840271
C105	C	2.231320	0.174722	-0.506938
C106	C	1.536072	-0.510921	-0.459166
C107	C	1.869405	-0.177588	-0.125832
C108	C	2.202739	0.155746	0.207501
C109	C	1.520671	-0.521061	-0.341701
C110	C	1.854004	-0.187727	-0.008367
C111	C	2.187338	0.145606	0.324966
H112	H	1.183681	-0.534238	-0.805157
H113	H	1.517014	-0.200905	-0.471823
H114	H	1.850348	0.132428	-0.138490
Br115	Br	1.048855	-0.591528	-0.891344
Br116	Br	1.382188	-0.258194	-0.558011
Br117	Br	1.715522	0.075139	-0.224678
H118	H	1.130525	-0.410169	-0.618588
H119	H	1.463859	-0.076836	-0.285255
H120	H	1.797192	0.256498	0.048079
Br121	Br	0.929160	-0.411343	-0.620363
Br122	Br	1.262493	-0.078009	-0.287029
Br123	Br	1.595826	0.255324	0.046304
H124	H	1.649045	-0.986946	-0.657461
H125	H	1.982378	-0.653613	-0.324128
H126	H	2.315712	-0.320279	0.009205
Br127	Br	1.463055	-1.002757	-0.843221
Br128	Br	1.796389	-0.669423	-0.509888
Br129	Br	2.129722	-0.336090	-0.176555
Br130	Br	1.686535	-0.411225	-1.378241
Br131	Br	2.019869	-0.077892	-1.044907
Br132	Br	2.353202	0.255441	-0.711574
Br133	Br	1.458930	-0.561981	-1.090397
Br134	Br	1.792263	-0.228648	-0.757064
Br135	Br	2.125596	0.104686	-0.423730
Br136	Br	1.730531	-0.382099	-1.210141
Br137	Br	2.063864	-0.048766	-0.876808
Br138	Br	2.397198	0.284567	-0.543475
Br139	Br	1.414952	-0.591094	-1.258489
Br140	Br	1.748285	-0.257761	-0.925156
Br141	Br	2.081618	0.075572	-0.591823
