data_functionalizedCrystal
_audit_creation_method	'MofGen! by Chris Wilmer'
_symmetry_space_group_name_H-M	'P1'
_symmetry_Int_Tables_number	1
_symmetry_cell_setting	triclinic
loop_
_symmetry_equiv_pos_as_xyz
  x,y,z
_cell_length_a	17.699083
_cell_length_b	17.699077
_cell_length_c	16.776229
_cell_angle_alpha	89.993415
_cell_angle_beta	90.000201
_cell_angle_gamma	96.718205
loop_
_atom_site_label
_atom_site_type_symbol
_atom_site_fract_x
_atom_site_fract_y
_atom_site_fract_z
O1	O	-0.095691	1.004081	-0.066266
O2	O	-0.108149	0.783702	-0.066269
O3	O	0.008269	0.900118	-0.066275
O4	O	-0.212109	0.887666	-0.066260
O5	O	0.008276	0.900103	0.066301
O6	O	-0.108142	0.783687	0.066308
O7	O	-0.095684	1.004066	0.066310
Zn8	Zn	-0.101912	0.893874	0.087358
Zn9	Zn	-0.101921	0.893894	-0.087317
O10	O	-0.212102	0.887650	0.066317
C11	C	-0.107700	0.755498	0.000019
C12	C	-0.106363	0.671479	0.000018
C13	C	-0.105729	0.632003	0.072286
C14	C	-0.104461	0.553061	0.072287
C15	C	-0.103832	0.513595	0.000018
C16	C	-0.104463	0.553076	-0.072256
C17	C	-0.105726	0.632018	-0.072256
C18	C	-0.099370	0.234713	-0.072258
C19	C	-0.098110	0.155766	-0.072252
C20	C	-0.098105	0.155756	0.072285
C21	C	-0.099367	0.234698	0.072285
C22	C	-0.099995	0.274173	0.000011
C23	C	-0.101369	0.359771	0.000011
C24	C	-0.102464	0.427997	0.000017
C25	C	-0.240303	0.888104	0.000030
C26	C	-0.324321	0.889443	0.000036
C27	C	-0.372943	0.821109	0.000036
C28	C	-0.451887	0.822371	0.000026
C29	C	-0.482206	0.891968	0.000023
C30	C	-0.433577	0.960307	0.000022
C31	C	-0.354636	0.959044	0.000025
C32	C	-0.751940	0.965402	0.000006
C33	C	-0.830888	0.966660	0.000005
C34	C	-0.849191	0.828730	0.000007
C35	C	-0.770250	0.827467	0.000010
C36	C	-0.721628	0.895805	0.000005
C37	C	-0.636029	0.894436	0.000013
C38	C	-0.567804	0.893338	0.000020
C39	C	0.036470	0.899664	0.000009
C40	C	0.120488	0.898326	-0.000002
C41	C	-0.096133	1.032271	0.000021
C42	C	-0.097470	1.116289	0.000017
N43	N	-0.101905	0.893866	0.206570
N44	N	-0.101922	0.893909	-0.206528
C45	C	-0.050376	0.945430	0.248284
C46	C	-0.050376	0.945434	0.331736
C47	C	-0.101908	0.893877	0.373473
C48	C	-0.153439	0.842307	0.331753
C49	C	-0.153435	0.842300	0.248302
C50	C	-0.153454	0.842334	0.668300
C51	C	-0.153455	0.842347	0.751756
C52	C	-0.050394	0.945469	0.751734
C53	C	-0.050390	0.945462	0.668283
C54	C	-0.101919	0.893889	0.626570
C55	C	-0.101918	0.893885	0.536082
C56	C	-0.101913	0.893885	0.463959
H57	H	-0.106247	0.664130	0.131135
H58	H	-0.008434	0.987460	0.785705
C59	C	-0.256491	0.825723	0.845600
C60	C	-0.210100	0.785666	0.797634
H61	H	-0.291461	0.790732	0.873918
H62	H	-0.225804	0.856432	0.882382
H63	H	-0.283678	0.857163	0.813026
H64	H	-0.182909	0.754230	0.830209
H65	H	-0.240790	0.754945	0.760848
H66	H	-0.097590	0.123606	0.131133
H67	H	-0.008417	0.987422	0.365699
C68	C	-0.169987	0.739259	0.154482
C69	C	-0.210079	0.785619	0.202447
H70	H	-0.204957	0.704262	0.126179
H71	H	-0.139303	0.769963	0.117687
H72	H	-0.138520	0.712102	0.187055
H73	H	-0.241542	0.812780	0.169873
H74	H	-0.240776	0.754911	0.239247
H75	H	-0.712361	1.021048	0.000006
C76	C	-0.098224	0.163702	-0.215133
C77	C	-0.097411	0.112383	-0.151696
H78	H	-0.097789	0.136919	-0.264174
H79	H	-0.142832	0.188637	-0.212132
H80	H	-0.054593	0.200349	-0.212122
H81	H	-0.141045	0.075740	-0.154704
H82	H	-0.052799	0.087437	-0.154698
C83	C	-0.255333	0.740408	0.676716
C84	C	-0.210099	0.785653	0.622456
H85	H	-0.290308	0.705418	0.648410
H86	H	-0.223863	0.713250	0.709271
H87	H	-0.282516	0.771874	0.709256
H88	H	-0.182912	0.754187	0.589919
H89	H	-0.241573	0.812813	0.589887
C90	C	-0.034707	0.267628	0.195474
C91	C	-0.100055	0.278079	0.151724
H92	H	-0.035128	0.294414	0.244515
H93	H	-0.033871	0.214969	0.205817
H94	H	0.009197	0.286426	0.165765
H95	H	-0.143959	0.259276	0.181430
H96	H	-0.100898	0.330749	0.141383
C97	C	-0.546460	1.023490	0.000024
C98	C	-0.466902	1.036810	0.000021
H99	H	-0.567031	1.070722	0.000031
H100	H	-0.563154	0.995372	-0.046206
H101	H	-0.563152	0.995353	0.046259
H102	H	-0.450211	1.064942	-0.046217
H103	H	-0.450202	1.064940	0.046256
C104	C	-0.107659	0.753038	-0.136434
C105	C	-0.106423	0.675414	-0.151695
H106	H	-0.108082	0.779828	-0.185479
H107	H	-0.151982	0.760114	-0.106745
H108	H	-0.063743	0.771819	-0.106740
H109	H	-0.150342	0.656632	-0.181384
H110	H	-0.062096	0.668334	-0.181397
C111	C	-0.199214	0.796533	0.459685
C112	C	-0.210087	0.785635	0.377628
H113	H	-0.234192	0.761549	0.488003
H114	H	-0.148718	0.788408	0.473363
H115	H	-0.207371	0.847032	0.473339
H116	H	-0.201924	0.735138	0.363973
H117	H	-0.260595	0.793754	0.363943
H118	H	-0.315047	1.014688	0.000023
C119	C	-0.462050	0.685903	0.000050
C120	C	-0.505333	0.747257	0.000036
H121	H	-0.495047	0.639530	0.000061
H122	H	-0.430879	0.688279	-0.046179
H123	H	-0.430878	0.688288	0.046286
H124	H	-0.536501	0.744876	-0.046204
H125	H	-0.536516	0.744880	0.046269
H126	H	-0.745568	0.770794	0.000017
C127	C	-0.165830	0.314856	-0.156112
C128	C	-0.100069	0.278095	-0.151700
H129	H	-0.166258	0.341642	-0.205158
H130	H	-0.209448	0.278205	-0.153102
H131	H	-0.166374	0.349661	-0.113073
H132	H	-0.099528	0.243286	-0.194736
H133	H	-0.056439	0.314750	-0.154718
C134	C	-0.102537	0.432069	-0.136436
C135	C	-0.103774	0.509697	-0.151695
H136	H	-0.102118	0.405291	-0.185481
H137	H	-0.058213	0.424987	-0.106751
H138	H	-0.146452	0.413282	-0.106738
H139	H	-0.059857	0.528485	-0.181389
H140	H	-0.148103	0.516784	-0.181393
H141	H	-0.103932	0.520925	0.131135
C142	C	-0.859353	0.692256	0.000013
C143	C	-0.902638	0.753608	0.000004
H144	H	-0.892349	0.645881	0.000018
H145	H	-0.828180	0.694637	-0.046214
H146	H	-0.828184	0.694636	0.046252
H147	H	-0.933804	0.751231	-0.046238
H148	H	-0.933824	0.751225	0.046235
C149	C	-0.804870	1.102884	-0.000020
C150	C	-0.864216	1.043167	-0.000009
H151	H	-0.825447	1.150112	-0.000034
H152	H	-0.774463	1.099527	0.046211
H153	H	-0.774458	1.099517	-0.046254
H154	H	-0.894625	1.046530	0.046228
H155	H	-0.894636	1.046525	-0.046245
C156	C	-0.260061	0.757924	0.000047
C157	C	-0.339619	0.744605	0.000040
H158	H	-0.239492	0.710691	0.000053
H159	H	-0.243364	0.786054	-0.046181
H160	H	-0.243373	0.786048	0.046284
H161	H	-0.356308	0.716485	-0.046200
H162	H	-0.356323	0.716463	0.046273
H163	H	-0.008416	0.987417	0.214307
H164	H	-0.008431	0.987447	0.634304
