data_functionalizedCrystal
_audit_creation_method	'MofGen! by Chris Wilmer'
_symmetry_space_group_name_H-M	'P1'
_symmetry_Int_Tables_number	1
_symmetry_cell_setting	triclinic
loop_
_symmetry_equiv_pos_as_xyz
  x,y,z
_cell_length_a	14.908520
_cell_length_b	14.908779
_cell_length_c	14.908308
_cell_angle_alpha	83.241764
_cell_angle_beta	83.639235
_cell_angle_gamma	89.836586
loop_
_atom_site_label
_atom_site_type_symbol
_atom_site_fract_x
_atom_site_fract_y
_atom_site_fract_z
Zn1	Zn	0.462183	-1.325899	-0.460117
Zn2	Zn	0.604822	-1.325796	-0.317493
Zn3	Zn	0.445762	-1.184281	-0.316513
Zn4	Zn	0.604768	-1.165773	-0.477546
O5	O	0.529384	-1.250437	-0.392918
O6	O	0.487999	-1.452123	-0.434314
O7	O	0.576873	-1.314727	-0.190282
O8	O	0.321700	-1.210855	-0.327859
O9	O	0.592796	-1.452048	-0.329529
O10	O	0.333764	-1.314901	-0.433364
O11	O	0.460012	-1.210755	-0.189562
O12	O	0.459960	-1.055588	-0.344759
O13	O	0.592704	-1.179312	-0.602316
O14	O	0.576781	-1.041990	-0.463069
O15	O	0.487946	-1.296955	-0.589511
O16	O	0.731055	-1.296781	-0.346429
O17	O	0.731015	-1.179212	-0.464019
C18	C	0.516583	-1.016057	-0.405699
C19	C	0.511130	-0.915785	-0.411190
C20	C	0.609840	-0.727304	-0.312209
C21	C	0.604719	-0.633090	-0.317365
C22	C	0.495773	-0.633140	-0.426665
C23	C	0.500894	-0.727354	-0.421508
C24	C	0.557928	-0.774433	-0.364277
C25	C	0.563044	-0.868650	-0.359116
C26	C	0.454103	-0.868697	-0.468420
C27	C	0.448982	-0.774483	-0.473576
C28	C	0.763770	-1.236000	-0.407240
C29	C	0.864048	-1.229905	-0.413393
C30	C	0.294084	-1.264954	-0.378558
C31	C	0.193814	-1.271140	-0.372439
C32	C	1.052472	-1.340988	-0.302596
C33	C	1.146692	-1.335264	-0.308374
C34	C	1.146710	-1.212738	-0.430731
C35	C	1.052490	-1.218462	-0.424953
C36	C	1.005374	-1.282588	-0.360882
C37	C	0.911152	-1.288307	-0.355100
C38	C	0.911172	-1.165786	-0.477461
C39	C	1.005392	-1.160062	-0.483240
C40	C	0.542151	-1.236080	-0.629785
C41	C	0.547591	-1.229962	-0.730724
C42	C	0.542229	-0.485734	-0.380079
C43	C	0.547686	-0.586005	-0.374590
C44	C	0.448710	-1.340967	-0.907066
C45	C	0.453819	-1.335222	-1.001907
C46	C	0.562913	-1.212723	-1.015248
C47	C	0.557804	-1.218468	-0.920407
C48	C	0.500701	-1.282593	-0.866319
C49	C	0.495598	-1.288342	-0.771477
C50	C	0.604686	-1.165840	-0.784820
C51	C	0.609795	-1.160094	-0.879661
C52	C	0.516604	-1.264794	-0.156964
C53	C	0.510919	-1.271102	-0.056001
H54	H	0.411828	-0.907080	-0.510813
C55	C	0.396626	-1.399440	-1.046724
N56	N	0.353547	-1.447812	-1.080480
C57	C	1.198496	-1.399505	-0.244251
N58	N	1.237514	-1.447894	-0.195950
C59	C	0.625696	-1.142170	-1.074760
N60	N	0.672979	-1.089023	-1.119586
C61	C	0.433019	-0.581339	-0.489593
N62	N	0.385744	-0.542323	-0.536981
H63	H	0.647024	-1.118309	-0.751635
C64	C	0.859357	-1.101542	-0.541581
N65	N	0.820328	-1.053153	-0.589873
H66	H	1.043767	-1.107855	-0.535406
C67	C	1.000643	-1.411524	-0.232116
N68	N	0.961606	-1.464655	-0.179031
C69	C	0.432782	-1.358878	-0.711981
N70	N	0.385463	-1.412005	-0.667172
H71	H	0.872791	-1.340520	-0.302928
C72	C	0.385902	-1.411508	-0.847567
N73	N	0.338593	-1.464641	-0.802754
H74	H	0.656284	-1.107884	-0.923712
H75	H	0.609482	-0.906980	-0.312514
H76	H	0.656274	-0.765638	-0.265603
C77	C	1.198553	-1.142203	-0.501202
N78	N	1.237602	-1.089074	-0.554279
C79	C	0.661821	-0.581252	-0.260081
N80	N	0.704832	-0.542208	-0.216931
C81	C	0.386232	-0.722687	-0.536512
N82	N	0.338961	-0.683677	-0.583909
