data_functionalizedCrystal
_audit_creation_method	'MofGen! by Chris Wilmer'
_symmetry_space_group_name_H-M	'P1'
_symmetry_Int_Tables_number	1
_symmetry_cell_setting	triclinic
loop_
_symmetry_equiv_pos_as_xyz
  x,y,z
_cell_length_a	13.897441
_cell_length_b	11.169417
_cell_length_c	13.897448
_cell_angle_alpha	89.981429
_cell_angle_beta	89.969401
_cell_angle_gamma	90.018542
loop_
_atom_site_label
_atom_site_type_symbol
_atom_site_fract_x
_atom_site_fract_y
_atom_site_fract_z
Zn1	Zn	-0.545325	-1.834886	-0.383962
Zn2	Zn	-0.295325	-1.584886	-0.133962
Zn3	Zn	-0.045325	-1.334886	0.116038
Zn4	Zn	0.204675	-1.084886	0.366038
Zn5	Zn	-0.384026	-1.834754	-0.545283
Zn6	Zn	-0.134026	-1.584754	-0.295283
Zn7	Zn	0.115974	-1.334754	-0.045283
Zn8	Zn	0.365974	-1.084754	0.204717
Zn9	Zn	-0.384049	-1.634176	-0.384006
Zn10	Zn	-0.134049	-1.384176	-0.134006
Zn11	Zn	0.115951	-1.134176	0.115994
Zn12	Zn	0.365951	-0.884176	0.365994
Zn13	Zn	-0.545285	-1.634153	-0.545219
Zn14	Zn	-0.295285	-1.384153	-0.295219
Zn15	Zn	-0.045285	-1.134153	-0.045219
Zn16	Zn	0.204715	-0.884153	0.204781
O17	O	-0.464671	-1.734492	-0.464617
O18	O	-0.214671	-1.484492	-0.214617
O19	O	0.035329	-1.234492	0.035383
O20	O	0.285329	-0.984492	0.285383
O21	O	-0.523935	-2.002818	-0.405369
O22	O	-0.273935	-1.752818	-0.155369
O23	O	-0.023935	-1.502818	0.094631
O24	O	0.226065	-1.252818	0.344631
O25	O	-0.249048	-1.808101	-0.523935
O26	O	0.000952	-1.558101	-0.273935
O27	O	0.250952	-1.308101	-0.023935
O28	O	0.500952	-1.058101	0.226065
O29	O	-0.405469	-1.660865	-0.249019
O30	O	-0.155469	-1.410865	0.000981
O31	O	0.094531	-1.160865	0.250981
O32	O	0.344531	-0.910865	0.500981
O33	O	-0.405430	-2.002721	-0.523892
O34	O	-0.155430	-1.752721	-0.273892
O35	O	0.094570	-1.502721	-0.023892
O36	O	0.344570	-1.252721	0.226108
O37	O	-0.523958	-1.808326	-0.248986
O38	O	-0.273958	-1.558326	0.001014
O39	O	-0.023958	-1.308326	0.251014
O40	O	0.226042	-1.058326	0.501014
O41	O	-0.249065	-1.660738	-0.405446
O42	O	0.000935	-1.410738	-0.155446
O43	O	0.250935	-1.160738	0.094554
O44	O	0.500935	-0.910738	0.344554
O45	O	-0.405431	-1.466223	-0.405383
O46	O	-0.155431	-1.216223	-0.155383
O47	O	0.094569	-0.966223	0.094617
O48	O	0.344569	-0.716223	0.344617
O49	O	-0.680272	-1.660827	-0.523782
O50	O	-0.430272	-1.410827	-0.273782
O51	O	-0.180272	-1.160827	-0.023782
O52	O	0.069728	-0.910827	0.226218
O53	O	-0.523890	-1.466207	-0.523825
O54	O	-0.273890	-1.216207	-0.273825
O55	O	-0.023890	-0.966207	-0.023825
O56	O	0.226110	-0.716207	0.226175
O57	O	-0.680301	-1.808304	-0.405307
O58	O	-0.430301	-1.558304	-0.155307
O59	O	-0.180301	-1.308304	0.094693
O60	O	0.069699	-1.058304	0.344693
O61	O	-0.405391	-1.808079	-0.680256
O62	O	-0.155391	-1.558079	-0.430256
O63	O	0.094609	-1.308079	-0.180256
O64	O	0.344609	-1.058079	0.069744
O65	O	-0.523867	-1.660699	-0.680209
O66	O	-0.273867	-1.410699	-0.430209
O67	O	-0.023867	-1.160699	-0.180209
O68	O	0.226133	-0.910699	0.069791
C69	C	-0.464659	-1.422668	-0.464603
C70	C	-0.214659	-1.172668	-0.214603
C71	C	0.035341	-0.922668	0.035397
C72	C	0.285341	-0.672668	0.285397
C73	C	-0.464676	-1.289268	-0.464620
C74	C	-0.214676	-1.039268	-0.214620
C75	C	0.035324	-0.789268	0.035380
C76	C	0.285324	-0.539268	0.285380
C77	C	-0.716264	-1.734577	-0.464532
C78	C	-0.466264	-1.484577	-0.214532
C79	C	-0.216264	-1.234577	0.035468
C80	C	0.033736	-0.984577	0.285468
C81	C	-0.823478	-1.734614	-0.464496
C82	C	-0.573478	-1.484614	-0.214496
C83	C	-0.323478	-1.234614	0.035504
C84	C	-0.073478	-0.984614	0.285504
C85	C	-0.464643	-1.734405	-0.715232
C86	C	-0.214643	-1.484405	-0.465232
C87	C	0.035357	-1.234405	-0.215232
C88	C	0.285357	-0.984405	0.034768
C89	C	-0.464664	-1.734477	-0.822446
C90	C	-0.214664	-1.484477	-0.572446
C91	C	0.035336	-1.234477	-0.322446
C92	C	0.285336	-0.984477	-0.072446
C93	C	-1.019774	-1.734646	-0.464431
C94	C	-0.769774	-1.484646	-0.214431
C95	C	-0.519774	-1.234646	0.035569
C96	C	-0.269774	-0.984646	0.285569
C97	C	-0.910541	-1.734625	-0.464470
C98	C	-0.660541	-1.484625	-0.214470
C99	C	-0.410541	-1.234625	0.035530
C100	C	-0.160541	-0.984625	0.285530
C101	C	-0.214057	-1.734477	-0.464633
C102	C	0.035943	-1.484477	-0.214633
C103	C	0.285943	-1.234477	0.035367
C104	C	0.535943	-0.984477	0.285367
C105	C	-0.106844	-1.734673	-0.464397
C106	C	0.143156	-1.484673	-0.214397
C107	C	0.393156	-1.234673	0.035603
C108	C	0.643156	-0.984673	0.285603
C109	C	-0.464684	-2.047535	-0.464633
C110	C	-0.214684	-1.797535	-0.214633
C111	C	0.035316	-1.547535	0.035367
C112	C	0.285316	-1.297535	0.285367
C113	C	-0.464690	-2.180935	-0.464639
C114	C	-0.214690	-1.930935	-0.214639
C115	C	0.035310	-1.680935	0.035361
C116	C	0.285310	-1.430935	0.285361
C117	C	-0.464724	-1.734603	-1.018741
C118	C	-0.214724	-1.484603	-0.768741
C119	C	0.035276	-1.234603	-0.518741
C120	C	0.285276	-0.984603	-0.268741
C121	C	-0.464693	-1.734530	-0.909508
C122	C	-0.214693	-1.484530	-0.659508
C123	C	0.035307	-1.234530	-0.409508
C124	C	0.285307	-0.984530	-0.159508
C125	C	-0.464720	-1.734613	-0.213024
C126	C	-0.214720	-1.484613	0.036976
C127	C	0.035280	-1.234613	0.286976
C128	C	0.285280	-0.984613	0.536976
C129	C	-0.464741	-1.734664	-0.105811
C130	C	-0.214741	-1.484664	0.144189
C131	C	0.035259	-1.234664	0.394189
C132	C	0.285259	-0.984664	0.644189
