data_functionalizedCrystal
_audit_creation_method	'MofGen! by Chris Wilmer'
_symmetry_space_group_name_H-M	'P1'
_symmetry_Int_Tables_number	1
_symmetry_cell_setting	triclinic
loop_
_symmetry_equiv_pos_as_xyz
  x,y,z
_cell_length_a	15.995343
_cell_length_b	15.995292
_cell_length_c	15.186229
_cell_angle_alpha	89.999448
_cell_angle_beta	90.000963
_cell_angle_gamma	83.478900
loop_
_atom_site_label
_atom_site_type_symbol
_atom_site_fract_x
_atom_site_fract_y
_atom_site_fract_z
O1	O	1.110966	0.107897	-0.073134
O2	O	0.867187	0.121232	-0.073154
O3	O	0.995766	-0.007326	-0.073145
O4	O	0.982387	0.236456	-0.073143
O5	O	0.995757	-0.007328	0.073312
O6	O	0.867178	0.121230	0.073303
O7	O	1.110957	0.107896	0.073323
Zn8	Zn	0.989066	0.114563	0.096566
Zn9	Zn	0.989078	0.114565	-0.096397
O10	O	0.982379	0.236454	0.073314
C11	C	0.835988	0.120681	0.000072
C12	C	0.743037	0.119032	0.000064
C13	C	0.995217	-0.038523	0.000082
C14	C	0.993584	-0.131476	0.000075
C15	C	0.572852	0.116038	0.000075
C16	C	0.549525	0.023238	0.000075
C17	C	0.452848	0.021493	0.000412
C18	C	0.405292	0.113089	0.000086
C19	C	0.434369	0.159750	0.083554
C20	C	0.531162	0.160850	0.083619
C21	C	0.531082	0.162211	-0.082936
C22	C	0.434587	0.158785	-0.084028
C23	C	0.310595	0.111428	0.000095
C24	C	0.667549	0.117702	0.000072
C25	C	0.987583	-0.469214	0.000082
C26	C	1.080388	-0.445904	0.000417
C27	C	1.082152	-0.349229	0.000084
C28	C	0.990561	-0.301658	0.000079
C29	C	0.944168	-0.330757	-0.083556
C30	C	0.943051	-0.427547	-0.083623
C31	C	0.941146	-0.427407	0.082926
C32	C	0.944585	-0.330914	0.084028
C33	C	0.992239	-0.206962	0.000074
C34	C	0.985902	-0.563910	0.000081
C35	C	1.142156	0.108447	0.000095
C36	C	1.235107	0.110096	0.000098
C37	C	0.982927	0.267650	0.000086
C38	C	0.984560	0.360603	0.000087
N39	N	0.989065	0.114560	0.228259
N40	N	0.989086	0.114560	-0.228090
C41	C	1.046019	0.057654	0.453986
C42	C	1.046021	0.057652	0.546176
C43	C	0.932126	0.171470	0.546177
C44	C	0.932120	0.171467	0.453989
C45	C	0.989071	0.114560	0.407896
C46	C	0.989080	0.114561	0.592273
C47	C	0.989082	0.114559	0.692229
C48	C	0.989068	0.114561	0.307933
H49	H	0.433840	-0.015033	-0.059409
H50	H	0.876769	-0.298887	-0.086669
H51	H	1.092392	0.011313	0.583700
H52	H	0.875006	-0.442096	-0.087416
H53	H	0.976392	-0.310697	-0.145793
H54	H	0.557950	0.128912	0.146250
H55	H	0.577544	-0.012730	-0.059772
H56	H	0.885759	0.217803	0.583714
H57	H	0.885742	0.217807	0.416459
H58	H	1.118707	-0.330825	-0.059968
H59	H	0.970368	-0.455497	0.146321
H60	H	0.545721	0.228902	0.087189
H61	H	1.118486	-0.330206	0.060036
H62	H	0.414281	0.127733	0.145907
H63	H	0.872835	-0.441395	0.083485
H64	H	0.402509	0.227162	0.086424
H65	H	0.578514	-0.012146	0.059841
H66	H	0.416041	0.124805	-0.145779
H67	H	0.434415	-0.014863	0.060595
H68	H	0.545081	0.230517	-0.083740
H69	H	1.115964	-0.474922	-0.059219
H70	H	0.978366	-0.312350	0.145901
H71	H	1.092391	0.011316	0.416460
H72	H	0.559361	0.132933	-0.146222
H73	H	0.877733	-0.297943	0.089075
H74	H	0.401617	0.225620	-0.089326
H75	H	0.975188	-0.454364	-0.146139
H76	H	1.116156	-0.473903	0.060396
