data_functionalizedCrystal
_audit_creation_method	'MofGen! by Chris Wilmer'
_symmetry_space_group_name_H-M	'P1'
_symmetry_Int_Tables_number	1
_symmetry_cell_setting	triclinic
loop_
_symmetry_equiv_pos_as_xyz
  x,y,z
_cell_length_a	23.532361
_cell_length_b	23.532407
_cell_length_c	13.330367
_cell_angle_alpha	89.990692
_cell_angle_beta	89.996730
_cell_angle_gamma	82.839173
loop_
_atom_site_label
_atom_site_type_symbol
_atom_site_fract_x
_atom_site_fract_y
_atom_site_fract_z
O1	O	0.755279	0.069008	-0.083333
O2	O	1.255279	0.569008	0.416667
O3	O	0.589412	0.079039	-0.083359
O4	O	1.089412	0.579039	0.416641
O5	O	0.677347	-0.008909	-0.083327
O6	O	1.177347	0.491091	0.416673
O7	O	0.667344	0.156956	-0.083365
O8	O	1.167344	0.656956	0.416635
O9	O	0.677335	-0.008911	0.083521
O10	O	1.177335	0.491089	0.583521
O11	O	0.589399	0.079037	0.083489
O12	O	1.089399	0.579037	0.583489
O13	O	0.755267	0.069006	0.083514
O14	O	1.255267	0.569006	0.583514
Cu15	Cu	0.672332	0.074022	0.098736
Cu16	Cu	1.172332	0.574022	0.598736
Cu17	Cu	0.672347	0.074024	-0.098580
Cu18	Cu	1.172347	0.574024	0.401420
O19	O	0.667331	0.156954	0.083482
O20	O	1.167331	0.656954	0.583482
C21	C	0.568189	0.078787	0.000062
C22	C	1.068189	0.578787	0.500062
C23	C	0.504971	0.078032	0.000053
C24	C	1.004971	0.578032	0.500053
C25	C	0.231734	0.074729	-0.090888
C26	C	0.731734	0.574729	0.409112
C27	C	0.291134	0.075444	-0.090891
C28	C	0.791134	0.575444	0.409109
O29	O	0.321865	0.075795	-0.168238
O30	O	0.821865	0.575795	0.331762
N31	N	0.320832	0.075804	0.000058
N32	N	0.820832	0.575804	0.500058
C33	C	0.291129	0.075444	0.091015
C34	C	0.791129	0.575444	0.591015
O35	O	0.321845	0.075815	0.168374
O36	O	0.821845	0.575815	0.668374
C37	C	0.231731	0.074725	0.091016
C38	C	0.731731	0.574725	0.591016
C39	C	0.202035	0.074370	0.000062
C40	C	0.702035	0.574370	0.500062
C41	C	0.202038	0.074374	-0.181836
C42	C	0.702038	0.574374	0.318164
C43	C	0.142642	0.073661	-0.181833
C44	C	0.642642	0.573661	0.318167
C45	C	0.112942	0.073302	-0.090882
C46	C	0.612942	0.573302	0.409118
C47	C	0.142639	0.073657	0.000065
C48	C	0.642639	0.573657	0.500065
C49	C	0.202029	0.074360	0.181973
C50	C	0.702029	0.574360	0.681973
C51	C	0.142627	0.073640	0.181966
C52	C	0.642627	0.573640	0.681966
C53	C	0.112931	0.073286	0.091012
C54	C	0.612931	0.573286	0.591012
C55	C	0.053544	0.072584	0.091018
C56	C	0.553544	0.572584	0.591018
N57	N	0.023845	0.072224	0.000069
N58	N	0.523845	0.572224	0.500069
C59	C	0.053544	0.072583	-0.090881
C60	C	0.553544	0.572583	0.409119
C61	C	0.415869	0.076953	0.091005
C62	C	0.915869	0.576953	0.591005
C63	C	0.475266	0.077676	0.091004
C64	C	0.975266	0.577676	0.591004
C65	C	0.475266	0.077675	-0.090902
C66	C	0.975266	0.577675	0.409098
C67	C	0.415868	0.076956	-0.090901
C68	C	0.915868	0.576956	0.409099
C69	C	0.386171	0.076593	0.000056
C70	C	0.886171	0.576593	0.500056
C71	C	-0.071191	0.071084	-0.090868
C72	C	0.428809	0.571084	0.409132
C73	C	-0.130593	0.070373	-0.090857
C74	C	0.369407	0.570373	0.409143
C75	C	-0.130588	0.070370	0.091049
C76	C	0.369412	0.570370	0.591049
C77	C	-0.071192	0.071085	0.091039
C78	C	0.428808	0.571085	0.591039
C79	C	-0.041495	0.071440	0.000072
C80	C	0.458505	0.571440	0.500072
O81	O	0.022774	0.072230	0.168325
O82	O	0.522774	0.572230	0.668325
O83	O	0.022823	0.072204	-0.168227
O84	O	0.522823	0.572204	0.331773
C85	C	0.677086	-0.030126	0.000099
C86	C	1.177086	0.469874	0.500099
C87	C	0.676320	-0.093343	0.000107
C88	C	1.176320	0.406657	0.500107
C89	C	0.723555	-0.492454	0.000059
C90	C	1.223555	0.007546	0.500059
C91	C	0.722844	-0.551854	0.000052
C92	C	1.222844	-0.051854	0.500052
O93	O	0.766630	-0.588606	0.000021
O94	O	1.266630	-0.088606	0.500021
N95	N	0.670566	-0.574471	0.000044
N96	N	1.170566	-0.074471	0.500044
C97	C	0.618997	-0.537685	0.000035
C98	C	1.118997	-0.037685	0.500035
O99	O	0.574465	-0.562377	0.000027
O100	O	1.074465	-0.062377	0.500027
C101	C	0.619709	-0.478286	0.000035
C102	C	1.119709	0.021714	0.500035
C103	C	0.671990	-0.455672	0.000053
C104	C	1.171990	0.044328	0.500053
C105	C	0.775832	-0.469839	0.000076
C106	C	1.275832	0.030161	0.500076
C107	C	0.776543	-0.410443	0.000085
C108	C	1.276543	0.089557	0.500085
C109	C	0.724977	-0.373662	0.000079
C110	C	1.224977	0.126338	0.500079
C111	C	0.672701	-0.396276	0.000062
C112	C	1.172701	0.103724	0.500062
C113	C	0.568140	-0.441501	0.000018
C114	C	1.068140	0.058499	0.500018
C115	C	0.568857	-0.382099	0.000018
C116	C	1.068857	0.117901	0.500018
C117	C	0.621137	-0.359485	0.000035
C118	C	1.121137	0.140515	0.500035
C119	C	0.621847	-0.300099	0.000065
C120	C	1.121847	0.199901	0.500065
N121	N	0.674124	-0.277481	0.000072
N122	N	1.174124	0.222519	0.500072
C123	C	0.725690	-0.314263	0.000079
C124	C	1.225690	0.185737	0.500079
C125	C	0.617505	-0.662427	0.000032
C126	C	1.117505	-0.162427	0.500032
C127	C	0.616793	-0.721825	0.000038
C128	C	1.116793	-0.221825	0.500038
C129	C	0.720640	-0.735990	0.000053
C130	C	1.220640	-0.235990	0.500053
C131	C	0.721352	-0.676591	0.000054
C132	C	1.221352	-0.176591	0.500054
C133	C	0.669783	-0.639810	0.000039
C134	C	1.169783	-0.139810	0.500039
C135	C	0.727179	-0.189526	0.000100
C136	C	1.227179	0.310474	0.500100
C137	C	0.727886	-0.130124	0.000114
C138	C	1.227886	0.369876	0.500114
C139	C	0.624039	-0.115965	0.000093
C140	C	1.124039	0.384035	0.500093
C141	C	0.623332	-0.175361	0.000085
C142	C	1.123332	0.324639	0.500085
C143	C	0.674907	-0.212141	0.000085
C144	C	1.174907	0.287859	0.500085
O145	O	0.578083	-0.263312	0.000091
O146	O	1.078083	0.236688	0.500091
O147	O	0.770214	-0.289562	0.000074
O148	O	1.270214	0.210438	0.500074
C149	C	0.776489	0.069258	0.000091
C150	C	1.276489	0.569258	0.500091
C151	C	0.839708	0.070014	0.000094
C152	C	1.339708	0.570014	0.500094
C153	C	0.667592	0.178171	0.000054
C154	C	1.167592	0.678171	0.500054
C155	C	0.668358	0.241388	0.000040
C156	C	1.168358	0.741388	0.500040
N157	N	0.672326	0.074020	0.237517
N158	N	1.172326	0.574020	0.737517
N159	N	0.672358	0.074021	-0.237362
N160	N	1.172358	0.574021	0.262638
C161	C	0.633408	0.112952	0.710126
C162	C	1.133408	0.612952	1.210126
C163	C	0.711302	0.035091	0.710122
C164	C	1.211302	0.535091	1.210122
C165	C	0.711295	0.035089	0.605104
C166	C	1.211295	0.535089	1.105104
C167	C	0.672345	0.074020	0.552592
C168	C	1.172345	0.574020	1.052592
C169	C	0.633401	0.112953	0.605098
C170	C	1.133401	0.612953	1.105098
C171	C	0.750242	-0.003839	0.552590
C172	C	1.250242	0.496161	1.052590
C173	C	0.750238	-0.003841	0.447565
C174	C	1.250238	0.496159	0.947565
C175	C	0.711284	0.035087	0.395051
C176	C	1.211284	0.535087	0.895051
C177	C	0.672338	0.074021	0.447564
C178	C	1.172338	0.574021	0.947564
C179	C	0.633388	0.112951	0.395052
C180	C	1.133388	0.612951	0.895052
C181	C	0.594439	0.151883	0.447562
C182	C	1.094439	0.651883	0.947562
C183	C	0.594448	0.151881	0.552584
C184	C	1.094448	0.651881	1.052584
C185	C	0.711276	0.035089	0.290029
C186	C	1.211276	0.535089	0.790029
C187	C	0.633382	0.112952	0.290024
C188	C	1.133382	0.612952	0.790024
H189	H	0.118468	0.073369	-0.255897
H190	H	0.618468	0.573369	0.244103
H191	H	0.743017	0.003397	0.752881
H192	H	1.243017	0.503397	1.252881
Br193	Br	0.242316	0.074842	0.305419
Br194	Br	0.742316	0.574842	0.805419
H195	H	0.601661	0.144652	0.247274
H196	H	1.101661	0.644652	0.747274
Br197	Br	0.845823	-0.519747	0.000084
Br198	Br	1.345823	-0.019747	0.500084
H199	H	0.391693	0.076668	-0.164964
H200	H	0.891693	0.576668	0.335036
Br201	Br	0.803107	-0.056666	0.623852
Br202	Br	1.303107	0.443334	1.123852
H203	H	0.226213	0.074665	-0.255902
H204	H	0.726213	0.574665	0.244098
H205	H	0.769176	-0.219466	0.000096
H206	H	1.269176	0.280534	0.500096
H207	H	0.819115	-0.392037	0.000095
H208	H	1.319115	0.107963	0.500095
Br209	Br	0.580546	0.165782	0.781383
Br210	Br	1.080546	0.665782	1.281383
H211	H	0.781951	-0.035542	0.404817
H212	H	1.281951	0.464458	0.904817
Br213	Br	0.515559	0.078171	0.214447
Br214	Br	1.015559	0.578171	0.714447
H215	H	0.574220	-0.740232	0.000041
H216	H	1.074220	-0.240232	0.500041
Br217	Br	0.375570	0.076466	0.214458
Br218	Br	0.875570	0.576466	0.714458
Br219	Br	-0.170892	0.069895	-0.214303
Br220	Br	0.329108	0.569895	0.285697
Br221	Br	-0.030897	0.071566	-0.214323
Br222	Br	0.469103	0.571566	0.285677
H223	H	-0.047013	0.071384	0.165101
H224	H	0.452987	0.571384	0.665101
H225	H	0.499458	0.077967	-0.164959
H226	H	0.999458	0.577967	0.335041
H227	H	-0.154780	0.070080	0.165098
H228	H	0.345220	0.570080	0.665098
H229	H	0.562728	0.183583	0.404795
H230	H	1.062728	0.683583	0.904795
Br231	Br	0.798843	-0.099438	0.000139
Br232	Br	1.298843	0.400562	0.500139
H233	H	0.525567	-0.459902	-0.000002
H234	H	1.025567	0.040098	0.499998
Br235	Br	0.790622	-0.785919	0.000059
Br236	Br	1.290622	-0.285919	0.500059
Br237	Br	0.547512	-0.612515	0.000020
Br238	Br	1.047512	-0.112515	0.500020
Br239	Br	0.792306	-0.645907	0.000080
Br240	Br	1.292306	-0.145907	0.500080
Br241	Br	0.552379	-0.206053	0.000084
Br242	Br	1.052379	0.293947	0.500084
H243	H	0.118450	0.073349	0.256036
H244	H	0.618450	0.573349	0.756036
Br245	Br	0.498866	-0.332184	-0.000007
Br246	Br	0.998866	0.167816	0.499993
H247	H	0.582056	-0.086007	0.000091
H248	H	1.082056	0.413993	0.500091
H249	H	0.562737	0.183578	0.595345
H250	H	1.062737	0.683578	1.095345
Br251	Br	0.764136	-0.017737	0.218771
Br252	Br	1.264136	0.482263	0.718771
