data_functionalizedCrystal
_audit_creation_method	'MofGen! by Chris Wilmer'
_symmetry_space_group_name_H-M	'P1'
_symmetry_Int_Tables_number	1
_symmetry_cell_setting	triclinic
loop_
_symmetry_equiv_pos_as_xyz
  x,y,z
_cell_length_a	15.944551
_cell_length_b	11.026607
_cell_length_c	10.065875
_cell_angle_alpha	79.302338
_cell_angle_beta	98.788968
_cell_angle_gamma	96.042377
loop_
_atom_site_label
_atom_site_type_symbol
_atom_site_fract_x
_atom_site_fract_y
_atom_site_fract_z
O1	O	0.342077	1.627949	-0.113512
O2	O	0.302024	1.274640	-0.113511
O3	O	0.201235	1.460941	-0.113499
O4	O	0.442866	1.441648	-0.113524
O5	O	0.220553	1.425416	0.113487
O6	O	0.321342	1.239115	0.113475
O7	O	0.361394	1.592424	0.113475
Zn8	Zn	0.344435	1.410129	0.149514
Zn9	Zn	0.318983	1.456935	-0.149550
O10	O	0.462183	1.406123	0.113463
C11	C	0.304294	1.211666	-0.000018
C12	C	0.282267	1.076950	-0.000017
C13	C	0.343086	1.003150	-0.000024
C14	C	0.320322	0.863914	-0.000024
C15	C	0.179479	1.442377	-0.000006
C16	C	0.085870	1.439975	-0.000005
C17	C	-0.147313	1.318759	-0.000024
C18	C	-0.190296	1.357533	0.111894
C19	C	-0.085514	1.435632	-0.000015
C20	C	-0.209321	1.392586	-0.111896
C21	C	-0.251063	1.431429	-0.000031
C22	C	-0.127256	1.474424	0.111995
C23	C	-0.146286	1.509476	-0.111896
C24	C	-0.189236	1.548331	0.000049
C25	C	0.009855	1.438050	-0.000005
C26	C	-0.346429	1.429019	-0.000032
C27	C	0.483939	1.424687	-0.000034
C28	C	0.577548	1.427090	-0.000043
C29	C	0.359124	1.655399	-0.000022
C30	C	0.381150	1.790116	-0.000031
N31	N	0.361806	1.378194	0.353617
N32	N	0.301607	1.488879	-0.353654
C33	C	0.325021	1.445816	0.421401
C34	C	0.338398	1.421248	0.578566
H35	H	0.412009	1.043047	-0.000024
C36	C	-0.165203	1.144143	-0.115891
C37	C	-0.122133	1.187776	0.000120
H38	H	-0.149661	1.063278	-0.115790
H39	H	-0.150300	1.197931	-0.195480
H40	H	-0.224861	1.141610	-0.115063
H41	H	-0.062475	1.190318	-0.000713
H42	H	-0.137031	1.133973	0.079729
H43	H	-0.244926	1.357946	-0.206521
H44	H	0.251392	0.824027	-0.000052
C45	C	0.478741	0.971473	-0.000087
C46	C	0.474199	0.843960	-0.000073
H47	H	0.536184	1.004713	-0.000130
H48	H	0.458320	0.985712	0.079077
H49	H	0.444810	1.010472	-0.079234
H50	H	0.508125	0.804959	0.079080
H51	H	0.494631	0.829711	-0.079245
H52	H	0.403200	1.302107	0.411939
H53	H	-0.209825	1.293291	0.206512
C54	C	-0.142167	1.715864	-0.240792
C55	C	-0.119893	1.596144	-0.239630
H56	H	-0.125877	1.769359	-0.319663
H57	H	-0.113767	1.745051	-0.161358
H58	H	-0.201969	1.714377	-0.242168
H59	H	-0.060090	1.597630	-0.238244
H60	H	-0.148291	1.566950	-0.319085
C61	C	0.425737	1.260694	0.564553
C62	C	0.394283	1.318525	0.657278
H63	H	0.460232	1.197274	0.613150
H64	H	0.458806	1.320009	0.508812
H65	H	0.379501	1.225560	0.508825
H66	H	0.440519	1.353667	0.712999
H67	H	0.361213	1.259200	0.713043
C68	C	0.184679	0.895594	-0.000020
C69	C	0.189220	1.023104	-0.000015
H70	H	0.127233	0.862359	-0.000028
H71	H	0.218586	0.856585	0.079130
H72	H	0.205126	0.881366	-0.079181
H73	H	0.168779	1.037331	0.079152
H74	H	0.155301	1.062124	-0.079173
C75	C	0.008515	1.522847	0.238753
C76	C	-0.079315	1.521082	0.239874
H77	H	0.038110	1.551641	0.317705
H78	H	0.023883	1.576507	0.159387
H79	H	0.023117	1.441583	0.238429
H80	H	-0.093918	1.602348	0.240187
H81	H	-0.094690	1.467421	0.319260
C82	C	-0.172132	1.721923	0.117408
C83	C	-0.214190	1.679388	0.000131
H84	H	-0.187544	1.802826	0.117464
H85	H	-0.112358	1.724031	0.118149
H86	H	-0.187984	1.667766	0.196147
H87	H	-0.198333	1.733540	-0.078609
H88	H	-0.273977	1.677289	-0.000623
C89	C	0.214259	1.649420	0.660366
C90	C	0.245715	1.591595	0.567637
H91	H	0.179751	1.712825	0.611772
H92	H	0.260486	1.684561	0.716080
H93	H	0.181195	1.590089	0.716120
H94	H	0.278785	1.650925	0.511890
H95	H	0.199481	1.556455	0.511900
H96	H	0.283620	1.521895	0.363081
