data_functionalizedCrystal
_audit_creation_method	'MofGen! by Chris Wilmer'
_symmetry_space_group_name_H-M	'P1'
_symmetry_Int_Tables_number	1
_symmetry_cell_setting	triclinic
loop_
_symmetry_equiv_pos_as_xyz
  x,y,z
_cell_length_a	8.634740
_cell_length_b	11.792241
_cell_length_c	7.088929
_cell_angle_alpha	83.733449
_cell_angle_beta	97.174675
_cell_angle_gamma	92.381861
loop_
_atom_site_label
_atom_site_type_symbol
_atom_site_fract_x
_atom_site_fract_y
_atom_site_fract_z
O1	O	2.033409	0.380327	-0.159001
O2	O	2.533409	0.880327	0.340999
O3	O	1.584198	0.349270	-0.159002
O4	O	2.084198	0.849270	0.340998
O5	O	1.819706	0.200770	-0.158988
O6	O	2.319706	0.700770	0.341012
O7	O	1.797901	0.528827	-0.159015
O8	O	2.297901	1.028827	0.340985
O9	O	1.851179	0.180872	0.158989
O10	O	2.351179	0.680872	0.658989
O11	O	1.615671	0.329371	0.158975
O12	O	2.115671	0.829371	0.658975
O13	O	2.064882	0.360429	0.158976
O14	O	2.564882	0.860429	0.658976
Cu15	Cu	1.843150	0.343083	0.188009
Cu16	Cu	2.343150	0.843083	0.688009
Cu17	Cu	1.805930	0.366615	-0.188036
Cu18	Cu	2.305930	0.866615	0.311964
O19	O	1.829374	0.508929	0.158962
O20	O	2.329374	1.008929	0.658962
C21	C	1.542425	0.332285	-0.000014
C22	C	2.042425	0.832285	0.499986
C23	C	1.371067	0.311307	-0.000014
C24	C	1.871067	0.811307	0.499986
C25	C	1.834073	0.148386	-0.000000
C26	C	2.334073	0.648386	0.500000
C27	C	1.829974	0.021943	-0.000002
C28	C	2.329974	0.521943	0.499998
C29	C	1.822433	-0.209557	-0.000034
C30	C	2.322433	0.290443	0.499966
C31	C	1.826623	-0.080734	-0.000017
C32	C	2.326623	0.419266	0.499983
C33	C	2.106654	0.377414	-0.000017
C34	C	2.606654	0.877414	0.499983
C35	C	2.278012	0.398393	-0.000029
C36	C	2.778012	0.898393	0.499971
C37	C	1.815007	0.561313	-0.000030
C38	C	2.315007	1.061313	0.499970
C39	C	1.819105	0.687757	-0.000041
C40	C	2.319105	1.187757	0.499959
N41	N	1.869340	0.326533	0.452499
N42	N	2.369340	0.826533	0.952499
N43	N	1.779752	0.383158	-0.452525
N44	N	2.279752	0.883158	0.047475
H45	H	1.329441	0.488999	-0.000019
H46	H	1.829441	0.988999	0.499981
H47	H	1.962206	0.267859	0.534160
H48	H	2.462206	0.767859	1.034160
H49	H	1.319627	0.220697	-0.000061
H50	H	1.819627	0.720697	0.499939
H51	H	1.686904	0.441838	0.465823
H52	H	2.186904	0.941838	0.965823
