data_functionalizedCrystal
_audit_creation_method	'MofGen! by Chris Wilmer'
_symmetry_space_group_name_H-M	'P1'
_symmetry_Int_Tables_number	1
_symmetry_cell_setting	triclinic
loop_
_symmetry_equiv_pos_as_xyz
  x,y,z
_cell_length_a	19.077105
_cell_length_b	16.625546
_cell_length_c	16.625539
_cell_angle_alpha	90.028532
_cell_angle_beta	92.314163
_cell_angle_gamma	87.718759
loop_
_atom_site_label
_atom_site_type_symbol
_atom_site_fract_x
_atom_site_fract_y
_atom_site_fract_z
Zn1	Zn	1.075977	-0.370618	0.505359
Zn2	Zn	1.575977	0.129382	1.005359
Zn3	Zn	1.075900	-0.505453	0.370518
Zn4	Zn	1.575900	-0.005453	0.870518
Zn5	Zn	0.958284	-0.365216	0.365129
Zn6	Zn	1.458284	0.134784	0.865129
Zn7	Zn	0.958251	-0.499985	0.499900
Zn8	Zn	1.458251	0.000015	0.999900
O9	O	1.017103	-0.435318	0.435227
O10	O	1.517103	0.064682	0.935227
O11	O	1.174458	-0.393053	0.492012
O12	O	1.674458	0.106947	0.992012
O13	O	1.060279	-0.486878	0.256970
O14	O	1.560279	0.013122	0.756970
O15	O	0.973943	-0.253103	0.383761
O16	O	1.473943	0.246897	0.883761
O17	O	1.174401	-0.492116	0.392945
O18	O	1.674401	0.007884	0.892945
O19	O	1.060411	-0.257071	0.486787
O20	O	1.560411	0.242929	0.986787
O21	O	0.973868	-0.383847	0.253011
O22	O	1.473868	0.116153	0.753011
O23	O	0.859789	-0.378545	0.378467
O24	O	1.359789	0.121455	0.878467
O25	O	0.973887	-0.482797	0.613457
O26	O	1.473887	0.017203	1.113457
O27	O	0.859765	-0.477559	0.477482
O28	O	1.359765	0.022441	0.977482
O29	O	1.060379	-0.387751	0.617468
O30	O	1.560379	0.112249	1.117468
O31	O	1.060247	-0.617558	0.387651
O32	O	1.560247	-0.117558	0.887651
O33	O	0.973812	-0.613541	0.482707
O34	O	1.473812	-0.113541	0.982707
C35	C	0.834240	-0.426873	0.426798
C36	C	1.334240	0.073127	0.926798
C37	C	0.756010	-0.423279	0.423211
C38	C	1.256010	0.076721	0.923211
C39	C	1.017037	-0.644806	0.435190
C40	C	1.517037	-0.144806	0.935190
C41	C	1.017072	-0.734429	0.435204
C42	C	1.517072	-0.234429	0.935204
C43	C	0.719263	-0.473220	0.472997
C44	C	1.219263	0.026780	0.972997
C45	C	0.645758	-0.469833	0.469631
C46	C	1.145758	0.030167	0.969631
C47	C	0.609000	-0.416508	0.416474
C48	C	1.109000	0.083492	0.916474
C49	C	0.645752	-0.366562	0.366687
C50	C	1.145752	0.133438	0.866687
C51	C	0.719256	-0.369946	0.370057
C52	C	1.219256	0.130054	0.870057
C53	C	0.389167	-0.400848	0.400878
C54	C	0.889167	0.099152	0.900878
C55	C	0.315657	-0.397470	0.397509
C56	C	0.815657	0.102530	0.897509
C57	C	0.315668	-0.500740	0.500455
C58	C	0.815668	-0.000740	1.000455
C59	C	0.389173	-0.504122	0.503817
C60	C	0.889173	-0.004122	1.003817
C61	C	0.425919	-0.454173	0.454033
C62	C	0.925919	0.045827	0.954033
N63	N	0.533866	-0.413046	0.413030
N64	N	1.033866	0.086954	0.913030
N65	N	0.501051	-0.457631	0.457481
N66	N	1.001051	0.042369	0.957481
C67	C	1.017195	-1.062610	0.435294
C68	C	1.517195	-0.562610	0.935294
C69	C	1.017159	-0.971300	0.435271
C70	C	1.517159	-0.471300	0.935271
C71	C	1.017133	-0.898522	0.435248
C72	C	1.517133	-0.398522	0.935248
C73	C	1.017098	-0.807206	0.435226
C74	C	1.517098	-0.307206	0.935226
C75	C	1.200681	-0.443797	0.443689
C76	C	1.700681	0.056203	0.943689
C77	C	1.278911	-0.447411	0.447294
C78	C	1.778911	0.052589	0.947294
C79	C	1.017138	-0.435267	0.645537
C80	C	1.517138	0.064733	1.145537
C81	C	1.017152	-0.435245	0.735159
C82	C	1.517152	0.064755	1.235159
C83	C	1.017189	-0.225013	0.435282
C84	C	1.517189	0.274987	0.935282
C85	C	1.017226	-0.135394	0.435306
C86	C	1.517226	0.364606	0.935306
C87	C	1.017109	-0.435313	0.225736
C88	C	1.517109	0.064687	0.725736
C89	C	1.017231	-0.435114	0.136121
C90	C	1.517231	0.064886	0.636121
C91	C	1.017164	-0.435227	0.807942
C92	C	1.517164	0.064773	1.307942
C93	C	1.017180	-0.435198	0.899251
C94	C	1.517180	0.064802	1.399251
C95	C	1.017197	-0.435170	0.972029
C96	C	1.517197	0.064830	1.472029
C97	C	1.017214	-0.435142	1.063344
C98	C	1.517214	0.064858	1.563344
H99	H	0.749185	-0.516645	0.516280
H100	H	1.249185	-0.016645	1.016280
H101	H	0.749175	-0.329274	0.329521
H102	H	1.249175	0.170726	0.829521
Cl103	Cl	0.435377	-0.571164	0.570643
Cl104	Cl	0.935377	-0.071164	1.070643
H105	H	0.615819	-0.323140	0.323409
H106	H	1.115819	0.176860	0.823409
Cl107	Cl	0.599565	-0.532619	0.532222
Cl108	Cl	1.099565	-0.032619	1.032222
H109	H	0.285742	-0.541405	0.540988
H110	H	0.785742	-0.041405	1.040988
H111	H	0.285732	-0.354037	0.354227
H112	H	0.785732	0.145963	0.854227
Cl113	Cl	0.435351	-0.338052	0.338293
Cl114	Cl	0.935351	0.161948	0.838293
