data_functionalizedCrystal
_audit_creation_method	'MofGen! by Chris Wilmer'
_symmetry_space_group_name_H-M	'P1'
_symmetry_Int_Tables_number	1
_symmetry_cell_setting	triclinic
loop_
_symmetry_equiv_pos_as_xyz
  x,y,z
_cell_length_a	13.897449
_cell_length_b	12.759401
_cell_length_c	12.759393
_cell_angle_alpha	90.020938
_cell_angle_beta	89.976705
_cell_angle_gamma	89.995856
loop_
_atom_site_label
_atom_site_type_symbol
_atom_site_fract_x
_atom_site_fract_y
_atom_site_fract_z
Zn1	Zn	0.383929	1.606355	0.594073
Zn2	Zn	0.545255	1.606283	0.418415
Zn3	Zn	0.383980	1.430653	0.418408
Zn4	Zn	0.545188	1.430682	0.594052
O5	O	0.464588	1.518493	0.506237
O6	O	0.405336	1.753366	0.570783
O7	O	0.523911	1.582943	0.271393
O8	O	0.248992	1.453978	0.441716
O9	O	0.523862	1.753313	0.441728
O10	O	0.248954	1.583065	0.570776
O11	O	0.405423	1.453909	0.271388
O12	O	0.405358	1.283636	0.441696
O13	O	0.523747	1.454028	0.741076
O14	O	0.523797	1.283657	0.570741
O15	O	0.405271	1.583093	0.741091
O16	O	0.680228	1.582971	0.441708
O17	O	0.680178	1.453958	0.570748
C18	C	0.464576	1.245526	0.506216
C19	C	0.464594	1.128749	0.506232
C20	C	0.212995	1.518527	0.506247
C21	C	0.105781	1.518541	0.506252
C22	C	0.526359	1.073926	0.573320
C23	C	0.526363	0.964202	0.573341
C24	C	0.402834	0.964134	0.439177
C25	C	0.402827	1.073856	0.439162
C26	C	0.560974	0.814314	0.697206
C27	C	0.622754	0.759487	0.764285
C28	C	0.716889	0.795106	0.780246
C29	C	0.749263	0.885551	0.729112
C30	C	0.687488	0.940372	0.662026
C31	C	0.593340	0.904754	0.646085
C32	C	0.368225	1.223746	0.315295
C33	C	0.306454	1.278570	0.248203
C34	C	0.212318	1.242952	0.232231
C35	C	0.179948	1.152504	0.283346
C36	C	0.241718	1.097681	0.350439
C37	C	0.335854	1.133306	0.366412
C38	C	-0.090514	1.518573	0.506285
C39	C	0.018719	1.518558	0.506270
C40	C	0.715202	1.518488	0.506249
C41	C	0.822416	1.518582	0.506290
C42	C	0.464495	1.518572	0.780270
C43	C	0.464456	1.518605	0.897047
C44	C	0.464601	1.792526	0.506258
C45	C	0.464606	1.909303	0.506268
C46	C	0.464611	1.518475	0.233270
C47	C	0.464378	1.518645	0.116493
C48	C	0.402756	1.585815	0.951919
C49	C	0.402714	1.585833	1.061643
C50	C	0.526082	1.451428	1.061614
C51	C	0.526118	1.451406	0.951892
C52	C	0.288908	1.623418	1.211605
C53	C	0.227216	1.690644	1.266481
C54	C	0.212425	1.793154	1.230887
C55	C	0.259340	1.828458	1.140420
C56	C	0.321039	1.761238	1.085551
C57	C	0.335812	1.658714	1.121142
C58	C	0.639925	1.413831	0.801928
C59	C	0.701629	1.346615	0.747056
C60	C	0.716431	1.244104	0.782647
C61	C	0.669533	1.208803	0.873118
C62	C	0.607828	1.276019	0.927989
C63	C	0.593025	1.378529	0.892390
H64	H	0.576652	1.118617	0.627936
H65	H	0.825921	0.914538	0.742104
H66	H	0.596386	0.685847	0.805919
H67	H	0.189018	1.661890	1.340139
C68	C	0.144562	1.867097	1.291245
H69	H	0.118738	1.831390	1.350214
H70	H	0.179437	1.926862	1.314221
H71	H	0.093626	1.888639	1.246534
C72	C	0.784309	1.170170	0.722291
H73	H	0.810123	1.205870	0.663312
H74	H	0.835238	1.148625	0.766999
H75	H	0.749428	1.110403	0.699309
H76	H	0.359239	1.789984	1.011897
C77	C	0.305172	1.510653	1.250752
H78	H	0.348625	1.475668	1.205111
H79	H	0.331368	1.512464	1.319482
H80	H	0.245550	1.474251	1.251798
H81	H	0.215351	1.024038	0.392066
H82	H	0.103300	1.123492	0.270325
C83	C	0.753218	1.385445	0.647540
H84	H	0.735557	1.456120	0.634191
H85	H	0.820859	1.381206	0.657350
H86	H	0.735045	1.342968	0.589677
C87	C	0.457420	0.775141	0.679661
H88	H	0.425259	0.820750	0.632396
H89	H	0.459043	0.706395	0.651110
H90	H	0.424065	0.774126	0.744657
H91	H	0.767190	0.750458	0.834864
H92	H	0.332819	1.352217	0.206581
H93	H	0.247298	1.911935	1.111453
C94	C	0.334906	0.903749	0.365394
H95	H	0.343763	0.830550	0.375002
H96	H	0.270110	0.921734	0.380875
H97	H	0.348954	0.921699	0.294775
C98	C	0.334926	1.659721	0.891588
H99	H	0.343789	1.650091	0.818381
H100	H	0.270110	1.644359	0.909570
H101	H	0.349047	1.730317	0.909582
H102	H	0.713847	1.014010	0.620393
C103	C	0.144373	1.303257	0.158428
H104	H	0.177129	1.362227	0.130270
H105	H	0.124532	1.258516	0.102978
H106	H	0.089541	1.326249	0.196518
C107	C	0.593912	1.377525	1.121947
H108	H	0.585062	1.387171	1.195153
H109	H	0.579800	1.306932	1.103957
H110	H	0.658731	1.392897	1.103961
H111	H	0.444876	1.252761	0.328303
H112	H	0.569642	1.247269	1.001656
H113	H	0.681588	1.125332	0.902100
C114	C	0.623644	1.526595	0.762773
H115	H	0.660424	1.537997	0.701044
H116	H	0.557339	1.536569	0.747716
H117	H	0.643149	1.574792	0.815406
