data_functionalizedCrystal
_audit_creation_method	'MofGen! by Chris Wilmer'
_symmetry_space_group_name_H-M	'P1'
_symmetry_Int_Tables_number	1
_symmetry_cell_setting	triclinic
loop_
_symmetry_equiv_pos_as_xyz
  x,y,z
_cell_length_a	18.215407
_cell_length_b	10.686285
_cell_length_c	18.215399
_cell_angle_alpha	94.390852
_cell_angle_beta	90.017368
_cell_angle_gamma	85.629207
loop_
_atom_site_label
_atom_site_type_symbol
_atom_site_fract_x
_atom_site_fract_y
_atom_site_fract_z
Zn1	Zn	1.147644	-0.502447	0.393650
Zn2	Zn	1.157032	-0.713463	0.261169
Zn3	Zn	1.024578	-0.502477	0.270601
Zn4	Zn	1.034018	-0.713382	0.384203
O5	O	1.090818	-0.607942	0.327406
O6	O	1.251874	-0.530460	0.376082
O7	O	1.139439	-0.685522	0.159434
O8	O	1.033023	-0.325897	0.294825
O9	O	1.258772	-0.685493	0.278749
O10	O	1.123439	-0.325875	0.385229
O11	O	1.042126	-0.530511	0.166364
O12	O	0.922845	-0.530433	0.285665
O13	O	1.049113	-0.685354	0.488442
O14	O	0.929781	-0.685384	0.369127
O15	O	1.132593	-0.530381	0.495383
O16	O	1.148594	-0.890028	0.269588
O17	O	1.058216	-0.889969	0.359981
C18	C	0.899610	-0.607904	0.327395
C19	C	0.817812	-0.607917	0.327406
C20	C	0.626033	-0.527358	0.378154
C21	C	0.549174	-0.527369	0.378156
C22	C	0.556357	-0.688562	0.276668
C23	C	0.633213	-0.688544	0.276664
C24	C	0.668049	-0.607944	0.327411
C25	C	0.514334	-0.607973	0.327417
C26	C	0.431001	-0.607985	0.327419
C27	C	0.751388	-0.607929	0.327408
C28	C	1.105468	-0.935783	0.312752
C29	C	1.111803	-1.076034	0.306507
C30	C	1.282772	-0.607982	0.327417
C31	C	1.364572	-0.607999	0.327422
C32	C	1.090859	-0.607855	0.519363
C33	C	1.090876	-0.607818	0.601163
C34	C	1.076131	-0.278822	0.342133
C35	C	1.069872	-0.138570	0.348409
C36	C	1.090815	-0.607938	0.136200
C37	C	1.090924	-0.607620	0.054415
C38	C	1.134358	-0.527048	0.792976
C39	C	1.134365	-0.527011	0.869836
C40	C	1.047438	-0.688393	0.862597
C41	C	1.047427	-0.688423	0.785738
C42	C	1.090891	-0.607752	0.750930
C43	C	1.090909	-0.607686	0.904649
C44	C	1.090917	-0.607647	0.987984
C45	C	1.090883	-0.607789	0.667589
H46	H	0.527984	-0.754185	0.235353
H47	H	1.152545	-1.129797	0.265848
F48	F	1.016615	-1.068309	0.401545
H49	H	1.169758	-0.461292	0.904067
F50	F	1.180614	-0.441188	0.755933
H51	H	1.012052	-0.754075	0.890948
F52	F	1.001158	-0.774317	0.740987
H53	H	0.654393	-0.461724	0.419474
H54	H	0.667424	-0.754168	0.235338
F55	F	0.504460	-0.441596	0.432164
