data_functionalizedCrystal
_audit_creation_method	'MofGen! by Chris Wilmer'
_symmetry_space_group_name_H-M	'P1'
_symmetry_Int_Tables_number	1
_symmetry_cell_setting	triclinic
loop_
_symmetry_equiv_pos_as_xyz
  x,y,z
_cell_length_a	14.519731
_cell_length_b	13.596369
_cell_length_c	10.723024
_cell_angle_alpha	90.004807
_cell_angle_beta	84.078361
_cell_angle_gamma	90.005416
loop_
_atom_site_label
_atom_site_type_symbol
_atom_site_fract_x
_atom_site_fract_y
_atom_site_fract_z
O1	O	1.224692	0.081791	0.163703
O2	O	1.724692	0.581791	0.663703
O3	O	0.956316	0.081792	0.182938
O4	O	1.456316	0.581792	0.682938
O5	O	1.096695	0.081788	-0.008313
O6	O	1.596695	0.581788	0.491687
O7	O	1.084314	0.081795	0.354954
O8	O	1.584314	0.581795	0.854954
O9	O	1.096681	-0.081795	-0.008323
O10	O	1.596681	0.418205	0.491677
O11	O	0.956302	-0.081791	0.182928
O12	O	1.456302	0.418209	0.682928
O13	O	1.224678	-0.081792	0.163693
O14	O	1.724678	0.418208	0.663693
Zn15	Zn	1.090488	-0.107764	0.173309
Zn16	Zn	1.590488	0.392236	0.673309
Zn17	Zn	1.090507	0.107764	0.173322
Zn18	Zn	1.590507	0.607764	0.673322
O19	O	1.084300	-0.081788	0.354944
O20	O	1.584300	0.418212	0.854944
C21	C	0.921945	0.000001	0.182032
C22	C	1.421945	0.500001	0.682032
C23	C	0.819551	0.000001	0.179331
C24	C	1.319551	0.500001	0.679331
N25	N	1.090482	-0.254856	0.173299
N26	N	1.590482	0.245144	0.673299
C27	C	0.736396	0.000005	0.177137
C28	C	1.236396	0.500005	0.677137
C29	C	0.632073	0.000006	0.174395
C30	C	1.132073	0.500006	0.674395
C31	C	0.548923	0.000005	0.172218
C32	C	1.048923	0.500005	0.672218
C33	C	0.444594	0.000008	0.169476
C34	C	0.944594	0.500008	0.669476
C35	C	1.090505	-0.656146	0.173324
C36	C	1.590505	-0.156146	0.673324
C37	C	1.090496	-0.544495	0.173321
C38	C	1.590496	-0.044495	0.673321
C39	C	1.090494	-0.455505	0.173312
C40	C	1.590494	0.044495	0.673312
C41	C	1.090484	-0.343846	0.173308
C42	C	1.590484	0.156154	0.673308
C43	C	1.259049	0.000001	0.164599
C44	C	1.759049	0.500001	0.664599
C45	C	1.361443	0.000007	0.167300
C46	C	1.861443	0.500007	0.667300
C47	C	1.095787	-0.000002	-0.054809
C48	C	1.595787	0.499998	0.445191
C49	C	1.093091	0.000001	-0.193338
C50	C	1.593091	0.500001	0.306662
N51	N	1.090520	0.254856	0.173322
N52	N	1.590520	0.754856	0.673322
C53	C	1.171640	0.000002	-0.269047
C54	C	1.671640	0.500002	0.230953
C55	C	1.168855	0.000006	-0.412225
C56	C	1.668855	0.500006	0.087775
C57	C	1.085208	0.000005	0.401440
C58	C	1.585208	0.500005	0.901440
C59	C	1.087904	0.000008	0.539970
C60	C	1.587904	0.500008	1.039970
H61	H	1.236099	0.000002	-0.477280
H62	H	1.736099	0.500002	0.022720
N63	N	1.258584	-0.000010	-0.217376
N64	N	1.758584	0.499990	0.282624
N65	N	1.278640	-0.068966	-0.147979
N66	N	1.778640	0.431034	0.352021
H67	H	1.340047	-0.068975	-0.111486
H68	H	1.840047	0.431025	0.388514
N69	N	1.006130	-0.000011	-0.244965
N70	N	1.506130	0.499989	0.255035
N71	N	0.932281	-0.000018	-0.173860
N72	N	1.432281	0.499982	0.326140
H73	H	0.870860	-0.000029	-0.210317
H74	H	1.370860	0.499971	0.289683
H75	H	1.020656	0.000000	-0.394983
H76	H	1.520656	0.500000	0.105017
