data_functionalizedCrystal
_audit_creation_method	'MofGen! by Chris Wilmer'
_symmetry_space_group_name_H-M	'P1'
_symmetry_Int_Tables_number	1
_symmetry_cell_setting	triclinic
loop_
_symmetry_equiv_pos_as_xyz
  x,y,z
_cell_length_a	26.210047
_cell_length_b	27.732048
_cell_length_c	27.732048
_cell_angle_alpha	82.642654
_cell_angle_beta	90.000479
_cell_angle_gamma	90.011447
loop_
_atom_site_label
_atom_site_type_symbol
_atom_site_fract_x
_atom_site_fract_y
_atom_site_fract_z
O1	O	0.042463	0.640931	0.057510
O2	O	0.375796	0.974264	0.390843
O3	O	0.709130	1.307598	0.724177
O4	O	0.042459	0.500138	0.066255
O5	O	0.375792	0.833471	0.399589
O6	O	0.709125	1.166804	0.732922
O7	O	0.042451	0.574907	-0.008514
O8	O	0.375785	0.908240	0.324819
O9	O	0.709118	1.241574	0.658153
O10	O	0.042470	0.566162	0.132279
O11	O	0.375804	0.899495	0.465613
O12	O	0.709137	1.232828	0.798946
O13	O	-0.042407	0.574893	-0.008502
O14	O	0.290927	0.908226	0.324831
O15	O	0.624260	1.241559	0.658164
O16	O	-0.042399	0.500123	0.066267
O17	O	0.290934	0.833457	0.399601
O18	O	0.624267	1.166790	0.732934
O19	O	-0.042395	0.640917	0.057522
O20	O	0.290938	0.974250	0.390855
O21	O	0.624272	1.307583	0.724188
Cu22	Cu	-0.050145	0.570519	0.061895
Cu23	Cu	0.283188	0.903852	0.395229
Cu24	Cu	0.616521	1.237185	0.728562
Cu25	Cu	0.050209	0.570536	0.061882
Cu26	Cu	0.383542	0.903869	0.395215
Cu27	Cu	0.716876	1.237202	0.728548
O28	O	-0.042388	0.566147	0.132291
O29	O	0.290946	0.899481	0.465624
O30	O	0.624279	1.232814	0.798958
C31	C	0.000029	0.482124	0.066078
C32	C	0.333362	0.815457	0.399411
C33	C	0.666696	1.148790	0.732744
C34	C	0.000027	0.428469	0.065525
C35	C	0.333360	0.761802	0.398858
C36	C	0.666693	1.095135	0.732192
N37	N	-0.120729	0.570510	0.061905
N38	N	0.212604	0.903844	0.395238
N39	N	0.545937	1.237177	0.728572
C40	C	0.000021	0.574716	-0.026515
C41	C	0.333354	0.908050	0.306818
C42	C	0.666688	1.241383	0.640152
C43	C	0.000017	0.574164	-0.080170
C44	C	0.333350	0.907497	0.253163
C45	C	0.666683	1.240830	0.586497
C46	C	-0.473247	0.603640	0.028781
C47	C	-0.139913	0.936974	0.362115
C48	C	0.193420	1.270307	0.695448
C49	C	-0.686905	0.603651	0.028774
C50	C	-0.353572	0.936984	0.362108
C51	C	-0.020239	1.270318	0.695441
O52	O	-0.714530	0.631801	0.000614
O53	O	-0.381197	0.965134	0.333947
O54	O	-0.047863	1.298467	0.667280
N55	N	-0.713623	0.570538	0.061871
N56	N	-0.380290	0.903872	0.395204
N57	N	-0.046957	1.237205	0.728538
C58	C	-0.686923	0.537419	0.094970
C59	C	-0.353590	0.870752	0.428303
C60	C	-0.020257	1.204085	0.761636
O61	O	-0.714551	0.509251	0.123117
O62	O	-0.381218	0.842585	0.456450
O63	O	-0.047885	1.175918	0.789784
C64	C	-0.473266	0.537406	0.094974
C65	C	-0.139932	0.870739	0.428307
C66	C	0.193401	1.204073	0.761640
C67	C	-0.446550	0.570524	0.061878
C68	C	-0.113217	0.903857	0.395212
C69	C	0.220116	1.237191	0.728545
C70	C	-0.446531	0.636755	-0.004312
C71	C	-0.113198	0.970089	0.329021
C72	C	0.220135	1.303422	0.662355
C73	C	-0.393120	0.636754	-0.004308
C74	C	-0.059786	0.970087	0.329025
C75	C	0.273547	1.303421	0.662358
C76	C	-0.366424	0.603638	0.028789
C77	C	-0.033090	0.936971	0.362122
C78	C	0.300243	1.270304	0.695455
C79	C	-0.393139	0.570523	0.061882
C80	C	-0.059806	0.903856	0.395215
C81	C	0.273528	1.237189	0.728549
C82	C	-0.446567	0.504284	0.128070
C83	C	-0.113234	0.837618	0.461403
C84	C	0.220100	1.170951	0.794736
C85	C	-0.393149	0.504283	0.128067
C86	C	-0.059816	0.837617	0.461400
C87	C	0.273518	1.170950	0.794734
C88	C	-0.366434	0.537401	0.094971
C89	C	-0.033100	0.870735	0.428305
C90	C	0.300233	1.204068	0.761638
C91	C	-0.313031	0.537405	0.094983
C92	C	0.020302	0.870739	0.428316
C93	C	0.353635	1.204072	0.761649
N94	N	-0.286313	0.570518	0.061886
N95	N	0.047020	0.903851	0.395219
N96	N	0.380353	1.237185	0.728553
C97	C	-0.313010	0.603634	0.028789
C98	C	0.020324	0.936967	0.362122
C99	C	0.353657	1.270301	0.695456
C100	C	-0.799097	0.537428	0.094966
C101	C	-0.465763	0.870762	0.428299
C102	C	-0.132430	1.204095	0.761632
C103	C	-0.852511	0.537432	0.094965
C104	C	-0.519178	0.870765	0.428299
C105	C	-0.185844	1.204099	0.761632
C106	C	-0.852489	0.603664	0.028769
C107	C	-0.519156	0.936997	0.362103
C108	C	-0.185822	1.270330	0.695436
C109	C	-0.799074	0.603662	0.028773
C110	C	-0.465741	0.936995	0.362106
C111	C	-0.132407	1.270329	0.695439
C112	C	-0.772379	0.570541	0.061869
C113	C	-0.439045	0.903874	0.395202
C114	C	-0.105712	1.237207	0.728536
C115	C	-0.200842	0.603629	0.028800
C116	C	0.132492	0.936963	0.362133
C117	C	0.465825	1.270296	0.695467
C118	C	-0.147425	0.603626	0.028808
C119	C	0.185908	0.936960	0.362141
C120	C	0.519241	1.270293	0.695475
C121	C	-0.147452	0.537393	0.095002
C122	C	0.185881	0.870726	0.428335
C123	C	0.519215	1.204060	0.761669
C124	C	-0.200863	0.537397	0.094996
C125	C	0.132470	0.870731	0.428329
C126	C	0.465803	1.204064	0.761662
C127	C	-0.227557	0.570517	0.061891
C128	C	0.105776	0.903851	0.395224
C129	C	0.439110	1.237184	0.728557
O130	O	-0.285374	0.509267	0.123125
O131	O	0.047959	0.842600	0.456458
O132	O	0.381293	1.175933	0.789792
O133	O	-0.285372	0.631790	0.000639
O134	O	0.047961	0.965123	0.333972
O135	O	0.381294	1.298457	0.667306
C136	C	-0.526658	0.603642	0.028777
C137	C	-0.193325	0.936975	0.362111
C138	C	0.140009	1.270308	0.695444
C139	C	-0.553373	0.570527	0.061871
C140	C	-0.220040	0.903860	0.395204
C141	C	0.113293	1.237193	0.728537
C142	C	-0.526677	0.537410	0.094968
C143	C	-0.193344	0.870744	0.428301
C144	C	0.139989	1.204077	0.761634
C145	C	-0.606788	0.570530	0.061870
C146	C	-0.273454	0.903864	0.395204
C147	C	0.059879	1.237197	0.728537
C148	C	-0.633484	0.603646	0.028773
C149	C	-0.300150	0.936980	0.362107
C150	C	0.033183	1.270313	0.695440
C151	C	-0.606766	0.636759	-0.004323
C152	C	-0.273432	0.970092	0.329010
C153	C	0.059901	1.303426	0.662343
C154	C	-0.553354	0.636758	-0.004320
C155	C	-0.220021	0.970091	0.329014
C156	C	0.113313	1.303424	0.662347
C157	C	-0.553395	0.504298	0.128064
C158	C	-0.220062	0.837631	0.461398
C159	C	0.113271	1.170965	0.794731
C160	C	-0.606807	0.504302	0.128058
C161	C	-0.273473	0.837635	0.461391
C162	C	0.059860	1.170969	0.794725
C163	C	-0.633503	0.537418	0.094961
C164	C	-0.300170	0.870752	0.428294
C165	C	0.033164	1.204085	0.761628
N166	N	0.120793	0.570548	0.061868
N167	N	0.454126	0.903881	0.395202
N168	N	0.787460	1.237215	0.728535
C169	C	0.000036	0.658931	0.057699
C170	C	0.333369	0.992264	0.391033
C171	C	0.666703	1.325598	0.724366
C172	C	0.000041	0.712586	0.058252
C173	C	0.333375	1.045919	0.391586
C174	C	0.666708	1.379252	0.724919
C175	C	0.000018	1.051401	0.017548
C176	C	0.333352	1.384734	0.350882
C177	C	0.666685	1.718067	0.684215
C178	C	0.000017	1.253060	0.019599
C179	C	0.333350	1.586394	0.352933
C180	C	0.666684	1.919727	0.686266
O181	O	-0.000010	1.284316	-0.017621
O182	O	0.333323	1.617649	0.315712
O183	O	0.666657	1.950983	0.649045
N184	N	0.000025	1.272184	0.063935
N185	N	0.333358	1.605518	0.397268
N186	N	0.666691	1.938851	0.730601
C187	C	0.000029	1.240890	0.107760
C188	C	0.333362	1.574223	0.441094
C189	C	0.666696	1.907556	0.774427
O190	O	0.000030	1.261783	0.145517
O191	O	0.333364	1.595116	0.478850
O192	O	0.666697	1.928449	0.812184
C193	C	0.000027	1.039231	0.105709
C194	C	0.333360	1.372564	0.439042
C195	C	0.666693	1.705898	0.772375
C196	C	0.000024	1.020110	0.061371
C197	C	0.333358	1.353443	0.394704
C198	C	0.666691	1.686777	0.728037
C199	C	0.000015	1.032280	-0.026786
C200	C	0.333349	1.365613	0.306547
C201	C	0.666682	1.698946	0.639881
C202	C	0.000019	0.981868	-0.027298
C203	C	0.333352	1.315201	0.306035
C204	C	0.666685	1.648534	0.639368
C205	C	0.000025	0.950577	0.016524
C206	C	0.333358	1.283910	0.349857
C207	C	0.666691	1.617244	0.683191
C208	C	0.000028	0.969698	0.060858
C209	C	0.333361	1.303032	0.394192
C210	C	0.666694	1.636365	0.727525
C211	C	0.000028	1.007937	0.149534
C212	C	0.333361	1.341271	0.482867
C213	C	0.666694	1.674604	0.816200
C214	C	0.000026	0.957520	0.149017
C215	C	0.333359	1.290853	0.482350
C216	C	0.666692	1.624187	0.815684
C217	C	0.000023	0.938399	0.104679
C218	C	0.333357	1.271732	0.438012
C219	C	0.666690	1.605066	0.771346
C220	C	0.000037	0.887996	0.104168
C221	C	0.333370	1.221329	0.437502
C222	C	0.666703	1.554662	0.770835
N223	N	0.000029	0.868872	0.059833
N224	N	0.333363	1.202205	0.393166
N225	N	0.666696	1.535539	0.726500
C226	C	0.000023	0.900163	0.016011
C227	C	0.333357	1.233496	0.349344
C228	C	0.666690	1.566829	0.682678
C229	C	0.000031	1.346764	0.108834
C230	C	0.333365	1.680097	0.442168
C231	C	0.666698	2.013430	0.775501
C232	C	0.000033	1.397178	0.109347
C233	C	0.333366	1.730511	0.442681
C234	C	0.666699	2.063845	0.776014
C235	C	0.000020	1.409345	0.021186
C236	C	0.333353	1.742679	0.354520
C237	C	0.666686	2.076012	0.687853
C238	C	0.000022	1.358930	0.020674
C239	C	0.333355	1.692263	0.354007
C240	C	0.666689	2.025597	0.687340
C241	C	0.000024	1.327640	0.064499
C242	C	0.333357	1.660973	0.397832
C243	C	0.666690	1.994307	0.731166
C244	C	0.000030	0.794293	0.014938
C245	C	0.333364	1.127627	0.348272
C246	C	0.666697	1.460960	0.681605
C247	C	0.000035	0.743876	0.014430
C248	C	0.333369	1.077210	0.347763
C249	C	0.666702	1.410543	0.681097
C250	C	0.000046	0.731713	0.102591
C251	C	0.333379	1.065047	0.435924
C252	C	0.666712	1.398380	0.769257
C253	C	0.000043	0.782126	0.103099
C254	C	0.333377	1.115459	0.436433
C255	C	0.666710	1.448793	0.769766
C256	C	0.000034	0.813415	0.059269
C257	C	0.333367	1.146748	0.392603
C258	C	0.666700	1.480082	0.725936
O259	O	0.000058	0.856712	0.141369
O260	O	0.333391	1.190045	0.474702
O261	O	0.666725	1.523378	0.808036
O262	O	0.000011	0.879260	-0.021740
O263	O	0.333344	1.212593	0.311593
O264	O	0.666677	1.545927	0.644926
C265	C	0.000015	1.101813	0.018061
C266	C	0.333349	1.435146	0.351394
C267	C	0.666682	1.768479	0.684727
C268	C	0.000018	1.120934	0.062395
C269	C	0.333352	1.454267	0.395729
C270	C	0.666685	1.787601	0.729062
C271	C	0.000024	1.089643	0.106217
C272	C	0.333358	1.422977	0.439551
C273	C	0.666691	1.756310	0.772884
C274	C	0.000020	1.171348	0.062908
C275	C	0.333353	1.504682	0.396242
C276	C	0.666686	1.838015	0.729575
C277	C	0.000014	1.202639	0.019086
C278	C	0.333347	1.535972	0.352419
C279	C	0.666680	1.869306	0.685753
C280	C	0.000006	1.183515	-0.025249
C281	C	0.333339	1.516849	0.308084
C282	C	0.666673	1.850182	0.641417
C283	C	0.000009	1.133103	-0.025761
C284	C	0.333343	1.466437	0.307572
C285	C	0.666676	1.799770	0.640905
C286	C	0.000032	1.108767	0.150553
C287	C	0.333365	1.442100	0.483886
C288	C	0.666698	1.775434	0.817219
C289	C	0.000029	1.159180	0.151061
C290	C	0.333363	1.492513	0.484395
C291	C	0.666696	1.825846	0.817728
C292	C	0.000023	1.190470	0.107239
C293	C	0.333357	1.523804	0.440572
C294	C	0.666690	1.857137	0.773906
C295	C	0.000044	0.614867	-0.418985
C296	C	0.333377	0.948201	-0.085652
C297	C	0.666711	1.281534	0.247682
C298	C	0.000051	0.612816	-0.620645
C299	C	0.333385	0.946150	-0.287311
C300	C	0.666718	1.279483	0.046022
O301	O	0.000075	0.650037	-0.651900
O302	O	0.333408	0.983370	-0.318567
O303	O	0.666741	1.316704	0.014766
N304	N	0.000049	0.568481	-0.639768
N305	N	0.333383	0.901814	-0.306435
N306	N	0.666716	1.235148	0.026898
C307	C	0.000049	0.524656	-0.608474
C308	C	0.333382	0.857989	-0.275140
C309	C	0.666716	1.191322	0.058193
O310	O	0.000053	0.486899	-0.629367
O311	O	0.333386	0.820232	-0.296033
O312	O	0.666719	1.153565	0.037300
C313	C	0.000046	0.526707	-0.406815
C314	C	0.333379	0.860040	-0.073482
C315	C	0.666712	1.193374	0.259852
C316	C	0.000042	0.571045	-0.387694
C317	C	0.333376	0.904378	-0.054361
C318	C	0.666709	1.237712	0.278972
C319	C	0.000041	0.659202	-0.399864
C320	C	0.333375	0.992535	-0.066530
C321	C	0.666708	1.325869	0.266803
C322	C	0.000037	0.659714	-0.349452
C323	C	0.333370	0.993047	-0.016118
C324	C	0.666704	1.326381	0.317215
C325	C	0.000035	0.615892	-0.318161
C326	C	0.333368	0.949225	0.015172
C327	C	0.666702	1.282559	0.348506
C328	C	0.000038	0.571557	-0.337282
C329	C	0.333371	0.904891	-0.003949
C330	C	0.666704	1.238224	0.329384
C331	C	0.000049	0.482882	-0.375521
C332	C	0.333382	0.816215	-0.042188
C333	C	0.666716	1.149549	0.291145
C334	C	0.000049	0.483399	-0.325104
C335	C	0.333383	0.816732	0.008229
C336	C	0.666716	1.150066	0.341563
C337	C	0.000046	0.527737	-0.305983
C338	C	0.333379	0.861070	0.027350
C339	C	0.666713	1.194404	0.360683
C340	C	0.000031	0.528248	-0.255580
C341	C	0.333365	0.861581	0.077754
C342	C	0.666698	1.194914	0.411087
N343	N	0.000033	0.572583	-0.236456
N344	N	0.333367	0.905916	0.096877
N345	N	0.666700	1.239249	0.430211
C346	C	0.000035	0.616405	-0.267747
C347	C	0.333368	0.949738	0.065587
C348	C	0.666702	1.283072	0.398920
C349	C	0.000050	0.523582	-0.714348
C350	C	0.333383	0.856915	-0.381014
C351	C	0.666716	1.190248	-0.047681
C352	C	0.000050	0.523069	-0.764762
C353	C	0.333383	0.856402	-0.431429
C354	C	0.666716	1.189735	-0.098096
C355	C	0.000053	0.611230	-0.776930
C356	C	0.333386	0.944563	-0.443596
C357	C	0.666720	1.277896	-0.110263
C358	C	0.000049	0.611742	-0.726514
C359	C	0.333383	0.945075	-0.393181
C360	C	0.666716	1.278409	-0.059848
C361	C	0.000052	0.567917	-0.695224
C362	C	0.333385	0.901250	-0.361891
C363	C	0.666718	1.234583	-0.028557
C364	C	0.000025	0.617477	-0.161878
C365	C	0.333358	0.950811	0.171456
C366	C	0.666692	1.284144	0.504789
C367	C	0.000019	0.617986	-0.111461
C368	C	0.333352	0.951319	0.221873
C369	C	0.666685	1.284652	0.555206
C370	C	0.000018	0.529825	-0.099298
C371	C	0.333351	0.863158	0.234036
C372	C	0.666685	1.196492	0.567369
C373	C	0.000022	0.529316	-0.149710
C374	C	0.333355	0.862650	0.183623
C375	C	0.666689	1.195983	0.516957
C376	C	0.000027	0.573147	-0.180999
C377	C	0.333361	0.906480	0.152334
C378	C	0.666694	1.239813	0.485667
O379	O	0.000014	0.491047	-0.224296
O380	O	0.333347	0.824380	0.109038
O381	O	0.666680	1.157713	0.442371
O382	O	0.000043	0.654156	-0.246844
O383	O	0.333376	0.987490	0.086489
O384	O	0.666709	1.320823	0.419823
C385	C	0.000049	0.614355	-0.469397
C386	C	0.333382	0.947688	-0.136064
C387	C	0.666715	1.281022	0.197270
C388	C	0.000051	0.570021	-0.488518
C389	C	0.333385	0.903354	-0.155185
C390	C	0.666718	1.236687	0.178148
C391	C	0.000050	0.526198	-0.457228
C392	C	0.333383	0.859532	-0.123894
C393	C	0.666716	1.192865	0.209439
C394	C	0.000051	0.569508	-0.538933
C395	C	0.333385	0.902841	-0.205599
C396	C	0.666718	1.236174	0.127734
C397	C	0.000053	0.613330	-0.570223
C398	C	0.333387	0.946663	-0.236890
C399	C	0.666720	1.279996	0.096443
C400	C	0.000055	0.657665	-0.551100
C401	C	0.333388	0.990998	-0.217766
C402	C	0.666722	1.324332	0.115567
C403	C	0.000051	0.658177	-0.500688
C404	C	0.333384	0.991511	-0.167354
C405	C	0.666717	1.324844	0.165979
C406	C	0.000048	0.481863	-0.476351
C407	C	0.333381	0.815197	-0.143018
C408	C	0.666714	1.148530	0.190315
C409	C	0.000052	0.481355	-0.526764
C410	C	0.333385	0.814688	-0.193430
C411	C	0.666718	1.148021	0.139903
C412	C	0.000053	0.525177	-0.558054
C413	C	0.333387	0.858510	-0.224721
C414	C	0.666720	1.191843	0.108612
C415	C	0.000044	0.566338	0.150292
C416	C	0.333377	0.899671	0.483626
C417	C	0.666711	1.233005	0.816959
C418	C	0.000052	0.566891	0.203947
C419	C	0.333385	0.900224	0.537280
C420	C	0.666718	1.233557	0.870614
H421	H	-0.125675	0.630597	0.001858
H422	H	0.207658	0.963930	0.335191
H423	H	0.540991	1.297263	0.668524
H424	H	0.000015	0.494146	-0.073812
H425	H	0.333348	0.827480	0.259522
H426	H	0.666681	1.160813	0.592855
Cl427	Cl	0.000052	0.468481	-0.675018
Cl428	Cl	0.333385	0.801814	-0.341684
Cl429	Cl	0.666719	1.135148	-0.008351
Cl430	Cl	0.000026	0.918186	0.204115
Cl431	Cl	0.333359	1.251520	0.537449
Cl432	Cl	0.666693	1.584853	0.870782
H433	H	0.000047	0.647846	-0.710950
H434	H	0.333380	0.981179	-0.377617
H435	H	0.666714	1.314513	-0.044283
H436	H	0.000033	1.321291	0.144524
H437	H	0.333367	1.654624	0.477857
H438	H	0.666700	1.987957	0.811191
H439	H	0.000048	0.694282	-0.485125
H440	H	0.333381	1.027615	-0.151791
H441	H	0.666715	1.360949	0.181542
H442	H	0.000055	0.446777	-0.391080
H443	H	0.333388	0.780111	-0.057747
H444	H	0.666721	1.113444	0.275586
H445	H	0.000054	0.693347	-0.576585
H446	H	0.333388	1.026680	-0.243252
H447	H	0.666721	1.360013	0.090081
Cl448	Cl	0.000012	1.448691	-0.033904
Cl449	Cl	0.333346	1.782025	0.299429
Cl450	Cl	0.666679	2.115358	0.632762
H451	H	-0.222569	0.630598	0.001842
H452	H	0.110764	0.963931	0.335175
H453	H	0.444097	1.297265	0.668509
H454	H	0.000015	0.966305	-0.063403
H455	H	0.333348	1.299638	0.269930
H456	H	0.666681	1.632971	0.603264
H457	H	-0.531606	0.663725	-0.031269
H458	H	-0.198273	0.997059	0.302064
H459	H	0.135060	1.330392	0.635398
Cl460	Cl	0.000058	0.666320	-0.816276
Cl461	Cl	0.333391	0.999653	-0.482942
Cl462	Cl	0.666724	1.332987	-0.149609
Cl463	Cl	0.000053	0.425609	-0.550794
Cl464	Cl	0.333387	0.758943	-0.217461
Cl465	Cl	0.666720	1.092276	0.115872
H466	H	0.000035	0.728311	-0.021677
H467	H	0.333368	1.061645	0.311656
H468	H	0.666702	1.394978	0.644990
Cl469	Cl	0.000016	0.473577	-0.173748
Cl470	Cl	0.333350	0.806910	0.159585
Cl471	Cl	0.666683	1.140243	0.492918
Cl472	Cl	-0.640337	0.678392	-0.045929
Cl473	Cl	-0.307003	1.011725	0.287404
Cl474	Cl	0.026330	1.345058	0.620737
H475	H	-0.371371	0.663720	-0.031259
H476	H	-0.038038	0.997053	0.302075
H477	H	0.295295	1.330387	0.635408
Cl478	Cl	0.000053	0.428300	-0.285770
Cl479	Cl	0.333386	0.761634	0.047563
Cl480	Cl	0.666720	1.094967	0.380896
Cl481	Cl	0.000046	0.426766	-0.437021
Cl482	Cl	0.333380	0.760100	-0.103688
Cl483	Cl	0.666713	1.093433	0.229645
Cl484	Cl	0.000042	1.069437	0.205649
Cl485	Cl	0.333375	1.402771	0.538983
Cl486	Cl	0.666709	1.736104	0.872316
H487	H	-0.468263	0.663722	-0.031266
H488	H	-0.134929	0.997056	0.302068
H489	H	0.198404	1.330389	0.635401
H490	H	-0.777325	0.630629	0.001823
H491	H	-0.443992	0.963962	0.335156
H492	H	-0.110659	1.297296	0.668490
Cl493	Cl	0.000036	1.183210	0.206807
Cl494	Cl	0.333369	1.516543	0.540140
Cl495	Cl	0.666702	1.849877	0.873473
H496	H	0.000043	0.486964	-0.780325
H497	H	0.333377	0.820298	-0.446992
H498	H	0.666710	1.153631	-0.113659
H499	H	0.000009	1.057752	-0.062473
H500	H	0.333342	1.391085	0.270860
H501	H	0.666676	1.724419	0.604193
Cl502	Cl	-0.640386	0.462666	0.169670
Cl503	Cl	-0.307053	0.795999	0.503003
Cl504	Cl	0.026281	1.129332	0.836337
Cl505	Cl	-0.886060	0.645294	-0.012838
Cl506	Cl	-0.552727	0.978628	0.320495
Cl507	Cl	-0.219394	1.311961	0.653828
Cl508	Cl	-0.886090	0.495803	0.136579
Cl509	Cl	-0.552756	0.829136	0.469913
Cl510	Cl	-0.219423	1.162469	0.803246
Cl511	Cl	0.000008	1.109074	-0.081504
Cl512	Cl	0.333342	1.442407	0.251829
Cl513	Cl	0.666675	1.775741	0.585163
H514	H	-0.222615	0.510434	0.121950
H515	H	0.110718	0.843768	0.455283
H516	H	0.444051	1.177101	0.788616
Cl517	Cl	-0.765543	0.495788	0.136578
Cl518	Cl	-0.432210	0.829121	0.469912
Cl519	Cl	-0.098876	1.162455	0.803245
H520	H	-0.468311	0.477317	0.155019
H521	H	-0.134978	0.810650	0.488352
H522	H	0.198356	1.143983	0.821685
H523	H	-0.531663	0.477330	0.155015
H524	H	-0.198330	0.810663	0.488349
H525	H	0.135003	1.143997	0.821682
Cl526	Cl	0.000020	0.833621	-0.040163
Cl527	Cl	0.333353	1.166954	0.293170
Cl528	Cl	0.666686	1.500287	0.626504
Cl529	Cl	0.000046	1.421209	0.165089
Cl530	Cl	0.333380	1.754542	0.498422
Cl531	Cl	0.666713	2.087876	0.831755
Cl532	Cl	-0.359593	0.462642	0.169676
Cl533	Cl	-0.026260	0.795975	0.503010
Cl534	Cl	0.307073	1.129308	0.836343
Cl535	Cl	-0.113883	0.495763	0.136608
Cl536	Cl	0.219451	0.829097	0.469942
Cl537	Cl	0.552784	1.162430	0.803275
H538	H	0.000020	1.343366	-0.015430
H539	H	0.333353	1.676699	0.317903
H540	H	0.666686	2.010033	0.651236
H541	H	0.000032	1.023496	0.185639
H542	H	0.333365	1.356829	0.518972
H543	H	0.666699	1.690163	0.852305
H544	H	0.000046	0.797695	0.139203
H545	H	0.333379	1.131028	0.472536
H546	H	0.666712	1.464361	0.805870
H547	H	0.000004	1.209001	-0.060931
H548	H	0.333338	1.542335	0.272403
H549	H	0.666671	1.875668	0.605736
Cl550	Cl	0.000015	0.673729	-0.087427
Cl551	Cl	0.333349	1.007063	0.245907
Cl552	Cl	0.666682	1.340396	0.579240
Cl553	Cl	0.000031	0.672579	-0.201205
Cl554	Cl	0.333364	1.005912	0.132128
Cl555	Cl	0.666698	1.339246	0.465462
Cl556	Cl	0.000047	0.715457	-0.325422
Cl557	Cl	0.333381	1.048790	0.007911
Cl558	Cl	0.666714	1.382123	0.341244
H559	H	0.000053	0.706228	0.138270
H560	H	0.333387	1.039561	0.471603
H561	H	0.666720	1.372894	0.804936
H562	H	0.000045	0.694889	-0.425336
H563	H	0.333378	1.028223	-0.092003
H564	H	0.666712	1.361556	0.241330
