data_functionalizedCrystal
_audit_creation_method	'MofGen! by Chris Wilmer'
_symmetry_space_group_name_H-M	'P1'
_symmetry_Int_Tables_number	1
_symmetry_cell_setting	triclinic
loop_
_symmetry_equiv_pos_as_xyz
  x,y,z
_cell_length_a	19.121241
_cell_length_b	19.121063
_cell_length_c	14.908308
_cell_angle_alpha	95.554627
_cell_angle_beta	90.695553
_cell_angle_gamma	95.003121
loop_
_atom_site_label
_atom_site_type_symbol
_atom_site_fract_x
_atom_site_fract_y
_atom_site_fract_z
Zn1	Zn	1.036454	-0.261590	-0.581287
Zn2	Zn	1.038135	-0.372478	-0.436588
Zn3	Zn	0.926158	-0.259259	-0.424264
Zn4	Zn	0.913733	-0.384226	-0.581210
O5	O	0.978620	-0.319389	-0.505838
O6	O	1.134899	-0.272359	-0.567282
O7	O	1.029185	-0.351568	-0.308714
O8	O	0.945285	-0.160862	-0.439968
O9	O	1.136135	-0.353828	-0.460973
O10	O	1.026320	-0.162575	-0.555332
O11	O	0.946915	-0.268386	-0.299660
O12	O	0.826288	-0.279778	-0.439894
O13	O	0.924109	-0.373850	-0.707460
O14	O	0.817159	-0.371590	-0.555201
O15	O	1.014272	-0.283750	-0.707516
O16	O	1.017137	-0.472743	-0.460898
O17	O	0.925739	-0.481374	-0.567151
C18	C	0.796256	-0.326706	-0.496203
C19	C	0.718237	-0.329855	-0.492103
C20	C	0.680935	-0.288993	-0.545619
C21	C	0.607629	-0.291948	-0.541759
C22	C	0.571627	-0.335768	-0.484387
C23	C	0.608935	-0.376631	-0.430866
C24	C	0.682240	-0.373673	-0.434721
C25	C	0.350326	-0.346817	-0.469967
C26	C	0.277016	-0.349774	-0.466117
C27	C	0.275715	-0.265089	-0.577009
C28	C	0.349021	-0.262137	-0.580864
C29	C	0.386323	-0.302998	-0.527339
C30	C	0.496696	-0.338791	-0.480442
C31	C	0.461253	-0.299971	-0.531280
C32	C	0.970290	-0.502652	-0.515374
C33	C	0.966790	-0.581052	-0.519488
C34	C	1.012764	-0.613368	-0.466150
C35	C	1.009475	-0.687033	-0.470024
C36	C	0.960209	-0.728381	-0.527232
C37	C	0.914233	-0.696060	-0.580577
C38	C	0.917525	-0.622396	-0.576706
C39	C	0.947889	-0.951024	-0.541687
C40	C	0.944598	-1.024693	-0.545551
C41	C	1.039842	-1.015661	-0.434999
C42	C	1.043127	-0.941996	-0.431130
C43	C	0.997154	-0.909681	-0.484478
C44	C	0.956845	-0.803679	-0.531192
C45	C	1.000521	-0.834385	-0.480523
C46	C	1.161697	-0.312043	-0.515511
C47	C	1.239713	-0.308913	-0.519633
C48	C	0.967617	-0.330371	-0.741136
C49	C	0.962928	-0.335051	-0.841406
C50	C	0.987001	-0.135410	-0.496284
C51	C	0.990572	-0.057009	-0.492213
C52	C	1.048002	-0.250007	-1.029884
C53	C	1.043599	-0.254402	-1.124097
C54	C	0.949715	-0.348231	-1.124046
C55	C	0.954118	-0.343836	-1.029833
C56	C	1.003264	-0.294723	-0.982756
C57	C	1.007670	-0.290333	-0.888541
C58	C	0.913784	-0.384158	-0.888492
C59	C	0.909381	-0.388552	-0.982705
C60	C	0.989623	-0.308397	-0.271454
C61	C	0.994457	-0.303513	-0.171181
H62	H	0.577260	-0.258675	-0.585339
O63	O	0.239374	-0.225419	-0.628905
C64	C	0.125865	-0.192471	-0.672152
C65	C	0.166934	-0.237427	-0.613317
H66	H	0.067289	-0.202175	-0.659583
H67	H	0.143540	-0.134247	-0.654218
H68	H	0.136366	-0.207746	-0.746267
H69	H	0.156453	-0.222214	-0.539184
H70	H	0.149252	-0.295640	-0.631327
H71	H	0.877357	-0.420571	-0.850110
H72	H	0.378329	-0.226457	-0.627585
H73	H	0.579617	-0.412307	-0.384148
O74	O	1.087082	-0.211067	-1.169985
C75	C	1.177336	-0.202726	-1.280826
C76	C	1.128117	-0.251887	-1.228935
H77	H	1.210536	-0.235709	-1.328485
H78	H	1.144759	-0.169210	-1.321378
H79	H	1.213184	-0.166854	-1.230973
H80	H	1.092259	-0.287802	-1.278725
H81	H	1.160736	-0.285354	-1.188369
O82	O	0.715797	-0.246367	-0.601372
C83	C	0.706758	-0.162716	-0.710995
C84	C	0.667193	-0.210950	-0.647877
H85	H	0.667477	-0.134079	-0.748625
H86	H	0.744661	-0.122424	-0.669580
H87	H	0.737429	-0.195980	-0.761554
H88	H	0.636481	-0.177743	-0.597306
H89	H	0.629331	-0.251244	-0.689350
O90	O	0.901917	-0.395952	-1.169643
C91	C	0.809289	-0.488583	-1.159666
C92	C	0.863377	-0.434560	-1.107914
H93	H	0.778125	-0.519822	-1.109781
H94	H	0.771952	-0.459762	-1.200123
H95	H	0.837786	-0.526195	-1.207420
H96	H	0.834938	-0.396934	-1.060113
H97	H	0.900710	-0.463428	-1.067516
O98	O	0.461764	-0.381281	-0.424589
C99	C	0.444971	-0.409115	-0.271669
C100	C	0.484571	-0.360935	-0.334819
H101	H	0.463406	-0.392692	-0.199080
H102	H	0.386167	-0.404201	-0.278029
H103	H	0.456059	-0.466160	-0.291164
H104	H	0.473541	-0.303870	-0.315366
H105	H	0.543364	-0.365909	-0.328450
O106	O	0.861584	-0.436278	-1.028298
C107	C	0.768965	-0.528916	-1.018306
C108	C	0.823050	-0.474884	-0.966562
H109	H	0.737806	-0.560154	-0.968417
H110	H	0.731625	-0.500102	-1.058767
H111	H	0.797466	-0.566528	-1.066057
H112	H	0.794608	-0.437258	-0.918765
H113	H	0.860388	-0.503744	-0.926160
O114	O	1.054078	-0.718560	-0.418291
C115	C	1.065734	-0.795835	-0.301572
C116	C	1.015111	-0.760152	-0.360033
H117	H	1.034250	-0.829458	-0.254443
H118	H	1.098849	-0.830741	-0.346891
H119	H	1.101590	-0.753676	-0.260059
H120	H	0.979211	-0.802263	-0.401555
H121	H	0.982045	-0.725232	-0.314664
H122	H	1.077272	-1.041979	-0.391568
O123	O	0.496137	-0.257451	-0.587134
C124	C	0.512997	-0.229701	-0.740075
C125	C	0.473420	-0.277890	-0.676917
H126	H	0.494655	-0.246218	-0.812679
H127	H	0.501884	-0.172643	-0.720717
H128	H	0.571795	-0.234596	-0.733585
H129	H	0.414611	-0.273056	-0.683374
H130	H	0.484591	-0.334928	-0.696293
H131	H	1.047688	-0.250343	-0.850212
H132	H	0.916731	-0.837352	-0.577769
O133	O	1.095760	-0.202244	-0.984285
C134	C	1.188452	-0.109679	-0.994279
C135	C	1.134386	-0.163727	-1.046028
H136	H	1.219705	-0.078533	-1.044176
H137	H	1.160004	-0.071984	-0.946576
H138	H	1.225708	-0.138546	-0.953766
H139	H	1.097115	-0.134919	-1.086592
H140	H	1.162880	-0.201419	-1.093676
H141	H	0.247705	-0.385462	-0.419398
O142	O	0.386512	-0.386618	-0.418077
C143	C	0.405515	-0.503586	-0.381413
C144	C	0.364495	-0.458593	-0.440254
H145	H	0.387719	-0.561786	-0.399308
H146	H	0.464099	-0.494009	-0.394019
H147	H	0.395060	-0.488262	-0.307296
H148	H	0.374891	-0.473890	-0.514390
H149	H	0.305924	-0.468175	-0.427571
H150	H	1.052878	-0.579707	-0.419561
O151	O	0.718438	-0.413475	-0.382840
C152	C	0.737458	-0.530440	-0.346182
C153	C	0.696426	-0.485451	-0.405014
H154	H	0.719666	-0.588641	-0.364075
H155	H	0.796040	-0.520858	-0.358798
H156	H	0.727011	-0.515117	-0.272063
H157	H	0.706815	-0.500747	-0.479153
H158	H	0.637857	-0.495038	-0.392321
O159	O	0.896813	-1.064833	-0.601262
C160	C	0.854451	-1.095868	-0.754053
C161	C	0.908614	-1.050379	-0.691071
H162	H	0.863964	-1.084187	-0.826674
H163	H	0.859996	-1.154078	-0.747726
H164	H	0.799255	-1.082977	-0.734368
H165	H	0.963833	-1.063207	-0.710714
H166	H	0.903007	-0.992181	-0.697407
H167	H	1.083243	-0.908332	-0.384547
H168	H	0.910454	-0.924720	-0.585123
O169	O	0.866468	-0.736299	-0.636203
C170	C	0.847538	-0.825473	-0.761885
C171	C	0.901708	-0.779959	-0.698940
H172	H	0.876010	-0.860772	-0.812635
H173	H	0.811264	-0.859592	-0.720356
H174	H	0.815231	-0.789707	-0.799301
H175	H	0.934063	-0.815672	-0.661510
H176	H	0.937934	-0.745834	-0.740517
O177	O	0.872893	-0.591082	-0.628651
C178	C	0.832600	-0.577017	-0.779083
C179	C	0.883168	-0.612539	-0.720355
H180	H	0.840901	-0.594339	-0.853238
H181	H	0.776089	-0.593098	-0.761036
H182	H	0.843410	-0.517267	-0.766445
H183	H	0.872422	-0.672293	-0.732962
H184	H	0.939664	-0.596400	-0.738413
O185	O	1.048470	-0.794256	-0.425053
C186	C	1.170939	-0.764814	-0.386454
C187	C	1.116717	-0.810299	-0.449354
H188	H	1.226128	-0.777778	-0.406066
H189	H	1.165453	-0.706604	-0.392860
H190	H	1.161370	-0.776422	-0.313817
H191	H	1.126251	-0.798752	-0.522016
H192	H	1.122217	-0.868495	-0.442870
