data_functionalizedCrystal
_audit_creation_method	'MofGen! by Chris Wilmer'
_symmetry_space_group_name_H-M	'P1'
_symmetry_Int_Tables_number	1
_symmetry_cell_setting	triclinic
loop_
_symmetry_equiv_pos_as_xyz
  x,y,z
_cell_length_a	17.699083
_cell_length_b	9.482900
_cell_length_c	17.699083
_cell_angle_alpha	80.685531
_cell_angle_beta	83.283015
_cell_angle_gamma	99.264376
loop_
_atom_site_label
_atom_site_type_symbol
_atom_site_fract_x
_atom_site_fract_y
_atom_site_fract_z
O1	O	1.015874	0.120691	0.083859
O2	O	1.515874	0.620691	0.583859
O3	O	0.795500	0.120739	0.096307
O4	O	1.295500	0.620739	0.596307
O5	O	0.911912	0.120701	-0.020105
O6	O	1.411912	0.620701	0.479895
O7	O	0.899462	0.120730	0.200271
O8	O	1.399462	0.620730	0.700271
O9	O	0.888266	-0.121084	0.003636
O10	O	1.388266	0.378916	0.503636
O11	O	0.771854	-0.121045	0.120047
O12	O	1.271854	0.378955	0.620047
O13	O	0.992228	-0.121093	0.107599
O14	O	1.492228	0.378907	0.607599
Cu15	Cu	0.879882	-0.143146	0.115991
Cu16	Cu	1.379882	0.356854	0.615991
Cu17	Cu	0.907846	0.142792	0.087915
Cu18	Cu	1.407846	0.642792	0.587915
O19	O	0.875816	-0.121055	0.224011
O20	O	1.375816	0.378945	0.724011
C21	C	0.755481	-0.000147	0.107730
C22	C	1.255481	0.499853	0.607730
C23	C	0.671465	-0.000129	0.106390
C24	C	1.171465	0.499871	0.606390
N25	N	0.860219	-0.344260	0.135738
N26	N	1.360219	0.155740	0.635738
C27	C	0.622845	-0.000121	0.174722
C28	C	1.122845	0.499879	0.674722
C29	C	0.543899	-0.000140	0.173462
C30	C	1.043899	0.499860	0.673462
C31	C	0.513577	-0.000157	0.103867
C32	C	1.013577	0.499843	0.603867
C33	C	0.562203	-0.000169	0.035530
C34	C	1.062203	0.499831	0.535530
C35	C	0.641145	-0.000161	0.036792
C36	C	1.141145	0.499839	0.536792
C37	C	0.243836	-0.000206	0.030438
C38	C	0.743836	0.499794	0.530438
C39	C	0.164888	-0.000210	0.029181
C40	C	0.664888	0.499790	0.529181
C41	C	0.146590	-0.000185	0.167108
C42	C	0.646590	0.499815	0.667108
C43	C	0.225533	-0.000176	0.168370
C44	C	0.725533	0.499824	0.668370
C45	C	0.274151	-0.000197	0.100034
C46	C	0.774151	0.499803	0.600034
C47	C	0.359752	-0.000179	0.101402
C48	C	0.859752	0.499821	0.601402
C49	C	0.427979	-0.000164	0.102498
C50	C	0.927979	0.499836	0.602498
C51	C	0.902041	-0.416473	0.093735
C52	C	1.402041	0.083527	0.593735
C53	C	0.885687	-0.583885	0.110171
C54	C	1.385687	-0.083885	0.610171
C55	C	1.032248	-0.000204	0.096176
C56	C	1.532248	0.499796	0.596176
C57	C	1.116265	-0.000212	0.097515
C58	C	1.616265	0.499788	0.597515
C59	C	0.899643	-0.000191	-0.036432
C60	C	1.399643	0.499809	0.463568
C61	C	0.898304	-0.000192	-0.120450
C62	C	1.398304	0.499808	0.379550
N63	N	0.927515	0.343906	0.068162
N64	N	1.427515	0.843906	0.568162
C65	C	0.966636	-0.000209	-0.169069
C66	C	1.466636	0.499791	0.330931
C67	C	0.965375	-0.000195	-0.248014
C68	C	1.465375	0.499805	0.251986
C69	C	0.895781	-0.000176	-0.278336
C70	C	1.395781	0.499824	0.221664
C71	C	0.827444	-0.000154	-0.229711
C72	C	1.327444	0.499846	0.270289
C73	C	0.828707	-0.000157	-0.150769
C74	C	1.328707	0.499843	0.349231
C75	C	0.822350	-0.000141	-0.548076
C76	C	1.322350	0.499859	-0.048076
C77	C	0.821092	-0.000143	-0.627024
C78	C	1.321092	0.499857	-0.127024
C79	C	0.959018	-0.000180	-0.645320
C80	C	1.459018	0.499820	-0.145320
C81	C	0.960281	-0.000182	-0.566378
C82	C	1.460281	0.499818	-0.066378
C83	C	0.891946	-0.000154	-0.517761
C84	C	1.391946	0.499846	-0.017761
C85	C	0.893314	-0.000165	-0.432160
C86	C	1.393314	0.499835	0.067840
C87	C	0.894410	-0.000175	-0.363934
C88	C	1.394410	0.499825	0.136066
C89	C	0.888086	-0.000160	0.240338
C90	C	1.388086	0.499840	0.740338
C91	C	0.889426	-0.000150	0.324355
C92	C	1.389426	0.499850	0.824355
H93	H	0.504316	-0.000131	0.229105
H94	H	1.004316	0.499869	0.729105
O95	O	0.290956	-0.000155	-0.036018
O96	O	0.790956	0.499845	0.463982
C97	C	0.247258	-0.000204	-0.097708
C98	C	0.747258	0.499796	0.402292
H99	H	0.192778	0.045576	-0.082881
H100	H	0.692778	0.545576	0.417119
H101	H	0.230336	-0.116205	-0.107655
H102	H	0.730336	0.383795	0.392345
C103	C	0.362890	0.038372	-0.189897
C104	C	0.862890	0.538372	0.310103
C105	C	0.295980	0.094612	-0.171689
C106	C	0.795980	0.594612	0.328311
H107	H	0.392944	0.096853	-0.235533
H108	H	0.892944	0.596853	0.264467
H109	H	0.392331	0.038400	-0.148335
H110	H	0.892331	0.538400	0.351665
H111	H	0.348778	-0.058294	-0.198180
H112	H	0.848778	0.441706	0.301820
H113	H	0.310092	0.191269	-0.163396
H114	H	0.810092	0.691269	0.336604
H115	H	0.266542	0.094603	-0.213251
H116	H	0.766542	0.594603	0.286749
H117	H	1.021017	-0.000212	-0.287597
H118	H	1.521017	0.499788	0.212403
O119	O	1.027958	-0.000136	-0.537056
O120	O	1.527958	0.499864	-0.037056
C121	C	1.087997	-0.000182	-0.596895
C122	C	1.587997	0.499818	-0.096895
H123	H	1.071357	0.045596	-0.654978
H124	H	1.571357	0.545596	-0.154978
H125	H	1.097726	-0.116182	-0.596718
H126	H	1.597726	0.383818	-0.096718
C127	C	1.183356	0.038400	-0.512698
C128	C	1.683356	0.538400	-0.012698
C129	C	1.162921	0.094637	-0.584036
C130	C	1.662921	0.594637	-0.084036
H131	H	1.229574	0.096883	-0.504765
H132	H	1.729574	0.596883	-0.004765
H133	H	1.142907	0.038425	-0.472382
H134	H	1.642907	0.538425	0.027618
H135	H	1.191458	-0.058266	-0.512559
H136	H	1.691458	0.441734	-0.012559
H137	H	1.154810	0.191294	-0.584170
H138	H	1.654810	0.691294	-0.084170
H139	H	1.203371	0.094630	-0.624352
H140	H	1.703371	0.594630	-0.124352
H141	H	0.812303	-0.406374	0.183862
H142	H	1.312303	0.093626	0.683862
O143	O	0.756014	0.000135	-0.500852
O144	O	1.256014	0.500135	-0.000852
C145	C	0.764865	0.125342	-0.466919
C146	C	1.264865	0.625342	0.033081
H147	H	0.812183	0.212855	-0.504489
H148	H	1.312183	0.712855	-0.004489
H149	H	0.781573	0.097029	-0.406766
H150	H	1.281573	0.597029	0.093234
C151	C	0.629926	0.074657	-0.414216
C152	C	1.129926	0.574657	0.085784
C153	C	0.688039	0.182146	-0.460364
C154	C	1.188039	0.682146	0.039636
H155	H	0.582536	0.109694	-0.410168
H156	H	1.082536	0.609694	0.089832
H157	H	0.623964	-0.009701	-0.437074
H158	H	1.123964	0.490299	0.062926
H159	H	0.643860	0.051073	-0.364093
H160	H	1.143860	0.551073	0.135907
H161	H	0.674110	0.205715	-0.510487
H162	H	1.174110	0.705715	-0.010487
H163	H	0.693998	0.266510	-0.437514
H164	H	1.193998	0.766510	0.062486
H165	H	0.680732	-0.000167	-0.018852
H166	H	1.180732	0.499833	0.481148
H167	H	1.014661	-0.000196	-0.684915
H168	H	1.514661	0.499804	-0.184915
H169	H	0.537506	-0.000204	-0.021134
H170	H	1.037506	0.499796	0.478866
O171	O	0.984507	-0.582002	0.010574
O172	O	1.484507	-0.082002	0.510574
C173	C	0.952326	-0.494214	-0.044514
C174	C	1.452326	0.005786	0.455486
H175	H	0.895396	-0.471422	-0.016241
H176	H	1.395396	0.028578	0.483759
H177	H	0.941247	-0.553055	-0.094558
H178	H	1.441247	-0.053055	0.405442
C179	C	1.078962	-0.377618	-0.110005
C180	C	1.578962	0.122382	0.389995
C181	C	1.009043	-0.349614	-0.075278
C182	C	1.509043	0.150386	0.424722
H183	H	1.113949	-0.288425	-0.128985
H184	H	1.613949	0.211575	0.371015
H185	H	1.100644	-0.436766	-0.072894
H186	H	1.600644	0.063234	0.427106
H187	H	1.069719	-0.426655	-0.151704
H188	H	1.569719	0.073345	0.348296
H189	H	1.018285	-0.300595	-0.033574
H190	H	1.518285	0.199405	0.466426
H191	H	0.987364	-0.290455	-0.112383
H192	H	1.487364	0.209545	0.387617
H193	H	0.647526	-0.000106	0.231394
H194	H	1.147526	0.499894	0.731394
H195	H	0.770780	-0.000129	-0.254407
H196	H	1.270780	0.499871	0.245593
H197	H	1.023307	-0.000233	-0.144386
H198	H	1.523307	0.499767	0.355614
H199	H	0.949952	-0.354361	0.045605
H200	H	1.449952	0.145639	0.545605
H201	H	0.250217	-0.000156	0.225041
H202	H	0.750217	0.499844	0.725041
H203	H	0.764416	-0.000130	-0.651708
H204	H	1.264416	0.499870	-0.151708
H205	H	0.773064	-0.000143	-0.111184
H206	H	1.273064	0.499857	0.388816
H207	H	0.106994	-0.000176	0.222751
H208	H	0.606994	0.499824	0.722751
O209	O	0.828475	-0.658130	0.167502
O210	O	1.328475	-0.158130	0.667502
C211	C	0.773164	-0.746156	0.135767
C212	C	1.273164	-0.246156	0.635767
H213	H	0.801061	-0.768807	0.078650
H214	H	1.301061	-0.268807	0.578650
H215	H	0.722899	-0.687595	0.125135
H216	H	1.222899	-0.187595	0.625135
C217	C	0.708699	-0.863000	0.262772
C218	C	1.208699	-0.363000	0.762772
C219	C	0.742964	-0.890830	0.192623
C220	C	1.242964	-0.390830	0.692623
H221	H	0.690067	-0.952239	0.297844
H222	H	1.190067	-0.452239	0.797844
H223	H	0.745961	-0.803691	0.284153
H224	H	1.245961	-0.303691	0.784153
H225	H	0.666815	-0.814195	0.253901
H226	H	1.166815	-0.314195	0.753901
H227	H	0.784852	-0.939617	0.201493
H228	H	1.284852	-0.439617	0.701493
H229	H	0.705708	-0.950151	0.171244
H230	H	1.205708	-0.450151	0.671244
H231	H	0.140203	-0.000226	-0.027495
H232	H	0.640203	0.499774	0.472505
