data_functionalizedCrystal
_audit_creation_method	'MofGen! by Chris Wilmer'
_symmetry_space_group_name_H-M	'P1'
_symmetry_Int_Tables_number	1
_symmetry_cell_setting	triclinic
loop_
_symmetry_equiv_pos_as_xyz
  x,y,z
_cell_length_a	12.759401
_cell_length_b	12.759387
_cell_length_c	12.759399
_cell_angle_alpha	90.031940
_cell_angle_beta	89.982771
_cell_angle_gamma	89.981106
loop_
_atom_site_label
_atom_site_type_symbol
_atom_site_fract_x
_atom_site_fract_y
_atom_site_fract_z
Zn1	Zn	1.606244	-0.594007	0.418151
Zn2	Zn	1.606138	-0.418328	0.593872
Zn3	Zn	1.430548	-0.418344	0.418212
Zn4	Zn	1.430532	-0.593967	0.593794
O5	O	1.518366	-0.506162	0.506007
O6	O	1.753251	-0.570713	0.441468
O7	O	1.582807	-0.271309	0.570628
O8	O	1.453905	-0.441670	0.271183
O9	O	1.753173	-0.441642	0.570569
O10	O	1.582989	-0.570729	0.271138
O11	O	1.453802	-0.271321	0.441572
O12	O	1.283525	-0.441630	0.441497
O13	O	1.453879	-0.740993	0.570436
O14	O	1.283514	-0.570660	0.570496
O15	O	1.582974	-0.741023	0.441392
O16	O	1.582792	-0.441603	0.740882
O17	O	1.453776	-0.570644	0.740825
C18	C	1.245398	-0.506143	0.505995
C19	C	1.128622	-0.506160	0.506015
C20	C	0.964081	-0.573483	0.438910
C21	C	1.073805	-0.573472	0.438907
C22	C	1.073708	-0.438863	0.573139
C23	C	0.963986	-0.438880	0.573146
C24	C	0.964138	-0.651195	0.361409
C25	C	1.073862	-0.651184	0.361406
C26	C	1.518437	-0.780195	0.505899
C27	C	1.518467	-0.896972	0.505852
C28	C	1.384143	-0.897003	0.371457
C29	C	1.317000	-0.951880	0.304239
C30	C	1.317032	-1.061601	0.304201
C31	C	1.384211	-1.116449	0.371391
C32	C	1.451354	-1.061573	0.438609
C33	C	1.451317	-0.951848	0.438638
C34	C	1.585671	-1.061541	0.573008
C35	C	1.585647	-0.951820	0.573042
C36	C	1.652851	-1.116389	0.640198
C37	C	1.720000	-1.061513	0.707413
C38	C	1.719967	-0.951784	0.707447
C39	C	1.652790	-0.896943	0.640261
C40	C	1.792399	-0.506181	0.506020
C41	C	1.909175	-0.506189	0.506025
C42	C	1.518299	-0.506140	0.778975
C43	C	1.518367	-0.506166	0.895751
C44	C	1.518355	-0.233194	0.506039
C45	C	1.518528	-0.116418	0.505790
C46	C	1.518461	-0.506206	0.231974
C47	C	1.518501	-0.506225	0.115197
C48	C	1.585617	-0.573461	1.060223
C49	C	1.585553	-0.573429	0.950499
C50	C	1.451249	-0.438923	0.950733
C51	C	1.451319	-0.438950	1.060455
C52	C	1.663153	-0.651120	1.060087
C53	C	1.663089	-0.651088	0.950363
H54	H	1.107923	-0.728427	0.390638
Cl55	Cl	1.142620	-0.354251	0.657514
H56	H	1.262302	-0.907210	0.249537
H57	H	1.396677	-0.384190	1.105211
H58	H	1.103651	-0.629515	0.280011
H59	H	1.262357	-1.106282	0.249467
Cl60	Cl	1.629338	-0.776670	0.904308
H61	H	1.384221	-1.205790	0.371363
H62	H	1.633972	-0.728390	1.094085
H63	H	1.740382	-0.622005	0.916284
H64	H	1.652759	-0.807602	0.640279
Cl65	Cl	1.652880	-1.254326	0.640161
H66	H	1.396551	-0.384149	0.906151
H67	H	1.774688	-1.106178	0.762117
Cl68	Cl	1.384112	-0.759066	0.371487
Cl69	Cl	1.804374	-0.882806	0.791962
Cl70	Cl	0.918212	-0.776770	0.395199
Cl71	Cl	1.788827	-0.617601	1.105975
H72	H	0.919286	-0.384092	0.627807
H73	H	0.930110	-0.622188	0.284084
