data_functionalizedCrystal
_audit_creation_method	'MofGen! by Chris Wilmer'
_symmetry_space_group_name_H-M	'P1'
_symmetry_Int_Tables_number	1
_symmetry_cell_setting	triclinic
loop_
_symmetry_equiv_pos_as_xyz
  x,y,z
_cell_length_a	14.908506
_cell_length_b	18.215407
_cell_length_c	18.215399
_cell_angle_alpha	90.017368
_cell_angle_beta	86.729363
_cell_angle_gamma	93.317222
loop_
_atom_site_label
_atom_site_type_symbol
_atom_site_fract_x
_atom_site_fract_y
_atom_site_fract_z
Zn1	Zn	-0.359230	1.108178	0.432979
Zn2	Zn	-0.025897	1.441512	0.766313
Zn3	Zn	0.307437	1.774845	1.099646
Zn4	Zn	-0.510099	1.100992	0.317016
Zn5	Zn	-0.176766	1.434325	0.650349
Zn6	Zn	0.156568	1.767659	0.983683
Zn7	Zn	-0.359252	0.985110	0.309933
Zn8	Zn	-0.025918	1.318443	0.643266
Zn9	Zn	0.307415	1.651777	0.976600
Zn10	Zn	-0.510041	0.977985	0.440043
Zn11	Zn	-0.176707	1.311318	0.773377
Zn12	Zn	0.156626	1.644651	1.106710
O13	O	-0.434655	1.043066	0.374993
O14	O	-0.101322	1.376400	0.708326
O15	O	0.232011	1.709733	1.041660
O16	O	-0.379258	1.210209	0.417605
O17	O	-0.045925	1.543542	0.750938
O18	O	0.287408	1.876875	1.084271
O19	O	-0.490122	1.085594	0.213094
O20	O	-0.156789	1.418928	0.546427
O21	O	0.176545	1.752261	0.879760
O22	O	-0.233004	1.007425	0.320335
O23	O	0.100329	1.340758	0.653668
O24	O	0.433663	1.674091	0.987002
O25	O	-0.490101	1.204929	0.332407
O26	O	-0.156768	1.538262	0.665740
O27	O	0.176566	1.871595	0.999073
O28	O	-0.232988	1.097843	0.410737
O29	O	0.100345	1.431176	0.744070
O30	O	0.433679	1.764509	1.077403
O31	O	-0.379295	1.000456	0.207890
O32	O	-0.045962	1.333790	0.541223
O33	O	0.287371	1.667123	0.874557
O34	O	-0.379239	0.881181	0.327185
O35	O	-0.045906	1.214515	0.660518
O36	O	0.287428	1.547848	0.993851
O37	O	-0.490002	0.995281	0.542089
O38	O	-0.156669	1.328614	0.875422
O39	O	0.176665	1.661947	1.208756
O40	O	-0.490023	0.875946	0.422776
O41	O	-0.156690	1.209280	0.756109
O42	O	0.176644	1.542613	1.089443
O43	O	-0.379202	1.090934	0.536899
O44	O	-0.045869	1.424267	0.870233
O45	O	0.287465	1.757600	1.203566
O46	O	-0.636336	1.078685	0.339256
O47	O	-0.303003	1.412018	0.672589
O48	O	0.030331	1.745352	1.005923
O49	O	-0.636293	0.988312	0.429644
O50	O	-0.302960	1.321646	0.762977
O51	O	0.030373	1.654979	1.096311
C52	C	-0.434628	0.851861	0.374979
C53	C	-0.101294	1.185195	0.708312
C54	C	0.232039	1.518528	1.041645
C55	C	-0.434638	0.770062	0.374991
C56	C	-0.101304	1.103395	0.708325
C57	C	0.232029	1.436729	1.041658
C58	C	-0.377041	0.584611	0.419434
C59	C	-0.043707	0.917944	0.752767
C60	C	0.289626	1.251277	1.086100
C61	C	-0.377048	0.507751	0.419437
C62	C	-0.043715	0.841085	0.752770
C63	C	0.289618	1.174418	1.086103
C64	C	-0.492296	0.502273	0.330566
C65	C	-0.158962	0.835606	0.663900
C66	C	0.174371	1.168939	0.997233
C67	C	-0.492283	0.579131	0.330560
C68	C	-0.158949	0.912464	0.663893
C69	C	0.174384	1.245797	0.997227
C70	C	-0.434656	0.620298	0.374998
C71	C	-0.101323	0.953631	0.708331
C72	C	0.232010	1.286964	1.041665
C73	C	-0.434677	0.466580	0.375007
C74	C	-0.101344	0.799914	0.708340
C75	C	0.231990	1.133247	1.041674
C76	C	-0.434686	0.383246	0.375010
C77	C	-0.101353	0.716580	0.708343
C78	C	0.231981	1.049913	1.041677
C79	C	-0.434646	0.703637	0.374994
C80	C	-0.101313	1.036970	0.708328
C81	C	0.232020	1.370304	1.041661
C82	C	-0.669049	1.031966	0.386001
C83	C	-0.335715	1.365299	0.719334
C84	C	-0.002382	1.698632	1.052668
C85	C	-0.769323	1.027284	0.390735
C86	C	-0.435990	1.360617	0.724068
C87	C	-0.102656	1.693951	1.057402
C88	C	-0.910666	0.973597	0.444423
C89	C	-0.577332	1.306930	0.777756
C90	C	-0.243999	1.640264	1.111090
C91	C	-0.816449	0.977994	0.439980
C92	C	-0.483115	1.311327	0.773314
C93	C	-0.149782	1.644661	1.106647
C94	C	-0.816421	1.072182	0.345931
C95	C	-0.483087	1.405515	0.679264
C96	C	-0.149754	1.738849	1.012598
C97	C	-0.910637	1.067785	0.350374
C98	C	-0.577304	1.401118	0.683707
C99	C	-0.243971	1.734452	1.017041
C100	C	-0.957756	1.018490	0.399621
C101	C	-0.624423	1.351823	0.732954
C102	C	-0.291090	1.685157	1.066287
C103	C	-1.051975	1.014090	0.404059
C104	C	-0.718642	1.347423	0.737393
C105	C	-0.385308	1.680756	1.070726
C106	C	-1.051945	1.108281	0.310014
C107	C	-0.718612	1.441614	0.643348
C108	C	-0.385278	1.774948	0.976681
C109	C	-0.957728	1.112678	0.305572
C110	C	-0.624395	1.446011	0.638905
C111	C	-0.291061	1.779345	0.972238
C112	C	-0.199347	1.054230	0.363958
C113	C	0.133986	1.387563	0.697291
C114	C	0.467320	1.720897	1.030625
C115	C	-0.099072	1.058988	0.359255
C116	C	0.234261	1.392321	0.692589
C117	C	0.567594	1.725654	1.025922
C118	C	-0.434593	1.043114	0.566943
C119	C	-0.101260	1.376447	0.900276
C120	C	0.232073	1.709781	1.233610
C121	C	-0.434567	1.043134	0.648741
C122	C	-0.101233	1.376468	0.982074
C123	C	0.232100	1.709801	1.315407
C124	C	-0.434684	1.235018	0.375008
C125	C	-0.101351	1.568351	0.708341
C126	C	0.231983	1.901684	1.041674
C127	C	-0.434696	1.316816	0.375014
C128	C	-0.101363	1.650149	0.708347
C129	C	0.231971	1.983483	1.041681
C130	C	-0.434652	1.043064	0.183787
C131	C	-0.101319	1.376397	0.517120
C132	C	0.232014	1.709731	0.850453
C133	C	-0.434425	1.043198	0.101977
C134	C	-0.101091	1.376532	0.435311
C135	C	0.232242	1.709865	0.768644
C136	C	-0.376819	1.092960	0.834231
C137	C	-0.043486	1.426294	1.167564
C138	C	0.289847	1.759627	1.500898
C139	C	-0.376793	1.092970	0.911089
C140	C	-0.043460	1.426304	1.244422
C141	C	0.289874	1.759637	1.577755
C142	C	-0.492175	0.993367	0.916482
C143	C	-0.158841	1.326700	1.249815
C144	C	0.174492	1.660034	1.583148
C145	C	-0.492196	0.993354	0.839625
C146	C	-0.158862	1.326687	1.172959
C147	C	0.174471	1.660021	1.506292
C148	C	-0.434519	1.043155	0.798502
C149	C	-0.101186	1.376488	1.131835
C150	C	0.232147	1.709821	1.465169
C151	C	-0.434472	1.043178	0.952216
C152	C	-0.101139	1.376511	1.285549
C153	C	0.232195	1.709844	1.618883
C154	C	-0.434444	1.043188	1.035548
C155	C	-0.101111	1.376522	1.368882
C156	C	0.232223	1.709855	1.702215
C157	C	-0.434546	1.043144	0.715164
C158	C	-0.101213	1.376477	1.048498
C159	C	0.232121	1.709810	1.381831
H160	H	-1.090338	0.973953	0.444161
H161	H	-0.757005	1.307287	0.777494
H162	H	-0.423671	1.640620	1.110828
H163	H	-1.090296	1.144836	0.273533
H164	H	-0.756963	1.478169	0.606866
H165	H	-0.423630	1.811503	0.940200
H166	H	-0.778044	1.112322	0.305841
H167	H	-0.444710	1.445655	0.639174
H168	H	-0.111377	1.778988	0.972507
H169	H	-0.539214	0.468745	0.294387
H170	H	-0.205880	0.802079	0.627721
H171	H	0.127453	1.135412	0.961054
Cl172	Cl	-0.304592	0.636361	0.475295
Cl173	Cl	0.028741	0.969694	0.808628
Cl174	Cl	0.362074	1.303028	1.141961
Cl175	Cl	-0.304260	1.155592	0.956002
Cl176	Cl	0.029073	1.488925	1.289335
Cl177	Cl	0.362407	1.822258	1.622669
Cl178	Cl	-0.304612	0.462891	0.475300
Cl179	Cl	0.028721	0.796225	0.808634
Cl180	Cl	0.362054	1.129558	1.141967
H181	H	-0.949031	0.933460	0.484523
H182	H	-0.615697	1.266793	0.817856
H183	H	-0.282364	1.600127	1.151190
Cl184	Cl	-0.564734	0.930732	0.794705
Cl185	Cl	-0.231401	1.264066	1.128039
Cl186	Cl	0.101933	1.597399	1.461372
H187	H	-0.329853	1.133509	0.800750
H188	H	0.003480	1.466843	1.134084
H189	H	0.336814	1.800176	1.467417
H190	H	-0.778110	0.941439	0.476463
H191	H	-0.444777	1.274772	0.809797
H192	H	-0.111443	1.608105	1.143130
Cl193	Cl	-0.564711	0.623998	0.274685
Cl194	Cl	-0.231377	0.957331	0.608019
Cl195	Cl	0.101956	1.290665	0.941352
H196	H	-0.919353	1.152815	0.265478
H197	H	-0.586020	1.486148	0.598811
H198	H	-0.252686	1.819482	0.932144
H199	H	-0.539135	0.952823	0.949974
H200	H	-0.205801	1.286156	1.283307
H201	H	0.127532	1.619489	1.616640
