data_functionalizedCrystal
_audit_creation_method	'MofGen! by Chris Wilmer'
_symmetry_space_group_name_H-M	'P1'
_symmetry_Int_Tables_number	1
_symmetry_cell_setting	triclinic
loop_
_symmetry_equiv_pos_as_xyz
  x,y,z
_cell_length_a	10.489741
_cell_length_b	8.634740
_cell_length_c	7.681481
_cell_angle_alpha	96.618670
_cell_angle_beta	84.199479
_cell_angle_gamma	92.554740
loop_
_atom_site_label
_atom_site_type_symbol
_atom_site_fract_x
_atom_site_fract_y
_atom_site_fract_z
O1	O	0.426724	2.036219	-0.146437
O2	O	0.391805	1.586879	-0.146438
O3	O	0.224845	1.821774	-0.146427
O4	O	0.593684	1.801323	-0.146448
O5	O	0.204240	1.850685	0.146432
O6	O	0.371200	1.615790	0.146421
O7	O	0.406119	2.065130	0.146422
Zn8	Zn	0.385388	1.845050	0.192919
Zn9	Zn	0.412536	1.806958	-0.192935
O10	O	0.573080	1.830234	0.146411
C11	C	0.373592	1.543796	-0.000009
C12	C	0.350006	1.372351	-0.000009
C13	C	0.166833	1.834685	0.000001
C14	C	0.024671	1.830064	-0.000002
C15	C	-0.060702	1.680606	-0.000015
C16	C	-0.154842	1.765463	0.144380
C17	C	-0.134498	1.736994	-0.144356
C18	C	-0.067606	1.914994	0.144512
C19	C	-0.047246	1.886492	-0.144354
C20	C	-0.141349	1.971460	0.000077
C21	C	0.631092	1.817323	-0.000021
C22	C	0.773255	1.821943	-0.000030
C23	C	0.424332	2.108212	-0.000011
C24	C	0.447919	2.279656	-0.000022
N25	N	0.366862	1.871058	0.456255
N26	N	0.431054	1.780963	-0.456271
H27	H	0.549789	1.331458	-0.000012
N28	N	0.215060	1.303727	-0.000011
H29	H	0.176635	1.328459	-0.108568
H30	H	0.161457	1.349908	0.108630
N31	N	0.280080	1.992905	0.555866
H32	H	0.239208	2.050274	0.469621
H33	H	0.332003	2.069292	0.632330
N34	N	-0.013711	1.517856	0.000154
H35	H	-0.053173	1.472384	0.109332
H36	H	0.082742	1.522137	-0.001028
N37	N	-0.028520	2.014677	0.306395
H38	H	0.067900	2.017148	0.305435
H39	H	-0.068797	1.969342	0.415235
N40	N	-0.216947	1.697683	0.306099
H41	H	-0.187671	1.587814	0.306000
H42	H	-0.313225	1.696104	0.305403
N43	N	-0.188046	2.134380	0.000166
H44	H	-0.163800	2.201384	0.109279
H45	H	-0.284337	2.130139	-0.000939
N46	N	0.014905	1.954224	-0.306064
H47	H	0.073220	1.875345	-0.377141
H48	H	0.066634	2.051800	-0.269142
N49	N	-0.173834	1.637242	-0.306051
H50	H	-0.144570	1.527398	-0.305913
H51	H	-0.133064	1.681945	-0.415026
N52	N	0.517846	1.659135	0.444132
H53	H	0.515735	1.662082	0.313395
H54	H	0.487458	1.552546	0.476286
