data_functionalizedCrystal
_audit_creation_method	'MofGen! by Chris Wilmer'
_symmetry_space_group_name_H-M	'P1'
_symmetry_Int_Tables_number	1
_symmetry_cell_setting	triclinic
loop_
_symmetry_equiv_pos_as_xyz
  x,y,z
_cell_length_a	10.654550
_cell_length_b	15.995350
_cell_length_c	9.730223
_cell_angle_alpha	90.000899
_cell_angle_beta	89.996251
_cell_angle_gamma	83.988639
loop_
_atom_site_label
_atom_site_type_symbol
_atom_site_fract_x
_atom_site_fract_y
_atom_site_fract_z
O1	O	1.666298	0.117599	-0.114395
O2	O	1.300673	0.128803	-0.114373
O3	O	1.493480	0.001371	-0.114383
O4	O	1.473491	0.245031	-0.114385
O5	O	1.493478	0.001375	0.114197
O6	O	1.300671	0.128806	0.114207
O7	O	1.666295	0.117602	0.114185
Zn8	Zn	1.483483	0.123205	0.150488
Zn9	Zn	1.483486	0.123200	-0.150676
O10	O	1.473488	0.245034	0.114195
C11	C	1.253885	0.127982	-0.000080
C12	C	1.114473	0.125521	-0.000071
C13	C	1.492652	-0.029827	-0.000096
C14	C	1.490175	-0.122791	-0.000104
C15	C	1.034008	0.200551	-0.000092
C16	C	0.903017	0.198233	-0.000116
C17	C	0.932971	0.045849	-0.000104
C18	C	1.063959	0.048168	-0.000071
C19	C	1.084522	0.277904	-0.000093
C20	C	1.004055	0.352940	-0.000115
C21	C	0.873064	0.350622	-0.000138
C22	C	0.822541	0.273268	-0.000140
C23	C	1.481278	-0.460591	-0.000098
C24	C	1.343964	-0.413954	-0.000603
C25	C	1.346442	-0.317249	-0.000087
C26	C	1.485691	-0.293004	-0.000102
C27	C	1.553417	-0.333687	0.130422
C28	C	1.549968	-0.430342	0.130531
C29	C	1.552807	-0.430688	-0.129407
C30	C	1.552775	-0.333743	-0.131132
C31	C	1.488192	-0.198292	-0.000099
C32	C	1.478780	-0.555303	-0.000092
C33	C	1.713084	0.118423	-0.000111
C34	C	1.852495	0.120884	-0.000129
C35	C	1.474316	0.276232	-0.000095
C36	C	1.476793	0.369197	-0.000097
N37	N	1.483490	0.123207	0.356024
N38	N	1.483488	0.123191	-0.356212
C39	C	1.568886	0.066800	0.427946
C40	C	1.568883	0.066789	0.571829
C41	C	1.398083	0.179602	0.571856
C42	C	1.398081	0.179607	0.427976
C43	C	1.654295	0.010400	0.355994
C44	C	1.739700	-0.046012	0.427915
C45	C	1.739697	-0.046022	0.571798
C46	C	1.654289	0.010379	0.643760
H47	H	1.191179	0.279800	-0.000080
H48	H	0.807551	0.411720	-0.000142
C49	C	1.059146	0.436836	-0.000181
C50	C	1.191083	0.422810	-0.000196
C51	C	1.241872	0.500077	-0.000276
H52	H	1.031649	0.467832	0.079501
H53	H	1.031612	0.467765	-0.079932
H54	H	1.218606	0.391895	0.079546
H55	H	1.218615	0.391828	-0.079872
H56	H	1.214338	0.531006	-0.080027
H57	H	1.214365	0.531067	0.079407
H58	H	1.331395	0.490571	-0.000299
C59	C	1.832553	-0.107305	0.649639
C60	C	1.907365	-0.156679	0.555825
C61	C	1.992936	-0.213133	0.627477
H62	H	1.787535	-0.142526	0.705767
H63	H	1.884890	-0.076881	0.705740
H64	H	1.855034	-0.187100	0.499747
H65	H	1.952410	-0.121481	0.499693
H66	H	2.045273	-0.182710	0.683578
H67	H	1.947907	-0.248348	0.683603
H68	H	2.043713	-0.246635	0.563836
H69	H	1.809230	-0.091937	0.369317
H70	H	1.129477	-0.012928	-0.000058
C71	C	1.486951	-0.297570	-0.259847
C72	C	1.492127	-0.210487	-0.263070
C73	C	1.431515	-0.177131	-0.381625
H74	H	1.401324	-0.309174	-0.259135
H75	H	1.527973	-0.322403	-0.338803
H76	H	1.451103	-0.185661	-0.184135
H77	H	1.577738	-0.198859	-0.263804
H78	H	1.472536	-0.201964	-0.460581
H79	H	1.345892	-0.188741	-0.380903
H80	H	1.435029	-0.118043	-0.383834
C81	C	0.878292	-0.038189	-0.000337
C82	C	0.919250	-0.083601	-0.117910
C83	C	0.868921	-0.161026	-0.118169
H84	H	0.788760	-0.028943	-0.000434
H85	H	0.905923	-0.069161	0.079338
H86	H	0.891612	-0.052636	-0.197565
H87	H	1.008775	-0.092870	-0.117838
H88	H	0.896552	-0.191998	-0.038493
H89	H	0.779391	-0.151771	-0.118262
H90	H	0.896713	-0.191850	-0.197934
C91	C	1.688162	-0.312487	-0.141996
C92	C	1.744110	-0.349992	-0.260079
C93	C	1.868814	-0.330399	-0.270154
H94	H	1.734170	-0.333002	-0.063192
H95	H	1.688791	-0.253233	-0.147560
H96	H	1.743488	-0.409234	-0.254504
H97	H	1.698139	-0.329483	-0.338904
H98	H	1.869443	-0.271145	-0.275718
H99	H	1.914810	-0.350915	-0.191345
H100	H	1.906787	-0.355837	-0.350279
C101	C	1.275339	-0.279913	-0.124878
C102	C	1.229765	-0.344424	-0.201429
C103	C	1.164235	-0.310065	-0.316384
H104	H	1.330567	-0.251313	-0.180262
H105	H	1.206553	-0.241453	-0.095537
H106	H	1.298541	-0.382870	-0.230771
H107	H	1.174520	-0.373030	-0.146085
H108	H	1.095449	-0.271605	-0.287044
H109	H	1.219471	-0.281466	-0.371757
H110	H	1.133295	-0.353830	-0.368332
C111	C	1.305307	0.240704	0.650160
C112	C	1.228467	0.195620	0.732792
C113	C	1.143001	0.251882	0.804958
H114	H	1.254322	0.274324	0.586879
H115	H	1.350448	0.275824	0.706367
H116	H	1.183329	0.160515	0.676590
H117	H	1.279417	0.162003	0.796099
H118	H	1.188142	0.287003	0.861164
H119	H	1.092025	0.285500	0.741666
H120	H	1.090862	0.221302	0.861041
H121	H	0.715878	0.271387	-0.000138
C122	C	1.654042	0.010468	0.799978
C123	C	1.560956	0.071923	0.847598
C124	C	1.560685	0.072024	0.991494
H125	H	1.734223	0.022456	0.832699
H126	H	1.636796	-0.043141	0.832565
H127	H	1.578210	0.125520	0.815025
H128	H	1.480762	0.059949	0.814915
H129	H	1.543439	0.018415	1.024082
H130	H	1.640870	0.084010	1.024201
H131	H	1.497520	0.113715	1.023823
C132	C	1.275001	-0.280666	0.125019
C133	C	1.229431	-0.345649	0.200437
C134	C	1.163632	-0.311983	0.315713
H135	H	1.206197	-0.242107	0.096102
H136	H	1.330096	-0.252317	0.180991
H137	H	1.174338	-0.373985	0.144476
H138	H	1.298208	-0.384213	0.229389
H139	H	1.218728	-0.283634	0.371685
H140	H	1.094834	-0.273425	0.286783
H141	H	1.132715	-0.356069	0.366905
C142	C	1.484013	-0.454959	0.260678
C143	C	1.447647	-0.382836	0.338477
C144	C	1.386867	-0.405474	0.458368
H145	H	1.540018	-0.492574	0.313020
H146	H	1.411424	-0.481615	0.236885
H147	H	1.520225	-0.356194	0.362273
H148	H	1.391628	-0.345214	0.286176
H149	H	1.314279	-0.432129	0.434574
H150	H	1.442880	-0.443089	0.510698
H151	H	1.362176	-0.356542	0.511163
C152	C	1.684472	-0.472410	0.138509
C153	C	1.768482	-0.410767	0.143206
C154	C	1.892392	-0.449483	0.150582
H155	H	1.701969	-0.506822	0.059831
H156	H	1.694047	-0.506068	0.219030
H157	H	1.758913	-0.377123	0.062694
H158	H	1.751026	-0.376351	0.221881
H159	H	1.901967	-0.483141	0.231102
H160	H	1.909876	-0.483895	0.071901
H161	H	1.949408	-0.407665	0.153782
C162	C	1.492732	-0.458457	-0.261171
C163	C	1.390322	-0.502972	-0.228652
C164	C	1.334925	-0.528555	-0.349989
H165	H	1.553187	-0.493625	-0.312238
H166	H	1.464143	-0.410440	-0.314465
H167	H	1.418912	-0.550982	-0.175381
H168	H	1.329839	-0.467820	-0.177604
H169	H	1.306337	-0.480538	-0.403283
H170	H	1.395390	-0.563720	-0.401047
H171	H	1.265428	-0.558754	-0.327942
H172	H	1.289082	-0.432806	-0.094203
C173	C	1.687774	-0.472294	-0.130892
C174	C	1.708287	-0.519892	-0.251089
C175	C	1.832602	-0.558226	-0.252502
H176	H	1.701420	-0.507985	-0.053124
H177	H	1.744545	-0.430312	-0.128107
H178	H	1.651534	-0.561868	-0.253861
H179	H	1.694668	-0.484220	-0.328877
H180	H	1.889373	-0.516244	-0.249718
H181	H	1.846237	-0.593913	-0.174729
H182	H	1.846540	-0.590519	-0.334060
H183	H	1.289324	-0.433864	0.092484
C184	C	1.305515	0.240986	0.349949
C185	C	1.325889	0.323394	0.384921
C186	C	1.240648	0.379957	0.313054
H187	H	1.221651	0.231485	0.373471
H188	H	1.317753	0.232964	0.253942
H189	H	1.313640	0.331413	0.480906
H190	H	1.409736	0.332922	0.361396
H191	H	1.252887	0.371935	0.217048
H192	H	1.156790	0.370448	0.336582
H193	H	1.254468	0.435877	0.336763
H194	H	1.655720	-0.318967	0.135266
H195	H	1.506376	-0.305577	0.227563
H196	H	1.654308	0.010404	0.238837
