data_functionalizedCrystal
_audit_creation_method	'MofGen! by Chris Wilmer'
_symmetry_space_group_name_H-M	'P1'
_symmetry_Int_Tables_number	1
_symmetry_cell_setting	triclinic
loop_
_symmetry_equiv_pos_as_xyz
  x,y,z
_cell_length_a	15.944551
_cell_length_b	10.868271
_cell_length_c	11.792241
_cell_angle_alpha	89.998922
_cell_angle_beta	83.846077
_cell_angle_gamma	89.999718
loop_
_atom_site_label
_atom_site_type_symbol
_atom_site_fract_x
_atom_site_fract_y
_atom_site_fract_z
O1	O	1.115186	-0.102194	0.146373
O2	O	1.365186	0.147806	0.396373
O3	O	1.615186	0.397806	0.646373
O4	O	1.865186	0.647806	0.896373
O5	O	0.870717	-0.102225	0.164420
O6	O	1.120717	0.147775	0.414420
O7	O	1.370717	0.397775	0.664420
O8	O	1.620717	0.647775	0.914420
O9	O	0.998884	-0.102200	-0.009823
O10	O	1.248884	0.147800	0.240177
O11	O	1.498884	0.397800	0.490177
O12	O	1.748884	0.647800	0.740177
O13	O	0.987019	-0.102219	0.320616
O14	O	1.237019	0.147781	0.570616
O15	O	1.487019	0.397781	0.820616
O16	O	1.737019	0.647781	1.070616
O17	O	0.998871	0.102444	-0.009815
O18	O	1.248871	0.352444	0.240185
O19	O	1.498871	0.602444	0.490185
O20	O	1.748871	0.852444	0.740185
O21	O	0.870704	0.102420	0.164428
O22	O	1.120704	0.352420	0.414428
O23	O	1.370704	0.602420	0.664428
O24	O	1.620704	0.852420	0.914428
O25	O	1.115173	0.102450	0.146381
O26	O	1.365173	0.352450	0.396381
O27	O	1.615173	0.602450	0.646381
O28	O	1.865173	0.852450	0.896381
Zn29	Zn	0.992937	0.134927	0.155405
Zn30	Zn	1.242937	0.384927	0.405405
Zn31	Zn	1.492937	0.634927	0.655405
Zn32	Zn	1.742937	0.884927	0.905405
Zn33	Zn	0.992953	-0.134701	0.155396
Zn34	Zn	1.242953	0.115299	0.405396
Zn35	Zn	1.492953	0.365299	0.655396
Zn36	Zn	1.742953	0.615299	0.905396
O37	O	0.987006	0.102426	0.320624
O38	O	1.237006	0.352426	0.570624
O39	O	1.487006	0.602426	0.820624
O40	O	1.737006	0.852426	1.070624
C41	C	0.839414	0.000093	0.163675
C42	C	1.089414	0.250093	0.413675
C43	C	1.339414	0.500093	0.663675
C44	C	1.589414	0.750093	0.913675
C45	C	0.746157	0.000082	0.161429
C46	C	0.996157	0.250082	0.411429
C47	C	1.246157	0.500082	0.661429
C48	C	1.496157	0.750082	0.911429
N49	N	0.992931	0.318941	0.155411
N50	N	1.242931	0.568941	0.405411
N51	N	1.492931	0.818941	0.655411
N52	N	1.742931	1.068941	0.905411
C53	C	0.992937	0.430278	0.155413
C54	C	1.242937	0.680278	0.405413
C55	C	1.492937	0.930278	0.655413
C56	C	1.742937	1.180278	0.905413
C57	C	0.992947	0.569956	0.155403
C58	C	1.242947	0.819956	0.405403
C59	C	1.492947	1.069956	0.655403
C60	C	1.742947	1.319956	0.905403
C61	C	0.530789	0.000112	0.048056
C62	C	0.780789	0.250112	0.298056
C63	C	1.030789	0.500112	0.548056
C64	C	1.280789	0.750112	0.798056
C65	C	0.470013	-0.100791	0.100699
C66	C	0.720013	0.149209	0.350699
C67	C	0.970013	0.399209	0.600699
C68	C	1.220013	0.649209	0.850699
C69	C	0.575413	0.000097	0.157365
C70	C	0.825413	0.250097	0.407365
C71	C	1.075413	0.500097	0.657365
C72	C	1.325413	0.750097	0.907365
C73	C	0.470023	0.100972	0.100732
C74	C	0.720023	0.350972	0.350732
C75	C	0.970023	0.600972	0.600732
C76	C	1.220023	0.850972	0.850732
C77	C	0.410483	0.000116	0.153432
C78	C	0.660483	0.250116	0.403432
C79	C	0.910483	0.500116	0.653432
C80	C	1.160483	0.750116	0.903432
C81	C	0.515865	-0.100890	0.210038
C82	C	0.765865	0.149110	0.460038
C83	C	1.015865	0.399110	0.710038
C84	C	1.265865	0.649110	0.960038
C85	C	0.515881	0.100964	0.210056
C86	C	0.765881	0.350964	0.460056
C87	C	1.015881	0.600964	0.710056
C88	C	1.265881	0.850964	0.960056
C89	C	0.455123	0.000036	0.262778
C90	C	0.705123	0.250036	0.512778
C91	C	0.955123	0.500036	0.762778
C92	C	1.205123	0.750036	1.012778
C93	C	0.670426	0.000084	0.159628
C94	C	0.920426	0.250084	0.409628
C95	C	1.170426	0.500084	0.659628
C96	C	1.420426	0.750084	0.909628
C97	C	0.315471	0.000120	0.151178
C98	C	0.565471	0.250120	0.401178
C99	C	0.815471	0.500120	0.651178
C100	C	1.065471	0.750120	0.901178
C101	C	1.146476	0.000129	0.147126
C102	C	1.396476	0.250129	0.397126
C103	C	1.646476	0.500129	0.647126
C104	C	1.896476	0.750129	0.897126
C105	C	1.239733	0.000133	0.149372
C106	C	1.489733	0.250133	0.399372
C107	C	1.739733	0.500133	0.649372
C108	C	1.989733	0.750133	0.899372
N109	N	0.992960	0.681284	0.155389
N110	N	1.242960	0.931284	0.405389
N111	N	1.492960	1.181284	0.655389
N112	N	1.742960	1.431284	0.905389
C113	C	0.998132	0.000122	-0.052104
C114	C	1.248132	0.250122	0.197896
C115	C	1.498132	0.500122	0.447896
C116	C	1.748132	0.750122	0.697896
C117	C	0.995901	0.000120	-0.178099
C118	C	1.245901	0.250120	0.071901
C119	C	1.495901	0.500120	0.321901
C120	C	1.745901	0.750120	0.571901
C121	C	0.991799	0.000099	-0.408777
C122	C	1.241799	0.250099	-0.158777
C123	C	1.491799	0.500099	0.091223
C124	C	1.741799	0.750099	0.341223
C125	C	0.994079	0.000110	-0.280411
C126	C	1.244079	0.250110	-0.030411
C127	C	1.494079	0.500110	0.219589
C128	C	1.744079	0.750110	0.469589
C129	C	0.987758	0.000101	0.362905
C130	C	1.237758	0.250101	0.612905
C131	C	1.487758	0.500101	0.862905
C132	C	1.737758	0.750101	1.112905
C133	C	0.989989	0.000094	0.488900
C134	C	1.239989	0.250094	0.738900
C135	C	1.489989	0.500094	0.988900
C136	C	1.739989	0.750094	1.238900
H137	H	0.563713	-0.000007	-0.042662
H138	H	0.813713	0.249993	0.207338
H139	H	1.063713	0.499993	0.457338
H140	H	1.313713	0.749993	0.707338
H141	H	0.449699	-0.186093	0.054463
H142	H	0.699699	0.063907	0.304463
H143	H	0.949699	0.313907	0.554463
H144	H	1.199699	0.563907	0.804463
H145	H	0.422374	-0.000026	0.353590
H146	H	0.672374	0.249974	0.603590
H147	H	0.922374	0.499974	0.853590
H148	H	1.172374	0.749974	1.103590
O149	O	0.542631	-0.214033	0.271190
O150	O	0.792631	0.035967	0.521190
O151	O	1.042631	0.285967	0.771190
O152	O	1.292631	0.535967	1.021190
H153	H	0.574525	-0.185800	0.346216
H154	H	0.824525	0.064200	0.596216
H155	H	1.074525	0.314200	0.846216
H156	H	1.324525	0.564200	1.096216
H157	H	0.449722	0.186275	0.054482
H158	H	0.699722	0.436275	0.304482
H159	H	0.949722	0.686275	0.554482
H160	H	1.199722	0.936275	0.804482
O161	O	0.542839	0.213953	0.271246
O162	O	0.792839	0.463953	0.521246
O163	O	1.042839	0.713953	0.771246
O164	O	1.292839	0.963953	1.021246
H165	H	0.524688	0.297596	0.225695
H166	H	0.774688	0.547596	0.475695
H167	H	1.024688	0.797596	0.725695
H168	H	1.274688	1.047596	0.975695
