data_functionalizedCrystal
_audit_creation_method	'MofGen! by Chris Wilmer'
_symmetry_space_group_name_H-M	'P1'
_symmetry_Int_Tables_number	1
_symmetry_cell_setting	triclinic
loop_
_symmetry_equiv_pos_as_xyz
  x,y,z
_cell_length_a	14.971486
_cell_length_b	15.538191
_cell_length_c	14.048226
_cell_angle_alpha	89.996115
_cell_angle_beta	89.998499
_cell_angle_gamma	65.443111
loop_
_atom_site_label
_atom_site_type_symbol
_atom_site_fract_x
_atom_site_fract_y
_atom_site_fract_z
O1	O	1.146981	0.122716	-0.079045
O2	O	0.881795	0.137412	-0.079071
O3	O	1.066008	-0.007007	-0.079057
O4	O	0.962767	0.267135	-0.079058
O5	O	1.065995	-0.007016	0.079264
O6	O	0.881781	0.137403	0.079251
O7	O	1.146967	0.122708	0.079276
Zn8	Zn	1.014372	0.130054	0.104400
Zn9	Zn	1.014390	0.130065	-0.104195
O10	O	0.962753	0.267127	0.079263
C11	C	0.848677	0.136750	0.000087
C12	C	0.750021	0.134781	0.000077
C13	C	0.665165	0.219623	0.000078
C14	C	0.572470	0.217767	0.000092
C15	C	0.564634	0.131067	0.000099
C16	C	0.649500	0.046219	0.000100
C17	C	0.742193	0.048076	0.000093
C18	C	0.456296	0.042354	0.000113
C19	C	0.363597	0.040496	0.000119
C20	C	0.286573	0.212045	0.000113
C21	C	0.379266	0.213902	0.000105
C22	C	0.464126	0.129053	0.000105
C23	C	1.076803	-0.042095	0.000101
C24	C	1.108978	-0.146632	0.000095
C25	C	0.789329	-0.434783	0.000085
C26	C	0.819585	-0.533015	0.000090
C27	C	0.989766	-0.555266	0.000105
C28	C	0.959525	-0.457034	0.000096
C29	C	0.859305	-0.396800	0.000086
C30	C	1.029501	-0.419051	0.000098
C31	C	0.999261	-0.320828	0.000093
C32	C	0.899046	-0.260588	0.000086
C33	C	0.829066	-0.298577	0.000082
C34	C	1.129720	-0.479287	0.000114
C35	C	1.199696	-0.441304	0.000115
C36	C	1.169457	-0.343079	0.000104
C37	C	1.069242	-0.282839	0.000097
C38	C	1.239438	-0.305090	0.000109
C39	C	1.209198	-0.206867	0.000104
C40	C	1.039002	-0.184615	0.000093
C41	C	1.180085	0.123369	0.000117
C42	C	1.278740	0.125339	0.000120
C43	C	0.951958	0.302214	0.000102
C44	C	0.919784	0.406752	0.000103
N45	N	1.014366	0.130046	0.246761
N46	N	1.014405	0.130066	-0.246555
C47	C	1.095947	0.066124	0.296585
C48	C	1.095953	0.066123	0.396243
C49	C	1.014381	0.130050	0.446075
C50	C	0.932793	0.193975	0.396244
C51	C	0.932785	0.193971	0.296588
C52	C	0.932816	0.193982	0.603958
C53	C	0.932825	0.193988	0.703621
C54	C	1.095984	0.066135	0.703613
C55	C	1.095976	0.066130	0.603957
C56	C	1.014389	0.130057	0.554133
H57	H	0.957393	-0.135569	0.000078
O58	O	0.490140	0.300270	0.000050
C59	C	0.423525	0.470618	0.000097
C60	C	0.516844	0.377250	0.000120
H61	H	0.445082	0.532880	0.000174
H62	H	0.378190	0.474105	-0.066169
H63	H	0.378208	0.473985	0.066345
H64	H	0.562237	0.373820	-0.066083
H65	H	0.562105	0.373802	0.066430
O66	O	0.538631	-0.040155	0.000066
C67	C	0.605251	-0.210503	0.000109
C68	C	0.511930	-0.117137	0.000150
H69	H	0.583697	-0.272767	0.000198
H70	H	0.650568	-0.213978	-0.066169
H71	H	0.650584	-0.213880	0.066345
H72	H	0.466520	-0.113699	-0.066041
H73	H	0.466687	-0.113701	0.066473
O74	O	0.869785	-0.165188	0.000208
C75	C	0.873014	-0.030326	0.082254
C76	C	0.906239	-0.138375	0.082224
H77	H	0.902455	-0.008612	0.148567
H78	H	0.902553	-0.008541	0.016043
H79	H	0.789365	0.006176	0.082201
H80	H	0.989879	-0.174952	0.082311
H81	H	0.876626	-0.160089	0.148429
O82	O	0.691935	-0.376398	0.000107
C83	C	0.526310	-0.364680	0.000012
C84	C	0.636569	-0.430908	0.000012
H85	H	0.481516	-0.408725	-0.000084
H86	H	0.507829	-0.318153	0.066281
H87	H	0.507962	-0.318122	-0.066234
H88	H	0.654997	-0.477525	0.066213
H89	H	0.654992	-0.477371	-0.066300
O90	O	1.277204	-0.170006	-0.000071
C91	C	1.413448	-0.159000	-0.082066
C92	C	1.336469	-0.200792	-0.082001
H93	H	1.461397	-0.183890	-0.148289
H94	H	1.374666	-0.078447	-0.082132
H95	H	1.461314	-0.183778	-0.015778
H96	H	1.288580	-0.176086	-0.148278
H97	H	1.375313	-0.281340	-0.081885
O98	O	1.175213	0.003906	0.444531
C99	C	1.280762	-0.159735	0.475065
C100	C	1.190990	-0.089378	0.420307
H101	H	1.293533	-0.235171	0.455515
H102	H	1.348405	-0.147402	0.455433
H103	H	1.266763	-0.148712	0.554848
H104	H	1.204893	-0.100360	0.340512
H105	H	1.123376	-0.101729	0.440018
O106	O	1.175110	0.004065	0.555396
C107	C	1.303453	-0.016121	0.442461
C108	C	1.213966	0.054338	0.497485
H109	H	1.334881	0.024496	0.395611
H110	H	1.361890	-0.061945	0.495017
H111	H	1.279790	-0.063088	0.395968
H112	H	1.237537	0.101366	0.543979
H113	H	1.155551	0.100095	0.444878
O114	O	1.159053	-0.574696	-0.000054
C115	C	1.155729	-0.709540	-0.082057
C116	C	1.122461	-0.601485	-0.081994
H117	H	1.126142	-0.731230	-0.148287
H118	H	1.239375	-0.746114	-0.082106
H119	H	1.126241	-0.731264	-0.015776
H120	H	1.151880	-0.579676	-0.148263
H121	H	1.038813	-0.564972	-0.081895
O122	O	1.175331	0.004129	0.751966
C123	C	1.348692	-0.050797	0.782404
C124	C	1.258912	0.019482	0.727595
H125	H	1.416294	-0.038422	0.762705
H126	H	1.334763	-0.039815	0.862201
H127	H	1.361494	-0.126236	0.762832
H128	H	1.246060	0.094948	0.747087
H129	H	1.272884	0.008418	0.647811
H130	H	0.866353	0.246021	0.256022
H131	H	0.671534	0.290224	0.000072
O132	O	1.087127	-0.613741	0.000279
C133	C	1.241858	-0.662770	0.082268
C134	C	1.131607	-0.596513	0.082207
H135	H	1.277856	-0.648851	0.148490
H136	H	1.251513	-0.739517	0.082333
H137	H	1.277838	-0.648947	0.015979
H138	H	1.095556	-0.610251	0.148485
H139	H	1.122022	-0.519787	0.082093
O140	O	0.853481	0.256108	0.751882
C141	C	0.691652	0.382928	0.741379
C142	C	0.781438	0.312620	0.686605
H143	H	0.633390	0.428650	0.688627
H144	H	0.660145	0.342223	0.788016
H145	H	0.714987	0.430006	0.788056
H146	H	0.758181	0.265524	0.639877
H147	H	0.812925	0.353383	0.640029
O148	O	0.853674	0.256120	0.555452
C149	C	0.792871	0.384724	0.442967
C150	C	0.882578	0.314392	0.497824
H151	H	0.816203	0.431869	0.396377
H152	H	0.761407	0.344040	0.396257
H153	H	0.734566	0.430377	0.495716
H154	H	0.940948	0.268722	0.445144
H155	H	0.913960	0.355134	0.544549
H156	H	0.217474	0.281132	0.000117
O157	O	0.853459	0.255977	0.444607
C158	C	0.680102	0.310914	0.475077
C159	C	0.769870	0.240628	0.420265
H160	H	0.612494	0.298543	0.455401
H161	H	0.694045	0.299939	0.554873
H162	H	0.667301	0.386351	0.455484
H163	H	0.782721	0.165164	0.439778
H164	H	0.755885	0.251687	0.340482
H165	H	0.385640	0.284500	0.000091
H166	H	0.357223	-0.030102	0.000126
H167	H	1.281296	-0.490360	0.000127
H168	H	0.643113	-0.024374	0.000119
H169	H	1.162374	0.014071	0.256018
H170	H	0.811286	-0.021012	0.000092
H171	H	0.747457	-0.249530	0.000067
H172	H	0.762594	-0.563935	0.000102
H173	H	1.321037	-0.354147	0.000126
