data_functionalizedCrystal
_audit_creation_method	'MofGen! by Chris Wilmer'
_symmetry_space_group_name_H-M	'P1'
_symmetry_Int_Tables_number	1
_symmetry_cell_setting	triclinic
loop_
_symmetry_equiv_pos_as_xyz
  x,y,z
_cell_length_a	19.121102
_cell_length_b	17.077402
_cell_length_c	17.077396
_cell_angle_alpha	89.970216
_cell_angle_beta	87.541651
_cell_angle_gamma	87.577149
loop_
_atom_site_label
_atom_site_type_symbol
_atom_site_fract_x
_atom_site_fract_y
_atom_site_fract_z
Zn1	Zn	-1.073738	0.363784	0.494968
Zn2	Zn	-1.073655	0.495055	0.363695
Zn3	Zn	-0.956287	0.358202	0.358123
Zn4	Zn	-0.956259	0.489402	0.489328
O5	O	-1.014985	0.426611	0.426529
O6	O	-1.172012	0.385900	0.482247
O7	O	-1.058063	0.476931	0.253108
O8	O	-0.971914	0.249098	0.376304
O9	O	-1.171951	0.482344	0.385801
O10	O	-1.058205	0.253199	0.476844
O11	O	-0.971834	0.376386	0.249014
O12	O	-0.857999	0.370904	0.370835
O13	O	-0.971865	0.472708	0.599924
O14	O	-0.857978	0.467296	0.467231
O15	O	-1.058177	0.380418	0.604068
O16	O	-1.058036	0.604150	0.380332
O17	O	-0.971785	0.599996	0.472634
C18	C	-1.014917	0.630556	0.426494
C19	C	-1.014952	0.717807	0.426509
C20	C	-0.832504	0.417882	0.417817
C21	C	-0.754438	0.414166	0.414109
C22	C	-1.198178	0.435375	0.435275
C23	C	-1.276244	0.439110	0.439002
C24	C	-0.717770	0.462682	0.462476
C25	C	-0.644419	0.459181	0.458996
C26	C	-0.607737	0.407167	0.407143
C27	C	-0.644410	0.358645	0.358774
C28	C	-0.717760	0.362143	0.362259
C29	C	-0.386267	0.394086	0.394118
C30	C	-0.312912	0.390594	0.390635
C31	C	-0.312926	0.491129	0.490857
C32	C	-0.386277	0.494625	0.494334
C33	C	-0.422944	0.446101	0.445968
C34	C	-0.532760	0.403588	0.403583
C35	C	-0.497920	0.449676	0.449533
C36	C	-1.015027	0.426555	0.631275
C37	C	-1.015046	0.426531	0.718526
C38	C	-1.015072	0.221871	0.426581
C39	C	-1.015109	0.134623	0.426604
C40	C	-1.059909	0.760936	0.378503
C41	C	-1.059943	0.842918	0.378525
C42	C	-1.015017	0.881770	0.426548
C43	C	-0.970058	0.838635	0.474559
C44	C	-0.970028	0.756654	0.474541
C45	C	-0.970123	1.009508	0.474592
C46	C	-0.970153	1.091494	0.474610
C47	C	-1.060039	1.095772	0.378576
C48	C	-1.060008	1.013791	0.378558
C49	C	-1.015049	0.970662	0.426568
C50	C	-1.014983	0.426612	0.222581
C51	C	-1.015101	0.426421	0.135337
C52	C	-1.059990	0.378472	0.761675
C53	C	-1.059998	0.378446	0.843656
C54	C	-1.015065	0.426485	0.882486
C55	C	-0.970116	0.474546	0.839331
C56	C	-0.970105	0.474567	0.757352
C57	C	-0.970145	0.474501	1.010203
C58	C	-0.970157	0.474481	1.092188
C59	C	-1.060038	0.378379	1.096507
C60	C	-1.060026	0.378400	1.014527
C61	C	-1.015078	0.426463	0.971378
H62	H	-0.747631	0.505040	0.504697
H63	H	-0.747615	0.322632	0.322877
H64	H	-1.096598	0.339313	0.878784
C65	C	-0.875703	1.179249	0.480948
C66	C	-0.920770	1.134197	0.527402
H67	H	-0.845214	1.205606	0.513542
H68	H	-0.902479	1.216666	0.452364
H69	H	-0.848843	1.146024	0.445441
H70	H	-0.947634	1.167423	0.562906
H71	H	-0.893992	1.096776	0.555999
H72	H	-0.283064	0.530633	0.530235
H73	H	-0.283048	0.348228	0.348415
C74	C	-0.881277	1.013510	0.569524
C75	C	-0.920706	0.962099	0.527369
H76	H	-0.850767	0.984239	0.602100
H77	H	-0.911874	1.046896	0.601041
H78	H	-0.854440	1.044252	0.534016
H79	H	-0.947548	0.931361	0.562877
H80	H	-0.890105	0.928699	0.495850
H81	H	-0.416113	0.354580	0.354728
C82	C	-0.531966	0.308642	0.308931
C83	C	-0.604091	0.301466	0.301780
H84	H	-0.507077	0.273344	0.273740
H85	H	-0.519973	0.296651	0.361118
H86	H	-0.519931	0.360797	0.296772
H87	H	-0.616127	0.249313	0.313945
H88	H	-0.616088	0.313452	0.249581
H89	H	-1.096587	0.982159	0.339449
C90	C	-1.099950	0.335646	1.224089
C91	C	-1.109435	0.325532	1.143933
H92	H	-1.130441	0.303017	1.253368
H93	H	-1.110215	0.388865	1.238005
H94	H	-1.052762	0.321901	1.235255
H95	H	-1.156622	0.339283	1.132766
H96	H	-1.099174	0.272301	1.130012
H97	H	-0.933482	0.870274	0.513665
C98	C	-0.875689	0.480814	1.179858
C99	C	-0.920754	0.527274	1.134868
H100	H	-0.845190	0.513407	1.206208
H101	H	-0.848845	0.445338	1.146599
H102	H	-0.902471	0.452199	1.217289
H103	H	-0.893972	0.555884	1.097433
H104	H	-0.947600	0.562763	1.168130
C105	C	-1.094182	0.737403	0.247243
C106	C	-1.109294	0.718235	0.325712
H107	H	-1.124676	0.711045	0.214654
H108	H	-1.047000	0.721761	0.233462
H109	H	-1.100636	0.792402	0.240395
H110	H	-1.102835	0.663236	0.332560
H111	H	-1.156488	0.733872	0.339497
H112	H	-1.096581	0.339355	0.730065
C113	C	-0.881183	0.760655	0.569468
C114	C	-0.920612	0.709244	0.527312
H115	H	-0.850675	0.731385	0.602046
H116	H	-0.911781	0.794043	0.600983
H117	H	-0.854344	0.791396	0.533961
H118	H	-0.947455	0.678507	0.562819
H119	H	-0.890010	0.675843	0.495795
H120	H	-0.933532	0.513626	0.975072
H121	H	-1.096619	0.339287	0.982914
H122	H	-1.096649	1.130892	0.339487
H123	H	-0.933529	0.513657	0.870953
H124	H	-0.933500	0.513694	0.722220
H125	H	-0.416139	0.536983	0.536556
H126	H	-0.614567	0.498688	0.498381
H127	H	-0.527789	0.492023	0.491755
C128	C	-1.154573	0.939387	0.372401
C129	C	-1.109475	0.890259	0.325830
H130	H	-1.185190	0.968589	0.339890
H131	H	-1.127827	0.974312	0.400934
H132	H	-1.181294	0.908574	0.407955
H133	H	-1.082750	0.921073	0.290280
H134	H	-1.136224	0.855330	0.297284
H135	H	-0.502886	0.361239	0.361363
