data_functionalizedCrystal
_audit_creation_method	'MofGen! by Chris Wilmer'
_symmetry_space_group_name_H-M	'P1'
_symmetry_Int_Tables_number	1
_symmetry_cell_setting	triclinic
loop_
_symmetry_equiv_pos_as_xyz
  x,y,z
_cell_length_a	18.101395
_cell_length_b	17.077404
_cell_length_c	17.077396
_cell_angle_alpha	90.019501
_cell_angle_beta	89.972533
_cell_angle_gamma	89.968671
loop_
_atom_site_label
_atom_site_type_symbol
_atom_site_fract_x
_atom_site_fract_y
_atom_site_fract_z
Zn1	Zn	-0.294825	-1.200010	-0.443848
Zn2	Zn	0.038508	-0.866676	-0.110515
Zn3	Zn	0.371841	-0.533343	0.222818
Zn4	Zn	-0.418674	-1.199898	-0.312585
Zn5	Zn	-0.085340	-0.866565	0.020749
Zn6	Zn	0.247993	-0.533231	0.354082
Zn7	Zn	-0.294851	-1.068742	-0.312596
Zn8	Zn	0.038482	-0.735408	0.020737
Zn9	Zn	0.371816	-0.402075	0.354070
Zn10	Zn	-0.418630	-1.068691	-0.443808
Zn11	Zn	-0.085297	-0.735357	-0.110475
Zn12	Zn	0.248037	-0.402024	0.222859
O13	O	-0.356745	-1.134335	-0.378209
O14	O	-0.023412	-0.801002	-0.044876
O15	O	0.309922	-0.467668	0.288457
O16	O	-0.311261	-1.309842	-0.426448
O17	O	0.022072	-0.976509	-0.093114
O18	O	0.355405	-0.643175	0.240219
O19	O	-0.402278	-1.182474	-0.202739
O20	O	-0.068944	-0.849141	0.130594
O21	O	0.264389	-0.515808	0.463928
O22	O	-0.191215	-1.086223	-0.330029
O23	O	0.142119	-0.752889	0.003305
O24	O	0.475452	-0.419556	0.336638
O25	O	-0.402253	-1.309760	-0.330009
O26	O	-0.068919	-0.976426	0.003324
O27	O	0.264414	-0.643093	0.336658
O28	O	-0.191196	-1.182665	-0.426459
O29	O	0.142138	-0.849332	-0.093126
O30	O	0.475471	-0.515998	0.240208
O31	O	-0.311306	-1.086114	-0.202748
O32	O	0.022028	-0.752781	0.130586
O33	O	0.355361	-0.419448	0.463919
O34	O	-0.311263	-0.958888	-0.329990
O35	O	0.022070	-0.625555	0.003344
O36	O	0.355404	-0.292221	0.336677
O37	O	-0.402178	-1.086136	-0.553660
O38	O	-0.068844	-0.752803	-0.220327
O39	O	0.264489	-0.419469	0.113006
O40	O	-0.402203	-0.958851	-0.426391
O41	O	-0.068870	-0.625517	-0.093057
O42	O	0.264464	-0.292184	0.240276
O43	O	-0.311219	-1.182616	-0.553690
O44	O	0.022114	-0.849282	-0.220357
O45	O	0.355448	-0.515949	0.112977
O46	O	-0.522301	-1.182425	-0.329970
O47	O	-0.188968	-0.849092	0.003363
O48	O	0.144366	-0.515758	0.336697
O49	O	-0.522269	-1.086028	-0.426379
O50	O	-0.188935	-0.752694	-0.093046
O51	O	0.144398	-0.419361	0.240287
C52	C	-0.356732	-0.930387	-0.378188
C53	C	-0.023398	-0.597054	-0.044854
C54	C	0.309935	-0.263721	0.288479
C55	C	-0.356744	-0.843137	-0.378197
C56	C	-0.023410	-0.509804	-0.044864
C57	C	0.309923	-0.176471	0.288470
C58	C	-0.549156	-1.134230	-0.378186
C59	C	-0.215822	-0.800897	-0.044853
C60	C	0.117511	-0.467563	0.288480
C61	C	-0.631470	-1.134257	-0.378203
C62	C	-0.298136	-0.800924	-0.044869
C63	C	0.035197	-0.467590	0.288464
C64	C	-0.356690	-1.134383	-0.582954
C65	C	-0.023357	-0.801049	-0.249620
C66	C	0.309976	-0.467716	0.083713
C67	C	-0.356667	-1.134403	-0.670203
C68	C	-0.023334	-0.801069	-0.336870
C69	C	0.309999	-0.467736	-0.003537
C70	C	-0.930561	-1.134429	-0.378245
C71	C	-0.597227	-0.801096	-0.044912
C72	C	-0.263894	-0.467763	0.288422
C73	C	-0.899246	-1.073919	-0.439054
C74	C	-0.565913	-0.740586	-0.105720
C75	C	-0.232579	-0.407253	0.227613
C76	C	-0.813628	-1.073632	-0.438863
C77	C	-0.480295	-0.740298	-0.105530
C78	C	-0.146961	-0.406965	0.227803
C79	C	-0.782178	-1.134344	-0.378225
C80	C	-0.448845	-0.801010	-0.044891
C81	C	-0.115511	-0.467677	0.288442
C82	C	-0.813330	-1.111947	-0.295495
C83	C	-0.479996	-0.778613	0.037838
C84	C	-0.146663	-0.445280	0.371172
C85	C	-0.898975	-1.111557	-0.295859
C86	C	-0.565642	-0.778223	0.037474
C87	C	-0.232308	-0.444890	0.370808
C88	C	-0.898904	-1.217469	-0.399437
C89	C	-0.565571	-0.884135	-0.066104
C90	C	-0.232237	-0.550802	0.267229
C91	C	-0.813253	-1.216980	-0.401252
C92	C	-0.479919	-0.883647	-0.067918
C93	C	-0.146586	-0.550314	0.265415
C94	C	-0.698319	-1.134297	-0.378208
C95	C	-0.364985	-0.800963	-0.044875
C96	C	-0.031652	-0.467630	0.288459
C97	C	-1.014420	-1.134474	-0.378256
C98	C	-0.681087	-0.801141	-0.044923
C99	C	-0.347753	-0.467808	0.288411
C100	C	-0.163583	-1.134462	-0.378250
C101	C	0.169750	-0.801129	-0.044916
C102	C	0.503084	-0.467795	0.288417
C103	C	-0.081269	-1.134516	-0.378267
C104	C	0.252064	-0.801183	-0.044933
C105	C	0.585398	-0.467849	0.288400
C106	C	-0.356759	-1.339079	-0.378231
C107	C	-0.023426	-1.005746	-0.044898
C108	C	0.309908	-0.672413	0.288435
C109	C	-0.356765	-1.426329	-0.378241
C110	C	-0.023432	-1.092996	-0.044908
C111	C	0.309902	-0.759662	0.288426
C112	C	-0.404167	-0.802148	-0.428312
C113	C	-0.070834	-0.468815	-0.094979
C114	C	0.262499	-0.135482	0.238354
C115	C	-0.404169	-0.720168	-0.428325
C116	C	-0.070836	-0.386835	-0.094992
C117	C	0.262498	-0.053501	0.238342
C118	C	-0.356750	-0.679178	-0.378218
C119	C	-0.023417	-0.345845	-0.044884
C120	C	0.309917	-0.012511	0.288449
C121	C	-0.309321	-0.720173	-0.328100
C122	C	0.024012	-0.386839	0.005233
C123	C	0.357346	-0.053506	0.338567
C124	C	-0.309316	-0.802152	-0.328092
C125	C	0.024017	-0.468818	0.005241
C126	C	0.357350	-0.135485	0.338575
C127	C	-0.309336	-0.549303	-0.328119
C128	C	0.023998	-0.215969	0.005215
C129	C	0.357331	0.117364	0.338548
C130	C	-0.309341	-0.467318	-0.328126
C131	C	0.023992	-0.133985	0.005208
C132	C	0.357325	0.199349	0.338541
C133	C	-0.404188	-0.467319	-0.428352
C134	C	-0.070855	-0.133986	-0.095018
C135	C	0.262478	0.199348	0.238315
C136	C	-0.404184	-0.549298	-0.428344
C137	C	-0.070850	-0.215965	-0.095010
C138	C	0.262483	0.117369	0.238323
C139	C	-0.356755	-0.590287	-0.378225
C140	C	-0.023422	-0.256954	-0.044892
C141	C	0.309911	0.076380	0.288442
C142	C	-0.309301	-1.184642	-0.711210
C143	C	0.024032	-0.851308	-0.377877
C144	C	0.357366	-0.517975	-0.044544
C145	C	-0.309276	-1.184651	-0.793191
C146	C	0.024057	-0.851318	-0.459857
C147	C	0.357390	-0.517984	-0.126524
C148	C	-0.356622	-1.134425	-0.834163
C149	C	-0.023289	-0.801092	-0.500830
C150	C	0.310044	-0.467758	-0.167496
C151	C	-0.403990	-1.084181	-0.793150
C152	C	-0.070657	-0.750848	-0.459817
C153	C	0.262676	-0.417514	-0.126484
C154	C	-0.404011	-1.084168	-0.711171
C155	C	-0.070677	-0.750835	-0.377838
C156	C	0.262656	-0.417501	-0.044505
C157	C	-0.403946	-1.084212	-0.964021
C158	C	-0.070613	-0.750879	-0.630687
C159	C	0.262721	-0.417546	-0.297354
C160	C	-0.403927	-1.084226	-1.046005
C161	C	-0.070593	-0.750893	-0.712672
C162	C	0.262740	-0.417559	-0.379339
C163	C	-0.309211	-1.184695	-1.046040
C164	C	0.024122	-0.851362	-0.712707
C165	C	0.357455	-0.518029	-0.379373
C166	C	-0.309232	-1.184683	-0.964061
C167	C	0.024102	-0.851349	-0.630728
C168	C	0.357435	-0.518016	-0.297394
C169	C	-0.356601	-1.134439	-0.923054
C170	C	-0.023268	-0.801106	-0.589721
C171	C	0.310065	-0.467772	-0.256387
C172	C	-0.356746	-1.134333	-0.174261
C173	C	-0.023413	-0.801000	0.159072
C174	C	0.309921	-0.467666	0.492405
C175	C	-0.356561	-1.134465	-0.087012
C176	C	-0.023227	-0.801131	0.246321
C177	C	0.310106	-0.467798	0.579655
H178	H	-0.792564	-1.087644	-0.500206
H179	H	-0.459230	-0.754311	-0.166873
H180	H	-0.125897	-0.420978	0.166460
H181	H	-0.442478	-1.043326	-1.079363
H182	H	-0.109145	-0.709993	-0.746029
H183	H	0.224188	-0.376659	-0.412696
Br184	Br	-0.244967	-0.604931	-0.260101
Br185	Br	0.088367	-0.271597	0.073232
Br186	Br	0.421700	0.061736	0.406565
H187	H	-0.442508	-1.043287	-0.930635
H188	H	-0.109174	-0.709953	-0.597302
H189	H	0.224159	-0.376620	-0.263969
H190	H	-0.442804	-0.433942	-0.469163
H191	H	-0.109471	-0.100608	-0.135829
H192	H	0.223863	0.232725	0.197504
H193	H	-0.270695	-0.835524	-0.287287
H194	H	0.062638	-0.502191	0.046046
H195	H	0.395972	-0.168857	0.379380
Br196	Br	-0.933494	-1.097037	-0.541632
Br197	Br	-0.600160	-0.763704	-0.208299
Br198	Br	-0.266827	-0.430370	0.125035
Br199	Br	-0.468242	-1.016011	-0.848755
Br200	Br	-0.134909	-0.682678	-0.515421
Br201	Br	0.198425	-0.349345	-0.182088
H202	H	-0.270720	-0.433946	-0.287333
H203	H	0.062614	-0.100613	0.046000
H204	H	0.395947	0.232720	0.379334
Br205	Br	-0.468531	-0.857770	-0.496313
Br206	Br	-0.135198	-0.524436	-0.162980
Br207	Br	0.198136	-0.191103	0.170353
Br208	Br	-0.935244	-0.971956	-0.415973
Br209	Br	-0.601911	-0.638623	-0.082639
Br210	Br	-0.268577	-0.305289	0.250694
H211	H	-0.442787	-0.686798	-0.469133
H212	H	-0.109454	-0.353465	-0.135800
H213	H	0.223880	-0.020132	0.197533
Br214	Br	-0.468546	-0.604927	-0.496340
Br215	Br	-0.135212	-0.271594	-0.163006
Br216	Br	0.198121	0.061740	0.170327
Br217	Br	-0.468291	-1.015979	-0.655518
Br218	Br	-0.134958	-0.682646	-0.322185
Br219	Br	0.198375	-0.349313	0.011148
Br220	Br	-0.244927	-1.252886	-1.101691
Br221	Br	0.088406	-0.919553	-0.768357
Br222	Br	0.421739	-0.586220	-0.435024
Br223	Br	-0.932669	-1.292613	-0.325633
Br224	Br	-0.599336	-0.959280	0.007701
Br225	Br	-0.266003	-0.625946	0.341034
H226	H	-0.919018	-1.050855	-0.277907
H227	H	-0.585685	-0.717522	0.055426
H228	H	-0.252351	-0.384188	0.388760
Br229	Br	-0.779581	-0.971041	-0.415472
Br230	Br	-0.446248	-0.637708	-0.082139
Br231	Br	-0.112915	-0.304374	0.251194
H232	H	-0.270709	-0.686792	-0.287305
H233	H	0.062625	-0.353459	0.046028
H234	H	0.395958	-0.020126	0.379362
Br235	Br	-0.245048	-1.252815	-0.655613
Br236	Br	0.088285	-0.919482	-0.322280
Br237	Br	0.421619	-0.586149	0.011054
Br238	Br	-0.245025	-1.252872	-0.848840
Br239	Br	0.088308	-0.919538	-0.515507
Br240	Br	0.421641	-0.586205	-0.182173
H241	H	-0.919692	-1.153718	-0.249007
H242	H	-0.586359	-0.820384	0.084327
H243	H	-0.253026	-0.487051	0.417660
Br244	Br	-0.779383	-1.183091	-0.217916
Br245	Br	-0.446050	-0.849758	0.115417
Br246	Br	-0.112716	-0.516425	0.448750
H247	H	-0.270683	-1.225585	-0.930704
H248	H	0.062650	-0.892252	-0.597370
H249	H	0.395984	-0.558919	-0.264037
H250	H	-0.791945	-1.051888	-0.277221
H251	H	-0.458612	-0.718555	0.056112
H252	H	-0.125279	-0.385222	0.389446
H253	H	-0.920452	-1.237888	-0.458736
H254	H	-0.587118	-0.904555	-0.125402
H255	H	-0.253785	-0.571221	0.207931
Br256	Br	-0.779316	-1.245135	-0.502731
Br257	Br	-0.445983	-0.911801	-0.169398
Br258	Br	-0.112649	-0.578468	0.163936
H259	H	-0.791840	-1.264448	-0.360190
H260	H	-0.458507	-0.931115	-0.026857
H261	H	-0.125174	-0.597782	0.306477
