data_functionalizedCrystal
_audit_creation_method	'MofGen! by Chris Wilmer'
_symmetry_space_group_name_H-M	'P1'
_symmetry_Int_Tables_number	1
_symmetry_cell_setting	triclinic
loop_
_symmetry_equiv_pos_as_xyz
  x,y,z
_cell_length_a	19.288864
_cell_length_b	17.699092
_cell_length_c	17.766277
_cell_angle_alpha	89.995315
_cell_angle_beta	89.976791
_cell_angle_gamma	83.211307
loop_
_atom_site_label
_atom_site_type_symbol
_atom_site_fract_x
_atom_site_fract_y
_atom_site_fract_z
O1	O	0.921467	0.094417	-0.062833
O2	O	0.719222	0.107154	-0.062781
O3	O	0.826056	-0.009412	-0.062807
O4	O	0.814634	0.210982	-0.062807
O5	O	0.826037	-0.009417	0.062382
O6	O	0.719203	0.107148	0.062408
O7	O	0.921449	0.094411	0.062356
Cu8	Cu	0.820324	0.100779	0.073812
Cu9	Cu	0.820346	0.100786	-0.074238
O10	O	0.814615	0.210976	0.062381
C11	C	0.693336	0.106741	-0.000180
C12	C	0.616231	0.105511	-0.000160
C13	C	0.571617	0.173906	-0.000172
C14	C	0.499169	0.172750	-0.000181
C15	C	0.471337	0.103195	-0.000192
C16	C	0.515960	0.034791	-0.000176
C17	C	0.588407	0.035949	-0.000160
C18	C	0.363015	0.048519	-0.044076
C19	C	0.290570	0.047365	-0.044097
C20	C	0.247887	0.099621	-0.000238
C21	C	0.277658	0.153046	0.043632
C22	C	0.350105	0.154204	0.043648
C23	C	0.392782	0.101932	-0.000209
C24	C	0.124716	0.166768	-0.000258
C25	C	0.052267	0.165609	-0.000261
C26	C	0.069060	0.027649	-0.000264
C27	C	0.141508	0.028809	-0.000253
C28	C	0.169331	0.098371	-0.000253
C29	C	0.825636	-0.037611	-0.000213
C30	C	0.824405	-0.121627	-0.000217
C31	C	0.823839	-0.161090	-0.068458
C32	C	0.822678	-0.240032	-0.068458
C33	C	0.822089	-0.279509	-0.000217
C34	C	0.822653	-0.240040	0.068029
C35	C	0.823809	-0.161099	0.068029
C36	C	0.817991	-0.558398	0.068032
C37	C	0.816837	-0.637344	0.068026
C38	C	0.816860	-0.637331	-0.068456
C39	C	0.818016	-0.558390	-0.068456
C40	C	0.818576	-0.518927	-0.000210
C41	C	0.819834	-0.433330	-0.000210
C42	C	0.820836	-0.365105	-0.000216
C43	C	0.947335	0.094824	-0.000247
C44	C	1.024440	0.096054	-0.000271
C45	C	0.815035	0.239175	-0.000214
C46	C	0.816265	0.323191	-0.000215
N47	N	0.820314	0.100773	0.177943
N48	N	0.820363	0.100785	-0.178368
C49	C	0.867635	0.049184	0.217318
C50	C	0.867639	0.049180	0.296120
C51	C	0.820328	0.100779	0.335543
C52	C	0.772998	0.152373	0.296158
C53	C	0.772991	0.152370	0.217358
C54	C	0.811113	0.169741	0.460382
C55	C	0.811125	0.169745	0.539181
C56	C	0.820347	0.100789	0.578590
C57	C	0.829571	0.031825	0.539189
C58	C	0.829564	0.031822	0.460389
C59	C	0.820331	0.100788	0.420989
C60	C	0.867675	0.049191	0.703411
C61	C	0.867674	0.049186	0.782214
C62	C	0.773037	0.152386	0.782251
C63	C	0.773035	0.152384	0.703449
C64	C	0.820357	0.100787	0.664034
H65	H	0.177833	-0.026886	-0.000247
Br66	Br	0.821842	-0.293613	0.160644
Br67	Br	0.818737	-0.504849	0.160651
Br68	Br	0.818821	-0.504818	-0.161072
Br69	Br	0.931896	-0.020835	0.649917
Br70	Br	0.931854	-0.020841	0.163825
Br71	Br	0.478191	-0.059606	-0.000184
H72	H	0.816355	-0.669484	0.123600
Br73	Br	0.931865	-0.020842	0.349568
H74	H	0.015942	0.221307	-0.000267
H75	H	0.824260	-0.128967	0.123598
H76	H	0.624732	-0.019749	-0.000151
Br77	Br	0.842075	-0.061766	0.406919
H78	H	0.816400	-0.669470	-0.124025
Br79	Br	0.031296	-0.066749	-0.000267
Br80	Br	0.250172	-0.025130	-0.103644
Br81	Br	0.842096	-0.061765	0.592661
H82	H	0.734504	0.194396	0.671387
H83	H	0.734456	0.194382	0.185298
Br84	Br	0.798615	0.263336	0.592645
H85	H	0.906207	0.007171	0.814274
H86	H	0.803592	0.225897	0.428303
Br87	Br	0.609375	0.268310	-0.000172
Br88	Br	0.162481	0.261171	-0.000253
H89	H	0.734513	0.194396	0.814349
Br90	Br	0.708785	0.222397	0.349658
Br91	Br	0.420935	-0.022409	-0.103603
H92	H	0.242907	0.195598	0.079347
H93	H	0.822220	-0.272160	-0.124027
Br94	Br	0.438610	0.265578	-0.000192
H95	H	0.374341	0.197702	0.079371
H96	H	0.824323	-0.128954	-0.124028
