data_functionalizedCrystal
_audit_creation_method	'MofGen! by Chris Wilmer'
_symmetry_space_group_name_H-M	'P1'
_symmetry_Int_Tables_number	1
_symmetry_cell_setting	triclinic
loop_
_symmetry_equiv_pos_as_xyz
  x,y,z
_cell_length_a	18.101395
_cell_length_b	18.101398
_cell_length_c	18.101389
_cell_angle_alpha	90.008593
_cell_angle_beta	89.983159
_cell_angle_gamma	89.974090
loop_
_atom_site_label
_atom_site_type_symbol
_atom_site_fract_x
_atom_site_fract_y
_atom_site_fract_z
Zn1	Zn	-0.295010	-1.132121	-0.418536
Zn2	Zn	-0.045010	-0.882121	-0.168536
Zn3	Zn	0.204990	-0.632121	0.081464
Zn4	Zn	0.454990	-0.382121	0.331464
Zn5	Zn	-0.418836	-1.132017	-0.294698
Zn6	Zn	-0.168836	-0.882017	-0.044698
Zn7	Zn	0.081164	-0.632017	0.205302
Zn8	Zn	0.331164	-0.382017	0.455302
Zn9	Zn	-0.295001	-1.008280	-0.294731
Zn10	Zn	-0.045001	-0.758280	-0.044731
Zn11	Zn	0.204999	-0.508280	0.205269
Zn12	Zn	0.454999	-0.258280	0.455269
Zn13	Zn	-0.418803	-1.008231	-0.418520
Zn14	Zn	-0.168803	-0.758231	-0.168520
Zn15	Zn	0.081197	-0.508231	0.081480
Zn16	Zn	0.331197	-0.258231	0.331480
O17	O	-0.356912	-1.070162	-0.356621
O18	O	-0.106912	-0.820162	-0.106621
O19	O	0.143088	-0.570162	0.143379
O20	O	0.393088	-0.320162	0.393379
O21	O	-0.311453	-1.235740	-0.402101
O22	O	-0.061453	-0.985740	-0.152101
O23	O	0.188547	-0.735740	0.097899
O24	O	0.438547	-0.485740	0.347899
O25	O	-0.402419	-1.115580	-0.191069
O26	O	-0.152419	-0.865580	0.058931
O27	O	0.097581	-0.615580	0.308931
O28	O	0.347581	-0.365580	0.558931
O29	O	-0.191370	-1.024772	-0.311175
O30	O	0.058630	-0.774772	-0.061175
O31	O	0.308630	-0.524772	0.188825
O32	O	0.558630	-0.274772	0.438825
O33	O	-0.402427	-1.235663	-0.311118
O34	O	-0.152427	-0.985663	-0.061118
O35	O	0.097573	-0.735663	0.188882
O36	O	0.347573	-0.485663	0.438882
O37	O	-0.191376	-1.115757	-0.402133
O38	O	0.058624	-0.865757	-0.152133
O39	O	0.308624	-0.615757	0.097867
O40	O	0.558624	-0.365757	0.347867
O41	O	-0.311438	-1.024671	-0.191094
O42	O	-0.061438	-0.774671	0.058906
O43	O	0.188562	-0.524671	0.308906
O44	O	0.438562	-0.274671	0.558906
O45	O	-0.311407	-0.904640	-0.311159
O46	O	-0.061407	-0.654640	-0.061159
O47	O	0.188593	-0.404640	0.188841
O48	O	0.438593	-0.154640	0.438841
O49	O	-0.402371	-1.024688	-0.522155
O50	O	-0.152371	-0.774688	-0.272155
O51	O	0.097629	-0.524688	-0.022155
O52	O	0.347629	-0.274688	0.227845
O53	O	-0.402363	-0.904604	-0.402107
O54	O	-0.152363	-0.654604	-0.152107
O55	O	0.097637	-0.404604	0.097893
O56	O	0.347637	-0.154604	0.347893
O57	O	-0.311421	-1.115710	-0.522167
O58	O	-0.061421	-0.865710	-0.272167
O59	O	0.188579	-0.615710	-0.022167
O60	O	0.438579	-0.365710	0.227833
O61	O	-0.522464	-1.115532	-0.311103
O62	O	-0.272464	-0.865532	-0.061103
O63	O	-0.022464	-0.615532	0.188897
O64	O	0.227536	-0.365532	0.438897
O65	O	-0.522440	-1.024587	-0.402075
O66	O	-0.272440	-0.774587	-0.152075
O67	O	-0.022440	-0.524587	0.097925
O68	O	0.227560	-0.274587	0.347925
C69	C	-0.356881	-0.877751	-0.356636
C70	C	-0.106881	-0.627751	-0.106636
C71	C	0.143119	-0.377751	0.143364
C72	C	0.393119	-0.127751	0.393364
C73	C	-0.356885	-0.795437	-0.356659
C74	C	-0.106885	-0.545437	-0.106659
C75	C	0.143115	-0.295437	0.143341
C76	C	0.393115	-0.045437	0.393341
C77	C	-0.356925	-0.496346	-0.356634
C78	C	-0.106925	-0.246346	-0.106634
C79	C	0.143075	0.003654	0.143366
C80	C	0.393075	0.253654	0.393366
C81	C	-0.414429	-0.527674	-0.413573
C82	C	-0.164429	-0.277674	-0.163573
C83	C	0.085571	-0.027674	0.086427
C84	C	0.335571	0.222326	0.336427
C85	C	-0.414250	-0.613292	-0.413805
C86	C	-0.164250	-0.363292	-0.163805
C87	C	0.085750	-0.113292	0.086195
C88	C	0.335750	0.136708	0.336195
C89	C	-0.356906	-0.644729	-0.356647
C90	C	-0.106906	-0.394729	-0.106647
C91	C	0.143094	-0.144729	0.143353
C92	C	0.393094	0.105271	0.393353
C93	C	-0.278907	-0.613675	-0.377973
C94	C	-0.028907	-0.363675	-0.127973
C95	C	0.221093	-0.113675	0.122027
C96	C	0.471093	0.136325	0.372027
C97	C	-0.279251	-0.528029	-0.378379
C98	C	-0.029251	-0.278029	-0.128379
C99	C	0.220749	-0.028029	0.121621
C100	C	0.470749	0.221971	0.371621
C101	C	-0.376732	-0.527894	-0.278231
C102	C	-0.126732	-0.277894	-0.028231
C103	C	0.123268	-0.027894	0.221769
C104	C	0.373268	0.222106	0.471769
C105	C	-0.378445	-0.613544	-0.278649
C106	C	-0.128445	-0.363544	-0.028649
C107	C	0.121555	-0.113544	0.221351
C108	C	0.371555	0.136456	0.471351
C109	C	-0.356890	-0.728588	-0.356652
C110	C	-0.106890	-0.478588	-0.106652
C111	C	0.143110	-0.228588	0.143348
C112	C	0.393110	0.021412	0.393348
C113	C	-0.356935	-0.412487	-0.356630
C114	C	-0.106935	-0.162487	-0.106630
C115	C	0.143065	0.087513	0.143370
C116	C	0.393065	0.337513	0.393370
C117	C	-0.549323	-1.070063	-0.356600
C118	C	-0.299323	-0.820063	-0.106600
C119	C	-0.049323	-0.570063	0.143400
C120	C	0.200677	-0.320063	0.393400
C121	C	-0.631637	-1.070088	-0.356615
C122	C	-0.381637	-0.820088	-0.106615
C123	C	-0.131637	-0.570088	0.143385
C124	C	0.118363	-0.320088	0.393385
C125	C	-0.930728	-1.070251	-0.356655
C126	C	-0.680728	-0.820251	-0.106655
C127	C	-0.430728	-0.570251	0.143345
C128	C	-0.180728	-0.320251	0.393345
C129	C	-0.899419	-1.013163	-0.414034
C130	C	-0.649419	-0.763163	-0.164034
C131	C	-0.399419	-0.513163	0.085966
C132	C	-0.149419	-0.263163	0.335966
C133	C	-0.813801	-1.012892	-0.413855
C134	C	-0.563801	-0.762892	-0.163855
C135	C	-0.313801	-0.512892	0.086145
C136	C	-0.063801	-0.262892	0.336145
C137	C	-0.782346	-1.070170	-0.356636
C138	C	-0.532346	-0.820170	-0.106636
C139	C	-0.282346	-0.570170	0.143364
C140	C	-0.032346	-0.320170	0.393364
C141	C	-0.813481	-1.049041	-0.278590
C142	C	-0.563481	-0.799041	-0.028590
C143	C	-0.313481	-0.549041	0.221410
C144	C	-0.063481	-0.299041	0.471410
C145	C	-0.899126	-1.048673	-0.278933
C146	C	-0.649126	-0.798673	-0.028933
C147	C	-0.399126	-0.548673	0.221067
C148	C	-0.149126	-0.298673	0.471067
C149	C	-0.899083	-1.148592	-0.376634
C150	C	-0.649083	-0.898592	-0.126634
C151	C	-0.399083	-0.648592	0.123366
C152	C	-0.149083	-0.398592	0.373366
C153	C	-0.813432	-1.148132	-0.378346
C154	C	-0.563432	-0.898132	-0.128346
C155	C	-0.313432	-0.648132	0.121654
C156	C	-0.063432	-0.398132	0.371654
C157	C	-0.698486	-1.070126	-0.356620
C158	C	-0.448486	-0.820126	-0.106620
C159	C	-0.198486	-0.570126	0.143380
C160	C	0.051514	-0.320126	0.393380
C161	C	-1.014587	-1.070293	-0.356665
C162	C	-0.764587	-0.820293	-0.106665
C163	C	-0.514587	-0.570293	0.143335
C164	C	-0.264587	-0.320293	0.393335
C165	C	-0.163751	-1.070282	-0.356659
C166	C	0.086249	-0.820282	-0.106659
C167	C	0.336249	-0.570282	0.143341
C168	C	0.586249	-0.320282	0.393341
C169	C	-0.081436	-1.070333	-0.356676
C170	C	0.168564	-0.820333	-0.106676
C171	C	0.418564	-0.570333	0.143324
C172	C	0.668564	-0.320333	0.393324
C173	C	-0.356894	-1.070205	-0.549783
C174	C	-0.106894	-0.820205	-0.299783
C175	C	0.143106	-0.570205	-0.049783
C176	C	0.393106	-0.320205	0.200217
C177	C	-0.356886	-1.070223	-0.632097
C178	C	-0.106886	-0.820223	-0.382097
C179	C	0.143114	-0.570223	-0.132097
C180	C	0.393114	-0.320223	0.117903
C181	C	-0.356941	-0.263324	-0.356613
C182	C	-0.106941	-0.013324	-0.106613
C183	C	0.143059	0.236676	0.143387
C184	C	0.393059	0.486676	0.393387
C185	C	-0.356945	-0.345638	-0.356622
C186	C	-0.106945	-0.095638	-0.106622
C187	C	0.143055	0.154362	0.143378
C188	C	0.393055	0.404362	0.393378
C189	C	-0.356747	-1.070266	-0.931189
C190	C	-0.106747	-0.820266	-0.681189
C191	C	0.143253	-0.570266	-0.431189
C192	C	0.393253	-0.320266	-0.181189
C193	C	-0.413788	-1.012801	-0.899856
C194	C	-0.163788	-0.762801	-0.649856
C195	C	0.086212	-0.512801	-0.399856
C196	C	0.336212	-0.262801	-0.149856
C197	C	-0.414053	-1.012956	-0.814238
C198	C	-0.164053	-0.762956	-0.564238
C199	C	0.085947	-0.512956	-0.314238
C200	C	0.335947	-0.262956	-0.064238
C201	C	-0.356816	-1.070244	-0.782806
C202	C	-0.106816	-0.820244	-0.532806
C203	C	0.143184	-0.570244	-0.282806
C204	C	0.393184	-0.320244	-0.032806
C205	C	-0.378007	-1.148269	-0.813891
C206	C	-0.128007	-0.898269	-0.563891
C207	C	0.121993	-0.648269	-0.313891
C208	C	0.371993	-0.398269	-0.063891
C209	C	-0.378381	-1.147949	-0.899536
C210	C	-0.128381	-0.897949	-0.649536
C211	C	0.121619	-0.647949	-0.399536
C212	C	0.371619	-0.397949	-0.149536
C213	C	-0.278388	-1.050385	-0.899616
C214	C	-0.028388	-0.800385	-0.649616
C215	C	0.221612	-0.550385	-0.399616
C216	C	0.471612	-0.300385	-0.149616
C217	C	-0.278840	-1.048649	-0.813966
C218	C	-0.028840	-0.798649	-0.563966
C219	C	0.221160	-0.548649	-0.313966
C220	C	0.471160	-0.298649	-0.063966
C221	C	-0.356854	-1.070236	-0.698946
C222	C	-0.106854	-0.820236	-0.448946
C223	C	0.143146	-0.570236	-0.198946
C224	C	0.393146	-0.320236	0.051054
C225	C	-0.356711	-1.070279	-1.015048
C226	C	-0.106711	-0.820279	-0.765048
C227	C	0.143289	-0.570279	-0.515048
C228	C	0.393289	-0.320279	-0.265048
C229	C	-0.356878	-1.070162	-0.164211
C230	C	-0.106878	-0.820162	0.085789
C231	C	0.143122	-0.570162	0.335789
C232	C	0.393122	-0.320162	0.585789
C233	C	-0.356677	-1.070287	-0.081897
C234	C	-0.106677	-0.820287	0.168103
C235	C	0.143323	-0.570287	0.418103
C236	C	0.393323	-0.320287	0.668103
H237	H	-0.432635	-0.506280	-0.258851
H238	H	-0.182635	-0.256280	-0.008851
H239	H	0.067365	-0.006280	0.241149
H240	H	0.317365	0.243720	0.491149
H241	H	-0.793106	-1.089313	-0.234673
H242	H	-0.543106	-0.839313	0.015327
H243	H	-0.293106	-0.589313	0.265327
H244	H	-0.043106	-0.339313	0.515327
Br245	Br	-0.313701	-0.649205	-0.204137
Br246	Br	-0.063701	-0.399205	0.045863
Br247	Br	0.186299	-0.149205	0.295863
Br248	Br	0.436299	0.100795	0.545863
H249	H	-0.334846	-0.507635	-0.235807
H250	H	-0.084846	-0.257635	0.014193
H251	H	0.165154	-0.007635	0.264193
H252	H	0.415154	0.242365	0.514193
H253	H	-0.435840	-0.633848	-0.262564
H254	H	-0.185840	-0.383848	-0.012564
H255	H	0.064160	-0.133848	0.237436
H256	H	0.314160	0.116152	0.487436
H257	H	-0.262449	-0.508068	-0.435695
H258	H	-0.012449	-0.258068	-0.185695
H259	H	0.237551	-0.008068	0.064305
H260	H	0.487551	0.241932	0.314305
Br261	Br	-0.510851	-1.034877	-0.780089
Br262	Br	-0.260851	-0.784877	-0.530089
Br263	Br	-0.010851	-0.534877	-0.280089
Br264	Br	0.239149	-0.284877	-0.030089
H265	H	-0.400662	-0.954768	-0.920458
H266	H	-0.150662	-0.704768	-0.670458
H267	H	0.099338	-0.454768	-0.420458
H268	H	0.349338	-0.204768	-0.170458
Br269	Br	-0.779515	-1.174692	-0.474080
Br270	Br	-0.529515	-0.924692	-0.224080
Br271	Br	-0.279515	-0.674692	0.025920
Br272	Br	-0.029515	-0.424692	0.275920
Br273	Br	-0.205557	-0.647615	-0.311010
Br274	Br	0.044443	-0.397615	-0.061010
Br275	Br	0.294443	-0.147615	0.188990
Br276	Br	0.544443	0.102385	0.438990
H277	H	-0.471516	-1.025796	-0.921380
H278	H	-0.221516	-0.775796	-0.671380
H279	H	0.028484	-0.525796	-0.421380
H280	H	0.278484	-0.275796	-0.171380
Br281	Br	-0.246210	-0.957201	-0.935616
Br282	Br	0.003790	-0.707201	-0.685616
Br283	Br	0.253790	-0.457201	-0.435616
Br284	Br	0.503790	-0.207201	-0.185616
Br285	Br	-0.777830	-0.954601	-0.249869
Br286	Br	-0.527830	-0.704601	0.000131
Br287	Br	-0.277830	-0.454601	0.250131
Br288	Br	-0.027830	-0.204601	0.500131
H289	H	-0.920997	-0.955448	-0.400967
H290	H	-0.670997	-0.705448	-0.150967
H291	H	-0.420997	-0.455448	0.099033
H292	H	-0.170997	-0.205448	0.349033
Br293	Br	-0.510664	-0.648289	-0.391561
Br294	Br	-0.260664	-0.398289	-0.141561
Br295	Br	-0.010664	-0.148289	0.108439
Br296	Br	0.239336	0.101711	0.358439
H297	H	-0.262860	-0.991229	-0.793649
H298	H	-0.012860	-0.741229	-0.543649
H299	H	0.237140	-0.491229	-0.293649
H300	H	0.487140	-0.241229	-0.043649
H301	H	-0.401146	-0.633794	-0.471896
H302	H	-0.151146	-0.383794	-0.221896
H303	H	0.098854	-0.133794	0.028104
H304	H	0.348854	0.116206	0.278104
Br305	Br	-0.312095	-1.221685	-0.934087
Br306	Br	-0.062095	-0.971685	-0.684087
Br307	Br	0.187905	-0.721685	-0.434087
Br308	Br	0.437905	-0.471685	-0.184087
Br309	Br	-0.310938	-1.221553	-0.779964
Br310	Br	-0.060938	-0.971553	-0.529964
Br311	Br	0.189062	-0.721553	-0.279964
Br312	Br	0.439062	-0.471553	-0.029964
Br313	Br	-0.204242	-1.113327	-0.778317
Br314	Br	0.045758	-0.863327	-0.528317
Br315	Br	0.295758	-0.613327	-0.278317
Br316	Br	0.545758	-0.363327	-0.028317
H317	H	-0.435663	-1.164804	-0.919516
H318	H	-0.185663	-0.914804	-0.669516
H319	H	0.064337	-0.664804	-0.419516
H320	H	0.314337	-0.414804	-0.169516
Br321	Br	-0.250394	-0.649447	-0.472463
Br322	Br	-0.000394	-0.399447	-0.222463
Br323	Br	0.249606	-0.149447	0.027537
Br324	Br	0.499606	0.100553	0.277537
H325	H	-0.920642	-1.167856	-0.432575
H326	H	-0.670642	-0.917856	-0.182575
H327	H	-0.420642	-0.667856	0.067425
H328	H	-0.170642	-0.417856	0.317425
H329	H	-0.792748	-1.026111	-0.471725
H330	H	-0.542748	-0.776111	-0.221725
H331	H	-0.292748	-0.526111	0.028275
H332	H	-0.042748	-0.276111	0.278275
H333	H	-0.793370	-0.954823	-0.400621
H334	H	-0.543370	-0.704823	-0.150621
H335	H	-0.293370	-0.454823	0.099379
H336	H	-0.043370	-0.204823	0.349379
H337	H	-0.919978	-1.026251	-0.472092
H338	H	-0.669978	-0.776251	-0.222092
H339	H	-0.419978	-0.526251	0.027908
H340	H	-0.169978	-0.276251	0.277908
H341	H	-0.792016	-1.192915	-0.339599
H342	H	-0.542016	-0.942915	-0.089599
H343	H	-0.292016	-0.692915	0.160401
H344	H	-0.042016	-0.442915	0.410401
H345	H	-0.919161	-0.991406	-0.262007
H346	H	-0.669161	-0.741406	-0.012007
H347	H	-0.419161	-0.491406	0.237993
H348	H	-0.169161	-0.241406	0.487993
Br349	Br	-0.472465	-1.176852	-0.778149
Br350	Br	-0.222465	-0.926852	-0.528149
Br351	Br	0.027535	-0.676852	-0.278149
Br352	Br	0.277535	-0.426852	-0.028149
H353	H	-0.472458	-0.507058	-0.400357
H354	H	-0.222458	-0.257058	-0.150357
H355	H	0.027542	-0.007058	0.099643
H356	H	0.277542	0.242942	0.349643
H357	H	-0.401491	-0.506163	-0.471328
H358	H	-0.151491	-0.256163	-0.221328
H359	H	0.098509	-0.006163	0.028672
H360	H	0.348509	0.243837	0.278672
Br361	Br	-0.205423	-0.493487	-0.312274
Br362	Br	0.044577	-0.243487	-0.062274
Br363	Br	0.294577	0.006513	0.187726
Br364	Br	0.544577	0.256513	0.437726
Br365	Br	-0.207553	-1.120146	-0.933386
Br366	Br	0.042447	-0.870146	-0.683386
Br367	Br	0.292447	-0.620146	-0.433386
Br368	Br	0.542447	-0.370146	-0.183386
Br369	Br	-0.933654	-1.114960	-0.205245
Br370	Br	-0.683654	-0.864960	0.044755
Br371	Br	-0.433654	-0.614960	0.294755
Br372	Br	-0.183654	-0.364960	0.544755
H373	H	-0.919329	-1.191125	-0.334843
H374	H	-0.669329	-0.941125	-0.084843
H375	H	-0.419329	-0.691125	0.165157
H376	H	-0.169329	-0.441125	0.415157
H377	H	-0.400791	-0.955097	-0.793221
H378	H	-0.150791	-0.705097	-0.543221
H379	H	0.099209	-0.455097	-0.293221
H380	H	0.349209	-0.205097	-0.043221
