data_functionalizedCrystal
_audit_creation_method	'MofGen! by Chris Wilmer'
_symmetry_space_group_name_H-M	'P1'
_symmetry_Int_Tables_number	1
_symmetry_cell_setting	triclinic
loop_
_symmetry_equiv_pos_as_xyz
  x,y,z
_cell_length_a	10.723024
_cell_length_b	10.540539
_cell_length_c	9.198806
_cell_angle_alpha	89.998955
_cell_angle_beta	89.996352
_cell_angle_gamma	84.496680
loop_
_atom_site_label
_atom_site_type_symbol
_atom_site_fract_x
_atom_site_fract_y
_atom_site_fract_z
O1	O	1.657276	0.178046	-0.120876
O2	O	1.294132	0.195088	-0.120880
O3	O	1.483989	0.001856	-0.120876
O4	O	1.467419	0.371278	-0.120880
O5	O	1.483974	0.001856	0.120909
O6	O	1.294117	0.195088	0.120905
O7	O	1.657261	0.178045	0.120909
Cu8	Cu	1.475688	0.186567	0.142984
Cu9	Cu	1.475706	0.186567	-0.142955
O10	O	1.467404	0.371277	0.120905
C11	C	1.247624	0.193848	0.000012
C12	C	1.109068	0.190137	0.000010
C13	C	1.482739	-0.045446	0.000014
C14	C	1.479021	-0.186392	0.000006
C15	C	1.034139	0.298260	0.000008
C16	C	0.890934	0.294427	0.000006
C17	C	1.336563	-0.369746	-0.000538
C18	C	1.340332	-0.223130	0.000006
C19	C	1.545756	-0.248085	0.138078
C20	C	1.541023	-0.394627	0.138194
C21	C	1.543861	-0.395146	-0.136760
C22	C	1.545138	-0.248164	-0.138586
C23	C	1.703769	0.179286	0.000014
C24	C	1.842325	0.182997	0.000007
C25	C	1.468654	0.418580	0.000012
C26	C	1.472372	0.559526	0.000011
N27	N	1.475684	0.186565	0.344098
N28	N	1.475719	0.186558	-0.344069
C29	C	1.555399	0.105075	0.416297
C30	C	1.555419	0.105071	0.583709
H31	H	0.826548	0.386988	-0.000001
H32	H	1.623629	0.035306	0.354172
H33	H	1.407446	0.256325	0.406225
N34	N	1.385305	0.278987	0.573723
H35	H	1.433698	0.335437	0.510559
H36	H	1.329538	0.229993	0.510667
N37	N	1.053614	0.063760	0.000025
H38	H	1.000205	0.057234	-0.089603
H39	H	1.123357	-0.007798	0.000083
N40	N	1.676558	-0.457751	-0.137984
H41	H	1.722032	-0.428263	-0.226079
H42	H	1.721166	-0.433525	-0.046867
H43	H	1.076009	0.393665	0.000015
H44	H	0.906704	0.090430	-0.000001
N45	N	1.270775	-0.166647	-0.131091
H46	H	1.237383	-0.236988	-0.189755
H47	H	1.198765	-0.104577	-0.098001
H48	H	1.281784	-0.398318	-0.099552
N49	N	1.484418	-0.436900	-0.275387
H50	H	1.547901	-0.493535	-0.332738
H51	H	1.410533	-0.485579	-0.250808
H52	H	1.647605	-0.225783	0.143213
N53	N	1.264281	-0.409709	0.129885
H54	H	1.237748	-0.332524	0.191537
H55	H	1.187599	-0.449975	0.096064
H56	H	1.287441	-0.181347	0.099145
N57	N	1.673141	-0.458229	0.146532
H58	H	1.682741	-0.512534	0.237040
H59	H	1.690930	-0.513659	0.057972
N60	N	1.480536	-0.193911	-0.273884
H61	H	1.484916	-0.098651	-0.276643
H62	H	1.523503	-0.234085	-0.362592
N63	N	1.475678	-0.431961	0.274903
H64	H	1.450211	-0.353257	0.334522
H65	H	1.398710	-0.475007	0.248031
H66	H	1.499386	-0.205461	0.240826
H67	H	1.623671	0.035308	0.645797
N68	N	1.679080	-0.216161	-0.149640
H69	H	1.698890	-0.160922	-0.064582
H70	H	1.737214	-0.297426	-0.148454
