data_functionalizedCrystal
_audit_creation_method	'MofGen! by Chris Wilmer'
_symmetry_space_group_name_H-M	'P1'
_symmetry_Int_Tables_number	1
_symmetry_cell_setting	triclinic
loop_
_symmetry_equiv_pos_as_xyz
  x,y,z
_cell_length_a	12.759401
_cell_length_b	25.639239
_cell_length_c	12.759393
_cell_angle_alpha	90.037052
_cell_angle_beta	90.018496
_cell_angle_gamma	90.038847
loop_
_atom_site_label
_atom_site_type_symbol
_atom_site_fract_x
_atom_site_fract_y
_atom_site_fract_z
Zn1	Zn	1.606080	-0.208118	0.593941
Zn2	Zn	1.605901	-0.295564	0.418245
Zn3	Zn	1.430382	-0.208145	0.418281
Zn4	Zn	1.430297	-0.295524	0.593886
O5	O	1.518165	-0.251838	0.506088
O6	O	1.753078	-0.219723	0.570643
O7	O	1.582579	-0.283996	0.271228
O8	O	1.453799	-0.134976	0.441621
O9	O	1.752946	-0.283970	0.441559
O10	O	1.582884	-0.134956	0.570678
O11	O	1.453626	-0.219770	0.271255
O12	O	1.283350	-0.219731	0.441567
O13	O	1.453655	-0.283901	0.740914
O14	O	1.283288	-0.283928	0.570584
O15	O	1.582802	-0.219684	0.740955
O16	O	1.582496	-0.368724	0.441505
O17	O	1.453481	-0.368695	0.570549
C18	C	1.245198	-0.251828	0.506074
C19	C	1.128421	-0.251837	0.506093
C20	C	1.073554	-0.285318	0.573160
C21	C	0.963830	-0.285324	0.573172
C22	C	0.963850	-0.218368	0.439039
C23	C	1.073572	-0.218359	0.439033
C24	C	1.073542	-0.323976	0.650598
C25	C	0.963818	-0.323983	0.650609
C26	C	1.517989	-0.387680	0.506040
C27	C	1.518009	-0.445795	0.506055
C28	C	1.585519	-0.806160	0.439010
C29	C	1.585560	-0.860765	0.439024
O30	O	1.642775	-0.889004	0.381967
N31	N	1.518350	-0.888077	0.506158
C32	C	1.451103	-0.860782	0.573289
O33	O	1.393940	-0.889027	0.630394
C34	C	1.451068	-0.806179	0.573280
C35	C	1.518275	-0.778869	0.506134
C36	C	1.652721	-0.778851	0.371870
C37	C	1.652678	-0.724250	0.371855
C38	C	1.585434	-0.696959	0.438980
C39	C	1.518232	-0.724269	0.506119
C40	C	1.383827	-0.778885	0.640416
C41	C	1.383799	-0.724278	0.640401
C42	C	1.451005	-0.696968	0.573256
C43	C	1.450946	-0.642377	0.573228
N44	N	1.518155	-0.615065	0.506094
C45	C	1.585399	-0.642356	0.438970
C46	C	1.451182	-0.975453	0.573306
C47	C	1.451210	-1.030055	0.573311
C48	C	1.585669	-1.030034	0.439046
C49	C	1.585634	-0.975430	0.439037
C50	C	1.518391	-0.948140	0.506172
C51	C	1.585305	-0.527691	0.438943
C52	C	1.585253	-0.473086	0.438930
C53	C	1.450799	-0.473111	0.573198
C54	C	1.450846	-0.527712	0.573207
C55	C	1.518108	-0.555000	0.506076
O56	O	1.393762	-0.614103	0.630258
O57	O	1.642562	-0.614104	0.381885
C58	C	1.792198	-0.251848	0.506103
C59	C	1.908975	-0.251852	0.506109
C60	C	1.518239	-0.251785	0.780122
C61	C	1.518270	-0.251763	0.896898
C62	C	1.518371	-0.115465	0.506159
C63	C	1.518459	-0.057351	0.506190
C64	C	1.518152	-0.251853	0.233121
C65	C	1.518325	-0.251728	0.116345
C66	C	1.585526	-0.218322	0.951783
C67	C	1.585551	-0.218303	1.061507
C68	C	1.451061	-0.285170	1.061452
C69	C	1.451032	-0.285186	0.951730
C70	C	1.663176	-0.179718	0.951816
C71	C	1.663201	-0.179699	1.061540
H72	H	0.933988	-0.364467	0.628669
H73	H	0.919178	-0.191111	0.384442
C74	C	1.181171	-0.366648	0.522276
C75	C	1.119429	-0.375874	0.611064
H76	H	1.209494	-0.398688	0.497867
H77	H	1.236631	-0.343518	0.539898
H78	H	1.139251	-0.351488	0.468841
H79	H	1.161350	-0.391031	0.664502
H80	H	1.063960	-0.399013	0.593446
C81	C	1.715943	-0.105249	0.850705
C82	C	1.633829	-0.125059	0.911647
H83	H	1.697824	-0.071506	0.825913
H84	H	1.727995	-0.127753	0.792795
H85	H	1.777694	-0.103046	0.892084
H86	H	1.572079	-0.127266	0.870265
H87	H	1.621764	-0.102550	0.969565
H88	H	1.639981	-0.450852	0.384249
C89	C	1.727123	-1.091326	0.424711
C90	C	1.659679	-1.060016	0.365313
H91	H	1.772838	-1.109826	0.379205
H92	H	1.687099	-1.115418	0.464647
H93	H	1.767187	-1.069964	0.470551
H94	H	1.619609	-1.081378	0.319478
H95	H	1.699708	-1.035921	0.325359
C96	C	1.223548	-0.309401	0.760473
C97	C	1.113807	-0.309402	0.760493
H98	H	1.248404	-0.300408	0.828319
H99	H	1.248363	-0.284668	0.710942
H100	H	1.248302	-0.343131	0.742161
H101	H	1.089053	-0.275671	0.778798
H102	H	1.088982	-0.334136	0.810040
C103	C	1.436441	-0.914009	0.714620
C104	C	1.377251	-0.945458	0.647097
H105	H	1.390799	-0.895497	0.760179
H106	H	1.476448	-0.889927	0.674641
H107	H	1.482207	-0.935278	0.754846
H108	H	1.331490	-0.924189	0.606866
H109	H	1.337226	-0.969543	0.687080
H110	H	1.329043	-0.702061	0.695074
H111	H	0.929832	-0.309529	0.727964
C112	C	1.718195	-0.522170	0.306214
C113	C	1.659231	-0.557681	0.365144
H114	H	1.763824	-0.540686	0.260647
H115	H	1.758341	-0.500837	0.352020
H116	H	1.672406	-0.500911	0.265995
H117	H	1.705020	-0.578938	0.405369
H118	H	1.619083	-0.579023	0.319331
C119	C	1.785600	-0.729731	0.239163
C120	C	1.726570	-0.694236	0.298062
H121	H	1.831228	-0.711203	0.193612
H122	H	1.739860	-0.751062	0.198937
H123	H	1.825760	-0.750994	0.284998
H124	H	1.686405	-0.672976	0.252226
H125	H	1.772316	-0.672896	0.338290
H126	H	1.396125	-0.549949	0.627886
C127	C	1.521237	-0.118570	1.073603
C128	C	1.623955	-0.127760	1.107515
H129	H	1.497010	-0.086505	1.101981
H130	H	1.477143	-0.146146	1.096578
H131	H	1.519900	-0.116820	0.999250
H132	H	1.625291	-0.129515	1.181869
H133	H	1.668060	-0.100178	1.084546
C134	C	1.273125	-0.310622	1.095210
C135	C	1.377160	-0.321910	1.121729
H136	H	1.227503	-0.333303	1.132428
H137	H	1.263490	-0.315422	1.022018
H138	H	1.257822	-0.275488	1.113219
H139	H	1.392465	-0.357044	1.103713
H140	H	1.386799	-0.317115	1.194938
H141	H	1.740436	-0.194233	0.917777
C142	C	1.799712	-0.244087	1.065159
C143	C	1.773025	-0.194342	1.101758
H144	H	1.867506	-0.253127	1.089997
H145	H	1.799703	-0.244098	0.990718
H146	H	1.750033	-0.268774	1.089957
H147	H	1.822701	-0.169654	1.076954
H148	H	1.773043	-0.194327	1.176215
H149	H	1.118241	-0.191092	0.384427
H150	H	1.707485	-0.801065	0.317210
H151	H	1.329095	-0.801111	0.695088
C152	C	1.436117	-0.411656	0.714481
C153	C	1.376895	-0.443104	0.646985
H154	H	1.390495	-0.393133	0.760042
H155	H	1.476129	-0.387584	0.674483
H156	H	1.481880	-0.432927	0.754706
H157	H	1.331137	-0.421833	0.606754
H158	H	1.336865	-0.467179	0.686987
C159	C	1.718539	-0.980907	0.306324
C160	C	1.659516	-0.945415	0.365235
H161	H	1.764156	-0.962377	0.260767
H162	H	1.672794	-1.002239	0.266106
H163	H	1.758708	-1.002169	0.352151
H164	H	1.619340	-0.924154	0.319408
H165	H	1.705266	-0.924074	0.405457
C166	C	1.318304	-1.024578	0.706023
C167	C	1.377329	-1.060070	0.647113
H168	H	1.272700	-1.043107	0.751594
H169	H	1.278130	-1.003321	0.660204
H170	H	1.364057	-1.003239	0.746237
H171	H	1.331576	-1.081406	0.606893
H172	H	1.417506	-1.081335	0.692938
C173	C	1.399672	-0.373718	0.917883
C174	C	1.377086	-0.321939	0.891403
H175	H	1.354018	-0.396407	0.880635
H176	H	1.390070	-0.378487	0.991069
H177	H	1.470242	-0.381377	0.899885
H178	H	1.306518	-0.314279	0.909408
H179	H	1.386679	-0.317168	0.818201
