data_functionalizedCrystal
_audit_creation_method	'MofGen! by Chris Wilmer'
_symmetry_space_group_name_H-M	'P1'
_symmetry_Int_Tables_number	1
_symmetry_cell_setting	triclinic
loop_
_symmetry_equiv_pos_as_xyz
  x,y,z
_cell_length_a	8.559649
_cell_length_b	13.339070
_cell_length_c	7.681481
_cell_angle_alpha	82.700297
_cell_angle_beta	94.913240
_cell_angle_gamma	92.703979
loop_
_atom_site_label
_atom_site_type_symbol
_atom_site_fract_x
_atom_site_fract_y
_atom_site_fract_z
O1	O	2.094922	-0.022785	-0.146401
O2	O	1.652108	0.027721	-0.146409
O3	O	1.822694	-0.140848	-0.146401
O4	O	1.924335	0.145783	-0.146409
O5	O	1.843672	-0.161637	0.146458
O6	O	1.673086	0.006931	0.146450
O7	O	2.115899	-0.043574	0.146458
Zn8	Zn	1.897823	-0.021623	0.192951
Zn9	Zn	1.870184	0.005769	-0.192903
O10	O	1.945313	0.124994	0.146449
C11	C	1.604764	0.021153	0.000020
C12	C	1.432434	0.032546	0.000017
C13	C	1.816014	-0.187598	0.000026
C14	C	1.764836	-0.295923	0.000018
C15	C	2.162764	-0.691632	0.000026
C16	C	2.210854	-0.589856	0.000043
C17	C	2.099353	-0.516368	0.000036
C18	C	1.939755	-0.544665	0.000013
C19	C	1.891662	-0.646451	0.000010
C20	C	1.828251	-0.471188	0.000020
C21	C	1.668653	-0.499485	-0.000003
C22	C	1.620567	-0.601262	-0.000008
C23	C	1.732068	-0.674750	-0.000001
C24	C	1.876344	-0.369401	0.000024
C25	C	1.605242	-0.324221	0.000008
C26	C	1.557152	-0.425997	-0.000010
C27	C	2.163243	-0.037007	0.000025
C28	C	2.335572	-0.048399	0.000017
C29	C	1.951993	0.171744	0.000019
C30	C	2.003170	0.280070	0.000015
N31	N	1.916697	-0.040318	0.456287
N32	N	1.851319	0.024455	-0.456238
H33	H	1.383518	0.110568	0.000005
H34	H	2.006290	-0.346373	0.000043
H35	H	1.784578	0.090570	0.468562
H36	H	2.340798	-0.566825	0.000065
H37	H	1.384481	-0.126415	0.000010
C38	C	2.315837	-0.395172	0.000045
C39	C	2.152209	-0.404492	0.000034
H40	H	2.348467	-0.326101	0.000026
H41	H	2.362314	-0.433782	0.102175
H42	H	2.347694	-0.419300	-0.102079
H43	H	2.120352	-0.380372	0.102165
H44	H	2.105715	-0.365869	-0.102106
H45	H	1.983457	-0.106431	0.531496
C46	C	2.255159	-0.821622	-0.150508
C47	C	2.285312	-0.772408	0.000038
H48	H	2.330829	-0.871487	-0.150500
H49	H	2.153239	-0.853034	-0.150501
H50	H	2.260986	-0.773719	-0.252625
H51	H	2.279474	-0.820310	0.102155
H52	H	2.387258	-0.740995	0.000046
C53	C	1.600139	-0.818944	0.150506
C54	C	1.679193	-0.786625	-0.000028
H55	H	1.567490	-0.888010	0.150477
H56	H	1.668396	-0.811528	0.252620
H57	H	1.510900	-0.779222	0.150494
H58	H	1.768440	-0.826343	-0.000009
H59	H	1.610932	-0.794049	-0.102168
C60	C	1.378177	-0.243690	-0.150552
C61	C	1.482660	-0.243454	-0.000005
H62	H	1.302504	-0.193829	-0.150546
H63	H	1.434442	-0.229038	-0.252656
H64	H	1.326708	-0.308362	-0.150533
H65	H	1.534138	-0.178784	-0.000030
H66	H	1.426388	-0.258100	0.102126
H67	H	1.427204	-0.449051	-0.000028
H68	H	1.490613	-0.624297	-0.000013
