data_functionalizedCrystal
_audit_creation_method	'MofGen! by Chris Wilmer'
_symmetry_space_group_name_H-M	'P1'
_symmetry_Int_Tables_number	1
_symmetry_cell_setting	triclinic
loop_
_symmetry_equiv_pos_as_xyz
  x,y,z
_cell_length_a	10.654550
_cell_length_b	12.996460
_cell_length_c	10.654551
_cell_angle_alpha	90.003302
_cell_angle_beta	84.485132
_cell_angle_gamma	90.009092
loop_
_atom_site_label
_atom_site_type_symbol
_atom_site_fract_x
_atom_site_fract_y
_atom_site_fract_z
O1	O	1.667844	0.085644	0.176401
O2	O	1.302365	0.085627	0.193207
O3	O	1.493507	0.085637	0.002065
O4	O	1.476702	0.085635	0.367543
O5	O	1.493487	-0.085497	0.002054
O6	O	1.302345	-0.085506	0.193196
O7	O	1.667824	-0.085489	0.176390
Cu8	Cu	1.485082	-0.101124	0.184792
Cu9	Cu	1.485106	0.101262	0.184805
O10	O	1.476682	-0.085499	0.367532
C11	C	1.255557	0.000058	0.191968
C12	C	1.116114	0.000052	0.188276
N13	N	1.485075	-0.243471	0.184782
C14	C	1.036629	0.000066	0.300817
C15	C	0.905608	0.000084	0.297341
C16	C	0.933570	0.000077	0.068771
C17	C	1.064589	0.000052	0.072249
C18	C	1.088154	0.000066	0.416844
C19	C	1.008667	0.000082	0.529395
C20	C	0.877647	0.000100	0.525918
C21	C	0.826112	0.000102	0.409891
C22	C	1.485105	-0.663285	0.184806
C23	C	1.485093	-0.546480	0.184804
C24	C	1.485090	-0.453382	0.184795
C25	C	1.485077	-0.336569	0.184791
C26	C	1.714632	0.000082	0.177629
C27	C	1.854075	0.000095	0.181321
C28	C	1.492263	0.000072	-0.044739
C29	C	1.488570	0.000079	-0.184182
N30	N	1.485124	0.243609	0.184805
C31	C	1.486849	0.093362	-0.249688
C32	C	1.483369	0.093357	-0.380708
C33	C	1.483336	-0.093222	-0.380705
C34	C	1.486807	-0.093216	-0.249686
C35	C	1.488611	0.186657	-0.184183
C36	C	1.486892	0.279948	-0.249689
C37	C	1.483411	0.279943	-0.380710
C38	C	1.481651	0.186648	-0.446224
C39	C	1.477926	0.000068	0.414336
C40	C	1.481619	0.000068	0.553779
H41	H	1.194836	0.000056	0.419687
H42	H	1.481904	-0.169179	-0.434057
H43	H	1.478799	0.186651	-0.552907
H44	H	0.812931	0.000102	0.617562
N45	N	1.064247	0.000087	0.654530
H46	H	0.994008	0.000097	0.725297
H47	H	1.117975	-0.063360	0.660954
N48	N	0.684797	0.000107	0.406136
H49	H	0.642260	0.000110	0.495038
H50	H	0.658855	0.063552	0.360378
H51	H	1.488182	-0.169176	-0.196347
H52	H	1.129308	0.000043	-0.019392
N53	N	0.877993	0.000076	-0.056365
H54	H	0.782932	0.000095	-0.041490
H55	H	0.907028	0.063511	-0.105665
H56	H	1.491449	0.186672	-0.077500
N57	N	1.488673	0.380570	-0.179023
H58	H	1.491106	0.366420	-0.086079
H59	H	1.565756	0.421368	-0.211388
H60	H	1.481998	0.355905	-0.434040
