data_functionalizedCrystal
_audit_creation_method	'MofGen! by Chris Wilmer'
_symmetry_space_group_name_H-M	'P1'
_symmetry_Int_Tables_number	1
_symmetry_cell_setting	triclinic
loop_
_symmetry_equiv_pos_as_xyz
  x,y,z
_cell_length_a	6.817900
_cell_length_b	17.982783
_cell_length_c	19.453114
_cell_angle_alpha	96.125467
_cell_angle_beta	101.709288
_cell_angle_gamma	102.448572
loop_
_atom_site_label
_atom_site_type_symbol
_atom_site_fract_x
_atom_site_fract_y
_atom_site_fract_z
V1	V	-4.001665	-0.106206	-0.219293
V2	V	-3.501665	0.393794	0.280707
O3	O	-3.994950	0.004287	-0.214818
O4	O	-3.494950	0.504287	0.285182
O5	O	-3.948263	-0.209804	-0.218081
O6	O	-3.448263	0.290196	0.281919
O7	O	-3.944642	-0.104931	-0.314802
O8	O	-3.444642	0.395069	0.185198
O9	O	-3.998596	-0.101312	-0.117428
O10	O	-3.498596	0.398688	0.382572
V11	V	-4.487059	-0.092948	-0.207074
V12	V	-3.987059	0.407052	0.292926
O13	O	-4.258820	-0.135290	-0.246096
O14	O	-3.758820	0.364710	0.253904
O15	O	-4.680101	-0.063864	-0.180271
O16	O	-4.180101	0.436136	0.319729
O17	O	-4.317255	0.010650	-0.208285
O18	O	-3.817255	0.510650	0.291715
O19	O	-4.611171	-0.203441	-0.211548
O20	O	-4.111171	0.296559	0.288452
O21	O	-4.607525	-0.097842	-0.308939
O22	O	-4.107525	0.402158	0.191061
O23	O	-4.320876	-0.094223	-0.111564
O24	O	-3.820876	0.405777	0.388436
C25	C	-3.792326	-0.235048	-0.214697
C26	C	-3.292326	0.264952	0.285303
C27	C	-3.829892	-0.319743	-0.214343
C28	C	-3.329892	0.180257	0.285657
C29	C	-3.813685	-0.348419	-0.149824
C30	C	-3.313685	0.151581	0.350176
C31	C	-3.849002	-0.428000	-0.149494
C32	C	-3.349002	0.072000	0.350506
C33	C	-3.900512	-0.478902	-0.213683
C34	C	-3.400512	0.021098	0.286317
C35	C	-3.916726	-0.450221	-0.278208
C36	C	-3.416726	0.049779	0.221792
C37	C	-3.881423	-0.370642	-0.278537
C38	C	-3.381423	0.129358	0.221463
C39	C	-4.059102	-0.771155	-0.276881
C40	C	-3.559102	-0.271155	0.223119
C41	C	-4.094398	-0.850738	-0.276546
C42	C	-3.594398	-0.350738	0.223454
C43	C	-4.026680	-0.828512	-0.147837
C44	C	-3.526680	-0.328512	0.352163
C45	C	-3.991377	-0.748933	-0.148167
C46	C	-3.491377	-0.248933	0.351833
C47	C	-4.007604	-0.720259	-0.212691
C48	C	-3.507604	-0.220259	0.287309
C49	C	-3.969313	-0.633969	-0.213048
C50	C	-3.469313	-0.133969	0.286952
C51	C	-3.938789	-0.565191	-0.213327
C52	C	-3.438789	-0.065191	0.286673
C53	C	-3.787706	-0.101270	-0.338073
C54	C	-3.287706	0.398730	0.161927
C55	C	-3.822334	-0.100913	-0.416154
C56	C	-3.322334	0.399087	0.083846
C57	C	-4.020199	-0.104569	-0.456421
C58	C	-3.520199	0.395431	0.043579
C59	C	-4.052736	-0.104234	-0.529787
C60	C	-3.552736	0.395766	-0.029787
C61	C	-3.887403	-0.100257	-0.562885
C62	C	-3.387403	0.399743	-0.062885
C63	C	-3.689508	-0.096596	-0.522608
C64	C	-3.189508	0.403404	-0.022608
C65	C	-3.656973	-0.096924	-0.449242
C66	C	-3.156973	0.403076	0.050758
N67	N	-3.825717	-0.140493	-0.681785
N68	N	-3.325717	0.359507	-0.181785
N69	N	-3.856637	-0.140183	-0.751480
N70	N	-3.356637	0.359817	-0.251480
C71	C	-3.985417	-0.099267	-0.783930
C72	C	-3.485417	0.400733	-0.283930
N73	N	-4.082145	-0.058682	-0.744055
N74	N	-3.582145	0.441318	-0.244055
N75	N	-4.051230	-0.058995	-0.674355
N76	N	-3.551230	0.441005	-0.174355
C77	C	-3.922662	-0.099900	-0.642437
C78	C	-3.422662	0.400100	-0.142437
C79	C	-4.218575	-0.102558	-0.903749
C80	C	-3.718575	0.397442	-0.403749
C81	C	-4.251102	-0.102217	-0.977116
C82	C	-3.751102	0.397783	-0.477116
C83	C	-3.887872	-0.094587	-0.969936
C84	C	-3.387872	0.405413	-0.469936
C85	C	-3.855347	-0.094920	-0.896570
C86	C	-3.355347	0.405080	-0.396570
C87	C	-4.020708	-0.098909	-0.863482
C88	C	-3.520708	0.401091	-0.363482
C89	C	-4.136534	0.035890	-0.211668
C90	C	-3.636534	0.535890	0.288332
C91	C	-4.078205	0.120584	-0.212026
C92	C	-3.578205	0.620584	0.287974
C93	C	-4.141154	-0.097886	-0.088290
C94	C	-3.641154	0.402114	0.411710
C95	C	-4.085765	-0.098239	-0.010208
C96	C	-3.585765	0.401761	0.489792
H97	H	-3.771725	-0.306978	-0.097552
H98	H	-3.271725	0.193022	0.402448
F99	F	-3.971562	-0.504398	-0.346524
F100	F	-3.471562	-0.004398	0.153476
F101	F	-4.461707	-0.106107	-1.019971
F102	F	-3.961707	0.393893	-0.519971
H103	H	-3.894644	-0.347297	-0.331076
H104	H	-3.394644	0.152703	0.168924
F105	F	-4.196192	-0.108812	-0.421210
F106	F	-3.696192	0.391188	0.078790
H107	H	-4.072291	-0.747818	-0.329420
H108	H	-3.572291	-0.247818	0.170580
F109	F	-3.711903	-0.090343	-1.005155
F110	F	-3.211903	0.409657	-0.505155
F111	F	-3.644754	-0.091039	-0.853714
F112	F	-3.144754	0.408961	-0.353714
F113	F	-3.831767	-0.458515	-0.080824
F114	F	-3.331767	0.041485	0.419176
F115	F	-4.263339	-0.108121	-0.572650
F116	F	-3.763339	0.391879	-0.072650
H117	H	-3.949425	-0.707490	-0.095896
H118	H	-3.449425	-0.207490	0.404104
F119	F	-4.009422	-0.859035	-0.079164
F120	F	-3.509422	-0.359035	0.420836
H121	H	-4.136344	-0.892183	-0.328820
H122	H	-3.636344	-0.392183	0.171180
H123	H	-3.554894	-0.093355	-0.549560
H124	H	-3.054894	0.406645	-0.049560
F125	F	-3.446370	-0.093034	-0.406386
F126	F	-2.946370	0.406966	0.093614
F127	F	-4.394559	-0.106799	-0.868531
F128	F	-3.894559	0.393201	-0.368531
