data_functionalizedCrystal
_audit_creation_method	'MofGen! by Chris Wilmer'
_symmetry_space_group_name_H-M	'P1'
_symmetry_Int_Tables_number	1
_symmetry_cell_setting	triclinic
loop_
_symmetry_equiv_pos_as_xyz
  x,y,z
_cell_length_a	10.654545
_cell_length_b	15.625429
_cell_length_c	9.730223
_cell_angle_alpha	71.918450
_cell_angle_beta	89.997167
_cell_angle_gamma	84.351614
loop_
_atom_site_label
_atom_site_type_symbol
_atom_site_fract_x
_atom_site_fract_y
_atom_site_fract_z
O1	O	1.666524	0.126605	-0.177363
O2	O	1.300919	0.138673	-0.183382
O3	O	1.493491	0.001463	-0.114999
O4	O	1.473953	0.263815	-0.245746
O5	O	1.493478	0.001459	0.113583
O6	O	1.300907	0.138669	0.045200
O7	O	1.666512	0.126601	0.051219
Zn8	Zn	1.483707	0.132635	0.084501
Zn9	Zn	1.483724	0.132640	-0.216665
O10	O	1.473941	0.263811	-0.017164
C11	C	1.254124	0.137786	-0.068651
C12	C	1.114708	0.135137	-0.067333
C13	C	1.049210	0.133889	0.057889
C14	C	0.918217	0.131385	0.059137
C15	C	0.918231	0.131383	-0.190073
C16	C	1.049223	0.133880	-0.191316
C17	C	1.492600	-0.032132	0.016031
C18	C	1.489950	-0.132228	0.065906
C19	C	1.481234	-0.461425	-0.393007
C20	C	1.478738	-0.555480	-0.346099
C21	C	1.478725	-0.555471	-0.096915
C22	C	1.481227	-0.461414	-0.143802
C23	C	1.482480	-0.414398	-0.291850
C24	C	1.482473	-0.414387	-0.042645
C25	C	1.484968	-0.320338	-0.089529
C26	C	1.486217	-0.273315	-0.237571
C27	C	1.484974	-0.320349	-0.338734
C28	C	1.481211	-0.461404	0.105402
C29	C	1.482457	-0.414377	0.206559
C30	C	1.484961	-0.320327	0.159675
C31	C	1.486210	-0.273304	0.011634
C32	C	1.486203	-0.273293	0.260839
C33	C	1.488698	-0.179244	0.213954
C34	C	1.488705	-0.179255	-0.035251
C35	C	1.713307	0.127488	-0.063516
C36	C	1.852723	0.130137	-0.064842
C37	C	1.474831	0.297406	-0.148197
C38	C	1.477481	0.397503	-0.198082
N39	N	1.483706	0.132631	0.290040
N40	N	1.483736	0.132636	-0.422200
C41	C	1.569005	0.071900	0.392233
C42	C	1.569017	0.071900	0.536116
C43	C	1.398427	0.193370	0.475596
C44	C	1.398410	0.193365	0.331718
H45	H	0.864896	0.130360	-0.291015
O46	O	1.477682	-0.601256	-0.444254
C47	C	1.584924	-0.665183	-0.419917
H48	H	1.620796	-0.682478	-0.303127
H49	H	1.558709	-0.729160	-0.440792
H50	H	1.661982	-0.635605	-0.496149
H51	H	1.328983	0.242820	0.509544
H52	H	1.482265	-0.423143	-0.513562
O53	O	1.112852	0.135261	0.178210
C54	C	1.174552	0.214635	0.146103
H55	H	1.125229	0.268362	0.048620
H56	H	1.171298	0.240820	0.243259
H57	H	1.277018	0.198906	0.120469
H58	H	1.102554	0.134895	-0.293292
H59	H	1.477700	-0.593763	0.023626
O60	O	0.854755	0.130056	0.180925
C61	C	0.900846	0.052716	0.295260
H62	H	1.000655	0.028547	0.271871
H63	H	0.902156	0.070334	0.400469
H64	H	0.836997	-0.003269	0.305898
O65	O	1.489722	-0.133581	-0.179084
C66	C	1.380468	-0.147023	-0.248245
H67	H	1.303799	-0.166224	-0.165804
H68	H	1.345654	-0.081958	-0.337169
H69	H	1.403605	-0.203754	-0.297688
H70	H	1.328942	0.242819	0.248505
H71	H	1.638474	0.022447	0.619321
H72	H	1.486006	-0.282067	-0.459289
H73	H	1.479166	-0.537983	0.143570
H74	H	1.481432	-0.452670	0.327100
O75	O	1.488586	-0.181951	-0.283371
C76	C	1.489459	-0.150543	-0.435728
H77	H	1.448295	-0.201262	-0.480998
H78	H	1.430208	-0.082279	-0.477333
H79	H	1.590574	-0.142692	-0.472051
H80	H	1.485170	-0.311587	0.381379
H81	H	1.638456	0.022445	0.358304
O82	O	1.489684	-0.133489	0.312137
C83	C	1.382461	-0.069539	0.287677
H84	H	1.305757	-0.091235	0.227791
H85	H	1.346002	-0.065252	0.395743
H86	H	1.408920	-0.000422	0.219723
