data_functionalizedCrystal
_audit_creation_method	'MofGen! by Chris Wilmer'
_symmetry_space_group_name_H-M	'P1'
_symmetry_Int_Tables_number	1
_symmetry_cell_setting	triclinic
loop_
_symmetry_equiv_pos_as_xyz
  x,y,z
_cell_length_a	14.971487
_cell_length_b	10.268362
_cell_length_c	14.971494
_cell_angle_alpha	90.003567
_cell_angle_beta	96.384020
_cell_angle_gamma	90.001589
loop_
_atom_site_label
_atom_site_type_symbol
_atom_site_fract_x
_atom_site_fract_y
_atom_site_fract_z
O1	O	-1.186948	0.108109	0.116566
O2	O	-0.926548	0.108152	0.130524
O3	O	-1.063724	0.108126	-0.006655
O4	O	-1.049773	0.108134	0.253744
O5	O	-1.063712	-0.108475	-0.006660
O6	O	-0.926536	-0.108449	0.130518
O7	O	-1.186936	-0.108492	0.116560
Cu8	Cu	-1.056735	-0.128248	0.123539
Cu9	Cu	-1.056749	0.127908	0.123545
O10	O	-1.049761	-0.108466	0.253739
C11	C	-0.893218	-0.000143	0.129897
C12	C	-0.793920	-0.000127	0.128026
N13	N	-1.056732	-0.308414	0.123533
C14	C	-0.736698	-0.000124	0.208615
C15	C	-0.643398	-0.000141	0.206851
C16	C	-0.607323	-0.000151	0.124498
C17	C	-0.664553	-0.000157	0.043903
C18	C	-0.757851	-0.000149	0.045668
C19	C	-0.470091	-0.000169	0.040232
C20	C	-0.376787	-0.000174	0.038467
C21	C	-0.355638	-0.000160	0.201415
C22	C	-0.448936	-0.000153	0.203180
C23	C	-0.506159	-0.000157	0.122584
C24	C	-1.056745	-0.574084	0.123544
C25	C	-1.056734	-0.426246	0.123541
C26	C	-0.220267	-0.000187	0.117187
C27	C	-0.319564	-0.000171	0.119056
C28	C	-1.063092	-0.000172	-0.039982
C29	C	-1.061219	-0.000166	-0.139279
N30	N	-1.056760	0.308073	0.123543
C31	C	-1.060347	0.117905	-0.185920
C32	C	-1.058581	0.117907	-0.279220
C33	C	-1.057692	-0.000163	-0.325876
C34	C	-1.058562	-0.118243	-0.279228
C35	C	-1.060321	-0.118244	-0.185929
C36	C	-1.054896	-0.118234	-0.473691
C37	C	-1.053137	-0.118234	-0.566996
C38	C	-1.053155	0.117917	-0.566981
C39	C	-1.054915	0.117916	-0.473683
C40	C	-1.055785	-0.000164	-0.427041
C41	C	-1.050392	-0.000165	0.287066
C42	C	-1.052266	-0.000163	0.386363
H43	H	-0.596810	-0.000138	0.272475
H44	H	-1.055585	-0.214387	-0.435715
O45	O	-0.531807	-0.000172	-0.046699
H46	H	-0.574819	-0.088459	-0.049800
H47	H	-1.052406	-0.214377	-0.604980
O48	O	-1.057619	-0.245588	-0.329555
H49	H	-0.995909	-0.251229	-0.364170
H50	H	-0.309041	-0.000163	0.267039
H51	H	-1.055644	0.214059	-0.435698
H52	H	-0.804442	-0.000151	-0.019956
O53	O	-0.487851	-0.000159	0.292000
H54	H	-0.432388	-0.000177	0.347747
H55	H	-1.061019	-0.214389	-0.147953
O56	O	-0.775606	-0.000127	0.297439
H57	H	-0.720137	-0.000145	0.353180
O58	O	-0.337871	-0.000201	-0.050353
H59	H	-0.393335	-0.000225	-0.106100
H60	H	-0.635174	-0.000183	-0.023150
H61	H	-1.052444	0.214062	-0.604961
H62	H	-1.061075	0.214052	-0.147940
O63	O	-1.057596	0.245253	-0.329524
H64	H	-1.058503	0.327354	-0.281406
