data_functionalizedCrystal
_audit_creation_method	'MofGen! by Chris Wilmer'
_symmetry_space_group_name_H-M	'P1'
_symmetry_Int_Tables_number	1
_symmetry_cell_setting	triclinic
loop_
_symmetry_equiv_pos_as_xyz
  x,y,z
_cell_length_a	25.639239
_cell_length_b	18.050590
_cell_length_c	18.050582
_cell_angle_alpha	90.000767
_cell_angle_beta	89.975362
_cell_angle_gamma	90.027853
loop_
_atom_site_label
_atom_site_type_symbol
_atom_site_fract_x
_atom_site_fract_y
_atom_site_fract_z
Zn1	Zn	-0.208335	1.135238	-0.419591
Zn2	Zn	0.291665	1.635238	0.080409
Zn3	Zn	-0.295763	1.135126	-0.295396
Zn4	Zn	0.204237	1.635126	0.204604
Zn5	Zn	-0.208327	1.011058	-0.295449
Zn6	Zn	0.291673	1.511058	0.204551
Zn7	Zn	-0.295725	1.010983	-0.419579
Zn8	Zn	0.204275	1.510983	0.080421
O9	O	-0.252037	1.073101	-0.357504
O10	O	0.247963	1.573101	0.142496
O11	O	-0.219952	1.239148	-0.403099
O12	O	0.280048	1.739148	0.096901
O13	O	-0.284177	1.118653	-0.191479
O14	O	0.215823	1.618653	0.308521
O15	O	-0.135163	1.027609	-0.311944
O16	O	0.364837	1.527609	0.188056
O17	O	-0.284185	1.239066	-0.311854
O18	O	0.215815	1.739066	0.188146
O19	O	-0.135169	1.118844	-0.403150
O20	O	0.364831	1.618844	0.096850
O21	O	-0.219938	1.027500	-0.191517
O22	O	0.280062	1.527500	0.308483
O23	O	-0.219901	0.907123	-0.311932
O24	O	0.280099	1.407123	0.188068
O25	O	-0.284120	1.027481	-0.523505
O26	O	0.215880	1.527481	-0.023505
O27	O	-0.284112	0.907068	-0.403130
O28	O	0.215888	1.407068	0.096870
O29	O	-0.219915	1.118771	-0.523514
O30	O	0.280085	1.618771	-0.023514
O31	O	-0.368923	1.118580	-0.311843
O32	O	0.131077	1.618580	0.188157
O33	O	-0.368895	1.027373	-0.403079
O34	O	0.131105	1.527373	0.096921
C35	C	-0.252002	0.880149	-0.357536
C36	C	0.247998	1.380149	0.142464
C37	C	-0.251999	0.797603	-0.357567
C38	C	0.248001	1.297603	0.142433
C39	C	-0.287017	0.598144	-0.407043
C40	C	0.212983	1.098144	0.092957
C41	C	-0.239344	0.548764	-0.425320
C42	C	0.260656	1.048764	0.074680
C43	C	-0.252028	0.646473	-0.357531
C44	C	0.247972	1.146473	0.142469
C45	C	-0.299728	0.548772	-0.339253
C46	C	0.200272	1.048772	0.160747
C47	C	-0.252061	0.500488	-0.357497
C48	C	0.247939	1.000488	0.142503
C49	C	-0.204330	0.598180	-0.375844
C50	C	0.295670	1.098180	0.124156
C51	C	-0.264747	0.598192	-0.289745
C52	C	0.235253	1.098192	0.210255
C53	C	-0.217041	0.548834	-0.307997
C54	C	0.282959	1.048834	0.192003
C55	C	-0.252010	0.730571	-0.357552
C56	C	0.247990	1.230571	0.142448
C57	C	-0.252073	0.416391	-0.357476
C58	C	0.247927	0.916391	0.142524
C59	C	-0.387880	1.072976	-0.357470
C60	C	0.112120	1.572976	0.142530
C61	C	-0.445994	1.072991	-0.357480
C62	C	0.054006	1.572991	0.142520
C63	C	-0.806359	1.120717	-0.310078
C64	C	-0.306359	1.620717	0.189922
C65	C	-0.860963	1.120746	-0.310088
C66	C	-0.360963	1.620746	0.189912
O67	O	-0.889202	1.161195	-0.269748
O68	O	-0.389202	1.661195	0.230252
N69	N	-0.888277	1.073232	-0.357553
N70	N	-0.388277	1.573232	0.142447
C71	C	-0.860982	1.025691	-0.405017
C72	C	-0.360982	1.525691	0.094983
O73	O	-0.889228	0.985280	-0.445391
O74	O	-0.389228	1.485280	0.054609
C75	C	-0.806379	1.025667	-0.405010
C76	C	-0.306379	1.525667	0.094990
C77	C	-0.779069	1.073179	-0.357536
C78	C	-0.279069	1.573179	0.142464
C79	C	-0.779049	1.168226	-0.262609
C80	C	-0.279049	1.668226	0.237391
C81	C	-0.724448	1.168196	-0.262598
C82	C	-0.224448	1.668196	0.237402
C83	C	-0.697158	1.120657	-0.310057
C84	C	-0.197158	1.620657	0.189943
C85	C	-0.724468	1.073149	-0.357526
C86	C	-0.224468	1.573149	0.142474
C87	C	-0.779086	0.978131	-0.452477
C88	C	-0.279086	1.478131	0.047523
C89	C	-0.724479	0.978111	-0.452466
C90	C	-0.224479	1.478111	0.047534
C91	C	-0.697169	1.025622	-0.404993
C92	C	-0.197169	1.525622	0.095007
C93	C	-0.642578	1.025580	-0.404973
C94	C	-0.142578	1.525580	0.095027
N95	N	-0.615265	1.073094	-0.357508
N96	N	-0.115265	1.573094	0.142492
C97	C	-0.642555	1.120633	-0.310050
C98	C	-0.142555	1.620633	0.189950
C99	C	-0.975653	1.025747	-0.405028
C100	C	-0.475653	1.525747	0.094972
C101	C	-1.030255	1.025767	-0.405032
C102	C	-0.530255	1.525767	0.094968
C103	C	-1.030233	1.120823	-0.310104
C104	C	-0.530233	1.620823	0.189896
C105	C	-0.975629	1.120799	-0.310097
C106	C	-0.475629	1.620799	0.189903
C107	C	-0.948340	1.073261	-0.357563
C108	C	-0.448340	1.573261	0.142437
C109	C	-0.527890	1.120566	-0.310030
C110	C	-0.027890	1.620566	0.189970
C111	C	-0.473284	1.120529	-0.310022
C112	C	0.026716	1.620529	0.189978
C113	C	-0.473312	1.025477	-0.404952
C114	C	0.026688	1.525477	0.095048
C115	C	-0.527913	1.025510	-0.404958
C116	C	-0.027913	1.525510	0.095042
C117	C	-0.555200	1.073061	-0.357495
C118	C	-0.055200	1.573061	0.142505
O119	O	-0.614305	0.985154	-0.445295
O120	O	-0.114305	1.485154	0.054705
O121	O	-0.614302	1.161044	-0.269689
O122	O	-0.114302	1.661044	0.230311
C123	C	-0.115664	1.073247	-0.357554
C124	C	0.384336	1.573247	0.142446
C125	C	-0.057550	1.073309	-0.357576
C126	C	0.442450	1.573309	0.142424
C127	C	-0.252014	1.073130	-0.551210
C128	C	0.247986	1.573130	-0.051210
C129	C	-0.252004	1.073143	-0.633755
C130	C	0.247996	1.573143	-0.133755
C131	C	-0.252074	1.266807	-0.357472
C132	C	0.247926	1.766807	0.142528
C133	C	-0.252089	1.349353	-0.357459
C134	C	0.247911	1.849353	0.142541
C135	C	-0.286871	1.023537	-0.833201
C136	C	0.213129	1.523537	-0.333201
C137	C	-0.299661	1.091289	-0.882573
C138	C	0.200339	1.591289	-0.382573
C139	C	-0.251965	1.073179	-0.784886
C140	C	0.248035	1.573179	-0.284886
C141	C	-0.239161	1.005465	-0.882595
C142	C	0.260839	1.505465	-0.382595
C143	C	-0.251927	1.073209	-0.930871
C144	C	0.248073	1.573209	-0.430871
C145	C	-0.264779	1.140967	-0.833171
C146	C	0.235221	1.640967	-0.333171
C147	C	-0.204257	1.055097	-0.833188
C148	C	0.295743	1.555097	-0.333188
C149	C	-0.217028	1.122895	-0.882538
C150	C	0.282972	1.622895	-0.382538
C151	C	-0.251988	1.073162	-0.700787
C152	C	0.248012	1.573162	-0.200787
C153	C	-0.251904	1.073234	-1.014968
C154	C	0.248096	1.573234	-0.514968
C155	C	-0.252023	1.073115	-0.164552
C156	C	0.247977	1.573115	0.335448
C157	C	-0.251885	1.073247	-0.082006
C158	C	0.248115	1.573247	0.417994
H159	H	-0.275508	0.619920	-0.232450
H160	H	0.224492	1.119920	0.267550
H161	H	-0.228597	0.527052	-0.482631
H162	H	0.271403	1.027052	0.017369
H163	H	-0.702263	0.939401	-0.491121
H164	H	-0.202263	1.439401	0.008879
F165	F	-0.151606	0.626424	-0.396118
F166	F	0.348394	1.126424	0.103882
H167	H	-0.187432	0.527319	-0.266112
H168	H	0.312568	1.027319	0.233888
H169	H	-0.340054	0.527066	-0.323809
H170	H	0.159946	1.027066	0.176191
F171	F	-0.444222	1.171100	-0.259491
F172	F	0.055778	1.671100	0.240509
F173	F	-0.556923	1.171174	-0.259514
F174	F	-0.056923	1.671174	0.240486
F175	F	-1.059286	1.171417	-0.259593
F176	F	-0.559286	1.671417	0.240407
H177	H	-0.702215	1.206886	-0.223943
H178	H	-0.202215	1.706886	0.276057
F179	F	-0.808085	1.218828	-0.212094
F180	F	-0.308085	1.718828	0.287906
H181	H	-0.228347	0.948187	-0.904306
H182	H	0.271653	1.448187	-0.404306
F183	F	-0.946569	1.171367	-0.259570
F184	F	-0.446569	1.671367	0.240430
F185	F	-1.059315	0.975191	-0.455551
F186	F	-0.559315	1.475191	0.044449
F187	F	-0.352374	1.111305	-0.910929
F188	F	0.147626	1.611305	-0.410929
F189	F	-0.946614	0.975143	-0.455546
F190	F	-0.446614	1.475143	0.044454
F191	F	-0.808140	0.927567	-0.503012
F192	F	-0.308140	1.427567	-0.003012
H193	H	-0.316554	0.619799	-0.448960
H194	H	0.183446	1.119799	0.051040
F195	F	-0.444258	0.974887	-0.455460
F196	F	0.055742	1.474887	0.044540
H197	H	-0.550150	0.986824	-0.443618
H198	H	-0.050150	1.486824	0.056382
F199	F	-0.325504	0.968717	-0.804884
F200	F	0.174496	1.468717	-0.304884
H201	H	-0.275639	1.198261	-0.811552
H202	H	0.224361	1.698261	-0.311552
H203	H	-0.187492	1.164937	-0.904064
H204	H	0.312508	1.664937	-0.404064
F205	F	-0.151558	1.035057	-0.804811
F206	F	0.348442	1.535057	-0.304811
