data_functionalizedCrystal
_audit_creation_method	'MofGen! by Chris Wilmer'
_symmetry_space_group_name_H-M	'P1'
_symmetry_Int_Tables_number	1
_symmetry_cell_setting	triclinic
loop_
_symmetry_equiv_pos_as_xyz
  x,y,z
_cell_length_a	19.077409
_cell_length_b	25.639240
_cell_length_c	19.077314
_cell_angle_alpha	92.334974
_cell_angle_beta	85.337816
_cell_angle_gamma	92.334919
loop_
_atom_site_label
_atom_site_type_symbol
_atom_site_fract_x
_atom_site_fract_y
_atom_site_fract_z
Zn1	Zn	1.061650	-0.165848	0.355418
Zn2	Zn	1.561650	0.334152	0.855418
Zn3	Zn	1.066285	-0.256661	0.237516
Zn4	Zn	1.566285	0.243339	0.737516
Zn5	Zn	0.948501	-0.172618	0.242263
Zn6	Zn	1.448501	0.327382	0.742263
Zn7	Zn	0.943717	-0.256638	0.360080
Zn8	Zn	1.443717	0.243362	0.860080
O9	O	1.005038	-0.212941	0.298819
O10	O	1.505038	0.287059	0.798819
O11	O	1.160913	-0.175071	0.335840
O12	O	1.660913	0.324929	0.835840
O13	O	1.054603	-0.248355	0.139497
O14	O	1.554603	0.251645	0.639497
O15	O	0.963573	-0.098552	0.257309
O16	O	1.463573	0.401448	0.757309
O17	O	1.164319	-0.241791	0.249218
O18	O	1.664319	0.258209	0.749218
O19	O	1.046703	-0.093578	0.340443
O20	O	1.546703	0.406422	0.840443
O21	O	0.968068	-0.186609	0.142984
O22	O	1.468068	0.313391	0.642984
O23	O	0.849218	-0.186587	0.261830
O24	O	1.349218	0.313413	0.761830
O25	O	0.955419	-0.241752	0.458111
O26	O	1.455419	0.258248	0.958111
O27	O	0.845703	-0.248316	0.348389
O28	O	1.345703	0.251684	0.848389
O29	O	1.042064	-0.175049	0.454685
O30	O	1.542064	0.324951	0.954685
O31	O	1.049964	-0.329826	0.253739
O32	O	1.549964	0.170174	0.753739
O33	O	0.959913	-0.329809	0.343786
O34	O	1.459913	0.170191	0.843786
C35	C	0.821882	-0.218184	0.306131
C36	C	1.321882	0.281816	0.806131
C37	C	0.743527	-0.220439	0.309276
C38	C	1.243527	0.279561	0.809276
C39	C	0.302271	-0.236570	0.331863
C40	C	0.802271	0.263430	0.831863
C41	C	0.375895	-0.234456	0.328895
C42	C	0.875895	0.265544	0.828895
C43	C	0.414511	-0.201203	0.282419
C44	C	0.914511	0.298797	0.782419
C45	C	0.379500	-0.170067	0.238903
C46	C	0.879500	0.329933	0.738903
C47	C	0.305877	-0.172185	0.241868
C48	C	0.805877	0.327815	0.741868
C49	C	0.634893	-0.191421	0.268724
C50	C	1.134893	0.308579	0.768724
C51	C	0.708520	-0.189304	0.265764
C52	C	1.208520	0.310696	0.765764
C53	C	0.704910	-0.253693	0.355756
C54	C	1.204910	0.246307	0.855756
C55	C	0.631286	-0.255806	0.358719
C56	C	1.131286	0.244194	0.858719
C57	C	0.596282	-0.224672	0.315201
C58	C	1.096282	0.275328	0.815201
N59	N	0.489767	-0.199040	0.279386
N60	N	0.989767	0.300960	0.779386
N61	N	0.521028	-0.226838	0.318231
N62	N	1.021028	0.273162	0.818231
C63	C	1.004941	-0.348788	0.298768
C64	C	1.504941	0.151212	0.798768
C65	C	1.004963	-0.406902	0.298767
C66	C	1.504963	0.093098	0.798767
C67	C	1.048343	-0.764629	0.342188
C68	C	1.548343	-0.264629	0.842188
C69	C	1.048363	-0.819233	0.342201
C70	C	1.548363	-0.319233	0.842201
O71	O	1.085131	-0.845234	0.379067
O72	O	1.585131	-0.345234	0.879067
N73	N	1.005133	-0.849175	0.298883
N74	N	1.505133	-0.349175	0.798883
C75	C	0.961875	-0.824512	0.255555
C76	C	1.461875	-0.324512	0.755555
O77	O	0.925106	-0.854994	0.218711
O78	O	1.425106	-0.354994	0.718711
C79	C	0.961852	-0.769910	0.255545
C80	C	1.461852	-0.269910	0.755545
C81	C	1.005090	-0.739970	0.298861
C82	C	1.505090	-0.239970	0.798861
C83	C	1.091577	-0.734690	0.385500
C84	C	1.591577	-0.234690	0.885500
C85	C	1.091558	-0.680090	0.385485
C86	C	1.591558	-0.180090	0.885485
C87	C	1.048304	-0.655430	0.342158
C88	C	1.548304	-0.155430	0.842158
C89	C	1.005070	-0.685370	0.298846
C90	C	1.505070	-0.185370	0.798846
C91	C	0.918590	-0.745247	0.212221
C92	C	1.418590	-0.245247	0.712221
C93	C	0.918570	-0.690641	0.212216
C94	C	1.418570	-0.190641	0.712216
C95	C	0.961808	-0.660701	0.255531
C96	C	1.461808	-0.160701	0.755531
C97	C	0.961798	-0.606111	0.255504
C98	C	1.461798	-0.106111	0.755504
N99	N	1.005028	-0.576168	0.298822
N100	N	1.505028	-0.076168	0.798822
C101	C	1.048281	-0.600828	0.342149
C102	C	1.548281	-0.100828	0.842149
C103	C	0.961927	-0.939180	0.255578
C104	C	1.461927	-0.439180	0.755578
C105	C	0.961953	-0.993782	0.255583
C106	C	1.461953	-0.493782	0.755583
C107	C	1.048441	-0.988499	0.342231
C108	C	1.548441	-0.488499	0.842231
C109	C	1.048417	-0.933896	0.342222
C110	C	1.548417	-0.433896	0.842222
C111	C	1.005157	-0.909238	0.298896
C112	C	1.505157	-0.409238	0.798896
C113	C	1.048237	-0.486165	0.342115
C114	C	1.548237	0.013835	0.842115
C115	C	1.048216	-0.431561	0.342094
C116	C	1.548216	0.068439	0.842094
C117	C	0.961726	-0.436849	0.255449
C118	C	1.461726	0.063151	0.755449
C119	C	0.961750	-0.491448	0.255467
C120	C	1.461750	0.008552	0.755467
C121	C	1.005007	-0.516105	0.298805
C122	C	1.505007	-0.016105	0.798805
O123	O	0.925047	-0.580074	0.218660
O124	O	1.425047	-0.080074	0.718660
O125	O	1.085037	-0.570339	0.378993
O126	O	1.585037	-0.070339	0.878993
C127	C	1.188910	-0.207678	0.291479
C128	C	1.688910	0.292322	0.791479
C129	C	1.267265	-0.205435	0.288352
C130	C	1.767265	0.294565	0.788352
C131	C	0.997690	-0.207642	0.482692
C132	C	1.497690	0.292358	0.982692
C133	C	0.994559	-0.205384	0.561047
C134	C	1.494559	0.294616	1.061047
C135	C	1.005155	-0.076563	0.298885
C136	C	1.505155	0.423437	0.798885
C137	C	1.005204	-0.018446	0.298913
C138	C	1.505204	0.481554	0.798913
C139	C	1.012398	-0.218180	0.115660
C140	C	1.512398	0.281820	0.615660
C141	C	1.015666	-0.220287	0.037300
C142	C	1.515666	0.279713	0.537300
C143	C	1.038139	-0.236470	0.596046
C144	C	1.538139	0.263530	1.096046
C145	C	1.035196	-0.234342	0.669669
C146	C	1.535196	0.265658	1.169669
C147	C	0.988670	-0.201131	0.708293
C148	C	1.488670	0.298869	1.208293
C149	C	0.945089	-0.170042	0.673289
C150	C	1.445089	0.329958	1.173289
C151	C	0.948035	-0.172168	0.599667
C152	C	1.448035	0.327832	1.099667
C153	C	0.975031	-0.191324	0.928674
C154	C	1.475031	0.308676	1.428674
C155	C	0.972087	-0.189202	1.002301
C156	C	1.472087	0.310798	1.502301
C157	C	1.062195	-0.253501	0.998676
C158	C	1.562195	0.246499	1.498676
C159	C	1.065135	-0.255626	0.925053
C160	C	1.565135	0.244374	1.425053
C161	C	1.021556	-0.224535	0.890056
C162	C	1.521556	0.275465	1.390056
N163	N	0.985660	-0.198956	0.783548
N164	N	1.485660	0.301044	1.283548
N165	N	1.024570	-0.226708	0.814802
N166	N	1.524570	0.273292	1.314802
H167	H	0.599850	-0.282884	0.396564
H168	H	1.099850	0.217116	0.896564
H169	H	0.926753	-1.018155	0.220304
H170	H	1.426753	-0.518155	0.720304
O171	O	0.919829	-0.915205	0.213585
O172	O	1.419829	-0.415205	0.713585
C173	C	0.825039	-0.856612	0.207793
C174	C	1.325039	-0.356612	0.707793
C175	C	0.872656	-0.883736	0.255430
C176	C	1.372656	-0.383736	0.755430
H177	H	0.786898	-0.831155	0.241604
H178	H	1.286898	-0.331155	0.741604
H179	H	0.794097	-0.887374	0.176851
H180	H	1.294097	-0.387374	0.676851
H181	H	0.858910	-0.831199	0.169644
H182	H	1.358910	-0.331199	0.669644
H183	H	0.838837	-0.909147	0.293620
H184	H	1.338837	-0.409147	0.793620
H185	H	0.903602	-0.852948	0.286323
H186	H	1.403602	-0.352948	0.786323
O187	O	0.417116	-0.137778	0.193817
O188	O	0.917116	0.362222	0.693817
C189	C	0.532133	-0.105999	0.149340
C190	C	1.032133	0.394001	0.649340
C191	C	0.489622	-0.142583	0.200441
C192	C	0.989622	0.357417	0.700441
H193	H	0.590763	-0.109880	0.154667
H194	H	1.090763	0.390120	0.654667
H195	H	0.517239	-0.063898	0.162413
H196	H	1.017239	0.436102	0.662413
H197	H	0.519864	-0.117164	0.093065
H198	H	1.019864	0.382836	0.593065
H199	H	0.501869	-0.131465	0.256734
H200	H	1.001869	0.368535	0.756734
H201	H	0.504522	-0.184675	0.187307
H202	H	1.004522	0.315325	0.687307
H203	H	0.733419	-0.279041	0.391186
H204	H	1.233419	0.220959	0.891186
H205	H	0.739960	-0.162219	0.227923
H206	H	1.239960	0.337781	0.727923
H207	H	0.277376	-0.146830	0.206438
H208	H	0.777376	0.353170	0.706438
H209	H	1.083625	-0.909522	0.377493
H210	H	1.583625	-0.409522	0.877493
H211	H	1.097676	-0.278812	1.027179
H212	H	1.597676	0.221188	1.527179
O213	O	1.090237	-0.402556	0.384241
O214	O	1.590237	0.097444	0.884241
C215	C	1.176052	-0.403089	0.470154
C216	C	1.676052	0.096911	0.970154
C217	C	1.128490	-0.435997	0.422471
C218	C	1.628490	0.064003	0.922471
H219	H	1.207002	-0.430112	0.501065
H220	H	1.707002	0.069888	1.001065
H221	H	1.142208	-0.377410	0.508322
H222	H	1.642208	0.122590	1.008322
H223	H	1.214194	-0.377377	0.436333
H224	H	1.714194	0.122623	0.936333
H225	H	1.090340	-0.461739	0.456236
H226	H	1.590340	0.038261	0.956236
H227	H	1.162377	-0.461642	0.384300
H228	H	1.662377	0.038358	0.884300
H229	H	1.103010	-0.282679	0.893611
H230	H	1.603010	0.217321	1.393611
H231	H	1.070684	-0.259655	0.698162
H232	H	1.570684	0.240345	1.198162
O233	O	1.090416	-1.012399	0.384424
O234	O	1.590416	-0.512399	0.884424
C235	C	1.119714	-1.024633	0.503011
C236	C	1.619714	-0.524633	1.003011
C237	C	1.072144	-0.997522	0.455313
C238	C	1.572144	-0.497522	0.955313
H239	H	1.104948	-1.012625	0.560335
H240	H	1.604948	-0.512625	1.060335
H241	H	1.177067	-1.012582	0.488468
H242	H	1.677067	-0.512582	0.988468
H243	H	1.112311	-1.068799	0.495539
H244	H	1.612311	-0.568799	0.995539
H245	H	1.079485	-0.953352	0.462760
H246	H	1.579485	-0.453352	0.962760
H247	H	1.014809	-1.009616	0.469867
H248	H	1.514809	-0.509616	0.969867
O249	O	0.899799	-0.137811	0.710733
O250	O	1.399799	0.362189	1.210733
C251	C	0.779003	-0.115233	0.738081
C252	C	1.279003	0.384767	1.238081
C253	C	0.830220	-0.151761	0.695625
C254	C	1.330220	0.348239	1.195625
H255	H	0.722737	-0.126505	0.725893
H256	H	1.222737	0.373495	1.225893
H257	H	0.791941	-0.073129	0.723119
H258	H	1.291941	0.426871	1.223119
H259	H	0.784418	-0.119045	0.796708
H260	H	1.284418	0.380955	1.296708
H261	H	0.824833	-0.147995	0.636988
H262	H	1.324833	0.352005	1.136988
H263	H	0.817268	-0.193850	0.710646
H264	H	1.317268	0.306150	1.210646
O265	O	1.090154	-0.510138	0.384289
O266	O	1.590154	-0.010138	0.884289
C267	C	1.095793	-0.568744	0.479090
C268	C	1.595793	-0.068744	0.979090
C269	C	1.048239	-0.541619	0.431391
C270	C	1.548239	-0.041619	0.931391
H271	H	1.061926	-0.594211	0.517174
H272	H	1.561926	-0.094211	1.017174
H273	H	1.126675	-0.537984	0.510093
H274	H	1.626675	-0.037984	1.010093
H275	H	1.133998	-0.594149	0.445273
H276	H	1.633998	-0.094149	0.945273
H277	H	1.009994	-0.516217	0.465155
H278	H	1.509994	-0.016217	0.965155
H279	H	1.017407	-0.572406	0.400384
H280	H	1.517407	-0.072406	0.900384
H281	H	0.883382	-0.769615	0.176948
H282	H	1.383382	-0.269615	0.676948
O283	O	0.876525	-0.666772	0.170063
O284	O	1.376525	-0.166772	0.670063
C285	C	0.790701	-0.677780	0.084165
C286	C	1.290701	-0.177780	0.584165
C287	C	0.838294	-0.704877	0.131855
C288	C	1.338294	-0.204877	0.631855
H289	H	0.759768	-0.708575	0.053273
H290	H	1.259768	-0.208575	0.553273
H291	H	0.824520	-0.652360	0.045981
H292	H	1.324520	-0.152360	0.545981
H293	H	0.752543	-0.652338	0.117980
H294	H	1.252543	-0.152338	0.617980
H295	H	0.876459	-0.730345	0.098097
H296	H	1.376459	-0.230345	0.598097
H297	H	0.804431	-0.730265	0.170043
H298	H	1.304431	-0.230265	0.670043
O299	O	1.133575	-0.651088	0.427632
O300	O	1.633575	-0.151088	0.927632
C301	C	1.219389	-0.651632	0.513545
C302	C	1.719389	-0.151632	1.013545
C303	C	1.171826	-0.684534	0.465857
C304	C	1.671826	-0.184534	0.965857
H305	H	1.250338	-0.678659	0.544451
H306	H	1.750338	-0.178659	1.044451
H307	H	1.185547	-0.625955	0.551717
H308	H	1.685547	-0.125955	1.051717
H309	H	1.257533	-0.625918	0.479727
H310	H	1.757533	-0.125918	0.979727
H311	H	1.133674	-0.710278	0.499618
H312	H	1.633674	-0.210278	0.999618
H313	H	1.205712	-0.710177	0.427681
H314	H	1.705712	-0.210177	0.927681
H315	H	0.926548	-0.515827	0.220190
H316	H	1.426548	-0.015827	0.720190
H317	H	0.934201	-0.162153	1.033747
H318	H	1.434201	0.337847	1.533747
H319	H	0.606401	-0.166071	0.233285
H320	H	1.106401	0.333929	0.733285
O321	O	0.919731	-0.412806	0.213430
O322	O	1.419731	0.087194	0.713430
C323	C	0.881402	-0.331022	0.174997
C324	C	1.381402	0.168978	0.674997
C325	C	0.928989	-0.358185	0.222625
C326	C	1.428989	0.141815	0.722625
H327	H	0.888882	-0.286856	0.182403
H328	H	1.388882	0.213144	0.682403
H329	H	0.824045	-0.343023	0.189608
H330	H	1.324045	0.156977	0.689608
H331	H	0.896088	-0.343082	0.117675
H332	H	1.396088	0.156918	0.617675
H333	H	0.914366	-0.346138	0.279961
H334	H	1.414366	0.153862	0.779961
H335	H	0.986334	-0.346183	0.207954
H336	H	1.486334	0.153817	0.707954
O337	O	1.133495	-0.758663	0.427669
O338	O	1.633495	-0.258663	0.927669
C339	C	1.139153	-0.817268	0.522468
C340	C	1.639153	-0.317268	1.022468
C341	C	1.091589	-0.790148	0.474773
C342	C	1.591589	-0.290148	0.974773
H343	H	1.105293	-0.842738	0.560554
H344	H	1.605293	-0.342738	1.060554
H345	H	1.170030	-0.786503	0.553470
H346	H	1.670030	-0.286503	1.053470
H347	H	1.177362	-0.842667	0.488650
H348	H	1.677362	-0.342667	0.988650
H349	H	1.053341	-0.764750	0.508538
H350	H	1.553341	-0.264750	1.008538
H351	H	1.060762	-0.820939	0.443767
H352	H	1.560762	-0.320939	0.943767
H353	H	0.270835	-0.263645	0.369713
H354	H	0.770835	0.236355	0.869713
O355	O	1.083273	-0.268720	0.558424
O356	O	1.583273	0.231280	1.058424
C357	C	1.127781	-0.300468	0.443401
C358	C	1.627781	0.199532	0.943401
C359	C	1.076620	-0.263932	0.485919
C360	C	1.576620	0.236068	0.985919
H361	H	1.122431	-0.296602	0.384773
H362	H	1.622431	0.203398	0.884773
H363	H	1.114788	-0.342578	0.458302
H364	H	1.614788	0.157422	0.958302
H365	H	1.184043	-0.289245	0.455658
H366	H	1.684043	0.210755	0.955658
H367	H	1.020341	-0.275108	0.473685
H368	H	1.520341	0.224892	0.973685
H369	H	1.089674	-0.221831	0.471012
H370	H	1.589674	0.278169	0.971012
O371	O	0.932628	-0.161107	0.894795
O372	O	1.432628	0.338893	1.394795
C373	C	0.842973	-0.097082	0.906165
C374	C	1.342973	0.402918	1.406165
C375	C	0.890945	-0.131286	0.944626
C376	C	1.390945	0.368714	1.444626
H377	H	0.809272	-0.072955	0.946436
H378	H	1.309272	0.427045	1.446436
H379	H	0.807422	-0.123109	0.873176
H380	H	1.307422	0.376891	1.373176
H381	H	0.876755	-0.069832	0.870401
H382	H	1.376755	0.430168	1.370401
H383	H	0.857219	-0.158540	0.980426
H384	H	1.357219	0.341460	1.480426
H385	H	0.926501	-0.105227	0.977571
H386	H	1.426501	0.394773	1.477571
H387	H	0.404394	-0.259810	0.364325
H388	H	0.904394	0.240190	0.864325
O389	O	0.905669	-0.142049	0.565590
O390	O	1.405669	0.357951	1.065590
C391	C	0.813798	-0.140139	0.486295
C392	C	1.313798	0.359861	0.986295
C393	C	0.861745	-0.174313	0.524832
C394	C	1.361745	0.325687	1.024832
H395	H	0.778264	-0.166211	0.453345
H396	H	1.278264	0.333789	0.953345
H397	H	0.847531	-0.112880	0.450502
H398	H	1.347531	0.387120	0.950502
H399	H	0.780069	-0.116025	0.526556
H400	H	1.280069	0.383975	1.026556
H401	H	0.895484	-0.198460	0.484621
H402	H	1.395484	0.301540	0.984621
H403	H	0.827972	-0.201539	0.560637
H404	H	1.327972	0.298461	1.060637
