data_functionalizedCrystal
_audit_creation_method	'MofGen! by Chris Wilmer'
_symmetry_space_group_name_H-M	'P1'
_symmetry_Int_Tables_number	1
_symmetry_cell_setting	triclinic
loop_
_symmetry_equiv_pos_as_xyz
  x,y,z
_cell_length_a	14.044191
_cell_length_b	13.101018
_cell_length_c	9.065218
_cell_angle_alpha	93.410526
_cell_angle_beta	90.896169
_cell_angle_gamma	93.666878
loop_
_atom_site_label
_atom_site_type_symbol
_atom_site_fract_x
_atom_site_fract_y
_atom_site_fract_z
O1	O	1.265919	0.085157	-0.348674
O2	O	0.989840	0.085170	-0.335813
O3	O	1.133586	0.085161	-0.128234
O4	O	1.122173	0.085166	-0.556253
O5	O	1.123260	-0.085268	-0.143140
O6	O	0.979514	-0.085259	-0.350719
O7	O	1.255593	-0.085273	-0.363580
Zn8	Zn	1.115914	-0.112325	-0.359516
Zn9	Zn	1.129519	0.112223	-0.339877
O10	O	1.111847	-0.085264	-0.571159
C11	C	0.949314	-0.000043	-0.337640
C12	C	0.843944	-0.000037	-0.320858
C13	C	0.594416	-0.000047	-0.409195
C14	C	0.651023	-0.000046	-0.290203
C15	C	0.758374	-0.000041	-0.307264
C16	C	0.487055	-0.000052	-0.392137
N17	N	1.106637	-0.265574	-0.372920
C18	C	1.151421	-0.525486	-0.308220
C19	C	1.094022	-0.474610	-0.391158
C20	C	1.101043	-0.358291	-0.381007
C21	C	1.144402	-0.641815	-0.318369
C22	C	1.296119	-0.000057	-0.361753
C23	C	1.401489	-0.000056	-0.378534
C24	C	1.127326	-0.000052	-0.080578
C25	C	1.124047	-0.000047	0.083628
N26	N	1.138804	0.265472	-0.326462
C27	C	1.118107	-0.000048	-0.618814
C28	C	1.121387	-0.000046	-0.783020
H29	H	0.618868	0.000025	-0.175512
Cl30	Cl	1.010015	-0.542234	-0.512559
H31	H	0.626574	-0.000042	-0.523871
H32	H	1.205832	-0.481690	-0.229598
