data_functionalizedCrystal
_audit_creation_method	'MofGen! by Chris Wilmer'
_symmetry_space_group_name_H-M	'P1'
_symmetry_Int_Tables_number	1
_symmetry_cell_setting	triclinic
loop_
_symmetry_equiv_pos_as_xyz
  x,y,z
_cell_length_a	12.759401
_cell_length_b	21.295417
_cell_length_c	12.759393
_cell_angle_alpha	89.961905
_cell_angle_beta	89.979062
_cell_angle_gamma	90.032032
loop_
_atom_site_label
_atom_site_type_symbol
_atom_site_fract_x
_atom_site_fract_y
_atom_site_fract_z
Zn1	Zn	1.606151	-0.250553	-0.593965
Zn2	Zn	1.605994	-0.355835	-0.418261
Zn3	Zn	1.430450	-0.250587	-0.418300
Zn4	Zn	1.430393	-0.355791	-0.593899
O5	O	1.518247	-0.303192	-0.506106
O6	O	1.753151	-0.264523	-0.570669
O7	O	1.582665	-0.341906	-0.271245
O8	O	1.453846	-0.162493	-0.441646
O9	O	1.753035	-0.341874	-0.441580
O10	O	1.582933	-0.162468	-0.570706
O11	O	1.453694	-0.264581	-0.271274
O12	O	1.283421	-0.264538	-0.441582
O13	O	1.453750	-0.341799	-0.740929
O14	O	1.283380	-0.341831	-0.570594
O15	O	1.582879	-0.264481	-0.740977
O16	O	1.582610	-0.443919	-0.441516
O17	O	1.453597	-0.443886	-0.570556
C18	C	1.245279	-0.303184	-0.506085
C19	C	1.128503	-0.303196	-0.506101
C20	C	1.518109	-0.466743	-0.506048
C21	C	1.518146	-0.536711	-0.506058
C22	C	1.073647	-0.343504	-0.573172
C23	C	0.963923	-0.343506	-0.573193
C24	C	0.963921	-0.262891	-0.439063
C25	C	1.073643	-0.262886	-0.439048
C26	C	1.585383	-0.569574	-0.438936
C27	C	1.585432	-0.635316	-0.438960
C28	C	1.518226	-0.668194	-0.506094
C29	C	1.450985	-0.635323	-0.573230
C30	C	1.450945	-0.569582	-0.573212
N31	N	1.426319	-0.771460	-0.514097
N32	N	1.426360	-0.833912	-0.514108
C33	C	1.518344	-0.866268	-0.506155
N34	N	1.610287	-0.833814	-0.498169
N35	N	1.610245	-0.771357	-0.498153
C36	C	1.518262	-0.739479	-0.506122
C37	C	1.585640	-0.970417	-0.439054
C38	C	1.585691	-1.036160	-0.439085
C39	C	1.451233	-1.036166	-0.573350
C40	C	1.451192	-0.970423	-0.573325
C41	C	1.518393	-0.937553	-0.506171
C42	C	1.792280	-0.303200	-0.506128
C43	C	1.909057	-0.303203	-0.506137
C44	C	1.518325	-0.303131	-0.780140
C45	C	1.518359	-0.303105	-0.896916
C46	C	1.518414	-0.139001	-0.506188
C47	C	1.518485	-0.069033	-0.506222
C48	C	1.585601	-0.262839	-0.951805
C49	C	1.585619	-0.262812	-1.061529
C50	C	1.451149	-0.343322	-1.061466
C51	C	1.451127	-0.343346	-0.951744
C52	C	1.518229	-0.303206	-0.233139
C53	C	1.518399	-0.303055	-0.116363
H54	H	1.118311	-0.376325	-0.627773
C55	C	1.377207	-0.387589	-1.121775
H56	H	1.337150	-0.411570	-1.073367
H57	H	1.417377	-0.415010	-1.164569
H58	H	1.331460	-0.363495	-1.164582
C59	C	1.659543	-0.218574	-0.891493
H60	H	1.649909	-0.224357	-0.818285
H61	H	1.644215	-0.176275	-0.909494
H62	H	1.730131	-0.227789	-0.909484
H63	H	1.640449	-1.062916	-0.384429
H64	H	0.919264	-0.376328	-0.627810
H65	H	1.396363	-0.376135	-0.907052
H66	H	1.640373	-0.230023	-1.106215
H67	H	1.396437	-0.943665	-0.627977
C68	C	0.903571	-0.218561	-0.365300
H69	H	0.830367	-0.224341	-0.374905
H70	H	0.921591	-0.176275	-0.380799
H71	H	0.921514	-0.227729	-0.294676
H72	H	1.118308	-0.230058	-0.384431
H73	H	1.640188	-0.662078	-0.384301
C74	C	1.659313	-0.533419	-0.365082
H75	H	1.699372	-0.562411	-0.325117
H76	H	1.619138	-0.507816	-0.319262
H77	H	1.705059	-0.507732	-0.405315
C78	C	1.377059	-0.671483	-0.647079
H79	H	1.337014	-0.642492	-0.687060
H80	H	1.331317	-0.697174	-0.606860
H81	H	1.417250	-0.697082	-0.692900
C82	C	1.376980	-0.533429	-0.647044
H83	H	1.386585	-0.489568	-0.637420
H84	H	1.306403	-0.544250	-0.631614
H85	H	1.392336	-0.544157	-0.717655
C86	C	1.659568	-0.934256	-0.365202
H87	H	1.699632	-0.963246	-0.325240
H88	H	1.619389	-0.908656	-0.319379
H89	H	1.705308	-0.908565	-0.405434
C90	C	1.377313	-1.072323	-0.647202
H91	H	1.386963	-1.116183	-0.637598
H92	H	1.392646	-1.061503	-0.717802
H93	H	1.306718	-1.061598	-0.631756
