data_functionalizedCrystal
_audit_creation_method	'MofGen! by Chris Wilmer'
_symmetry_space_group_name_H-M	'P1'
_symmetry_Int_Tables_number	1
_symmetry_cell_setting	triclinic
loop_
_symmetry_equiv_pos_as_xyz
  x,y,z
_cell_length_a	18.101398
_cell_length_b	18.050589
_cell_length_c	18.101389
_cell_angle_alpha	90.014016
_cell_angle_beta	90.024327
_cell_angle_gamma	90.023488
loop_
_atom_site_label
_atom_site_type_symbol
_atom_site_fract_x
_atom_site_fract_y
_atom_site_fract_z
Zn1	Zn	1.132136	-0.295831	0.418861
Zn2	Zn	1.465469	0.037502	0.752195
Zn3	Zn	1.798803	0.370836	1.085528
Zn4	Zn	1.132038	-0.420005	0.295029
Zn5	Zn	1.465371	-0.086672	0.628363
Zn6	Zn	1.798705	0.246661	0.961696
Zn7	Zn	1.008295	-0.295823	0.295023
Zn8	Zn	1.341628	0.037510	0.628356
Zn9	Zn	1.674961	0.370843	0.961689
Zn10	Zn	1.008252	-0.419974	0.418818
Zn11	Zn	1.341585	-0.086640	0.752151
Zn12	Zn	1.674918	0.246693	1.085485
O13	O	1.070180	-0.357908	0.356933
O14	O	1.403513	-0.024575	0.690266
O15	O	1.736847	0.308758	1.023599
O16	O	1.235756	-0.312320	0.402456
O17	O	1.569089	0.021014	0.735789
O18	O	1.902422	0.354347	1.069123
O19	O	1.115600	-0.403542	0.191396
O20	O	1.448934	-0.070209	0.524729
O21	O	1.782267	0.263124	0.858062
O22	O	1.024782	-0.191900	0.311465
O23	O	1.358115	0.141434	0.644799
O24	O	1.691448	0.474767	0.978132
O25	O	1.235684	-0.403550	0.311477
O26	O	1.569017	-0.070217	0.644810
O27	O	1.902350	0.263117	0.978144
O28	O	1.115767	-0.191905	0.402449
O29	O	1.449100	0.141428	0.735783
O30	O	1.782434	0.474761	1.069116
O31	O	1.024687	-0.312306	0.191391
O32	O	1.358020	0.021027	0.524724
O33	O	1.691353	0.354360	0.858057
O34	O	0.904656	-0.312276	0.311423
O35	O	1.237990	0.021058	0.644757
O36	O	1.571323	0.354391	0.978090
O37	O	1.024708	-0.403496	0.522457
O38	O	1.358042	-0.070162	0.855790
O39	O	1.691375	0.263171	1.189123
O40	O	0.904625	-0.403488	0.402375
O41	O	1.237958	-0.070155	0.735709
O42	O	1.571291	0.263178	1.069042
O43	O	1.115725	-0.312289	0.522489
O44	O	1.449059	0.021045	0.855822
O45	O	1.782392	0.354378	1.189155
O46	O	1.115558	-0.523926	0.311435
O47	O	1.448892	-0.190592	0.644768
O48	O	1.782225	0.142741	0.978102
O49	O	1.024613	-0.523902	0.402382
O50	O	1.357947	-0.190569	0.735715
O51	O	1.691280	0.142764	1.069048
C52	C	0.877770	-0.357878	0.356894
C53	C	1.211103	-0.024545	0.690228
C54	C	1.544436	0.308788	1.023561
C55	C	0.795455	-0.357883	0.356895
C56	C	1.128789	-0.024550	0.690229
C57	C	1.462122	0.308784	1.023562
C58	C	0.496364	-0.357930	0.356957
C59	C	0.829698	-0.024596	0.690291
C60	C	1.163031	0.308737	1.023624
C61	C	0.527685	-0.300254	0.300012
C62	C	0.861018	0.033079	0.633345
C63	C	1.194352	0.366412	0.966679
C64	C	0.613303	-0.300409	0.299769
C65	C	0.946636	0.032924	0.633102
C66	C	1.279970	0.366258	0.966436
C67	C	0.644747	-0.357906	0.356927
C68	C	0.978080	-0.024573	0.690260
C69	C	1.311414	0.308761	1.023593
C70	C	0.613633	-0.436133	0.335608
C71	C	0.946966	-0.102800	0.668941
C72	C	1.280299	0.230533	1.002275
C73	C	0.527988	-0.435813	0.335212
C74	C	0.861321	-0.102480	0.668545
C75	C	1.194654	0.230854	1.001879
C76	C	0.527978	-0.338057	0.435355
C77	C	0.861311	-0.004724	0.768689
C78	C	1.194645	0.328609	1.102022
C79	C	0.613629	-0.336315	0.434927
C80	C	0.946962	-0.002982	0.768261
C81	C	1.280295	0.330351	1.101594
C82	C	0.728606	-0.357897	0.356910
C83	C	1.061940	-0.024564	0.690244
C84	C	1.395273	0.308769	1.023577
C85	C	0.412505	-0.357943	0.356972
C86	C	0.745838	-0.024610	0.690305
C87	C	1.079172	0.308723	1.023638
C88	C	1.070091	-0.550860	0.356921
C89	C	1.403424	-0.217527	0.690254
C90	C	1.736757	0.115806	1.023587
C91	C	1.070120	-0.633406	0.356940
C92	C	1.403454	-0.300073	0.690273
C93	C	1.736787	0.033260	1.023607
C94	C	1.020713	-0.832871	0.406380
C95	C	1.354046	-0.499538	0.739713
C96	C	1.687379	-0.166204	1.073046
C97	C	1.002661	-0.882299	0.338801
C98	C	1.335994	-0.548965	0.672134
C99	C	1.669328	-0.215632	1.005468
C100	C	1.070193	-0.784537	0.356950
C101	C	1.403526	-0.451203	0.690283
C102	C	1.736860	-0.117870	1.023616
C103	C	1.088281	-0.882191	0.424536
C104	C	1.421615	-0.548857	0.757870
C105	C	1.754948	-0.215524	1.091203
C106	C	1.070262	-0.930522	0.356965
C107	C	1.403595	-0.597188	0.690298
C108	C	1.736928	-0.263855	1.023632
C109	C	1.052106	-0.832877	0.289335
C110	C	1.385439	-0.499544	0.622668
C111	C	1.718772	-0.166210	0.956002
C112	C	1.137757	-0.832765	0.375116
C113	C	1.471091	-0.499431	0.708449
C114	C	1.804424	-0.166098	1.041783
C115	C	1.119731	-0.882170	0.307491
C116	C	1.453064	-0.548836	0.640824
C117	C	1.786398	-0.215503	0.974157
C118	C	1.070151	-0.700438	0.356942
C119	C	1.403485	-0.367105	0.690275
C120	C	1.736818	-0.033772	1.023609
C121	C	1.070304	-1.014618	0.356965
C122	C	1.403637	-0.681285	0.690299
C123	C	1.736970	-0.347952	1.023632
C124	C	1.263342	-0.357939	0.356972
C125	C	1.596675	-0.024606	0.690305
C126	C	1.930009	0.308728	1.023639
C127	C	1.345656	-0.357952	0.356989
C128	C	1.678989	-0.024619	0.690322
C129	C	2.012323	0.308714	1.023655
C130	C	1.070223	-0.357890	0.550095
C131	C	1.403556	-0.024556	0.883428
C132	C	1.736890	0.308777	1.216761
C133	C	1.070241	-0.357882	0.632409
C134	C	1.403574	-0.024548	0.965742
C135	C	1.736908	0.308785	1.299076
C136	C	1.070290	-0.164203	0.356961
C137	C	1.403623	0.169131	0.690295
C138	C	1.736957	0.502464	1.023628
C139	C	1.070337	-0.081657	0.356974
C140	C	1.403670	0.251676	0.690307
C141	C	1.737004	0.585010	1.023640
C142	C	1.070180	-0.357873	0.164522
C143	C	1.403513	-0.024540	0.497856
C144	C	1.736847	0.308793	0.831189
C145	C	1.070305	-0.357672	0.082209
C146	C	1.403639	-0.024339	0.415542
C147	C	1.736972	0.308994	0.748875
C148	C	1.070284	-0.357742	0.931500
C149	C	1.403618	-0.024409	1.264833
C150	C	1.736951	0.308924	1.598167
C151	C	1.012822	-0.414945	0.900155
C152	C	1.346155	-0.081611	1.233488
C153	C	1.679488	0.251722	1.566821
C154	C	1.012977	-0.415210	0.814536
C155	C	1.346310	-0.081877	1.147870
C156	C	1.679644	0.251457	1.481203
C157	C	1.070262	-0.357811	0.783117
C158	C	1.403596	-0.024478	1.116451
C159	C	1.736929	0.308855	1.449784
C160	C	1.148289	-0.379062	0.814225
C161	C	1.481622	-0.045728	1.147558
C162	C	1.814955	0.287605	1.480891
C163	C	1.147969	-0.379437	0.899870
C164	C	1.481302	-0.046104	1.233203
C165	C	1.814635	0.287230	1.566536
C166	C	1.050399	-0.279163	0.899918
C167	C	1.383732	0.054171	1.233252
C168	C	1.717066	0.387504	1.566585
C169	C	1.048663	-0.279616	0.814267
C170	C	1.381996	0.053717	1.147601
C171	C	1.715330	0.387050	1.480934
C172	C	1.070255	-0.357849	0.699258
C173	C	1.403588	-0.024516	1.032591
C174	C	1.736921	0.308817	1.365925
C175	C	1.070297	-0.357706	1.015360
C176	C	1.403630	-0.024373	1.348693
C177	C	1.736964	0.308960	1.682026
H178	H	0.506403	-0.282008	0.454739
H179	H	0.839737	0.051326	0.788072
H180	H	1.173070	0.384659	1.121406
H181	H	1.103553	-0.903852	0.481687
H182	H	1.436886	-0.570519	0.815021
H183	H	1.770220	-0.237185	1.148354
H184	H	0.507112	-0.242068	0.313227
H185	H	0.840445	0.091266	0.646560
H186	H	1.173778	0.424599	0.979894
H187	H	1.194849	-0.810992	0.390500
H188	H	1.528182	-0.477659	0.723833
H189	H	1.861516	-0.144326	1.057166
H190	H	0.945556	-0.904073	0.323450
H191	H	1.278890	-0.570740	0.656783
H192	H	1.612223	-0.237406	0.990116
H193	H	0.978808	-0.811224	0.448122
H194	H	1.312141	-0.477890	0.781455
H195	H	1.645474	-0.144557	1.114788
H196	H	1.036768	-0.811305	0.232168
H197	H	1.370101	-0.477972	0.565502
H198	H	1.703434	-0.144638	0.898835
H199	H	0.633970	-0.278749	0.451002
H200	H	0.967303	0.054585	0.784336
H201	H	1.300637	0.387918	1.117669
H202	H	1.161604	-0.903680	0.265648
H203	H	1.494938	-0.570347	0.598981
H204	H	1.828271	-0.237013	0.932314
H205	H	0.635048	-0.453280	0.278915
H206	H	0.968382	-0.119947	0.612248
H207	H	1.301715	0.213386	0.945581
H208	H	0.955117	-0.401912	0.793503
H209	H	1.288451	-0.068578	1.126836
H210	H	1.621784	0.264755	1.460170
H211	H	0.634000	-0.480257	0.375787
H212	H	0.967333	-0.146923	0.709120
H213	H	1.300666	0.186410	1.042453
H214	H	0.954788	-0.401782	0.920740
H215	H	1.288121	-0.068449	1.254073
H216	H	1.621455	0.264884	1.587406
H217	H	1.192253	-0.338707	0.793876
H218	H	1.525586	-0.005374	1.127209
H219	H	1.858919	0.327959	1.460542
H220	H	1.025820	-0.472835	0.921685
H221	H	1.359153	-0.139502	1.255018
H222	H	1.692487	0.193832	1.588351
H223	H	1.026106	-0.473456	0.794059
H224	H	1.359439	-0.140122	1.127392
H225	H	1.692772	0.193211	1.460725
H226	H	0.635036	-0.375263	0.479629
H227	H	0.968369	-0.041929	0.812962
H228	H	1.301703	0.291404	1.146296
H229	H	1.164826	-0.436880	0.919858
H230	H	1.498159	-0.103547	1.253191
H231	H	1.831492	0.229787	1.586524
H232	H	1.192234	-0.339582	0.920607
H233	H	1.525567	-0.006249	1.253940
H234	H	1.858901	0.327084	1.587274
H235	H	0.507724	-0.380066	0.477785
H236	H	0.841057	-0.046733	0.811118
H237	H	1.174390	0.286601	1.144452
H238	H	0.507268	-0.480240	0.374880
H239	H	0.840601	-0.146906	0.708214
H240	H	1.173935	0.186427	1.041547
H241	H	1.165437	-0.435894	0.792787
H242	H	1.498771	-0.102561	1.126120
H243	H	1.832104	0.230773	1.459454
H244	H	0.994491	-0.259803	0.921503
H245	H	1.327824	0.073530	1.254836
H246	H	1.661157	0.406863	1.588169
H247	H	0.506136	-0.313242	0.242258
H248	H	0.839469	0.020092	0.575591
H249	H	1.172803	0.353425	0.908925
H250	H	0.991242	-0.263592	0.793934
H251	H	1.324576	0.069742	1.127268
H252	H	1.657909	0.403075	1.460601
H253	H	0.507977	-0.452667	0.277900
H254	H	0.841310	-0.119334	0.611233
H255	H	1.174643	0.213999	0.944566
H256	H	1.087462	-0.234735	0.792880
H257	H	1.420795	0.098599	1.126213
H258	H	1.754128	0.431932	1.459546
H259	H	0.634341	-0.242399	0.313131
H260	H	0.967674	0.090934	0.646465
H261	H	1.301007	0.424267	0.979798
H262	H	0.633757	-0.313545	0.241677
H263	H	0.967091	0.019788	0.575010
H264	H	1.300424	0.353122	0.908344
H265	H	1.092252	-0.236544	0.920191
H266	H	1.425585	0.096789	1.253524
H267	H	1.758919	0.430123	1.586858
