data_functionalizedCrystal
_audit_creation_method	'MofGen! by Chris Wilmer'
_symmetry_space_group_name_H-M	'P1'
_symmetry_Int_Tables_number	1
_symmetry_cell_setting	triclinic
loop_
_symmetry_equiv_pos_as_xyz
  x,y,z
_cell_length_a	10.489741
_cell_length_b	14.853567
_cell_length_c	13.930277
_cell_angle_alpha	90.004245
_cell_angle_beta	89.995758
_cell_angle_gamma	95.912948
loop_
_atom_site_label
_atom_site_type_symbol
_atom_site_fract_x
_atom_site_fract_y
_atom_site_fract_z
O1	O	0.166528	-1.197302	-0.079764
O2	O	0.186365	-0.934954	-0.079780
O3	O	-0.009218	-1.072098	-0.079766
O4	O	0.362111	-1.060158	-0.079778
O5	O	-0.009222	-1.072078	0.079896
O6	O	0.186361	-0.934935	0.079881
O7	O	0.166524	-1.197283	0.079898
Zn8	Zn	0.176442	-1.066106	0.105239
Zn9	Zn	0.176447	-1.066131	-0.105122
O10	O	0.362107	-1.060139	0.079883
C11	C	0.185464	-0.901351	0.000048
C12	C	0.182771	-0.801252	0.000042
C13	C	-0.056742	-1.071186	0.000064
C14	C	-0.198341	-1.068488	0.000062
C15	C	0.167425	-1.230886	0.000067
C16	C	0.170118	-1.330985	0.000067
C17	C	-0.265502	-0.981228	0.000050
C18	C	-0.358089	-1.022439	0.078774
C19	C	-0.358060	-1.022479	-0.078640
C20	C	-0.289063	-1.109736	0.078851
C21	C	-0.289024	-1.109763	-0.078633
C22	C	-0.381585	-1.151038	0.000110
C23	C	0.409631	-1.061051	0.000051
C24	C	0.551230	-1.063748	0.000047
N25	N	0.176437	-1.066095	0.248805
C26	C	0.055204	-0.388003	0.000068
C27	C	0.287562	-0.368025	0.000059
C28	C	0.290094	-0.462072	0.000056
C29	C	0.175180	-0.519090	0.000057
C30	C	0.057733	-0.482060	0.000062
C31	C	0.407539	-0.499110	0.000042
C32	C	0.410077	-0.593163	0.000038
C33	C	0.295161	-0.650183	0.000046
C34	C	0.177709	-0.613147	0.000051
C35	C	0.062795	-0.670164	0.000053
C36	C	-0.054658	-0.633130	0.000065
C37	C	-0.057183	-0.539079	0.000070
C38	C	0.297685	-0.744234	0.000041
C39	C	0.065324	-0.764221	0.000047
N40	N	0.176442	-1.066149	-0.248688
C41	C	0.263018	-1.005401	0.701068
C42	C	0.089867	-1.126886	0.701050
C43	C	0.089863	-1.126875	0.600555
C44	C	0.176439	-1.066127	0.550311
C45	C	0.263019	-1.005390	0.600563
C46	C	0.003293	-1.187617	0.550295
C47	C	0.003287	-1.187609	0.449793
C48	C	0.089858	-1.126857	0.399548
C49	C	0.176440	-1.066117	0.449806
C50	C	0.263016	-1.005369	0.399563
C51	C	0.349593	-0.944624	0.449819
C52	C	0.349590	-0.944638	0.550318
C53	C	0.089861	-1.126843	0.299049
C54	C	0.263017	-1.005358	0.299058
H55	H	-0.388688	-0.985509	0.145325
C56	C	-0.091918	-1.254438	0.394515
H57	H	-0.079509	-1.245742	0.327465
H58	H	-0.177083	-1.244122	0.410985
H59	H	-0.077871	-1.314691	0.410982
H60	H	0.019385	-1.176349	0.741962
C61	C	-0.197344	-0.884308	0.000135
H62	H	-0.145840	-0.875317	-0.055829
H63	H	-0.144688	-0.875738	0.055532
H64	H	-0.259469	-0.842075	0.000737
C65	C	0.358254	-0.938539	0.243793
H66	H	0.345856	-0.947228	0.176741
H67	H	0.443406	-0.948879	0.260261
H68	H	0.344236	-0.878281	0.260272
C69	C	0.426863	-0.784974	0.000024
H70	H	0.411913	-0.849153	0.000016
H71	H	0.474192	-0.765452	0.055696
H72	H	0.474174	-0.765458	-0.055666
H73	H	0.420090	-0.895166	0.408899
C74	C	-0.181056	-0.695855	0.000067
H75	H	-0.162720	-0.757171	0.000064
H76	H	-0.229213	-0.684548	-0.055605
H77	H	-0.229203	-0.684554	0.055758
C78	C	-0.005357	-1.193652	0.243766
H79	H	0.007046	-1.184949	0.176717
H80	H	-0.090512	-1.183322	0.260246
H81	H	0.008670	-1.253912	0.260222
H82	H	0.381119	-0.321596	0.000050
C83	C	-0.247983	-1.159552	0.168867
H84	H	-0.157640	-1.160934	0.168342
H85	H	-0.288773	-1.219694	0.169103
H86	H	-0.272172	-1.128743	0.224697
H87	H	-0.152807	-0.508917	0.000103
H88	H	-0.040424	-0.357845	0.000082
C89	C	-0.449456	-1.248040	0.000174
H90	H	-0.425850	-1.278880	0.056147
H91	H	-0.424765	-1.279278	-0.055214
H92	H	-0.539636	-1.245803	-0.000350
C93	C	0.444778	-0.877797	0.605597
H94	H	0.496319	-0.841600	0.561282
H95	H	0.497975	-0.910544	0.644809
H96	H	0.398742	-0.839990	0.644794
C97	C	-0.247628	-1.159608	-0.168540
H98	H	-0.270977	-1.128525	-0.224424
H99	H	-0.288974	-1.219591	-0.169103
H100	H	-0.157375	-1.161436	-0.167569
C101	C	0.358249	-0.938589	0.756344
H102	H	0.345858	-0.947296	0.823394
H103	H	0.344244	-0.878333	0.739883
H104	H	0.443407	-0.948936	0.739867
C105	C	0.533932	-0.436393	0.000045
H106	H	0.515601	-0.375076	0.000063
H107	H	0.582089	-0.447694	-0.055635
H108	H	0.582077	-0.447704	0.055727
C109	C	-0.091941	-1.254429	0.605558
H110	H	-0.143495	-1.290607	0.561235
H111	H	-0.145119	-1.221654	0.644767
H112	H	-0.045957	-1.292258	0.644757
C113	C	-0.399343	-0.972598	-0.168552
H114	H	-0.359179	-0.912275	-0.168452
H115	H	-0.489763	-0.971716	-0.168225
H116	H	-0.374525	-1.003022	-0.224451
H117	H	-0.028255	-0.810640	0.000051
H118	H	0.505714	-0.623308	0.000028
