data_functionalizedCrystal
_audit_creation_method	'MofGen! by Chris Wilmer'
_symmetry_space_group_name_H-M	'P1'
_symmetry_Int_Tables_number	1
_symmetry_cell_setting	triclinic
loop_
_symmetry_equiv_pos_as_xyz
  x,y,z
_cell_length_a	14.044220
_cell_length_b	9.616153
_cell_length_c	14.044220
_cell_angle_alpha	89.997039
_cell_angle_beta	86.811122
_cell_angle_gamma	90.002118
loop_
_atom_site_label
_atom_site_type_symbol
_atom_site_fract_x
_atom_site_fract_y
_atom_site_fract_z
O1	O	1.277171	0.115503	-0.230164
O2	O	1.000500	0.115538	-0.221858
O3	O	1.134683	0.115508	-0.087675
O4	O	1.142988	0.115534	-0.364347
O5	O	1.134663	-0.115784	-0.087677
O6	O	1.000480	-0.115753	-0.221860
O7	O	1.277152	-0.115788	-0.230165
Zn8	Zn	1.138813	-0.152493	-0.226013
Zn9	Zn	1.138839	0.152243	-0.226011
O10	O	1.142969	-0.115757	-0.364348
C11	C	0.964868	-0.000103	-0.218223
C12	C	0.858725	-0.000090	-0.207379
N13	N	1.138802	-0.360468	-0.226014
C14	C	0.664388	-0.000120	-0.187553
C15	C	0.613258	-0.000118	-0.264467
C16	C	0.505122	-0.000135	-0.253435
C17	C	0.772534	-0.000103	-0.198583
C18	C	1.066766	-0.580821	-0.297515
C19	C	1.066959	-0.419654	-0.297818
C20	C	1.240260	-0.418927	-0.256196
C21	C	1.239877	-0.580145	-0.256712
C22	C	1.110354	-0.580386	-0.124153
C23	C	1.108113	-0.419159	-0.124630
C24	C	1.312783	-0.000144	-0.233800
C25	C	1.418926	-0.000148	-0.244645
C26	C	1.131037	-0.000138	-0.052054
C27	C	1.120193	-0.000139	0.054088
N28	N	1.138857	0.360218	-0.226003
C29	C	1.146614	-0.000109	-0.399969
C30	C	1.157459	-0.000099	-0.506112
C31	C	1.100366	-0.000116	0.248426
C32	C	1.177281	-0.000122	0.299556
C33	C	1.166249	-0.000109	0.407692
C34	C	1.111397	-0.000129	0.140280
H35	H	0.650697	-0.000104	-0.338600
C36	C	1.000222	-0.000122	0.299003
N37	N	0.924793	-0.000137	0.337108
H38	H	0.626951	-0.000134	-0.113425
H39	H	1.251414	-0.000038	0.262117
C40	C	0.965440	-0.366257	-0.271862
N41	N	0.888969	-0.326045	-0.252317
C42	C	1.272051	-0.630922	-0.357411
N43	N	1.296279	-0.669161	-0.433263
C44	C	0.964960	-0.633274	-0.271820
N45	N	0.888278	-0.672800	-0.252469
H46	H	1.085632	-0.621315	-0.372487
H47	H	1.086031	-0.381069	-0.373224
C48	C	1.315134	-0.632837	-0.189641
N49	N	1.371828	-0.672519	-0.139137
C50	C	1.314931	-0.367130	-0.188184
N51	N	1.371172	-0.328112	-0.136955
H52	H	1.037527	-0.621116	-0.097221
C53	C	1.007226	-0.367552	-0.093952
N54	N	0.931236	-0.328675	-0.070848
C55	C	1.173574	-0.364768	-0.048491
N56	N	1.222892	-0.323813	0.008852
C57	C	1.272916	-0.364376	-0.355822
N58	N	1.297505	-0.323295	-0.430865
C59	C	1.181237	-0.631905	-0.052123
N60	N	1.234629	-0.670719	0.002122
