data_functionalizedCrystal
_audit_creation_method	'MofGen! by Chris Wilmer'
_symmetry_space_group_name_H-M	'P1'
_symmetry_Int_Tables_number	1
_symmetry_cell_setting	triclinic
loop_
_symmetry_equiv_pos_as_xyz
  x,y,z
_cell_length_a	11.792241
_cell_length_b	16.992695
_cell_length_c	16.053802
_cell_angle_alpha	87.258926
_cell_angle_beta	87.405349
_cell_angle_gamma	92.569181
loop_
_atom_site_label
_atom_site_type_symbol
_atom_site_fract_x
_atom_site_fract_y
_atom_site_fract_z
O1	O	1.520188	-0.104234	-0.069348
O2	O	2.020188	0.395766	0.430652
O3	O	1.190755	-0.115313	-0.069368
O4	O	1.690755	0.384687	0.430632
O5	O	1.354150	0.004375	-0.069352
O6	O	1.854150	0.504375	0.430648
O7	O	1.356793	-0.223921	-0.069365
O8	O	1.856793	0.276079	0.430635
O9	O	1.345154	-0.002186	0.069506
O10	O	1.845154	0.497814	0.569506
O11	O	1.181759	-0.121873	0.069490
O12	O	1.681759	0.378127	0.569490
O13	O	1.511192	-0.110794	0.069510
O14	O	2.011192	0.389206	0.569510
Zn15	Zn	1.345047	-0.117375	0.091547
Zn16	Zn	1.845047	0.382625	0.591547
Zn17	Zn	1.356900	-0.108732	-0.091405
Zn18	Zn	1.856900	0.391268	0.408595
O19	O	1.347796	-0.230482	0.069493
O20	O	1.847796	0.269518	0.569493
C21	C	1.143909	-0.117897	0.000059
C22	C	1.643909	0.382103	0.500059
C23	C	1.017725	-0.115813	0.000051
C24	C	1.517725	0.384187	0.500051
C25	C	1.346255	0.030321	0.000077
C26	C	1.846255	0.530321	0.500077
C27	C	1.336117	0.117409	0.000076
C28	C	1.836117	0.617409	0.500076
N29	N	1.336966	-0.123274	0.216406
N30	N	1.836966	0.376726	0.716406
C31	C	0.786698	-0.111984	0.000076
C32	C	1.286698	0.388016	0.500076
C33	C	0.915258	-0.114112	0.000062
C34	C	1.415258	0.385888	0.500062
C35	C	1.558038	-0.108210	0.000081
C36	C	2.058038	0.391790	0.500081
C37	C	1.684222	-0.110293	0.000083
C38	C	2.184222	0.389707	0.500083
C39	C	1.355692	-0.256428	0.000063
C40	C	1.855692	0.243572	0.500063
C41	C	1.365831	-0.343515	0.000058
C42	C	1.865831	0.156485	0.500058
C43	C	1.433934	0.167233	0.000083
C44	C	1.933934	0.667233	0.500083
C45	C	1.424402	0.249061	0.000074
C46	C	1.924402	0.749061	0.500074
C47	C	1.317051	0.281062	0.000065
C48	C	1.817051	0.781062	0.500065
C49	C	1.219227	0.231231	0.000056
C50	C	1.719227	0.731231	0.500056
C51	C	1.228760	0.149406	0.000059
C52	C	1.728760	0.649406	0.500059
C53	C	1.277540	0.524828	0.000051
C54	C	1.777540	1.024828	0.500051
C55	C	1.268013	0.606660	0.000051
C56	C	1.768013	1.106660	0.500051
C57	C	1.473190	0.624484	0.000068
C58	C	1.973190	1.124484	0.500068
C59	C	1.482713	0.542656	0.000076
C60	C	1.982713	1.042656	0.500076
C61	C	1.384889	0.492833	0.000062
C62	C	1.884889	0.992833	0.500062
N63	N	1.307305	0.364703	0.000059
N64	N	1.807305	0.864703	0.500059
N65	N	1.394636	0.409194	0.000062
N66	N	1.894636	0.909194	0.500062
N67	N	1.364989	-0.102827	-0.216264
N68	N	1.864989	0.397173	0.283736
C69	C	1.406520	-0.072365	0.260107
C70	C	1.906520	0.427635	0.760107
C71	C	1.400878	-0.076499	0.347513
C72	C	1.900878	0.423501	0.847513
C73	C	1.325688	-0.131546	0.391217
C74	C	1.825688	0.368454	0.891217
C75	C	1.256126	-0.182457	0.347510
C76	C	1.756126	0.317543	0.847510
C77	C	1.261763	-0.178319	0.260105
C78	C	1.761763	0.321681	0.760105
C79	C	1.301064	-0.149600	0.652624
C80	C	1.801064	0.350400	1.152624
C81	C	1.295435	-0.153735	0.740035
C82	C	1.795435	0.346265	1.240035
C83	C	1.440186	-0.047776	0.740032
C84	C	1.940186	0.452224	1.240032
C85	C	1.445821	-0.043646	0.652626
C86	C	1.945821	0.456354	1.152626
C87	C	1.376256	-0.094554	0.608926
C88	C	1.876256	0.405446	1.108926
N89	N	1.319922	-0.135774	0.480560
N90	N	1.819922	0.364226	0.980560
N91	N	1.382016	-0.090321	0.519585
N92	N	1.882016	0.409679	1.019585
H93	H	1.504056	0.289625	0.000082
H94	H	2.004056	0.789625	0.500082
H95	H	1.457513	-0.035045	0.383094
H96	H	1.957513	0.464955	0.883094
H97	H	1.496822	-0.006328	0.775620
H98	H	1.996822	0.493672	1.275620
N99	N	1.218612	-0.209967	0.784666
N100	N	1.718612	0.290033	1.284666
N101	N	1.156500	-0.255412	0.745640
N102	N	1.656500	0.244588	1.245640
H103	H	1.102243	-0.295123	0.777160
H104	H	1.602243	0.204877	1.277160
H105	H	1.244423	-0.191053	0.617051
H106	H	1.744423	0.308947	1.117051
H107	H	1.205123	-0.219774	0.224525
H108	H	1.705123	0.280226	0.724525
H109	H	1.194899	-0.227275	0.383098
H110	H	1.694899	0.272725	0.883098
H111	H	1.131820	0.257293	0.000043
H112	H	1.631820	0.757293	0.500043
N113	N	1.543590	0.134546	0.000111
N114	N	2.043590	0.634546	0.500111
N115	N	1.607417	0.146893	0.058650
N116	N	2.107417	0.646893	0.558650
H117	H	1.684865	0.123810	0.058671
H118	H	2.184865	0.623810	0.558671
N119	N	1.592379	0.509983	0.000086
N120	N	2.092379	1.009983	0.500086
N121	N	1.679710	0.554479	0.000090
N122	N	2.179710	1.054479	0.500090
H123	H	1.757164	0.531404	0.000099
H124	H	2.257164	1.031404	0.500099
N125	N	1.573108	0.675377	0.000092
N126	N	2.073108	1.175377	0.500092
N127	N	1.586888	0.720261	0.058626
N128	N	2.086888	1.220261	0.558626
H129	H	1.657461	0.756205	0.058643
H130	H	2.157461	1.256205	0.558643
H131	H	1.149107	0.108839	0.000053
H132	H	1.649107	0.608839	0.500053
H133	H	1.197883	0.484272	0.000041
H134	H	1.697883	0.984272	0.500041
N135	N	1.158353	0.639354	0.000063
N136	N	1.658353	1.139354	0.500063
N137	N	1.086940	0.621488	0.058595
N138	N	1.586940	1.121488	0.558595
H139	H	1.009497	0.644580	0.058609
H140	H	1.509497	1.144580	0.558609
N141	N	1.483268	-0.016089	0.215482
N142	N	1.983268	0.483911	0.715482
N143	N	1.545313	0.029393	0.254515
N144	N	2.045313	0.529393	0.754515
H145	H	1.599491	0.069160	0.223001
H146	H	2.099491	0.569160	0.723001
H147	H	1.507047	0.001178	0.617044
H148	H	2.007047	0.501178	1.117044
