data_functionalizedCrystal
_audit_creation_method	'MofGen! by Chris Wilmer'
_symmetry_space_group_name_H-M	'P1'
_symmetry_Int_Tables_number	1
_symmetry_cell_setting	triclinic
loop_
_symmetry_equiv_pos_as_xyz
  x,y,z
_cell_length_a	10.723024
_cell_length_b	10.723024
_cell_length_c	9.798715
_cell_angle_alpha	90.003142
_cell_angle_beta	90.001967
_cell_angle_gamma	84.467869
loop_
_atom_site_label
_atom_site_type_symbol
_atom_site_fract_x
_atom_site_fract_y
_atom_site_fract_z
O1	O	0.175024	1.657187	0.113478
O2	O	0.675024	2.157187	0.613478
O3	O	0.191778	1.294035	0.113483
O4	O	0.691778	1.794035	0.613483
O5	O	0.001825	1.483987	0.113475
O6	O	0.501825	1.983987	0.613475
O7	O	0.364977	1.467234	0.113486
O8	O	0.864977	1.967234	0.613486
O9	O	0.001824	1.483974	-0.113507
O10	O	0.501824	1.983974	0.386493
O11	O	0.191777	1.294021	-0.113499
O12	O	0.691777	1.794021	0.386501
O13	O	0.175024	1.657174	-0.113504
O14	O	0.675024	2.157174	0.386496
Zn15	Zn	0.183401	1.475595	-0.149540
Zn16	Zn	0.683401	1.975595	0.350460
Zn17	Zn	0.183401	1.475613	0.149519
Zn18	Zn	0.683401	1.975613	0.649519
O19	O	0.364977	1.467221	-0.113496
O20	O	0.864977	1.967221	0.386504
C21	C	0.190558	1.247528	-0.000008
C22	C	0.690558	1.747528	0.499992
C23	C	0.186911	1.108974	-0.000006
C24	C	0.686911	1.608974	0.499994
C25	C	0.073603	0.917217	-0.000007
C26	C	0.573603	1.417217	0.499993
C27	C	0.077371	1.060420	-0.000009
C28	C	0.577371	1.560420	0.499991
C29	C	-0.044675	1.482762	-0.000014
C30	C	0.455325	1.982762	0.499986
C31	C	-0.183229	1.479114	-0.000009
C32	C	0.316771	1.979114	0.499991
C33	C	-0.374986	1.365807	-0.000001
C34	C	0.125014	1.865807	0.499999
C35	C	-0.231783	1.369574	-0.000006
C36	C	0.268217	1.869574	0.499994
C37	C	0.411477	1.468447	-0.000004
C38	C	0.911477	1.968447	0.499996
C39	C	0.550031	1.472094	0.000000
C40	C	1.050031	1.972094	0.500000
C41	C	0.176243	1.703680	-0.000010
C42	C	0.676243	2.203680	0.499990
C43	C	0.179891	1.842234	-0.000003
C44	C	0.679891	2.342234	0.499997
N45	N	0.183399	1.475592	-0.353640
N46	N	0.683399	1.975592	0.146360
C47	C	0.111036	1.402843	-0.421450
C48	C	0.611036	1.902843	0.078550
C49	C	0.111031	1.402860	-0.578613
C50	C	0.611031	1.902860	-0.078613
N51	N	0.183393	1.475625	0.353619
N52	N	0.683393	1.975625	0.853619
H53	H	-0.013619	1.124853	-0.000003
H54	H	0.486381	1.624853	0.499997
H55	H	-0.020182	0.875395	-0.000030
H56	H	0.479818	1.375395	0.499970
H57	H	0.273677	0.884056	-0.000009
H58	H	0.773677	1.384056	0.499991
H59	H	-0.416809	1.272021	0.000010
H60	H	0.083191	1.772021	0.500010
H61	H	0.245356	1.537881	-0.411937
H62	H	0.745356	2.037881	0.088063
H63	H	0.277906	1.044549	0.000003
H64	H	0.777906	1.544549	0.500003
H65	H	-0.167350	1.278584	-0.000015
H66	H	0.332650	1.778584	0.499985
H67	H	-0.247654	1.570109	-0.000015
H68	H	0.252346	2.070109	0.499985
C69	C	0.027343	1.318679	-0.342715
C70	C	0.527343	1.818679	0.157285
H71	H	-0.018051	1.273032	-0.405639
H72	H	0.481949	1.773032	0.094361
H73	H	-0.029701	1.369214	-0.286960
H74	H	0.470299	1.869214	0.213040
H75	H	0.078160	1.261843	-0.286989
H76	H	0.578160	1.761843	0.213011
C77	C	-0.393490	1.598799	-0.000003
C78	C	0.106510	2.098799	0.499997
H79	H	-0.459103	1.664994	0.000007
H80	H	0.040897	2.164994	0.500007
H81	H	-0.343270	1.604786	-0.079156
H82	H	0.156730	2.104786	0.420844
H83	H	-0.343269	1.604794	0.079161
H84	H	0.156731	2.104794	0.579161
H85	H	0.049075	1.340581	-0.636928
H86	H	0.549075	1.840581	-0.136928
C87	C	0.267090	1.559778	-0.567629
C88	C	0.767090	2.059778	-0.067629
H89	H	0.312480	1.605439	-0.630534
H90	H	0.812480	2.105439	-0.130534
H91	H	0.324138	1.509233	-0.511889
H92	H	0.824138	2.009233	-0.011889
H93	H	0.216275	1.616602	-0.511884
H94	H	0.716275	2.116602	-0.011884
