data_functionalizedCrystal
_audit_creation_method	'MofGen! by Chris Wilmer'
_symmetry_space_group_name_H-M	'P1'
_symmetry_Int_Tables_number	1
_symmetry_cell_setting	triclinic
loop_
_symmetry_equiv_pos_as_xyz
  x,y,z
_cell_length_a	18.266242
_cell_length_b	16.109301
_cell_length_c	16.109301
_cell_angle_alpha	96.538519
_cell_angle_beta	90.007769
_cell_angle_gamma	89.993683
loop_
_atom_site_label
_atom_site_type_symbol
_atom_site_fract_x
_atom_site_fract_y
_atom_site_fract_z
O1	O	0.060837	-1.103137	0.106868
O2	O	0.310837	-0.853137	0.356868
O3	O	0.560837	-0.603137	0.606868
O4	O	0.810837	-0.353137	0.856868
O5	O	0.060849	-0.861075	0.120168
O6	O	0.310849	-0.611075	0.370168
O7	O	0.560849	-0.361075	0.620168
O8	O	0.810849	-0.111075	0.870168
O9	O	0.060835	-0.988756	-0.007513
O10	O	0.310835	-0.738756	0.242487
O11	O	0.560835	-0.488756	0.492487
O12	O	0.810835	-0.238756	0.742487
O13	O	0.060851	-0.975457	0.234549
O14	O	0.310851	-0.725457	0.484549
O15	O	0.560851	-0.475457	0.734549
O16	O	0.810851	-0.225457	0.984549
O17	O	-0.060927	-0.988734	-0.007519
O18	O	0.189073	-0.738734	0.242481
O19	O	0.439073	-0.488734	0.492481
O20	O	0.689073	-0.238734	0.742481
O21	O	-0.060913	-0.861054	0.120161
O22	O	0.189087	-0.611054	0.370161
O23	O	0.439087	-0.361054	0.620161
O24	O	0.689087	-0.111054	0.870161
O25	O	-0.060925	-1.103116	0.106862
O26	O	0.189075	-0.853116	0.356862
O27	O	0.439075	-0.603116	0.606862
O28	O	0.689075	-0.353116	0.856862
Zn29	Zn	-0.080251	-0.982081	0.113510
Zn30	Zn	0.169749	-0.732081	0.363510
Zn31	Zn	0.419749	-0.482081	0.613510
Zn32	Zn	0.669749	-0.232081	0.863510
Zn33	Zn	0.080175	-0.982110	0.113519
Zn34	Zn	0.330175	-0.732110	0.363519
Zn35	Zn	0.580175	-0.482110	0.613519
Zn36	Zn	0.830175	-0.232110	0.863519
O37	O	-0.060911	-0.975435	0.234543
O38	O	0.189089	-0.725435	0.484543
O39	O	0.439089	-0.475435	0.734543
O40	O	0.689089	-0.225435	0.984543
C41	C	-0.000031	-0.830090	0.119626
C42	C	0.249969	-0.580090	0.369626
C43	C	0.499969	-0.330090	0.619626
C44	C	0.749969	-0.080090	0.869626
C45	C	-0.000026	-0.737794	0.118011
C46	C	0.249974	-0.487794	0.368011
C47	C	0.499974	-0.237794	0.618011
C48	C	0.749974	0.012206	0.868011
N49	N	-0.189738	-0.982068	0.113504
N50	N	0.060262	-0.732068	0.363504
N51	N	0.310262	-0.482068	0.613504
N52	N	0.560262	-0.232068	0.863504
C53	C	-0.000046	-0.988206	-0.038491
C54	C	0.249954	-0.738206	0.211509
C55	C	0.499954	-0.488206	0.461509
C56	C	0.749954	-0.238206	0.711509
C57	C	-0.000047	-0.986591	-0.130786
C58	C	0.249953	-0.736591	0.119214
C59	C	0.499953	-0.486591	0.369214
C60	C	0.749953	-0.236591	0.619214
C61	C	-0.228053	-1.038623	0.056995
C62	C	0.021947	-0.788623	0.306995
C63	C	0.271947	-0.538623	0.556995
C64	C	0.521947	-0.288623	0.806995
C65	C	-0.304698	-1.038629	0.056991
C66	C	-0.054698	-0.788629	0.306991
C67	C	0.195302	-0.538629	0.556991
C68	C	0.445302	-0.288629	0.806991
C69	C	-0.343025	-0.982086	0.113511
C70	C	-0.093025	-0.732086	0.363511
C71	C	0.156975	-0.482086	0.613511
C72	C	0.406975	-0.232086	0.863511
C73	C	-0.304701	-0.925520	0.170024
C74	C	-0.054701	-0.675520	0.420024
C75	C	0.195299	-0.425520	0.670024
C76	C	0.445299	-0.175520	0.920024
C77	C	-0.228058	-0.925511	0.170021
C78	C	0.021942	-0.675511	0.420021
C79	C	0.271942	-0.425511	0.670021
C80	C	0.521942	-0.175511	0.920021
N81	N	-0.463353	-0.971484	0.187080
N82	N	-0.213353	-0.721484	0.437080
N83	N	0.036647	-0.471484	0.687080
N84	N	0.286647	-0.221484	0.937080
N85	N	-0.536161	-0.971498	0.187081
N86	N	-0.286161	-0.721498	0.437081
N87	N	-0.036161	-0.471498	0.687081
N88	N	0.213839	-0.221498	0.937081
C89	C	-0.573948	-0.982110	0.113523
C90	C	-0.323948	-0.732110	0.363523
C91	C	-0.073948	-0.482110	0.613523
C92	C	0.176052	-0.232110	0.863523
N93	N	-0.536176	-0.992723	0.039962
N94	N	-0.286176	-0.742723	0.289962
N95	N	-0.036176	-0.492723	0.539962
N96	N	0.213824	-0.242723	0.789962
N97	N	-0.463361	-0.992714	0.039962
N98	N	-0.213361	-0.742714	0.289962
N99	N	0.036639	-0.492714	0.539962
N100	N	0.286639	-0.242714	0.789962
C101	C	-0.426132	-0.982090	0.113520
C102	C	-0.176132	-0.732090	0.363520
C103	C	0.073868	-0.482090	0.613520
C104	C	0.323868	-0.232090	0.863520
C105	C	-0.695370	-1.038674	0.057005
C106	C	-0.445370	-0.788674	0.307005
C107	C	-0.195370	-0.538674	0.557005
C108	C	0.054630	-0.288674	0.807005
C109	C	-0.772016	-1.038673	0.057000
C110	C	-0.522016	-0.788673	0.307000
C111	C	-0.272016	-0.538673	0.557000
C112	C	-0.022016	-0.288673	0.807000
C113	C	-0.772017	-0.925569	0.170040
C114	C	-0.522017	-0.675569	0.420040
C115	C	-0.272017	-0.425569	0.670040
C116	C	-0.022017	-0.175569	0.920040
C117	C	-0.695373	-0.925565	0.170038
C118	C	-0.445373	-0.675565	0.420038
C119	C	-0.195373	-0.425565	0.670038
C120	C	0.054627	-0.175565	0.920038
C121	C	-0.657053	-0.982122	0.113521
C122	C	-0.407053	-0.732122	0.363521
C123	C	-0.157053	-0.482122	0.613521
C124	C	0.092947	-0.232122	0.863521
N125	N	0.189662	-0.982130	0.113519
N126	N	0.439662	-0.732130	0.363519
N127	N	0.689662	-0.482130	0.613519
N128	N	0.939662	-0.232130	0.863519
C129	C	-0.000044	-1.134101	0.107404
C130	C	0.249956	-0.884101	0.357404
C131	C	0.499956	-0.634101	0.607404
C132	C	0.749956	-0.384101	0.857404
C133	C	-0.000043	-1.226397	0.109019
C134	C	0.249957	-0.976397	0.359019
C135	C	0.499957	-0.726397	0.609019
C136	C	0.749957	-0.476397	0.859019
C137	C	-0.000030	-0.515522	0.190018
C138	C	0.249970	-0.265522	0.440018
C139	C	0.499970	-0.015522	0.690018
C140	C	0.749970	0.234478	0.940018
C141	C	-0.000035	-0.428801	0.188494
C142	C	0.249965	-0.178801	0.438494
C143	C	0.499965	0.071199	0.688494
C144	C	0.749965	0.321199	0.938494
C145	C	-0.000042	-0.448676	0.037006
C146	C	0.249958	-0.198676	0.287006
C147	C	0.499958	0.051324	0.537006
C148	C	0.749958	0.301324	0.787006
C149	C	-0.000042	-0.535394	0.038530
C150	C	0.249958	-0.285394	0.288530
C151	C	0.499958	-0.035394	0.538530
C152	C	0.749958	0.214606	0.788530
C153	C	-0.000033	-0.568815	0.115039
C154	C	0.249967	-0.318815	0.365039
C155	C	0.499967	-0.068815	0.615039
C156	C	0.749967	0.181185	0.865039
C157	C	-0.000037	-0.395376	0.111990
C158	C	0.249963	-0.145376	0.361990
C159	C	0.499963	0.104624	0.611990
C160	C	0.749963	0.354624	0.861990
C161	C	-0.000042	-0.301350	0.110337
C162	C	0.249958	-0.051350	0.360337
C163	C	0.499958	0.198650	0.610337
C164	C	0.749958	0.448650	0.860337
C165	C	-0.000029	-0.662847	0.116693
C166	C	0.249971	-0.412847	0.366693
C167	C	0.499971	-0.162847	0.616693
C168	C	0.749971	0.087153	0.866693
C169	C	-0.000039	-1.058599	-0.353059
C170	C	0.249961	-0.808599	-0.103059
C171	C	0.499961	-0.558599	0.146941
C172	C	0.749961	-0.308599	0.396941
C173	C	-0.000033	-1.057075	-0.439779
C174	C	0.249967	-0.807075	-0.189779
C175	C	0.499967	-0.557075	0.060221
C176	C	0.749967	-0.307075	0.310221
C177	C	-0.000028	-0.905586	-0.419905
C178	C	0.249972	-0.655586	-0.169905
C179	C	0.499972	-0.405586	0.080095
C180	C	0.749972	-0.155586	0.330095
C181	C	-0.000029	-0.907111	-0.333186
C182	C	0.249971	-0.657111	-0.083186
C183	C	0.499971	-0.407111	0.166814
C184	C	0.749971	-0.157111	0.416814
C185	C	-0.000038	-0.983620	-0.299766
C186	C	0.249962	-0.733620	-0.049766
C187	C	0.499962	-0.483620	0.200234
C188	C	0.749962	-0.233620	0.450234
C189	C	-0.000031	-0.980571	-0.473205
C190	C	0.249969	-0.730571	-0.223205
C191	C	0.499969	-0.480571	0.026795
C192	C	0.749969	-0.230571	0.276795
C193	C	-0.000025	-0.978918	-0.567231
C194	C	0.249975	-0.728918	-0.317231
C195	C	0.499975	-0.478918	-0.067231
C196	C	0.749975	-0.228918	0.182769
C197	C	-0.000044	-0.985273	-0.205734
C198	C	0.249956	-0.735273	0.044266
C199	C	0.499956	-0.485273	0.294266
C200	C	0.749956	-0.235273	0.544266
C201	C	-0.000028	-0.975984	0.265521
C202	C	0.249972	-0.725984	0.515521
C203	C	0.499972	-0.475984	0.765521
C204	C	0.749972	-0.225984	1.015521
C205	C	-0.000023	-0.977600	0.357816
C206	C	0.249977	-0.727600	0.607816
C207	C	0.499977	-0.477600	0.857816
C208	C	0.749977	-0.227600	1.107816
H209	H	-0.196856	-1.084673	0.010974
H210	H	0.053144	-0.834673	0.260974
H211	H	0.303144	-0.584673	0.510974
H212	H	0.553144	-0.334673	0.760974
H213	H	-0.335911	-0.879481	0.216042
H214	H	-0.085911	-0.629481	0.466042
H215	H	0.164089	-0.379481	0.716042
H216	H	0.414089	-0.129481	0.966042
H217	H	-0.000054	-0.421454	-0.025285
H218	H	0.249946	-0.171454	0.224715
H219	H	0.499946	0.078546	0.474715
H220	H	0.749946	0.328546	0.724715
H221	H	-0.000046	-0.578788	-0.022530
H222	H	0.249954	-0.328788	0.227470
H223	H	0.499954	-0.078788	0.477470
H224	H	0.749954	0.171212	0.727470
H225	H	-0.000026	-0.846050	-0.289792
H226	H	0.249974	-0.596050	-0.039792
H227	H	0.499974	-0.346050	0.210208
H228	H	0.749974	-0.096050	0.460208
H229	H	-0.803213	-1.084725	0.010979
H230	H	-0.553213	-0.834725	0.260979
H231	H	-0.303213	-0.584725	0.510979
H232	H	-0.053213	-0.334725	0.760979
H233	H	-0.000045	-1.120897	-0.325851
H234	H	0.249955	-0.870897	-0.075851
H235	H	0.499955	-0.620897	0.174149
H236	H	0.749955	-0.370897	0.424149
H237	H	-0.000034	-0.385413	0.249550
H238	H	0.249966	-0.135413	0.499550
H239	H	0.499966	0.114587	0.749550
H240	H	0.749966	0.364587	0.999550
H241	H	-0.664169	-1.084724	0.010983
H242	H	-0.414169	-0.834724	0.260983
H243	H	-0.164169	-0.584724	0.510983
H244	H	0.085831	-0.334724	0.760983
H245	H	-0.000028	-0.542730	0.252317
H246	H	0.249972	-0.292730	0.502317
H247	H	0.499972	-0.042730	0.752317
H248	H	0.749972	0.207270	1.002317
H249	H	-0.196861	-0.879455	0.216038
H250	H	0.053139	-0.629455	0.466038
H251	H	0.303139	-0.379455	0.716038
H252	H	0.553139	-0.129455	0.966038
H253	H	-0.000032	-1.118130	-0.483168
H254	H	0.249968	-0.868130	-0.233168
H255	H	0.499968	-0.618130	0.016832
H256	H	0.749968	-0.368130	0.266832
H257	H	-0.000022	-0.843295	-0.447127
H258	H	0.249978	-0.593295	-0.197127
H259	H	0.499978	-0.343295	0.052873
H260	H	0.749978	-0.093295	0.302873
H261	H	-0.335900	-1.084684	0.010973
H262	H	-0.085900	-0.834684	0.260973
H263	H	0.164100	-0.584684	0.510973
H264	H	0.414100	-0.334684	0.760973
H265	H	-0.803223	-0.879528	0.216056
H266	H	-0.553223	-0.629528	0.466056
H267	H	-0.303223	-0.379528	0.716056
H268	H	-0.053223	-0.129528	0.966056
H269	H	-0.664174	-0.879516	0.216056
H270	H	-0.414174	-0.629516	0.466056
H271	H	-0.164174	-0.379516	0.716056
H272	H	0.085826	-0.129516	0.966056
