data_functionalizedCrystal
_audit_creation_method	'MofGen! by Chris Wilmer'
_symmetry_space_group_name_H-M	'P1'
_symmetry_Int_Tables_number	1
_symmetry_cell_setting	triclinic
loop_
_symmetry_equiv_pos_as_xyz
  x,y,z
_cell_length_a	10.654550
_cell_length_b	15.944551
_cell_length_c	9.130313
_cell_angle_alpha	89.994529
_cell_angle_beta	89.999724
_cell_angle_gamma	83.991834
loop_
_atom_site_label
_atom_site_type_symbol
_atom_site_fract_x
_atom_site_fract_y
_atom_site_fract_z
O1	O	1.666313	0.117977	-0.121694
O2	O	1.300689	0.129217	-0.121721
O3	O	1.493485	0.001379	-0.121693
O4	O	1.473517	0.245814	-0.121721
O5	O	1.493472	0.001376	0.121906
O6	O	1.300676	0.129213	0.121878
O7	O	1.666300	0.117973	0.121905
Cu8	Cu	1.483487	0.123592	0.144134
Cu9	Cu	1.483502	0.123597	-0.143950
O10	O	1.473503	0.245810	0.121878
C11	C	1.253895	0.128389	0.000075
C12	C	1.114484	0.125920	0.000065
C13	C	1.034024	0.201189	0.000061
C14	C	0.903034	0.198863	0.000087
C15	C	0.932975	0.045995	0.000115
C16	C	1.063963	0.048321	0.000100
C17	C	1.492650	-0.029921	0.000106
C18	C	1.490165	-0.123182	0.000107
C19	C	1.364720	-0.338764	0.000077
C20	C	1.422966	-0.399446	0.120191
C21	C	1.485668	-0.293933	0.000095
C22	C	1.423007	-0.399426	-0.119979
C23	C	1.481317	-0.458871	0.000078
C24	C	1.543947	-0.353387	0.120308
C25	C	1.543972	-0.353360	-0.119969
C26	C	1.602306	-0.414024	0.000173
C27	C	1.488172	-0.198917	0.000107
C28	C	1.478822	-0.553887	0.000077
C29	C	1.713094	0.118800	0.000106
C30	C	1.852505	0.121269	0.000106
C31	C	1.474339	0.277110	0.000075
C32	C	1.476824	0.370371	0.000065
N33	N	1.483485	0.123589	0.346757
N34	N	1.483514	0.123594	-0.346572
C35	C	1.568884	0.067007	0.423421
C36	C	1.568896	0.067007	0.576758
C37	C	1.398106	0.180179	0.576753
C38	C	1.398089	0.180174	0.423419
H39	H	0.837528	0.260155	0.000086
H40	H	1.702787	-0.446601	0.000249
C41	C	1.661558	0.005441	0.659805
C42	C	1.641219	-0.077229	0.622497
C43	C	1.726568	-0.133968	0.698956
H44	H	1.649429	0.013426	0.762128
H45	H	1.745388	0.015038	0.634630
H46	H	1.557409	-0.086822	0.647682
H47	H	1.653357	-0.085240	0.520188
H48	H	1.810399	-0.124372	0.673780
H49	H	1.714433	-0.125976	0.801275
H50	H	1.712788	-0.190066	0.673643
C51	C	1.611951	-0.326453	0.256042
C52	C	1.548824	-0.350363	0.381354
C53	C	1.611435	-0.325574	0.506417
H54	H	1.613106	-0.266965	0.255449
H55	H	1.696091	-0.352923	0.256477
H56	H	1.464705	-0.323891	0.380919
H57	H	1.547666	-0.409847	0.381994
H58	H	1.695576	-0.352043	0.506852
H59	H	1.612588	-0.266086	0.505809
H60	H	1.568620	-0.341800	0.591455
C61	C	1.354586	-0.426470	-0.255330
C62	C	1.230280	-0.387997	-0.254772
C63	C	1.167209	-0.412877	-0.379436
H64	H	1.354030	-0.486005	-0.254956
H65	H	1.396673	-0.409895	-0.340655
H66	H	1.188203	-0.404578	-0.169469
H67	H	1.230798	-0.328464	-0.255167
H68	H	1.209296	-0.396302	-0.464762
H69	H	1.166663	-0.472411	-0.379052
H70	H	1.082865	-0.386771	-0.379082
C71	C	1.230956	-0.294966	0.000134
C72	C	1.235001	-0.207481	-0.001194
C73	C	1.111807	-0.167108	-0.001159
H74	H	1.188053	-0.310537	0.085534
H75	H	1.187551	-0.311343	-0.084366
H76	H	1.278388	-0.191111	0.083298
H77	H	1.277880	-0.191886	-0.086588
H78	H	1.068402	-0.183485	-0.085659
H79	H	1.068913	-0.182685	0.084243
H80	H	1.114535	-0.107746	-0.002073
H81	H	1.371804	-0.419852	0.221729
H82	H	1.595090	-0.332933	-0.221513
H83	H	1.638416	0.020930	0.361006
H84	H	1.328580	0.226250	0.639186
C85	C	1.305309	0.241705	0.340437
C86	C	1.230556	0.291280	0.440389
C87	C	1.145087	0.347973	0.363999
H88	H	1.252913	0.211255	0.280634
H89	H	1.350444	0.276996	0.280633
H90	H	1.185425	0.255994	0.500167
H91	H	1.282918	0.321748	0.500195
H92	H	1.190221	0.383264	0.304196
H93	H	1.092699	0.317517	0.304199
H94	H	1.094365	0.381622	0.431805
H95	H	1.129477	-0.012976	0.000108
H96	H	0.891824	-0.017184	0.000152
H97	H	1.075154	0.264375	0.000044
