data_functionalizedCrystal
_audit_creation_method	'MofGen! by Chris Wilmer'
_symmetry_space_group_name_H-M	'P1'
_symmetry_Int_Tables_number	1
_symmetry_cell_setting	triclinic
loop_
_symmetry_equiv_pos_as_xyz
  x,y,z
_cell_length_a	12.759401
_cell_length_b	12.594516
_cell_length_c	12.759393
_cell_angle_alpha	89.969150
_cell_angle_beta	89.981425
_cell_angle_gamma	90.012242
loop_
_atom_site_label
_atom_site_type_symbol
_atom_site_fract_x
_atom_site_fract_y
_atom_site_fract_z
Zn1	Zn	1.606276	-0.423667	-0.593990
Zn2	Zn	1.606179	-0.601686	-0.418313
Zn3	Zn	1.430578	-0.423723	-0.418329
Zn4	Zn	1.430575	-0.601605	-0.593954
O5	O	1.518402	-0.512670	-0.506147
O6	O	1.753284	-0.447292	-0.570695
O7	O	1.582846	-0.578137	-0.271294
O8	O	1.453926	-0.274770	-0.441653
O9	O	1.753213	-0.578082	-0.441625
O10	O	1.583011	-0.274728	-0.570711
O11	O	1.453833	-0.447388	-0.271306
O12	O	1.283557	-0.447309	-0.441618
O13	O	1.453922	-0.577943	-0.740980
O14	O	1.283555	-0.577998	-0.570649
O15	O	1.583008	-0.447213	-0.741007
O16	O	1.582844	-0.750621	-0.441590
O17	O	1.453828	-0.750561	-0.570633
C18	C	1.245435	-0.512652	-0.506132
C19	C	1.128658	-0.512670	-0.506150
C20	C	1.073834	-0.444690	-0.573460
C21	C	0.964110	-0.444701	-0.573467
C22	C	0.964044	-0.580680	-0.438851
C23	C	1.073766	-0.580663	-0.438840
C24	C	1.518354	-0.789211	-0.506128
C25	C	1.518429	-0.907517	-0.506156
C26	C	1.588682	-0.976764	-0.436044
C27	C	1.614357	-1.047455	-0.531937
C28	C	1.492885	-1.047624	-0.410324
C29	C	1.544153	-0.976650	-0.602098
C30	C	1.422636	-0.976813	-0.480421
C31	C	1.448275	-1.047472	-0.576380
C32	C	1.792435	-0.512689	-0.506162
C33	C	1.909212	-0.512698	-0.506169
C34	C	1.518476	-0.512563	-0.780180
C35	C	1.518507	-0.512517	-0.896957
C36	C	1.518480	-0.235049	-0.506188
C37	C	1.518513	-0.116744	-0.506206
C38	C	1.451354	-0.444424	-0.951825
C39	C	1.451378	-0.444391	-1.061549
C40	C	1.585718	-0.580547	-1.061528
C41	C	1.585687	-0.580585	-0.951805
C42	C	1.518390	-0.512701	-0.233179
C43	C	1.518562	-0.512447	-0.116403
H44	H	1.118524	-0.389323	-0.628266
H45	H	1.396694	-0.388944	-1.106217
H46	H	0.919477	-0.389344	-0.628276
H47	H	1.640415	-0.635965	-1.106199
N48	N	1.716026	-1.086396	-0.559269
N49	N	1.755820	-1.062361	-0.645615
H50	H	1.827629	-1.089861	-0.664902
N51	N	0.907987	-0.650135	-0.370091
N52	N	0.920201	-0.642957	-0.273157
H53	H	0.880613	-0.692013	-0.224593
H54	H	1.396651	-0.388998	-0.907170
N55	N	1.373792	-1.086197	-0.650862
N56	N	1.361244	-1.183916	-0.662483
H57	H	1.308641	-1.211267	-0.715086
N58	N	1.129791	-0.650108	-0.370094
N59	N	1.227756	-0.650079	-0.370096
H60	H	1.267327	-0.699120	-0.321545
N61	N	1.663228	-0.937822	-0.361734
N62	N	1.758107	-0.960469	-0.371478
H63	H	1.810758	-0.932966	-0.319001
H64	H	1.565713	-0.945607	-0.683232
N65	N	1.320993	-0.937861	-0.453037
N66	N	1.281928	-0.960594	-0.366018
H67	H	1.210141	-0.933084	-0.346666
H68	H	1.471245	-1.078799	-0.329260
N69	N	1.654286	-0.650159	-0.895768
N70	N	1.714267	-0.710924	-0.944749
H71	H	1.762710	-0.760062	-0.905174
