data_functionalizedCrystal
_audit_creation_method	'MofGen! by Chris Wilmer'
_symmetry_space_group_name_H-M	'P1'
_symmetry_Int_Tables_number	1
_symmetry_cell_setting	triclinic
loop_
_symmetry_equiv_pos_as_xyz
  x,y,z
_cell_length_a	16.109318
_cell_length_b	12.996460
_cell_length_c	16.109301
_cell_angle_alpha	89.998286
_cell_angle_beta	96.534978
_cell_angle_gamma	90.002628
loop_
_atom_site_label
_atom_site_type_symbol
_atom_site_fract_x
_atom_site_fract_y
_atom_site_fract_z
O1	O	1.103126	0.085485	-0.106930
O2	O	1.436459	0.418818	0.226403
O3	O	1.769792	0.752151	0.559737
O4	O	0.861066	0.085506	-0.120214
O5	O	1.194399	0.418839	0.213119
O6	O	1.527732	0.752172	0.546452
O7	O	0.988745	0.085484	0.007458
O8	O	1.322079	0.418817	0.340792
O9	O	1.655412	0.752151	0.674125
O10	O	0.975446	0.085506	-0.234603
O11	O	1.308779	0.418840	0.098731
O12	O	1.642113	0.752173	0.432064
O13	O	0.988729	-0.085650	0.007451
O14	O	1.322062	0.247684	0.340784
O15	O	1.655395	0.581017	0.674118
O16	O	0.861049	-0.085628	-0.120222
O17	O	1.194382	0.247705	0.213112
O18	O	1.527716	0.581039	0.546445
O19	O	1.103109	-0.085649	-0.106937
O20	O	1.436442	0.247684	0.226396
O21	O	1.769776	0.581017	0.559729
Cu22	Cu	0.982078	-0.101265	-0.113580
Cu23	Cu	1.315411	0.232069	0.219753
Cu24	Cu	1.648744	0.565402	0.553086
Cu25	Cu	0.982097	0.101121	-0.113572
Cu26	Cu	1.315430	0.434454	0.219762
Cu27	Cu	1.648764	0.767788	0.553095
O28	O	0.975430	-0.085628	-0.234610
O29	O	1.308763	0.247706	0.098723
O30	O	1.642096	0.581039	0.432056
C31	C	0.830083	-0.000059	-0.119677
C32	C	1.163416	0.333275	0.213656
C33	C	1.496749	0.666608	0.546989
C34	C	0.737788	-0.000051	-0.118057
C35	C	1.071122	0.333283	0.215277
C36	C	1.404455	0.666616	0.548610
C37	C	0.438723	0.093216	-0.112818
C38	C	0.772057	0.426549	0.220516
C39	C	1.105390	0.759882	0.553849
C40	C	0.525445	0.093222	-0.114335
C41	C	0.858778	0.426555	0.218998
C42	C	1.192111	0.759889	0.552332
C43	C	0.525446	-0.093357	-0.114332
C44	C	0.858779	0.239976	0.219002
C45	C	1.192112	0.573309	0.552335
C46	C	0.438727	-0.093363	-0.112808
C47	C	0.772060	0.239971	0.220525
C48	C	1.105393	0.573304	0.553858
C49	C	0.395367	-0.000073	-0.112056
C50	C	0.728701	0.333260	0.221278
C51	C	1.062034	0.666594	0.554611
C52	C	0.568807	-0.000061	-0.115096
C53	C	0.902141	0.333272	0.218237
C54	C	1.235474	0.666605	0.551570
C55	C	0.662835	-0.000055	-0.116742
C56	C	0.996168	0.333278	0.216592
C57	C	1.329501	0.666612	0.549925
C58	C	0.301334	-0.000079	-0.110409
C59	C	0.634668	0.333254	0.222925
C60	C	0.968001	0.666588	0.556258
N61	N	0.982070	-0.243612	-0.113586
N62	N	1.315403	0.089722	0.219747
N63	N	1.648737	0.423055	0.553081
C64	C	0.982074	-0.336718	-0.113588
C65	C	1.315407	-0.003384	0.219745
C66	C	1.648740	0.329949	0.553079
C67	C	0.982081	-0.453523	-0.113582
C68	C	1.315415	-0.120189	0.219751
C69	C	1.648748	0.213144	0.553084
C70	C	0.982092	-0.546621	-0.113573
C71	C	1.315425	-0.213288	0.219760
C72	C	1.648759	0.120046	0.553093
C73	C	0.982101	-0.663434	-0.113569
C74	C	1.315434	-0.330100	0.219765
C75	C	1.648767	0.003233	0.553098
C76	C	1.134092	-0.000083	-0.107474
C77	C	1.467425	0.333251	0.225859
C78	C	1.800759	0.666584	0.559192
C79	C	1.226387	-0.000084	-0.109095
C80	C	1.559720	0.333250	0.224238
C81	C	1.893053	0.666583	0.557571
C82	C	0.988198	-0.000083	0.038430
C83	C	1.321532	0.333250	0.371763
C84	C	1.654865	0.666583	0.705096
C85	C	0.986583	-0.000085	0.130725
C86	C	1.319916	0.333249	0.464058
C87	C	1.653250	0.666582	0.797392
N88	N	0.982111	0.243468	-0.113559
N89	N	1.315445	0.576801	0.219774
N90	N	1.648778	0.910135	0.553107
C91	C	0.975976	-0.000058	-0.265581
C92	C	1.309310	0.333275	0.067752
C93	C	1.642643	0.666609	0.401085
C94	C	0.977592	-0.000050	-0.357877
C95	C	1.310925	0.333283	-0.024543
C96	C	1.644258	0.666617	0.308790
C97	C	1.058590	-0.000075	0.352993
C98	C	1.391924	0.333259	0.686326
C99	C	1.725257	0.666592	1.019660
C100	C	1.057066	-0.000066	0.439713
C101	C	1.390400	0.333267	0.773047
C102	C	1.723733	0.666601	1.106380
C103	C	0.905579	-0.000057	0.419848
C104	C	1.238912	0.333277	0.753182
C105	C	1.572245	0.666610	1.086515
C106	C	0.907104	-0.000058	0.333130
C107	C	1.240437	0.333275	0.666463
C108	C	1.573770	0.666609	0.999796
C109	C	0.983612	-0.000072	0.299704
C110	C	1.316945	0.333261	0.633038
C111	C	1.650279	0.666594	0.966371
C112	C	0.980563	-0.000062	0.473144
C113	C	1.313896	0.333271	0.806477
C114	C	1.647230	0.666604	1.139810
C115	C	0.978910	-0.000053	0.567170
C116	C	1.312243	0.333280	0.900503
C117	C	1.645577	0.666614	1.233837
C118	C	0.985265	-0.000080	0.205672
C119	C	1.318599	0.333254	0.539006
C120	C	1.651932	0.666587	0.872339
H121	H	0.403423	0.169178	-0.112204
H122	H	0.736756	0.502511	0.221130
H123	H	1.070090	0.835845	0.554463
F124	F	1.140017	-0.000089	0.317422
F125	F	1.473350	0.333245	0.650756
F126	F	1.806684	0.666578	0.984089
F127	F	0.824158	-0.000041	0.455430
F128	F	1.157491	0.333292	0.788763
F129	F	1.490824	0.666625	1.122096
F130	F	1.136869	-0.000067	0.496424
F131	F	1.470202	0.333267	0.829757
F132	F	1.803535	0.666600	1.163090
F133	F	0.827297	-0.000048	0.276412
F134	F	1.160630	0.333285	0.609746
F135	F	1.493964	0.666619	0.943079
F136	F	0.571584	0.192513	-0.115143
F137	F	0.904917	0.525846	0.218190
F138	F	1.238251	0.859180	0.551524
H139	H	0.560759	-0.169310	-0.114946
H140	H	0.894092	0.164023	0.218387
H141	H	1.227426	0.497356	0.551720
H142	H	0.403425	-0.169334	-0.112187
H143	H	0.736759	0.163999	0.221146
H144	H	1.070092	0.497332	0.554480
