data_functionalizedCrystal
_audit_creation_method	'MofGen! by Chris Wilmer'
_symmetry_space_group_name_H-M	'P1'
_symmetry_Int_Tables_number	1
_symmetry_cell_setting	triclinic
loop_
_symmetry_equiv_pos_as_xyz
  x,y,z
_cell_length_a	14.519709
_cell_length_b	13.596369
_cell_length_c	14.971486
_cell_angle_alpha	90.006197
_cell_angle_beta	83.647137
_cell_angle_gamma	89.999709
loop_
_atom_site_label
_atom_site_type_symbol
_atom_site_fract_x
_atom_site_fract_y
_atom_site_fract_z
O1	O	1.223798	0.081664	0.117252
O2	O	1.557132	0.414997	0.450586
O3	O	1.890465	0.748330	0.783919
O4	O	0.955313	0.081694	0.131060
O5	O	1.288647	0.415027	0.464393
O6	O	1.621980	0.748361	0.797727
O7	O	1.096752	0.081671	-0.006040
O8	O	1.430085	0.415004	0.327293
O9	O	1.763419	0.748338	0.660627
O10	O	1.082360	0.081687	0.254352
O11	O	1.415693	0.415020	0.587685
O12	O	1.749026	0.748353	0.921019
O13	O	1.096738	-0.081912	-0.006047
O14	O	1.430071	0.251421	0.327286
O15	O	1.763404	0.584755	0.660619
O16	O	0.955299	-0.081889	0.131053
O17	O	1.288632	0.251444	0.464386
O18	O	1.621966	0.584778	0.797719
O19	O	1.223784	-0.081919	0.117245
O20	O	1.557118	0.251414	0.450578
O21	O	1.890451	0.584748	0.783912
Zn22	Zn	1.089539	-0.107876	0.124148
Zn23	Zn	1.422873	0.225457	0.457481
Zn24	Zn	1.756206	0.558790	0.790814
Zn25	Zn	1.089558	0.107651	0.124157
Zn26	Zn	1.422891	0.440985	0.457491
Zn27	Zn	1.756225	0.774318	0.790824
O28	O	1.082346	-0.081896	0.254345
O29	O	1.415679	0.251437	0.587678
O30	O	1.749012	0.584770	0.921012
C31	C	0.920947	-0.000094	0.130413
C32	C	1.254280	0.333240	0.463746
C33	C	1.587613	0.666573	0.797080
C34	C	0.818567	-0.000082	0.128485
C35	C	1.151900	0.333251	0.461818
C36	C	1.485233	0.666584	0.795151
N37	N	1.089533	-0.254968	0.124141
N38	N	1.422867	0.078365	0.457474
N39	N	1.756200	0.411698	0.790807
C40	C	0.443675	-0.000128	0.121386
C41	C	0.777008	0.333206	0.454719
C42	C	1.110342	0.666539	0.788052
C43	C	0.547982	-0.000115	0.123357
C44	C	0.881315	0.333219	0.456690
C45	C	1.214649	0.666552	0.790024
C46	C	0.631118	-0.000104	0.124935
C47	C	0.964451	0.333229	0.458268
C48	C	1.297784	0.666563	0.791601
C49	C	0.735431	-0.000093	0.126907
C50	C	1.068764	0.333240	0.460240
C51	C	1.402098	0.666574	0.793573
C52	C	1.089557	-0.656259	0.124158
C53	C	1.422890	-0.322926	0.457492
C54	C	1.756223	0.010408	0.790825
C55	C	1.089548	-0.544608	0.124156
C56	C	1.422881	-0.211274	0.457490
C57	C	1.756214	0.122059	0.790823
C58	C	1.089546	-0.455617	0.124150
C59	C	1.422879	-0.122284	0.457483
C60	C	1.756212	0.211049	0.790817
C61	C	1.089535	-0.343959	0.124147
C62	C	1.422869	-0.010625	0.457480
C63	C	1.756202	0.322708	0.790814
C64	C	1.258151	-0.000129	0.117892
C65	C	1.591484	0.333204	0.451225
C66	C	1.924817	0.666537	0.784559
C67	C	1.360531	-0.000134	0.119820
C68	C	1.693864	0.333199	0.453154
C69	C	2.027197	0.666533	0.786487
C70	C	1.096101	-0.000120	-0.039369
C71	C	1.429435	0.333213	0.293965
C72	C	1.762768	0.666547	0.627298
C73	C	1.094172	-0.000119	-0.138667
C74	C	1.427506	0.333214	0.194667
C75	C	1.760839	0.666548	0.528000
N76	N	1.089571	0.254743	0.124157
N77	N	1.422905	0.588076	0.457491
N78	N	1.756238	0.921410	0.790824
C79	C	1.177264	-0.000129	-0.195845
C80	C	1.510597	0.333204	0.137488
C81	C	1.843930	0.666538	0.470821
C82	C	1.175446	-0.000119	-0.289146
C83	C	1.508779	0.333214	0.044187
C84	C	1.842113	0.666548	0.377521
C85	C	1.090536	-0.000106	-0.325266
C86	C	1.423869	0.333228	0.008067
C87	C	1.757202	0.666561	0.341401
C88	C	1.007438	-0.000093	-0.268080
C89	C	1.340771	0.333241	0.065253
C90	C	1.674105	0.666574	0.398587
C91	C	1.009257	-0.000096	-0.174781
C92	C	1.342590	0.333237	0.158552
C93	C	1.675923	0.666571	0.491885
C94	C	1.003653	-0.000089	-0.462545
C95	C	1.336986	0.333245	-0.129211
C96	C	1.670320	0.666578	0.204122
C97	C	1.001834	-0.000088	-0.555850
C98	C	1.335167	0.333246	-0.222516
C99	C	1.668500	0.666579	0.110817
C100	C	1.169842	-0.000112	-0.576909
C101	C	1.503175	0.333222	-0.243576
C102	C	1.836509	0.666555	0.089758
C103	C	1.171661	-0.000115	-0.483610
C104	C	1.504994	0.333218	-0.150277
C105	C	1.838328	0.666552	0.183056
C106	C	1.088563	-0.000104	-0.426431
C107	C	1.421896	0.333230	-0.093098
C108	C	1.755229	0.666563	0.240236
C109	C	1.082996	-0.000103	0.287674
C110	C	1.416330	0.333230	0.621007
C111	C	1.749663	0.666564	0.954340
C112	C	1.084925	-0.000098	0.386972
C113	C	1.418258	0.333236	0.720305
C114	C	1.751592	0.666569	1.053638
H115	H	1.246407	-0.000146	-0.166444
H116	H	1.579741	0.333188	0.166889
H117	H	1.913074	0.666521	0.500222
H118	H	0.941595	-0.000087	-0.128227
H119	H	1.274928	0.333246	0.205107
H120	H	1.608262	0.666579	0.538440
F121	F	1.263883	-0.000131	-0.349996
F122	F	1.597217	0.333202	-0.016663
F123	F	1.930550	0.666535	0.316670
F124	F	1.262032	-0.000126	-0.445171
F125	F	1.595365	0.333207	-0.111838
F126	F	1.928698	0.666540	0.221496
H127	H	1.237504	-0.000118	-0.623470
H128	H	1.570837	0.333216	-0.290136
H129	H	1.904170	0.666549	0.043197
F130	F	0.911463	-0.000075	-0.594289
F131	F	1.244796	0.333259	-0.260956
F132	F	1.578130	0.666592	0.072377
H133	H	0.938303	-0.000076	-0.297496
H134	H	1.271636	0.333257	0.035837
H135	H	1.604969	0.666591	0.369171
H136	H	0.935985	-0.000077	-0.415991
H137	H	1.269319	0.333256	-0.082657
H138	H	1.602652	0.666590	0.250676
