data_functionalizedCrystal
_audit_creation_method	'MofGen! by Chris Wilmer'
_symmetry_space_group_name_H-M	'P1'
_symmetry_Int_Tables_number	1
_symmetry_cell_setting	triclinic
loop_
_symmetry_equiv_pos_as_xyz
  x,y,z
_cell_length_a	11.026607
_cell_length_b	10.654550
_cell_length_c	9.482900
_cell_angle_alpha	99.426343
_cell_angle_beta	78.636152
_cell_angle_gamma	96.535460
loop_
_atom_site_label
_atom_site_type_symbol
_atom_site_fract_x
_atom_site_fract_y
_atom_site_fract_z
O1	O	1.633381	0.511463	-0.120893
O2	O	1.279571	0.451467	-0.120895
O3	O	1.464610	0.300492	-0.120889
O4	O	1.448342	0.662438	-0.120899
O5	O	1.427025	0.331316	0.120903
O6	O	1.241986	0.482291	0.120896
O7	O	1.595797	0.542287	0.120898
Cu8	Cu	1.415460	0.515103	0.142975
Cu9	Cu	1.459908	0.478650	-0.142971
O10	O	1.410758	0.693262	0.120892
C11	C	1.215474	0.455811	0.000000
C12	C	1.080483	0.422816	-0.000001
C13	C	1.007444	0.513919	-0.000004
C14	C	0.867923	0.479820	-0.000005
C15	C	1.444623	0.268847	0.000005
C16	C	1.441050	0.128627	0.000000
C17	C	1.549998	0.072791	0.000005
C18	C	1.546634	-0.058961	-0.000005
C19	C	1.325364	-0.079031	-0.000019
C20	C	1.328730	0.052718	-0.000019
C21	C	1.662318	0.148701	0.000025
C22	C	1.771274	0.092866	0.000031
C23	C	1.767910	-0.038887	0.000021
C24	C	1.655590	-0.114805	0.000004
C25	C	1.659894	0.537943	-0.000000
C26	C	1.794887	0.570936	-0.000009
C27	C	1.430745	0.724907	-0.000005
C28	C	1.434319	0.865125	-0.000010
N29	N	1.384206	0.540743	0.344094
N30	N	1.491171	0.453003	-0.344091
C31	C	1.450681	0.486205	0.416295
C32	C	1.424686	0.507549	0.583712
H33	H	1.665069	0.255982	0.000038
H34	H	1.567327	0.390498	0.593788
H35	H	1.308046	0.603233	0.406221
N36	N	1.061417	0.650678	-0.000018
H37	H	1.019556	0.705434	0.089611
H38	H	1.153435	0.655541	-0.000073
N39	N	1.892411	0.174745	0.000052
H40	H	1.926253	0.167617	0.089686
H41	H	1.954042	0.144742	-0.089637
N42	N	0.813941	0.343059	0.000012
H43	H	0.775834	0.313872	-0.089618
H44	H	0.881906	0.287038	0.000072
N45	N	0.848851	0.707705	0.000001
H46	H	0.940870	0.712682	0.000004
H47	H	0.834767	0.739528	-0.089635
H48	H	1.039728	0.319570	-0.000035
N49	N	1.885421	-0.099115	0.000016
H50	H	1.957080	-0.031031	0.000029
H51	H	1.874904	-0.141920	0.089649
N52	N	1.651960	-0.256913	-0.000027
H53	H	1.738024	-0.280769	-0.000029
H54	H	1.593725	-0.281077	0.089604
H55	H	1.240015	0.098180	-0.000022
N56	N	1.204224	-0.160906	-0.000033
H57	H	1.218623	-0.252841	-0.000029
H58	H	1.142567	-0.130833	0.089601
H59	H	1.348521	0.570043	0.645833
N60	N	1.551530	0.403382	0.334018
H61	H	1.555791	0.399858	0.226083
H62	H	1.633882	0.440562	0.360506
