data_functionalizedCrystal
_audit_creation_method	'MofGen! by Chris Wilmer'
_symmetry_space_group_name_H-M	'P1'
_symmetry_Int_Tables_number	1
_symmetry_cell_setting	triclinic
loop_
_symmetry_equiv_pos_as_xyz
  x,y,z
_cell_length_a	15.944499
_cell_length_b	14.971506
_cell_length_c	13.448316
_cell_angle_alpha	89.992937
_cell_angle_beta	89.996642
_cell_angle_gamma	83.549999
loop_
_atom_site_label
_atom_site_type_symbol
_atom_site_fract_x
_atom_site_fract_y
_atom_site_fract_z
O1	O	0.109547	1.186796	-0.082691
O2	O	0.122638	0.926382	-0.082691
O3	O	-0.006178	1.063725	-0.082693
O4	O	0.238363	1.049454	-0.082690
O5	O	-0.006186	1.063707	0.082691
O6	O	0.122630	0.926365	0.082693
O7	O	0.109539	1.186779	0.082692
Cu8	Cu	0.116084	1.056570	0.097793
Cu9	Cu	0.116093	1.056591	-0.097792
O10	O	0.238355	1.049436	0.082694
C11	C	-0.037477	1.063132	-0.000004
C12	C	-0.130727	1.061380	-0.000011
C13	C	0.122045	0.893050	0.000001
C14	C	0.120282	0.793756	0.000001
C15	C	-0.422182	1.141173	-0.000006
C16	C	-0.361203	1.099686	0.081541
C17	C	-0.466371	1.055016	0.000001
C18	C	-0.361201	1.099680	-0.081515
C19	C	-0.301459	1.058148	-0.000007
C20	C	-0.406620	1.013506	0.081614
C21	C	-0.406624	1.013512	-0.081514
C22	C	-0.345663	0.971962	0.000052
C23	C	-0.561372	1.053215	0.000006
C24	C	-0.206458	1.059942	-0.000005
C25	C	0.189229	0.355385	-0.000009
C26	C	0.190879	0.448683	-0.000013
C27	C	0.115195	0.506000	-0.000009
C28	C	0.037855	0.470014	-0.000012
C29	C	0.036206	0.376718	-0.000015
C30	C	0.041299	0.664473	-0.000004
C31	C	0.042948	0.757776	0.000001
C32	C	0.195972	0.736439	-0.000002
C33	C	0.194323	0.643142	-0.000005
C34	C	0.116983	0.607163	-0.000005
C35	C	0.269654	1.050029	0.000003
C36	C	0.362904	1.051781	0.000004
C37	C	0.110131	1.220111	-0.000002
C38	C	0.111895	1.319405	-0.000008
N39	N	0.116077	1.056563	0.235358
N40	N	0.116094	1.056606	-0.235356
C41	C	0.059060	1.117397	0.287397
C42	C	0.059060	1.117402	0.391500
C43	C	0.116080	1.056577	0.443562
C44	C	0.173099	0.995737	0.391515
C45	C	0.173095	0.995727	0.287414
C46	C	0.173105	0.995761	0.608496
C47	C	0.173110	0.995771	0.712604
C48	C	0.059069	1.117436	0.712582
C49	C	0.059065	1.117427	0.608481
C50	C	0.116086	1.056587	0.556441
H51	H	-0.455439	1.212674	0.000072
C52	C	0.279924	0.775537	-0.000232
C53	C	0.285348	0.828453	-0.085342
C54	C	0.362675	0.864475	-0.085599
H55	H	0.283847	0.811549	0.057366
H56	H	0.324781	0.728057	-0.000290
H57	H	0.240504	0.875927	-0.085276
H58	H	0.281440	0.792461	-0.142954
H59	H	0.407532	0.816995	-0.085656
H60	H	0.366591	0.900483	-0.027998
H61	H	0.366369	0.900376	-0.143349
C62	C	-0.334188	1.148191	0.173428
C63	C	-0.246409	1.148483	0.172664
C64	C	-0.221495	1.193152	0.257297
H65	H	-0.360559	1.208325	0.173430
H66	H	-0.350449	1.118146	0.231358
H67	H	-0.230156	1.178530	0.114749
H68	H	-0.220016	1.088361	0.172676
H69	H	-0.237756	1.163106	0.315228
H70	H	-0.247872	1.253283	0.257292
H71	H	-0.161935	1.193348	0.256795
H72	H	-0.341081	1.136143	-0.150450
H73	H	-0.426642	0.977087	0.150628
C74	C	-0.039313	0.819859	-0.000065
C75	C	-0.107398	0.768384	-0.000107
C76	C	-0.183190	0.825543	-0.000187
H77	H	-0.041981	0.856714	0.057590
H78	H	-0.041881	0.856687	-0.057763
H79	H	-0.104832	0.731571	0.057585
H80	H	-0.104759	0.731531	-0.057758
H81	H	-0.185758	0.862372	-0.057886
H82	H	-0.185849	0.862396	0.057469
H83	H	-0.229395	0.790626	-0.000225
C84	C	0.234879	0.929605	0.551942
C85	C	0.190045	0.874840	0.492216
C86	C	0.246924	0.813884	0.440115
H87	H	0.269918	0.961664	0.511238
H88	H	0.268829	0.893331	0.597826
H89	H	0.156110	0.911109	0.446338
H90	H	0.155009	0.842761	0.532895
H91	H	0.280874	0.777610	0.485999
H92	H	0.281960	0.845951	0.399417
H93	H	0.216513	0.776713	0.399592
C94	C	-0.003085	1.183212	0.551963
C95	C	-0.054549	1.135402	0.492361
C96	C	-0.111897	1.195922	0.440334
H97	H	-0.037114	1.219357	0.597860
H98	H	0.026958	1.220544	0.511186
H99	H	-0.084589	1.098085	0.533134
H100	H	-0.020543	1.099260	0.446445
H101	H	-0.081855	1.233254	0.399557
H102	H	-0.145921	1.232063	0.486238
H103	H	-0.146817	1.163492	0.399881
C104	C	0.235136	0.929783	0.230962
C105	C	0.317706	0.944288	0.256248
C106	C	0.374880	0.883561	0.204255
H107	H	0.226031	0.870056	0.247997
H108	H	0.227024	0.938491	0.161498
H109	H	0.325816	0.935572	0.325696
H110	H	0.326839	1.004003	0.239210
H111	H	0.366767	0.892269	0.134791
H112	H	0.365766	0.823837	0.221294
H113	H	0.430909	0.893399	0.221397
H114	H	0.012632	1.166937	0.433871
C115	C	-0.002975	1.183450	0.768946
C116	C	-0.085545	1.168985	0.743614
C117	C	-0.142716	1.229791	0.795509
H118	H	0.005069	1.174812	0.838417
H119	H	0.006201	1.243154	0.751845
H120	H	-0.094718	1.109296	0.760721
H121	H	-0.093617	1.177631	0.674152
H122	H	-0.133540	1.289495	0.778408
H123	H	-0.134664	1.221147	0.864977
H124	H	-0.198746	1.219990	0.778321
H125	H	-0.312554	0.900399	0.000100
C126	C	-0.433659	0.964958	-0.173351
C127	C	-0.521261	0.963214	-0.171619
C128	C	-0.546196	0.918492	-0.256204
H129	H	-0.418371	0.995593	-0.231308
H130	H	-0.406447	0.905158	-0.173935
H131	H	-0.548463	1.023004	-0.171044
H132	H	-0.536571	0.932573	-0.113681
H133	H	-0.518984	0.858691	-0.256788
H134	H	-0.530902	0.949131	-0.314154
H135	H	-0.605634	0.917295	-0.255035
C136	C	0.271494	0.293309	-0.000064
C137	C	0.339572	0.344793	-0.000095
C138	C	0.415370	0.287641	-0.000164
H139	H	0.274154	0.256441	0.057591
H140	H	0.274076	0.256492	-0.057763
H141	H	0.336991	0.381594	0.057598
H142	H	0.336940	0.381658	-0.057746
H143	H	0.417952	0.250825	-0.057862
H144	H	0.418021	0.250777	0.057492
H145	H	0.461570	0.322565	-0.000193
H146	H	0.253852	0.477973	-0.000023
H147	H	0.255952	0.596476	-0.000001
H148	H	-0.021680	0.635182	-0.000009
H149	H	-0.023768	0.516689	-0.000015
H150	H	-0.026768	0.347425	-0.000016
H151	H	0.012631	1.166931	0.245015
H152	H	0.219541	0.946241	0.754988
H153	H	0.219523	0.946207	0.433910
