data_functionalizedCrystal
_audit_creation_method	'MofGen! by Chris Wilmer'
_symmetry_space_group_name_H-M	'P1'
_symmetry_Int_Tables_number	1
_symmetry_cell_setting	triclinic
loop_
_symmetry_equiv_pos_as_xyz
  x,y,z
_cell_length_a	27.732064
_cell_length_b	27.731996
_cell_length_c	11.295483
_cell_angle_alpha	94.054077
_cell_angle_beta	85.936193
_cell_angle_gamma	82.635407
loop_
_atom_site_label
_atom_site_type_symbol
_atom_site_fract_x
_atom_site_fract_y
_atom_site_fract_z
O1	O	0.644185	0.054284	-0.098826
O2	O	0.503393	0.063019	-0.098877
O3	O	0.578174	-0.011746	-0.098824
O4	O	0.569404	0.129049	-0.098879
O5	O	0.571606	-0.005189	0.099222
O6	O	0.496825	0.069576	0.099169
O7	O	0.637617	0.060840	0.099220
Cu8	Cu	0.566621	0.065807	0.117278
Cu9	Cu	0.574389	0.058053	-0.116935
O10	O	0.562836	0.135606	0.099167
C11	C	0.482103	0.066113	0.000140
C12	C	0.428449	0.065556	0.000122
C13	C	0.051382	0.017591	0.000208
C14	C	0.253043	0.019636	0.000176
O15	O	0.284301	-0.017584	0.000235
N16	N	0.272163	0.063971	0.000154
C17	C	0.240864	0.107797	0.000147
O18	O	0.261753	0.145554	0.000139
C19	C	0.039204	0.105752	0.000187
C20	C	0.020087	0.061414	0.000198
C21	C	0.032265	-0.026744	0.000220
C22	C	-0.018147	-0.027255	0.000221
C23	C	-0.049442	0.016569	0.000211
C24	C	-0.030325	0.060903	0.000199
C25	C	0.007905	0.149578	0.000189
C26	C	-0.042512	0.149063	0.000202
C27	C	-0.061629	0.104725	0.000213
C28	C	-0.112032	0.104215	0.000190
N29	N	-0.131152	0.059880	0.000213
C30	C	-0.099857	0.016057	0.000223
C31	C	0.346739	0.108868	0.000123
C32	C	0.397154	0.109379	0.000111
C33	C	0.409330	0.021218	0.000143
C34	C	0.358914	0.020707	0.000146
C35	C	0.327619	0.064533	0.000146
C36	C	-0.205726	0.014987	0.000225
C37	C	-0.256143	0.014480	0.000222
C38	C	-0.268314	0.102641	0.000196
C39	C	-0.217902	0.103149	0.000194
C40	C	-0.186609	0.059318	0.000212
O41	O	-0.143318	0.141416	0.000145
O42	O	-0.120757	-0.021693	0.000257
C43	C	0.101794	0.018102	0.000207
C44	C	0.120911	0.062436	0.000195
C45	C	0.089616	0.106259	0.000185
C46	C	0.171326	0.062947	0.000183
C47	C	0.202621	0.019124	0.000193
C48	C	0.183501	-0.025210	0.000215
C49	C	0.133089	-0.025722	0.000217
C50	C	0.108736	0.150594	0.000162
C51	C	0.159149	0.151101	0.000159
C52	C	0.190444	0.107278	0.000170
C53	C	0.574710	-0.026475	0.000203
C54	C	0.574167	-0.080131	0.000215
C55	C	0.574334	-0.416423	-0.107799
C56	C	0.572274	-0.618082	-0.107821
O57	O	0.575032	-0.647193	-0.199633
N58	N	0.568438	-0.639725	0.000133
C59	C	0.565113	-0.610950	0.108100
O60	O	0.561798	-0.633985	0.199921
C61	C	0.567170	-0.409291	0.108120
C62	C	0.571011	-0.387652	0.000159
C63	C	0.578175	-0.394783	-0.215751
C64	C	0.578692	-0.344372	-0.215745
C65	C	0.575370	-0.315600	-0.107786
C66	C	0.571529	-0.337240	0.000166
C67	C	0.563842	-0.380516	0.216086
C68	C	0.564355	-0.330099	0.216081
C69	C	0.568197	-0.308459	0.108120
C70	C	0.568724	-0.258058	0.108131
N71	N	0.572560	-0.236414	0.000177
C72	C	0.575883	-0.265186	-0.107782
C73	C	0.564035	-0.716824	0.108081
C74	C	0.563521	-0.767239	0.108077
C75	C	0.570681	-0.774367	-0.107845
C76	C	0.571198	-0.723952	-0.107839
C77	C	0.567871	-0.695181	0.000128
C78	C	0.576970	-0.159318	-0.107760
C79	C	0.577490	-0.108902	-0.107744
C80	C	0.570327	-0.101777	0.108177
C81	C	0.569810	-0.152189	0.108162
C82	C	0.573131	-0.180958	0.000184
O83	O	0.565963	-0.228917	0.199895
O84	O	0.579187	-0.242140	-0.199589
C85	C	0.573817	-0.466835	-0.107806
C86	C	0.569976	-0.488475	0.000146
C87	C	0.566653	-0.459703	0.108105
C88	C	0.569463	-0.538889	0.000141
C89	C	0.572786	-0.567661	-0.107817
C90	C	0.576622	-0.546017	-0.215771
C91	C	0.577139	-0.495606	-0.215764
C92	C	0.562817	-0.481346	0.216059
C93	C	0.562300	-0.531758	0.216043
C94	C	0.565623	-0.560530	0.108085
C95	C	0.658908	0.057747	0.000201
C96	C	0.712562	0.058303	0.000211
C97	C	0.566301	0.150334	0.000138
C98	C	0.566844	0.203990	0.000118
N99	N	0.561162	0.071260	0.282010
N100	N	0.579853	0.052595	-0.281667
C101	C	0.619155	0.013311	0.531341
C102	C	0.615033	0.017436	0.656002
C103	C	0.548792	0.083632	0.655995
C104	C	0.552915	0.079507	0.531334
C105	C	0.588098	0.044346	0.469012
C106	C	0.592222	0.040224	0.344349
C107	C	0.525980	0.106418	0.344344
C108	C	0.521857	0.110542	0.469005
H109	H	0.580619	-0.091286	-0.195662
N110	N	0.483909	0.148462	0.536227
H111	H	0.486009	0.146365	0.624657
H112	H	0.489953	0.181995	0.514427
H113	H	0.580879	-0.418204	-0.303669
N114	N	0.492482	0.139897	0.277119
H115	H	0.500433	0.131952	0.188689
H116	H	0.457513	0.135272	0.298913
N117	N	0.510841	0.121547	0.723224
H118	H	0.512942	0.119447	0.811653
H119	H	0.516880	0.155083	0.701435
H120	H	0.208991	-0.060893	0.000217
N121	N	0.630164	0.002303	0.277109
H122	H	0.663712	0.008347	0.298789
H123	H	0.624096	-0.031233	0.298837
N124	N	0.657105	-0.024605	0.464112
H125	H	0.676157	-0.043638	0.522515
H126	H	0.640476	-0.047561	0.412398
N127	N	0.648533	-0.016033	0.723231
H128	H	0.671448	-0.038931	0.664830
H129	H	0.668049	0.004042	0.774936
N130	N	0.580565	-0.190345	-0.224218
H131	H	0.583081	-0.168981	-0.292595
H132	H	0.610488	-0.215555	-0.228892
N133	N	0.066017	-0.074013	0.000218
H134	H	0.084780	-0.073344	0.073627
H135	H	0.046219	-0.102147	0.000182
N136	N	0.338297	-0.027114	0.000159
H137	H	0.365777	-0.054796	0.000161
H138	H	0.315219	-0.026820	0.073585
H139	H	0.560401	-0.784854	0.195989
H140	H	-0.271704	-0.021627	0.000227
H141	H	-0.180253	-0.020704	0.000240
H142	H	-0.033707	-0.063359	0.000235
N143	N	0.074973	0.197855	0.000155
H144	H	0.051357	0.202030	0.073575
H145	H	0.094761	0.225996	0.000100
H146	H	0.434819	-0.014465	0.000147
H147	H	0.412714	0.145483	0.000086
H148	H	0.174709	0.187209	0.000142
N149	N	0.575329	-0.700596	-0.224258
H150	H	0.606779	-0.715061	-0.271466
H151	H	0.546803	-0.706789	-0.271366
N152	N	0.312986	0.156144	0.000206
H153	H	0.332752	0.184304	0.000215
H154	H	0.294212	0.155450	-0.073180
N155	N	-0.076267	0.196335	0.000229
H156	H	-0.056503	0.224498	0.000229
H157	H	-0.095025	0.195624	-0.073180
N158	N	0.028520	0.197399	0.000194
H159	H	0.051594	0.197154	-0.073222
H160	H	0.001013	0.225055	0.000244
H161	H	-0.202337	0.139252	0.000184
H162	H	0.579330	-0.569452	-0.303675
N163	N	-0.302073	0.149906	0.000180
H164	H	-0.336910	0.142851	0.000188
H165	H	-0.298350	0.171672	0.073595
H166	H	0.117530	-0.061826	0.000226
N167	N	0.560454	-0.685796	0.224537
H168	H	0.530532	-0.660577	0.229358
H169	H	0.557969	-0.707196	0.292847
H170	H	0.560715	-0.398126	0.303999
N171	N	0.582833	-0.321035	-0.332189
H172	H	0.584858	-0.346917	-0.400571
H173	H	0.553225	-0.296131	-0.336905
N174	N	0.574266	-0.805404	-0.224288
H175	H	0.573357	-0.840624	-0.207899
H176	H	0.545940	-0.794008	-0.271437
H177	H	0.561639	-0.306674	0.304003
H178	H	0.566687	-0.169810	0.196072
H179	H	0.567624	-0.078343	0.196074
H180	H	0.580267	-0.477992	-0.303677
N181	N	0.558161	-0.555092	0.332499
H182	H	0.526708	-0.540612	0.379677
H183	H	0.558358	-0.591393	0.316031
N184	N	0.559235	-0.450318	0.332506
H185	H	0.556727	-0.471683	0.400884
H186	H	0.589272	-0.433393	0.337221
