data_functionalizedCrystal
_audit_creation_method	'MofGen! by Chris Wilmer'
_symmetry_space_group_name_H-M	'P1'
_symmetry_Int_Tables_number	1
_symmetry_cell_setting	triclinic
loop_
_symmetry_equiv_pos_as_xyz
  x,y,z
_cell_length_a	12.759395
_cell_length_b	18.101395
_cell_length_c	12.759387
_cell_angle_alpha	89.967189
_cell_angle_beta	89.980569
_cell_angle_gamma	90.030949
loop_
_atom_site_label
_atom_site_type_symbol
_atom_site_fract_x
_atom_site_fract_y
_atom_site_fract_z
Zn1	Zn	1.606149	-0.294794	-0.593960
Zn2	Zn	1.605989	-0.418654	-0.418274
Zn3	Zn	1.430447	-0.294830	-0.418300
Zn4	Zn	1.430389	-0.418598	-0.593917
O5	O	1.518244	-0.356719	-0.506113
O6	O	1.753149	-0.311232	-0.570662
O7	O	1.582661	-0.402267	-0.271257
O8	O	1.453845	-0.191193	-0.441631
O9	O	1.753031	-0.402232	-0.441587
O10	O	1.582933	-0.191166	-0.570687
O11	O	1.453691	-0.311295	-0.271276
O12	O	1.283418	-0.311240	-0.441589
O13	O	1.453747	-0.402136	-0.740944
O14	O	1.283376	-0.402171	-0.570614
O15	O	1.582877	-0.311178	-0.740976
O16	O	1.582604	-0.522279	-0.441545
O17	O	1.453592	-0.522238	-0.570588
C18	C	1.245276	-0.356704	-0.506100
C19	C	1.128499	-0.356716	-0.506119
C20	C	1.128602	-0.262111	-0.640743
C21	C	1.073793	-0.214818	-0.708063
C22	C	0.964071	-0.214831	-0.708076
C23	C	0.909156	-0.262141	-0.640760
C24	C	0.963966	-0.309434	-0.573439
C25	C	1.073690	-0.309417	-0.573436
C26	C	0.963863	-0.404034	-0.438812
C27	C	1.073585	-0.404026	-0.438803
C28	C	0.908948	-0.451344	-0.371496
C29	C	0.963758	-0.498642	-0.304179
C30	C	1.073486	-0.498628	-0.304170
C31	C	1.128394	-0.451319	-0.371483
C32	C	1.518103	-0.549129	-0.506082
C33	C	1.518139	-0.631444	-0.506104
C34	C	1.518370	-0.930534	-0.506161
C35	C	1.437387	-0.899214	-0.587553
C36	C	1.437002	-0.813596	-0.587298
C37	C	1.518255	-0.782152	-0.506133
C38	C	1.488272	-0.813311	-0.395409
C39	C	1.487750	-0.898956	-0.395896
C40	C	1.629513	-0.898876	-0.534518
C41	C	1.628859	-0.813225	-0.536947
C42	C	1.518192	-0.698292	-0.506111
C43	C	1.518430	-1.014394	-0.506175
C44	C	1.792277	-0.356734	-0.506127
C45	C	1.909054	-0.356741	-0.506132
C46	C	1.518323	-0.356646	-0.780147
C47	C	1.518357	-0.356615	-0.896923
C48	C	1.518413	-0.163557	-0.506167
C49	C	1.518486	-0.081243	-0.506190
C50	C	1.652829	-0.261907	-0.896976
C51	C	1.720080	-0.214541	-0.951864
C52	C	1.720105	-0.214514	-1.061585
C53	C	1.652871	-0.261856	-1.116422
C54	C	1.585620	-0.309222	-1.061535
C55	C	1.585604	-0.309245	-0.951811
C56	C	1.451144	-0.403925	-1.061482
C57	C	1.451122	-0.403957	-0.951760
C58	C	1.383909	-0.451267	-1.116319
C59	C	1.316662	-0.498637	-1.061432
C60	C	1.316641	-0.498663	-0.951703
C61	C	1.383871	-0.451323	-0.896873
C62	C	1.518225	-0.356738	-0.233145
C63	C	1.518395	-0.356560	-0.116369
H64	H	0.919038	-0.537155	-0.249371
Cl65	Cl	0.771012	-0.451358	-0.371508
Cl66	Cl	1.142833	-0.155345	-0.792684
Cl67	Cl	1.266331	-0.451300	-0.371480
H68	H	1.383865	-0.451342	-0.807532
Cl69	Cl	1.652817	-0.261948	-0.759039
Cl70	Cl	1.576470	-0.781870	-0.299222
Cl71	Cl	1.142380	-0.558083	-0.219529
H72	H	1.455761	-0.792526	-0.669400
Cl73	Cl	1.266539	-0.262100	-0.640745
H74	H	1.656847	-0.920419	-0.613883
Cl75	Cl	1.466054	-0.930932	-0.714726
H76	H	0.919446	-0.176316	-0.762888
Cl77	Cl	1.804573	-0.155011	-0.882921
H78	H	1.261920	-0.537175	-1.106088
H79	H	1.651469	-0.792857	-0.618434
H80	H	1.383931	-0.451239	-1.205660
H81	H	0.819815	-0.262141	-0.640768
Cl82	Cl	1.362314	-0.929906	-0.358808
Cl83	Cl	1.574852	-0.930952	-0.299067
Cl84	Cl	1.232086	-0.558208	-0.882711
Cl85	Cl	1.804633	-0.154958	-1.130589
H86	H	1.355506	-0.920802	-0.569006
H87	H	1.354620	-0.793174	-0.568515
H88	H	1.407887	-0.791927	-0.370955
H89	H	1.689848	-0.919130	-0.475237
Cl90	Cl	1.726950	-0.780168	-0.452097
Cl91	Cl	1.652895	-0.261814	-1.254359
