data_functionalizedCrystal
_audit_creation_method	'MofGen! by Chris Wilmer'
_symmetry_space_group_name_H-M	'P1'
_symmetry_Int_Tables_number	1
_symmetry_cell_setting	triclinic
loop_
_symmetry_equiv_pos_as_xyz
  x,y,z
_cell_length_a	13.897449
_cell_length_b	13.897447
_cell_length_c	12.759393
_cell_angle_alpha	90.028201
_cell_angle_beta	89.975751
_cell_angle_gamma	89.977978
loop_
_atom_site_label
_atom_site_type_symbol
_atom_site_fract_x
_atom_site_fract_y
_atom_site_fract_z
Zn1	Zn	1.474687	0.383947	-0.594130
Zn2	Zn	1.474569	0.545273	-0.418457
Zn3	Zn	1.313374	0.383996	-0.418455
Zn4	Zn	1.313348	0.545204	-0.594084
O5	O	1.393995	0.464605	-0.506281
O6	O	1.609653	0.405356	-0.570846
O7	O	1.453147	0.523929	-0.271435
O8	O	1.334833	0.249008	-0.441777
O9	O	1.609566	0.523881	-0.441780
O10	O	1.453349	0.248972	-0.570844
O11	O	1.334718	0.405440	-0.271434
O12	O	1.178389	0.405372	-0.441732
O13	O	1.334789	0.523763	-0.741111
O14	O	1.178370	0.523811	-0.570766
O15	O	1.453324	0.405288	-0.741145
O16	O	1.453123	0.680246	-0.441736
O17	O	1.334674	0.680195	-0.570768
C18	C	1.143380	0.464590	-0.506245
C19	C	1.036166	0.464607	-0.506254
C20	C	1.393909	0.715219	-0.506270
C21	C	1.393961	0.822433	-0.506301
C22	C	0.949097	0.464610	-0.506271
C23	C	0.839864	0.464617	-0.506303
C24	C	1.394005	0.909503	-0.506329
C25	C	1.394069	1.018736	-0.506362
C26	C	1.645588	0.464621	-0.506319
C27	C	1.752802	0.464627	-0.506335
C28	C	1.394067	0.464512	-0.780315
C29	C	1.394098	0.464473	-0.897091
C30	C	1.394100	1.213012	-0.506329
C31	C	1.394126	1.105798	-0.506383
C32	C	1.455823	0.402773	-0.951973
C33	C	1.455840	0.402732	-1.061697
C34	C	1.332402	0.526098	-1.061649
C35	C	1.332381	0.526134	-0.951927
C36	C	1.393978	0.464628	-0.233314
C37	C	1.394134	0.464395	-0.116538
H38	H	1.506074	0.352562	-0.907329
H39	H	1.506102	0.352488	-1.106376
H40	H	1.282110	0.576376	-0.907241
H41	H	1.282157	0.576302	-1.106309
