data_functionalizedCrystal
_audit_creation_method	'MofGen! by Chris Wilmer'
_symmetry_space_group_name_H-M	'P1'
_symmetry_Int_Tables_number	1
_symmetry_cell_setting	triclinic
loop_
_symmetry_equiv_pos_as_xyz
  x,y,z
_cell_length_a	12.811438
_cell_length_b	16.992695
_cell_length_c	15.455313
_cell_angle_alpha	87.152573
_cell_angle_beta	81.881682
_cell_angle_gamma	92.659304
loop_
_atom_site_label
_atom_site_type_symbol
_atom_site_fract_x
_atom_site_fract_y
_atom_site_fract_z
O1	O	1.412499	-0.096967	-0.183233
O2	O	1.106437	-0.109593	-0.159162
O3	O	1.258241	0.010862	-0.171094
O4	O	1.260695	-0.217422	-0.171301
O5	O	1.249557	0.004002	-0.026149
O6	O	1.097754	-0.116453	-0.014217
O7	O	1.403815	-0.103827	-0.038289
Cu8	Cu	1.249992	-0.110766	-0.013018
Cu9	Cu	1.260261	-0.102654	-0.184432
O10	O	1.252012	-0.224281	-0.026356
C11	C	1.062752	-0.112526	-0.083595
C12	C	0.945521	-0.111035	-0.074374
N13	N	1.242777	-0.116471	0.107544
C14	C	1.250742	0.036643	-0.098374
C15	C	1.241324	0.123683	-0.097633
C16	C	0.775556	-0.112672	0.017626
C17	C	0.885705	-0.114074	0.008966
C18	C	0.895180	-0.106595	-0.149061
C19	C	0.785031	-0.105194	-0.140402
C20	C	0.725223	-0.108231	-0.057055
C21	C	0.615073	-0.106824	-0.048397
C22	C	0.624549	-0.099351	-0.206423
C23	C	0.734698	-0.100753	-0.215083
C24	C	1.447500	-0.100894	-0.113857
C25	C	1.564732	-0.102385	-0.123083
C26	C	1.259511	-0.250062	-0.099079
C27	C	1.268930	-0.337102	-0.099825
C28	C	1.332201	0.173966	-0.104780
C29	C	1.323345	0.255749	-0.104091
C30	C	1.223611	0.287246	-0.096250
C31	C	1.132727	0.236956	-0.089106
C32	C	1.141584	0.155176	-0.089800
C33	C	1.186902	0.530827	-0.093375
C34	C	1.178052	0.612614	-0.092678
C35	C	1.368672	0.631402	-0.107666
C36	C	1.377520	0.549618	-0.108354
C37	C	1.286636	0.499336	-0.101214
N38	N	1.214557	0.370841	-0.095544
N39	N	1.295692	0.415743	-0.101927
N40	N	1.267484	-0.096942	-0.304995
C41	C	1.307294	-0.065317	0.147867
C42	C	1.301848	-0.069639	0.239103
C43	C	1.231890	-0.125120	0.290014
C44	C	1.167366	-0.176277	0.249686
C45	C	1.172807	-0.171950	0.158452
C46	C	1.208401	-0.143773	0.563442
C47	C	1.202967	-0.148097	0.654682
C48	C	1.337448	-0.041457	0.644093
C49	C	1.342888	-0.037139	0.552858
C50	C	1.278360	-0.088293	0.512537
N51	N	1.226324	-0.129540	0.383272
N52	N	1.283921	-0.083868	0.419281
H53	H	0.566378	-0.109302	0.019468
H54	H	1.364266	-0.020142	0.106420
H55	H	0.726859	-0.115150	0.085489
Cl56	Cl	1.079411	-0.246022	0.313687
Cl57	Cl	1.052662	0.652209	-0.082815
H58	H	1.399853	0.008038	0.511407
Cl59	Cl	0.561265	-0.093794	-0.300314
Cl60	Cl	1.418560	0.022850	0.694786
H61	H	1.413415	0.148328	-0.111159
Cl62	Cl	1.482918	0.694618	-0.116644
H63	H	0.943895	-0.104130	-0.216917
H64	H	0.783409	-0.098283	-0.282941
Cl65	Cl	1.437598	0.318960	-0.113073
H66	H	1.458734	0.523980	-0.114739
Cl67	Cl	1.115012	-0.217852	0.718679
H68	H	1.155862	-0.185426	0.530620
Cl69	Cl	0.948977	-0.119660	0.102855
H70	H	1.112898	0.489896	-0.087561
Cl71	Cl	1.007346	0.276554	-0.079259
H72	H	1.067581	0.114235	-0.083981
H73	H	1.120269	-0.213605	0.125622
H74	H	1.354382	-0.027984	0.271933
