data_functionalizedCrystal
_audit_creation_method	'MofGen! by Chris Wilmer'
_symmetry_space_group_name_H-M	'P1'
_symmetry_Int_Tables_number	1
_symmetry_cell_setting	triclinic
loop_
_symmetry_equiv_pos_as_xyz
  x,y,z
_cell_length_a	17.917603
_cell_length_b	21.606444
_cell_length_c	21.606444
_cell_angle_alpha	60.000398
_cell_angle_beta	89.999091
_cell_angle_gamma	57.010312
loop_
_atom_site_label
_atom_site_type_symbol
_atom_site_fract_x
_atom_site_fract_y
_atom_site_fract_z
Zr1	Zr	0.754898	0.620470	-0.052710
O2	O	0.629773	0.759035	-0.156254
O3	O	0.793257	0.488455	-0.020971
O4	O	0.793257	0.617577	-0.150088
O5	O	0.629773	0.629911	0.074717
O6	O	0.922214	0.607843	-0.145221
O7	O	0.629774	0.629913	-0.027136
O8	O	0.922215	0.376868	0.085746
O9	O	0.629772	0.860886	-0.156250
O10	O	0.905855	0.533064	-0.003799
O11	O	0.809615	0.540327	0.068581
O12	O	0.809614	0.692351	-0.083438
O13	O	0.713374	0.699613	-0.011058
Zr14	Zr	0.960569	0.604942	0.117497
Zr15	Zr	0.960570	0.604946	-0.044947
Zr16	Zr	0.754897	0.620466	0.109734
Zr17	Zr	0.754896	0.782910	-0.052704
Zr18	Zr	0.960571	0.442501	0.117491
O19	O	0.922210	0.736956	0.085758
O20	O	0.922212	0.736962	-0.145217
O21	O	0.629771	0.759029	0.074721
O22	O	1.085695	0.466377	0.221041
O23	O	1.085696	0.466382	-0.009934
O24	O	0.793255	0.488450	0.210004
O25	O	1.085695	0.595500	-0.009930
O26	O	0.922211	0.607835	0.214875
O27	O	0.793254	0.617568	0.210008
O28	O	1.085694	0.595498	0.091923
O29	O	0.793253	0.848546	-0.150080
O30	O	0.922214	0.376865	0.214867
O31	O	1.085696	0.364526	0.221037
O32	O	1.085697	0.364529	0.091916
O33	O	0.629771	0.860883	-0.027129
O34	O	0.793252	0.848543	-0.020959
O35	O	0.905854	0.533061	0.148225
O36	O	1.002094	0.525798	0.075845
O37	O	0.905853	0.685085	-0.003794
O38	O	0.809613	0.692347	0.068586
C39	C	0.857736	0.409517	0.032387
C40	C	0.857737	0.340557	0.032385
C41	C	0.907972	0.304369	-0.005398
C42	C	0.907975	0.239569	-0.005393
C43	C	0.857738	0.210963	0.032391
C44	C	0.807502	0.247154	0.070179
C45	C	0.807505	0.311948	0.070177
C46	C	0.807491	-0.014154	0.070184
C47	C	0.807490	-0.078951	0.070181
C48	C	0.907961	-0.086534	-0.005386
C49	C	0.907964	-0.021740	-0.005387
C50	C	0.857733	0.014442	0.032404
C51	C	0.857731	0.084705	0.032399
C52	C	0.857733	0.140706	0.032392
C53	C	0.600469	0.632124	0.022684
C54	C	0.513156	0.638714	0.019389
C55	C	0.353312	0.650753	0.013371
C56	C	0.362148	0.574663	0.051414
C57	C	0.273206	0.581361	0.048066
C58	C	0.442261	0.644056	0.016718
C59	C	1.114998	0.593287	0.042103
C60	C	1.202311	0.586697	0.045398
C61	C	0.857735	0.612710	-0.170799
C62	C	0.857736	0.612712	-0.239761
C63	C	0.857731	0.815894	0.032400
C64	C	0.857730	0.884854	0.032402
C65	C	0.928779	0.607351	-0.269478
C66	C	0.928782	0.607345	-0.334271
C67	C	0.857737	0.612706	-0.369349
C68	C	0.786690	0.618064	-0.339626
C69	C	0.786692	0.618064	-0.274831
C70	C	0.786682	0.618064	-0.600937
C71	C	0.786683	0.618067	-0.665737
C72	C	0.928772	0.607345	-0.660376
C73	C	0.928774	0.607345	-0.595581
C74	C	0.857730	0.612698	-0.565862
C75	C	0.857729	0.612703	-0.495605
C76	C	0.857733	0.612707	-0.439608
C77	C	0.857732	0.612701	0.235586
C78	C	0.857732	0.612699	0.304548
C79	C	1.115001	0.390099	0.042096
C80	C	1.202315	0.314549	0.045389
C81	C	0.857735	0.409513	0.235580
C82	C	0.857735	0.340551	0.304539
C83	C	1.114999	0.390094	0.245289
C84	C	1.202313	0.314542	0.317544
C85	C	0.600468	0.835317	-0.180502
C86	C	0.513155	0.910869	-0.252757
C87	C	0.600467	0.835312	0.022691
C88	C	0.513153	0.910863	0.019398
C89	C	0.857733	0.815899	-0.170793
C90	C	0.857732	0.884860	-0.239752
C91	C	1.193083	0.282862	0.005356
C92	C	1.275116	0.211884	0.008434
C93	C	1.366380	0.172589	0.051552
C94	C	1.375610	0.204282	0.091586
C95	C	1.293578	0.275263	0.088503
C96	C	0.907971	0.304373	0.378503
C97	C	0.907968	0.239585	0.443304
C98	C	0.857734	0.210972	0.434139
C99	C	0.807492	0.247157	0.360167
C100	C	0.807490	0.311948	0.295368
C101	C	1.293561	0.275271	0.313694
C102	C	1.375609	0.204290	0.381579
C103	C	1.366407	0.172577	0.453313
C104	C	1.275149	0.211856	0.457161
C105	C	1.193103	0.282840	0.389276
C106	C	0.421907	0.950149	-0.248907
C107	C	0.339858	1.021150	-0.316792
C108	C	0.349060	1.052866	-0.388526
C109	C	0.440318	1.013583	-0.392374
C110	C	0.522364	0.942587	-0.324490
C111	C	0.522385	0.942556	0.059424
C112	C	0.440352	1.013552	0.056328
C113	C	0.349088	1.052850	0.013208
C114	C	0.339858	1.021153	-0.026823
C115	C	0.421890	0.950163	-0.023731
C116	C	0.907976	0.913453	-0.230563
C117	C	0.907994	0.978239	-0.295351
C118	C	0.857763	1.014438	-0.369327
C119	C	0.807517	0.985840	-0.378516
C120	C	0.807505	0.921049	-0.313728
H121	H	0.766579	-0.102241	0.100951
H122	H	0.265539	1.053160	-0.061931
C123	C	0.411761	0.915281	-0.170007
N124	N	0.404111	0.889028	-0.110581
C125	C	0.708547	0.623949	-0.378208
N126	N	0.649688	0.628380	-0.407267
H127	H	0.948884	0.210131	0.503529
C128	C	1.006930	0.601444	-0.693068
N129	N	1.065796	0.597000	-0.717690
C130	C	1.092732	0.326030	0.393524
N131	N	1.017133	0.358558	0.396729
H132	H	0.766587	0.897777	-0.321221
C133	C	0.963245	0.873640	-0.149193
N134	N	1.004882	0.843653	-0.087907
H135	H	0.857743	0.158214	0.486910
H136	H	1.301072	0.301080	0.255291
C137	C	1.475984	0.161088	0.377329
N138	N	1.551583	0.128548	0.374126
C139	C	0.708530	0.623956	-0.704318
N140	N	0.649668	0.628390	-0.733376
H141	H	0.948878	0.327662	0.385980
H142	H	0.414359	0.924361	-0.056324
C143	C	0.462608	0.479861	0.098807
N144	N	0.538277	0.408459	0.134498
C145	C	0.239484	1.064347	-0.312543
N146	N	0.163884	1.096881	-0.309339
H147	H	0.282245	1.110675	-0.443796
H148	H	0.278954	0.720920	-0.021711
H149	H	0.766594	0.015294	0.100959
C150	C	0.258859	1.130937	0.009818
N151	N	0.190901	1.189750	0.007270
C152	C	0.450425	1.048473	-0.471289
N153	N	0.458034	1.074748	-0.530730
C154	C	0.622736	0.899377	-0.328737
N155	N	0.698335	0.866832	-0.331942
H156	H	1.267582	0.186088	-0.024167
H157	H	0.766585	0.341396	0.235145
C158	C	1.006956	0.601415	-0.366940
N159	N	1.065847	0.596935	-0.391540
C160	C	0.622768	0.899346	0.106858
N161	N	0.698375	0.866809	0.142583
H162	H	0.948909	1.001517	-0.287854
C163	C	0.752243	0.215667	0.350099
N164	N	0.710635	0.191942	0.342518
C165	C	0.752241	0.215685	0.111741
N166	N	0.710613	0.191987	0.143044
H167	H	0.948880	0.210104	-0.036157
C168	C	0.752306	1.025634	-0.459896
N169	N	0.710731	1.055599	-0.521193
C170	C	1.456670	0.094485	0.527981
N171	N	1.524660	0.035663	0.584219
H172	H	0.447886	1.039347	0.088930
H173	H	0.948875	0.327659	-0.036170
H174	H	1.118778	0.314855	-0.029764
H175	H	0.986623	0.602984	-0.567025
H176	H	0.728834	0.622426	-0.576745
H177	H	1.267671	0.186025	0.515576
H178	H	0.857780	1.067195	-0.422075
H179	H	0.986629	0.602992	-0.240924
H180	H	1.433168	0.114791	0.054057
C181	C	0.752243	0.351756	0.111741
N182	N	0.710621	0.381736	0.143050
C183	C	0.963230	0.009721	-0.046950
N184	N	1.004861	0.033413	-0.078253
H185	H	0.948866	-0.116003	-0.036154
H186	H	1.449928	0.172278	0.126691
C187	C	0.708532	0.623972	-0.242148
N188	N	0.649659	0.628423	-0.217533
C189	C	1.303750	0.310102	0.132555
N190	N	1.311418	0.336337	0.165739
