data_functionalizedCrystal
_audit_creation_method	'MofGen! by Chris Wilmer'
_symmetry_space_group_name_H-M	'P1'
_symmetry_Int_Tables_number	1
_symmetry_cell_setting	triclinic
loop_
_symmetry_equiv_pos_as_xyz
  x,y,z
_cell_length_a	19.288840
_cell_length_b	11.792241
_cell_length_c	18.366186
_cell_angle_alpha	89.993644
_cell_angle_beta	89.983729
_cell_angle_gamma	83.659716
loop_
_atom_site_label
_atom_site_type_symbol
_atom_site_fract_x
_atom_site_fract_y
_atom_site_fract_z
O1	O	0.922167	0.141447	-0.060672
O2	O	1.422167	0.641447	0.439328
O3	O	0.720013	0.160576	-0.060646
O4	O	1.220013	0.660576	0.439354
O5	O	0.825996	-0.014235	-0.060655
O6	O	1.325996	0.485765	0.439345
O7	O	0.816184	0.316257	-0.060664
O8	O	1.316184	0.816257	0.439336
O9	O	0.825978	-0.014243	0.060445
O10	O	1.325978	0.485757	0.560445
O11	O	0.719995	0.160567	0.060453
O12	O	1.219995	0.660567	0.560453
O13	O	0.922149	0.141438	0.060428
O14	O	1.422149	0.641438	0.560428
Zn15	Zn	0.821069	0.151001	0.079667
Zn16	Zn	1.321069	0.651001	0.579667
Zn17	Zn	0.821093	0.151012	-0.079886
Zn18	Zn	1.321093	0.651012	0.420114
O19	O	0.816166	0.316248	0.060436
O20	O	1.316166	0.816248	0.560436
C21	C	0.694124	0.159961	-0.000094
C22	C	1.194124	0.659961	0.499906
C23	C	0.617009	0.158127	-0.000084
C24	C	1.117009	0.658127	0.499916
C25	C	0.580810	0.157251	-0.066097
C26	C	1.080810	0.657251	0.433903
C27	C	0.508353	0.155516	-0.066106
C28	C	1.008353	0.655516	0.433894
C29	C	0.472100	0.154634	-0.000098
C30	C	0.972100	0.654634	0.499902
C31	C	0.508307	0.155516	0.065924
C32	C	1.008307	0.655516	0.565924
C33	C	0.580761	0.157263	0.065931
C34	C	1.080761	0.657263	0.565931
C35	C	0.362371	0.085386	0.050465
C36	C	0.862371	0.585386	0.550465
C37	C	0.289918	0.083632	0.050456
C38	C	0.789918	0.583632	0.550456
C39	C	0.248625	0.149251	-0.000117
C40	C	0.748625	0.649251	0.499883
C41	C	0.279795	0.216610	-0.050691
C42	C	0.779795	0.716610	0.449309
C43	C	0.352250	0.218356	-0.050684
C44	C	0.852250	0.718356	0.449316
C45	C	0.393535	0.152740	-0.000098
C46	C	0.893535	0.652740	0.499902
C47	C	0.133861	0.146495	-0.066144
C48	C	0.633861	0.646495	0.433856
C49	C	0.061402	0.144767	-0.066150
C50	C	0.561402	0.644767	0.433850
C51	C	0.061358	0.144756	0.065882
C52	C	0.561358	0.644756	0.565882
C53	C	0.133814	0.146496	0.065886
C54	C	0.633814	0.646496	0.565886
C55	C	0.170062	0.147360	-0.000129
C56	C	0.670062	0.647360	0.499871
C57	C	0.825370	-0.056520	-0.000105
C58	C	1.325370	0.443480	0.499895
C59	C	0.823526	-0.182506	-0.000106
C60	C	1.323526	0.317494	0.499894
C61	C	0.820134	-0.413166	-0.000117
C62	C	1.320134	0.086834	0.499883
C63	C	0.822018	-0.284810	-0.000111
C64	C	1.322018	0.215190	0.499889
C65	C	0.948038	0.142053	-0.000127
C66	C	1.448038	0.642053	0.499873
C67	C	1.025153	0.143887	-0.000141
C68	C	1.525153	0.643887	0.499859
C69	C	0.816792	0.358534	-0.000115
C70	C	1.316792	0.858534	0.499885
C71	C	0.818636	0.484519	-0.000120
C72	C	1.318636	0.984519	0.499880
N73	N	0.821058	0.150993	0.188559
N74	N	1.321058	0.650993	0.688559
N75	N	0.821110	0.151012	-0.188777
N76	N	1.321110	0.651012	0.311223
C77	C	0.868003	0.073625	0.226655
C78	C	1.368003	0.573625	0.726655
C79	C	0.868007	0.073620	0.302883
C80	C	1.368007	0.573620	0.802883
C81	C	0.821073	0.151002	0.341011
C82	C	1.321073	0.651002	0.841011
C83	C	0.774120	0.228376	0.302905
C84	C	1.274120	0.728376	0.802905
C85	C	0.774112	0.228371	0.226679
C86	C	1.274112	0.728371	0.726679
C87	C	0.812362	0.254415	0.461770
C88	C	1.312362	0.754415	0.961770
C89	C	0.812375	0.254421	0.537994
C90	C	1.312375	0.754421	1.037994
C91	C	0.821093	0.151016	0.576119
C92	C	1.321093	0.651016	1.076119
C93	C	0.829813	0.047601	0.538009
C94	C	1.329813	0.547601	1.038009
C95	C	0.829806	0.047597	0.461783
C96	C	1.329806	0.547597	0.961783
C97	C	0.821076	0.151015	0.423666
C98	C	1.321076	0.651015	0.923666
C99	C	0.868045	0.073636	0.696871
C100	C	1.368045	0.573636	1.196871
C101	C	0.868045	0.073630	0.773100
C102	C	1.368045	0.573630	1.273100
C103	C	0.774161	0.228396	0.773120
C104	C	1.274161	0.728396	1.273120
C105	C	0.774158	0.228393	0.696893
C106	C	1.274158	0.728393	1.196893
C107	C	0.821104	0.151014	0.658772
C108	C	1.321104	0.651014	1.158772
H109	H	0.163288	0.147202	0.119641
H110	H	0.663288	0.647202	0.619641
H111	H	0.395987	0.031947	0.091651
H112	H	0.895987	0.531947	0.591651
H113	H	0.906227	0.010616	0.195620
H114	H	1.406227	0.510616	0.695620
H115	H	0.246175	0.270048	-0.091870
H116	H	0.746175	0.770048	0.408130
H117	H	0.031840	0.144045	0.119627
H118	H	0.531840	0.644045	0.619627
H119	H	0.906236	0.010615	0.333907
H120	H	1.406236	0.510615	0.833907
H121	H	0.377625	0.273205	-0.091862
H122	H	0.877625	0.773205	0.408138
C123	C	0.255638	0.009544	0.106085
C124	C	0.755638	0.509544	0.606085
H125	H	0.290604	-0.029269	0.136215
H126	H	0.790604	0.470731	0.636215
H127	H	0.231466	-0.044596	0.081048
H128	H	0.731466	0.455404	0.581048
H129	H	0.223701	0.056801	0.135327
H130	H	0.723701	0.556801	0.635327
C131	C	0.173734	0.147467	-0.138755
C132	C	0.673734	0.647467	0.361245
H133	H	0.141794	0.146716	-0.178073
H134	H	0.641794	0.646716	0.321927
H135	H	0.207055	0.081979	-0.141500
H136	H	0.707055	0.581979	0.358500
H137	H	0.196943	0.214327	-0.141493
H138	H	0.696943	0.714327	0.358507
C139	C	0.468424	0.154632	0.138531
C140	C	0.968424	0.654632	0.638531
H141	H	0.420087	0.153481	0.129073
H142	H	0.920087	0.653481	0.629073
H143	H	0.475250	0.221114	0.165618
H144	H	0.975250	0.721114	0.665618
H145	H	0.485324	0.088764	0.165692
H146	H	0.985324	0.588764	0.665692
C147	C	0.722533	0.313518	0.815049
C148	C	1.222533	0.813518	1.315049
H149	H	0.694571	0.359595	0.781439
H150	H	1.194571	0.859595	1.281439
H151	H	0.747695	0.360657	0.844771
H152	H	1.247695	0.860657	1.344771
H153	H	0.693468	0.272808	0.844798
H154	H	1.193468	0.772808	1.344798
H155	H	0.031930	0.144060	-0.119908
H156	H	0.531930	0.644060	0.380092
C157	C	0.722532	0.313517	0.654981
C158	C	1.222532	0.813517	1.154981
H159	H	0.729248	0.302430	0.604123
H160	H	1.229248	0.802430	1.104123
H161	H	0.730365	0.389229	0.667466
H162	H	1.230365	0.889229	1.167466
H163	H	0.676128	0.301395	0.667489
H164	H	1.176128	0.801395	1.167489
H165	H	0.610234	0.157978	0.119689
H166	H	1.110234	0.657978	0.619689
H167	H	0.836904	-0.036607	0.430756
H168	H	1.336904	0.463393	0.930756
H169	H	0.836912	-0.036600	0.569048
H170	H	1.336912	0.463400	1.069048
H171	H	0.805251	0.338624	0.430735
H172	H	1.305251	0.838624	0.930735
H173	H	0.906270	0.010626	0.665832
H174	H	1.406270	0.510626	1.165832
C175	C	0.919688	-0.011477	0.815007
C176	C	1.419688	0.488523	1.315007
H177	H	0.947649	-0.057550	0.781383
H178	H	1.447649	0.442450	1.281383
H179	H	0.894535	-0.058621	0.844757
H180	H	1.394535	0.441379	1.344757
H181	H	0.948753	0.029242	0.844726
H182	H	1.448753	0.529242	1.344726
H183	H	0.735904	0.291380	0.333953
H184	H	1.235904	0.791380	0.833953
H185	H	0.805279	0.338627	0.569018
H186	H	1.305279	0.838627	1.069018
C187	C	0.722479	0.313489	0.184767
C188	C	1.222479	0.813489	0.684767
H189	H	0.729197	0.302403	0.133910
H190	H	1.229197	0.802403	0.633910
H191	H	0.730307	0.389203	0.197253
H192	H	1.230307	0.889203	0.697253
H193	H	0.676076	0.301360	0.197275
H194	H	1.176076	0.801360	0.697275
C195	C	0.620680	0.158227	-0.138708
C196	C	1.120680	0.658227	0.361292
H197	H	0.669017	0.159390	-0.129252
H198	H	1.169017	0.659390	0.370748
H199	H	0.603755	0.224115	-0.165831
H200	H	1.103755	0.724115	0.334169
H201	H	0.613874	0.091766	-0.165834
H202	H	1.113874	0.591766	0.334166
C203	C	0.468526	0.154562	-0.138723
C204	C	0.968526	0.654562	0.361277
H205	H	0.500491	0.155326	-0.178037
H206	H	1.000491	0.655326	0.321963
H207	H	0.435208	0.220053	-0.141468
H208	H	0.935208	0.720053	0.358532
H209	H	0.445317	0.087705	-0.141467
H210	H	0.945317	0.587705	0.358533
