data_functionalizedCrystal
_audit_creation_method	'MofGen! by Chris Wilmer'
_symmetry_space_group_name_H-M	'P1'
_symmetry_Int_Tables_number	1
_symmetry_cell_setting	triclinic
loop_
_symmetry_equiv_pos_as_xyz
  x,y,z
_cell_length_a	16.120484
_cell_length_b	16.625548
_cell_length_c	16.625539
_cell_angle_alpha	90.017055
_cell_angle_beta	92.870299
_cell_angle_gamma	87.073374
loop_
_atom_site_label
_atom_site_type_symbol
_atom_site_fract_x
_atom_site_fract_y
_atom_site_fract_z
Zn1	Zn	-0.331898	-1.216358	-0.472168
Zn2	Zn	-0.471318	-1.209425	-0.344164
Zn3	Zn	-0.331926	-1.081527	-0.337349
Zn4	Zn	-0.471275	-1.074648	-0.478952
O5	O	-0.401604	-1.145490	-0.408158
O6	O	-0.350399	-1.328271	-0.455200
O7	O	-0.452857	-1.192436	-0.230429
O8	O	-0.215256	-1.105193	-0.349542
O9	O	-0.452831	-1.323177	-0.361157
O10	O	-0.215236	-1.204253	-0.448592
O11	O	-0.350446	-1.098470	-0.225423
O12	O	-0.350404	-0.967782	-0.356121
O13	O	-0.452757	-1.093469	-0.590883
O14	O	-0.452783	-0.962728	-0.460156
O15	O	-0.350357	-1.197583	-0.585899
O16	O	-0.587979	-1.185766	-0.367736
O17	O	-0.587947	-1.086746	-0.466764
C18	C	-0.401592	-0.935999	-0.408135
C19	C	-0.401607	-0.846377	-0.408146
C20	C	-0.618213	-1.134779	-0.418743
C21	C	-0.710879	-1.130271	-0.423298
C22	C	-0.880541	-1.122045	-0.431631
C23	C	-0.921827	-1.169079	-0.384699
C24	C	-1.016233	-1.164502	-0.389335
C25	C	-0.786127	-1.126621	-0.426996
C26	C	-0.401549	-1.145532	-0.618465
C27	C	-0.401526	-1.145550	-0.708085
C28	C	-0.184150	-1.156264	-0.397550
C29	C	-0.091484	-1.160855	-0.393029
C30	C	-0.401617	-1.355798	-0.408182
C31	C	-0.401622	-1.445419	-0.408192
C32	C	-0.401613	-0.518202	-0.408180
C33	C	-0.401609	-0.609510	-0.408168
C34	C	-0.401611	-0.682287	-0.408162
C35	C	-0.401606	-0.773601	-0.408151
C36	C	-0.401507	-1.145564	-0.780866
C37	C	-0.401476	-1.145584	-0.872173
C38	C	-0.401447	-1.145605	-0.944948
C39	C	-0.401417	-1.145626	-1.036261
C40	C	-0.401599	-1.145497	-0.198667
C41	C	-0.401388	-1.145647	-0.109036
H42	H	-0.886271	-1.212783	-0.341036
N43	N	-0.925124	-1.067202	-0.486394
N44	N	-0.886367	-1.022968	-0.530517
H45	H	-0.917861	-0.984232	-0.569190
