data_functionalizedCrystal
_audit_creation_method	'MofGen! by Chris Wilmer'
_symmetry_space_group_name_H-M	'P1'
_symmetry_Int_Tables_number	1
_symmetry_cell_setting	triclinic
loop_
_symmetry_equiv_pos_as_xyz
  x,y,z
_cell_length_a	14.044191
_cell_length_b	14.044220
_cell_length_c	11.892095
_cell_angle_alpha	94.243827
_cell_angle_beta	85.747808
_cell_angle_gamma	93.190327
loop_
_atom_site_label
_atom_site_type_symbol
_atom_site_fract_x
_atom_site_fract_y
_atom_site_fract_z
O1	O	1.282758	0.224616	-0.093953
O2	O	1.782758	0.724616	0.406047
O3	O	1.006086	0.216302	-0.093967
O4	O	1.506086	0.716302	0.406033
O5	O	1.140268	0.082124	-0.093949
O6	O	1.640268	0.582124	0.406051
O7	O	1.148575	0.358794	-0.093971
O8	O	1.648575	0.858794	0.406029
O9	O	1.129079	0.093292	0.094057
O10	O	1.629079	0.593292	0.594057
O11	O	0.994897	0.227471	0.094039
O12	O	1.494897	0.727471	0.594039
O13	O	1.271568	0.235784	0.094053
O14	O	1.771568	0.735784	0.594053
Zn15	Zn	1.131456	0.233401	0.123896
Zn16	Zn	1.631456	0.733401	0.623896
Zn17	Zn	1.146198	0.218686	-0.123810
Zn18	Zn	1.646198	0.718686	0.376190
O19	O	1.137386	0.369963	0.094035
O20	O	1.637386	0.869963	0.594035
C21	C	0.964870	0.218250	0.000034
C22	C	1.464870	0.718250	0.500034
C23	C	0.858727	0.207402	0.000029
C24	C	1.358727	0.707402	0.500029
C25	C	0.613268	0.264503	0.000036
C26	C	1.113268	0.764503	0.500036
C27	C	0.664393	0.187587	0.000040
C28	C	1.164393	0.687587	0.500040
C29	C	0.772530	0.198615	0.000034
C30	C	1.272530	0.698615	0.500034
C31	C	0.505121	0.253477	0.000042
C32	C	1.005121	0.753477	0.500042
C33	C	1.131038	0.052086	0.000054
C34	C	1.631038	0.552086	0.500054
C35	C	1.120193	-0.054057	0.000055
C36	C	1.620193	0.445943	0.500055
C37	C	1.100368	-0.248396	0.000037
C38	C	1.600368	0.251604	0.500037
C39	C	1.177283	-0.299524	0.000038
C40	C	1.677283	0.200476	0.500038
C41	C	1.166252	-0.407661	0.000028
C42	C	1.666252	0.092339	0.500028
C43	C	1.111398	-0.140249	0.000047
C44	C	1.611398	0.359751	0.500047
C45	C	1.312785	0.233837	0.000049
C46	C	1.812785	0.733837	0.500049
C47	C	1.418928	0.244684	0.000047
C48	C	1.918928	0.744684	0.500047
C49	C	1.146617	0.400000	0.000029
C50	C	1.646617	0.900000	0.500029
C51	C	1.157462	0.506143	0.000021
C52	C	1.657462	1.006143	0.500021
N53	N	1.121401	0.243444	0.292948
N54	N	1.621401	0.743444	0.792948
N55	N	1.156260	0.208636	-0.292863
N56	N	1.656260	0.708636	0.207137
C57	C	1.226219	0.138699	0.529610
C58	C	1.726219	0.638699	1.029610
C59	C	1.219199	0.145726	0.647951
C60	C	1.719199	0.645726	1.147951
C61	C	1.100335	0.264520	0.647973
C62	C	1.600335	0.764520	1.147973
C63	C	1.107356	0.257493	0.529632
C64	C	1.607356	0.757493	1.029632
C65	C	1.170301	0.194581	0.470455
C66	C	1.670301	0.694581	0.970455
C67	C	1.177326	0.187559	0.352112
C68	C	1.677326	0.687559	0.852112
C69	C	1.058458	0.306348	0.352136
C70	C	1.558458	0.806348	0.852136
C71	C	1.051438	0.313375	0.470477
C72	C	1.551438	0.813375	0.970477
H73	H	1.251421	-0.262087	-0.000034
H74	H	1.751421	0.237913	0.499966
H75	H	0.650710	0.338629	0.000026
H76	H	1.150710	0.838629	0.500026
O77	O	1.002171	-0.297978	0.000050
O78	O	1.502171	0.202022	0.500050
H79	H	1.008808	-0.376362	0.000059
H80	H	1.508808	0.123638	0.500059
H81	H	1.228581	0.136336	0.303931
H82	H	1.728581	0.636336	0.803931
O83	O	1.294105	0.070850	0.465771
O84	O	1.794105	0.570850	0.965771
H85	H	1.331808	0.033168	0.526788
H86	H	1.831808	0.533168	1.026788
H87	H	1.264732	0.100220	0.696112
H88	H	1.764732	0.600220	1.196112
O89	O	1.032449	0.332371	0.711807
O90	O	1.532449	0.832371	1.211807
H91	H	1.036968	0.327869	0.804035
H92	H	1.536968	0.827869	1.304035
H93	H	0.626954	0.113450	-0.000034
H94	H	1.126954	0.613450	0.499966
O95	O	0.983556	0.381235	0.534304
O96	O	1.483556	0.881235	1.034304
H97	H	0.988072	0.376740	0.626533
H98	H	1.488072	0.876740	1.126533
O99	O	0.998133	0.366622	0.288337
O100	O	1.498133	0.866622	0.788337
H101	H	1.013583	0.351164	0.196104
H102	H	1.513583	0.851164	0.696104
