data_functionalizedCrystal
_audit_creation_method	'MofGen! by Chris Wilmer'
_symmetry_space_group_name_H-M	'P1'
_symmetry_Int_Tables_number	1
_symmetry_cell_setting	triclinic
loop_
_symmetry_equiv_pos_as_xyz
  x,y,z
_cell_length_a	11.169417
_cell_length_b	15.297327
_cell_length_c	11.169409
_cell_angle_alpha	99.639974
_cell_angle_beta	89.979436
_cell_angle_gamma	99.707226
loop_
_atom_site_label
_atom_site_type_symbol
_atom_site_fract_x
_atom_site_fract_y
_atom_site_fract_z
Zn1	Zn	1.752176	-0.359064	-0.761131
Zn2	Zn	1.717269	-0.509957	-0.595155
Zn3	Zn	1.551447	-0.359119	-0.560478
Zn4	Zn	1.516693	-0.509883	-0.795783
O5	O	1.634396	-0.434506	-0.678137
O6	O	1.915493	-0.379088	-0.739125
O7	O	1.695208	-0.490001	-0.422618
O8	O	1.607227	-0.232867	-0.558081
O9	O	1.889848	-0.489948	-0.617183
O10	O	1.754702	-0.232827	-0.705500
O11	O	1.573379	-0.379182	-0.397141
O12	O	1.378889	-0.379111	-0.591682
O13	O	1.547994	-0.489823	-0.959124
O14	O	1.353355	-0.489876	-0.764559
O15	O	1.721003	-0.379017	-0.933666
O16	O	1.661509	-0.636191	-0.650783
O17	O	1.514146	-0.636138	-0.798184
C18	C	1.322575	-0.434492	-0.678119
C19	C	1.189171	-0.434508	-0.678144
C20	C	1.580301	-0.668898	-0.732033
C21	C	1.557269	-0.769172	-0.755130
C22	C	1.799506	-1.051815	-0.513469
C23	C	1.821146	-0.957602	-0.491762
C24	C	1.755179	-0.910490	-0.557602
C25	C	1.667568	-0.957600	-0.645153
C26	C	1.645920	-1.051821	-0.666855
C27	C	1.601592	-0.910497	-0.710988
C28	C	1.513981	-0.957606	-0.798539
C29	C	1.492338	-1.051819	-0.820238
C30	C	1.558305	-1.098931	-0.754398
C31	C	1.623240	-0.816275	-0.689286
C32	C	1.469654	-0.816282	-0.842672
C33	C	1.448014	-0.910494	-0.864379
C34	C	1.947435	-0.434520	-0.678157
C35	C	2.080834	-0.434526	-0.678165
C36	C	1.634515	-0.434406	-0.991157
C37	C	1.634566	-0.434363	-1.124547
C38	C	1.688735	-0.199198	-0.624057
C39	C	1.711891	-0.098924	-0.601012
C40	C	1.634361	-0.434540	-0.366320
C41	C	1.634602	-0.434329	-0.232872
H42	H	1.772802	-0.833778	-0.539922
O43	O	1.708261	-0.770618	-0.604106
C44	C	1.676760	-0.793714	-0.489786
H45	H	1.614898	-0.862150	-0.503026
H46	H	1.627246	-0.740750	-0.437110
C47	C	1.868782	-0.713990	-0.401919
C48	C	1.792810	-0.798048	-0.418181
H49	H	1.940366	-0.716659	-0.357746
H50	H	1.890004	-0.698426	-0.478937
H51	H	1.827506	-0.669862	-0.358026
H52	H	1.834080	-0.842172	-0.462086
H53	H	1.771597	-0.813619	-0.341168
O54	O	1.906332	-0.911983	-0.406725
C55	C	1.959897	-0.973764	-0.353248
H56	H	1.948603	-1.040893	-0.417872
H57	H	1.913674	-0.983866	-0.264384
C58	C	2.109977	-0.854476	-0.248208
C59	C	2.096114	-0.936923	-0.327584
H60	H	2.194001	-0.831751	-0.232371
H61	H	2.073887	-0.812852	-0.284231
H62	H	2.071450	-0.862906	-0.174163
H63	H	2.134627	-0.928491	-0.401631
H64	H	2.132214	-0.978546	-0.291571
H65	H	1.540693	-1.175646	-0.772069
O66	O	1.407095	-1.097625	-0.905116
C67	C	1.317085	-1.152231	-0.849302
H68	H	1.316218	-1.123899	-0.748246
H69	H	1.337800	-1.223614	-0.861636
C70	C	1.193014	-1.188526	-1.032304
C71	C	1.191943	-1.153723	-0.908186
H72	H	1.115821	-1.189451	-1.068628
H73	H	1.253657	-1.151740	-1.069909
H74	H	1.210282	-1.248009	-1.042565
H75	H	1.174690	-1.094238	-0.897926
H76	H	1.131294	-1.190500	-0.870580
O77	O	1.863470	-1.097718	-0.449628
C78	C	1.825528	-1.190976	-0.487514
H79	H	1.783276	-1.203818	-0.583081
H80	H	1.755440	-1.217769	-0.422474
C81	C	1.987731	-1.223535	-0.370288
C82	C	1.935846	-1.239307	-0.487669
H83	H	2.055778	-1.253349	-0.370378
H84	H	2.013291	-1.160705	-0.344759
H85	H	1.929313	-1.245862	-0.316100
H86	H	1.994259	-1.216970	-0.541851
H87	H	1.910298	-1.302135	-0.513207
H88	H	1.376680	-0.948864	-0.935663
O89	O	1.405750	-0.770487	-0.906758
C90	C	1.486589	-0.715884	-0.971735
H91	H	1.574601	-0.744216	-0.985755
H92	H	1.507146	-0.644499	-0.918187
C93	C	1.320139	-0.679596	-1.078889
C94	C	1.428233	-0.714399	-1.096118
H95	H	1.284142	-0.678676	-1.155612
H96	H	1.265675	-0.716380	-1.035110
H97	H	1.337285	-0.620112	-1.034262
H98	H	1.411084	-0.773885	-1.140730
H99	H	1.482692	-0.677624	-1.139908
