data_functionalizedCrystal
_audit_creation_method	'MofGen! by Chris Wilmer'
_symmetry_space_group_name_H-M	'P1'
_symmetry_Int_Tables_number	1
_symmetry_cell_setting	triclinic
loop_
_symmetry_equiv_pos_as_xyz
  x,y,z
_cell_length_a	10.654550
_cell_length_b	12.996460
_cell_length_c	10.654550
_cell_angle_alpha	90.004964
_cell_angle_beta	84.484903
_cell_angle_gamma	90.009092
loop_
_atom_site_label
_atom_site_type_symbol
_atom_site_fract_x
_atom_site_fract_y
_atom_site_fract_z
O1	O	1.667843	0.085649	0.176401
O2	O	1.302364	0.085632	0.193207
O3	O	1.493507	0.085637	0.002065
O4	O	1.476701	0.085644	0.367543
O5	O	1.493487	-0.085497	0.002054
O6	O	1.302344	-0.085502	0.193196
O7	O	1.667823	-0.085485	0.176390
Cu8	Cu	1.485082	-0.101119	0.184792
Cu9	Cu	1.485106	0.101266	0.184805
O10	O	1.476680	-0.085490	0.367533
C11	C	1.255556	0.000063	0.191968
C12	C	1.116113	0.000056	0.188276
N13	N	1.485074	-0.243466	0.184783
C14	C	1.036627	0.000074	0.300817
C15	C	0.905607	0.000091	0.297341
C16	C	0.933570	0.000079	0.068771
C17	C	1.064588	0.000054	0.072249
C18	C	1.020482	0.000085	0.432780
C19	C	0.889461	0.000103	0.429304
C20	C	1.485104	-0.663281	0.184806
C21	C	1.485092	-0.546476	0.184804
C22	C	1.485090	-0.453377	0.184795
C23	C	1.485076	-0.336565	0.184791
C24	C	1.714631	0.000086	0.177630
C25	C	1.854074	0.000099	0.181321
C26	C	1.492263	0.000071	-0.044739
C27	C	1.488571	0.000075	-0.184182
N28	N	1.485123	0.243613	0.184805
C29	C	1.601112	0.000077	-0.263668
C30	C	1.597636	0.000084	-0.394688
C31	C	1.369066	0.000082	-0.366725
C32	C	1.372544	0.000083	-0.235707
C33	C	1.733075	0.000073	-0.279813
C34	C	1.729599	0.000080	-0.410834
C35	C	1.477925	0.000078	0.414336
C36	C	1.481616	0.000081	0.553779
H37	H	0.891602	0.000093	-0.025694
H38	H	1.049805	-0.071537	0.484386
N39	N	1.065243	0.092723	0.485605
N40	N	1.180408	0.104258	0.495165
H41	H	1.212020	0.169672	0.532505
H42	H	1.779312	-0.071535	-0.452599
N43	N	1.257585	0.000110	-0.154515
N44	N	1.180700	0.072255	-0.159784
H45	H	1.099504	0.072276	-0.102442
H46	H	0.847737	0.071728	0.479030
N47	N	1.145764	0.000017	-0.042721
N48	N	1.099739	0.000014	-0.146302
H49	H	1.157069	-0.000013	-0.227505
H50	H	0.843781	-0.073780	0.469180
H51	H	1.769488	0.073973	-0.456472
H52	H	1.775088	-0.073817	-0.244191
H53	H	1.784699	0.071690	-0.250451
N54	N	1.250565	0.000096	-0.419380
N55	N	1.247473	0.000104	-0.536361
H56	H	1.163779	0.000114	-0.573549
