data_functionalizedCrystal
_audit_creation_method	'MofGen! by Chris Wilmer'
_symmetry_space_group_name_H-M	'P1'
_symmetry_Int_Tables_number	1
_symmetry_cell_setting	triclinic
loop_
_symmetry_equiv_pos_as_xyz
  x,y,z
_cell_length_a	10.489716
_cell_length_b	10.489716
_cell_length_c	13.930277
_cell_angle_alpha	89.999515
_cell_angle_beta	89.993156
_cell_angle_gamma	84.529136
loop_
_atom_site_label
_atom_site_type_symbol
_atom_site_fract_x
_atom_site_fract_y
_atom_site_fract_z
O1	O	1.694061	0.179820	-0.079814
O2	O	1.322860	0.196746	-0.079816
O3	O	1.516923	0.002682	-0.079818
O4	O	1.499998	0.373883	-0.079812
O5	O	1.516896	0.002678	0.079843
O6	O	1.322833	0.196741	0.079845
O7	O	1.694034	0.179815	0.079848
Zn8	Zn	1.508429	0.188278	0.105197
Zn9	Zn	1.508465	0.188283	-0.105165
O10	O	1.499971	0.373879	0.079850
C11	C	1.275314	0.195472	0.000014
C12	C	1.133684	0.191667	0.000013
C13	C	1.035999	0.310673	0.000012
C14	C	0.958645	0.247786	0.078737
C15	C	0.958679	0.247762	-0.078677
C16	C	1.058195	0.128829	0.078802
C17	C	1.058234	0.128823	-0.078682
C18	C	0.980929	0.065848	0.000062
C19	C	1.515638	-0.044852	0.000010
C20	C	1.511833	-0.186483	0.000001
C21	C	1.630839	-0.284167	0.000010
C22	C	1.567967	-0.361520	-0.078709
C23	C	1.567913	-0.361488	0.078705
C24	C	1.449011	-0.261970	-0.078784
C25	C	1.448974	-0.261933	0.078701
C26	C	1.386015	-0.339237	-0.000038
C27	C	1.741580	0.181089	0.000016
C28	C	1.883210	0.184894	0.000011
C29	C	1.501256	0.421413	0.000020
C30	C	1.505061	0.563044	0.000022
N31	N	1.508414	0.188273	0.248763
N32	N	1.508490	0.188278	-0.248731
C33	C	1.422530	0.274181	0.701033
C34	C	1.594435	0.102377	0.701000
C35	C	1.594420	0.102372	0.600505
C36	C	1.508460	0.188275	0.550268
C37	C	1.422515	0.274182	0.600528
C38	C	1.680372	0.016476	0.550238
C39	C	1.680361	0.016469	0.449736
C40	C	1.594394	0.102367	0.399498
C41	C	1.508444	0.188276	0.449763
C42	C	1.422484	0.274179	0.399527
C43	C	1.336528	0.360083	0.449791
C44	C	1.336547	0.360079	0.550290
C45	C	1.594374	0.102370	0.298999
C46	C	1.422469	0.274180	0.299022
H47	H	0.956508	-0.037744	0.000105
C48	C	1.774896	-0.078030	0.394454
H49	H	1.826085	-0.129195	0.438768
H50	H	1.828402	-0.031637	0.355233
H51	H	1.728510	-0.131581	0.355266
H52	H	1.101746	0.078626	-0.145242
C53	C	1.327918	0.368676	0.243765
H54	H	1.340213	0.356375	0.176712
H55	H	1.342540	0.453944	0.260237
H56	H	1.242659	0.353989	0.260246
H57	H	1.060659	0.414190	0.000088
H58	H	1.664364	0.032434	0.258079
C59	C	1.381221	-0.203476	-0.168799
H60	H	1.384126	-0.113233	-0.168276
H61	H	1.294528	-0.222658	-0.169031
H62	H	1.423214	-0.238435	-0.224629
C63	C	1.688983	0.007893	0.756257
H64	H	1.676679	0.020192	0.823310
H65	H	1.774237	0.022564	0.739771
H66	H	1.674345	-0.077381	0.739794
H67	H	0.915147	0.298021	0.145294
C68	C	1.381159	-0.203128	0.168609
H69	H	1.423580	-0.237357	0.224492
H70	H	1.294661	-0.222920	0.169176
H71	H	1.383432	-0.112817	0.167636
C72	C	1.774920	-0.078005	0.605497
H73	H	1.762607	-0.065711	0.672549
H74	H	1.860174	-0.063326	0.589017
H75	H	1.760292	-0.163280	0.589029
H76	H	1.282422	-0.363659	-0.000081
C77	C	1.116684	0.061009	0.168809
H78	H	1.050496	0.030219	0.206353
H79	H	1.159932	0.119804	0.205607
H80	H	1.175698	-0.008857	0.149988
C81	C	0.899964	0.315650	-0.168583
H82	H	0.918461	0.402563	-0.168479
H83	H	0.809822	0.312040	-0.168253
H84	H	0.935413	0.274242	-0.224485
H85	H	1.734354	-0.259500	-0.000069
H86	H	1.618215	-0.405018	-0.145262
H87	H	1.266544	0.430031	0.408877
C88	C	1.635782	-0.420221	0.168612
H89	H	1.576784	-0.462867	0.205687
H90	H	1.667320	-0.354239	0.205924
H91	H	1.705113	-0.479816	0.149681
C92	C	1.242018	0.454573	0.605581
H93	H	1.254352	0.442279	0.672629
H94	H	1.156756	0.439904	0.589133
H95	H	1.256651	0.539845	0.589104
C96	C	1.327989	0.368671	0.756316
H97	H	1.340308	0.356377	0.823366
H98	H	1.242732	0.353997	0.739857
H99	H	1.342621	0.453945	0.739843
