data_functionalizedCrystal
_audit_creation_method	'MofGen! by Chris Wilmer'
_symmetry_space_group_name_H-M	'P1'
_symmetry_Int_Tables_number	1
_symmetry_cell_setting	triclinic
loop_
_symmetry_equiv_pos_as_xyz
  x,y,z
_cell_length_a	14.519709
_cell_length_b	11.295483
_cell_length_c	12.837942
_cell_angle_alpha	94.530417
_cell_angle_beta	89.254543
_cell_angle_gamma	85.893203
loop_
_atom_site_label
_atom_site_type_symbol
_atom_site_fract_x
_atom_site_fract_y
_atom_site_fract_z
O1	O	-1.241201	0.098852	-0.128950
O2	O	-0.741201	0.598852	0.371050
O3	O	-0.974110	0.098892	-0.144952
O4	O	-0.474110	0.598892	0.355048
O5	O	-1.101733	0.098866	0.013962
O6	O	-0.601733	0.598866	0.513962
O7	O	-1.113578	0.098879	-0.287864
O8	O	-0.613578	0.598879	0.212136
O9	O	-1.090521	-0.099183	0.000026
O10	O	-0.590521	0.400817	0.500026
O11	O	-0.962898	-0.099157	-0.158889
O12	O	-0.462898	0.400843	0.341111
O13	O	-1.229990	-0.099196	-0.142886
O14	O	-0.729990	0.400804	0.357114
Cu15	Cu	-1.095420	-0.117260	-0.152160
Cu16	Cu	-0.595420	0.382740	0.347840
Cu17	Cu	-1.108679	0.116955	-0.135679
Cu18	Cu	-0.608679	0.616955	0.364321
O19	O	-1.102367	-0.099170	-0.301801
O20	O	-0.602367	0.400830	0.198199
C21	C	-0.934080	-0.000127	-0.151174
C22	C	-0.434080	0.499873	0.348826
C23	C	-0.831506	-0.000112	-0.148938
C24	C	-0.331506	0.499888	0.351062
N25	N	-1.086102	-0.281994	-0.163751
N26	N	-0.586102	0.218006	0.336249
C27	C	-1.092126	-0.000157	0.045622
C28	C	-0.592126	0.499843	0.545622
C29	C	-1.080192	-0.000154	0.160722
C30	C	-0.580192	0.499846	0.660722
C31	C	-0.455897	-0.000163	-0.140713
C32	C	0.044103	0.499837	0.359287
C33	C	-0.560403	-0.000148	-0.142997
C34	C	-0.060403	0.499852	0.357003
C35	C	-0.643698	-0.000136	-0.144825
C36	C	-0.143698	0.499864	0.355175
C37	C	-0.748211	-0.000124	-0.147110
C38	C	-0.248211	0.499876	0.352890
C39	C	-0.270020	-0.000171	-0.136664
C40	C	0.229980	0.499829	0.363336
C41	C	-0.372594	-0.000170	-0.138899
C42	C	0.127406	0.499830	0.361101
C43	C	-1.185081	-0.531304	-0.040580
C44	C	-0.685081	-0.031304	0.459420
C45	C	-1.178046	-0.655966	-0.049347
C46	C	-0.678046	-0.155966	0.450653
C47	C	-1.064992	-0.655983	-0.190047
C48	C	-0.564992	-0.155983	0.309953
C49	C	-1.072027	-0.531321	-0.181280
C50	C	-0.572027	-0.031321	0.318720
C51	C	-1.132075	-0.468986	-0.106545
C52	C	-0.632075	0.031014	0.393455
C53	C	-1.139114	-0.344321	-0.097783
C54	C	-0.639114	0.155679	0.402217
C55	C	-1.026056	-0.344340	-0.238478
C56	C	-0.526056	0.155660	0.261522
C57	C	-1.019021	-0.469003	-0.247245
C58	C	-0.519021	0.030997	0.252755
N59	N	-1.118004	0.281690	-0.124079
N60	N	-0.618004	0.781690	0.375921
C61	C	-1.111974	-0.000144	-0.333460
C62	C	-0.611974	0.499856	0.166540
C63	C	-1.123909	-0.000140	-0.448559
C64	C	-0.623909	0.499860	0.051441
C65	C	-1.223662	-0.000150	0.401414
C66	C	-0.723662	0.499850	0.901414
C67	C	-1.212454	-0.000146	0.509561
C68	C	-0.712454	0.499854	1.009561
C69	C	-1.046567	-0.000134	0.485165
C70	C	-0.546567	0.499866	0.985165
C71	C	-1.057775	-0.000138	0.377018
C72	C	-0.557775	0.499862	0.877018
C73	C	-1.146326	-0.000147	0.335147
C74	C	-0.646326	0.499853	0.835147
C75	C	-1.157533	-0.000160	0.226997
C76	C	-0.657533	0.499840	0.726997
C77	C	-0.991648	-0.000139	0.202604
C78	C	-0.491648	0.499861	0.702604
C79	C	-0.980439	-0.000135	0.310751
C80	C	-0.480439	0.499865	0.810751
H81	H	-1.188010	-0.293569	-0.036933
H82	H	-0.688010	0.206431	0.463067
N83	N	-1.295870	-0.000160	0.581028
N84	N	-0.795870	0.499840	1.081028
H85	H	-1.290763	-0.073576	0.621278
H86	H	-0.790763	0.426424	1.121278
H87	H	-1.299030	0.073305	0.631542
H88	H	-0.799030	0.573305	1.131542
H89	H	-0.982897	-0.293587	-0.292194
H90	H	-0.482897	0.206413	0.207806
H91	H	-0.974474	-0.000114	0.519277
H92	H	-0.474474	0.499886	1.019277
N93	N	-0.908226	-0.000129	0.131132
N94	N	-0.408226	0.499871	0.631132
H95	H	-0.865863	-0.073543	0.139462
H96	H	-0.365863	0.426457	0.639462
H97	H	-0.928836	-0.000090	0.056300
H98	H	-0.428836	0.499910	0.556300
N99	N	-1.249852	-0.464061	0.040010
N100	N	-0.749852	0.035939	0.540010
H101	H	-1.282369	-0.522457	0.080466
H102	H	-0.782369	-0.022457	0.580466
H103	H	-1.213435	-0.412342	0.089573
H104	H	-0.713435	0.087658	0.589573
N105	N	-1.235224	-0.723184	0.021792
N106	N	-0.735224	-0.223184	0.521792
H107	H	-1.274332	-0.664774	0.070460
H108	H	-0.774332	-0.164774	0.570460
H109	H	-1.276569	-0.774893	-0.021649
H110	H	-0.776569	-0.274893	0.478351
N111	N	-1.000219	-0.723226	-0.270635
N112	N	-0.500219	-0.223226	0.229365
H113	H	-1.003805	-0.811654	-0.266171
H114	H	-0.503805	-0.311654	0.233829
H115	H	-1.018562	-0.701446	-0.342686
H116	H	-0.518562	-0.201446	0.157314
N117	N	-0.884936	-0.000121	0.355915
N118	N	-0.384936	0.499879	0.855915
H119	H	-0.889568	-0.000118	0.434481
H120	H	-0.389568	0.499882	0.934481
H121	H	-0.846526	-0.073541	0.326524
H122	H	-0.346526	0.426459	0.826524
H123	H	-0.970129	-0.519770	-0.308090
H124	H	-0.470129	-0.019770	0.191910
N125	N	-1.253036	-0.000169	0.181831
N126	N	-0.753036	0.499831	0.681831
H127	H	-1.257232	-0.073591	0.132347
H128	H	-0.757232	0.426409	0.632347
H129	H	-1.300269	-0.000123	0.240288
H130	H	-0.800269	0.499877	0.740288
H131	H	-1.295763	-0.000169	0.367322
H132	H	-0.795763	0.499831	0.867322
