data_functionalizedCrystal
_audit_creation_method	'MofGen! by Chris Wilmer'
_symmetry_space_group_name_H-M	'P1'
_symmetry_Int_Tables_number	1
_symmetry_cell_setting	triclinic
loop_
_symmetry_equiv_pos_as_xyz
  x,y,z
_cell_length_a	16.109301
_cell_length_b	14.044209
_cell_length_c	14.586319
_cell_angle_alpha	89.997325
_cell_angle_beta	90.003133
_cell_angle_gamma	91.675283
loop_
_atom_site_label
_atom_site_type_symbol
_atom_site_fract_x
_atom_site_fract_y
_atom_site_fract_z
O1	O	1.112197	-0.121829	0.076188
O2	O	0.871263	-0.136991	0.076203
O3	O	0.988115	0.008573	0.076183
O4	O	0.995346	-0.267394	0.076208
O5	O	0.988100	0.008565	-0.076298
O6	O	0.871249	-0.137000	-0.076278
O7	O	1.112183	-0.121838	-0.076293
Cu8	Cu	0.991714	-0.129420	-0.090208
Cu9	Cu	0.991732	-0.129410	0.090118
O10	O	0.995331	-0.267403	-0.076272
C11	C	0.840235	-0.136382	-0.000035
C12	C	0.747803	-0.134540	-0.000030
C13	C	0.984942	0.043882	-0.000059
C14	C	0.975499	0.149105	-0.000062
C15	C	0.531638	-0.216634	-0.000033
C16	C	0.444788	-0.214896	-0.000039
C17	C	0.451814	-0.042189	-0.000051
C18	C	0.538662	-0.043927	-0.000052
C19	C	0.578572	-0.131153	-0.000038
C20	C	0.404874	-0.127677	-0.000044
C21	C	0.310708	-0.125792	-0.000050
C22	C	0.672744	-0.133038	-0.000033
C23	C	0.958235	0.341762	-0.000054
C24	C	1.025215	0.399416	-0.000057
C25	C	1.015609	0.506616	-0.000052
C26	C	0.967839	0.234551	-0.000058
C27	C	1.143211	-0.122448	-0.000052
C28	C	1.235643	-0.124289	-0.000051
N29	N	0.991708	-0.129426	-0.217040
C30	C	0.998506	0.697288	-0.000036
C31	C	1.007954	0.592066	-0.000048
C32	C	1.046408	-0.186918	-0.452044
C33	C	1.046416	-0.186912	-0.548025
C34	C	0.937042	-0.071897	-0.548039
C35	C	0.937038	-0.071899	-0.452060
C36	C	0.991720	-0.129415	-0.404064
C37	C	0.991732	-0.129407	-0.596025
C38	C	0.991740	-0.129399	-0.700092
C39	C	0.991713	-0.129422	-0.299991
N40	N	0.991744	-0.129395	0.216950
H41	H	0.564129	-0.287658	-0.000029
H42	H	0.406578	-0.284504	-0.000037
H43	H	0.892521	-0.025070	-0.587129
H44	H	0.893683	0.372911	-0.000048
H45	H	1.090933	-0.233752	-0.412969
H46	H	0.892504	-0.025068	-0.412994
O47	O	0.408771	0.051888	-0.000059
H48	H	0.340494	0.038738	-0.000050
O49	O	0.589294	0.048274	-0.000059
H50	H	0.546954	0.109219	-0.000056
O51	O	1.105399	-0.248931	-0.599780
H52	H	1.092919	-0.324687	-0.581369
O53	O	1.110733	0.358165	-0.000077
H54	H	1.104958	0.279217	-0.000090
