data_functionalizedCrystal
_audit_creation_method	'MofGen! by Chris Wilmer'
_symmetry_space_group_name_H-M	'P1'
_symmetry_Int_Tables_number	1
_symmetry_cell_setting	triclinic
loop_
_symmetry_equiv_pos_as_xyz
  x,y,z
_cell_length_a	16.120530
_cell_length_b	12.645330
_cell_length_c	16.120256
_cell_angle_alpha	92.878509
_cell_angle_beta	90.128265
_cell_angle_gamma	87.113442
loop_
_atom_site_label
_atom_site_type_symbol
_atom_site_fract_x
_atom_site_fract_y
_atom_site_fract_z
Zn1	Zn	1.247481	-0.537102	-0.534597
Zn2	Zn	1.254445	-0.705858	-0.395549
Zn3	Zn	1.115470	-0.519182	-0.388514
Zn4	Zn	1.108401	-0.704887	-0.527519
O5	O	1.181449	-0.616757	-0.461545
O6	O	1.364772	-0.567393	-0.522059
O7	O	1.241883	-0.674002	-0.278249
O8	O	1.133026	-0.373216	-0.407910
O9	O	1.369888	-0.691378	-0.419901
O10	O	1.230014	-0.386381	-0.515237
O11	O	1.139778	-0.536852	-0.273081
O12	O	0.998166	-0.535910	-0.401046
O13	O	1.120978	-0.689723	-0.644824
O14	O	0.992972	-0.672347	-0.503173
O15	O	1.223159	-0.566452	-0.650025
O16	O	1.235028	-0.854073	-0.413037
O17	O	1.127730	-0.853359	-0.509994
C18	C	0.965396	-0.602080	-0.450579
C19	C	0.872967	-0.595827	-0.445907
C20	C	0.703736	-0.584388	-0.437385
C21	C	0.660000	-0.649209	-0.485765
C22	C	0.565834	-0.642844	-0.481024
C23	C	0.797911	-0.590751	-0.442125
C24	C	1.181389	-0.892182	-0.461530
C25	C	1.181438	-1.010017	-0.461555
C26	C	1.114192	-1.177206	-0.522763
C27	C	1.113875	-1.054612	-0.522539
C28	C	1.162161	-1.047628	-0.372718
C29	C	1.161750	-1.170224	-0.373090
C30	C	1.268390	-1.184460	-0.488494
C31	C	1.267753	-1.061934	-0.490383
C32	C	1.398346	-0.631493	-0.472554
C33	C	1.490775	-0.637772	-0.477246
C34	C	1.170503	-0.629978	-0.678441
C35	C	1.165839	-0.635612	-0.770869
C36	C	1.181532	-0.340259	-0.461579
C37	C	1.181566	-0.222433	-0.461593
C38	C	1.205774	-0.587350	-0.983850
C39	C	1.157294	-0.645852	-0.940089
C40	C	1.162050	-0.640153	-0.845926
C41	C	1.201019	-0.593048	-1.078022
C42	C	1.192401	-0.603515	-0.245495
C43	C	1.197227	-0.597593	-0.153076
H44	H	1.125422	-1.029449	-0.588272
C45	C	1.225481	-1.210272	-0.309087
C46	C	1.298563	-1.286625	-0.337347
C47	C	1.362287	-1.326662	-0.273339
C48	C	1.352928	-1.290348	-0.181071
C49	C	1.279843	-1.213991	-0.152806
C50	C	1.216119	-1.173953	-0.216814
H51	H	1.305494	-1.313511	-0.405654
H52	H	1.416390	-1.383187	-0.294264
H53	H	1.400101	-1.319986	-0.133689
H54	H	1.272912	-1.187105	-0.084500
H55	H	1.162016	-1.117429	-0.195890
C56	C	0.704948	-0.730645	-0.546529
C57	C	0.654368	-0.805743	-0.602573
C58	C	0.699320	-0.887179	-0.663332
C59	C	0.794852	-0.893517	-0.668046
C60	C	0.845438	-0.818417	-0.612000
C61	C	0.800486	-0.736981	-0.551242
H62	H	0.583644	-0.801054	-0.599085
H63	H	0.661872	-0.942773	-0.704820
H64	H	0.828128	-0.953801	-0.713023
H65	H	0.916162	-0.823106	-0.615488
H66	H	0.837934	-0.681387	-0.509753
C67	C	1.096396	-0.719290	-0.985013
C68	C	1.002452	-0.703507	-0.968362
C69	C	0.941556	-0.776938	-1.013294
C70	C	0.974604	-0.866152	-1.074877
C71	C	1.068553	-0.881938	-1.091531
C72	C	1.129449	-0.808507	-1.046599
H73	H	0.977983	-0.637463	-0.922772
H74	H	0.872008	-0.765251	-1.000965
H75	H	0.929525	-0.920509	-1.108138
H76	H	1.093022	-0.947983	-1.137121
H77	H	1.198997	-0.820194	-1.058928
C78	C	1.129589	-1.223677	-0.611848
C79	C	1.203525	-1.303263	-0.630145
C80	C	1.218926	-1.349737	-0.719234
C81	C	1.160391	-1.316624	-0.790025
C82	C	1.086449	-1.237034	-0.771729
C83	C	1.071049	-1.190560	-0.682641
H84	H	1.246861	-1.327779	-0.577740
H85	H	1.273662	-1.408655	-0.732777
H86	H	1.171791	-1.351027	-0.855973
H87	H	1.043114	-1.212518	-0.824135
H88	H	1.016312	-1.131641	-0.669098
H89	H	0.670461	-0.524118	-0.392407
C90	C	1.266674	-0.513920	-0.938933
C91	C	1.271406	-0.508264	-0.843403
C92	C	1.332309	-0.434840	-0.798475
C93	C	1.388480	-0.367071	-0.849077
C94	C	1.383750	-0.372724	-0.944612
C95	C	1.322847	-0.446148	-0.989540
H96	H	1.229823	-0.558433	-0.805940
H97	H	1.335810	-0.430656	-0.727753
H98	H	1.433564	-0.312719	-0.815818
H99	H	1.425333	-0.322556	-0.982075
H100	H	1.319346	-0.450333	-1.060262
H101	H	1.050134	-1.202811	-0.504800
C102	C	1.287515	-1.029526	-0.578730
C103	C	1.225594	-0.956268	-0.624509
C104	C	1.245355	-0.923850	-0.712856
C105	C	1.327037	-0.964690	-0.755423
C106	C	1.388964	-1.037952	-0.709644
C107	C	1.369203	-1.070370	-0.621298
H108	H	1.165123	-0.926032	-0.592998
H109	H	1.199513	-0.869617	-0.746744
H110	H	1.341666	-0.940692	-0.820822
H111	H	1.449435	-1.068187	-0.741155
H112	H	1.415045	-1.124603	-0.587409
H113	H	1.049419	-1.020042	-0.504366
H114	H	1.098414	-1.193388	-0.350819
H115	H	1.209874	-1.018514	-0.325701
H116	H	1.099512	-1.011514	-0.350138
H117	H	1.286844	-1.220624	-0.552408
H118	H	1.320237	-1.032027	-0.449428
H119	H	1.318530	-1.213811	-0.443996
