data_functionalizedCrystal
_audit_creation_method	'MofGen! by Chris Wilmer'
_symmetry_space_group_name_H-M	'P1'
_symmetry_Int_Tables_number	1
_symmetry_cell_setting	triclinic
loop_
_symmetry_equiv_pos_as_xyz
  x,y,z
_cell_length_a	29.839134
_cell_length_b	29.839131
_cell_length_c	18.050582
_cell_angle_alpha	90.033130
_cell_angle_beta	90.026973
_cell_angle_gamma	90.027971
loop_
_atom_site_label
_atom_site_type_symbol
_atom_site_fract_x
_atom_site_fract_y
_atom_site_fract_z
Zn1	Zn	0.686751	-0.178969	0.420097
Zn2	Zn	0.686688	-0.254091	0.295884
Zn3	Zn	0.611630	-0.178966	0.295895
Zn4	Zn	0.611589	-0.254063	0.420006
O5	O	0.649164	-0.216522	0.357970
O6	O	0.749609	-0.188947	0.403653
O7	O	0.676722	-0.244136	0.191961
O8	O	0.621638	-0.116100	0.312413
O9	O	0.749563	-0.244139	0.312394
O10	O	0.676829	-0.116101	0.403664
O11	O	0.621577	-0.188942	0.191969
O12	O	0.548758	-0.188915	0.312325
O13	O	0.621569	-0.244091	0.523943
O14	O	0.548728	-0.244088	0.403509
O15	O	0.676790	-0.188919	0.524009
O16	O	0.676682	-0.316954	0.312306
O17	O	0.621508	-0.316934	0.403499
C18	C	0.532442	-0.216499	0.357909
C19	C	0.482507	-0.216500	0.357900
C20	C	0.125923	-0.187751	0.310588
C21	C	0.313596	-0.187738	0.310543
O22	O	0.337864	-0.163257	0.270247
N23	N	0.337062	-0.216507	0.357938
C24	C	0.313607	-0.245279	0.405351
O25	O	0.337873	-0.269745	0.445667
C26	C	0.125935	-0.245289	0.405399
C27	C	0.102471	-0.216522	0.357996
C28	C	0.102460	-0.158986	0.263189
C29	C	0.055544	-0.158991	0.263198
C30	C	0.032092	-0.187761	0.310606
C31	C	0.055556	-0.216527	0.358004
C32	C	0.102480	-0.274058	0.452815
C33	C	0.055559	-0.274057	0.452824
C34	C	0.032096	-0.245290	0.405421
C35	C	-0.014811	-0.245302	0.405421
N36	N	-0.038277	-0.216534	0.358026
C37	C	-0.014825	-0.187763	0.310618
C38	C	0.412138	-0.245272	0.405321
C39	C	0.459056	-0.245270	0.405308
C40	C	0.459042	-0.187729	0.310501
C41	C	0.412123	-0.187734	0.310511
C42	C	0.388672	-0.216503	0.357926
C43	C	-0.113351	-0.187777	0.310640
C44	C	-0.160271	-0.187786	0.310651
C45	C	-0.160253	-0.245325	0.405461
C46	C	-0.113337	-0.245318	0.405447
C47	C	-0.089888	-0.216540	0.358035
O48	O	-0.039108	-0.269767	0.445702
O49	O	-0.039099	-0.163294	0.270319
C50	C	0.172839	-0.187746	0.310579
C51	C	0.196302	-0.216511	0.357978
C52	C	0.172850	-0.245282	0.405386
C53	C	0.243220	-0.216509	0.357965
C54	C	0.266672	-0.187739	0.310557
C55	C	0.243206	-0.158970	0.263162
C56	C	0.196291	-0.158975	0.263171
C57	C	0.196316	-0.274050	0.452781
C58	C	0.243232	-0.274043	0.452767
C59	C	0.266684	-0.245273	0.405359
C60	C	0.649096	-0.333245	0.357908
C61	C	0.649108	-0.383179	0.357906
C62	C	0.677896	-0.692789	0.405552
C63	C	0.677945	-0.880462	0.405597
O64	O	0.702355	-0.904698	0.446061
N65	N	0.649241	-0.903964	0.358053
C66	C	0.620520	-0.880546	0.310498
O67	O	0.596104	-0.904842	0.270065
C68	C	0.620470	-0.692874	0.310457
C69	C	0.649179	-0.669373	0.357999
C70	C	0.706603	-0.669289	0.453091
C71	C	0.706592	-0.622373	0.453076
C72	C	0.677875	-0.598958	0.405523
C73	C	0.649168	-0.622458	0.357985
C74	C	0.591747	-0.669456	0.262906
C75	C	0.591736	-0.622535	0.262902
C76	C	0.620446	-0.599035	0.310444
C77	C	0.620440	-0.552127	0.310417
N78	N	0.649144	-0.528625	0.357961
C79	C	0.677861	-0.552040	0.405514
C80	C	0.620550	-0.979076	0.310521
C81	C	0.620563	-1.025994	0.310530
C82	C	0.677987	-1.025907	0.405631
C83	C	0.677976	-0.978988	0.405617
C84	C	0.649254	-0.955574	0.358065
C85	C	0.677837	-0.453514	0.405480
C86	C	0.677825	-0.406595	0.405459
C87	C	0.620399	-0.406686	0.310362
C88	C	0.620413	-0.453601	0.310379
C89	C	0.649133	-0.477014	0.357944
O90	O	0.596040	-0.527862	0.269980
O91	O	0.702267	-0.527735	0.445953
C92	C	0.677907	-0.739704	0.405567
C93	C	0.649200	-0.763204	0.358028
C94	C	0.620483	-0.739789	0.310475
C95	C	0.649213	-0.810122	0.358037
C96	C	0.677931	-0.833537	0.405590
C97	C	0.706635	-0.810035	0.453134
C98	C	0.706624	-0.763119	0.453120
C99	C	0.591779	-0.763292	0.262931
C100	C	0.591792	-0.810207	0.262949
C101	C	0.620510	-0.833622	0.310502
C102	C	0.766343	-0.216546	0.358032
C103	C	0.816277	-0.216556	0.358059
C104	C	0.649182	-0.216502	0.551676
C105	C	0.649190	-0.216494	0.634222
C106	C	0.649245	-0.099344	0.358049
C107	C	0.649280	-0.049409	0.358083
C108	C	0.649173	-0.216510	0.165018
C109	C	0.649252	-0.216392	0.082473
C110	C	0.619183	-0.246455	0.833637
C111	C	0.660169	-0.257442	0.883039
C112	C	0.649212	-0.216460	0.785352
C113	C	0.608248	-0.205460	0.883032
C114	C	0.649229	-0.216427	0.931338
C115	C	0.690219	-0.227468	0.833667
C116	C	0.638270	-0.175467	0.833656
C117	C	0.679285	-0.186438	0.883036
C118	C	0.649201	-0.216479	0.701254
C119	C	0.649245	-0.216408	1.015434
H120	H	0.393022	-0.164307	0.271913
H121	H	0.724879	-0.236797	0.812074
H122	H	0.478144	-0.164304	0.271899
H123	H	0.568393	-0.744231	0.224208
H124	H	0.597160	-0.960015	0.271797
H125	H	0.121576	-0.297484	0.491416
H126	H	0.628993	-0.140825	0.811948
H127	H	0.573599	-0.196171	0.904717
H128	H	0.701353	-0.959857	0.444330
H129	H	0.568346	-0.603473	0.224180
H130	H	-0.179373	-0.164359	0.272047
H131	H	0.730002	-0.743989	0.491833
H132	H	0.121549	-0.135555	0.224584
H133	H	0.701221	-0.472571	0.444217
H134	H	0.704715	-0.161058	0.904589
H135	H	0.701205	-0.387462	0.444173
H136	H	0.729987	-0.688348	0.491819
H137	H	-0.094264	-0.164341	0.272036
H138	H	0.729968	-0.603242	0.491791
H139	H	0.478156	-0.268700	0.443901
H140	H	0.036445	-0.135566	0.224597
H141	H	0.701370	-1.044980	0.444349
H142	H	0.593813	-0.271854	0.811947
H143	H	0.568369	-0.688582	0.224192
H144	H	0.036468	-0.297484	0.491439
H145	H	-0.094232	-0.268746	0.444041
H146	H	0.393048	-0.268702	0.443934
H147	H	0.568415	-0.829337	0.224227
H148	H	-0.179356	-0.268751	0.444056
H149	H	0.597039	-0.472736	0.271661
H150	H	0.597190	-1.045124	0.271809
H151	H	0.262309	-0.135546	0.224558
H152	H	0.177191	-0.135550	0.224571
H153	H	0.262332	-0.297473	0.491368
H154	H	0.730019	-0.829108	0.491851
H155	H	0.177226	-0.297479	0.491387
H156	H	0.597020	-0.387614	0.271642
H157	H	0.669434	-0.292094	0.904730
