data_functionalizedCrystal
_audit_creation_method	'MofGen! by Chris Wilmer'
_symmetry_space_group_name_H-M	'P1'
_symmetry_Int_Tables_number	1
_symmetry_cell_setting	triclinic
loop_
_symmetry_equiv_pos_as_xyz
  x,y,z
_cell_length_a	6.817900
_cell_length_b	10.992421
_cell_length_c	10.943624
_cell_angle_alpha	91.800796
_cell_angle_beta	108.838799
_cell_angle_gamma	108.764763
loop_
_atom_site_label
_atom_site_type_symbol
_atom_site_fract_x
_atom_site_fract_y
_atom_site_fract_z
V1	V	-4.115111	-0.177727	-0.402533
O2	O	-4.073223	0.008575	-0.394889
O3	O	-4.092684	-0.352436	-0.399762
O4	O	-4.093080	-0.174978	-0.578100
O5	O	-4.072824	-0.170111	-0.215317
V6	V	-4.591957	-0.155445	-0.380143
O7	O	-4.391017	-0.226605	-0.451648
O8	O	-4.766248	-0.106567	-0.331028
O9	O	-4.391177	0.019264	-0.382914
O10	O	-4.751242	-0.341747	-0.387787
O11	O	-4.751641	-0.163061	-0.567359
O12	O	-4.390782	-0.158194	-0.204576
C13	C	-3.943150	-0.395027	-0.393408
C14	C	-4.006276	-0.537854	-0.392312
C15	C	-3.873921	-0.733142	-0.383483
C16	C	-3.807840	-0.584497	-0.384111
C17	C	-4.076627	-0.576499	-0.271911
C18	C	-4.140860	-0.725043	-0.270636
C19	C	-4.272894	-0.763604	-0.517452
C20	C	-4.203846	-0.615090	-0.520065
C21	C	-3.943653	-0.168660	-0.620893
C22	C	-4.007095	-0.167568	-0.764420
C23	C	-3.851941	-0.160217	-0.841568
C24	C	-4.041064	-0.269328	-0.947547
C25	C	-3.931042	-0.056525	-0.914182
C26	C	-4.195429	-0.276781	-0.868522
C27	C	-4.085327	-0.063882	-0.835133
C28	C	-4.274586	-0.173023	-0.941083
C29	C	-4.204054	0.061848	-0.389265
C30	C	-4.120168	0.204674	-0.390368
C31	C	-4.203550	-0.164516	-0.161776
C32	C	-4.119345	-0.165601	-0.018248
H33	H	-3.935835	-0.522269	-0.177332
H34	H	-4.317071	-0.765926	-0.270446
H35	H	-4.453889	-0.178464	-0.984327
C36	C	-4.453556	-0.597644	-0.388409
C37	C	-4.273223	-0.535678	-0.273782
H38	H	-4.574919	-0.572433	-0.389570
H39	H	-4.494367	-0.689143	-0.391373
H40	H	-4.413684	-0.573361	-0.462022
H41	H	-4.313089	-0.559969	-0.200168
H42	H	-4.232408	-0.444159	-0.270805
H43	H	-4.266751	-0.813113	-0.608557
H44	H	-4.155037	-0.591186	-0.609143
H45	H	-4.353656	-0.584881	-0.533511
H46	H	-4.452757	-0.804720	-0.523763
H47	H	-3.672752	-0.154949	-0.798120
C48	C	-3.796113	-0.379703	-0.963128
C49	C	-4.016709	-0.386573	-1.013631
H50	H	-3.781069	-0.452079	-1.003928
H51	H	-3.754042	-0.380819	-0.871653
H52	H	-3.703628	-0.301558	-0.979573
H53	H	-4.109193	-0.464714	-0.997177
H54	H	-4.058806	-0.385469	-1.105128
H55	H	-4.103292	0.022977	-0.786159
C56	C	-4.284240	-0.402525	-0.705710
C57	C	-4.345515	-0.402591	-0.840788
H58	H	-4.376883	-0.480200	-0.688590
H59	H	-4.299729	-0.329652	-0.666176
H60	H	-4.134557	-0.397701	-0.670759
H61	H	-4.495194	-0.407406	-0.875738
H62	H	-4.330046	-0.475484	-0.880337
H63	H	-3.819895	0.036539	-0.934954
H64	H	-3.848281	-0.779555	-0.468981
C65	C	-3.671373	-0.415440	-0.501111
C66	C	-3.731115	-0.549706	-0.500300
H67	H	-3.624062	-0.393974	-0.572864
H68	H	-3.554267	-0.371036	-0.421954
H69	H	-3.795291	-0.390258	-0.509086
H70	H	-3.607191	-0.574886	-0.492314
H71	H	-3.848232	-0.594125	-0.579477
C72	C	-3.771626	-0.895368	-0.262757
C73	C	-3.717342	-0.760879	-0.259740
H74	H	-3.674977	-0.912485	-0.186351
H75	H	-3.756647	-0.931566	-0.337756
H76	H	-3.920065	-0.933259	-0.266188
H77	H	-3.568908	-0.722989	-0.256318
H78	H	-3.732302	-0.724665	-0.184720
C79	C	-3.844318	-0.629209	-0.066155
C80	C	-3.991000	-0.748708	-0.141593
H81	H	-3.751787	-0.643818	0.013507
H82	H	-3.925868	-0.579847	-0.047943
H83	H	-3.755794	-0.582930	-0.112864
H84	H	-4.079536	-0.794984	-0.094888
H85	H	-3.909442	-0.798091	-0.159802
H86	H	-3.658963	-0.532063	-0.292386
