data_functionalizedCrystal
_audit_creation_method	'MofGen! by Chris Wilmer'
_symmetry_space_group_name_H-M	'P1'
_symmetry_Int_Tables_number	1
_symmetry_cell_setting	triclinic
loop_
_symmetry_equiv_pos_as_xyz
  x,y,z
_cell_length_a	21.395364
_cell_length_b	13.031981
_cell_length_c	21.395356
_cell_angle_alpha	82.790965
_cell_angle_beta	89.976233
_cell_angle_gamma	97.189901
loop_
_atom_site_label
_atom_site_type_symbol
_atom_site_fract_x
_atom_site_fract_y
_atom_site_fract_z
Zn1	Zn	0.926239	-0.416181	-0.322560
Zn2	Zn	1.426239	0.083819	0.177440
Zn3	Zn	0.912866	-0.590967	-0.204468
Zn4	Zn	1.412866	-0.090967	0.295532
Zn5	Zn	0.821454	-0.416204	-0.217795
Zn6	Zn	1.321454	0.083796	0.282205
Zn7	Zn	0.808151	-0.590907	-0.309213
Zn8	Zn	1.308151	-0.090907	0.190787
O9	O	0.867178	-0.503565	-0.263509
O10	O	1.367178	-0.003565	0.236491
O11	O	1.012142	-0.439382	-0.306904
O12	O	1.512142	0.060618	0.193096
O13	O	0.900711	-0.567819	-0.118555
O14	O	1.400711	-0.067819	0.381445
O15	O	0.846518	-0.269939	-0.242856
O16	O	1.346518	0.230061	0.257144
O17	O	1.002317	-0.567797	-0.220142
O18	O	1.502317	-0.067797	0.279858
O19	O	0.923503	-0.269922	-0.319827
O20	O	1.423503	0.230078	0.180173
O21	O	0.833551	-0.439421	-0.128347
O22	O	1.333551	0.060579	0.371653
O23	O	0.732013	-0.439363	-0.229913
O24	O	1.232013	0.060637	0.270087
O25	O	0.823845	-0.567695	-0.398664
O26	O	1.323845	-0.067695	0.101336
O27	O	0.722239	-0.567717	-0.297077
O28	O	1.222239	-0.067717	0.202923
O29	O	0.910604	-0.439324	-0.408470
O30	O	1.410604	0.060676	0.091530
O31	O	0.887811	-0.737221	-0.207199
O32	O	1.387811	-0.237221	0.292801
O33	O	0.810877	-0.737177	-0.284154
O34	O	1.310877	-0.237177	0.215846
C35	C	0.704392	-0.503537	-0.263493
C36	C	1.204392	-0.003537	0.236507
C37	C	0.634750	-0.503550	-0.263499
C38	C	1.134750	-0.003550	0.236501
C39	C	0.127870	-0.570521	-0.298433
C40	C	0.627870	-0.070521	0.201567
C41	C	0.193306	-0.570521	-0.298427
C42	C	0.693306	-0.070521	0.201573
C43	C	0.231109	-0.503588	-0.263527
C44	C	0.731109	-0.003588	0.236473
C45	C	0.203470	-0.436668	-0.228619
C46	C	0.703470	0.063332	0.271381
C47	C	0.138035	-0.436677	-0.228621
C48	C	0.638035	0.063323	0.271379
C49	C	0.341953	-0.409395	-0.265851
C50	C	0.841953	0.090605	0.234149
C51	C	0.407386	-0.409384	-0.265853
C52	C	0.907386	0.090616	0.234147
C53	C	0.432932	-0.503560	-0.263516
C54	C	0.932932	-0.003560	0.236484
C55	C	0.393035	-0.597750	-0.261189
C56	C	0.893035	-0.097750	0.238811
C57	C	0.327600	-0.597759	-0.261191
C58	C	0.827600	-0.097759	0.238809
C59	C	0.302062	-0.503571	-0.263520
C60	C	0.802062	-0.003571	0.236480
C61	C	0.531515	-0.570481	-0.298411
C62	C	1.031515	-0.070481	0.201589
C63	C	0.596951	-0.570483	-0.298400
C64	C	1.096951	-0.070483	0.201600
C65	C	0.607115	-0.436620	-0.228596
C66	C	1.107115	0.063380	0.271404
C67	C	0.541679	-0.436628	-0.228603
C68	C	1.041679	0.063372	0.271397
C69	C	0.503883	-0.503557	-0.263514
C70	C	1.003883	-0.003557	0.236486
C71	C	0.846467	-0.775124	-0.242796
C72	C	1.346467	-0.275124	0.257204
C73	C	0.837664	-0.891298	-0.233956
C74	C	1.337664	-0.391298	0.266044
C75	C	0.871805	-0.943000	-0.268135
C76	C	1.371805	-0.443000	0.231865
C77	C	0.862708	-1.063072	-0.258999
C78	C	1.362708	-0.563072	0.241001
C79	C	1.030599	-0.503594	-0.263525
C80	C	1.530599	-0.003594	0.236475
C81	C	1.100239	-0.503606	-0.263532
C82	C	1.600239	-0.003606	0.236468
C83	C	0.867232	-0.503500	-0.426937
C84	C	1.367232	-0.003500	0.073063
C85	C	0.867255	-0.503472	-0.496581
C86	C	1.367255	-0.003472	0.003419
C87	C	0.887986	-0.230946	-0.284317
C88	C	1.387986	0.269054	0.215683
C89	C	0.896854	-0.114771	-0.293184
C90	C	1.396854	0.385229	0.206816
C91	C	0.832296	-0.436608	-0.534383
C92	C	1.332296	0.063392	-0.034383
C93	C	0.832295	-0.436589	-0.599820
C94	C	1.332295	0.063411	-0.099820
C95	C	0.867266	-0.503423	-0.627453
C96	C	1.367266	-0.003423	-0.127453
C97	C	0.902226	-0.570300	-0.589642
C98	C	1.402226	-0.070300	-0.089642
C99	C	0.902221	-0.570325	-0.524206
C100	C	1.402221	-0.070325	-0.024206
C101	C	0.923093	-0.511643	-0.730513
C102	C	1.423093	-0.011643	-0.230513
C103	C	0.923100	-0.511611	-0.795949
C104	C	1.423100	-0.011611	-0.295949
C105	C	0.867281	-0.503352	-0.829279
C106	C	1.367281	-0.003352	-0.329279
C107	C	0.811455	-0.495104	-0.797168
C108	C	1.311455	0.004896	-0.297168
C109	C	0.811450	-0.495129	-0.731732
C110	C	1.311450	0.004871	-0.231732
C111	C	0.867275	-0.503404	-0.698407
C112	C	1.367275	-0.003404	-0.198407
C113	C	0.832318	-0.436463	-0.938036
C114	C	1.332318	0.063537	-0.438036
C115	C	0.832316	-0.436451	-1.003473
C116	C	1.332316	0.063549	-0.503473
C117	C	0.902253	-0.570157	-0.993295
C118	C	1.402253	-0.070157	-0.493295
C119	C	0.902250	-0.570174	-0.927858
C120	C	1.402250	-0.070174	-0.427858
C121	C	0.867283	-0.503322	-0.900233
C122	C	1.367283	-0.003322	-0.400233
C123	C	0.867165	-0.503554	-0.100722
C124	C	1.367165	-0.003554	0.399278
C125	C	0.867286	-0.503287	-0.031102
C126	C	1.367286	-0.003287	0.468898
H127	H	0.500740	-0.624980	-0.326837
H128	H	1.000740	-0.124980	0.173163
C129	C	0.627345	-0.644104	-0.336792
C130	C	1.127345	-0.144104	0.163208
N131	N	0.650237	-0.699557	-0.365710
N132	N	1.150237	-0.199557	0.134290
H133	H	0.803846	-0.382029	-0.915542
H134	H	1.303846	0.117971	-0.415542
H135	H	0.907768	-0.898374	-0.304164
H136	H	1.407768	-0.398374	0.195836
H137	H	0.932819	-1.070148	-0.329215
H138	H	1.432819	-0.570148	0.170785
C139	C	0.940598	-0.643959	-0.620029
C140	C	1.440598	-0.143959	-0.120029
N141	N	0.969464	-0.699495	-0.642912
N142	N	1.469464	-0.199495	-0.142912
H143	H	0.801696	-0.935926	-0.197933
H144	H	1.301696	-0.435926	0.302067
C145	C	0.793826	-0.363077	-0.503999
C146	C	1.293826	0.136923	-0.003999
N147	N	0.764849	-0.307695	-0.481112
N148	N	1.264849	0.192305	0.018888
H149	H	0.637893	-0.382125	-0.200178
H150	H	1.137893	0.117875	0.299822
C151	C	0.245055	-0.363034	-0.190234
C152	C	0.745055	0.136966	0.309766
N153	N	0.276377	-0.307571	-0.161321
N154	N	0.776377	0.192429	0.338679
H155	H	0.968552	-0.518359	-0.703382
H156	H	1.468552	-0.018359	-0.203382
H157	H	0.215808	-0.625011	-0.326849
H158	H	0.715808	-0.125011	0.173151
H159	H	0.115539	-0.382184	-0.200201
H160	H	0.615539	0.117816	0.299799
C161	C	0.511285	-0.363001	-0.190218
C162	C	1.011285	0.136999	0.309782
N163	N	0.488392	-0.307542	-0.161305
N164	N	0.988392	0.192458	0.338695
H165	H	0.803844	-0.382006	-1.034251
H166	H	1.303844	0.117994	-0.534251
C167	C	0.814132	-1.123354	-0.210311
C168	C	1.314132	-0.623354	0.289689
N169	N	0.777552	-1.168760	-0.173633
N170	N	1.277552	-0.668760	0.326367
H171	H	0.803829	-0.382135	-0.630605
H172	H	1.303829	0.117865	-0.130605
H173	H	0.765995	-0.488415	-0.705589
H174	H	1.265995	0.011585	-0.205589
C175	C	0.940695	-0.643862	-0.482623
C176	C	1.440695	-0.143862	0.017377
N177	N	0.969680	-0.699243	-0.451303
N178	N	1.469680	-0.199243	0.048697
C179	C	0.750048	-0.486029	-0.833826
C180	C	1.250048	0.013971	-0.333826
N181	N	0.703798	-0.479196	-0.861439
N182	N	1.203798	0.020804	-0.361439
H183	H	0.097100	-0.625023	-0.326858
H184	H	0.597100	-0.125023	0.173142
H185	H	0.930728	-0.624572	-1.015793
H186	H	1.430728	-0.124572	-0.515793
H187	H	0.930719	-0.624620	-0.897079
H188	H	1.430719	-0.124620	-0.397079
H189	H	0.968557	-0.518322	-0.822089
H190	H	1.468557	-0.018322	-0.322089
H191	H	0.295118	-0.674452	-0.259295
H192	H	0.795118	-0.174452	0.240705
C193	C	0.451267	-0.305774	-0.268414
C194	C	0.951267	0.194226	0.231586
N195	N	0.484316	-0.227732	-0.270341
N196	N	0.984316	0.272268	0.229659
C197	C	0.421128	-0.701353	-0.258617
C198	C	0.921128	-0.201353	0.241383
N199	N	0.442292	-0.779383	-0.256680
N200	N	0.942292	-0.279383	0.243320
H201	H	0.321160	-0.332701	-0.267745
H202	H	0.821160	0.167299	0.232255
