data_functionalizedCrystal
_audit_creation_method	'MofGen! by Chris Wilmer'
_symmetry_space_group_name_H-M	'P1'
_symmetry_Int_Tables_number	1
_symmetry_cell_setting	triclinic
loop_
_symmetry_equiv_pos_as_xyz
  x,y,z
_cell_length_a	12.645035
_cell_length_b	12.645331
_cell_length_c	21.395355
_cell_angle_alpha	89.975263
_cell_angle_beta	89.865636
_cell_angle_gamma	89.851203
loop_
_atom_site_label
_atom_site_type_symbol
_atom_site_fract_x
_atom_site_fract_y
_atom_site_fract_z
Zn1	Zn	0.422203	1.619780	-0.354930
Zn2	Zn	0.922203	2.119780	0.145070
Zn3	Zn	0.599458	1.619246	-0.250432
Zn4	Zn	1.099458	2.119246	0.249568
Zn5	Zn	0.422200	1.442488	-0.250166
Zn6	Zn	0.922200	1.942488	0.249834
Zn7	Zn	0.599427	1.442068	-0.355172
Zn8	Zn	1.099427	1.942068	0.144828
O9	O	0.510822	1.530895	-0.302675
O10	O	1.010822	2.030895	0.197325
O11	O	0.445731	1.768056	-0.341078
O12	O	0.945731	2.268056	0.158922
O13	O	0.575956	1.595752	-0.162719
O14	O	1.075956	2.095752	0.337281
O15	O	0.273849	1.466405	-0.263851
O16	O	0.773849	1.966405	0.236149
O17	O	0.575959	1.767664	-0.264304
O18	O	1.075959	2.267664	0.235696
O19	O	0.273851	1.596661	-0.340821
O20	O	0.773851	2.096661	0.159179
O21	O	0.445726	1.465888	-0.162524
O22	O	0.945726	1.965888	0.337476
O23	O	0.445696	1.294085	-0.264086
O24	O	0.945696	1.794085	0.235914
O25	O	0.575907	1.465689	-0.442818
O26	O	1.075907	1.965689	0.057182
O27	O	0.575904	1.293776	-0.341233
O28	O	1.075904	1.793776	0.158767
O29	O	0.445701	1.596253	-0.442640
O30	O	0.945701	2.096253	0.057360
O31	O	0.747805	1.595344	-0.264538
O32	O	1.247805	2.095344	0.235462
O33	O	0.747783	1.465172	-0.341490
O34	O	1.247783	1.965172	0.158510
C35	C	0.510797	1.255466	-0.302657
C36	C	1.010797	1.755466	0.197343
C37	C	0.510812	1.137636	-0.302664
C38	C	1.010812	1.637636	0.197336
C39	C	0.428522	0.970231	-0.254397
C40	C	0.928522	1.470231	0.245603
C41	C	0.428734	1.092791	-0.254186
C42	C	0.928734	1.592791	0.245814
C43	C	0.622482	1.092857	-0.284798
C44	C	1.122482	1.592857	0.215202
C45	C	0.622033	0.970259	-0.284469
C46	C	1.122033	1.470259	0.215531
C47	C	0.482495	0.970556	-0.368985
C48	C	0.982495	1.470556	0.131015
C49	C	0.480000	1.093167	-0.368612
C50	C	0.980000	1.593167	0.131388
C51	C	0.234309	1.531639	-0.302279
C52	C	0.734309	2.031639	0.197721
C53	C	0.116475	1.531956	-0.302111
C54	C	0.616475	2.031956	0.197889
C55	C	-0.051062	1.612063	-0.351623
C56	C	0.448938	2.112063	0.148377
C57	C	0.071477	1.613528	-0.350807
C58	C	0.571477	2.113528	0.149193
C59	C	0.070326	1.561840	-0.236341
C60	C	0.570326	2.061840	0.263659
C61	C	-0.052260	1.561290	-0.237297
C62	C	0.447740	2.061290	0.262703
C63	C	-0.049066	1.418225	-0.319875
C64	C	0.450934	1.918225	0.180125
C65	C	0.073549	1.419961	-0.320658
C66	C	0.573549	1.919961	0.179342
C67	C	0.786260	1.530183	-0.303083
C68	C	1.286260	2.030183	0.196917
C69	C	0.904094	1.529975	-0.303278
C70	C	1.404094	2.029975	0.196722
C71	C	0.510801	1.530983	-0.466098
C72	C	1.010801	2.030983	0.033902
C73	C	0.510792	1.531021	-0.535740
C74	C	1.010792	2.031021	-0.035740
C75	C	0.510848	1.807401	-0.302694
C76	C	1.010848	2.307401	0.197306
C77	C	0.510859	1.925231	-0.302702
C78	C	1.010859	2.425231	0.197298
C79	C	0.442991	1.599003	-0.568361
C80	C	0.942991	2.099003	-0.068361
C81	C	0.442945	1.599002	-0.633797
C82	C	0.942945	2.099002	-0.133797
C83	C	0.510719	1.531029	-0.666608
C84	C	1.010719	2.031029	-0.166608
C85	C	0.578525	1.463034	-0.633978
C86	C	1.078525	1.963034	-0.133978
C87	C	0.578561	1.463030	-0.568544
C88	C	1.078561	1.963030	-0.068544
C89	C	0.606174	1.522412	-0.770424
C90	C	1.106174	2.022412	-0.270424
C91	C	0.606140	1.522424	-0.835857
C92	C	1.106140	2.022424	-0.335857
C93	C	0.510607	1.531036	-0.868429
C94	C	1.010607	2.031036	-0.368429
C95	C	0.415106	1.539659	-0.835559
C96	C	0.915106	2.039659	-0.335559
C97	C	0.415142	1.539655	-0.770125
C98	C	0.915142	2.039655	-0.270125
C99	C	0.510687	1.531026	-0.737560
C100	C	1.010687	2.031026	-0.237560
C101	C	0.442751	1.599020	-0.972003
C102	C	0.942751	2.099020	-0.472003
C103	C	0.442704	1.599012	-1.037439
C104	C	0.942704	2.099012	-0.537439
C105	C	0.578293	1.463050	-1.037620
C106	C	1.078293	1.963050	-0.537620
C107	C	0.578331	1.463053	-0.972184
C108	C	1.078331	1.963053	-0.472184
C109	C	0.510562	1.531044	-0.939380
C110	C	1.010562	2.031044	-0.439380
C111	C	0.510767	1.530869	-0.139887
C112	C	1.010767	2.030869	0.360113
C113	C	0.510478	1.531037	-0.070246
C114	C	1.010478	2.031037	0.429754
H115	H	0.542466	0.941441	-0.404973
H116	H	1.042466	1.441441	0.095027
H117	H	0.633704	1.407687	-0.660698
H118	H	1.133704	1.907687	-0.160698
F119	F	0.650417	1.390700	-1.072536
F120	F	1.150417	1.890700	-0.572536
F121	F	-0.091271	1.668115	-0.218842
F122	F	0.408729	2.168115	0.281158
F123	F	0.650499	1.390700	-0.937465
F124	F	1.150499	1.890700	-0.437465
H125	H	0.099780	1.643223	-0.221644
H126	H	0.599780	2.143223	0.278356
H127	H	0.397823	1.122461	-0.382087
H128	H	0.897823	1.622461	0.117913
H129	H	0.345925	1.123083	-0.265365
H130	H	0.845925	1.623083	0.234635
H131	H	0.447059	0.939338	-0.205564
H132	H	0.947059	1.439338	0.294436
F133	F	0.653475	0.932738	-0.221139
F134	F	1.153475	1.432738	0.278861
F135	F	0.707780	1.513255	-0.870833
F136	F	1.207780	2.013255	-0.370833
H137	H	0.345463	0.940959	-0.265455
H138	H	0.845463	1.440959	0.234545
F139	F	-0.087833	1.381798	-0.381932
F140	F	0.412167	1.881798	0.118068
H141	H	0.402487	0.939844	-0.385266
H142	H	0.902487	1.439844	0.114734
H143	H	0.387728	1.654358	-0.660362
H144	H	0.887728	2.154358	-0.160362
F145	F	0.650727	1.390671	-0.533825
F146	F	1.150727	1.890671	-0.033825
F147	F	0.113162	1.390447	-0.383948
F148	F	0.613162	1.890447	0.116052
H149	H	0.447480	1.122022	-0.205064
H150	H	0.947480	1.622022	0.294936
F151	F	0.707863	1.513269	-0.735765
F152	F	1.207863	2.013269	-0.235765
F153	F	0.654470	1.132844	-0.222149
F154	F	1.154470	1.632844	0.277851
H155	H	0.685457	0.940471	-0.318126
H156	H	1.185457	1.440471	0.181874
F157	F	0.113651	1.336552	-0.277522
F158	F	0.613651	1.836552	0.222478
H159	H	-0.081996	1.504112	-0.200024
H160	H	0.418004	2.004112	0.299976
F161	F	0.313425	1.548830	-0.870219
F162	F	0.813425	2.048830	-0.370219
F163	F	-0.092893	1.719700	-0.337458
F164	F	0.407107	2.219700	0.162542
F165	F	0.704812	1.130784	-0.329353
F166	F	1.204812	1.630784	0.170647
H167	H	0.099411	1.504466	-0.198998
H168	H	0.599411	2.004466	0.301002
H169	H	0.387486	1.654369	-1.063999
H170	H	0.887486	2.154369	-0.563999
F171	F	-0.086948	1.338337	-0.273823
F172	F	0.413052	1.838337	0.226177
F173	F	0.552673	1.133068	-0.418153
F174	F	1.052673	1.633068	0.081847
F175	F	0.370622	1.671377	-0.937087
F176	F	0.870622	2.171377	-0.437087
H177	H	0.337382	1.546674	-0.743366
H178	H	0.837382	2.046674	-0.243366
F179	F	0.112352	1.589172	-0.414581
F180	F	0.612352	2.089172	0.085419
F181	F	-0.088025	1.587202	-0.416022
F182	F	0.411975	2.087202	0.083978
H183	H	0.099600	1.696910	-0.339497
H184	H	0.599600	2.196910	0.160503
F185	F	0.370860	1.671361	-0.533452
F186	F	0.870860	2.171361	-0.033452
