data_functionalizedCrystal
_audit_creation_method	'MofGen! by Chris Wilmer'
_symmetry_space_group_name_H-M	'P1'
_symmetry_Int_Tables_number	1
_symmetry_cell_setting	triclinic
loop_
_symmetry_equiv_pos_as_xyz
  x,y,z
_cell_length_a	19.288840
_cell_length_b	13.339070
_cell_length_c	18.366186
_cell_angle_alpha	89.997828
_cell_angle_beta	89.983729
_cell_angle_gamma	99.377655
loop_
_atom_site_label
_atom_site_type_symbol
_atom_site_fract_x
_atom_site_fract_y
_atom_site_fract_z
O1	O	0.945910	0.125963	-0.060672
O2	O	0.746967	0.142998	-0.060647
O3	O	0.823606	-0.012676	-0.060655
O4	O	0.869271	0.281637	-0.060665
O5	O	0.823587	-0.012684	0.060445
O6	O	0.746947	0.142990	0.060452
O7	O	0.945891	0.125955	0.060427
Zn8	Zn	0.846416	0.134471	0.079667
Zn9	Zn	0.846442	0.134481	-0.079887
O10	O	0.869251	0.281629	0.060435
C11	C	0.720974	0.142450	-0.000094
C12	C	0.643552	0.140817	-0.000084
C13	C	0.607206	0.140037	-0.066097
C14	C	0.534458	0.138492	-0.066106
C15	C	0.498056	0.137706	-0.000098
C16	C	0.534411	0.138492	0.065924
C17	C	0.607159	0.140048	0.065931
C18	C	0.376704	0.076039	0.050465
C19	C	0.303957	0.074477	0.050455
C20	C	0.273679	0.132913	-0.000117
C21	C	0.316155	0.192898	-0.050692
C22	C	0.388903	0.194453	-0.050685
C23	C	0.419174	0.136020	-0.000098
C24	C	0.158451	0.130458	-0.066144
C25	C	0.085703	0.128919	-0.066150
C26	C	0.085656	0.128910	0.065881
C27	C	0.158405	0.130459	0.065885
C28	C	0.194797	0.131228	-0.000129
C29	C	0.815883	-0.050333	-0.000105
C30	C	0.792890	-0.162527	-0.000105
C31	C	0.971668	-0.528158	-0.000127
C32	C	0.993273	-0.422747	-0.000123
C33	C	0.943179	-0.357687	-0.000119
C34	C	0.871477	-0.398048	-0.000118
C35	C	0.849870	-0.503470	-0.000116
C36	C	0.821381	-0.332999	-0.000108
C37	C	0.749679	-0.373360	-0.000107
C38	C	0.728075	-0.478772	-0.000106
C39	C	0.778169	-0.543832	-0.000111
C40	C	0.842988	-0.227577	-0.000110
C41	C	0.721190	-0.202889	-0.000099
C42	C	0.699585	-0.308300	-0.000103
C43	C	0.971883	0.126503	-0.000127
C44	C	1.049306	0.128136	-0.000142
C45	C	0.876975	0.319286	-0.000117
C46	C	0.899967	0.431480	-0.000121
N47	N	0.846403	0.134464	0.188558
N48	N	0.846459	0.134481	-0.188778
C49	C	0.880361	0.065565	0.226655
C50	C	0.880365	0.065561	0.302883
C51	C	0.846420	0.134472	0.341011
C52	C	0.812455	0.203376	0.302905
C53	C	0.812446	0.203372	0.226678
C54	C	0.855068	0.226564	0.461769
C55	C	0.855082	0.226570	0.537994
C56	C	0.846443	0.134485	0.576118
C57	C	0.837804	0.042391	0.538009
C58	C	0.837795	0.042386	0.461782
C59	C	0.846425	0.134484	0.423666
C60	C	0.880406	0.065576	0.696870
C61	C	0.880404	0.065570	0.773100
C62	C	0.812499	0.203394	0.773120
C63	C	0.812496	0.203391	0.696892
C64	C	0.846453	0.134483	0.658772
H65	H	0.504769	0.137855	0.119668
F66	F	0.408920	0.013840	0.104296
H67	H	0.908018	0.009453	0.333907
F68	F	0.776357	0.276727	0.656343
H69	H	0.862121	0.301558	0.569017
F70	F	1.024973	-0.597404	-0.000120
F71	F	0.864315	0.324582	0.421201
H72	H	0.784815	0.259483	0.333952
F73	F	0.258759	0.010655	0.104292
H74	H	0.056019	0.128276	0.119626
H75	H	0.636833	0.140664	-0.119852
H76	H	0.908009	0.009454	0.195620
F77	F	0.495768	0.137661	-0.136369
H78	H	0.423485	0.243297	-0.091863
H79	H	0.636752	0.140684	0.119688
F80	F	0.283938	0.255098	-0.104517
F81	F	0.776302	0.276707	0.186131
F82	F	0.919296	-0.184633	-0.000110
F83	F	0.916544	-0.007770	0.813647
F84	F	0.623276	-0.351269	-0.000104
F85	F	0.197088	0.131284	0.136147
H86	H	0.960774	-0.271857	-0.000115
H87	H	0.760582	-0.629668	-0.000117
H88	H	1.051653	-0.389892	-0.000122
H89	H	0.669691	-0.511631	-0.000100
F90	F	0.667872	-0.133652	-0.000090
H91	H	0.830759	-0.032600	0.430757
F92	F	0.828613	-0.055621	0.578577
F93	F	0.916543	-0.007766	0.656299
H94	H	0.188085	0.131096	-0.119898
H95	H	0.056112	0.128290	-0.119908
F96	F	0.776367	0.276729	0.813695
