data_functionalizedCrystal
_audit_creation_method	'MofGen! by Chris Wilmer'
_symmetry_space_group_name_H-M	'P1'
_symmetry_Int_Tables_number	1
_symmetry_cell_setting	triclinic
loop_
_symmetry_equiv_pos_as_xyz
  x,y,z
_cell_length_a	10.686220
_cell_length_b	14.908520
_cell_length_c	14.908854
_cell_angle_alpha	90.221665
_cell_angle_beta	82.113811
_cell_angle_gamma	97.432447
loop_
_atom_site_label
_atom_site_type_symbol
_atom_site_fract_x
_atom_site_fract_y
_atom_site_fract_z
Zn1	Zn	1.876393	-0.231817	0.420680
Zn2	Zn	1.874828	-0.390950	0.279083
Zn3	Zn	1.675036	-0.250916	0.281967
Zn4	Zn	1.650513	-0.393788	0.442347
O5	O	1.769193	-0.316868	0.356019
O6	O	2.054331	-0.243745	0.391622
O7	O	1.857933	-0.379180	0.153088
O8	O	1.712665	-0.121992	0.292507
O9	O	2.053181	-0.360660	0.287592
O10	O	1.860601	-0.107960	0.394418
O11	O	1.711147	-0.276297	0.155206
O12	O	1.493638	-0.279049	0.313516
O13	O	1.670869	-0.365497	0.565851
O14	O	1.475621	-0.384017	0.431347
O15	O	1.836822	-0.246497	0.549932
O16	O	1.834154	-0.517717	0.308602
O17	O	1.669351	-0.519802	0.428551
C18	C	1.438438	-0.333914	0.375096
C19	C	1.296936	-0.341227	0.383280
C20	C	1.748954	-0.551529	0.370632
C21	C	1.740411	-0.651910	0.376907
C22	C	1.896126	-0.838291	0.263879
C23	C	1.888103	-0.932609	0.269771
C24	C	1.716348	-0.934863	0.394589
C25	C	1.724371	-0.840545	0.388696
C26	C	1.814262	-0.792263	0.323338
C27	C	1.822278	-0.697945	0.317442
C28	C	1.650530	-0.700200	0.442262
C29	C	1.642507	-0.794517	0.448155
C30	C	2.101239	-0.299756	0.336868
C31	C	2.242737	-0.292463	0.328707
C32	C	1.751284	-0.304183	0.591576
C33	C	1.743653	-0.298778	0.691957
C34	C	1.789543	-0.081288	0.341367
C35	C	1.798215	0.019103	0.335123
C36	C	1.787110	-0.329434	0.121370
C37	C	1.795010	-0.334573	0.020961
C38	C	1.882190	-0.395748	0.878376
C39	C	1.875024	-0.390671	0.972692
C40	C	1.722161	-0.283544	0.974906
C41	C	1.729327	-0.288621	0.880590
C42	C	1.809343	-0.344725	0.832328
C43	C	1.816502	-0.349806	0.738011
C44	C	1.663647	-0.242674	0.740226
C45	C	1.656480	-0.237598	0.834542
H46	H	1.895468	-0.658635	0.264222
Br47	Br	1.564724	-0.173463	0.677734
Br48	Br	1.345821	-0.213555	0.240391
Br49	Br	1.520526	-0.860050	0.536855
Br50	Br	1.613595	-0.207396	1.040418
H51	H	1.881662	-0.395484	0.698717
Br52	Br	1.193847	-0.420155	0.471586
H53	H	1.969310	-0.798980	0.210656
Br54	Br	1.999214	-0.995073	0.189078
Br55	Br	1.594384	-1.000402	0.483295
H56	H	1.583867	-0.662714	0.490676
Br57	Br	1.973898	-0.459914	1.035183
Br58	Br	1.547899	-0.161456	0.900048
H59	H	1.947349	-0.441426	0.839080
