data_functionalizedCrystal
_audit_creation_method	'MofGen! by Chris Wilmer'
_symmetry_space_group_name_H-M	'P1'
_symmetry_Int_Tables_number	1
_symmetry_cell_setting	triclinic
loop_
_symmetry_equiv_pos_as_xyz
  x,y,z
_cell_length_a	12.645331
_cell_length_b	12.645330
_cell_length_c	12.645323
_cell_angle_alpha	90.023971
_cell_angle_beta	89.981990
_cell_angle_gamma	89.973403
loop_
_atom_site_label
_atom_site_type_symbol
_atom_site_fract_x
_atom_site_fract_y
_atom_site_fract_z
Zn1	Zn	1.620669	0.422019	-0.599321
Zn2	Zn	1.620524	0.599307	-0.422064
Zn3	Zn	1.443383	0.422060	-0.422080
Zn4	Zn	1.443339	0.599243	-0.599294
O5	O	1.531979	0.510657	-0.510689
O6	O	1.768997	0.445547	-0.575812
O7	O	1.596984	0.575839	-0.273719
O8	O	1.466980	0.273707	-0.445609
O9	O	1.768890	0.575800	-0.445582
O10	O	1.597230	0.273677	-0.575828
O11	O	1.466839	0.445616	-0.273730
O12	O	1.295030	0.445553	-0.445583
O13	O	1.466904	0.575690	-0.747645
O14	O	1.294997	0.575729	-0.575781
O15	O	1.597187	0.445484	-0.747665
O16	O	1.596941	0.747646	-0.445556
O17	O	1.466764	0.747598	-0.575766
C18	C	1.256549	0.510639	-0.510681
C19	C	1.138719	0.510657	-0.510703
C20	C	1.093852	0.592690	-0.592491
C21	C	0.971292	0.593027	-0.592248
C22	C	0.970761	0.540495	-0.398847
C23	C	1.093359	0.541074	-0.399320
C24	C	1.093589	0.398611	-0.539794
C25	C	0.970984	0.399230	-0.542257
C26	C	1.531860	0.786087	-0.510679
C27	C	1.531907	0.903917	-0.510710
C28	C	1.450325	1.071495	-0.592880
C29	C	1.449926	0.948936	-0.592614
C30	C	1.501655	0.948511	-0.398991
C31	C	1.501139	1.071110	-0.399492
C32	C	1.644183	1.071006	-0.539358
C33	C	1.643513	0.948399	-0.541799
C34	C	1.808484	0.510676	-0.510698
C35	C	1.926314	0.510685	-0.510702
C36	C	1.532089	1.234152	-0.510727
C37	C	1.532041	1.116322	-0.510753
C38	C	1.532057	0.510575	-0.787195
C39	C	1.532090	0.510540	-0.905025
C40	C	1.449876	0.592066	-1.072577
C41	C	1.450091	0.592470	-0.950017
C42	C	1.643785	0.540858	-0.949536
C43	C	1.643334	0.541369	-1.072135
C44	C	1.503665	0.398241	-1.072223
C45	C	1.501173	0.398914	-0.949617
C46	C	1.531962	0.510662	-0.235260
C47	C	1.532134	0.510399	-0.117430
H48	H	0.941242	0.574431	-0.675173
F49	F	1.581975	0.318711	-1.110137
F50	F	0.930960	0.315123	-0.470140
F51	F	1.132462	0.568685	-0.701216
H52	H	1.671769	1.101849	-0.619439
F53	F	1.393729	0.369031	-0.911603
F54	F	1.132155	0.466346	-0.316913
H55	H	1.668332	0.621988	-0.918847
F56	F	1.573772	0.315176	-0.909598
H57	H	0.941939	0.376742	-0.624576
H58	H	1.122607	0.337498	-0.480229
H59	H	1.423636	0.370605	-1.103134
F60	F	1.726113	0.466949	-1.110922
F61	F	1.727299	0.908329	-0.469313
F62	F	1.674876	0.648535	-1.109533
F63	F	1.134066	0.700596	-0.567576
F64	F	1.575548	1.109877	-0.316778
F65	F	1.673335	0.910298	-0.649266
F66	F	0.930575	0.646363	-0.366155
F67	F	1.474664	0.909519	-0.700891
F68	F	1.726044	0.465570	-0.911450
H69	H	1.366804	0.573277	-1.102057
H70	H	0.941627	0.482580	-0.336235
F71	F	1.723763	1.108911	-0.461187
H72	H	1.367265	0.573498	-0.919921
H73	H	1.121911	0.622964	-0.374732
F74	F	0.932897	0.701564	-0.567046
F75	F	1.342341	1.111904	-0.568446
H76	H	1.124549	0.371373	-0.619984
H77	H	1.469071	1.100907	-0.675992
H78	H	1.366798	0.919702	-0.573663
H79	H	1.419163	1.099802	-0.375258
H80	H	1.559295	0.919353	-0.336127
H81	H	1.420542	0.917901	-0.374319
F82	F	1.474149	0.700056	-1.112920
H83	H	1.468883	0.675618	-0.920702
