data_functionalizedCrystal
_audit_creation_method	'MofGen! by Chris Wilmer'
_symmetry_space_group_name_H-M	'P1'
_symmetry_Int_Tables_number	1
_symmetry_cell_setting	triclinic
loop_
_symmetry_equiv_pos_as_xyz
  x,y,z
_cell_length_a	14.908783
_cell_length_b	14.908520
_cell_length_c	14.908308
_cell_angle_alpha	83.639235
_cell_angle_beta	90.211273
_cell_angle_gamma	96.791586
loop_
_atom_site_label
_atom_site_type_symbol
_atom_site_fract_x
_atom_site_fract_y
_atom_site_fract_z
Zn1	Zn	1.325980	-0.317645	0.605030
Zn2	Zn	1.659313	0.015689	0.938364
Zn3	Zn	1.992647	0.349022	1.271697
Zn4	Zn	1.325877	-0.460296	0.462395
Zn5	Zn	1.659211	-0.126962	0.795728
Zn6	Zn	1.992544	0.206371	1.129062
Zn7	Zn	1.184353	-0.316662	0.445949
Zn8	Zn	1.517686	0.016671	0.779282
Zn9	Zn	1.851020	0.350005	1.112615
Zn10	Zn	1.165844	-0.477686	0.604959
Zn11	Zn	1.499178	-0.144353	0.938292
Zn12	Zn	1.832511	0.188981	1.271625
O13	O	1.250514	-0.393072	0.529583
O14	O	1.583847	-0.059739	0.862916
O15	O	1.917180	0.273595	1.196250
O16	O	1.452212	-0.329701	0.593023
O17	O	1.785545	0.003632	0.926356
O18	O	2.118879	0.336966	1.259689
O19	O	1.314807	-0.433553	0.333974
O20	O	1.648140	-0.100220	0.667307
O21	O	1.981474	0.233114	1.000641
O22	O	1.210929	-0.189703	0.460198
O23	O	1.544262	0.143630	0.793531
O24	O	1.877596	0.476963	1.126865
O25	O	1.452137	-0.434506	0.488229
O26	O	1.785470	-0.101173	0.821562
O27	O	2.118803	0.232161	1.154896
O28	O	1.314982	-0.190425	0.577075
O29	O	1.648315	0.142908	0.910408
O30	O	1.981648	0.476241	1.243742
O31	O	1.210830	-0.328026	0.321891
O32	O	1.544163	0.005307	0.655224
O33	O	1.877496	0.338641	0.988557
O34	O	1.055652	-0.344889	0.460128
O35	O	1.388985	-0.011555	0.793462
O36	O	1.722319	0.321778	1.126795
O37	O	1.179384	-0.464145	0.731208
O38	O	1.512717	-0.130812	1.064541
O39	O	1.846050	0.202521	1.397874
O40	O	1.042054	-0.463192	0.576952
O41	O	1.375387	-0.129859	0.910286
O42	O	1.708721	0.203474	1.243619
O43	O	1.297035	-0.346564	0.731260
O44	O	1.630368	-0.013230	1.064594
O45	O	1.963701	0.320103	1.397927
O46	O	1.296860	-0.589691	0.488159
O47	O	1.630193	-0.256358	0.821493
O48	O	1.963527	0.076975	1.154826
O49	O	1.179284	-0.602468	0.592900
O50	O	1.512618	-0.269135	0.926233
O51	O	1.845951	0.064199	1.259567
C52	C	1.016119	-0.405822	0.516749
C53	C	1.349452	-0.072488	0.850082
C54	C	1.682785	0.260845	1.183415
C55	C	0.915841	-0.411299	0.511280
C56	C	1.249174	-0.077966	0.844614
C57	C	1.582508	0.255367	1.177947
C58	C	0.727464	-0.312628	0.610312
C59	C	1.060798	0.020705	0.943645
C60	C	1.394131	0.354038	1.276978
C61	C	0.633244	-0.317772	0.605177
C62	C	0.966578	0.015561	0.938510
C63	C	1.299911	0.348895	1.271843
C64	C	0.633180	-0.426725	0.495871
C65	C	0.966513	-0.093391	0.829205
C66	C	1.299847	0.239942	1.162538
C67	C	0.727400	-0.421581	0.501006
C68	C	1.060733	-0.088248	0.834340
C69	C	1.394067	0.245086	1.167673
C70	C	0.774539	-0.364532	0.558229
C71	C	1.107872	-0.031199	0.891563
C72	C	1.441205	0.302135	1.224896
C73	C	0.868760	-0.359394	0.563369
C74	C	1.202093	-0.026060	0.896702
C75	C	1.535426	0.307273	1.230035
C76	C	0.868694	-0.468341	0.454059
C77	C	1.202028	-0.135008	0.787392
C78	C	1.535361	0.198326	1.120726
C79	C	0.774474	-0.473485	0.448924
C80	C	1.107808	-0.140151	0.782257
C81	C	1.441141	0.193182	1.115591
C82	C	1.236076	-0.629032	0.542328
C83	C	1.569409	-0.295699	0.875661
C84	C	1.902743	0.037634	1.208994
C85	C	1.229980	-0.729974	0.547814
C86	C	1.563313	-0.396641	0.881148
C87	C	1.896647	-0.063308	1.214481
C88	C	1.341070	-0.906289	0.449158
C89	C	1.674403	-0.572956	0.782491
C90	C	2.007736	-0.239623	1.115824
C91	C	1.335345	-1.001133	0.454310
C92	C	1.668679	-0.667800	0.787644
C93	C	2.002012	-0.334466	1.120977
C94	C	1.212812	-1.014508	0.563277
C95	C	1.546145	-0.681174	0.896610
C96	C	1.879479	-0.347841	1.229943
C97	C	1.218536	-0.919664	0.558124
C98	C	1.551870	-0.586330	0.891457
C99	C	1.885203	-0.252997	1.224791
C100	C	1.282666	-0.865558	0.501062
C101	C	1.616000	-0.532224	0.834395
C102	C	1.949333	-0.198891	1.167728
C103	C	1.288386	-0.770712	0.495905
C104	C	1.621719	-0.437379	0.829238
C105	C	1.955053	-0.104046	1.162571
C106	C	1.165857	-0.784088	0.604875
C107	C	1.499191	-0.450755	0.938208
C108	C	1.832524	-0.117422	1.271542
C109	C	1.160133	-0.878932	0.610028
C110	C	1.493466	-0.545599	0.943361
C111	C	1.826800	-0.212265	1.276694
C112	C	1.485824	-0.380273	0.542468
C113	C	1.819157	-0.046940	0.875802
C114	C	2.152490	0.286393	1.209135
C115	C	1.586099	-0.374819	0.547959
C116	C	1.919432	-0.041486	0.881293
C117	C	2.252766	0.291847	1.214626
C118	C	1.236156	-0.407404	0.764882
C119	C	1.569489	-0.074071	1.098215
C120	C	1.902823	0.259263	1.431548
C121	C	1.230038	-0.413511	0.865152
C122	C	1.563371	-0.080178	1.198485
C123	C	1.896704	0.253155	1.531819
C124	C	1.265031	-0.156190	0.516810
C125	C	1.598365	0.177143	0.850143
C126	C	1.931698	0.510476	1.183477
C127	C	1.271218	-0.055245	0.511367
C128	C	1.604551	0.278088	0.844700
C129	C	1.937884	0.611421	1.178034
C130	C	1.264871	-0.378727	0.295199
C131	C	1.598205	-0.045394	0.628533
C132	C	1.931538	0.287939	0.961866
C133	C	1.271180	-0.372355	0.194925
C134	C	1.604513	-0.039021	0.528258
C135	C	1.937847	0.294312	0.861592
C136	C	1.341049	-0.302529	1.053626
C137	C	1.674382	0.030804	1.386959
C138	C	2.007716	0.364137	1.720293
C139	C	1.335303	-0.308264	1.147839
C140	C	1.668637	0.025069	1.481172
C141	C	2.001970	0.358402	1.814505
C142	C	1.212797	-0.430712	1.147792
C143	C	1.546130	-0.097379	1.481125
C144	C	1.879463	0.235955	1.814458
C145	C	1.218542	-0.424977	1.053579
C146	C	1.551876	-0.091644	1.386912
C147	C	1.885209	0.241690	1.720246
C148	C	1.282672	-0.360884	1.006499
C149	C	1.616005	-0.027551	1.339833
C150	C	1.949338	0.305782	1.673166
C151	C	1.288421	-0.355154	0.912285
C152	C	1.621754	-0.021821	1.245619
C153	C	1.955088	0.311513	1.578952
C154	C	1.165911	-0.477597	0.912240
C155	C	1.499244	-0.144263	1.245573
C156	C	1.832578	0.189070	1.578906
C157	C	1.160165	-0.483332	1.006452
C158	C	1.493498	-0.149999	1.339786
C159	C	1.826832	0.183335	1.673119
H160	H	0.736082	-0.519929	0.402332
H161	H	1.069415	-0.186596	0.735665
H162	H	1.402748	0.146737	1.068998
H163	H	1.118299	-0.750914	0.647136
H164	H	1.451632	-0.417581	0.980469
H165	H	1.784965	-0.084248	1.313803
H166	H	1.160586	-0.482893	1.186140
H167	H	1.493919	-0.149559	1.519474
H168	H	1.827252	0.183774	1.852807
H169	H	1.107951	-0.535512	1.044797
H170	H	1.441285	-0.202179	1.378131
H171	H	1.774618	0.131154	1.711464
H172	H	0.907139	-0.312942	0.609964
H173	H	1.240472	0.020391	0.943297
H174	H	1.573805	0.353724	1.276630
C175	C	0.920478	-0.525438	0.396766
C176	C	1.253811	-0.192104	0.730100
C177	C	1.587144	0.141229	1.063433
H178	H	0.983344	-0.514203	0.408016
H179	H	1.316677	-0.180869	0.741349
H180	H	1.650010	0.152464	1.074682
H181	H	0.900506	-0.588118	0.412329
H182	H	1.233840	-0.254784	0.745662
H183	H	1.567173	0.078549	1.078996
H184	H	0.909540	-0.509203	0.334605
H185	H	1.242873	-0.175870	0.667938
H186	H	1.576207	0.157463	1.001272
H187	H	1.340639	-0.302968	0.873955
H188	H	1.673973	0.030366	1.207288
H189	H	2.007306	0.363699	1.540621
H190	H	1.393270	-0.250347	1.015294
H191	H	1.726603	0.082986	1.348627
H192	H	2.059936	0.416320	1.681960
C193	C	0.581318	-0.489464	0.432926
C194	C	0.914652	-0.156130	0.766259
C195	C	1.247985	0.177203	1.099592
H196	H	0.518463	-0.485091	0.437331
H197	H	0.851796	-0.151758	0.770664
H198	H	1.185129	0.181575	1.103997
H199	H	0.601262	-0.471547	0.372454
H200	H	0.934596	-0.138214	0.705787
H201	H	1.267929	0.195119	1.039120
H202	H	0.592223	-0.550466	0.450173
H203	H	0.925557	-0.217133	0.783506
H204	H	1.258890	0.116201	1.116840
H205	H	1.340602	-0.726660	0.449439
H206	H	1.673935	-0.393326	0.782773
H207	H	2.007268	-0.059993	1.116106
H208	H	1.382838	-0.260744	1.186205
H209	H	1.716171	0.072590	1.519539
H210	H	2.049505	0.405923	1.852872
C211	C	1.411605	-0.846771	0.386391
C212	C	1.744938	-0.513437	0.719724
C213	C	2.078271	-0.180104	1.053058
H214	H	1.445571	-0.884614	0.356218
H215	H	1.778904	-0.551280	0.689551
H216	H	2.112237	-0.217947	1.022884
H217	H	1.381757	-0.809297	0.343163
H218	H	1.715090	-0.475964	0.676496
H219	H	2.048423	-0.142631	1.009830
H220	H	1.451016	-0.809692	0.421077
H221	H	1.784349	-0.476358	0.754410
H222	H	2.117683	-0.143025	1.087744
H223	H	1.118378	-0.525116	0.873859
H224	H	1.451711	-0.191783	1.207193
H225	H	1.785044	0.141551	1.540526
C226	C	1.089592	-0.938453	0.672786
C227	C	1.422925	-0.605119	1.006120
C228	C	1.756259	-0.271786	1.339453
H229	H	1.094542	-1.000772	0.668418
H230	H	1.427876	-0.667439	1.001751
H231	H	1.761209	-0.334106	1.335084
H232	H	1.099975	-0.925853	0.733285
H233	H	1.433308	-0.592519	1.066618
H234	H	1.766642	-0.259186	1.399952
H235	H	1.030730	-0.925460	0.655358
H236	H	1.364064	-0.592127	0.988692
H237	H	1.697397	-0.258794	1.322025
H238	H	0.594920	-0.275504	0.647585
H239	H	0.928254	0.057829	0.980919
H240	H	1.261587	0.391162	1.314252
C241	C	0.779319	-0.249885	0.673257
C242	C	1.112652	0.083449	1.006591
C243	C	1.445986	0.416782	1.339924
H244	H	0.737788	-0.219707	0.703540
H245	H	1.071121	0.113626	1.036873
H246	H	1.404455	0.446960	1.370207
H247	H	0.811563	-0.285072	0.716388
H248	H	1.144896	0.048262	1.049722
H249	H	1.478230	0.381595	1.383055
H250	H	0.820588	-0.206152	0.638670
H251	H	1.153921	0.127182	0.972004
H252	H	1.487255	0.460515	1.305337
H253	H	1.160606	-1.058577	0.609740
H254	H	1.493939	-0.725243	0.943073
H255	H	1.827273	-0.391910	1.276407
C256	C	1.399584	-1.045935	0.397212
C257	C	1.732918	-0.712602	0.730545
C258	C	2.066251	-0.379269	1.063878
H259	H	1.438591	-1.000125	0.362487
H260	H	1.771924	-0.666792	0.695820
H261	H	2.105257	-0.333458	1.029154
H262	H	1.434525	-1.082854	0.435910
H263	H	1.767858	-0.749520	0.769243
H264	H	2.101191	-0.416187	1.102576
H265	H	1.365265	-1.082457	0.357996
H266	H	1.698599	-0.749124	0.691329
H267	H	2.031932	-0.415790	1.024662
