data_functionalizedCrystal
_audit_creation_method	'MofGen! by Chris Wilmer'
_symmetry_space_group_name_H-M	'P1'
_symmetry_Int_Tables_number	1
_symmetry_cell_setting	triclinic
loop_
_symmetry_equiv_pos_as_xyz
  x,y,z
_cell_length_a	17.077404
_cell_length_b	25.639240
_cell_length_c	17.077396
_cell_angle_alpha	90.038257
_cell_angle_beta	90.018362
_cell_angle_gamma	90.030728
loop_
_atom_site_label
_atom_site_type_symbol
_atom_site_fract_x
_atom_site_fract_y
_atom_site_fract_z
Zn1	Zn	1.200001	-0.208179	0.443765
Zn2	Zn	1.533334	0.125154	0.777099
Zn3	Zn	1.866667	0.458488	1.110432
Zn4	Zn	1.199885	-0.295617	0.312477
Zn5	Zn	1.533219	0.037717	0.645810
Zn6	Zn	1.866552	0.371050	0.979144
Zn7	Zn	1.068733	-0.208194	0.312516
Zn8	Zn	1.402066	0.125139	0.645849
Zn9	Zn	1.735399	0.458473	0.979183
Zn10	Zn	1.068678	-0.295582	0.443703
Zn11	Zn	1.402011	0.037751	0.777037
Zn12	Zn	1.735345	0.371084	1.110370
O13	O	1.134324	-0.251893	0.378115
O14	O	1.467657	0.081440	0.711449
O15	O	1.800991	0.414774	1.044782
O16	O	1.309832	-0.219786	0.426360
O17	O	1.643166	0.113547	0.759693
O18	O	1.976499	0.446881	1.093026
O19	O	1.182462	-0.284041	0.202635
O20	O	1.515795	0.049293	0.535969
O21	O	1.849129	0.382626	0.869302
O22	O	1.086217	-0.135027	0.329969
O23	O	1.419550	0.198307	0.663302
O24	O	1.752883	0.531640	0.996636
O25	O	1.309747	-0.284026	0.329902
O26	O	1.643081	0.049307	0.663236
O27	O	1.976414	0.382641	0.996569
O28	O	1.182659	-0.135016	0.426397
O29	O	1.515992	0.198317	0.759731
O30	O	1.849326	0.531651	1.093064
O31	O	1.086105	-0.219811	0.202664
O32	O	1.419438	0.113522	0.535997
O33	O	1.752771	0.446855	0.869331
O34	O	0.958878	-0.219778	0.329909
O35	O	1.292212	0.113555	0.663242
O36	O	1.625545	0.446889	0.996575
O37	O	1.086124	-0.283967	0.553559
O38	O	1.419457	0.049366	0.886892
O39	O	1.752790	0.382699	1.220225
O40	O	0.958838	-0.283982	0.426291
O41	O	1.292172	0.049352	0.759625
O42	O	1.625505	0.382685	1.092958
O43	O	1.182606	-0.219753	0.553604
O44	O	1.515939	0.113581	0.886938
O45	O	1.849273	0.446914	1.220271
O46	O	1.182409	-0.368777	0.329842
O47	O	1.515742	-0.035444	0.663176
O48	O	1.849076	0.297889	0.996509
O49	O	1.086012	-0.368752	0.426254
O50	O	1.419345	-0.035419	0.759587
O51	O	1.752678	0.297915	1.092920
C52	C	0.930376	-0.251878	0.378098
C53	C	1.263710	0.081455	0.711431
C54	C	1.597043	0.414788	1.044765
C55	C	0.843126	-0.251884	0.378109
C56	C	1.176460	0.081449	0.711442
C57	C	1.509793	0.414782	1.044776
C58	C	0.802181	-0.218494	0.428411
C59	C	1.135515	0.114839	0.761744
C60	C	1.468848	0.448173	1.095077
C61	C	0.720201	-0.218498	0.428414
C62	C	1.053534	0.114836	0.761748
C63	C	1.386867	0.448169	1.095081
C64	C	0.679167	-0.251894	0.378120
C65	C	1.012500	0.081439	0.711453
C66	C	1.345834	0.414772	1.044786
C67	C	0.720118	-0.285286	0.327812
C68	C	1.053451	0.048047	0.661146
C69	C	1.386785	0.381381	0.994479
C70	C	0.802097	-0.285280	0.327805
C71	C	1.135430	0.048054	0.661139
C72	C	1.468764	0.381387	0.994472
C73	C	0.549248	-0.285298	0.327832
C74	C	0.882581	0.048035	0.661165
C75	C	1.215915	0.381369	0.994498
C76	C	0.467263	-0.285305	0.327840
C77	C	0.800597	0.048028	0.661173
C78	C	1.133930	0.381362	0.994506
C79	C	0.467352	-0.218516	0.428441
C80	C	0.800685	0.114818	0.761774
C81	C	1.134018	0.448151	1.095108
C82	C	0.549331	-0.218509	0.428434
C83	C	0.882664	0.114824	0.761767
C84	C	1.215997	0.448157	1.095101
C85	C	0.590276	-0.251902	0.378127
C86	C	0.923609	0.081431	0.711461
C87	C	1.256943	0.414765	1.044794
C88	C	1.134213	-0.387736	0.378054
C89	C	1.467547	-0.054402	0.711387
C90	C	1.800880	0.278931	1.044721
C91	C	1.134238	-0.445850	0.378054
C92	C	1.467571	-0.112516	0.711387
C93	C	1.800904	0.220817	1.044721
C94	C	1.184566	-0.806168	0.428416
C95	C	1.517900	-0.472835	0.761750
C96	C	1.851233	-0.139502	1.095083
C97	C	1.184590	-0.860773	0.428432
C98	C	1.517923	-0.527439	0.761766
C99	C	1.851256	-0.194106	1.095099
O100	O	1.227249	-0.888972	0.471189
O101	O	1.560582	-0.555639	0.804522
O102	O	1.893916	-0.222305	1.137856
N103	N	1.134433	-0.888132	0.378191
N104	N	1.467766	-0.554799	0.711525
N105	N	1.801100	-0.221465	1.044858
C106	C	1.084244	-0.860884	0.327937
C107	C	1.417578	-0.527551	0.661270
C108	C	1.750911	-0.194218	0.994603
O109	O	1.041584	-0.889169	0.285205
O110	O	1.374917	-0.555836	0.618538
O111	O	1.708251	-0.222503	0.951872
C112	C	1.084218	-0.806281	0.327925
C113	C	1.417551	-0.472948	0.661259
C114	C	1.750885	-0.139614	0.994592
C115	C	1.134383	-0.778924	0.378164
C116	C	1.467717	-0.445591	0.711497
C117	C	1.801050	-0.112258	1.044831
C118	C	1.234727	-0.778812	0.478651
C119	C	1.568061	-0.445479	0.811985
C120	C	1.901394	-0.112145	1.145318
C121	C	1.234705	-0.724211	0.478634
C122	C	1.568038	-0.390878	0.811968
C123	C	1.901372	-0.057545	1.145301
C124	C	1.184522	-0.696967	0.428382
C125	C	1.517855	-0.363634	0.761715
C126	C	1.851189	-0.030301	1.095049
C127	C	1.134361	-0.724324	0.378147
C128	C	1.467694	-0.390991	0.711480
C129	C	1.801028	-0.057657	1.044813
C130	C	1.034026	-0.779034	0.277675
C131	C	1.367359	-0.445701	0.611009
C132	C	1.700692	-0.112367	0.944342
C133	C	1.034003	-0.724427	0.277669
C134	C	1.367336	-0.391094	0.611002
C135	C	1.700670	-0.057760	0.944335
C136	C	1.084169	-0.697071	0.327907
C137	C	1.417502	-0.363737	0.661241
C138	C	1.750835	-0.030404	0.994574
C139	C	1.084156	-0.642479	0.327877
C140	C	1.417489	-0.309146	0.661211
C141	C	1.750822	0.024187	0.994544
N142	N	1.134312	-0.615120	0.378118
N143	N	1.467646	-0.281787	0.711452
N144	N	1.800979	0.051547	1.044785
C145	C	1.184495	-0.642364	0.428371
C146	C	1.517829	-0.309031	0.761704
C147	C	1.851162	0.024303	1.095037
C148	C	1.084303	-0.975555	0.327966
C149	C	1.417636	-0.642221	0.661299
C150	C	1.750970	-0.308888	0.994632
C151	C	1.084333	-1.030157	0.327972
C152	C	1.417666	-0.696824	0.661306
C153	C	1.750999	-0.363490	0.994639
C154	C	1.184677	-1.030042	0.428469
C155	C	1.518011	-0.696709	0.761802
C156	C	1.851344	-0.363375	1.095136
C157	C	1.184651	-0.975439	0.428458
C158	C	1.517984	-0.642105	0.761791
C159	C	1.851317	-0.308772	1.095124
C160	C	1.134460	-0.948196	0.378206
C161	C	1.467793	-0.614862	0.711540
C162	C	1.801126	-0.281529	1.044873
C163	C	1.184445	-0.527699	0.428330
C164	C	1.517778	-0.194366	0.761664
C165	C	1.851112	0.138968	1.094997
C166	C	1.184421	-0.473094	0.428306
C167	C	1.517754	-0.139760	0.761640
C168	C	1.851087	0.193573	1.094973
C169	C	1.084074	-0.473214	0.327813
C170	C	1.417407	-0.139880	0.661146
C171	C	1.750740	0.193453	0.994479
C172	C	1.084101	-0.527814	0.327833
C173	C	1.417434	-0.194481	0.661167
C174	C	1.750767	0.138852	0.994500
C175	C	1.134289	-0.555056	0.378099
C176	C	1.467622	-0.221722	0.711432
C177	C	1.800956	0.111611	1.044765
O178	O	1.041516	-0.614245	0.285145
O179	O	1.374849	-0.280912	0.618478
O180	O	1.708182	0.052421	0.951811
O181	O	1.227141	-0.614072	0.471102
O182	O	1.560475	-0.280739	0.804436
O183	O	1.893808	0.052594	1.137769
C184	C	1.339068	-0.251908	0.378134
C185	C	1.672402	0.081425	0.711467
C186	C	2.005735	0.414758	1.044800
C187	C	1.426318	-0.251915	0.378141
C188	C	1.759651	0.081419	0.711475
C189	C	2.092985	0.414752	1.044808
C190	C	1.134372	-0.251855	0.582860
C191	C	1.467705	0.081479	0.916193
C192	C	1.801038	0.414812	1.249527
C193	C	1.134392	-0.251838	0.670110
C194	C	1.467725	0.081495	1.003443
C195	C	1.801059	0.414829	1.336776
C196	C	1.134457	-0.115520	0.378194
C197	C	1.467790	0.217813	0.711528
C198	C	1.801124	0.551147	1.044861
C199	C	1.134513	-0.057406	0.378228
C200	C	1.467847	0.275927	0.711561
C201	C	1.801180	0.609261	1.044895
C202	C	1.134322	-0.251894	0.174168
C203	C	1.467655	0.081440	0.507501
C204	C	1.800989	0.414773	0.840834
C205	C	1.134454	-0.251763	0.086918
C206	C	1.467787	0.081571	0.420252
C207	C	1.801121	0.414904	0.753585
C208	C	1.184632	-0.218399	0.711125
C209	C	1.517965	0.114935	1.044458
C210	C	1.851299	0.448268	1.377792
C211	C	1.184641	-0.218381	0.793105
C212	C	1.517975	0.114952	1.126439
C213	C	1.851308	0.448285	1.459772
C214	C	1.134414	-0.251806	0.834069
C215	C	1.467747	0.081527	1.167403
C216	C	1.801081	0.414860	1.500736
C217	C	1.084168	-0.285247	0.793048
C218	C	1.417502	0.048086	1.126382
C219	C	1.750835	0.381419	1.459715
C220	C	1.084156	-0.285262	0.711069
C221	C	1.417489	0.048072	1.044403
C222	C	1.750822	0.381405	1.377736
C223	C	1.084200	-0.285216	0.963918
C224	C	1.417533	0.048118	1.297252
C225	C	1.750867	0.381451	1.630585
C226	C	1.084214	-0.285202	1.045903
C227	C	1.417547	0.048131	1.379236
C228	C	1.750880	0.381464	1.712570
C229	C	1.184686	-0.218335	1.045955
C230	C	1.518019	0.114998	1.379288
C231	C	1.851353	0.448331	1.712621
C232	C	1.184673	-0.218350	0.963976
C233	C	1.518006	0.114983	1.297309
C234	C	1.851340	0.448317	1.630642
C235	C	1.134428	-0.251792	0.922960
C236	C	1.467762	0.081542	1.256294
C237	C	1.801095	0.414875	1.589627
H238	H	0.433856	-0.312500	0.286886
H239	H	0.767189	0.020833	0.620219
H240	H	1.100523	0.354167	0.953552
Br241	Br	0.857862	-0.173171	0.496678
Br242	Br	1.191195	0.160162	0.830011
Br243	Br	1.524529	0.493496	1.163344
H244	H	1.043312	-0.312419	1.079254
H245	H	1.376646	0.020915	1.412587
H246	H	1.709979	0.354248	1.745920
H247	H	1.043217	-0.451023	0.286895
H248	H	1.376551	-0.117690	0.620229
H249	H	1.709884	0.215644	0.953562
Br250	Br	0.604816	-0.330620	0.259562
Br251	Br	0.938150	0.002714	0.592896
Br252	Br	1.271483	0.336047	0.926229
H253	H	1.043273	-0.312439	0.930526
H254	H	1.376606	0.020894	1.263860
H255	H	1.709940	0.354227	1.597193
Br256	Br	1.015965	-0.330642	0.655405
Br257	Br	1.349298	0.002691	0.988738
Br258	Br	1.682632	0.336025	1.322071
Br259	Br	0.664635	-0.173180	0.496685
Br260	Br	0.997968	0.160153	0.830018
Br261	Br	1.331302	0.493486	1.163351
Br262	Br	1.252879	-0.172952	1.101617
Br263	Br	1.586212	0.160381	1.434950
Br264	Br	1.919545	0.493714	1.768283
Br265	Br	0.664430	-0.330607	0.259548
Br266	Br	0.997764	0.002727	0.592881
Br267	Br	1.331097	0.336060	0.926214
H268	H	1.043270	-0.312460	0.826407
H269	H	1.376603	0.020873	1.159741
H270	H	1.709936	0.354206	1.493074
H271	H	0.582738	-0.191318	0.469393
H272	H	0.916072	0.142015	0.802726
H273	H	1.249405	0.475349	1.136060
Br274	Br	0.965938	-0.816147	0.209492
Br275	Br	1.299271	-0.482813	0.542825
Br276	Br	1.632604	-0.149480	0.876158
Br277	Br	0.857667	-0.330596	0.259534
Br278	Br	1.191000	0.002737	0.592868
Br279	Br	1.524333	0.336071	0.926201
Br280	Br	1.016184	-0.938587	0.259757
Br281	Br	1.349517	-0.605254	0.593090
Br282	Br	1.682850	-0.271921	0.926423
H283	H	0.993129	-0.702248	0.236749
H284	H	1.326462	-0.368915	0.570082
H285	H	1.659796	-0.035582	0.903416
H286	H	0.434010	-0.191325	0.469401
H287	H	0.767344	0.142008	0.802734
H288	H	1.100677	0.475341	1.136067
Br289	Br	1.252559	-0.564661	0.496546
Br290	Br	1.585893	-0.231328	0.829880
Br291	Br	1.919226	0.102006	1.163213
Br292	Br	1.252510	-0.435970	0.496489
Br293	Br	1.585843	-0.102637	0.829822
Br294	Br	1.919177	0.230696	1.163155
Br295	Br	1.302785	-0.687093	0.546824
Br296	Br	1.636118	-0.353760	0.880158
Br297	Br	1.969452	-0.020427	1.213491
Br298	Br	1.252735	-0.938318	0.496641
Br299	Br	1.586068	-0.604984	0.829974
Br300	Br	1.919401	-0.271651	1.163307
H301	H	1.225535	-0.191182	0.677778
H302	H	1.558869	0.142152	1.011111
H303	H	1.892202	0.475485	1.344445
Br304	Br	1.302838	-0.815776	0.546865
Br305	Br	1.636172	-0.482442	0.880198
Br306	Br	1.969505	-0.149109	1.213531
H307	H	1.225538	-1.052234	0.469389
H308	H	1.558871	-0.718901	0.802722
H309	H	1.892204	-0.385567	1.136055
H310	H	1.043491	-1.052426	0.287055
H311	H	1.376825	-0.719093	0.620388
H312	H	1.710158	-0.385759	0.953721
H313	H	1.225554	-0.191153	0.826496
H314	H	1.558887	0.142180	1.159830
H315	H	1.892221	0.475514	1.493163
H316	H	1.225577	-0.191135	0.930625
H317	H	1.558910	0.142198	1.263958
H318	H	1.892244	0.475531	1.597292
Br319	Br	1.016031	-0.564942	0.259640
Br320	Br	1.349364	-0.231609	0.592973
Br321	Br	1.682698	0.101725	0.926307
