data_functionalizedCrystal
_audit_creation_method	'MofGen! by Chris Wilmer'
_symmetry_space_group_name_H-M	'P1'
_symmetry_Int_Tables_number	1
_symmetry_cell_setting	triclinic
loop_
_symmetry_equiv_pos_as_xyz
  x,y,z
_cell_length_a	15.995300
_cell_length_b	15.995292
_cell_length_c	13.930277
_cell_angle_alpha	89.998637
_cell_angle_beta	89.991196
_cell_angle_gamma	83.470212
loop_
_atom_site_label
_atom_site_type_symbol
_atom_site_fract_x
_atom_site_fract_y
_atom_site_fract_z
O1	O	1.110993	0.107728	-0.079859
O2	O	1.610993	0.607728	0.420141
O3	O	0.867209	0.121100	-0.079853
O4	O	1.367209	0.621100	0.420147
O5	O	0.995790	-0.007478	-0.079857
O6	O	1.495790	0.492522	0.420143
O7	O	0.982411	0.236306	-0.079854
O8	O	1.482411	0.736306	0.420146
O9	O	0.995772	-0.007481	0.079804
O10	O	1.495772	0.492519	0.579804
O11	O	0.867191	0.121097	0.079809
O12	O	1.367191	0.621097	0.579809
O13	O	1.110975	0.107725	0.079803
O14	O	1.610975	0.607725	0.579803
Zn15	Zn	0.989080	0.114411	0.105156
Zn16	Zn	1.489080	0.614411	0.605156
Zn17	Zn	0.989104	0.114415	-0.105206
Zn18	Zn	1.489104	0.614415	0.394794
O19	O	0.982394	0.236304	0.079808
O20	O	1.482394	0.736304	0.579808
C21	C	0.836005	0.120553	-0.000021
C22	C	1.336005	0.620553	0.499979
C23	C	0.743052	0.118918	-0.000019
C24	C	1.243052	0.618918	0.499981
C25	C	0.572870	0.115899	-0.000026
C26	C	1.072870	0.615899	0.499974
C27	C	0.525385	0.207449	-0.000023
C28	C	1.025385	0.707449	0.499977
C29	C	0.428698	0.205779	-0.000387
C30	C	0.928698	0.705779	0.499613
C31	C	0.405314	0.112927	-0.000032
C32	C	0.905314	0.612927	0.499968
C33	C	0.446466	0.067507	-0.091028
C34	C	0.946466	0.567507	0.408972
C35	C	0.543099	0.069824	-0.091102
C36	C	1.043099	0.569824	0.408898
C37	C	0.543358	0.068465	0.090470
C38	C	1.043358	0.568465	0.590470
C39	C	0.446414	0.068473	0.091664
C40	C	0.946414	0.568473	0.591664
C41	C	0.310619	0.111242	-0.000039
C42	C	0.810619	0.611242	0.499961
C43	C	0.667565	0.117580	-0.000026
C44	C	1.167565	0.617580	0.499974
C45	C	0.995237	-0.038675	-0.000029
C46	C	1.495237	0.461325	0.499971
C47	C	0.993604	-0.131627	-0.000036
C48	C	1.493604	0.368373	0.499964
C49	C	0.987603	-0.469365	-0.000027
C50	C	1.487603	0.030635	0.499973
C51	C	1.080409	-0.446069	0.000327
C52	C	1.580409	0.053931	0.500327
C53	C	1.082173	-0.349394	-0.000036
C54	C	1.582173	0.150606	0.499964
C55	C	0.990581	-0.301809	-0.000031
C56	C	1.490581	0.198191	0.499969
C57	C	0.944192	-0.330901	-0.091202
C58	C	1.444192	0.169099	0.408798
C59	C	0.943075	-0.427691	-0.091274
C60	C	1.443075	0.072309	0.408726
C61	C	0.941159	-0.427551	0.090291
C62	C	1.441159	0.072449	0.590291
C63	C	0.944599	-0.331059	0.091492
C64	C	1.444599	0.168941	0.591492
C65	C	0.992259	-0.207114	-0.000036
C66	C	1.492259	0.292886	0.499964
C67	C	0.985922	-0.564060	-0.000028
C68	C	1.485922	-0.064060	0.499972
C69	C	1.142179	0.108272	-0.000031
C70	C	1.642179	0.608272	0.499969
C71	C	1.235131	0.109907	-0.000040
C72	C	1.735131	0.609907	0.499960
C73	C	0.982947	0.267500	-0.000023
C74	C	1.482947	0.767500	0.499977
C75	C	0.984579	0.360453	-0.000022
C76	C	1.484579	0.860453	0.499978
N77	N	0.989070	0.114408	0.248722
N78	N	1.489070	0.614408	0.748722
N79	N	0.989120	0.114411	-0.248772
N80	N	1.489120	0.614411	0.251228
C81	C	0.932166	0.171327	0.700993
C82	C	1.432166	0.671327	1.200993
C83	C	1.046065	0.057496	0.700958
C84	C	1.546065	0.557496	1.200958
C85	C	1.046055	0.057493	0.600463
C86	C	1.546055	0.557493	1.100463
C87	C	0.989100	0.114409	0.550228
C88	C	1.489100	0.614409	1.050228
C89	C	0.932156	0.171327	0.600488
C90	C	1.432156	0.671327	1.100488
C91	C	1.103004	0.000582	0.550194
C92	C	1.603004	0.500582	1.050194
C93	C	1.102997	0.000577	0.449692
C94	C	1.602997	0.500577	0.949692
C95	C	1.046038	0.057490	0.399456
C96	C	1.546038	0.557490	0.899456
C97	C	0.989090	0.114410	0.449723
C98	C	1.489090	0.614410	0.949723
C99	C	0.932136	0.171326	0.399488
C100	C	1.432136	0.671326	0.899488
C101	C	0.875183	0.228242	0.449753
C102	C	1.375183	0.728242	0.949753
C103	C	0.875196	0.228240	0.550251
C104	C	1.375196	0.728240	1.050251
C105	C	1.046025	0.057492	0.298957
C106	C	1.546025	0.557492	0.798957
C107	C	0.932126	0.171326	0.298983
C108	C	1.432126	0.671326	0.798983
H109	H	0.418082	0.098648	-0.159001
H110	H	0.918082	0.598648	0.340999
H111	H	1.116174	-0.474074	0.065709
H112	H	1.616174	0.025926	0.565709
Cl113	Cl	0.803608	0.299789	0.613444
Cl114	Cl	1.303608	0.799789	1.113444
H115	H	0.872847	-0.441529	0.090909
H116	H	1.372847	0.058471	0.590909
H117	H	0.876792	-0.299021	-0.094587
H118	H	1.376792	0.200979	0.405413
Cl119	Cl	0.424721	-0.037828	-0.095866
Cl120	Cl	0.924721	0.462172	0.404134
Cl121	Cl	0.860517	0.242878	0.235838
Cl122	Cl	1.360517	0.742878	0.735838
H123	H	0.419060	0.101642	0.158983
H124	H	0.919060	0.601642	0.658983
Cl125	Cl	0.993950	-0.299943	-0.195963
Cl126	Cl	1.493950	0.200057	0.304037
H127	H	0.431089	0.000778	0.097426
H128	H	0.931089	0.500778	0.597426
Cl129	Cl	0.996741	-0.302399	0.195630
Cl130	Cl	1.496741	0.197601	0.695630
H131	H	0.970378	-0.455646	0.159398
H132	H	1.470378	0.044354	0.659398
Cl133	Cl	0.841377	-0.280142	0.100001
Cl134	Cl	1.341377	0.219858	0.600001
Cl135	Cl	1.174606	-0.070961	0.613344
Cl136	Cl	1.674606	0.429039	1.113344
Cl137	Cl	1.174589	-0.070975	0.386509
Cl138	Cl	1.674589	0.429025	0.886509
H139	H	0.563844	0.098605	0.159462
H140	H	1.063844	0.598605	0.659462
Cl141	Cl	0.803592	0.299796	0.386589
Cl142	Cl	1.303592	0.799796	0.886589
H143	H	1.092440	0.011161	0.741863
H144	H	1.592440	0.511161	1.241863
H145	H	1.118733	-0.330995	-0.065507
H146	H	1.618733	0.169005	0.434493
H147	H	1.092398	0.011155	0.258036
H148	H	1.592398	0.511155	0.758036
Cl149	Cl	0.385697	0.260643	-0.101685
Cl150	Cl	0.885697	0.760643	0.398315
H151	H	0.875029	-0.442229	-0.095401
H152	H	1.375029	0.057771	0.404599
Cl153	Cl	1.135347	-0.490875	-0.100054
Cl154	Cl	1.635347	0.009125	0.399946
Cl155	Cl	0.592463	-0.035740	0.091835
Cl156	Cl	1.092463	0.464260	0.591835
Cl157	Cl	1.138245	-0.320026	0.100878
Cl158	Cl	1.638245	0.179974	0.600878
Cl159	Cl	0.992706	-0.469105	-0.196496
Cl160	Cl	1.492706	0.030895	0.303504
Cl161	Cl	0.592952	-0.033965	-0.097101
Cl162	Cl	1.092952	0.466035	0.402899
H163	H	0.400219	0.241468	0.064827
H164	H	0.900219	0.741468	0.564827
H165	H	0.885794	0.217665	0.741922
H166	H	1.385794	0.717665	1.241922
H167	H	0.544993	0.243694	-0.065177
H168	H	1.044993	0.743694	0.434823
Cl169	Cl	0.554435	0.264482	0.100285
Cl170	Cl	1.054435	0.764482	0.600285
H171	H	0.561419	0.102560	-0.159379
H172	H	1.061419	0.602560	0.340621
