data_functionalizedCrystal
_audit_creation_method	'MofGen! by Chris Wilmer'
_symmetry_space_group_name_H-M	'P1'
_symmetry_Int_Tables_number	1
_symmetry_cell_setting	triclinic
loop_
_symmetry_equiv_pos_as_xyz
  x,y,z
_cell_length_a	12.594516
_cell_length_b	12.759401
_cell_length_c	12.759393
_cell_angle_alpha	90.020588
_cell_angle_beta	89.970876
_cell_angle_gamma	89.985858
loop_
_atom_site_label
_atom_site_type_symbol
_atom_site_fract_x
_atom_site_fract_y
_atom_site_fract_z
Zn1	Zn	-0.423734	-1.606246	-0.594058
Zn2	Zn	-0.601753	-1.606136	-0.418385
Zn3	Zn	-0.423783	-1.430547	-0.418391
Zn4	Zn	-0.601665	-1.430532	-0.594020
O5	O	-0.512733	-1.518365	-0.506214
O6	O	-0.447365	-1.753252	-0.570768
O7	O	-0.578202	-1.582804	-0.271365
O8	O	-0.274831	-1.453907	-0.441711
O9	O	-0.578155	-1.753171	-0.441702
O10	O	-0.274794	-1.582991	-0.570773
O11	O	-0.447449	-1.453800	-0.271369
O12	O	-0.447363	-1.283524	-0.441675
O13	O	-0.578004	-1.453880	-0.741046
O14	O	-0.578052	-1.283513	-0.570709
O15	O	-0.447279	-1.582976	-0.741074
O16	O	-0.750687	-1.582789	-0.441666
O17	O	-0.750622	-1.453774	-0.570704
C18	C	-0.512704	-1.245398	-0.506189
C19	C	-0.512717	-1.128621	-0.506204
C20	C	-0.580882	-0.964056	-0.573301
C21	C	-0.580872	-1.073780	-0.573286
C22	C	-0.444575	-1.073733	-0.439124
C23	C	-0.444591	-0.964011	-0.439135
C24	C	-0.649033	-0.909220	-0.640396
C25	C	-0.717176	-0.964101	-0.707474
C26	C	-0.717166	-1.073825	-0.707459
C27	C	-0.649013	-1.128668	-0.640366
C28	C	-0.789274	-1.518296	-0.506203
C29	C	-0.907580	-1.518363	-0.506234
C30	C	-0.976836	-1.448185	-0.576369
C31	C	-1.047706	-1.422585	-0.480501
C32	C	-1.047509	-1.544058	-0.602118
C33	C	-0.976891	-1.492713	-0.410316
C34	C	-0.976688	-1.614230	-0.531997
C35	C	-1.047526	-1.588667	-0.436064
C36	C	-0.235113	-1.518463	-0.506247
C37	C	-0.116807	-1.518505	-0.506261
C38	C	-0.512626	-1.518439	-0.780247
C39	C	-0.512580	-1.518470	-0.897024
C40	C	-0.512755	-0.792398	-0.506233
C41	C	-0.512743	-0.909175	-0.506229
C42	C	-0.444505	-1.585700	-0.951902
C43	C	-0.444467	-1.585725	-1.061626
C44	C	-0.580588	-1.451288	-1.061584
C45	C	-0.580620	-1.451258	-0.951862
C46	C	-0.376466	-1.652912	-0.897063
C47	C	-0.308386	-1.720147	-0.951941
C48	C	-0.308347	-1.720172	-1.061666
C49	C	-0.376389	-1.652962	-1.116512
C50	C	-0.512764	-1.518352	-0.233246
C51	C	-0.512510	-1.518525	-0.116470
H52	H	-0.389101	-0.919326	-0.384524
H53	H	-0.252983	-1.774861	-0.907279
H54	H	-0.252906	-1.774911	-1.106344
H55	H	-1.078923	-1.341578	-0.458733
H56	H	-0.636036	-1.396498	-0.907179
H57	H	-0.945797	-1.388731	-0.635593
F58	F	-0.789717	-0.905732	-0.778864
F59	F	-0.649016	-1.245448	-0.640344
H60	H	-0.945999	-1.470943	-0.329217
F61	F	-1.088060	-1.572389	-0.708089
F62	F	-0.372044	-1.132104	-0.367727
H63	H	-1.078369	-1.648075	-0.376696
F64	F	-0.935886	-1.720089	-0.560510
H65	H	-0.376492	-1.652901	-0.807720
F66	F	-0.376331	-1.652979	-1.233291
H67	H	-0.635983	-1.396567	-1.106249
H68	H	-0.649047	-0.819878	-0.640418
F69	F	-0.789698	-1.132231	-0.778840
